data_PCOD9281025
_publ_section_title
;
Structure prediction by ZEFSAII (Michael W. Deem and Ramdas Pophale) SiO2 
 PCOD9281025
Probable space group: C 2/C
;
_chemical_formula_sum "Si O2"
_cell_formula_units_Z 56
_cell_length_a 22.389519
_cell_length_b 9.656609
_cell_length_c 14.765239
_cell_angle_alpha 90.000000
_cell_angle_beta 118.202245
_cell_angle_gamma 90.000000
_cell_volume 2813.366023
_symmetry_space_group_name_H-M "C 2/C"
_symmetry_group_IT_number 15
_symmetry_cell_setting 'monoclinic'
loop_
_space_group_symop_operation_xyz
x,y,z
-x,y,1/2-z
-x,-y,-z
x,-y,1/2+z
1/2+x,1/2+y,z
1/2-x,1/2+y,1/2-z
1/2-x,1/2-y,-z
1/2+x,1/2-y,1/2+z
loop_
_atom_site_type_symbol
_atom_site_label
_atom_site_fract_x
_atom_site_fract_y
_atom_site_fract_z
Si Si1 0.764821 0.086273 0.515036
Si Si2 0.883849 0.277935 0.851245
Si Si3 0.615541 0.194374 0.757469
Si Si4 0.004901 0.466466 0.647798
Si Si5 0.348958 0.498679 0.240122
Si Si6 0.635430 0.093932 0.974781
Si Si7 0.271558 0.016206 0.207154
O O1 0.750000 0.250000 0.500000
O O2 0.827863 0.051378 0.624654
O O3 0.700787 0.002788 0.510684
O O4 0.769163 0.031414 0.415469
O O5 0.953577 0.355784 0.879549
O O6 0.887354 0.122213 0.820272
O O7 0.825478 0.358242 0.752252
O O8 0.862140 0.302433 0.939233
O O9 0.549985 0.106873 0.680828
O O10 0.613583 0.355223 0.735092
O O11 0.624694 0.170882 0.871677
O O12 0.681579 0.120857 0.760682
O O13 0.000000 0.422845 0.750000
O O14 0.930289 0.497324 0.559080
O O15 0.279362 0.517838 0.246425
#
# Coordination Sequence:
#
# PCOD9281025 Si02
#       7
#     8   8   8   8   8   8   8
#     4  11  23  36  60  94 124 152 196 248 305 353
#     4  11  21  37  61  92 114 155 200 250 290 353
#     4   9  22  38  59  83 117 163 193 246 297 355
#     4   9  20  41  63  81 113 157 209 237 290 357
#     4  12  23  36  59  91 126 148 195 250 306 349
#     4  10  21  40  65  83 116 164 207 239 294 364
#     4  10  21  38  56  84 125 158 194 232 300 368
#
# _framework density 19.904983000000001
#
# number of rings (size 3 to 8) (size 9 to 14) (size 15 to 20)
#    0.000    1.714    2.857    2.143    2.000    1.143 
#    0.000    2.857    0.000    0.000    0.000    0.000 
#    0.000    0.000    0.000    0.000    0.000    0.000 
#
# Total GULP energy -156474.421682 kJ/mol
# GULP energy per Si atom -5588.372203 kJ/mol
# Density = 1.985968 g / cm^3
# Si number density = 19.904983 Si / 1000 Ang^3
#
#
#
# Elastic Constant Matrix: (Units=GPa)
#
#
# Indices 1 2 3 4 5 6 
#
# 1 38.4707 11.2249 8.2468 0.0000 -12.9573 0.0000
# 2 11.2249 127.1389 4.1237 0.0000 -5.7443 0.0000
# 3 8.2468 4.1237 46.9428 0.0000 -2.7788 0.0000
# 4 0.0000 0.0000 0.0000 0.0937 0.0000 -6.5932
# 5 -12.9573 -5.7443 -2.7788 0.0000 16.0394 0.0000
# 6 0.0000 0.0000 0.0000 -6.5932 0.0000 1.1055
#
#
#
# Elastic Compliance Matrix: (Units=1/GPa)
#
#
# Indices 1 2 3 4 5 6 
#
# 1 0.037144 -0.001838 -0.004675 0.000000 0.028538 0.000000
# 2 -0.001838 0.008099 -0.000308 0.000000 0.001362 0.000000
# 3 -0.004675 -0.000308 0.022148 0.000000 -0.000050 0.000000
# 4 0.000000 0.000000 0.000000 -0.025491 0.000000 -0.152033
# 5 0.028538 0.001362 -0.000050 0.000000 0.085880 0.000000
# 6 0.000000 0.000000 0.000000 -0.152033 0.000000 -0.002161
#
#
# Mechanical properties :
#
#
# Convention : Reuss Voigt Hill
#
# Bulk Modulus (GPa) = 18.60476 28.86035 23.73256
# Shear Modulus (GPa) = 31.81108 16.04485 23.92796
#
# Velocity S-wave (km/s) = 4.00202 2.84222 3.47091
# Velocity P-wave (km/s) = 5.54274 5.03006 5.29261
#
# Compressibility (1/GPa) = 0.05374968
#
# Stress axis : x y z
#
# Youngs Moduli (GPa) = 26.92198 123.46822 45.15106
#
# Poissons Ratio (x) = 0.22698 0.21106
# Poissons Ratio (y) = 0.04949 0.01390
# Poissons Ratio (z) = 0.12585 0.03801
#
# Static dielectric constant tensor:
#      x y z
#    x 1.685490 0.000000 -0.006140 
#    y 0.000000 1.687800 0.000000 
#    z -0.006140 0.000000 1.732840 
# 
# From -- ./inp_files/171968.got.cif
#   From: 2010.05.17/outbox.cif.g08.bks.cpg/sg15_86_cif.got.tgz:171968.got - 2010.06.03 18:47:42.
