data_PCOD9281944
_publ_section_title
;
Structure prediction by ZEFSAII (Michael W. Deem and Ramdas Pophale) SiO2 
 PCOD9281944
Probable space group: C 2/C
;
_chemical_formula_sum "Si O2"
_cell_formula_units_Z 64
_cell_length_a 11.489309
_cell_length_b 19.858264
_cell_length_c 18.539090
_cell_angle_alpha 90.000000
_cell_angle_beta 53.027513
_cell_angle_gamma 90.000000
_cell_volume 3379.319781
_symmetry_space_group_name_H-M "C 2/C"
_symmetry_group_IT_number 15
_symmetry_cell_setting 'monoclinic'
loop_
_space_group_symop_operation_xyz
x,y,z
-x,y,1/2-z
-x,-y,-z
x,-y,1/2+z
1/2+x,1/2+y,z
1/2-x,1/2+y,1/2-z
1/2-x,1/2-y,-z
1/2+x,1/2-y,1/2+z
loop_
_atom_site_type_symbol
_atom_site_label
_atom_site_fract_x
_atom_site_fract_y
_atom_site_fract_z
Si Si1 0.193688 0.902391 0.337785
Si Si2 0.227276 0.373425 0.035903
Si Si3 0.910865 0.311182 0.164891
Si Si4 0.889832 0.440903 0.561570
Si Si5 0.623279 0.526544 0.262089
Si Si6 0.453483 0.661285 0.122836
Si Si7 0.103177 0.171338 0.518828
Si Si8 0.119866 0.671060 0.991473
O O1 0.240521 0.914094 0.403044
O O2 0.317545 0.857154 0.253269
O O3 0.045174 0.860106 0.397388
O O4 0.156378 0.969604 0.308491
O O5 0.082006 0.329955 0.103643
O O6 0.191804 0.419428 0.980924
O O7 0.374202 0.332980 0.960966
O O8 0.857257 0.327499 0.103428
O O9 0.899977 0.230710 0.178872
O O10 0.772015 0.462206 0.663453
O O11 0.000000 0.500000 0.500000
O O12 0.984306 0.377851 0.554130
O O13 0.500000 0.506092 0.250000
O O14 0.573391 0.596114 0.318449
O O15 0.377986 0.653123 0.072614
O O16 0.089465 0.252289 0.525973
O O17 0.238416 0.148944 0.517214
#
# Coordination Sequence:
#
# PCOD9281944 Si02
#       8
#     8   8   8   8   8   8   8   8
#     4  11  25  38  63  91 127 163 212 257 319 373
#     4  10  21  43  61  92 123 166 209 257 318 382
#     4  10  21  38  66  94 125 163 209 264 314 371
#     4  11  24  41  66  89 128 171 207 253 317 374
#     4  12  26  42  61  97 125 164 215 262 315 379
#     4  10  22  41  64  94 127 161 211 264 318 374
#     4   9  21  40  64  90 122 168 207 256 317 370
#     4   9  20  40  62  90 124 164 213 251 309 384
#
# _framework density 18.938723
#
# number of rings (size 3 to 8) (size 9 to 14) (size 15 to 20)
#    0.000    1.750    1.250    2.250    5.250    5.000 
#    0.000    1.875    0.000    0.000    0.000    0.000 
#    0.000    0.000    0.000    0.000    0.000    0.000 
#
# Total GULP energy -178718.868223 kJ/mol
# GULP energy per Si atom -5584.964632 kJ/mol
# Density = 1.889562 g / cm^3
# Si number density = 18.938723 Si / 1000 Ang^3
#
#
#
# Elastic Constant Matrix: (Units=GPa)
#
#
# Indices 1 2 3 4 5 6 
#
# 1 124.0022 13.6904 9.0591 0.0000 3.9165 0.0000
# 2 13.6904 44.0586 9.5892 0.0000 4.7495 0.0000
# 3 9.0591 9.5892 51.6323 0.0000 -14.0822 0.0000
# 4 0.0000 0.0000 0.0000 30.2895 0.0000 1.5516
# 5 3.9165 4.7495 -14.0822 0.0000 16.1820 0.0000
# 6 0.0000 0.0000 0.0000 1.5516 0.0000 18.7956
#
#
#
# Elastic Compliance Matrix: (Units=1/GPa)
#
#
# Indices 1 2 3 4 5 6 
#
# 1 0.008523 -0.001844 -0.002056 0.000000 -0.003311 0.000000
# 2 -0.001844 0.026796 -0.008754 0.000000 -0.015037 0.000000
# 3 -0.002056 -0.008754 0.029097 0.000000 0.028388 0.000000
# 4 0.000000 0.000000 0.000000 0.033155 0.000000 -0.002737
# 5 -0.003311 -0.015037 0.028388 0.000000 0.091716 0.000000
# 6 0.000000 0.000000 0.000000 -0.002737 0.000000 0.053430
#
#
# Mechanical properties :
#
#
# Convention : Reuss Voigt Hill
#
# Bulk Modulus (GPa) = 25.57031 31.59670 28.58350
# Shear Modulus (GPa) = 17.78974 25.54370 21.66672
#
# Velocity S-wave (km/s) = 3.06818 3.67652 3.38604
# Velocity P-wave (km/s) = 5.10711 5.89426 5.51475
#
# Compressibility (1/GPa) = 0.03910786
#
# Stress axis : x y z
#
# Youngs Moduli (GPa) = 117.33365 37.31855 34.36803
#
# Poissons Ratio (x) = 0.06881 0.07065
# Poissons Ratio (y) = 0.21636 0.30087
# Poissons Ratio (z) = 0.24121 0.32670
#
# Static dielectric constant tensor:
#      x y z
#    x 1.664880 0.000000 -0.001170 
#    y 0.000000 1.649590 0.000000 
#    z -0.001170 0.000000 1.644600 
# 
# From -- ./inp_files/239785.got.cif
#   From: 2010.05.17/outbox.cif.g08.bks.cpg/sg15_120_cif.got.tgz:239785.got - 2010.06.03 18:47:42.
