data_PCOD9281374
_publ_section_title
;
Structure prediction by ZEFSAII (Michael W. Deem and Ramdas Pophale) SiO2 
 PCOD9281374
Probable space group: C 2/C
;
_chemical_formula_sum "Si O2"
_cell_formula_units_Z 64
_cell_length_a 5.347306
_cell_length_b 18.112872
_cell_length_c 29.077556
_cell_angle_alpha 90.000000
_cell_angle_beta 85.837082
_cell_angle_gamma 90.000000
_cell_volume 2808.878340
_symmetry_space_group_name_H-M "C 2/C"
_symmetry_group_IT_number 15
_symmetry_cell_setting 'monoclinic'
loop_
_space_group_symop_operation_xyz
x,y,z
-x,y,1/2-z
-x,-y,-z
x,-y,1/2+z
1/2+x,1/2+y,z
1/2-x,1/2+y,1/2-z
1/2-x,1/2-y,-z
1/2+x,1/2-y,1/2+z
loop_
_atom_site_type_symbol
_atom_site_label
_atom_site_fract_x
_atom_site_fract_y
_atom_site_fract_z
Si Si1 0.336137 0.553527 0.534696
Si Si2 0.147276 0.536520 0.202075
Si Si3 0.874736 0.841589 0.653072
Si Si4 0.665480 0.143924 0.969069
Si Si5 0.011842 0.333664 0.570225
Si Si6 0.706657 0.960244 0.880849
Si Si7 0.872870 0.714753 0.889863
Si Si8 0.904415 0.066147 0.631751
O O1 0.500000 0.500000 0.500000
O O2 0.061646 0.582647 0.525060
O O3 0.296401 0.524783 0.587437
O O4 0.544835 0.618659 0.537788
O O5 0.269346 0.618512 0.199955
O O6 0.330080 0.471800 0.180989
O O7 0.000000 0.519378 0.250000
O O8 0.959281 0.542888 0.162034
O O9 0.679613 0.830389 0.613890
O O10 0.063309 0.904843 0.632957
O O11 0.008618 0.762783 0.653081
O O12 0.576687 0.187793 0.924825
O O13 0.642332 0.179495 0.020046
O O14 0.905994 0.417781 0.574106
O O15 0.797806 0.273186 0.580306
O O16 0.805208 0.044281 0.880877
O O17 0.709556 0.647268 0.871845
#
# Coordination Sequence:
#
# PCOD9281374 Si02
#       8
#     8   8   8   8   8   8   8   8
#     4  11  25  39  59  93 134 179 225 276 328 390
#     4  10  22  42  72  99 119 160 217 275 337 406
#     4   9  21  38  64  91 125 165 215 272 327 391
#     4  11  25  37  60  91 131 181 239 269 322 389
#     4  10  21  38  61  88 126 178 223 274 315 380
#     4   9  20  38  65  92 124 157 217 269 333 388
#     4  10  23  39  58  91 131 178 213 269 331 392
#     4  10  23  38  62  91 128 170 207 270 334 391
#
# _framework density 22.784894000000001
#
# number of rings (size 3 to 8) (size 9 to 14) (size 15 to 20)
#    0.000    2.000    0.000    1.500   15.750    2.500 
#    0.000    0.000    8.250    0.000    0.000    0.000 
#    0.000    0.000    0.000    0.000    0.000    0.000 
#
# Total GULP energy -178328.511984 kJ/mol
# GULP energy per Si atom -5572.766000 kJ/mol
# Density = 2.273303 g / cm^3
# Si number density = 22.784894 Si / 1000 Ang^3
#
#
#
# Elastic Constant Matrix: (Units=GPa)
#
#
# Indices 1 2 3 4 5 6 
#
# 1 59.0149 34.0367 3.9533 0.0000 -9.5746 0.0000
# 2 34.0367 114.3616 25.1837 0.0000 -14.6189 0.0000
# 3 3.9533 25.1837 88.8670 0.0000 -37.5190 0.0000
# 4 0.0000 0.0000 0.0000 24.4747 0.0000 -5.4055
# 5 -9.5746 -14.6189 -37.5190 0.0000 32.5424 0.0000
# 6 0.0000 0.0000 0.0000 -5.4055 0.0000 58.2705
#
#
#
# Elastic Compliance Matrix: (Units=1/GPa)
#
#
# Indices 1 2 3 4 5 6 
#
# 1 0.021722 -0.006342 0.004533 0.000000 0.008768 0.000000
# 2 -0.006342 0.011261 -0.003042 0.000000 -0.000314 0.000000
# 3 0.004533 -0.003042 0.023184 0.000000 0.026697 0.000000
# 4 0.000000 0.000000 0.000000 0.041713 0.000000 0.003870
# 5 0.008768 -0.000314 0.026697 0.000000 0.063948 0.000000
# 6 0.000000 0.000000 0.000000 0.003870 0.000000 0.017520
#
#
# Mechanical properties :
#
#
# Convention : Reuss Voigt Hill
#
# Bulk Modulus (GPa) = 21.52169 43.17675 32.34922
# Shear Modulus (GPa) = 24.44516 36.32884 30.38700
#
# Velocity S-wave (km/s) = 3.27902 3.99736 3.65587
# Velocity P-wave (km/s) = 4.87873 6.34792 5.66119
#
# Compressibility (1/GPa) = 0.04646476
#
# Stress axis : x y z
#
# Youngs Moduli (GPa) = 46.03720 88.79836 43.13236
#
# Poissons Ratio (x) = 0.56318 -0.19550
# Poissons Ratio (y) = 0.29198 0.13120
# Poissons Ratio (z) = -0.20867 0.27010
#
# Static dielectric constant tensor:
#      x y z
#    x 2.010860 0.000000 -0.019160 
#    y 0.000000 1.988440 0.000000 
#    z -0.019160 0.000000 1.823750 
# 
# From -- ./inp_files/305795.got.cif
#   From: 2010.05.17/outbox.cif.g08.bks.cpg/sg15_153_cif.got.tgz:305795.got - 2010.06.03 18:47:42.
