data_PCOD9281629
_publ_section_title
;
Structure prediction by ZEFSAII (Michael W. Deem and Ramdas Pophale) SiO2 
 PCOD9281629
Probable space group: C 2/C
;
_chemical_formula_sum "Si O2"
_cell_formula_units_Z 40
_cell_length_a 8.083454
_cell_length_b 11.600844
_cell_length_c 18.838439
_cell_angle_alpha 90.000000
_cell_angle_beta 94.551415
_cell_angle_gamma 90.000000
_cell_volume 1761.001683
_symmetry_space_group_name_H-M "C 2/C"
_symmetry_group_IT_number 15
_symmetry_cell_setting 'monoclinic'
loop_
_space_group_symop_operation_xyz
x,y,z
-x,y,1/2-z
-x,-y,-z
x,-y,1/2+z
1/2+x,1/2+y,z
1/2-x,1/2+y,1/2-z
1/2-x,1/2-y,-z
1/2+x,1/2-y,1/2+z
loop_
_atom_site_type_symbol
_atom_site_label
_atom_site_fract_x
_atom_site_fract_y
_atom_site_fract_z
Si Si1 0.896383 0.822695 0.590994
Si Si2 0.974859 0.635437 0.482461
Si Si3 0.880494 0.649943 0.159037
Si Si4 0.297074 0.752781 0.791034
Si Si5 0.585318 0.507354 0.676544
O O1 0.987866 0.727202 0.546802
O O2 0.715705 0.847710 0.551082
O O3 0.863938 0.769829 0.668220
O O4 0.988492 0.942344 0.610597
O O5 0.000000 0.500000 0.500000
O O6 0.103554 0.667015 0.424161
O O7 0.791215 0.746699 0.205787
O O8 0.771443 0.540099 0.174942
O O9 0.073630 0.643762 0.188317
O O10 0.394673 0.643657 0.825330
O O11 0.500000 0.481801 0.750000
#
# Coordination Sequence:
#
# PCOD9281629 Si02
#       5
#     8   8   8   8   8
#     4  10  23  42  65  93 128 166 212 264 314 384
#     4  10  22  44  65  92 133 173 210 259 324 383
#     4  10  21  38  63  91 126 164 211 256 311 382
#     4  10  21  42  62  89 129 163 206 266 313 369
#     4  12  22  38  66  96 123 164 213 266 320 366
#
# _framework density 22.714347
#
# number of rings (size 3 to 8) (size 9 to 14) (size 15 to 20)
#    0.000    1.600    4.000    1.200    0.000    2.400 
#    0.000   18.000    0.000    0.000    0.000    0.000 
#    0.000    0.000    0.000    0.000    0.000    0.000 
#
# Total GULP energy -111459.308339 kJ/mol
# GULP energy per Si atom -5572.965417 kJ/mol
# Density = 2.266265 g / cm^3
# Si number density = 22.714347 Si / 1000 Ang^3
#
#
#
# Elastic Constant Matrix: (Units=GPa)
#
#
# Indices 1 2 3 4 5 6 
#
# 1 66.8538 19.8160 36.4990 0.0000 -17.1801 0.0000
# 2 19.8160 82.5672 42.6080 0.0000 -6.4375 0.0000
# 3 36.4990 42.6080 113.4024 0.0000 -36.7206 0.0000
# 4 0.0000 0.0000 0.0000 26.5854 0.0000 -2.2754
# 5 -17.1801 -6.4375 -36.7206 0.0000 38.0970 0.0000
# 6 0.0000 0.0000 0.0000 -2.2754 0.0000 29.2170
#
#
#
# Elastic Compliance Matrix: (Units=1/GPa)
#
#
# Indices 1 2 3 4 5 6 
#
# 1 0.018828 -0.002221 -0.003776 0.000000 0.004476 0.000000
# 2 -0.002221 0.015768 -0.006790 0.000000 -0.004882 0.000000
# 3 -0.003776 -0.006790 0.016953 0.000000 0.013490 0.000000
# 4 0.000000 0.000000 0.000000 0.037867 0.000000 0.002949
# 5 0.004476 -0.004882 0.013490 0.000000 0.040445 0.000000
# 6 0.000000 0.000000 0.000000 0.002949 0.000000 0.034456
#
#
# Mechanical properties :
#
#
# Convention : Reuss Voigt Hill
#
# Bulk Modulus (GPa) = 38.50039 51.18549 44.84294
# Shear Modulus (GPa) = 25.18246 29.70656 27.44451
#
# Velocity S-wave (km/s) = 3.33327 3.62032 3.47975
# Velocity P-wave (km/s) = 5.63922 6.32922 5.99415
#
# Compressibility (1/GPa) = 0.02597376
#
# Stress axis : x y z
#
# Youngs Moduli (GPa) = 53.11206 63.41995 58.98625
#
# Poissons Ratio (x) = 0.14087 0.22274
# Poissons Ratio (y) = 0.11797 0.40054
# Poissons Ratio (z) = 0.20056 0.43065
#
# Static dielectric constant tensor:
#      x y z
#    x 0.603940 0.000000 1.023210 
#    y 0.000000 1.835680 0.000000 
#    z 1.023210 0.000000 1.136540 
# 
# From -- ./inp_files/187902.got.cif
#   From: 2010.05.17/outbox.cif.g08.bks.cpg/sg15_94_cif.got.tgz:187902.got - 2010.06.03 18:47:42.
