data_PCOD9281647
_publ_section_title
;
Structure prediction by ZEFSAII (Michael W. Deem and Ramdas Pophale) SiO2 
 PCOD9281647
Probable space group: C 2/C
;
_chemical_formula_sum "Si O2"
_cell_formula_units_Z 52
_cell_length_a 15.314157
_cell_length_b 14.630261
_cell_length_c 12.135861
_cell_angle_alpha 90.000000
_cell_angle_beta 113.711875
_cell_angle_gamma 90.000000
_cell_volume 2489.497601
_symmetry_space_group_name_H-M "C 2/C"
_symmetry_group_IT_number 15
_symmetry_cell_setting 'monoclinic'
loop_
_space_group_symop_operation_xyz
x,y,z
-x,y,1/2-z
-x,-y,-z
x,-y,1/2+z
1/2+x,1/2+y,z
1/2-x,1/2+y,1/2-z
1/2-x,1/2-y,-z
1/2+x,1/2-y,1/2+z
loop_
_atom_site_type_symbol
_atom_site_label
_atom_site_fract_x
_atom_site_fract_y
_atom_site_fract_z
Si Si1 0.319385 0.724612 0.247115
Si Si2 0.745570 0.449825 0.921192
Si Si3 0.907375 0.941797 0.479029
Si Si4 0.693706 0.612097 0.772204
Si Si5 0.000000 0.798421 0.250000
Si Si6 0.513049 0.255591 0.502815
Si Si7 0.419523 0.864121 0.131139
O O1 0.271594 0.633867 0.172824
O O2 0.242157 0.797142 0.250591
O O3 0.390928 0.711364 0.386443
O O4 0.379146 0.777011 0.180863
O O5 0.645269 0.459433 0.934443
O O6 0.762872 0.549787 0.879957
O O7 0.828724 0.421445 0.047051
O O8 0.833844 0.953871 0.342590
O O9 0.938178 0.836582 0.487432
O O10 0.000000 0.000000 0.500000
O O11 0.594698 0.640720 0.779652
O O12 0.982118 0.745107 0.126325
O O13 0.473343 0.169369 0.548706
O O14 0.500000 0.908448 0.250000
#
# Coordination Sequence:
#
# PCOD9281647 Si02
#       7
#     8   8   8   8   4   8   8
#     4  11  22  40  66  98 129 170 231 267 320 395
#     4  12  21  38  67  95 131 176 209 269 339 375
#     4  11  21  36  60  97 132 162 209 266 333 396
#     4  11  24  38  60  96 135 167 216 276 321 394
#     4  10  22  42  58  94 146 166 202 274 342 392
#     4  10  21  38  63  92 130 174 213 268 320 389
#     4  10  21  40  66  94 123 170 236 273 307 389
#
# _framework density 20.887748999999999
#
# number of rings (size 3 to 8) (size 9 to 14) (size 15 to 20)
#    0.000    1.231    3.077    5.077    0.000    1.846 
#    0.000    4.615    1.692    0.000    0.000    0.000 
#    0.000    0.000    0.000    0.000    0.000    0.000 
#
# Total GULP energy -145150.966060 kJ/mol
# GULP energy per Si atom -5582.729464 kJ/mol
# Density = 2.084021 g / cm^3
# Si number density = 20.887749 Si / 1000 Ang^3
#
#
#
# Elastic Constant Matrix: (Units=GPa)
#
#
# Indices 1 2 3 4 5 6 
#
# 1 82.6503 39.8611 48.8853 0.0000 -1.4723 0.0000
# 2 39.8611 56.5092 42.8153 0.0000 -4.3940 0.0000
# 3 48.8853 42.8153 141.7172 0.0000 3.4389 0.0000
# 4 0.0000 0.0000 0.0000 25.6310 0.0000 7.5214
# 5 -1.4723 -4.3940 3.4389 0.0000 41.4795 0.0000
# 6 0.0000 0.0000 0.0000 7.5214 0.0000 21.7503
#
#
#
# Elastic Compliance Matrix: (Units=1/GPa)
#
#
# Indices 1 2 3 4 5 6 
#
# 1 0.019481 -0.011246 -0.003317 0.000000 -0.000225 0.000000
# 2 -0.011246 0.029823 -0.005208 0.000000 0.003192 0.000000
# 3 -0.003317 -0.005208 0.009810 0.000000 -0.001483 0.000000
# 4 0.000000 0.000000 0.000000 0.043422 0.000000 -0.015016
# 5 -0.000225 0.003192 -0.001483 0.000000 0.024561 0.000000
# 6 0.000000 0.000000 0.000000 -0.015016 0.000000 0.051169
#
#
# Mechanical properties :
#
#
# Convention : Reuss Voigt Hill
#
# Bulk Modulus (GPa) = 51.09378 60.44447 55.76912
# Shear Modulus (GPa) = 22.28838 27.72652 25.00745
#
# Velocity S-wave (km/s) = 3.27013 3.64731 3.46386
# Velocity P-wave (km/s) = 6.22676 6.83650 6.53874
#
# Compressibility (1/GPa) = 0.01957185
#
# Stress axis : x y z
#
# Youngs Moduli (GPa) = 51.33275 33.53063 101.93730
#
# Poissons Ratio (x) = 0.37709 0.33810
# Poissons Ratio (y) = 0.57729 0.53093
# Poissons Ratio (z) = 0.17026 0.17464
#
# Static dielectric constant tensor:
#      x y z
#    x 1.954800 0.000000 0.074870 
#    y 0.000000 1.748660 0.000000 
#    z 0.074870 0.000000 1.848020 
# 
# From -- ./inp_files/96927.got.cif
#   From: 2010.05.17/outbox.cif.g08.bks.cpg/sg15_49_cif.got.tgz:96927.got - 2010.06.03 18:47:42.
