data_PCOD9281028
_publ_section_title
;
Structure prediction by ZEFSAII (Michael W. Deem and Ramdas Pophale) SiO2 
 PCOD9281028
Probable space group: C 2/C
;
_chemical_formula_sum "Si O2"
_cell_formula_units_Z 52
_cell_length_a 25.738436
_cell_length_b 13.897702
_cell_length_c 11.927035
_cell_angle_alpha 90.000000
_cell_angle_beta 33.360552
_cell_angle_gamma 90.000000
_cell_volume 2346.096964
_symmetry_space_group_name_H-M "C 2/C"
_symmetry_group_IT_number 15
_symmetry_cell_setting 'monoclinic'
loop_
_space_group_symop_operation_xyz
x,y,z
-x,y,1/2-z
-x,-y,-z
x,-y,1/2+z
1/2+x,1/2+y,z
1/2-x,1/2+y,1/2-z
1/2-x,1/2-y,-z
1/2+x,1/2-y,1/2+z
loop_
_atom_site_type_symbol
_atom_site_label
_atom_site_fract_x
_atom_site_fract_y
_atom_site_fract_z
Si Si1 0.767974 0.233338 0.682210
Si Si2 0.928747 0.673353 0.784885
Si Si3 0.296203 0.570443 0.082726
Si Si4 0.500000 0.355286 0.250000
Si Si5 0.257688 0.649119 0.921653
Si Si6 0.055182 0.683731 0.995851
Si Si7 0.371431 0.968298 0.989443
O O1 0.839854 0.255978 0.454252
O O2 0.745918 0.331784 0.788414
O O3 0.809722 0.168836 0.709376
O O4 0.667215 0.204303 0.812961
O O5 0.970240 0.671665 0.586836
O O6 0.000000 0.709453 0.750000
O O7 0.899253 0.567082 0.879352
O O8 0.223351 0.493401 0.265562
O O9 0.406470 0.579082 0.916638
O O10 0.292152 0.575376 0.954417
O O11 0.496743 0.276749 0.357639
O O12 0.158912 0.608900 0.050773
O O13 0.250000 0.750000 0.000000
O O14 0.053270 0.581051 0.062937
#
# Coordination Sequence:
#
# PCOD9281028 Si02
#       7
#     8   8   8   4   8   8   8
#     4   8  18  36  57  81 110 163 206 230 295 364
#     4  11  23  35  55  90 124 153 193 258 303 350
#     4   9  18  35  58  83 116 153 197 248 297 360
#     4  10  22  38  62  90 116 158 204 252 306 352
#     4   9  17  34  62  82 109 157 205 244 282 367
#     4  10  21  39  60  82 120 160 203 247 300 370
#     4  10  21  38  56  86 116 159 201 238 314 365
#
# _framework density 22.164472
#
# number of rings (size 3 to 8) (size 9 to 14) (size 15 to 20)
#    0.000    2.462    0.000    2.308    3.231    0.615 
#    5.538    0.769    6.769    0.000    0.000    0.000 
#    0.000    0.000    0.000    0.000    0.000    0.000 
#
# Total GULP energy -144858.160930 kJ/mol
# GULP energy per Si atom -5571.467728 kJ/mol
# Density = 2.211402 g / cm^3
# Si number density = 22.164472 Si / 1000 Ang^3
#
#
#
# Elastic Constant Matrix: (Units=GPa)
#
#
# Indices 1 2 3 4 5 6 
#
# 1 96.2364 10.0210 23.5125 0.0000 24.3771 0.0000
# 2 10.0210 36.8153 14.8386 0.0000 -0.8966 0.0000
# 3 23.5125 14.8386 74.6525 0.0000 7.7094 0.0000
# 4 0.0000 0.0000 0.0000 22.9091 0.0000 -11.2197
# 5 24.3771 -0.8966 7.7094 0.0000 32.6936 0.0000
# 6 0.0000 0.0000 0.0000 -11.2197 0.0000 19.8876
#
#
#
# Elastic Compliance Matrix: (Units=1/GPa)
#
#
# Indices 1 2 3 4 5 6 
#
# 1 0.013838 -0.002884 -0.002779 0.000000 -0.009742 0.000000
# 2 -0.002884 0.030291 -0.005556 0.000000 0.004291 0.000000
# 3 -0.002779 -0.005556 0.015556 0.000000 -0.001748 0.000000
# 4 0.000000 0.000000 0.000000 0.060316 0.000000 0.034027
# 5 -0.009742 0.004291 -0.001748 0.000000 0.038381 0.000000
# 6 0.000000 0.000000 0.000000 0.034027 0.000000 0.069479
#
#
# Mechanical properties :
#
#
# Convention : Reuss Voigt Hill
#
# Bulk Modulus (GPa) = 26.84751 33.82760 30.33755
# Shear Modulus (GPa) = 19.03212 25.72020 22.37616
#
# Velocity S-wave (km/s) = 2.93350 3.41020 3.18079
# Velocity P-wave (km/s) = 4.85932 5.54988 5.21604
#
# Compressibility (1/GPa) = 0.03724740
#
# Stress axis : x y z
#
# Youngs Moduli (GPa) = 72.26497 33.01268 64.28557
#
# Poissons Ratio (x) = 0.09520 0.17866
# Poissons Ratio (y) = 0.20839 0.35716
# Poissons Ratio (z) = 0.20084 0.18341
#
# Static dielectric constant tensor:
#      x y z
#    x 1.806670 0.000000 -0.021460 
#    y 0.000000 1.867300 0.000000 
#    z -0.021460 0.000000 1.904300 
# 
# From -- ./inp_files/118743.got.cif
#   From: 2010.05.17/outbox.cif.g08.bks.cpg/sg15_60_cif.got.tgz:118743.got - 2010.06.03 18:47:42.
