data_PCOD9281671
_publ_section_title
;
Structure prediction by ZEFSAII (Michael W. Deem and Ramdas Pophale) SiO2 
 PCOD9281671
Probable space group: C 2/C
;
_chemical_formula_sum "Si O2"
_cell_formula_units_Z 64
_cell_length_a 8.964960
_cell_length_b 18.760538
_cell_length_c 24.230360
_cell_angle_alpha 90.000000
_cell_angle_beta 128.530587
_cell_angle_gamma 90.000000
_cell_volume 3187.963660
_symmetry_space_group_name_H-M "C 2/C"
_symmetry_group_IT_number 15
_symmetry_cell_setting 'monoclinic'
loop_
_space_group_symop_operation_xyz
x,y,z
-x,y,1/2-z
-x,-y,-z
x,-y,1/2+z
1/2+x,1/2+y,z
1/2-x,1/2+y,1/2-z
1/2-x,1/2-y,-z
1/2+x,1/2-y,1/2+z
loop_
_atom_site_type_symbol
_atom_site_label
_atom_site_fract_x
_atom_site_fract_y
_atom_site_fract_z
Si Si1 0.316169 0.170064 0.173291
Si Si2 0.316504 0.814259 0.977557
Si Si3 0.251490 0.280323 0.061178
Si Si4 0.071560 0.984277 0.712829
Si Si5 0.482462 0.985489 0.686392
Si Si6 0.199802 0.061497 0.922371
Si Si7 0.530230 0.673898 0.319142
Si Si8 0.901727 0.460849 0.050186
O O1 0.500000 0.192476 0.250000
O O2 0.301907 0.219649 0.116658
O O3 0.358598 0.087175 0.166291
O O4 0.138893 0.181361 0.174311
O O5 0.218733 0.805148 0.895563
O O6 0.250000 0.750000 0.000000
O O7 0.539068 0.805733 0.023964
O O8 0.290807 0.891733 0.000284
O O9 0.357326 0.355801 0.088851
O O10 0.250000 0.250000 0.000000
O O11 0.293798 0.966910 0.771281
O O12 0.956641 0.910688 0.685908
O O13 0.000000 0.027179 0.750000
O O14 0.993512 0.022298 0.640650
O O15 0.500000 0.023355 0.750000
O O16 0.409663 0.030436 0.617858
O O17 0.377640 0.044643 0.920872
O O18 0.293506 0.029423 0.999568
O O19 0.500000 0.704182 0.250000
#
# Coordination Sequence:
#
# PCOD9281671 Si02
#       8
#     8   8   8   8   8   8   8   8
#     4  11  23  42  62  96 134 170 216 270 329 387
#     4  11  23  45  67  93 133 173 220 270 325 389
#     4  11  25  41  65  94 135 173 212 274 330 390
#     4  11  20  37  65  91 122 159 218 262 311 386
#     4  11  22  40  62  95 131 163 210 270 327 380
#     4  10  21  38  63  95 118 168 217 262 315 382
#     4  11  23  40  69  97 122 173 223 262 318 398
#     4  10  21  39  65  91 127 165 215 263 322 382
#
# _framework density 20.075512
#
# number of rings (size 3 to 8) (size 9 to 14) (size 15 to 20)
#    0.000    1.250    6.250    0.750    1.750    0.500 
#    2.250    1.875    0.000    0.000    0.000    0.000 
#    0.000    0.000    0.000    0.000    0.000    0.000 
#
# Total GULP energy -178280.848812 kJ/mol
# GULP energy per Si atom -5571.276525 kJ/mol
# Density = 2.002982 g / cm^3
# Si number density = 20.075512 Si / 1000 Ang^3
#
#
#
# Elastic Constant Matrix: (Units=GPa)
#
#
# Indices 1 2 3 4 5 6 
#
# 1 29.4574 8.7180 5.4820 0.0054 -21.7084 0.0061
# 2 8.7180 62.1193 30.9059 0.0006 -17.9459 0.0007
# 3 5.4820 30.9059 127.0543 0.0058 -36.3413 0.0066
# 4 0.0054 0.0006 0.0058 6363.6826 0.0050 7147.6825
# 5 -21.7084 -17.9459 -36.3413 0.0050 43.0158 0.0057
# 6 0.0061 0.0007 0.0066 7147.6825 0.0057 8088.9888
#
#
#
# Elastic Compliance Matrix: (Units=1/GPa)
#
#
# Indices 1 2 3 4 5 6 
#
# 1 0.059786 -0.002024 0.008309 0.000000 0.036347 0.000000
# 2 -0.002024 0.019277 -0.003420 0.000000 0.004131 0.000000
# 3 0.008309 -0.003420 0.012046 0.000000 0.012944 0.000000
# 4 0.000000 0.000000 0.000000 0.020935 0.000000 -0.018499
# 5 0.036347 0.004131 0.012944 0.000000 0.054249 0.000000
# 6 0.000000 0.000000 0.000000 -0.018499 0.000000 0.016470
#
#
# Mechanical properties :
#
#
# Convention : Reuss Voigt Hill
#
# Bulk Modulus (GPa) = 10.32642 34.31587 22.32115
# Shear Modulus (GPa) = 23.88774 2910.70576 1467.29675
#
# Velocity S-wave (km/s) = 3.45323 38.11858 27.06428
# Velocity P-wave (km/s) = 4.58854 44.20971 31.42892
#
# Compressibility (1/GPa) = 0.09683898
#
# Stress axis : x y z
#
# Youngs Moduli (GPa) = 16.72642 51.87455 83.01271
#
# Poissons Ratio (x) = 0.10500 -0.68976
# Poissons Ratio (y) = 0.03386 0.28392
# Poissons Ratio (z) = -0.13898 0.17742
#
# Static dielectric constant tensor:
#      x y z
#    x 1.812930 0.000000 -0.030740 
#    y 0.000000 1.777160 0.000000 
#    z -0.030740 0.000000 1.744090 
# 
# From -- ./inp_files/266139.got.cif
#   From: 2010.05.17/outbox.cif.g08.bks.cpg/sg15_134_cif.got.tgz:266139.got - 2010.06.03 18:47:42.
