data_PCOD9281724
_publ_section_title
;
Structure prediction by ZEFSAII (Michael W. Deem and Ramdas Pophale) SiO2 
 PCOD9281724
Probable space group: C 2/C
;
_chemical_formula_sum "Si O2"
_cell_formula_units_Z 52
_cell_length_a 11.301401
_cell_length_b 24.343005
_cell_length_c 13.801097
_cell_angle_alpha 90.000000
_cell_angle_beta 127.206948
_cell_angle_gamma 90.000000
_cell_volume 3024.002838
_symmetry_space_group_name_H-M "C 2/C"
_symmetry_group_IT_number 15
_symmetry_cell_setting 'monoclinic'
loop_
_space_group_symop_operation_xyz
x,y,z
-x,y,1/2-z
-x,-y,-z
x,-y,1/2+z
1/2+x,1/2+y,z
1/2-x,1/2+y,1/2-z
1/2-x,1/2-y,-z
1/2+x,1/2-y,1/2+z
loop_
_atom_site_type_symbol
_atom_site_label
_atom_site_fract_x
_atom_site_fract_y
_atom_site_fract_z
Si Si1 0.744093 0.960720 0.999629
Si Si2 0.500000 0.506099 0.250000
Si Si3 0.723686 0.454824 0.708361
Si Si4 0.818988 0.763932 0.142546
Si Si5 0.393844 0.138513 0.959778
Si Si6 0.617536 0.839217 0.720543
Si Si7 0.520230 0.045165 0.647053
O O1 0.802953 0.961545 0.919322
O O2 0.624630 0.009694 0.953261
O O3 0.666074 0.903722 0.988052
O O4 0.877388 0.969314 0.138364
O O5 0.417773 0.540087 0.292992
O O6 0.797547 0.395506 0.755882
O O7 0.842227 0.502614 0.793158
O O8 0.735522 0.819389 0.132233
O O9 0.784521 0.711428 0.193405
O O10 0.000000 0.770371 0.250000
O O11 0.750000 0.750000 0.000000
O O12 0.451364 0.098404 0.903911
O O13 0.524603 0.172271 0.077231
O O14 0.500000 0.847758 0.750000
O O15 0.500000 0.059439 0.750000
#
# Coordination Sequence:
#
# PCOD9281724 Si02
#       7
#     8   4   8   8   8   8   8
#     4  11  21  36  56  87 117 158 192 239 299 360
#     4  12  24  32  48  88 128 154 182 240 308 352
#     4  11  20  37  58  83 120 153 199 238 296 365
#     4  11  22  37  57  91 122 154 203 253 302 342
#     4  12  20  36  63  88 116 150 199 251 299 351
#     4  11  19  37  62  84 110 157 199 247 292 349
#     4  10  21  38  64  88 113 155 204 242 290 363
#
# _framework density 17.19575
#
# number of rings (size 3 to 8) (size 9 to 14) (size 15 to 20)
#    0.000    0.923    7.692    2.308    1.077    0.000 
#    0.000    0.000    1.692    0.923    0.000    0.000 
#    0.000    0.000    0.000    0.000    0.000    0.000 
#
# Total GULP energy -144982.636085 kJ/mol
# GULP energy per Si atom -5576.255234 kJ/mol
# Density = 1.715661 g / cm^3
# Si number density = 17.195750 Si / 1000 Ang^3
#
#
#
# Elastic Constant Matrix: (Units=GPa)
#
#
# Indices 1 2 3 4 5 6 
#
# 1 90.4700 38.1121 28.8158 0.0000 -16.4446 0.0000
# 2 38.1121 97.0178 41.6340 0.0000 -1.5076 0.0000
# 3 28.8158 41.6340 119.4971 0.0000 -1.5052 0.0000
# 4 0.0000 0.0000 0.0000 176.7750 0.0000 21.2643
# 5 -16.4446 -1.5076 -1.5052 0.0000 20.9675 0.0000
# 6 0.0000 0.0000 0.0000 21.2643 0.0000 24.7272
#
#
#
# Elastic Compliance Matrix: (Units=1/GPa)
#
#
# Indices 1 2 3 4 5 6 
#
# 1 0.016096 -0.005332 -0.001871 0.000000 0.012106 0.000000
# 2 -0.005332 0.013892 -0.003598 0.000000 -0.003441 0.000000
# 3 -0.001871 -0.003598 0.010061 0.000000 -0.001004 0.000000
# 4 0.000000 0.000000 0.000000 0.006310 0.000000 -0.005426
# 5 0.012106 -0.003441 -0.001004 0.000000 0.056868 0.000000
# 6 0.000000 0.000000 0.000000 -0.005426 0.000000 0.045107
#
#
# Mechanical properties :
#
#
# Convention : Reuss Voigt Hill
#
# Bulk Modulus (GPa) = 54.20951 58.23428 56.22190
# Shear Modulus (GPa) = 28.39534 57.72217 43.05876
#
# Velocity S-wave (km/s) = 4.06803 5.80005 5.00946
# Velocity P-wave (km/s) = 7.32520 8.87655 8.13792
#
# Compressibility (1/GPa) = 0.01844695
#
# Stress axis : x y z
#
# Youngs Moduli (GPa) = 62.12679 71.98138 99.39846
#
# Poissons Ratio (x) = 0.38380 0.18600
# Poissons Ratio (y) = 0.33126 0.35762
# Poissons Ratio (z) = 0.11625 0.25898
#
# Static dielectric constant tensor:
#      x y z
#    x 1.588540 0.000000 0.003770 
#    y 0.000000 1.587250 0.000000 
#    z 0.003770 0.000000 1.633180 
# 
# From -- ./inp_files/147210.got.cif
#   From: 2010.05.17/outbox.cif.g08.bks.cpg/sg15_74_cif.got.tgz:147210.got - 2010.06.03 18:47:42.
