data_PCOD9281064
_publ_section_title
;
Structure prediction by ZEFSAII (Michael W. Deem and Ramdas Pophale) SiO2 
 PCOD9281064
Probable space group: C 2/C
;
_chemical_formula_sum "Si O2"
_cell_formula_units_Z 56
_cell_length_a 26.410749
_cell_length_b 8.991831
_cell_length_c 16.022333
_cell_angle_alpha 90.000000
_cell_angle_beta 135.392789
_cell_angle_gamma 90.000000
_cell_volume 2672.032990
_symmetry_space_group_name_H-M "C 2/C"
_symmetry_group_IT_number 15
_symmetry_cell_setting 'monoclinic'
loop_
_space_group_symop_operation_xyz
x,y,z
-x,y,1/2-z
-x,-y,-z
x,-y,1/2+z
1/2+x,1/2+y,z
1/2-x,1/2+y,1/2-z
1/2-x,1/2-y,-z
1/2+x,1/2-y,1/2+z
loop_
_atom_site_type_symbol
_atom_site_label
_atom_site_fract_x
_atom_site_fract_y
_atom_site_fract_z
Si Si1 0.042906 0.346979 0.543792
Si Si2 0.818069 0.331499 0.538993
Si Si3 0.683078 0.204954 0.118279
Si Si4 0.171889 0.324487 0.417563
Si Si5 0.532268 0.316979 0.697890
Si Si6 0.722071 0.561784 0.788896
Si Si7 0.416123 0.642983 0.759800
O O1 0.126111 0.370885 0.614071
O O2 0.043927 0.257194 0.631663
O O3 0.000000 0.500000 0.500000
O O4 0.010522 0.245210 0.431722
O O5 0.750000 0.250000 0.500000
O O6 0.825609 0.496989 0.586467
O O7 0.792261 0.359844 0.413903
O O8 0.886554 0.231501 0.644061
O O9 0.701500 0.363254 0.178237
O O10 0.754625 0.106708 0.195092
O O11 0.650872 0.211287 0.988514
O O12 0.250000 0.250000 0.500000
O O13 0.112381 0.252810 0.289123
O O14 0.500000 0.271426 0.750000
O O15 0.538815 0.495314 0.704219
O O16 0.655058 0.587534 0.772300
#
# Coordination Sequence:
#
# PCOD9281064 Si02
#       7
#     8   8   8   8   8   8   8
#     4  11  24  44  65  89 131 175 217 266 324 393
#     4   9  18  37  58  92 122 162 212 263 312 392
#     4  10  21  38  57  94 122 163 210 269 311 385
#     4  11  22  39  68  92 127 170 217 265 334 380
#     4  12  24  43  63  96 134 170 219 269 320 392
#     4   9  20  36  61  88 128 151 214 263 318 368
#     4  10  22  42  63  90 128 171 214 263 326 381
#
# _framework density 20.957825
#
# number of rings (size 3 to 8) (size 9 to 14) (size 15 to 20)
#    0.000    1.714    1.429    3.857    0.000    6.857 
#    5.143    0.000    0.000    0.000    0.000    0.000 
#    0.000    0.000    0.000    0.000    0.000    0.000 
#
# Total GULP energy -156323.739062 kJ/mol
# GULP energy per Si atom -5582.990681 kJ/mol
# Density = 2.091012 g / cm^3
# Si number density = 20.957825 Si / 1000 Ang^3
#
#
#
# Elastic Constant Matrix: (Units=GPa)
#
#
# Indices 1 2 3 4 5 6 
#
# 1 27.8738 5.8804 9.2827 0.0000 1.4020 0.0000
# 2 5.8804 76.3978 26.5191 0.0000 5.1120 0.0000
# 3 9.2827 26.5191 60.9136 0.0000 3.9090 0.0000
# 4 0.0000 0.0000 0.0000 44.0316 0.0000 2.1998
# 5 1.4020 5.1120 3.9090 0.0000 24.2627 0.0000
# 6 0.0000 0.0000 0.0000 2.1998 0.0000 26.2338
#
#
#
# Elastic Compliance Matrix: (Units=1/GPa)
#
#
# Indices 1 2 3 4 5 6 
#
# 1 0.037899 -0.001015 -0.005261 0.000000 -0.001128 0.000000
# 2 -0.001015 0.015563 -0.006481 0.000000 -0.002176 0.000000
# 3 -0.005261 -0.006481 0.020141 0.000000 -0.001575 0.000000
# 4 0.000000 0.000000 0.000000 0.022806 0.000000 -0.001912
# 5 -0.001128 -0.002176 -0.001575 0.000000 0.041993 0.000000
# 6 0.000000 0.000000 0.000000 -0.001912 0.000000 0.038279
#
#
# Mechanical properties :
#
#
# Convention : Reuss Voigt Hill
#
# Bulk Modulus (GPa) = 20.79516 27.61661 24.20589
# Shear Modulus (GPa) = 22.91205 27.13915 25.02560
#
# Velocity S-wave (km/s) = 3.31001 3.60243 3.45931
# Velocity P-wave (km/s) = 4.95502 5.52351 5.24697
#
# Compressibility (1/GPa) = 0.04808812
#
# Stress axis : x y z
#
# Youngs Moduli (GPa) = 26.38590 64.25564 49.64980
#
# Poissons Ratio (x) = 0.06525 0.26121
# Poissons Ratio (y) = 0.02679 0.32178
# Poissons Ratio (z) = 0.13882 0.41644
#
# Static dielectric constant tensor:
#      x y z
#    x 1.779310 0.000000 0.010830 
#    y 0.000000 1.738140 0.000000 
#    z 0.010830 0.000000 1.771740 
# 
# From -- ./inp_files/224430.got.cif
#   From: 2010.05.17/outbox.cif.g08.bks.cpg/sg15_113_cif.got.tgz:224430.got - 2010.06.03 18:47:42.
