data_PCOD9281762
_publ_section_title
;
Structure prediction by ZEFSAII (Michael W. Deem and Ramdas Pophale) SiO2 
 PCOD9281762
Probable space group: C 2/C
;
_chemical_formula_sum "Si O2"
_cell_formula_units_Z 56
_cell_length_a 13.979552
_cell_length_b 10.080918
_cell_length_c 16.396038
_cell_angle_alpha 90.000000
_cell_angle_beta 83.755063
_cell_angle_gamma 90.000000
_cell_volume 2296.928372
_symmetry_space_group_name_H-M "C 2/C"
_symmetry_group_IT_number 15
_symmetry_cell_setting 'monoclinic'
loop_
_space_group_symop_operation_xyz
x,y,z
-x,y,1/2-z
-x,-y,-z
x,-y,1/2+z
1/2+x,1/2+y,z
1/2-x,1/2+y,1/2-z
1/2-x,1/2-y,-z
1/2+x,1/2-y,1/2+z
loop_
_atom_site_type_symbol
_atom_site_label
_atom_site_fract_x
_atom_site_fract_y
_atom_site_fract_z
Si Si1 0.567918 0.243447 0.063307
Si Si2 0.638391 0.039630 0.553176
Si Si3 0.297410 0.584427 0.669693
Si Si4 0.641652 0.136161 0.377848
Si Si5 0.403593 0.547098 0.813605
Si Si6 0.548934 0.119984 0.833221
Si Si7 0.456499 0.606834 0.099721
O O1 0.627419 0.114913 0.031517
O O2 0.468328 0.188677 0.108070
O O3 0.618988 0.327396 0.128576
O O4 0.544336 0.340150 0.991241
O O5 0.704620 0.048696 0.626315
O O6 0.673728 0.115061 0.468996
O O7 0.534230 0.095427 0.590513
O O8 0.303000 0.744329 0.670336
O O9 0.319695 0.526427 0.756862
O O10 0.386768 0.519406 0.611700
O O11 0.627994 0.992967 0.338475
O O12 0.500000 0.573627 0.750000
O O13 0.440464 0.431199 0.870310
O O14 0.500000 0.105849 0.750000
O O15 0.583234 0.270259 0.842917
#
# Coordination Sequence:
#
# PCOD9281762 Si02
#       7
#     8   8   8   8   8   8   8
#     4  11  20  39  68  91 120 170 217 258 305 381
#     4  11  24  43  61  97 134 159 209 267 317 372
#     4  11  25  41  65  94 134 163 205 269 321 369
#     4  11  21  42  67  90 125 172 218 245 314 393
#     4  10  21  38  64  92 124 166 215 255 313 382
#     4  11  23  40  68  93 124 169 215 258 308 379
#     4  11  21  42  66  93 123 164 221 256 311 374
#
# _framework density 24.380385
#
# number of rings (size 3 to 8) (size 9 to 14) (size 15 to 20)
#    0.000    1.143    5.714    3.000    4.000    0.571 
#    5.143    0.000    0.000    0.000    0.000    0.000 
#    0.000    0.000    0.000    0.000    0.000    0.000 
#
# Total GULP energy -156653.800036 kJ/mol
# GULP energy per Si atom -5594.778573 kJ/mol
# Density = 2.432489 g / cm^3
# Si number density = 24.380385 Si / 1000 Ang^3
#
#
#
# Elastic Constant Matrix: (Units=GPa)
#
#
# Indices 1 2 3 4 5 6 
#
# 1 65.5365 19.2116 20.8230 0.0000 21.2840 0.0000
# 2 19.2116 128.8764 25.9063 0.0000 13.6720 0.0000
# 3 20.8230 25.9063 107.8267 0.0000 30.1599 0.0000
# 4 0.0000 0.0000 0.0000 23.9627 0.0000 10.9225
# 5 21.2840 13.6720 30.1599 0.0000 35.7730 0.0000
# 6 0.0000 0.0000 0.0000 10.9225 0.0000 4.8979
#
#
#
# Elastic Compliance Matrix: (Units=1/GPa)
#
#
# Indices 1 2 3 4 5 6 
#
# 1 0.019287 -0.001684 -0.000380 0.000000 -0.010511 0.000000
# 2 -0.001684 0.008402 -0.001407 0.000000 -0.001023 0.000000
# 3 -0.000380 -0.001407 0.012395 0.000000 -0.009686 0.000000
# 4 0.000000 0.000000 0.000000 -2.533637 0.000000 5.650052
# 5 -0.010511 -0.001023 -0.009686 0.000000 0.042765 0.000000
# 6 0.000000 0.000000 0.000000 5.650052 0.000000-12.395541
#
#
# Mechanical properties :
#
#
# Convention : Reuss Voigt Hill
#
# Bulk Modulus (GPa) = 30.17370 48.23573 39.20472
# Shear Modulus (GPa) = -0.33719 28.67997 14.17139
#
# Velocity S-wave (km/s) = -0.37230 3.43352 2.41355
# Velocity P-wave (km/s) = 3.49547 5.96208 4.88695
#
# Compressibility (1/GPa) = 0.03314144
#
# Stress axis : x y z
#
# Youngs Moduli (GPa) = 51.84938 119.02278 80.67811
#
# Poissons Ratio (x) = 0.20038 0.03066
# Poissons Ratio (y) = 0.08729 0.11355
# Poissons Ratio (z) = 0.01970 0.16751
#
# Static dielectric constant tensor:
#      x y z
#    x 1.946150 0.000000 -0.026810 
#    y 0.000000 1.940710 0.000000 
#    z -0.026810 0.000000 1.938760 
# 
# From -- ./inp_files/209618.got.cif
#   From: 2010.05.17/outbox.cif.g08.bks.cpg/sg15_105_cif.got.tgz:209618.got - 2010.06.03 18:47:42.
