data_PCOD9281613
_publ_section_title
;
Structure prediction by ZEFSAII (Michael W. Deem and Ramdas Pophale) SiO2 
 PCOD9281613
Probable space group: C 2/C
;
_chemical_formula_sum "Si O2"
_cell_formula_units_Z 48
_cell_length_a 18.174750
_cell_length_b 12.066959
_cell_length_c 10.245253
_cell_angle_alpha 90.000000
_cell_angle_beta 75.988414
_cell_angle_gamma 90.000000
_cell_volume 2180.073738
_symmetry_space_group_name_H-M "C 2/C"
_symmetry_group_IT_number 15
_symmetry_cell_setting 'monoclinic'
loop_
_space_group_symop_operation_xyz
x,y,z
-x,y,1/2-z
-x,-y,-z
x,-y,1/2+z
1/2+x,1/2+y,z
1/2-x,1/2+y,1/2-z
1/2-x,1/2-y,-z
1/2+x,1/2-y,1/2+z
loop_
_atom_site_type_symbol
_atom_site_label
_atom_site_fract_x
_atom_site_fract_y
_atom_site_fract_z
Si Si1 0.508927 0.378067 0.437580
Si Si2 0.758436 0.296469 0.275140
Si Si3 0.630188 0.622474 0.658179
Si Si4 0.625666 0.038428 0.909558
Si Si5 0.230437 0.085875 0.055461
Si Si6 0.016071 0.650581 0.390908
O O1 0.500000 0.500000 0.500000
O O2 0.422339 0.342913 0.439163
O O3 0.569157 0.399311 0.296978
O O4 0.538187 0.256444 0.472507
O O5 0.695217 0.297686 0.187640
O O6 0.829225 0.369516 0.193783
O O7 0.776586 0.176224 0.325742
O O8 0.724098 0.359336 0.416414
O O9 0.669130 0.508300 0.602946
O O10 0.688817 0.975452 0.967597
O O11 0.582562 0.939941 0.851919
O O12 0.558800 0.093575 0.020888
O O13 0.000000 0.689276 0.250000
#
# Coordination Sequence:
#
# PCOD9281613 Si02
#       6
#     8   8   8   8   8   8
#     4  11  23  39  63  90 127 167 217 260 321 381
#     4  10  21  40  62  91 126 165 208 257 328 378
#     4  10  21  39  59  92 118 166 206 262 319 380
#     4  10  23  39  64  95 124 169 213 259 321 391
#     4  10  21  38  63  89 129 162 207 269 314 385
#     4  11  22  42  64  91 130 169 214 265 319 381
#
# _framework density 22.017605
#
# number of rings (size 3 to 8) (size 9 to 14) (size 15 to 20)
#    0.000    1.667    1.667    3.000    2.333    1.333 
#    0.000    1.667    0.000    0.000    0.000    0.000 
#    0.000    0.000    0.000    0.000    0.000    0.000 
#
# Total GULP energy -133823.657706 kJ/mol
# GULP energy per Si atom -5575.985738 kJ/mol
# Density = 2.196749 g / cm^3
# Si number density = 22.017605 Si / 1000 Ang^3
#
#
#
# Elastic Constant Matrix: (Units=GPa)
#
#
# Indices 1 2 3 4 5 6 
#
# 1 86.9642 13.8074 13.3082 0.0000 -21.2026 0.0000
# 2 13.8074 79.8650 8.8119 0.0000 -9.9360 0.0000
# 3 13.3082 8.8119 21.3367 0.0000 -6.2216 0.0000
# 4 0.0000 0.0000 0.0000 18.0842 0.0000 -7.0646
# 5 -21.2026 -9.9360 -6.2216 0.0000 22.7366 0.0000
# 6 0.0000 0.0000 0.0000 -7.0646 0.0000 19.2680
#
#
#
# Elastic Compliance Matrix: (Units=1/GPa)
#
#
# Indices 1 2 3 4 5 6 
#
# 1 0.015563 -0.000468 -0.005805 0.000000 0.012720 0.000000
# 2 -0.000468 0.013595 -0.004040 0.000000 0.004400 0.000000
# 3 -0.005805 -0.004040 0.054404 0.000000 0.007709 0.000000
# 4 0.000000 0.000000 0.000000 0.064541 0.000000 0.023664
# 5 0.012720 0.004400 0.007709 0.000000 0.059876 0.000000
# 6 0.000000 0.000000 0.000000 0.023664 0.000000 0.060576
#
#
# Mechanical properties :
#
#
# Convention : Reuss Voigt Hill
#
# Bulk Modulus (GPa) = 15.88882 28.89119 22.39001
# Shear Modulus (GPa) = 16.12077 22.16699 19.14388
#
# Velocity S-wave (km/s) = 2.70881 3.17643 2.95189
# Velocity P-wave (km/s) = 4.12500 5.15784 4.67006
#
# Compressibility (1/GPa) = 0.06293734
#
# Stress axis : x y z
#
# Youngs Moduli (GPa) = 64.25597 73.55607 18.38091
#
# Poissons Ratio (x) = 0.03440 0.10669
# Poissons Ratio (y) = 0.03005 0.07426
# Poissons Ratio (z) = 0.37298 0.29718
#
# Static dielectric constant tensor:
#      x y z
#    x 1.895200 0.000000 0.067970 
#    y 0.000000 1.870930 0.000000 
#    z 0.067970 0.000000 1.801290 
# 
# From -- ./inp_files/104178.got.cif
#   From: 2010.05.17/outbox.cif.g08.bks.cpg/sg15_53_cif.got.tgz:104178.got - 2010.06.03 18:47:42.
