data_PCOD9281444
_publ_section_title
;
Structure prediction by ZEFSAII (Michael W. Deem and Ramdas Pophale) SiO2 
 PCOD9281444
Probable space group: C 2/C
;
_chemical_formula_sum "Si O2"
_cell_formula_units_Z 32
_cell_length_a 5.064247
_cell_length_b 13.287316
_cell_length_c 19.182891
_cell_angle_alpha 90.000000
_cell_angle_beta 113.964135
_cell_angle_gamma 90.000000
_cell_volume 1179.552564
_symmetry_space_group_name_H-M "C 2/C"
_symmetry_group_IT_number 15
_symmetry_cell_setting 'monoclinic'
loop_
_space_group_symop_operation_xyz
x,y,z
-x,y,1/2-z
-x,-y,-z
x,-y,1/2+z
1/2+x,1/2+y,z
1/2-x,1/2+y,1/2-z
1/2-x,1/2-y,-z
1/2+x,1/2-y,1/2+z
loop_
_atom_site_type_symbol
_atom_site_label
_atom_site_fract_x
_atom_site_fract_y
_atom_site_fract_z
Si Si1 0.947444 0.191129 0.326363
Si Si2 0.649428 0.468726 0.339509
Si Si3 0.055940 0.761909 0.400263
Si Si4 0.187153 0.455284 0.957092
O O1 0.222092 0.250725 0.387408
O O2 0.000000 0.207838 0.250000
O O3 0.657924 0.222514 0.333684
O O4 0.000974 0.073550 0.345293
O O5 0.500000 0.441028 0.250000
O O6 0.610989 0.378510 0.389617
O O7 0.987005 0.501844 0.371919
O O8 0.200821 0.667029 0.457450
O O9 0.500000 0.500000 0.000000
O O10 0.000000 0.500000 0.000000
#
# Coordination Sequence:
#
# PCOD9281444 Si02
#       4
#     8   8   8   8
#     4  10  21  38  61  96 137 171 216 280 344 409
#     4  10  23  43  71 103 136 180 234 294 355 410
#     4  11  23  41  67  97 133 177 229 283 343 410
#     4  11  25  46  69  99 141 188 234 282 343 420
#
# _framework density 27.12893
#
# number of rings (size 3 to 8) (size 9 to 14) (size 15 to 20)
#    0.000    1.500    0.000    5.250    0.000    8.000 
#    0.000   11.250    0.000    0.000    0.000    0.000 
#    0.000    0.000    0.000    0.000    0.000    0.000 
#
# Total GULP energy -89407.723177 kJ/mol
# GULP energy per Si atom -5587.982699 kJ/mol
# Density = 2.706718 g / cm^3
# Si number density = 27.128930 Si / 1000 Ang^3
#
#
#
# Elastic Constant Matrix: (Units=GPa)
#
#
# Indices 1 2 3 4 5 6 
#
# 1 150.3252 33.4886 28.0920 0.0000 13.8148 0.0000
# 2 33.4886 232.0484 39.6390 0.0000 5.2884 0.0000
# 3 28.0920 39.6390 35.0844 0.0000 35.1659 0.0000
# 4 0.0000 0.0000 0.0000 -528.3194 0.0000 -112.2443
# 5 13.8148 5.2884 35.1659 0.0000 41.8329 0.0000
# 6 0.0000 0.0000 0.0000 -112.2443 0.0000 26.2465
#
#
#
# Elastic Compliance Matrix: (Units=1/GPa)
#
#
# Indices 1 2 3 4 5 6 
#
# 1 -0.001522 -0.015656 0.104303 0.000000 -0.085198 0.000000
# 2 -0.015656 -0.020642 0.178244 0.000000 -0.142057 0.000000
# 3 0.104303 0.178244 -1.265945 0.000000 1.007210 0.000000
# 4 0.000000 0.000000 0.000000 -0.000992 0.000000 -0.004241
# 5 -0.085198 -0.142057 1.007210 0.000000 -0.776689 0.000000
# 6 0.000000 0.000000 0.000000 -0.004241 0.000000 0.019963
#
#
# Mechanical properties :
#
#
# Convention : Reuss Voigt Hill
#
# Bulk Modulus (GPa) = -1.32569 68.87744 33.77588
# Shear Modulus (GPa) = -1.76613 -70.96544 -36.36578
#
# Velocity S-wave (km/s) = -0.80773 -5.12009 -3.66523
# Velocity P-wave (km/s) = 1.16603 3.08379 2.33124
#
# Compressibility (1/GPa) = -0.75432683
#
# Stress axis : x y z
#
# Youngs Moduli (GPa) = -657.05729 -48.44577 -0.78992
#
# Poissons Ratio (x) = -0.75846 0.08239
# Poissons Ratio (y) = -10.28683 0.14080
# Poissons Ratio (z) = 68.53298 8.63517
#
# Static dielectric constant tensor:
#      x y z
#    x 2.065500 0.000000 0.004400 
#    y 0.000000 2.073270 0.000000 
#    z 0.004400 0.000000 2.567930 
# 
# From -- ./inp_files/260041.got.cif
#   From: 2010.05.17/outbox.cif.g08.bks.cpg/sg15_131_cif.got.tgz:260041.got - 2010.06.03 18:47:42.
