data_PCOD9281330
_publ_section_title
;
Structure prediction by ZEFSAII (Michael W. Deem and Ramdas Pophale) SiO2 
 PCOD9281330
Probable space group: C 2/C
;
_chemical_formula_sum "Si O2"
_cell_formula_units_Z 40
_cell_length_a 18.983225
_cell_length_b 13.229438
_cell_length_c 8.491257
_cell_angle_alpha 90.000000
_cell_angle_beta 91.425598
_cell_angle_gamma 90.000000
_cell_volume 2131.812136
_symmetry_space_group_name_H-M "C 2/C"
_symmetry_group_IT_number 15
_symmetry_cell_setting 'monoclinic'
loop_
_space_group_symop_operation_xyz
x,y,z
-x,y,1/2-z
-x,-y,-z
x,-y,1/2+z
1/2+x,1/2+y,z
1/2-x,1/2+y,1/2-z
1/2-x,1/2-y,-z
1/2+x,1/2-y,1/2+z
loop_
_atom_site_type_symbol
_atom_site_label
_atom_site_fract_x
_atom_site_fract_y
_atom_site_fract_z
Si Si1 0.831947 0.972815 0.203921
Si Si2 0.747858 0.871675 0.475250
Si Si3 0.436469 0.576223 0.454358
Si Si4 0.000000 0.244293 0.250000
Si Si5 0.416382 0.898519 0.049894
Si Si6 0.500000 0.934172 0.750000
O O1 0.781599 0.905148 0.310010
O O2 0.889241 0.026950 0.316264
O O3 0.880608 0.907635 0.090047
O O4 0.790325 0.060324 0.105692
O O5 0.750000 0.750000 0.500000
O O6 0.666582 0.904136 0.475862
O O7 0.500000 0.500000 0.500000
O O8 0.470308 0.676274 0.387786
O O9 0.938444 0.310891 0.171581
O O10 0.448109 0.997029 0.139353
O O11 0.453581 0.880480 0.882213
#
# Coordination Sequence:
#
# PCOD9281330 Si02
#       6
#     8   8   8   4   8   4
#     4  10  23  39  61  91 118 166 201 244 315 368
#     4  11  23  40  61  87 128 161 201 249 302 378
#     4  11  20  39  61  85 122 149 196 254 307 356
#     4  11  22  36  59  94 114 154 203 256 294 369
#     4  10  21  38  61  85 120 154 205 245 300 347
#     4   9  20  40  61  84 112 160 201 256 290 343
#
# _framework density 18.763379
#
# number of rings (size 3 to 8) (size 9 to 14) (size 15 to 20)
#    0.000    1.600    2.000    2.400    2.800    1.600 
#    0.000   11.000    0.000    0.000    0.000    0.000 
#    0.000    0.000    0.000    0.000    0.000    0.000 
#
# Total GULP energy -111564.123865 kJ/mol
# GULP energy per Si atom -5578.206193 kJ/mol
# Density = 1.872067 g / cm^3
# Si number density = 18.763379 Si / 1000 Ang^3
#
#
#
# Elastic Constant Matrix: (Units=GPa)
#
#
# Indices 1 2 3 4 5 6 
#
# 1 151.7357 39.0898 58.4708 0.0000 5.6571 0.0000
# 2 39.0898 72.8198 30.1297 0.0000 -9.5888 0.0000
# 3 58.4708 30.1297 108.4738 0.0000 -9.8484 0.0000
# 4 0.0000 0.0000 0.0000 23.8768 0.0000 -15.8046
# 5 5.6571 -9.5888 -9.8484 0.0000 37.7699 0.0000
# 6 0.0000 0.0000 0.0000 -15.8046 0.0000 -2.5134
#
#
#
# Elastic Compliance Matrix: (Units=1/GPa)
#
#
# Indices 1 2 3 4 5 6 
#
# 1 0.009332 -0.003676 -0.004323 0.000000 -0.003458 0.000000
# 2 -0.003676 0.017277 -0.002426 0.000000 0.004304 0.000000
# 3 -0.004323 -0.002426 0.012522 0.000000 0.003297 0.000000
# 4 0.000000 0.000000 0.000000 0.008113 0.000000 -0.051016
# 5 -0.003458 0.004304 0.003297 0.000000 0.028946 0.000000
# 6 0.000000 0.000000 0.000000 -0.051016 0.000000 -0.077072
#
#
# Mechanical properties :
#
#
# Convention : Reuss Voigt Hill
#
# Bulk Modulus (GPa) = 54.70579 65.37890 60.04234
# Shear Modulus (GPa) = 191.83608 25.51593 108.67601
#
# Velocity S-wave (km/s) = 10.12233 3.69165 7.61872
# Velocity P-wave (km/s) = 12.87767 7.28633 10.46243
#
# Compressibility (1/GPa) = 0.01827960
#
# Stress axis : x y z
#
# Youngs Moduli (GPa) = 107.15371 57.88171 79.85629
#
# Poissons Ratio (x) = 0.21279 0.34525
# Poissons Ratio (y) = 0.39392 0.19376
# Poissons Ratio (z) = 0.46326 0.14044
#
# Static dielectric constant tensor:
#      x y z
#    x 1.639100 0.000000 -0.035430 
#    y 0.000000 1.652730 0.000000 
#    z -0.035430 0.000000 1.710170 
# 
# From -- ./inp_files/37996.got.cif
#   From: 2010.05.17/outbox.cif.g08.bks.cpg/sg15_19_cif.got.tgz:37996.got - 2010.06.03 18:47:42.
