data_PCOD9281683
_publ_section_title
;
Structure prediction by ZEFSAII (Michael W. Deem and Ramdas Pophale) SiO2 
 PCOD9281683
Probable space group: C 2/C
;
_chemical_formula_sum "Si O2"
_cell_formula_units_Z 32
_cell_length_a 15.050395
_cell_length_b 8.187093
_cell_length_c 12.305305
_cell_angle_alpha 90.000000
_cell_angle_beta 118.707294
_cell_angle_gamma 90.000000
_cell_volume 1329.877686
_symmetry_space_group_name_H-M "C 2/C"
_symmetry_group_IT_number 15
_symmetry_cell_setting 'monoclinic'
loop_
_space_group_symop_operation_xyz
x,y,z
-x,y,1/2-z
-x,-y,-z
x,-y,1/2+z
1/2+x,1/2+y,z
1/2-x,1/2+y,1/2-z
1/2-x,1/2-y,-z
1/2+x,1/2-y,1/2+z
loop_
_atom_site_type_symbol
_atom_site_label
_atom_site_fract_x
_atom_site_fract_y
_atom_site_fract_z
Si Si1 0.679259 0.680827 0.201489
Si Si2 0.569027 0.115394 0.462577
Si Si3 0.865922 0.294678 0.095210
Si Si4 0.607223 0.315979 0.117286
O O1 0.618958 0.741878 0.272840
O O2 0.646452 0.496650 0.160402
O O3 0.798438 0.697917 0.298536
O O4 0.653290 0.795821 0.084509
O O5 0.491738 0.254684 0.378028
O O6 0.500000 0.000000 0.500000
O O7 0.614892 0.987968 0.404812
O O8 0.750000 0.250000 0.000000
O O9 0.920188 0.202547 0.027107
#
# Coordination Sequence:
#
# PCOD9281683 Si02
#       4
#     8   8   8   8
#     4  11  21  41  64  89 132 171 206 271 327 372
#     4  10  21  39  62  92 125 164 216 265 316 386
#     4   9  20  39  62  90 123 167 213 261 320 383
#     4  10  21  38  63  96 127 167 215 264 322 390
#
# _framework density 24.062362
#
# number of rings (size 3 to 8) (size 9 to 14) (size 15 to 20)
#    0.000    2.000    0.000    5.250    0.000    4.000 
#    0.000   21.250    0.000    0.000    0.000    0.000 
#    0.000    0.000    0.000    0.000    0.000    0.000 
#
# Total GULP energy -89512.956480 kJ/mol
# GULP energy per Si atom -5594.559780 kJ/mol
# Density = 2.400759 g / cm^3
# Si number density = 24.062362 Si / 1000 Ang^3
#
#
#
# Elastic Constant Matrix: (Units=GPa)
#
#
# Indices 1 2 3 4 5 6 
#
# 1 56.2143 18.8004 41.3895 0.0000 10.8520 0.0000
# 2 18.8004 146.9872 62.6888 0.0000 -2.5636 0.0000
# 3 41.3895 62.6888 128.4173 0.0000 8.7417 0.0000
# 4 0.0000 0.0000 0.0000 35.6849 0.0000 4.7959
# 5 10.8520 -2.5636 8.7417 0.0000 39.2288 0.0000
# 6 0.0000 0.0000 0.0000 4.7959 0.0000 52.0845
#
#
#
# Elastic Compliance Matrix: (Units=1/GPa)
#
#
# Indices 1 2 3 4 5 6 
#
# 1 0.024270 -0.000003 -0.007477 0.000000 -0.005048 0.000000
# 2 -0.000003 0.008682 -0.004342 0.000000 0.001536 0.000000
# 3 -0.007477 -0.004342 0.012383 0.000000 -0.000975 0.000000
# 4 0.000000 0.000000 0.000000 0.028374 0.000000 -0.002613
# 5 -0.005048 0.001536 -0.000975 0.000000 0.027206 0.000000
# 6 0.000000 0.000000 0.000000 -0.002613 0.000000 0.019440
#
#
# Mechanical properties :
#
#
# Convention : Reuss Voigt Hill
#
# Bulk Modulus (GPa) = 46.10307 64.15291 55.12799
# Shear Modulus (GPa) = 33.06233 39.31564 36.18898
#
# Velocity S-wave (km/s) = 3.71081 4.04655 3.88231
# Velocity P-wave (km/s) = 6.12875 6.96790 6.56175
#
# Compressibility (1/GPa) = 0.02169053
#
# Stress axis : x y z
#
# Youngs Moduli (GPa) = 41.20341 115.17694 80.75672
#
# Poissons Ratio (x) = 0.00039 0.60382
# Poissons Ratio (y) = 0.00014 0.35063
# Poissons Ratio (z) = 0.30808 0.50008
#
# Static dielectric constant tensor:
#      x y z
#    x 2.022820 0.000000 -0.041300 
#    y 0.000000 1.913760 0.000000 
#    z -0.041300 0.000000 1.957370 
# 
# From -- ./inp_files/93556.got.cif
#   From: 2010.05.17/outbox.cif.g08.bks.cpg/sg15_47_cif.got.tgz:93556.got - 2010.06.03 18:47:42.
