data_PCOD9281510
_publ_section_title
;
Structure prediction by ZEFSAII (Michael W. Deem and Ramdas Pophale) SiO2 
 PCOD9281510
Probable space group: C 2/C
;
_chemical_formula_sum "Si O2"
_cell_formula_units_Z 64
_cell_length_a 25.612354
_cell_length_b 19.622656
_cell_length_c 12.093399
_cell_angle_alpha 90.000000
_cell_angle_beta 149.868202
_cell_angle_gamma 90.000000
_cell_volume 3051.064770
_symmetry_space_group_name_H-M "C 2/C"
_symmetry_group_IT_number 15
_symmetry_cell_setting 'monoclinic'
loop_
_space_group_symop_operation_xyz
x,y,z
-x,y,1/2-z
-x,-y,-z
x,-y,1/2+z
1/2+x,1/2+y,z
1/2-x,1/2+y,1/2-z
1/2-x,1/2-y,-z
1/2+x,1/2-y,1/2+z
loop_
_atom_site_type_symbol
_atom_site_label
_atom_site_fract_x
_atom_site_fract_y
_atom_site_fract_z
Si Si1 0.389295 0.989104 0.997560
Si Si2 0.299056 0.872215 0.232333
Si Si3 0.018447 0.682674 0.158474
Si Si4 0.345648 0.698903 0.656395
Si Si5 0.600940 0.349845 0.005021
Si Si6 0.752944 0.946382 0.582600
Si Si7 0.548187 0.493472 0.459890
Si Si8 0.812002 0.587039 0.148575
O O1 0.500000 0.006813 0.250000
O O2 0.338070 0.941244 0.996114
O O3 0.381558 0.945707 0.872014
O O4 0.330419 0.059198 0.858164
O O5 0.404040 0.830302 0.398760
O O6 0.208488 0.836587 0.136815
O O7 0.251513 0.897612 0.029789
O O8 0.064879 0.758796 0.240123
O O9 0.107346 0.633390 0.271905
O O10 0.000000 0.663820 0.250000
O O11 0.250000 0.750000 0.500000
O O12 0.390995 0.681702 0.859611
O O13 0.287979 0.632689 0.500519
O O14 0.588176 0.430790 0.002781
O O15 0.500000 0.327922 0.750000
O O16 0.858337 0.942713 0.843459
O O17 0.736015 0.023413 0.505512
O O18 0.500000 0.500000 0.500000
O O19 0.500000 0.472833 0.250000
#
# Coordination Sequence:
#
# PCOD9281510 Si02
#       8
#     8   8   8   8   8   8   8   8
#     4  11  21  34  58  97 137 169 203 257 339 399
#     4  11  21  37  62  95 132 169 215 273 330 404
#     4  11  22  39  64  91 120 166 226 274 320 391
#     4  10  21  41  64  86 116 167 222 268 318 379
#     4  11  22  42  66  90 122 174 221 263 333 397
#     4  11  20  35  60  96 132 166 207 261 335 399
#     4  11  23  38  62  94 131 172 218 260 322 407
#     4  10  21  38  62  90 129 169 209 262 329 408
#
# _framework density 20.976284
#
# number of rings (size 3 to 8) (size 9 to 14) (size 15 to 20)
#    0.000    1.250    2.500    5.625    1.750    2.000 
#    0.000    8.750    0.000    0.000    0.000    0.000 
#    0.000    0.000    0.000    0.000    0.000    0.000 
#
# Total GULP energy -178403.325924 kJ/mol
# GULP energy per Si atom -5575.103935 kJ/mol
# Density = 2.092854 g / cm^3
# Si number density = 20.976284 Si / 1000 Ang^3
#
#
#
# Elastic Constant Matrix: (Units=GPa)
#
#
# Indices 1 2 3 4 5 6 
#
# 1 24.0499 101.8095 -61.3605 0.0000 -14.9549 0.0000
# 2 101.8095 -87.8394 171.4997 0.0000 27.7586 0.0000
# 3 -61.3605 171.4997 -21.2111 0.0000 -51.9760 0.0000
# 4 0.0000 0.0000 0.0000 14.4039 0.0000 10.1148
# 5 -14.9549 27.7586 -51.9760 0.0000 36.3416 0.0000
# 6 0.0000 0.0000 0.0000 10.1148 0.0000 10.5179
#
#
#
# Elastic Compliance Matrix: (Units=1/GPa)
#
#
# Indices 1 2 3 4 5 6 
#
# 1 0.013159 0.002563 -0.005732 0.000000 -0.004740 0.000000
# 2 0.002563 0.003294 0.005062 0.000000 0.005778 0.000000
# 3 -0.005732 0.005062 0.005686 0.000000 0.001908 0.000000
# 4 0.000000 0.000000 0.000000 0.213822 0.000000 -0.205626
# 5 -0.004740 0.005778 0.001908 0.000000 0.023882 0.000000
# 6 0.000000 0.000000 0.000000 -0.205626 0.000000 0.292820
#
#
# Mechanical properties :
#
#
# Convention : Reuss Voigt Hill
#
# Bulk Modulus (GPa) = 38.57448 37.65519 38.11484
# Shear Modulus (GPa) = 8.96830 -7.54395 0.71218
#
# Velocity S-wave (km/s) = 2.06996 -1.89848 0.58331
# Velocity P-wave (km/s) = 4.91350 3.63107 4.32013
#
# Compressibility (1/GPa) = 0.02592387
#
# Stress axis : x y z
#
# Youngs Moduli (GPa) = 75.99169 303.58999 175.85591
#
# Poissons Ratio (x) = -0.77800 1.00803
# Poissons Ratio (y) = -0.19474 -0.89010
# Poissons Ratio (z) = 0.43559 -1.53664
#
# Static dielectric constant tensor:
#      x y z
#    x 1.803480 0.000000 0.026760 
#    y 0.000000 1.684060 0.000000 
#    z 0.026760 0.000000 1.822340 
# 
# From -- ./inp_files/120262.got.cif
#   From: 2010.05.17/outbox.cif.g08.bks.cpg/sg15_61_cif.got.tgz:120262.got - 2010.06.03 18:47:42.
