data_PCOD9281957
_publ_section_title
;
Structure prediction by ZEFSAII (Michael W. Deem and Ramdas Pophale) SiO2 
 PCOD9281957
Probable space group: C 2/C
;
_chemical_formula_sum "Si O2"
_cell_formula_units_Z 44
_cell_length_a 10.980789
_cell_length_b 23.097087
_cell_length_c 12.326254
_cell_angle_alpha 90.000000
_cell_angle_beta 142.619121
_cell_angle_gamma 90.000000
_cell_volume 1897.971775
_symmetry_space_group_name_H-M "C 2/C"
_symmetry_group_IT_number 15
_symmetry_cell_setting 'monoclinic'
loop_
_space_group_symop_operation_xyz
x,y,z
-x,y,1/2-z
-x,-y,-z
x,-y,1/2+z
1/2+x,1/2+y,z
1/2-x,1/2+y,1/2-z
1/2-x,1/2-y,-z
1/2+x,1/2-y,1/2+z
loop_
_atom_site_type_symbol
_atom_site_label
_atom_site_fract_x
_atom_site_fract_y
_atom_site_fract_z
Si Si1 0.737936 0.943516 0.828963
Si Si2 0.836402 0.067595 0.964899
Si Si3 0.000000 0.859220 0.750000
Si Si4 0.637578 0.866371 0.935356
Si Si5 0.938788 0.761058 0.554406
Si Si6 0.254880 0.670179 0.745484
O O1 0.790748 0.901394 0.967594
O O2 0.529240 0.914390 0.642266
O O3 0.923814 0.944151 0.879117
O O4 0.723136 0.007743 0.866983
O O5 0.829172 0.101203 0.074031
O O6 0.774949 0.111128 0.826045
O O7 0.058012 0.814629 0.694844
O O8 0.500000 0.831293 0.750000
O O9 0.746646 0.837200 0.111546
O O10 0.750000 0.750000 0.500000
O O11 0.903459 0.784194 0.408149
O O12 0.047028 0.700623 0.628656
#
# Coordination Sequence:
#
# PCOD9281957 Si02
#       6
#     8   8   4   8   8   8
#     4   8  20  42  62  93 131 160 217 250 317 385
#     4  10  21  38  66  96 123 177 197 267 321 381
#     4  10  22  36  58  90 124 160 208 258 316 372
#     4   8  21  43  61  90 126 165 206 267 301 389
#     4  11  22  41  58  90 123 162 210 270 307 385
#     4  11  23  38  66  88 124 167 212 262 329 364
#
# _framework density 23.182642999999999
#
# number of rings (size 3 to 8) (size 9 to 14) (size 15 to 20)
#    1.091    1.091    1.818    0.000    2.545    4.364 
#   13.091    0.909    0.000    0.000    0.000    0.000 
#    0.000    0.000    0.000    0.000    0.000    0.000 
#
# Total GULP energy -122522.611248 kJ/mol
# GULP energy per Si atom -5569.209602 kJ/mol
# Density = 2.312988 g / cm^3
# Si number density = 23.182643 Si / 1000 Ang^3
#
#
#
# Elastic Constant Matrix: (Units=GPa)
#
#
# Indices 1 2 3 4 5 6 
#
# 1 48.3954 9.1155 16.2026 0.0000 3.4178 0.0000
# 2 9.1155 60.5583 32.0979 0.0000 -10.0420 0.0000
# 3 16.2026 32.0979 134.7365 0.0000 -34.5499 0.0000
# 4 0.0000 0.0000 0.0000 22.5805 0.0000 -6.4632
# 5 3.4178 -10.0420 -34.5499 0.0000 30.9723 0.0000
# 6 0.0000 0.0000 0.0000 -6.4632 0.0000 17.7663
#
#
#
# Elastic Compliance Matrix: (Units=1/GPa)
#
#
# Indices 1 2 3 4 5 6 
#
# 1 0.023148 -0.002578 -0.004256 0.000000 -0.008138 0.000000
# 2 -0.002578 0.019240 -0.003643 0.000000 0.002459 0.000000
# 3 -0.004256 -0.003643 0.012072 0.000000 0.012755 0.000000
# 4 0.000000 0.000000 0.000000 0.049433 0.000000 0.017983
# 5 -0.008138 0.002459 0.012755 0.000000 0.048211 0.000000
# 6 0.000000 0.000000 0.000000 0.017983 0.000000 0.062828
#
#
# Mechanical properties :
#
#
# Convention : Reuss Voigt Hill
#
# Bulk Modulus (GPa) = 29.84541 39.83580 34.84060
# Shear Modulus (GPa) = 20.23829 26.68211 23.46020
#
# Velocity S-wave (km/s) = 2.95785 3.39625 3.18460
# Velocity P-wave (km/s) = 4.95653 5.70965 5.34637
#
# Compressibility (1/GPa) = 0.03350599
#
# Stress axis : x y z
#
# Youngs Moduli (GPa) = 43.19935 51.97606 82.83349
#
# Poissons Ratio (x) = 0.13399 0.35258
# Poissons Ratio (y) = 0.11136 0.30175
# Poissons Ratio (z) = 0.18388 0.18934
#
# Static dielectric constant tensor:
#      x y z
#    x 1.921460 0.000000 0.033090 
#    y 0.000000 1.874240 0.000000 
#    z 0.033090 0.000000 1.960040 
# 
# From -- ./inp_files/90503.got.cif
#   From: 2010.05.17/outbox.cif.g08.bks.cpg/sg15_46_cif.got.tgz:90503.got - 2010.06.03 18:47:42.
