data_PCOD9281488
_publ_section_title
;
Structure prediction by ZEFSAII (Michael W. Deem and Ramdas Pophale) SiO2 
 PCOD9281488
Probable space group: C 2/C
;
_chemical_formula_sum "Si O2"
_cell_formula_units_Z 64
_cell_length_a 14.774160
_cell_length_b 13.302543
_cell_length_c 17.408583
_cell_angle_alpha 90.000000
_cell_angle_beta 115.996849
_cell_angle_gamma 90.000000
_cell_volume 3075.195476
_symmetry_space_group_name_H-M "C 2/C"
_symmetry_group_IT_number 15
_symmetry_cell_setting 'monoclinic'
loop_
_space_group_symop_operation_xyz
x,y,z
-x,y,1/2-z
-x,-y,-z
x,-y,1/2+z
1/2+x,1/2+y,z
1/2-x,1/2+y,1/2-z
1/2-x,1/2-y,-z
1/2+x,1/2-y,1/2+z
loop_
_atom_site_type_symbol
_atom_site_label
_atom_site_fract_x
_atom_site_fract_y
_atom_site_fract_z
Si Si1 0.906110 0.809669 0.447868
Si Si2 0.473207 0.852823 0.435024
Si Si3 0.104441 0.579504 0.756391
Si Si4 0.864649 0.043765 0.053314
Si Si5 0.763622 0.958262 0.731015
Si Si6 0.960744 0.098057 0.816435
Si Si7 0.344836 0.004533 0.971012
Si Si8 0.691276 0.282080 0.848641
O O1 0.990425 0.756887 0.530125
O O2 0.888197 0.918564 0.477128
O O3 0.803416 0.747151 0.416609
O O4 0.934709 0.819024 0.369962
O O5 0.419104 0.869155 0.334560
O O6 0.402328 0.892141 0.477414
O O7 0.571145 0.925574 0.471307
O O8 0.190982 0.496609 0.772469
O O9 0.137037 0.674877 0.820113
O O10 0.000000 0.536169 0.750000
O O11 0.856688 0.141828 0.106954
O O12 0.950329 0.971662 0.117120
O O13 0.754067 0.994836 0.014347
O O14 0.801016 0.844104 0.729164
O O15 0.697727 0.974850 0.629080
O O16 0.861023 0.030187 0.766811
O O17 0.000000 0.138403 0.750000
#
# Coordination Sequence:
#
# PCOD9281488 Si02
#       8
#     8   8   8   8   8   8   8   8
#     4  12  24  40  64  97 123 159 219 264 303 378
#     4  10  21  38  62  89 128 163 203 257 318 368
#     4  11  24  38  65  99 125 161 219 267 311 374
#     4  11  23  39  66  95 123 164 211 267 317 364
#     4  10  21  41  62  87 127 172 204 253 321 379
#     4  12  24  43  66  87 134 176 207 248 326 383
#     4   9  19  38  64  83 120 167 203 245 326 370
#     4  11  22  40  65  92 130 169 210 260 322 371
#
# _framework density 20.811685000000001
#
# number of rings (size 3 to 8) (size 9 to 14) (size 15 to 20)
#    0.000    1.250    6.250    1.500    5.250    0.000 
#    0.000    1.250    2.750    0.000    0.000    0.000 
#    0.000    0.000    0.000    0.000    0.000    0.000 
#
# Total GULP energy -178630.729606 kJ/mol
# GULP energy per Si atom -5582.210300 kJ/mol
# Density = 2.076432 g / cm^3
# Si number density = 20.811685 Si / 1000 Ang^3
#
#
#
# Elastic Constant Matrix: (Units=GPa)
#
#
# Indices 1 2 3 4 5 6 
#
# 1 93.0585 13.1741 -3.4634 0.0000 -0.3000 0.0000
# 2 13.1741 18.8942 -5.5303 0.0000 2.0222 0.0000
# 3 -3.4634 -5.5303 37.8627 0.0000 1.5658 0.0000
# 4 0.0000 0.0000 0.0000 14.4776 0.0000 -1.1207
# 5 -0.3000 2.0222 1.5658 0.0000 28.7031 0.0000
# 6 0.0000 0.0000 0.0000 -1.1207 0.0000 21.5525
#
#
#
# Elastic Compliance Matrix: (Units=1/GPa)
#
#
# Indices 1 2 3 4 5 6 
#
# 1 0.011939 -0.008453 -0.000173 0.000000 0.000730 0.000000
# 2 -0.008453 0.061821 0.008459 0.000000 -0.004905 0.000000
# 3 -0.000173 0.008459 0.027718 0.000000 -0.002110 0.000000
# 4 0.000000 0.000000 0.000000 0.069351 0.000000 0.003606
# 5 0.000730 -0.004905 -0.002110 0.000000 0.035308 0.000000
# 6 0.000000 0.000000 0.000000 0.003606 0.000000 0.046586
#
#
# Mechanical properties :
#
#
# Convention : Reuss Voigt Hill
#
# Bulk Modulus (GPa) = 9.88676 17.57514 13.73095
# Shear Modulus (GPa) = 17.43553 22.65563 20.04558
#
# Velocity S-wave (km/s) = 2.89758 3.30298 3.10689
# Velocity P-wave (km/s) = 3.99443 4.79681 4.41389
#
# Compressibility (1/GPa) = 0.10114536
#
# Stress axis : x y z
#
# Youngs Moduli (GPa) = 83.76248 16.17567 36.07732
#
# Poissons Ratio (x) = 0.13673 0.00623
# Poissons Ratio (y) = 0.70804 -0.30519
# Poissons Ratio (z) = 0.01447 -0.13684
#
# Static dielectric constant tensor:
#      x y z
#    x 1.786460 0.000000 -0.020340 
#    y 0.000000 1.741920 0.000000 
#    z -0.020340 0.000000 1.753490 
# 
# From -- ./inp_files/205435.got.cif
#   From: 2010.05.17/outbox.cif.g08.bks.cpg/sg15_103_cif.got.tgz:205435.got - 2010.06.03 18:47:42.
