data_PCOD9281618
_publ_section_title
;
Structure prediction by ZEFSAII (Michael W. Deem and Ramdas Pophale) SiO2 
 PCOD9281618
Probable space group: C 2/C
;
_chemical_formula_sum "Si O2"
_cell_formula_units_Z 40
_cell_length_a 25.915183
_cell_length_b 15.312316
_cell_length_c 13.556810
_cell_angle_alpha 90.000000
_cell_angle_beta 158.960730
_cell_angle_gamma 90.000000
_cell_volume 1931.329951
_symmetry_space_group_name_H-M "C 2/C"
_symmetry_group_IT_number 15
_symmetry_cell_setting 'monoclinic'
loop_
_space_group_symop_operation_xyz
x,y,z
-x,y,1/2-z
-x,-y,-z
x,-y,1/2+z
1/2+x,1/2+y,z
1/2-x,1/2+y,1/2-z
1/2-x,1/2-y,-z
1/2+x,1/2-y,1/2+z
loop_
_atom_site_type_symbol
_atom_site_label
_atom_site_fract_x
_atom_site_fract_y
_atom_site_fract_z
Si Si1 0.864081 0.791938 0.130724
Si Si2 0.150480 0.950824 0.275128
Si Si3 0.334060 0.933544 0.982608
Si Si4 0.841540 0.918667 0.424756
Si Si5 0.185789 0.753089 0.688204
O O1 0.850498 0.894634 0.128834
O O2 0.025424 0.761223 0.444868
O O3 0.750000 0.750000 0.000000
O O4 0.835064 0.769163 0.966099
O O5 0.283267 0.015953 0.491689
O O6 0.149020 0.890703 0.174099
O O7 0.000000 0.000000 0.000000
O O8 0.282237 0.833990 0.896136
O O9 0.244165 0.990298 0.741217
O O10 0.500000 0.939603 0.250000
O O11 0.757249 0.841530 0.329659
O O12 0.000000 0.930463 0.750000
#
# Coordination Sequence:
#
# PCOD9281618 Si02
#       5
#     8   8   8   8   8
#     4  11  21  38  64  96 122 168 214 254 316 380
#     4  10  21  38  63  90 125 163 209 263 309 380
#     4  10  23  40  63  91 126 165 208 261 319 374
#     4  10  23  40  63  91 125 163 208 258 317 372
#     4  11  23  38  66  91 132 166 208 262 319 372
#
# _framework density 20.711117000000002
#
# number of rings (size 3 to 8) (size 9 to 14) (size 15 to 20)
#    1.200    0.400    4.000    0.600   11.200    0.000 
#    0.000    4.000    0.000    0.000    0.000    0.000 
#    0.000    0.000    0.000    0.000    0.000    0.000 
#
# Total GULP energy -111475.343840 kJ/mol
# GULP energy per Si atom -5573.767192 kJ/mol
# Density = 2.066398 g / cm^3
# Si number density = 20.711117 Si / 1000 Ang^3
#
#
#
# Elastic Constant Matrix: (Units=GPa)
#
#
# Indices 1 2 3 4 5 6 
#
# 1 38.0714 2.7798 27.5188 0.0000 21.2221 0.0000
# 2 2.7798 69.8578 13.9709 0.0000 12.4131 0.0000
# 3 27.5188 13.9709 108.5133 0.0000 36.3312 0.0000
# 4 0.0000 0.0000 0.0000 29.1891 0.0000 7.1103
# 5 21.2221 12.4131 36.3312 0.0000 42.1732 0.0000
# 6 0.0000 0.0000 0.0000 7.1103 0.0000 30.3704
#
#
#
# Elastic Compliance Matrix: (Units=1/GPa)
#
#
# Indices 1 2 3 4 5 6 
#
# 1 0.038370 0.002241 -0.004685 0.000000 -0.015932 0.000000
# 2 0.002241 0.015267 -0.000916 0.000000 -0.004832 0.000000
# 3 -0.004685 -0.000916 0.013550 0.000000 -0.009046 0.000000
# 4 0.000000 0.000000 0.000000 0.036331 0.000000 -0.008506
# 5 -0.015932 -0.004832 -0.009046 0.000000 0.040944 0.000000
# 6 0.000000 0.000000 0.000000 -0.008506 0.000000 0.034918
#
#
# Mechanical properties :
#
#
# Convention : Reuss Voigt Hill
#
# Bulk Modulus (GPa) = 16.53776 33.88684 25.21230
# Shear Modulus (GPa) = 24.24158 31.82474 28.03316
#
# Velocity S-wave (km/s) = 3.42491 3.92420 3.68303
# Velocity P-wave (km/s) = 4.86234 6.07698 5.50327
#
# Compressibility (1/GPa) = 0.06046768
#
# Stress axis : x y z
#
# Youngs Moduli (GPa) = 26.06199 65.49869 73.79977
#
# Poissons Ratio (x) = -0.14679 0.34575
# Poissons Ratio (y) = -0.05841 0.06761
# Poissons Ratio (z) = 0.12210 0.06000
#
# Static dielectric constant tensor:
#      x y z
#    x 1.778910 0.000000 0.004360 
#    y 0.000000 2.812320 0.000000 
#    z 0.004360 0.000000 1.695980 
# 
# From -- ./inp_files/225338.got.cif
#   From: 2010.05.17/outbox.cif.g08.bks.cpg/sg15_113_cif.got.tgz:225338.got - 2010.06.03 18:47:42.
