data_PCOD9281642
_publ_section_title
;
Structure prediction by ZEFSAII (Michael W. Deem and Ramdas Pophale) SiO2 
 PCOD9281642
Probable space group: C 2/C
;
_chemical_formula_sum "Si O2"
_cell_formula_units_Z 40
_cell_length_a 12.762506
_cell_length_b 5.312473
_cell_length_c 25.973918
_cell_angle_alpha 90.000000
_cell_angle_beta 112.063664
_cell_angle_gamma 90.000000
_cell_volume 1632.077358
_symmetry_space_group_name_H-M "C 2/C"
_symmetry_group_IT_number 15
_symmetry_cell_setting 'monoclinic'
loop_
_space_group_symop_operation_xyz
x,y,z
-x,y,1/2-z
-x,-y,-z
x,-y,1/2+z
1/2+x,1/2+y,z
1/2-x,1/2+y,1/2-z
1/2-x,1/2-y,-z
1/2+x,1/2-y,1/2+z
loop_
_atom_site_type_symbol
_atom_site_label
_atom_site_fract_x
_atom_site_fract_y
_atom_site_fract_z
Si Si1 0.532204 0.961729 0.310254
Si Si2 0.312310 0.448106 0.973341
Si Si3 0.107703 0.837130 0.917661
Si Si4 0.766835 0.194848 0.631706
Si Si5 0.798933 0.387773 0.784119
O O1 0.500000 0.828089 0.250000
O O2 0.527087 0.802823 0.362233
O O3 0.431370 0.160508 0.299229
O O4 0.654630 0.091987 0.328096
O O5 0.218442 0.658644 0.942928
O O6 0.331631 0.312364 0.922096
O O7 0.250000 0.250000 0.000000
O O8 0.409490 0.573433 0.026593
O O9 0.145761 0.077678 0.892545
O O10 0.728172 0.974792 0.662615
O O11 0.735504 0.144303 0.751861
#
# Coordination Sequence:
#
# PCOD9281642 Si02
#       5
#     8   8   8   8   8
#     4  11  22  39  61  93 128 176 218 276 338 401
#     4   8  16  34  59  93 121 166 217 273 335 399
#     4   9  18  34  64  88 127 167 219 273 336 402
#     4  10  21  38  63  92 126 173 222 274 336 407
#     4  12  27  44  64  96 138 178 226 283 341 407
#
# _framework density 24.508641999999998
#
# number of rings (size 3 to 8) (size 9 to 14) (size 15 to 20)
#    0.000    2.000    2.000    1.200    5.600    0.800 
#    0.000    1.000    0.000   40.800    0.000    0.000 
#    0.000    0.000    0.000    0.000    0.000    0.000 
#
# Total GULP energy -111470.421013 kJ/mol
# GULP energy per Si atom -5573.521051 kJ/mol
# Density = 2.445286 g / cm^3
# Si number density = 24.508642 Si / 1000 Ang^3
#
#
#
# Elastic Constant Matrix: (Units=GPa)
#
#
# Indices 1 2 3 4 5 6 
#
# 1 52.2446 0.3315 19.0643 0.0000 8.2791 0.0000
# 2 0.3315 88.7880 45.8837 0.0000 5.2361 0.0000
# 3 19.0643 45.8837 183.4581 0.0000 7.9975 0.0000
# 4 0.0000 0.0000 0.0000 57.3877 0.0000 -2.8460
# 5 8.2791 5.2361 7.9975 0.0000 27.7383 0.0000
# 6 0.0000 0.0000 0.0000 -2.8460 0.0000 2.9164
#
#
#
# Elastic Compliance Matrix: (Units=1/GPa)
#
#
# Indices 1 2 3 4 5 6 
#
# 1 0.020890 0.001444 -0.002277 0.000000 -0.005851 0.000000
# 2 0.001444 0.013099 -0.003341 0.000000 -0.001940 0.000000
# 3 -0.002277 -0.003341 0.006548 0.000000 -0.000578 0.000000
# 4 0.000000 0.000000 0.000000 0.018312 0.000000 0.017869
# 5 -0.005851 -0.001940 -0.000578 0.000000 0.038330 0.000000
# 6 0.000000 0.000000 0.000000 0.017869 0.000000 0.360322
#
#
# Mechanical properties :
#
#
# Convention : Reuss Voigt Hill
#
# Bulk Modulus (GPa) = 31.06813 50.56107 40.81460
# Shear Modulus (GPa) = 10.49145 34.88923 22.69034
#
# Velocity S-wave (km/s) = 2.07123 3.77709 3.04601
# Velocity P-wave (km/s) = 4.29231 6.30052 5.39075
#
# Compressibility (1/GPa) = 0.03218733
#
# Stress axis : x y z
#
# Youngs Moduli (GPa) = 47.87080 76.34406 152.71080
#
# Poissons Ratio (x) = -0.11021 0.34769
# Poissons Ratio (y) = -0.06911 0.51028
# Poissons Ratio (z) = 0.10899 0.25510
#
# Static dielectric constant tensor:
#      x y z
#    x 1.947710 0.000000 0.017800 
#    y 0.000000 2.005530 0.000000 
#    z 0.017800 0.000000 2.161950 
# 
# From -- ./inp_files/271630.got.cif
#   From: 2010.05.17/outbox.cif.g08.bks.cpg/sg15_136_cif.got.tgz:271630.got - 2010.06.03 18:47:42.
