data_PCOD9281148
_publ_section_title
;
Structure prediction by ZEFSAII (Michael W. Deem and Ramdas Pophale) SiO2 
 PCOD9281148
Probable space group: C 2/C
;
_chemical_formula_sum "Si O2"
_cell_formula_units_Z 60
_cell_length_a 15.046439
_cell_length_b 10.735206
_cell_length_c 20.749554
_cell_angle_alpha 90.000000
_cell_angle_beta 71.354317
_cell_angle_gamma 90.000000
_cell_volume 3175.692329
_symmetry_space_group_name_H-M "C 2/C"
_symmetry_group_IT_number 15
_symmetry_cell_setting 'monoclinic'
loop_
_space_group_symop_operation_xyz
x,y,z
-x,y,1/2-z
-x,-y,-z
x,-y,1/2+z
1/2+x,1/2+y,z
1/2-x,1/2+y,1/2-z
1/2-x,1/2-y,-z
1/2+x,1/2-y,1/2+z
loop_
_atom_site_type_symbol
_atom_site_label
_atom_site_fract_x
_atom_site_fract_y
_atom_site_fract_z
Si Si1 0.169644 0.225198 0.436106
Si Si2 0.026096 0.216662 0.360519
Si Si3 0.671608 0.408430 0.625448
Si Si4 0.685674 0.666058 0.697832
Si Si5 0.284161 0.956711 0.993946
Si Si6 0.930233 0.533930 0.852307
Si Si7 0.171158 0.707317 0.724708
Si Si8 0.500000 0.179216 0.250000
O O1 0.081748 0.188298 0.412805
O O2 0.256047 0.250139 0.366893
O O3 0.200619 0.122062 0.480035
O O4 0.159290 0.356235 0.475823
O O5 0.097502 0.210379 0.283575
O O6 0.931823 0.138225 0.371664
O O7 0.998540 0.362760 0.366429
O O8 0.666042 0.535129 0.667977
O O9 0.738175 0.439467 0.549903
O O10 0.711848 0.299034 0.661186
O O11 0.752743 0.653473 0.744094
O O12 0.590867 0.735832 0.737895
O O13 0.350386 0.006858 0.922742
O O14 0.884140 0.599593 0.800209
O O15 0.980767 0.410436 0.815480
#
# Coordination Sequence:
#
# PCOD9281148 Si02
#       8
#     8   8   8   8   8   8   8   4
#     4   9  20  40  59  83 115 165 189 233 302 355
#     4  10  21  38  62  86 117 155 201 241 294 343
#     4  10  22  39  60  88 122 154 197 243 292 356
#     4  10  23  37  61  87 118 149 196 249 296 340
#     4  10  21  38  59  82 123 158 196 236 295 354
#     4  11  21  39  62  86 118 154 196 245 286 353
#     4  10  22  39  61  85 117 160 192 242 302 347
#     4  12  22  36  58  94 108 148 198 252 280 340
#
# _framework density 18.893516999999999
#
# number of rings (size 3 to 8) (size 9 to 14) (size 15 to 20)
#    0.000    1.867    2.667    1.200    3.733    4.267 
#    0.000    1.333    0.000    0.000    0.000    0.000 
#    0.000    0.000    0.000    0.000    0.000    0.000 
#
# Total GULP energy -167501.282772 kJ/mol
# GULP energy per Si atom -5583.376092 kJ/mol
# Density = 1.885051 g / cm^3
# Si number density = 18.893517 Si / 1000 Ang^3
#
#
#
# Elastic Constant Matrix: (Units=GPa)
#
#
# Indices 1 2 3 4 5 6 
#
# 1 57.8587 9.4649 22.2452 0.0000 11.2361 0.0000
# 2 9.4649 25.2542 13.1602 0.0000 -2.7022 0.0000
# 3 22.2452 13.1602 84.3234 0.0000 5.3567 0.0000
# 4 0.0000 0.0000 0.0000 29.4761 0.0000 -4.9706
# 5 11.2361 -2.7022 5.3567 0.0000 26.3620 0.0000
# 6 0.0000 0.0000 0.0000 -4.9706 0.0000 10.6350
#
#
#
# Elastic Compliance Matrix: (Units=1/GPa)
#
#
# Indices 1 2 3 4 5 6 
#
# 1 0.021778 -0.007025 -0.004066 0.000000 -0.009176 0.000000
# 2 -0.007025 0.046282 -0.005938 0.000000 0.008945 0.000000
# 3 -0.004066 -0.005938 0.013967 0.000000 -0.001714 0.000000
# 4 0.000000 0.000000 0.000000 0.036828 0.000000 0.017213
# 5 -0.009176 0.008945 -0.001714 0.000000 0.043110 0.000000
# 6 0.000000 0.000000 0.000000 0.017213 0.000000 0.102074
#
#
# Mechanical properties :
#
#
# Convention : Reuss Voigt Hill
#
# Bulk Modulus (GPa) = 20.84683 28.57521 24.71102
# Shear Modulus (GPa) = 15.91916 21.46570 18.69243
#
# Velocity S-wave (km/s) = 2.90586 3.37433 3.14882
# Velocity P-wave (km/s) = 4.72403 5.50805 5.13104
#
# Compressibility (1/GPa) = 0.04796892
#
# Stress axis : x y z
#
# Youngs Moduli (GPa) = 45.91803 21.60673 71.59573
#
# Poissons Ratio (x) = 0.15179 0.29110
# Poissons Ratio (y) = 0.32258 0.42514
# Poissons Ratio (z) = 0.18670 0.12830
#
# Static dielectric constant tensor:
#      x y z
#    x 1.643750 0.000000 0.003080 
#    y 0.000000 1.658310 0.000000 
#    z 0.003080 0.000000 1.669310 
# 
# From -- ./inp_files/243671.got.cif
#   From: 2010.05.17/outbox.cif.g08.bks.cpg/sg15_122_cif.got.tgz:243671.got - 2010.06.03 18:47:42.
