data_PCOD9281113
_publ_section_title
;
Structure prediction by ZEFSAII (Michael W. Deem and Ramdas Pophale) SiO2 
 PCOD9281113
Probable space group: C 2/C
;
_chemical_formula_sum "Si O2"
_cell_formula_units_Z 48
_cell_length_a 12.645836
_cell_length_b 6.551695
_cell_length_c 29.508729
_cell_angle_alpha 90.000000
_cell_angle_beta 116.449189
_cell_angle_gamma 90.000000
_cell_volume 2188.944323
_symmetry_space_group_name_H-M "C 2/C"
_symmetry_group_IT_number 15
_symmetry_cell_setting 'monoclinic'
loop_
_space_group_symop_operation_xyz
x,y,z
-x,y,1/2-z
-x,-y,-z
x,-y,1/2+z
1/2+x,1/2+y,z
1/2-x,1/2+y,1/2-z
1/2-x,1/2-y,-z
1/2+x,1/2-y,1/2+z
loop_
_atom_site_type_symbol
_atom_site_label
_atom_site_fract_x
_atom_site_fract_y
_atom_site_fract_z
Si Si1 0.252368 0.619981 0.131654
Si Si2 0.109025 0.716689 0.468525
Si Si3 0.436411 0.450644 0.370913
Si Si4 0.375344 0.752361 0.431120
Si Si5 0.140953 0.519224 0.894977
Si Si6 0.448141 0.684553 0.691566
O O1 0.168669 0.784152 0.140792
O O2 0.173737 0.478937 0.084379
O O3 0.330472 0.454991 0.173961
O O4 0.340560 0.754395 0.118328
O O5 0.250000 0.750000 0.500000
O O6 0.054488 0.744473 0.507983
O O7 0.092841 0.507543 0.436892
O O8 0.048031 0.870633 0.421770
O O9 0.413971 0.667795 0.389701
O O10 0.464178 0.446695 0.323347
O O11 0.269150 0.590323 0.420152
O O12 0.074622 0.384550 0.844022
O O13 0.500000 0.735804 0.750000
#
# Coordination Sequence:
#
# PCOD9281113 Si02
#       6
#     8   8   8   8   8   8
#     4  10  21  39  58  87 120 156 197 250 311 368
#     4   9  17  33  58  86 120 167 203 243 301 359
#     4  10  21  38  58  86 123 156 201 260 306 360
#     4   9  18  34  56  85 123 157 197 242 293 369
#     4   8  18  36  57  83 121 151 196 252 294 361
#     4  10  22  42  62  86 113 153 205 254 319 369
#
# _framework density 21.928379
#
# number of rings (size 3 to 8) (size 9 to 14) (size 15 to 20)
#    0.000    2.667    0.000    1.500    0.000    4.667 
#    9.000    3.333    0.000    0.000    0.000    0.000 
#    0.000    0.000    0.000    0.000    0.000    0.000 
#
# Total GULP energy -133713.935755 kJ/mol
# GULP energy per Si atom -5571.413990 kJ/mol
# Density = 2.187847 g / cm^3
# Si number density = 21.928379 Si / 1000 Ang^3
#
#
#
# Elastic Constant Matrix: (Units=GPa)
#
#
# Indices 1 2 3 4 5 6 
#
# 1 46.9979 3.4670 8.9764 0.0000 -9.1911 0.0000
# 2 3.4670 84.5041 11.9024 0.0000 -2.5539 0.0000
# 3 8.9764 11.9024 129.1819 0.0000 -16.7894 0.0000
# 4 0.0000 0.0000 0.0000 10.6056 0.0000 -1.2681
# 5 -9.1911 -2.5539 -16.7894 0.0000 28.0052 0.0000
# 6 0.0000 0.0000 0.0000 -1.2681 0.0000 35.9344
#
#
#
# Elastic Compliance Matrix: (Units=1/GPa)
#
#
# Indices 1 2 3 4 5 6 
#
# 1 0.022823 -0.000637 -0.000609 0.000000 0.007067 0.000000
# 2 -0.000637 0.012013 -0.001027 0.000000 0.000270 0.000000
# 3 -0.000609 -0.001027 0.008502 0.000000 0.004804 0.000000
# 4 0.000000 0.000000 0.000000 0.094689 0.000000 0.003341
# 5 0.007067 0.000270 0.004804 0.000000 0.040932 0.000000
# 6 0.000000 0.000000 0.000000 0.003341 0.000000 0.027946
#
#
# Mechanical properties :
#
#
# Convention : Reuss Voigt Hill
#
# Bulk Modulus (GPa) = 25.77867 34.37505 30.07686
# Shear Modulus (GPa) = 22.28340 30.66492 26.47416
#
# Velocity S-wave (km/s) = 3.19123 3.74359 3.47839
# Velocity P-wave (km/s) = 5.03587 5.86482 5.46608
#
# Compressibility (1/GPa) = 0.03879176
#
# Stress axis : x y z
#
# Youngs Moduli (GPa) = 43.81564 83.24479 117.61506
#
# Poissons Ratio (x) = 0.05303 0.07159
# Poissons Ratio (y) = 0.02791 0.12084
# Poissons Ratio (z) = 0.02667 0.08553
#
# Static dielectric constant tensor:
#      x y z
#    x 1.980700 0.000000 -0.039320 
#    y 0.000000 1.832170 0.000000 
#    z -0.039320 0.000000 1.769120 
# 
# From -- ./inp_files/312145.got.cif
#   From: 2010.05.17/outbox.cif.g08.bks.cpg/sg15_157_cif.got.tgz:312145.got - 2010.06.03 18:47:42.
