data_PCOD9281297
_publ_section_title
;
Structure prediction by ZEFSAII (Michael W. Deem and Ramdas Pophale) SiO2 
 PCOD9281297
Probable space group: C 2/C
;
_chemical_formula_sum "Si O2"
_cell_formula_units_Z 40
_cell_length_a 13.975096
_cell_length_b 4.958135
_cell_length_c 28.408241
_cell_angle_alpha 90.000000
_cell_angle_beta 71.318431
_cell_angle_gamma 90.000000
_cell_volume 1864.709379
_symmetry_space_group_name_H-M "C 2/C"
_symmetry_group_IT_number 15
_symmetry_cell_setting 'monoclinic'
loop_
_space_group_symop_operation_xyz
x,y,z
-x,y,1/2-z
-x,-y,-z
x,-y,1/2+z
1/2+x,1/2+y,z
1/2-x,1/2+y,1/2-z
1/2-x,1/2-y,-z
1/2+x,1/2-y,1/2+z
loop_
_atom_site_type_symbol
_atom_site_label
_atom_site_fract_x
_atom_site_fract_y
_atom_site_fract_z
Si Si1 0.550275 0.969792 0.542557
Si Si2 0.823000 0.038472 0.462193
Si Si3 0.719336 0.124818 0.283069
Si Si4 0.506007 0.884168 0.652828
Si Si5 0.144911 0.897758 0.646420
O O1 0.643886 0.754581 0.523756
O O2 0.493055 0.862886 0.598017
O O3 0.500000 0.000000 0.500000
O O4 0.576758 0.276553 0.551824
O O5 0.750000 0.250000 0.500000
O O6 0.797031 0.022222 0.411130
O O7 0.731942 0.428776 0.263171
O O8 0.601822 0.055004 0.308021
O O9 0.780106 0.091734 0.321888
O O10 0.553494 0.609313 0.664783
O O11 0.591810 0.107690 0.649315
#
# Coordination Sequence:
#
# PCOD9281297 Si02
#       5
#     8   8   8   8   8
#     4  10  21  38  60  92 124 165 207 251 317 375
#     4  10  21  38  60  92 124 165 207 251 317 375
#     4  12  26  42  66  96 118 166 218 256 321 374
#     4  10  23  43  63  91 131 163 205 263 315 374
#     4  10  23  43  63  91 131 163 205 263 315 374
#
# _framework density 21.451066000000001
#
# number of rings (size 3 to 8) (size 9 to 14) (size 15 to 20)
#    0.000    1.600    0.000    3.600    2.800    4.800 
#    3.600    0.000    0.000    0.000    0.000    0.000 
#    0.000    0.000    0.000    0.000    0.000    0.000 
#
# Total GULP energy -111599.123864 kJ/mol
# GULP energy per Si atom -5579.956193 kJ/mol
# Density = 2.140224 g / cm^3
# Si number density = 21.451066 Si / 1000 Ang^3
#
#
#
# Elastic Constant Matrix: (Units=GPa)
#
#
# Indices 1 2 3 4 5 6 
#
# 1 49.5607 4.9720 39.3394 0.0010 11.7403 0.0007
# 2 4.9720 110.7570 5.3816 0.0031 11.3994 0.0001
# 3 39.3394 5.3816 54.5668 0.0000 26.5069 0.0007
# 4 0.0010 0.0031 0.0000 22.4485 -0.0001 7.3586
# 5 11.7403 11.3994 26.5069 -0.0001 46.0683 0.0002
# 6 0.0007 0.0001 0.0007 7.3586 0.0002 19.6833
#
#
#
# Elastic Compliance Matrix: (Units=1/GPa)
#
#
# Indices 1 2 3 4 5 6 
#
# 1 0.051342 -0.001448 -0.042595 -0.000002 0.011783 0.000000
# 2 -0.001448 0.009309 0.001479 -0.000001 -0.002785 0.000001
# 3 -0.042595 0.001479 0.060783 0.000002 -0.024484 -0.000001
# 4 -0.000002 -0.000001 0.000002 0.050768 0.000000 -0.018980
# 5 0.011783 -0.002785 -0.024484 0.000000 0.033481 0.000000
# 6 0.000000 0.000001 -0.000001 -0.018980 0.000000 0.057900
#
#
# Mechanical properties :
#
#
# Convention : Reuss Voigt Hill
#
# Bulk Modulus (GPa) = 27.54496 34.91894 31.23195
# Shear Modulus (GPa) = 13.85763 28.65277 21.25520
#
# Velocity S-wave (km/s) = 2.54443 3.65872 3.15122
# Velocity P-wave (km/s) = 4.63691 5.84484 5.27556
#
# Compressibility (1/GPa) = 0.03630428
#
# Stress axis : x y z
#
# Youngs Moduli (GPa) = 19.47727 107.42773 16.45210
#
# Poissons Ratio (x) = 0.15553 0.70078
# Poissons Ratio (y) = 0.02820 -0.02433
# Poissons Ratio (z) = 0.82964 -0.15885
#
# Static dielectric constant tensor:
#      x y z
#    x 1.809250 0.000000 -0.099140 
#    y 0.000000 1.753390 0.000000 
#    z -0.099140 0.000000 1.958450 
# 
# From -- ./inp_files/290531.got.cif
#   From: 2010.05.17/outbox.cif.g08.bks.cpg/sg15_146_cif.got.tgz:290531.got - 2010.06.03 18:47:42.
