data_PCOD9281422
_publ_section_title
;
Structure prediction by ZEFSAII (Michael W. Deem and Ramdas Pophale) SiO2 
 PCOD9281422
Probable space group: C 2/C
;
_chemical_formula_sum "Si O2"
_cell_formula_units_Z 28
_cell_length_a 10.142937
_cell_length_b 24.981450
_cell_length_c 5.209952
_cell_angle_alpha 90.000000
_cell_angle_beta 102.377323
_cell_angle_gamma 90.000000
_cell_volume 1289.441697
_symmetry_space_group_name_H-M "C 2/C"
_symmetry_group_IT_number 15
_symmetry_cell_setting 'monoclinic'
loop_
_space_group_symop_operation_xyz
x,y,z
-x,y,1/2-z
-x,-y,-z
x,-y,1/2+z
1/2+x,1/2+y,z
1/2-x,1/2+y,1/2-z
1/2-x,1/2-y,-z
1/2+x,1/2-y,1/2+z
loop_
_atom_site_type_symbol
_atom_site_label
_atom_site_fract_x
_atom_site_fract_y
_atom_site_fract_z
Si Si1 0.347793 0.523302 0.459509
Si Si2 0.304959 0.647502 0.481973
Si Si3 0.359418 0.173842 0.583682
Si Si4 0.000000 0.778715 0.750000
O O1 0.500000 0.500000 0.500000
O O2 0.280426 0.491794 0.663888
O O3 0.351126 0.586102 0.508867
O O4 0.248484 0.664157 0.735269
O O5 0.424121 0.685006 0.425010
O O6 0.191471 0.653312 0.211119
O O7 0.500000 0.149265 0.750000
O O8 0.396558 0.236777 0.578454
#
# Coordination Sequence:
#
# PCOD9281422 Si02
#       4
#     8   8   8   4
#     4  10  21  38  61  93 120 150 202 262 320 362
#     4  12  22  42  65  94 129 167 203 267 316 359
#     4  10  25  39  63  91 136 168 212 242 307 385
#     4  10  24  38  66  96 132 164 214 250 312 376
#
# _framework density 21.714822999999999
#
# number of rings (size 3 to 8) (size 9 to 14) (size 15 to 20)
#    0.857    0.571    0.000    6.000    0.000    5.714 
#    0.000    0.000    0.000   17.143    0.000    0.000 
#    0.000    0.000    0.000    0.000    0.000    0.000 
#
# Total GULP energy -78214.389448 kJ/mol
# GULP energy per Si atom -5586.742103 kJ/mol
# Density = 2.166540 g / cm^3
# Si number density = 21.714823 Si / 1000 Ang^3
#
#
#
# Elastic Constant Matrix: (Units=GPa)
#
#
# Indices 1 2 3 4 5 6 
#
# 1 57.7027 23.9277 -2.9525 0.0000 8.0760 0.0000
# 2 23.9277 144.1926 -0.9987 0.0000 -5.6183 0.0000
# 3 -2.9525 -0.9987 92.5366 0.0000 -8.6187 0.0000
# 4 0.0000 0.0000 0.0000 29.6389 0.0000 1.5164
# 5 8.0760 -5.6183 -8.6187 0.0000 33.1501 0.0000
# 6 0.0000 0.0000 0.0000 1.5164 0.0000 11.4175
#
#
#
# Elastic Compliance Matrix: (Units=1/GPa)
#
#
# Indices 1 2 3 4 5 6 
#
# 1 0.019506 -0.003443 0.000090 0.000000 -0.005312 0.000000
# 2 -0.003443 0.007592 0.000174 0.000000 0.002171 0.000000
# 3 0.000090 0.000174 0.011080 0.000000 0.002888 0.000000
# 4 0.000000 0.000000 0.000000 0.033970 0.000000 -0.004512
# 5 -0.005312 0.002171 0.002888 0.000000 0.032579 0.000000
# 6 0.000000 0.000000 0.000000 -0.004512 0.000000 0.088184
#
#
# Mechanical properties :
#
#
# Convention : Reuss Voigt Hill
#
# Bulk Modulus (GPa) = 31.42509 37.15389 34.28949
# Shear Modulus (GPa) = 23.82356 33.13832 28.48094
#
# Velocity S-wave (km/s) = 3.31586 3.91073 3.62552
# Velocity P-wave (km/s) = 5.40028 6.12689 5.77503
#
# Compressibility (1/GPa) = 0.03182171
#
# Stress axis : x y z
#
# Youngs Moduli (GPa) = 51.26588 131.71151 90.25015
#
# Poissons Ratio (x) = 0.45352 -0.00816
# Poissons Ratio (y) = 0.17652 -0.01573
# Poissons Ratio (z) = -0.00464 -0.02295
#
# Static dielectric constant tensor:
#      x y z
#    x 1.809210 0.000000 0.033940 
#    y 0.000000 1.751100 0.000000 
#    z 0.033940 0.000000 1.935420 
# 
# From -- ./inp_files/3890.got.cif
#   From: 2010.05.17/outbox.cif.g08.bks.cpg/sg15_2_cif.got.tgz:3890.got - 2010.06.03 18:47:42.
