data_PCOD9281406
_publ_section_title
;
Structure prediction by ZEFSAII (Michael W. Deem and Ramdas Pophale) SiO2 
 PCOD9281406
Probable space group: C 2/C
;
_chemical_formula_sum "Si O2"
_cell_formula_units_Z 56
_cell_length_a 25.052194
_cell_length_b 14.928998
_cell_length_c 11.597151
_cell_angle_alpha 90.000000
_cell_angle_beta 152.230158
_cell_angle_gamma 90.000000
_cell_volume 2020.877535
_symmetry_space_group_name_H-M "C 2/C"
_symmetry_group_IT_number 15
_symmetry_cell_setting 'monoclinic'
loop_
_space_group_symop_operation_xyz
x,y,z
-x,y,1/2-z
-x,-y,-z
x,-y,1/2+z
1/2+x,1/2+y,z
1/2-x,1/2+y,1/2-z
1/2-x,1/2-y,-z
1/2+x,1/2-y,1/2+z
loop_
_atom_site_type_symbol
_atom_site_label
_atom_site_fract_x
_atom_site_fract_y
_atom_site_fract_z
Si Si1 0.393465 0.060370 0.264329
Si Si2 0.515053 0.803808 0.144952
Si Si3 0.250000 0.250000 0.000000
Si Si4 0.827123 0.931362 0.026626
Si Si5 0.250942 0.370426 0.635913
Si Si6 0.274559 0.820531 0.292657
Si Si7 0.908398 0.104660 0.221831
Si Si8 0.000000 0.390654 0.750000
O O1 0.413672 0.158555 0.367166
O O2 0.275709 0.028474 0.090788
O O3 0.412386 0.058733 0.164091
O O4 0.500000 0.000000 0.500000
O O5 0.500000 0.830785 0.250000
O O6 0.630156 0.859620 0.336068
O O7 0.516485 0.695746 0.145578
O O8 0.168391 0.170009 0.915013
O O9 0.244691 0.312427 0.107489
O O10 0.780385 0.928432 0.805705
O O11 0.934008 0.998497 0.253318
O O12 0.244233 0.273604 0.680492
O O13 0.350311 0.380015 0.734013
O O14 0.185366 0.884706 0.059917
O O15 0.406667 0.833702 0.505032
#
# Coordination Sequence:
#
# PCOD9281406 Si02
#       8
#     8   8   4   8   8   8   8   4
#     4  12  25  37  61 100 133 167 214 283 342 398
#     4  11  22  42  67  94 138 177 223 279 348 403
#     4  10  22  42  62  88 130 172 220 268 342 410
#     4  11  23  40  65  93 125 175 216 276 338 405
#     4  10  21  41  62  94 124 175 221 271 336 404
#     4  10  21  38  61  91 127 172 213 270 334 400
#     4  11  24  40  66  97 135 175 229 278 340 422
#     4  12  22  36  60  92 128 162 214 276 334 394
#
# _framework density 27.710733999999999
#
# number of rings (size 3 to 8) (size 9 to 14) (size 15 to 20)
#    0.000    1.143    2.857    5.143    3.000    2.286 
#    0.000    0.000    6.286    1.714    0.000    0.000 
#    0.000    0.000    0.000    0.000    0.000    0.000 
#
# Total GULP energy -155983.608070 kJ/mol
# GULP energy per Si atom -5570.843145 kJ/mol
# Density = 2.764766 g / cm^3
# Si number density = 27.710734 Si / 1000 Ang^3
#
#
#
# Elastic Constant Matrix: (Units=GPa)
#
#
# Indices 1 2 3 4 5 6 
#
# 1 143.4007 -4.0116 18.8284 0.0000 -39.5135 0.0000
# 2 -4.0116 129.7640 14.0619 0.0000 -11.7286 0.0000
# 3 18.8284 14.0619 109.0042 0.0000 -21.5934 0.0000
# 4 0.0000 0.0000 0.0000 30.5114 0.0000 13.0845
# 5 -39.5135 -11.7286 -21.5934 0.0000 44.7616 0.0000
# 6 0.0000 0.0000 0.0000 13.0845 0.0000 -2.7739
#
#
#
# Elastic Compliance Matrix: (Units=1/GPa)
#
#
# Indices 1 2 3 4 5 6 
#
# 1 0.009356 0.001065 -0.000069 0.000000 0.008505 0.000000
# 2 0.001065 0.008059 -0.000684 0.000000 0.002722 0.000000
# 3 -0.000069 -0.000684 0.010201 0.000000 0.004681 0.000000
# 4 0.000000 0.000000 0.000000 0.010842 0.000000 0.051143
# 5 0.008505 0.002722 0.004681 0.000000 0.032820 0.000000
# 6 0.000000 0.000000 0.000000 0.051143 0.000000 -0.119260
#
#
# Mechanical properties :
#
#
# Convention : Reuss Voigt Hill
#
# Bulk Modulus (GPa) = 35.40942 48.88070 42.14506
# Shear Modulus (GPa) = -127.57747 38.05250 -44.76248
#
# Velocity S-wave (km/s) = -6.79257 3.70970 -4.02350
# Velocity P-wave (km/s) = 6.97944 6.00225 2.51849
#
# Compressibility (1/GPa) = 0.02824107
#
# Stress axis : x y z
#
# Youngs Moduli (GPa) = 106.88598 124.07819 98.02508
#
# Poissons Ratio (x) = -0.13219 0.00673
# Poissons Ratio (y) = -0.11387 0.06710
# Poissons Ratio (z) = 0.00734 0.08493
#
# Static dielectric constant tensor:
#      x y z
#    x 2.031690 0.000000 -0.168160 
#    y 0.000000 2.795720 0.000000 
#    z -0.168160 0.000000 2.160220 
# 
# From -- ./inp_files/123371.got.cif
#   From: 2010.05.17/outbox.cif.g08.bks.cpg/sg15_62_cif.got.tgz:123371.got - 2010.06.03 18:47:42.
