data_PCOD9281239
_publ_section_title
;
Structure prediction by ZEFSAII (Michael W. Deem and Ramdas Pophale) SiO2 
 PCOD9281239
Probable space group: C 2/C
;
_chemical_formula_sum "Si O2"
_cell_formula_units_Z 48
_cell_length_a 25.270862
_cell_length_b 7.216015
_cell_length_c 21.774816
_cell_angle_alpha 90.000000
_cell_angle_beta 145.866551
_cell_angle_gamma 90.000000
_cell_volume 2228.073528
_symmetry_space_group_name_H-M "C 2/C"
_symmetry_group_IT_number 15
_symmetry_cell_setting 'monoclinic'
loop_
_space_group_symop_operation_xyz
x,y,z
-x,y,1/2-z
-x,-y,-z
x,-y,1/2+z
1/2+x,1/2+y,z
1/2-x,1/2+y,1/2-z
1/2-x,1/2-y,-z
1/2+x,1/2-y,1/2+z
loop_
_atom_site_type_symbol
_atom_site_label
_atom_site_fract_x
_atom_site_fract_y
_atom_site_fract_z
Si Si1 0.165084 0.956661 0.628603
Si Si2 0.209833 0.131725 0.539953
Si Si3 0.888102 0.597044 0.641346
Si Si4 0.047375 0.620486 0.464599
Si Si5 0.869733 0.338872 0.866488
Si Si6 0.589877 0.700175 0.873183
O O1 0.192573 0.064173 0.592144
O O2 0.118731 0.118202 0.623375
O O3 0.096540 0.785658 0.550611
O O4 0.261528 0.884668 0.750408
O O5 0.154059 0.309649 0.460557
O O6 0.319397 0.167858 0.629303
O O7 0.164437 0.960287 0.457600
O O8 0.874167 0.375735 0.630361
O O9 0.000000 0.633640 0.750000
O O10 0.098566 0.437022 0.539738
O O11 0.058711 0.696130 0.406554
O O12 0.939314 0.590350 0.380114
O O13 0.500000 0.622311 0.750000
#
# Coordination Sequence:
#
# PCOD9281239 Si02
#       6
#     8   8   8   8   8   8
#     4  11  22  40  61  89 120 155 203 248 304 358
#     4  10  22  39  58  86 122 155 194 250 293 355
#     4  10  21  38  60  86 119 156 197 237 299 357
#     4  10  23  41  62  87 122 160 199 252 300 357
#     4  11  22  40  63  88 121 158 205 249 303 355
#     4  10  21  38  63  89 119 154 198 241 300 361
#
# _framework density 21.543275999999999
#
# number of rings (size 3 to 8) (size 9 to 14) (size 15 to 20)
#    0.000    1.667    1.667    2.500    4.667    0.000 
#    0.000    3.333    0.000    0.000    0.000    0.000 
#    0.000    0.000    0.000    0.000    0.000    0.000 
#
# Total GULP energy -133923.785776 kJ/mol
# GULP energy per Si atom -5580.157741 kJ/mol
# Density = 2.149424 g / cm^3
# Si number density = 21.543276 Si / 1000 Ang^3
#
#
#
# Elastic Constant Matrix: (Units=GPa)
#
#
# Indices 1 2 3 4 5 6 
#
# 1 41.9506 -12.0132 20.8292 0.0000 20.9527 0.0000
# 2 -12.0132 68.5103 5.4999 -0.0001 10.0460 -0.0001
# 3 20.8292 5.4999 76.9396 0.0000 24.3631 0.0000
# 4 0.0000 -0.0001 0.0000 32.1340 0.0000 -5.8266
# 5 20.9527 10.0460 24.3631 0.0000 24.9627 0.0000
# 6 0.0000 -0.0001 0.0000 -5.8266 0.0000 23.2834
#
#
#
# Elastic Compliance Matrix: (Units=1/GPa)
#
#
# Indices 1 2 3 4 5 6 
#
# 1 0.055987 0.017826 0.001043 0.000000 -0.055186 0.000000
# 2 0.017826 0.021272 0.001595 0.000000 -0.025080 0.000000
# 3 0.001043 0.001595 0.018932 0.000000 -0.019995 0.000000
# 4 0.000000 0.000000 0.000000 0.032599 0.000000 0.008158
# 5 -0.055186 -0.025080 -0.019995 0.000000 0.115989 0.000000
# 6 0.000000 0.000000 0.000000 0.008158 0.000000 0.044990
#
#
# Mechanical properties :
#
#
# Convention : Reuss Voigt Hill
#
# Bulk Modulus (GPa) = 7.29288 24.00360 15.64824
# Shear Modulus (GPa) = 16.97521 27.61502 22.29512
#
# Velocity S-wave (km/s) = 2.81011 3.58416 3.22047
# Velocity P-wave (km/s) = 3.73115 5.31926 4.59435
#
# Compressibility (1/GPa) = 0.13712003
#
# Stress axis : x y z
#
# Youngs Moduli (GPa) = 17.86115 47.01109 52.82003
#
# Poissons Ratio (x) = -0.83801 -0.05512
# Poissons Ratio (y) = -0.31839 -0.08425
# Poissons Ratio (z) = -0.01864 -0.07499
#
# Static dielectric constant tensor:
#      x y z
#    x 1.787260 0.000000 -0.016180 
#    y 0.000000 1.763930 0.000000 
#    z -0.016180 0.000000 1.769810 
# 
# From -- ./inp_files/257239.got.cif
#   From: 2010.05.17/outbox.cif.g08.bks.cpg/sg15_129_cif.got.tgz:257239.got - 2010.06.03 18:47:42.
