data_PCOD9281094
_publ_section_title
;
Structure prediction by ZEFSAII (Michael W. Deem and Ramdas Pophale) SiO2 
 PCOD9281094
Probable space group: C 2/C
;
_chemical_formula_sum "Si O2"
_cell_formula_units_Z 40
_cell_length_a 20.596939
_cell_length_b 12.024371
_cell_length_c 18.315351
_cell_angle_alpha 90.000000
_cell_angle_beta 20.969385
_cell_angle_gamma 90.000000
_cell_volume 1623.321139
_symmetry_space_group_name_H-M "C 2/C"
_symmetry_group_IT_number 15
_symmetry_cell_setting 'monoclinic'
loop_
_space_group_symop_operation_xyz
x,y,z
-x,y,1/2-z
-x,-y,-z
x,-y,1/2+z
1/2+x,1/2+y,z
1/2-x,1/2+y,1/2-z
1/2-x,1/2-y,-z
1/2+x,1/2-y,1/2+z
loop_
_atom_site_type_symbol
_atom_site_label
_atom_site_fract_x
_atom_site_fract_y
_atom_site_fract_z
Si Si1 0.496652 0.122430 0.674117
Si Si2 0.908348 0.943009 0.924566
Si Si3 0.309805 0.388467 0.747529
Si Si4 0.872853 0.593846 0.519287
Si Si5 0.774764 0.833262 0.626075
O O1 0.500000 0.176281 0.750000
O O2 0.632254 0.167822 0.470583
O O3 0.584829 0.997450 0.587757
O O4 0.291575 0.109823 0.864580
O O5 0.000000 0.928188 0.750000
O O6 0.036559 0.895282 0.853015
O O7 0.880510 0.074565 0.968953
O O8 0.247527 0.518026 0.800055
O O9 0.353476 0.333945 0.625309
O O10 0.783520 0.707836 0.588088
O O11 0.067571 0.625158 0.347663
#
# Coordination Sequence:
#
# PCOD9281094 Si02
#       5
#     8   8   8   8   8
#     4   9  19  36  57  85 120 147 183 235 291 345
#     4  11  20  33  57  84 115 153 188 230 288 346
#     4  10  21  38  58  84 116 154 191 236 283 338
#     4   9  21  34  55  84 117 147 190 228 287 334
#     4  11  21  37  56  86 120 153 191 234 285 340
#
# _framework density 24.640841999999999
#
# number of rings (size 3 to 8) (size 9 to 14) (size 15 to 20)
#    1.200    0.800    2.000    2.400    0.000    0.800 
#    0.000    5.000    0.000    0.000    0.000   12.600 
#    0.000    0.000    0.000    0.000    0.000    0.000 
#
# Total GULP energy -111846.535405 kJ/mol
# GULP energy per Si atom -5592.326770 kJ/mol
# Density = 2.458476 g / cm^3
# Si number density = 24.640842 Si / 1000 Ang^3
#
#
#
# Elastic Constant Matrix: (Units=GPa)
#
#
# Indices 1 2 3 4 5 6 
#
# 1 64.9760 15.6188 28.8666 0.0040 -4.2396 -0.0006
# 2 15.6188 143.2917 39.5348 0.0035 3.4171 0.0009
# 3 28.8666 39.5348 98.8232 0.0081 -12.7395 -0.0002
# 4 0.0040 0.0035 0.0081 -10.0117 -0.0029 -11.9499
# 5 -4.2396 3.4171 -12.7395 -0.0029 40.0782 -0.0003
# 6 -0.0006 0.0009 -0.0002 -11.9499 -0.0003 -1.2462
#
#
#
# Elastic Compliance Matrix: (Units=1/GPa)
#
#
# Indices 1 2 3 4 5 6 
#
# 1 0.017731 -0.000591 -0.004895 -0.000001 0.000370 0.000003
# 2 -0.000591 0.007982 -0.003250 0.000001 -0.001776 0.000000
# 3 -0.004895 -0.003250 0.013366 -0.000001 0.004008 0.000006
# 4 -0.000001 0.000001 -0.000001 0.009562 -0.000001 -0.091694
# 5 0.000370 -0.001776 0.004008 -0.000001 0.026416 -0.000004
# 6 0.000003 0.000000 0.000006 -0.091694 -0.000004 0.076822
#
#
# Mechanical properties :
#
#
# Convention : Reuss Voigt Hill
#
# Bulk Modulus (GPa) = 46.28033 52.79236 49.53634
# Shear Modulus (GPa) = 28.32012 20.63545 24.47779
#
# Velocity S-wave (km/s) = 3.39383 2.89701 3.15522
# Velocity P-wave (km/s) = 5.84639 5.71502 5.78108
#
# Compressibility (1/GPa) = 0.02160745
#
# Stress axis : x y z
#
# Youngs Moduli (GPa) = 56.39749 125.28003 74.81845
#
# Poissons Ratio (x) = 0.07403 0.36626
# Poissons Ratio (y) = 0.03333 0.24313
# Poissons Ratio (z) = 0.27608 0.40711
#
# Static dielectric constant tensor:
#      x y z
#    x 1.888730 0.000000 -0.025810 
#    y 0.000000 2.023880 0.000000 
#    z -0.025810 0.000000 1.957820 
# 
# From -- ./inp_files/215656.got.cif
#   From: 2010.05.17/outbox.cif.g08.bks.cpg/sg15_108_cif.got.tgz:215656.got - 2010.06.03 18:47:42.
