data_PCOD9281874
_publ_section_title
;
Structure prediction by ZEFSAII (Michael W. Deem and Ramdas Pophale) SiO2 
 PCOD9281874
Probable space group: C 2/C
;
_chemical_formula_sum "Si O2"
_cell_formula_units_Z 60
_cell_length_a 14.363721
_cell_length_b 19.413459
_cell_length_c 20.021552
_cell_angle_alpha 90.000000
_cell_angle_beta 27.701195
_cell_angle_gamma 90.000000
_cell_volume 2595.316210
_symmetry_space_group_name_H-M "C 2/C"
_symmetry_group_IT_number 15
_symmetry_cell_setting 'monoclinic'
loop_
_space_group_symop_operation_xyz
x,y,z
-x,y,1/2-z
-x,-y,-z
x,-y,1/2+z
1/2+x,1/2+y,z
1/2-x,1/2+y,1/2-z
1/2-x,1/2-y,-z
1/2+x,1/2-y,1/2+z
loop_
_atom_site_type_symbol
_atom_site_label
_atom_site_fract_x
_atom_site_fract_y
_atom_site_fract_z
Si Si1 0.231571 0.263900 0.306417
Si Si2 0.006534 0.862588 0.920328
Si Si3 0.000000 0.000000 0.500000
Si Si4 0.170788 0.925889 0.590679
Si Si5 0.090260 0.557219 0.346507
Si Si6 0.403970 0.080477 0.606681
Si Si7 0.345087 0.714544 0.003052
Si Si8 0.236403 0.943163 0.971608
O O1 0.039647 0.218135 0.408794
O O2 0.189389 0.344843 0.332658
O O3 0.428759 0.256622 0.136093
O O4 0.270868 0.234860 0.356059
O O5 0.233348 0.888276 0.758623
O O6 0.853775 0.879458 0.958804
O O7 0.963342 0.915475 0.007615
O O8 0.182104 0.019630 0.436971
O O9 0.383820 0.919037 0.490142
O O10 0.000000 0.905725 0.750000
O O11 0.135383 0.004876 0.589455
O O12 0.204081 0.483129 0.285349
O O13 0.944615 0.563274 0.503041
O O14 0.959621 0.562127 0.362357
O O15 0.250000 0.750000 0.000000
O O16 0.339407 0.634067 0.988947
#
# Coordination Sequence:
#
# PCOD9281874 Si02
#       8
#     8   8   4   8   8   8   8   8
#     4  12  26  42  68  98 142 182 221 288 350 412
#     4  11  22  40  65  91 131 178 224 280 348 406
#     4  10  22  40  60  86 126 176 226 268 326 412
#     4  10  21  38  68  96 126 178 230 286 340 406
#     4  10  21  38  65  95 127 172 225 287 334 404
#     4  10  22  39  61  99 133 166 228 283 344 403
#     4  12  26  43  65 100 141 184 226 277 353 415
#     4  10  22  40  63  96 130 174 230 278 334 411
#
# _framework density 23.118569999999998
#
# number of rings (size 3 to 8) (size 9 to 14) (size 15 to 20)
#    0.000    1.333    2.667    2.800    3.733    2.133 
#    0.000    0.000    0.000    0.000    0.000    0.000 
#    0.000    0.000    0.000    0.000    0.000    0.000 
#
# Total GULP energy -167086.849581 kJ/mol
# GULP energy per Si atom -5569.561653 kJ/mol
# Density = 2.306595 g / cm^3
# Si number density = 23.118570 Si / 1000 Ang^3
#
#
#
# Elastic Constant Matrix: (Units=GPa)
#
#
# Indices 1 2 3 4 5 6 
#
# 1 152.9579 13.9912 12.3269 -0.0230 -13.0367 0.0106
# 2 13.9912 134.0310 2.0974 -0.0615 -1.2731 0.0178
# 3 12.3269 2.0974 40.1719 -0.0772 -0.6249 0.0208
# 4 -0.0230 -0.0615 -0.0772 20.9773 0.0145 -6.7109
# 5 -13.0367 -1.2731 -0.6249 0.0145 28.1769 -0.0049
# 6 0.0106 0.0178 0.0208 -6.7109 -0.0049 37.3297
#
#
#
# Elastic Compliance Matrix: (Units=1/GPa)
#
#
# Indices 1 2 3 4 5 6 
#
# 1 0.007037 -0.000672 -0.002075 -0.000004 0.003180 -0.000001
# 2 -0.000672 0.007534 -0.000187 0.000021 0.000025 0.000000
# 3 -0.002075 -0.000187 0.025533 0.000092 -0.000402 0.000003
# 4 -0.000004 0.000021 0.000092 0.050580 -0.000023 0.009093
# 5 0.003180 0.000025 -0.000402 -0.000023 0.036953 0.000000
# 6 -0.000001 0.000000 0.000003 0.009093 0.000000 0.028423
#
#
# Mechanical properties :
#
#
# Convention : Reuss Voigt Hill
#
# Bulk Modulus (GPa) = 29.20743 42.66574 35.93659
# Shear Modulus (GPa) = 28.84483 37.21314 33.02899
#
# Velocity S-wave (km/s) = 3.53610 4.01642 3.78389
# Velocity P-wave (km/s) = 5.41601 6.32487 5.88801
#
# Compressibility (1/GPa) = 0.03423786
#
# Stress axis : x y z
#
# Youngs Moduli (GPa) = 142.09727 132.72678 39.16441
#
# Poissons Ratio (x) = 0.08919 0.08126
# Poissons Ratio (y) = 0.09548 0.00731
# Poissons Ratio (z) = 0.29484 0.02478
#
# Static dielectric constant tensor:
#      x y z
#    x 1.850180 0.000000 0.076560 
#    y 0.000000 1.847420 0.000070 
#    z 0.076560 0.000070 2.098020 
# 
# From -- ./inp_files/245452.got.cif
#   From: 2010.05.17/outbox.cif.g08.bks.cpg/sg15_123_cif.got.tgz:245452.got - 2010.06.03 18:47:42.
