data_PCOD9281178
_publ_section_title
;
Structure prediction by ZEFSAII (Michael W. Deem and Ramdas Pophale) SiO2 
 PCOD9281178
Probable space group: C 2/C
;
_chemical_formula_sum "Si O2"
_cell_formula_units_Z 64
_cell_length_a 11.724169
_cell_length_b 26.098307
_cell_length_c 14.249605
_cell_angle_alpha 90.000000
_cell_angle_beta 38.334237
_cell_angle_gamma 90.000000
_cell_volume 2704.347573
_symmetry_space_group_name_H-M "C 2/C"
_symmetry_group_IT_number 15
_symmetry_cell_setting 'monoclinic'
loop_
_space_group_symop_operation_xyz
x,y,z
-x,y,1/2-z
-x,-y,-z
x,-y,1/2+z
1/2+x,1/2+y,z
1/2-x,1/2+y,1/2-z
1/2-x,1/2-y,-z
1/2+x,1/2-y,1/2+z
loop_
_atom_site_type_symbol
_atom_site_label
_atom_site_fract_x
_atom_site_fract_y
_atom_site_fract_z
Si Si1 0.232876 0.374313 0.670260
Si Si2 0.356014 0.476894 0.521123
Si Si3 0.820171 0.345265 0.995023
Si Si4 0.703617 0.560256 0.702865
Si Si5 0.474078 0.215611 0.550729
Si Si6 0.612801 0.686437 0.273173
Si Si7 0.031454 0.612974 0.839392
Si Si8 0.783398 0.044290 0.404931
O O1 0.231773 0.434404 0.648799
O O2 0.278845 0.344943 0.542477
O O3 0.369432 0.361746 0.667556
O O4 0.030827 0.357979 0.832375
O O5 0.500000 0.500000 0.500000
O O6 0.488831 0.447033 0.362025
O O7 0.258835 0.520343 0.524361
O O8 0.751833 0.392828 0.102611
O O9 0.837523 0.295173 0.050215
O O10 0.767380 0.503924 0.628251
O O11 0.806251 0.575938 0.731876
O O12 0.465547 0.268924 0.609533
O O13 0.682739 0.205464 0.384525
O O14 0.426878 0.170197 0.653725
O O15 0.500000 0.679266 0.250000
O O16 0.000000 0.612801 0.750000
O O17 0.851702 0.592170 0.011728
O O18 0.000000 0.055498 0.250000
#
# Coordination Sequence:
#
# PCOD9281178 Si02
#       8
#     8   8   8   8   8   8   8   8
#     4  10  22  41  66  93 126 165 213 265 321 388
#     4  11  23  38  57  93 130 165 211 259 312 375
#     4   9  20  41  67  93 122 166 213 266 322 379
#     4  10  21  38  59  86 128 166 209 257 312 371
#     4  10  24  43  65  93 124 162 213 264 321 385
#     4  11  24  42  66  92 127 166 208 261 326 387
#     4  11  23  39  61  90 123 164 211 257 310 380
#     4  10  22  38  58  87 126 166 208 257 307 368
#
# _framework density 23.665597999999999
#
# number of rings (size 3 to 8) (size 9 to 14) (size 15 to 20)
#    0.000    1.750    1.250    1.875    0.000   13.000 
#    0.000    0.000    0.000    0.000    0.000    0.000 
#    0.000    0.000    0.000    0.000    0.000    0.000 
#
# Total GULP energy -178982.165845 kJ/mol
# GULP energy per Si atom -5593.192683 kJ/mol
# Density = 2.361173 g / cm^3
# Si number density = 23.665598 Si / 1000 Ang^3
#
#
#
# Elastic Constant Matrix: (Units=GPa)
#
#
# Indices 1 2 3 4 5 6 
#
# 1 127.2325 11.0936 3.5196 0.0000 32.1678 0.0000
# 2 11.0936 51.7553 7.3496 0.0000 8.8702 0.0000
# 3 3.5196 7.3496 42.0062 0.0000 17.5514 0.0000
# 4 0.0000 0.0000 0.0000 25.3743 0.0000 8.9034
# 5 32.1678 8.8702 17.5514 0.0000 32.3847 0.0000
# 6 0.0000 0.0000 0.0000 8.9034 0.0000 14.2873
#
#
#
# Elastic Compliance Matrix: (Units=1/GPa)
#
#
# Indices 1 2 3 4 5 6 
#
# 1 0.011225 -0.000770 0.004867 0.000000 -0.013576 0.000000
# 2 -0.000770 0.020408 -0.001927 0.000000 -0.003781 0.000000
# 3 0.004867 -0.001927 0.033010 0.000000 -0.022197 0.000000
# 4 0.000000 0.000000 0.000000 0.050439 0.000000 -0.031432
# 5 -0.013576 -0.003781 -0.022197 0.000000 0.057429 0.000000
# 6 0.000000 0.000000 0.000000 -0.031432 0.000000 0.089580
#
#
# Mechanical properties :
#
#
# Convention : Reuss Voigt Hill
#
# Bulk Modulus (GPa) = 14.49647 29.43549 21.96598
# Shear Modulus (GPa) = 17.80979 27.67801 22.74390
#
# Velocity S-wave (km/s) = 2.74626 3.42357 3.10345
# Velocity P-wave (km/s) = 4.02427 5.30027 4.70572
#
# Compressibility (1/GPa) = 0.06898233
#
# Stress axis : x y z
#
# Youngs Moduli (GPa) = 89.09063 48.99961 30.29414
#
# Poissons Ratio (x) = 0.03774 -0.14743
# Poissons Ratio (y) = 0.06863 0.05836
# Poissons Ratio (z) = -0.43358 0.09440
#
# Static dielectric constant tensor:
#      x y z
#    x 1.978060 0.000000 0.041070 
#    y 0.000000 1.887170 0.000000 
#    z 0.041070 0.000000 1.922440 
# 
# From -- ./inp_files/148757.got.cif
#   From: 2010.05.17/outbox.cif.g08.bks.cpg/sg15_75_cif.got.tgz:148757.got - 2010.06.03 18:47:42.
