data_PCOD9281185
_publ_section_title
;
Structure prediction by ZEFSAII (Michael W. Deem and Ramdas Pophale) SiO2 
 PCOD9281185
Probable space group: C 2/C
;
_chemical_formula_sum "Si O2"
_cell_formula_units_Z 56
_cell_length_a 21.989988
_cell_length_b 5.459683
_cell_length_c 21.064499
_cell_angle_alpha 90.000000
_cell_angle_beta 97.013405
_cell_angle_gamma 90.000000
_cell_volume 2510.046551
_symmetry_space_group_name_H-M "C 2/C"
_symmetry_group_IT_number 15
_symmetry_cell_setting 'monoclinic'
loop_
_space_group_symop_operation_xyz
x,y,z
-x,y,1/2-z
-x,-y,-z
x,-y,1/2+z
1/2+x,1/2+y,z
1/2-x,1/2+y,1/2-z
1/2-x,1/2-y,-z
1/2+x,1/2-y,1/2+z
loop_
_atom_site_type_symbol
_atom_site_label
_atom_site_fract_x
_atom_site_fract_y
_atom_site_fract_z
Si Si1 0.926978 0.946690 0.248344
Si Si2 0.061250 0.549928 0.801244
Si Si3 0.713491 0.036998 0.316251
Si Si4 0.826801 0.048191 0.513910
Si Si5 0.665893 0.784486 0.680015
Si Si6 0.281214 0.126084 0.906442
Si Si7 0.873245 0.438753 0.077067
O O1 0.910799 0.723466 0.199594
O O2 0.896533 0.859251 0.310137
O O3 0.000000 0.966739 0.250000
O O4 0.905924 0.212677 0.224463
O O5 0.062123 0.591310 0.876949
O O6 0.000000 0.529642 0.750000
O O7 0.776740 0.895244 0.315654
O O8 0.675785 0.924785 0.370713
O O9 0.681665 0.052659 0.244059
O O10 0.733900 0.303772 0.344685
O O11 0.761618 0.023048 0.542765
O O12 0.810825 0.129544 0.440462
O O13 0.861273 0.293936 0.544918
O O14 0.861517 0.794375 0.530701
O O15 0.668653 0.950048 0.617842
#
# Coordination Sequence:
#
# PCOD9281185 Si02
#       7
#     8   8   8   8   8   8   8
#     4  10  23  38  58  86 121 156 195 242 302 368
#     4  10  21  38  59  88 118 146 198 249 305 354
#     4  11  23  32  56  89 128 159 190 248 315 364
#     4  10  23  38  57  80 127 165 209 231 289 359
#     4  12  22  35  57  88 129 157 195 249 317 363
#     4  10  23  37  52  85 122 169 198 243 289 366
#     4  11  21  38  59  86 120 160 196 248 289 362
#
# _framework density 22.310341999999999
#
# number of rings (size 3 to 8) (size 9 to 14) (size 15 to 20)
#    0.000    1.429    4.286    0.857    8.000    1.714 
#    0.000    0.000    0.000    0.000    0.000   24.000 
#    0.000    0.000    0.000    0.000    0.000    0.000 
#
# Total GULP energy -155980.645044 kJ/mol
# GULP energy per Si atom -5570.737323 kJ/mol
# Density = 2.225956 g / cm^3
# Si number density = 22.310342 Si / 1000 Ang^3
#
#
#
# Elastic Constant Matrix: (Units=GPa)
#
#
# Indices 1 2 3 4 5 6 
#
# 1 61.7091 22.9519 21.4047 0.0000 2.2990 0.0000
# 2 22.9519 135.8308 39.5212 0.0000 1.1377 0.0000
# 3 21.4047 39.5212 93.6459 0.0000 13.8891 0.0000
# 4 0.0000 0.0000 0.0000 28.6366 0.0000 -13.7492
# 5 2.2990 1.1377 13.8891 0.0000 28.6875 0.0000
# 6 0.0000 0.0000 0.0000 -13.7492 0.0000 9.9893
#
#
#
# Elastic Compliance Matrix: (Units=1/GPa)
#
#
# Indices 1 2 3 4 5 6 
#
# 1 0.018120 -0.002108 -0.003285 0.000000 0.000222 0.000000
# 2 -0.002108 0.008697 -0.003407 0.000000 0.001474 0.000000
# 3 -0.003285 -0.003407 0.013799 0.000000 -0.006282 0.000000
# 4 0.000000 0.000000 0.000000 0.102964 0.000000 0.141720
# 5 0.000222 0.001474 -0.006282 0.000000 0.037824 0.000000
# 6 0.000000 0.000000 0.000000 0.141720 0.000000 0.295171
#
#
# Mechanical properties :
#
#
# Convention : Reuss Voigt Hill
#
# Bulk Modulus (GPa) = 43.44761 50.99350 47.22055
# Shear Modulus (GPa) = 9.96317 27.28322 18.62319
#
# Velocity S-wave (km/s) = 2.11552 3.50079 2.89231
# Velocity P-wave (km/s) = 5.04814 6.26472 5.68904
#
# Compressibility (1/GPa) = 0.02301623
#
# Stress axis : x y z
#
# Youngs Moduli (GPa) = 55.18676 114.97811 72.46819
#
# Poissons Ratio (x) = 0.24236 0.23807
# Poissons Ratio (y) = 0.11633 0.24692
# Poissons Ratio (z) = 0.18129 0.39176
#
# Static dielectric constant tensor:
#      x y z
#    x 4.537080 0.000000 0.910080 
#    y 0.000000 1.907170 0.000000 
#    z 0.910080 0.000000 2.182080 
# 
# From -- ./inp_files/254051.got.cif
#   From: 2010.05.17/outbox.cif.g08.bks.cpg/sg15_128_cif.got.tgz:254051.got - 2010.06.03 18:47:42.
