data_PCOD9281759
_publ_section_title
;
Structure prediction by ZEFSAII (Michael W. Deem and Ramdas Pophale) SiO2 
 PCOD9281759
Probable space group: C 2/C
;
_chemical_formula_sum "Si O2"
_cell_formula_units_Z 56
_cell_length_a 14.251936
_cell_length_b 21.400415
_cell_length_c 14.138328
_cell_angle_alpha 90.000000
_cell_angle_beta 42.112826
_cell_angle_gamma 90.000000
_cell_volume 2891.697980
_symmetry_space_group_name_H-M "C 2/C"
_symmetry_group_IT_number 15
_symmetry_cell_setting 'monoclinic'
loop_
_space_group_symop_operation_xyz
x,y,z
-x,y,1/2-z
-x,-y,-z
x,-y,1/2+z
1/2+x,1/2+y,z
1/2-x,1/2+y,1/2-z
1/2-x,1/2-y,-z
1/2+x,1/2-y,1/2+z
loop_
_atom_site_type_symbol
_atom_site_label
_atom_site_fract_x
_atom_site_fract_y
_atom_site_fract_z
Si Si1 0.857903 0.537689 0.629951
Si Si2 0.608408 0.547610 0.373549
Si Si3 0.382403 0.247328 0.628930
Si Si4 0.941681 0.155362 0.396873
Si Si5 0.396876 0.853763 0.959487
Si Si6 0.291063 0.146177 0.334941
Si Si7 0.856874 0.362219 0.298476
O O1 0.730516 0.489768 0.730012
O O2 0.834728 0.589732 0.566788
O O3 0.860937 0.576932 0.726503
O O4 0.000000 0.500000 0.500000
O O5 0.500000 0.500000 0.500000
O O6 0.526481 0.594432 0.366555
O O7 0.683584 0.590340 0.396265
O O8 0.512195 0.288733 0.567771
O O9 0.411459 0.206223 0.515035
O O10 0.262243 0.296072 0.688480
O O11 0.346212 0.198118 0.738046
O O12 0.777986 0.140635 0.532136
O O13 0.000000 0.172303 0.250000
O O14 0.554032 0.872961 0.813424
O O15 0.307610 0.838986 0.933093
O O16 0.000000 0.359784 0.250000
#
# Coordination Sequence:
#
# PCOD9281759 Si02
#       7
#     8   8   8   8   8   8   8
#     4  11  23  41  65  93 127 165 204 256 311 371
#     4  11  23  43  63  89 130 164 202 258 312 367
#     4  10  22  40  64  89 129 159 207 259 319 365
#     4  11  25  41  64  93 125 166 208 260 318 372
#     4  10  21  38  64  93 121 162 207 253 305 369
#     4  10  21  38  64  92 122 162 207 252 306 370
#     4  11  25  41  64  94 124 164 214 259 310 377
#
# _framework density 19.365784999999999
#
# number of rings (size 3 to 8) (size 9 to 14) (size 15 to 20)
#    0.000    1.429    2.857    1.714    2.000    5.714 
#    0.000    0.000    0.000    0.000    0.000    0.000 
#    0.000    0.000    0.000    0.000    0.000    0.000 
#
# Total GULP energy -156370.479482 kJ/mol
# GULP energy per Si atom -5584.659982 kJ/mol
# Density = 1.932171 g / cm^3
# Si number density = 19.365785 Si / 1000 Ang^3
#
#
#
# Elastic Constant Matrix: (Units=GPa)
#
#
# Indices 1 2 3 4 5 6 
#
# 1 125.6996 41.8959 55.3526 0.0001 -5.0221 0.0001
# 2 41.8959 105.3715 38.6738 0.0002 -6.7511 0.0001
# 3 55.3526 38.6738 117.4011 0.0012 -15.8717 -0.0001
# 4 0.0001 0.0002 0.0012 23.4210 -0.0007 1.3565
# 5 -5.0221 -6.7511 -15.8717 -0.0007 33.9028 0.0001
# 6 0.0001 0.0001 -0.0001 1.3565 0.0001 9.9125
#
#
#
# Elastic Compliance Matrix: (Units=1/GPa)
#
#
# Indices 1 2 3 4 5 6 
#
# 1 0.010718 -0.002754 -0.004276 0.000000 -0.000963 0.000000
# 2 -0.002754 0.011511 -0.002390 0.000000 0.000765 0.000000
# 3 -0.004276 -0.002390 0.011926 0.000000 0.004474 0.000000
# 4 0.000000 0.000000 0.000000 0.043038 0.000001 -0.005890
# 5 -0.000963 0.000765 0.004474 0.000001 0.031600 0.000000
# 6 0.000000 0.000000 0.000000 -0.005890 0.000000 0.101689
#
#
# Mechanical properties :
#
#
# Convention : Reuss Voigt Hill
#
# Bulk Modulus (GPa) = 65.29529 68.92411 67.10970
# Shear Modulus (GPa) = 21.32851 27.61725 24.47288
#
# Velocity S-wave (km/s) = 3.32226 3.78045 3.55874
# Velocity P-wave (km/s) = 6.96467 7.39754 7.18437
#
# Compressibility (1/GPa) = 0.01531504
#
# Stress axis : x y z
#
# Youngs Moduli (GPa) = 93.30163 86.87041 83.84846
#
# Poissons Ratio (x) = 0.23921 0.35857
# Poissons Ratio (y) = 0.25692 0.20042
# Poissons Ratio (z) = 0.39899 0.20765
#
# Static dielectric constant tensor:
#      x y z
#    x 1.662590 0.000000 0.018620 
#    y 0.000000 1.671930 0.000000 
#    z 0.018620 0.000000 1.676720 
# 
# From -- ./inp_files/156151.got.cif
#   From: 2010.05.17/outbox.cif.g08.bks.cpg/sg15_79_cif.got.tgz:156151.got - 2010.06.03 18:47:42.
