data_PCOD9281520
_publ_section_title
;
Structure prediction by ZEFSAII (Michael W. Deem and Ramdas Pophale) SiO2 
 PCOD9281520
Probable space group: C 2/C
;
_chemical_formula_sum "Si O2"
_cell_formula_units_Z 48
_cell_length_a 8.946579
_cell_length_b 15.703797
_cell_length_c 30.970470
_cell_angle_alpha 90.000000
_cell_angle_beta 151.294665
_cell_angle_gamma 90.000000
_cell_volume 2089.905894
_symmetry_space_group_name_H-M "C 2/C"
_symmetry_group_IT_number 15
_symmetry_cell_setting 'monoclinic'
loop_
_space_group_symop_operation_xyz
x,y,z
-x,y,1/2-z
-x,-y,-z
x,-y,1/2+z
1/2+x,1/2+y,z
1/2-x,1/2+y,1/2-z
1/2-x,1/2-y,-z
1/2+x,1/2-y,1/2+z
loop_
_atom_site_type_symbol
_atom_site_label
_atom_site_fract_x
_atom_site_fract_y
_atom_site_fract_z
Si Si1 0.367223 0.975026 0.919231
Si Si2 0.247642 0.759861 0.064041
Si Si3 0.361396 0.968036 0.762702
Si Si4 0.223462 0.917335 0.553321
Si Si5 0.372120 0.828554 0.264771
Si Si6 0.344625 0.834996 0.405515
O O1 0.358066 0.068037 0.893409
O O2 0.006605 0.948301 0.830712
O O3 0.588261 0.920116 0.944206
O O4 0.500000 0.000000 0.000000
O O5 0.430672 0.768662 0.154325
O O6 0.504159 0.776328 0.092325
O O7 0.995879 0.835573 0.999364
O O8 0.054311 0.677499 0.001425
O O9 0.500000 0.951300 0.750000
O O10 0.406614 0.069909 0.783296
O O11 0.542509 0.920711 0.846784
O O12 0.000000 0.000000 0.500000
O O13 0.500000 0.816115 0.250000
O O14 0.007771 0.810954 0.175154
#
# Coordination Sequence:
#
# PCOD9281520 Si02
#       6
#     8   8   8   8   8   8
#     4  11  23  40  65  93 127 168 215 265 324 390
#     4  11  23  41  66  92 131 167 217 269 319 391
#     4  10  21  38  62  91 128 166 214 264 321 384
#     4  12  21  38  64  96 125 167 216 272 317 377
#     4  10  21  39  63  90 123 171 212 259 321 391
#     4  10  23  42  63  92 125 171 213 258 332 385
#
# _framework density 22.967542000000002
#
# number of rings (size 3 to 8) (size 9 to 14) (size 15 to 20)
#    0.000    1.333    3.333    2.000    4.667    3.333 
#    3.000    0.000    0.000    0.000    0.000    0.000 
#    0.000    0.000    0.000    0.000    0.000    0.000 
#
# Total GULP energy -134358.821697 kJ/mol
# GULP energy per Si atom -5598.284237 kJ/mol
# Density = 2.291527 g / cm^3
# Si number density = 22.967542 Si / 1000 Ang^3
#
#
#
# Elastic Constant Matrix: (Units=GPa)
#
#
# Indices 1 2 3 4 5 6 
#
# 1 157.3150 26.0665 59.5011 -0.0004 20.4942 -0.0001
# 2 26.0665 44.7588 -3.5351 0.0007 20.1151 0.0000
# 3 59.5011 -3.5351 121.3516 0.0012 20.6468 -0.0003
# 4 -0.0004 0.0007 0.0012 26.6112 -0.0001 -2.6551
# 5 20.4942 20.1151 20.6468 -0.0001 39.2271 -0.0004
# 6 -0.0001 0.0000 -0.0003 -2.6551 -0.0004 17.0330
#
#
#
# Elastic Compliance Matrix: (Units=1/GPa)
#
#
# Indices 1 2 3 4 5 6 
#
# 1 0.009042 -0.006035 -0.004758 0.000000 0.000875 0.000000
# 2 -0.006035 0.034666 0.007092 -0.000001 -0.018356 -0.000001
# 3 -0.004758 0.007092 0.012056 -0.000001 -0.007496 0.000000
# 4 0.000000 -0.000001 -0.000001 0.038172 0.000001 0.005950
# 5 0.000875 -0.018356 -0.007496 0.000001 0.038394 0.000001
# 6 0.000000 -0.000001 0.000000 0.005950 0.000001 0.059637
#
#
# Mechanical properties :
#
#
# Convention : Reuss Voigt Hill
#
# Bulk Modulus (GPa) = 20.67748 54.16560 37.42154
# Shear Modulus (GPa) = 23.20286 32.66712 27.93499
#
# Velocity S-wave (km/s) = 3.18188 3.77545 3.49131
# Velocity P-wave (km/s) = 4.74570 6.52994 5.70797
#
# Compressibility (1/GPa) = 0.04836179
#
# Stress axis : x y z
#
# Youngs Moduli (GPa) = 110.58956 28.84631 82.94862
#
# Poissons Ratio (x) = 0.17409 0.39470
# Poissons Ratio (y) = 0.66743 -0.58829
# Poissons Ratio (z) = 0.52623 -0.20458
#
# Static dielectric constant tensor:
#      x y z
#    x 1.812250 0.000000 -0.037910 
#    y 0.000000 1.923940 0.000000 
#    z -0.037910 0.000000 1.837900 
# 
# From -- ./inp_files/308708.got.cif
#   From: 2010.05.17/outbox.cif.g08.bks.cpg/sg15_155_cif.got.tgz:308708.got - 2010.06.03 18:47:42.
