data_PCOD9281067
_publ_section_title
;
Structure prediction by ZEFSAII (Michael W. Deem and Ramdas Pophale) SiO2 
 PCOD9281067
Probable space group: C 2/C
;
_chemical_formula_sum "Si O2"
_cell_formula_units_Z 56
_cell_length_a 17.485627
_cell_length_b 14.319134
_cell_length_c 19.483683
_cell_angle_alpha 90.000000
_cell_angle_beta 147.778662
_cell_angle_gamma 90.000000
_cell_volume 2601.070570
_symmetry_space_group_name_H-M "C 2/C"
_symmetry_group_IT_number 15
_symmetry_cell_setting 'monoclinic'
loop_
_space_group_symop_operation_xyz
x,y,z
-x,y,1/2-z
-x,-y,-z
x,-y,1/2+z
1/2+x,1/2+y,z
1/2-x,1/2+y,1/2-z
1/2-x,1/2-y,-z
1/2+x,1/2-y,1/2+z
loop_
_atom_site_type_symbol
_atom_site_label
_atom_site_fract_x
_atom_site_fract_y
_atom_site_fract_z
Si Si1 0.268839 0.184819 0.769099
Si Si2 0.353612 0.205403 0.682444
Si Si3 0.232884 0.602444 0.127546
Si Si4 0.623313 0.956747 0.939753
Si Si5 0.854917 0.981504 0.847512
Si Si6 0.680705 0.999595 0.341856
Si Si7 0.997241 0.680579 0.450517
O O1 0.364450 0.197432 0.773359
O O2 0.218032 0.077773 0.733726
O O3 0.123802 0.243398 0.654006
O O4 0.365387 0.217029 0.904814
O O5 0.500000 0.211488 0.750000
O O6 0.265403 0.302391 0.610513
O O7 0.271789 0.107170 0.604664
O O8 0.350808 0.583478 0.277254
O O9 0.085166 0.610619 0.059149
O O10 0.216457 0.518019 0.062243
O O11 0.558626 0.869382 0.930345
O O12 0.483017 0.013421 0.807820
O O13 0.698296 0.940207 0.923805
O O14 0.753486 0.950587 0.832870
O O15 0.000000 0.000000 0.000000
#
# Coordination Sequence:
#
# PCOD9281067 Si02
#       7
#     8   8   8   8   8   8   8
#     4  10  24  40  66  96 128 168 222 274 323 392
#     4  10  21  38  57  96 134 163 204 261 332 380
#     4  11  22  36  63  93 129 178 213 261 323 403
#     4  11  20  39  67  89 124 168 223 262 318 398
#     4  11  23  41  63  96 134 170 222 272 324 389
#     4  10  22  40  62  94 125 170 213 269 324 390
#     4  11  22  40  66  95 125 170 225 269 328 388
#
# _framework density 21.529596000000002
#
# number of rings (size 3 to 8) (size 9 to 14) (size 15 to 20)
#    0.000    1.429    4.286    2.143    4.000    1.714 
#    5.143    0.000    0.000    7.714    0.000    0.000 
#    0.000    0.000    0.000    0.000    0.000    0.000 
#
# Total GULP energy -156162.797504 kJ/mol
# GULP energy per Si atom -5577.242768 kJ/mol
# Density = 2.148059 g / cm^3
# Si number density = 21.529596 Si / 1000 Ang^3
#
#
#
# Elastic Constant Matrix: (Units=GPa)
#
#
# Indices 1 2 3 4 5 6 
#
# 1 106.1565 35.8411 20.4770 -0.0008 -21.0029 -0.0003
# 2 35.8411 53.7165 0.9164 -0.0011 -3.5039 -0.0007
# 3 20.4770 0.9164 98.9333 -0.0017 -13.1565 -0.0010
# 4 -0.0008 -0.0011 -0.0017 26.4214 -0.0007 3.2593
# 5 -21.0029 -3.5039 -13.1565 -0.0007 19.7912 -0.0003
# 6 -0.0003 -0.0007 -0.0010 3.2593 -0.0003 32.6590
#
#
#
# Elastic Compliance Matrix: (Units=1/GPa)
#
#
# Indices 1 2 3 4 5 6 
#
# 1 0.015666 -0.009512 -0.001281 0.000000 0.014090 0.000000
# 2 -0.009512 0.024617 0.001073 0.000001 -0.005023 0.000000
# 3 -0.001281 0.001073 0.011197 0.000001 0.006274 0.000000
# 4 0.000000 0.000001 0.000001 0.038320 0.000002 -0.003824
# 5 0.014090 -0.005023 0.006274 0.000002 0.068762 0.000001
# 6 0.000000 0.000000 0.000000 -0.003824 0.000001 0.031001
#
#
# Mechanical properties :
#
#
# Convention : Reuss Voigt Hill
#
# Bulk Modulus (GPa) = 31.21030 41.47502 36.34266
# Shear Modulus (GPa) = 22.75999 29.21244 25.98621
#
# Velocity S-wave (km/s) = 3.25491 3.68754 3.47796
# Velocity P-wave (km/s) = 5.35293 6.11855 5.74850
#
# Compressibility (1/GPa) = 0.03204070
#
# Stress axis : x y z
#
# Youngs Moduli (GPa) = 63.83138 40.62237 89.30675
#
# Poissons Ratio (x) = 0.38640 0.11438
# Poissons Ratio (y) = 0.60717 -0.09581
# Poissons Ratio (z) = 0.08175 -0.04358
#
# Static dielectric constant tensor:
#      x y z
#    x 1.819430 0.000000 0.030140 
#    y 0.000000 1.831260 0.000000 
#    z 0.030140 0.000000 1.879210 
# 
# From -- ./inp_files/249294.got.cif
#   From: 2010.05.17/outbox.cif.g08.bks.cpg/sg15_125_cif.got.tgz:249294.got - 2010.06.03 18:47:42.
