data_PCOD9281433
_publ_section_title
;
Structure prediction by ZEFSAII (Michael W. Deem and Ramdas Pophale) SiO2 
 PCOD9281433
Probable space group: C 2/C
;
_chemical_formula_sum "Si O2"
_cell_formula_units_Z 48
_cell_length_a 13.224090
_cell_length_b 13.377824
_cell_length_c 12.966032
_cell_angle_alpha 90.000000
_cell_angle_beta 64.761173
_cell_angle_gamma 90.000000
_cell_volume 2074.843428
_symmetry_space_group_name_H-M "C 2/C"
_symmetry_group_IT_number 15
_symmetry_cell_setting 'monoclinic'
loop_
_space_group_symop_operation_xyz
x,y,z
-x,y,1/2-z
-x,-y,-z
x,-y,1/2+z
1/2+x,1/2+y,z
1/2-x,1/2+y,1/2-z
1/2-x,1/2-y,-z
1/2+x,1/2-y,1/2+z
loop_
_atom_site_type_symbol
_atom_site_label
_atom_site_fract_x
_atom_site_fract_y
_atom_site_fract_z
Si Si1 0.789568 0.829690 0.330441
Si Si2 0.489592 0.076827 0.413341
Si Si3 0.364564 0.744322 0.593883
Si Si4 0.739152 0.386150 0.942570
Si Si5 0.669114 0.954745 0.219728
Si Si6 0.619121 0.256597 0.648336
O O1 0.871562 0.817032 0.197189
O O2 0.741823 0.720228 0.383197
O O3 0.829984 0.876075 0.421161
O O4 0.698548 0.898238 0.312942
O O5 0.538245 0.177809 0.436313
O O6 0.364939 0.094576 0.429987
O O7 0.500000 0.000000 0.500000
O O8 0.576706 0.034891 0.291712
O O9 0.376099 0.706186 0.471748
O O10 0.237065 0.789639 0.648599
O O11 0.727824 0.482020 0.873382
O O12 0.630444 0.865758 0.158473
O O13 0.500000 0.283828 0.750000
#
# Coordination Sequence:
#
# PCOD9281433 Si02
#       6
#     8   8   8   8   8   8
#     4  10  23  39  55  94 138 176 214 274 344 413
#     4  12  21  36  64 101 135 164 219 293 340 386
#     4  10  22  37  57  96 135 169 223 274 330 409
#     4  11  22  37  60  93 138 178 218 278 354 397
#     4  11  21  36  62  95 133 168 225 282 335 398
#     4  10  21  38  61  94 134 179 216 272 337 400
#
# _framework density 23.134277999999998
#
# number of rings (size 3 to 8) (size 9 to 14) (size 15 to 20)
#    0.000    1.333    3.333    3.500    2.333    0.000 
#    0.000    0.000    0.000    0.000    8.667   35.000 
#    0.000    0.000    0.000    0.000    0.000    0.000 
#
# Total GULP energy -133766.442721 kJ/mol
# GULP energy per Si atom -5573.601780 kJ/mol
# Density = 2.308162 g / cm^3
# Si number density = 23.134278 Si / 1000 Ang^3
#
#
#
# Elastic Constant Matrix: (Units=GPa)
#
#
# Indices 1 2 3 4 5 6 
#
# 1 36.5588 5.2534 13.7069 0.0000 5.8903 0.0000
# 2 5.2534 41.7175 17.0922 0.0000 18.3126 0.0000
# 3 13.7069 17.0922 178.3573 0.0000 31.6754 0.0000
# 4 0.0000 0.0000 0.0000 31.7298 0.0000 12.8905
# 5 5.8903 18.3126 31.6754 0.0000 38.5921 0.0000
# 6 0.0000 0.0000 0.0000 12.8905 0.0000 30.8182
#
#
#
# Elastic Compliance Matrix: (Units=1/GPa)
#
#
# Indices 1 2 3 4 5 6 
#
# 1 0.028590 -0.002026 -0.001637 0.000000 -0.002058 0.000000
# 2 -0.002026 0.030447 -0.000294 0.000000 -0.013897 0.000000
# 3 -0.001637 -0.000294 0.006663 0.000000 -0.005079 0.000000
# 4 0.000000 0.000000 0.000000 0.037968 0.000000 -0.015881
# 5 -0.002058 -0.013897 -0.005079 0.000000 0.036989 0.000000
# 6 0.000000 0.000000 0.000000 -0.015881 0.000000 0.039091
#
#
# Mechanical properties :
#
#
# Convention : Reuss Voigt Hill
#
# Bulk Modulus (GPa) = 17.30565 36.52653 26.91609
# Shear Modulus (GPa) = 24.16350 34.93343 29.54847
#
# Velocity S-wave (km/s) = 3.23536 3.89012 3.57775
# Velocity P-wave (km/s) = 4.63179 6.00005 5.35976
#
# Compressibility (1/GPa) = 0.05778461
#
# Stress axis : x y z
#
# Youngs Moduli (GPa) = 34.97743 32.84445 150.08750
#
# Poissons Ratio (x) = 0.06654 0.24576
# Poissons Ratio (y) = 0.07086 0.04413
# Poissons Ratio (z) = 0.05727 0.00966
#
# Static dielectric constant tensor:
#      x y z
#    x 1.889460 0.000000 -0.030030 
#    y 0.000000 1.815690 0.000000 
#    z -0.030030 0.000000 1.994130 
# 
# From -- ./inp_files/153292.got.cif
#   From: 2010.05.17/outbox.cif.g08.bks.cpg/sg15_77_cif.got.tgz:153292.got - 2010.06.03 18:47:42.
