data_PCOD9281097
_publ_section_title
;
Structure prediction by ZEFSAII (Michael W. Deem and Ramdas Pophale) SiO2 
 PCOD9281097
Probable space group: C 2/C
;
_chemical_formula_sum "Si O2"
_cell_formula_units_Z 60
_cell_length_a 12.902005
_cell_length_b 31.045051
_cell_length_c 8.338856
_cell_angle_alpha 90.000000
_cell_angle_beta 72.731929
_cell_angle_gamma 90.000000
_cell_volume 3189.524506
_symmetry_space_group_name_H-M "C 2/C"
_symmetry_group_IT_number 15
_symmetry_cell_setting 'monoclinic'
loop_
_space_group_symop_operation_xyz
x,y,z
-x,y,1/2-z
-x,-y,-z
x,-y,1/2+z
1/2+x,1/2+y,z
1/2-x,1/2+y,1/2-z
1/2-x,1/2-y,-z
1/2+x,1/2-y,1/2+z
loop_
_atom_site_type_symbol
_atom_site_label
_atom_site_fract_x
_atom_site_fract_y
_atom_site_fract_z
Si Si1 0.117745 0.550826 0.007390
Si Si2 0.246978 0.876847 0.615204
Si Si3 0.620220 0.863428 0.627249
Si Si4 0.638239 0.230377 0.979587
Si Si5 0.000000 0.141085 0.250000
Si Si6 0.765555 0.293051 0.389381
Si Si7 0.866253 0.538842 0.116571
Si Si8 0.477211 0.691493 0.590163
O O1 0.148479 0.601057 0.977967
O O2 0.133080 0.544275 0.191609
O O3 0.992344 0.545680 0.011965
O O4 0.173103 0.509473 0.902628
O O5 0.292676 0.865468 0.770467
O O6 0.116746 0.881445 0.676413
O O7 0.282582 0.836589 0.485881
O O8 0.300106 0.923419 0.559512
O O9 0.500000 0.874943 0.750000
O O10 0.615849 0.815238 0.569418
O O11 0.649317 0.219584 0.786182
O O12 0.750000 0.250000 0.000000
O O13 0.543911 0.264209 0.057077
O O14 0.010088 0.168135 0.410211
O O15 0.750000 0.250000 0.500000
O O16 0.650554 0.300803 0.356871
O O17 0.500000 0.668746 0.750000
#
# Coordination Sequence:
#
# PCOD9281097 Si02
#       8
#     8   8   8   8   4   8   8   8
#     4   9  17  33  55  85 114 150 181 231 295 368
#     4  10  21  38  58  84 118 155 197 252 295 358
#     4  11  21  37  58  86 118 152 199 243 303 361
#     4  12  23  36  57  82 111 156 199 247 297 353
#     4  10  22  40  62  84 118 164 210 250 298 350
#     4  11  24  38  53  80 118 155 202 252 299 354
#     4   9  17  33  57  82 115 149 186 227 302 355
#     4  11  22  39  58  80 112 164 208 249 298 356
#
# _framework density 18.811582000000001
#
# number of rings (size 3 to 8) (size 9 to 14) (size 15 to 20)
#    0.000    1.600    4.000    3.600    1.867    1.067 
#    0.000    0.000    0.000    3.200    0.000    1.867 
#    0.000    0.000    0.000    0.000    0.000    0.000 
#
# Total GULP energy -167210.234569 kJ/mol
# GULP energy per Si atom -5573.674486 kJ/mol
# Density = 1.876877 g / cm^3
# Si number density = 18.811582 Si / 1000 Ang^3
#
#
#
# Elastic Constant Matrix: (Units=GPa)
#
#
# Indices 1 2 3 4 5 6 
#
# 1 64.0229 42.7032 18.7558 0.0000 15.6551 0.0000
# 2 42.7032 132.0643 27.1021 0.0000 6.3983 0.0000
# 3 18.7558 27.1021 60.2054 0.0000 4.6540 0.0000
# 4 0.0000 0.0000 0.0000 28.1669 0.0000 8.7988
# 5 15.6551 6.3983 4.6540 0.0000 21.4260 0.0000
# 6 0.0000 0.0000 0.0000 8.7988 0.0000 29.1303
#
#
#
# Elastic Compliance Matrix: (Units=1/GPa)
#
#
# Indices 1 2 3 4 5 6 
#
# 1 0.024791 -0.006534 -0.003593 0.000000 -0.015382 0.000000
# 2 -0.006534 0.010126 -0.002704 0.000000 0.002337 0.000000
# 3 -0.003593 -0.002704 0.019000 0.000000 -0.000694 0.000000
# 4 0.000000 0.000000 0.000000 0.039202 0.000000 -0.011841
# 5 -0.015382 0.002337 -0.000694 0.000000 0.057365 0.000000
# 6 0.000000 0.000000 0.000000 -0.011841 0.000000 0.037905
#
#
# Mechanical properties :
#
#
# Convention : Reuss Voigt Hill
#
# Bulk Modulus (GPa) = 35.38963 48.15720 41.77341
# Shear Modulus (GPa) = 22.37453 26.92673 24.65063
#
# Velocity S-wave (km/s) = 3.45251 3.78748 3.62387
# Velocity P-wave (km/s) = 5.89463 6.69193 6.30589
#
# Compressibility (1/GPa) = 0.02825686
#
# Stress axis : x y z
#
# Youngs Moduli (GPa) = 40.33667 98.75205 52.63183
#
# Poissons Ratio (x) = 0.64522 0.18910
# Poissons Ratio (y) = 0.26355 0.14230
# Poissons Ratio (z) = 0.14493 0.26700
#
# Static dielectric constant tensor:
#      x y z
#    x 1.643390 0.000000 -0.010880 
#    y 0.000000 1.696130 0.000000 
#    z -0.010880 0.000000 1.715070 
# 
# From -- ./inp_files/35192.got.cif
#   From: 2010.05.17/outbox.cif.g08.bks.cpg/sg15_18_cif.got.tgz:35192.got - 2010.06.03 18:47:42.
