data_PCOD9281321
_publ_section_title
;
Structure prediction by ZEFSAII (Michael W. Deem and Ramdas Pophale) SiO2 
 PCOD9281321
Probable space group: C 2/C
;
_chemical_formula_sum "Si O2"
_cell_formula_units_Z 60
_cell_length_a 21.863525
_cell_length_b 21.648866
_cell_length_c 12.567276
_cell_angle_alpha 90.000000
_cell_angle_beta 154.664983
_cell_angle_gamma 90.000000
_cell_volume 2545.360228
_symmetry_space_group_name_H-M "C 2/C"
_symmetry_group_IT_number 15
_symmetry_cell_setting 'monoclinic'
loop_
_space_group_symop_operation_xyz
x,y,z
-x,y,1/2-z
-x,-y,-z
x,-y,1/2+z
1/2+x,1/2+y,z
1/2-x,1/2+y,1/2-z
1/2-x,1/2-y,-z
1/2+x,1/2-y,1/2+z
loop_
_atom_site_type_symbol
_atom_site_label
_atom_site_fract_x
_atom_site_fract_y
_atom_site_fract_z
Si Si1 0.982287 0.523091 0.345037
Si Si2 0.594381 0.835062 0.242200
Si Si3 0.776391 0.685295 0.222871
Si Si4 0.887221 0.175903 0.913180
Si Si5 0.159893 0.216154 0.243831
Si Si6 0.815060 0.906708 0.103609
Si Si7 0.750131 0.413614 0.157115
Si Si8 0.500000 0.487811 0.250000
O O1 0.000000 0.493745 0.250000
O O2 0.000000 0.500000 0.500000
O O3 0.112728 0.572542 0.553289
O O4 0.824247 0.550916 0.101583
O O5 0.678537 0.796486 0.463899
O O6 0.608763 0.787026 0.165502
O O7 0.680945 0.896448 0.349135
O O8 0.427442 0.845621 0.996290
O O9 0.814319 0.758111 0.273342
O O10 0.654972 0.684740 0.121967
O O11 0.725199 0.648379 0.040926
O O12 0.848535 0.125078 0.766258
O O13 0.837118 0.146264 0.942852
O O14 0.054877 0.185463 0.162760
O O15 0.947334 0.945215 0.264116
O O16 0.638326 0.469424 0.987924
#
# Coordination Sequence:
#
# PCOD9281321 Si02
#       8
#     8   8   8   8   8   8   8   4
#     4  12  26  53  80 105 145 195 259 318 377 461
#     4  10  21  38  65  97 138 189 244 296 371 445
#     4  11  22  41  69 101 145 189 243 306 381 450
#     4  11  24  42  70 103 141 194 239 312 382 456
#     4  10  21  38  61 101 146 183 238 308 373 449
#     4  12  25  46  68 106 145 187 248 314 380 461
#     4  12  23  46  72 102 142 196 250 302 376 465
#     4  12  28  44  74 102 150 196 252 318 384 448
#
# _framework density 23.572303000000002
#
# number of rings (size 3 to 8) (size 9 to 14) (size 15 to 20)
#    0.000    0.800    5.333    2.400    0.000    0.533 
#    2.400    1.333    0.000    0.000    0.000    0.000 
#    0.000    0.000    0.000    0.000    0.000    0.000 
#
# Total GULP energy -167319.895944 kJ/mol
# GULP energy per Si atom -5577.329865 kJ/mol
# Density = 2.351865 g / cm^3
# Si number density = 23.572303 Si / 1000 Ang^3
#
#
#
# Elastic Constant Matrix: (Units=GPa)
#
#
# Indices 1 2 3 4 5 6 
#
# 1 142.3417 40.2405 18.8235 0.0000 9.0901 0.0000
# 2 40.2405 81.6977 21.7285 0.0000 5.5143 0.0000
# 3 18.8235 21.7285 53.7260 0.0000 13.2644 0.0000
# 4 0.0000 0.0000 0.0000 41.9795 0.0000 -1.1169
# 5 9.0901 5.5143 13.2644 0.0000 35.4738 0.0000
# 6 0.0000 0.0000 0.0000 -1.1169 0.0000 16.4326
#
#
#
# Elastic Compliance Matrix: (Units=1/GPa)
#
#
# Indices 1 2 3 4 5 6 
#
# 1 0.008295 -0.003710 -0.001128 0.000000 -0.001127 0.000000
# 2 -0.003710 0.015375 -0.005027 0.000000 0.000440 0.000000
# 3 -0.001128 -0.005027 0.022890 0.000000 -0.007489 0.000000
# 4 0.000000 0.000000 0.000000 0.023864 0.000000 0.001622
# 5 -0.001127 0.000440 -0.007489 0.000000 0.031210 0.000000
# 6 0.000000 0.000000 0.000000 0.001622 0.000000 0.060965
#
#
# Mechanical properties :
#
#
# Convention : Reuss Voigt Hill
#
# Bulk Modulus (GPa) = 37.27020 48.81670 43.04345
# Shear Modulus (GPa) = 26.14076 31.90871 29.02473
#
# Velocity S-wave (km/s) = 3.33372 3.68319 3.51280
# Velocity P-wave (km/s) = 5.53747 6.23235 5.89516
#
# Compressibility (1/GPa) = 0.02683109
#
# Stress axis : x y z
#
# Youngs Moduli (GPa) = 120.55097 65.04142 43.68726
#
# Poissons Ratio (x) = 0.24129 0.04926
# Poissons Ratio (y) = 0.44723 0.21962
# Poissons Ratio (z) = 0.13594 0.32696
#
# Static dielectric constant tensor:
#      x y z
#    x 1.950430 0.000000 -0.007200 
#    y 0.000000 1.955930 0.000000 
#    z -0.007200 0.000000 1.877440 
# 
# From -- ./inp_files/114826.got.cif
#   From: 2010.05.17/outbox.cif.g08.bks.cpg/sg15_58_cif.got.tgz:114826.got - 2010.06.03 18:47:42.
