data_PCOD9281746
_publ_section_title
;
Structure prediction by ZEFSAII (Michael W. Deem and Ramdas Pophale) SiO2 
 PCOD9281746
Probable space group: C 2/C
;
_chemical_formula_sum "Si O2"
_cell_formula_units_Z 48
_cell_length_a 16.608244
_cell_length_b 9.166236
_cell_length_c 25.182977
_cell_angle_alpha 90.000000
_cell_angle_beta 37.799915
_cell_angle_gamma 90.000000
_cell_volume 2349.717271
_symmetry_space_group_name_H-M "C 2/C"
_symmetry_group_IT_number 15
_symmetry_cell_setting 'monoclinic'
loop_
_space_group_symop_operation_xyz
x,y,z
-x,y,1/2-z
-x,-y,-z
x,-y,1/2+z
1/2+x,1/2+y,z
1/2-x,1/2+y,1/2-z
1/2-x,1/2-y,-z
1/2+x,1/2-y,1/2+z
loop_
_atom_site_type_symbol
_atom_site_label
_atom_site_fract_x
_atom_site_fract_y
_atom_site_fract_z
Si Si1 0.711390 0.490118 0.282701
Si Si2 0.446571 0.014277 0.718826
Si Si3 0.367262 0.843570 0.463851
Si Si4 0.719100 0.151215 0.943302
Si Si5 0.869990 0.706985 0.628786
Si Si6 0.528757 0.291059 0.128123
O O1 0.816087 0.443756 0.182749
O O2 0.681182 0.658876 0.308808
O O3 0.578903 0.405401 0.336157
O O4 0.794105 0.440332 0.291799
O O5 0.500000 0.012130 0.750000
O O6 0.459385 0.854206 0.685960
O O7 0.541761 0.113440 0.633741
O O8 0.250000 0.750000 0.500000
O O9 0.472825 0.776176 0.449730
O O10 0.317339 0.987566 0.520009
O O11 0.684529 0.200229 0.902106
O O12 0.873245 0.162879 0.875786
O O13 0.629182 0.251769 0.028336
#
# Coordination Sequence:
#
# PCOD9281746 Si02
#       6
#     8   8   8   8   8   8
#     4  11  22  39  62  92 125 164 213 266 310 381
#     4  10  21  39  61  91 126 168 209 262 318 379
#     4  10  22  41  59  92 132 162 211 270 314 382
#     4  10  22  40  63  91 122 171 211 259 324 382
#     4  11  23  40  64  90 129 168 211 264 322 377
#     4  10  21  38  64  91 123 160 217 261 313 392
#
# _framework density 20.427989
#
# number of rings (size 3 to 8) (size 9 to 14) (size 15 to 20)
#    0.000    1.667    1.667    2.500    0.000    2.000 
#    6.000    0.000    0.000    0.000    0.000    0.000 
#    0.000    0.000    0.000    0.000    0.000    0.000 
#
# Total GULP energy -133805.182985 kJ/mol
# GULP energy per Si atom -5575.215958 kJ/mol
# Density = 2.038149 g / cm^3
# Si number density = 20.427989 Si / 1000 Ang^3
#
#
#
# Elastic Constant Matrix: (Units=GPa)
#
#
# Indices 1 2 3 4 5 6 
#
# 1 195.0344 55.1684 51.8955 0.0000 -28.9505 0.0000
# 2 55.1684 60.8560 24.0654 0.0000 -12.9954 0.0000
# 3 51.8955 24.0654 55.2095 0.0000 -30.4705 0.0000
# 4 0.0000 0.0000 0.0000 15.1472 0.0000 -13.5439
# 5 -28.9505 -12.9954 -30.4705 0.0000 50.9684 0.0000
# 6 0.0000 0.0000 0.0000 -13.5439 0.0000 32.1414
#
#
#
# Elastic Compliance Matrix: (Units=1/GPa)
#
#
# Indices 1 2 3 4 5 6 
#
# 1 0.007986 -0.005162 -0.005193 0.000000 0.000116 0.000000
# 2 -0.005162 0.023192 -0.005390 0.000000 -0.000241 0.000000
# 3 -0.005193 -0.005390 0.034262 0.000000 0.016159 0.000000
# 4 0.000000 0.000000 0.000000 0.105932 0.000000 0.044638
# 5 0.000116 -0.000241 0.016159 0.000000 0.029284 0.000000
# 6 0.000000 0.000000 0.000000 0.044638 0.000000 0.049922
#
#
# Mechanical properties :
#
#
# Convention : Reuss Voigt Hill
#
# Bulk Modulus (GPa) = 29.45551 63.70652 46.58101
# Shear Modulus (GPa) = 17.04241 31.64945 24.34593
#
# Velocity S-wave (km/s) = 2.89150 3.94041 3.45598
# Velocity P-wave (km/s) = 5.05947 7.20805 6.22713
#
# Compressibility (1/GPa) = 0.03394951
#
# Stress axis : x y z
#
# Youngs Moduli (GPa) = 125.21396 43.11922 29.18671
#
# Poissons Ratio (x) = 0.22256 0.15157
# Poissons Ratio (y) = 0.64630 0.15733
# Poissons Ratio (z) = 0.65027 0.23243
#
# Static dielectric constant tensor:
#      x y z
#    x 1.775070 0.000000 -0.039940 
#    y 0.000000 1.752330 0.000000 
#    z -0.039940 0.000000 1.750790 
# 
# From -- ./inp_files/295401.got.cif
#   From: 2010.05.17/outbox.cif.g08.bks.cpg/sg15_148_cif.got.tgz:295401.got - 2010.06.03 18:47:42.
