data_PCOD9281947
_publ_section_title
;
Structure prediction by ZEFSAII (Michael W. Deem and Ramdas Pophale) SiO2 
 PCOD9281947
Probable space group: C 2/C
;
_chemical_formula_sum "Si O2"
_cell_formula_units_Z 60
_cell_length_a 20.998249
_cell_length_b 13.957345
_cell_length_c 12.912854
_cell_angle_alpha 90.000000
_cell_angle_beta 125.700499
_cell_angle_gamma 90.000000
_cell_volume 3073.308228
_symmetry_space_group_name_H-M "C 2/C"
_symmetry_group_IT_number 15
_symmetry_cell_setting 'monoclinic'
loop_
_space_group_symop_operation_xyz
x,y,z
-x,y,1/2-z
-x,-y,-z
x,-y,1/2+z
1/2+x,1/2+y,z
1/2-x,1/2+y,1/2-z
1/2-x,1/2-y,-z
1/2+x,1/2-y,1/2+z
loop_
_atom_site_type_symbol
_atom_site_label
_atom_site_fract_x
_atom_site_fract_y
_atom_site_fract_z
Si Si1 0.215710 0.548855 0.079324
Si Si2 0.597817 0.635005 0.982826
Si Si3 0.589878 0.965215 0.086700
Si Si4 0.000000 0.007155 0.250000
Si Si5 0.091080 0.358695 0.301899
Si Si6 0.918978 0.342430 0.627580
Si Si7 0.241610 0.364674 0.966930
Si Si8 0.882134 0.147073 0.255824
O O1 0.153701 0.597053 0.941059
O O2 0.247007 0.445956 0.062860
O O3 0.161803 0.535905 0.129777
O O4 0.291881 0.613475 0.168363
O O5 0.542424 0.555689 0.878950
O O6 0.579529 0.731024 0.900202
O O7 0.689313 0.611985 0.046540
O O8 0.589217 0.651297 0.097231
O O9 0.602690 0.913447 0.205941
O O10 0.596214 0.893720 0.995229
O O11 0.500000 0.000000 0.000000
O O12 0.065150 0.071281 0.255848
O O13 0.107792 0.247911 0.292588
O O14 0.000000 0.369646 0.250000
O O15 0.850834 0.367874 0.644004
O O16 0.000000 0.376174 0.750000
O O17 0.250000 0.250000 0.000000
#
# Coordination Sequence:
#
# PCOD9281947 Si02
#       8
#     8   8   8   4   8   8   8   8
#     4  11  25  42  70  98 132 180 225 274 338 402
#     4  11  22  43  65  95 126 169 226 275 329 399
#     4  11  24  40  66 100 130 173 222 268 333 404
#     4  12  24  44  70  90 130 178 230 280 338 394
#     4  12  25  47  68  97 143 182 224 275 338 405
#     4  10  21  38  66  94 128 167 211 271 336 393
#     4   9  21  40  62  93 132 164 208 281 330 380
#     4  12  26  45  67  97 136 181 223 280 340 401
#
# _framework density 19.522935
#
# number of rings (size 3 to 8) (size 9 to 14) (size 15 to 20)
#    0.000    1.067    5.333    0.800    5.600    0.000 
#    0.000    0.000    2.933    0.000    0.000    0.000 
#    0.000    0.000    0.000    0.000    0.000    0.000 
#
# Total GULP energy -167349.283027 kJ/mol
# GULP energy per Si atom -5578.309434 kJ/mol
# Density = 1.947850 g / cm^3
# Si number density = 19.522935 Si / 1000 Ang^3
#
#
#
# Elastic Constant Matrix: (Units=GPa)
#
#
# Indices 1 2 3 4 5 6 
#
# 1 132.1855 37.4241 38.7122 0.0000 9.7549 0.0000
# 2 37.4241 102.6078 35.8540 0.0000 -0.7838 0.0000
# 3 38.7122 35.8540 89.5717 0.0000 5.1537 0.0000
# 4 0.0000 0.0000 0.0000 25.2872 0.0000 -1.3469
# 5 9.7549 -0.7838 5.1537 0.0000 35.9005 0.0000
# 6 0.0000 0.0000 0.0000 -1.3469 0.0000 34.6243
#
#
#
# Elastic Compliance Matrix: (Units=1/GPa)
#
#
# Indices 1 2 3 4 5 6 
#
# 1 0.009251 -0.002368 -0.002927 0.000000 -0.002145 0.000000
# 2 -0.002368 0.011966 -0.003850 0.000000 0.001457 0.000000
# 3 -0.002927 -0.003850 0.014046 0.000000 -0.001305 0.000000
# 4 0.000000 0.000000 0.000000 0.039628 0.000000 0.001541
# 5 -0.002145 0.001457 -0.001305 0.000000 0.028657 0.000000
# 6 0.000000 0.000000 0.000000 0.001541 0.000000 0.028941
#
#
# Mechanical properties :
#
#
# Convention : Reuss Voigt Hill
#
# Bulk Modulus (GPa) = 58.91906 60.92729 59.92318
# Shear Modulus (GPa) = 31.96194 33.32073 32.64133
#
# Velocity S-wave (km/s) = 4.05056 4.13576 4.09338
# Velocity P-wave (km/s) = 7.21948 7.35404 7.28707
#
# Compressibility (1/GPa) = 0.01697244
#
# Stress axis : x y z
#
# Youngs Moduli (GPa) = 108.09654 83.57037 71.19683
#
# Poissons Ratio (x) = 0.19787 0.20839
# Poissons Ratio (y) = 0.25594 0.27413
# Poissons Ratio (z) = 0.31640 0.32177
#
# Static dielectric constant tensor:
#      x y z
#    x 1.688870 0.000000 0.006330 
#    y 0.000000 1.726590 0.000000 
#    z 0.006330 0.000000 1.659210 
# 
# From -- ./inp_files/105766.got.cif
#   From: 2010.05.17/outbox.cif.g08.bks.cpg/sg15_53_cif.got.tgz:105766.got - 2010.06.03 18:47:42.
