data_PCOD9281588
_publ_section_title
;
Structure prediction by ZEFSAII (Michael W. Deem and Ramdas Pophale) SiO2 
 PCOD9281588
Probable space group: C 2/C
;
_chemical_formula_sum "Si O2"
_cell_formula_units_Z 36
_cell_length_a 24.030119
_cell_length_b 12.614445
_cell_length_c 11.063866
_cell_angle_alpha 90.000000
_cell_angle_beta 24.092813
_cell_angle_gamma 90.000000
_cell_volume 1369.055172
_symmetry_space_group_name_H-M "C 2/C"
_symmetry_group_IT_number 15
_symmetry_cell_setting 'monoclinic'
loop_
_space_group_symop_operation_xyz
x,y,z
-x,y,1/2-z
-x,-y,-z
x,-y,1/2+z
1/2+x,1/2+y,z
1/2-x,1/2+y,1/2-z
1/2-x,1/2-y,-z
1/2+x,1/2-y,1/2+z
loop_
_atom_site_type_symbol
_atom_site_label
_atom_site_fract_x
_atom_site_fract_y
_atom_site_fract_z
Si Si1 0.682519 0.673108 0.505002
Si Si2 0.615210 0.109597 0.189474
Si Si3 0.560477 0.341430 0.818679
Si Si4 0.500000 0.479533 0.250000
Si Si5 0.147529 0.377347 0.143931
O O1 0.683150 0.798261 0.473503
O O2 0.808571 0.627645 0.331189
O O3 0.629636 0.598279 0.504402
O O4 0.558521 0.672898 0.847867
O O5 0.455571 0.118382 0.536070
O O6 0.635290 0.990623 0.104747
O O7 0.512628 0.440217 0.835376
O O8 0.701539 0.366488 0.604701
O O9 0.595540 0.229983 0.682299
#
# Coordination Sequence:
#
# PCOD9281588 Si02
#       5
#     8   8   8   4   8
#     4  10  21  38  63  85 114 156 193 232 287 345
#     4   9  18  37  64  83 114 156 188 235 294 336
#     4  10  21  38  63  85 114 156 193 232 287 345
#     4  12  22  36  60  92 114 150 196 244 268 354
#     4   9  18  37  64  83 114 156 188 235 294 336
#
# _framework density 26.295508999999999
#
# number of rings (size 3 to 8) (size 9 to 14) (size 15 to 20)
#    0.000    2.222    2.222    0.667    0.000    0.000 
#    0.000   21.111    0.000    0.000    0.000    0.000 
#    0.000    0.000    0.000    0.000    0.000    0.000 
#
# Total GULP energy -100695.765918 kJ/mol
# GULP energy per Si atom -5594.209218 kJ/mol
# Density = 2.623566 g / cm^3
# Si number density = 26.295509 Si / 1000 Ang^3
#
#
#
# Elastic Constant Matrix: (Units=GPa)
#
#
# Indices 1 2 3 4 5 6 
#
# 1 76.4770 49.5431 33.3589 0.0000 -16.5995 0.0000
# 2 49.5431 230.7824 -0.3678 0.0000 -6.2482 0.0000
# 3 33.3589 -0.3678 127.9244 0.0000 -19.9825 0.0000
# 4 0.0000 0.0000 0.0000 29.9718 0.0000 -22.4085
# 5 -16.5995 -6.2482 -19.9825 0.0000 24.6582 0.0000
# 6 0.0000 0.0000 0.0000 -22.4085 0.0000 32.9929
#
#
#
# Elastic Compliance Matrix: (Units=1/GPa)
#
#
# Indices 1 2 3 4 5 6 
#
# 1 0.019088 -0.003861 -0.003588 0.000000 0.008963 0.000000
# 2 -0.003861 0.005149 0.000938 0.000000 -0.000534 0.000000
# 3 -0.003588 0.000938 0.009635 0.000000 0.005630 0.000000
# 4 0.000000 0.000000 0.000000 0.067787 0.000000 0.046040
# 5 0.008963 -0.000534 0.005630 0.000000 0.051015 0.000000
# 6 0.000000 0.000000 0.000000 0.046040 0.000000 0.061580
#
#
# Mechanical properties :
#
#
# Convention : Reuss Voigt Hill
#
# Bulk Modulus (GPa) = 47.96276 66.69469 57.32873
# Shear Modulus (GPa) = 21.34695 41.03456 31.19075
#
# Velocity S-wave (km/s) = 2.85232 3.95462 3.44781
# Velocity P-wave (km/s) = 5.39696 6.80225 6.13994
#
# Compressibility (1/GPa) = 0.02084951
#
# Stress axis : x y z
#
# Youngs Moduli (GPa) = 52.39004 194.21590 103.78796
#
# Poissons Ratio (x) = 0.74980 0.37244
# Poissons Ratio (y) = 0.20226 -0.09737
# Poissons Ratio (z) = 0.18800 -0.18220
#
# Static dielectric constant tensor:
#      x y z
#    x 2.078180 0.000000 0.036480 
#    y 0.000000 2.174320 0.000000 
#    z 0.036480 0.000000 2.006120 
# 
# From -- ./inp_files/95870.got.cif
#   From: 2010.05.17/outbox.cif.g08.bks.cpg/sg15_48_cif.got.tgz:95870.got - 2010.06.03 18:47:42.
