data_PCOD9281509
_publ_section_title
;
Structure prediction by ZEFSAII (Michael W. Deem and Ramdas Pophale) SiO2 
 PCOD9281509
Probable space group: C 2/C
;
_chemical_formula_sum "Si O2"
_cell_formula_units_Z 56
_cell_length_a 27.431236
_cell_length_b 7.779921
_cell_length_c 13.695141
_cell_angle_alpha 90.000000
_cell_angle_beta 68.539364
_cell_angle_gamma 90.000000
_cell_volume 2720.084451
_symmetry_space_group_name_H-M "C 2/C"
_symmetry_group_IT_number 15
_symmetry_cell_setting 'monoclinic'
loop_
_space_group_symop_operation_xyz
x,y,z
-x,y,1/2-z
-x,-y,-z
x,-y,1/2+z
1/2+x,1/2+y,z
1/2-x,1/2+y,1/2-z
1/2-x,1/2-y,-z
1/2+x,1/2-y,1/2+z
loop_
_atom_site_type_symbol
_atom_site_label
_atom_site_fract_x
_atom_site_fract_y
_atom_site_fract_z
Si Si1 0.916709 0.966912 0.040490
Si Si2 0.812708 0.114184 0.715028
Si Si3 0.550879 0.984412 0.394208
Si Si4 0.012815 0.869223 0.849534
Si Si5 0.863640 0.409090 0.796778
Si Si6 0.128457 0.672430 0.984597
Si Si7 0.198205 0.281641 0.255814
O O1 0.947860 0.010868 0.117698
O O2 0.861324 0.883795 0.104661
O O3 0.903647 0.148202 0.997685
O O4 0.957684 0.862780 0.946664
O O5 0.826565 0.257808 0.784081
O O6 0.758083 0.160848 0.704430
O O7 0.809806 0.920248 0.759822
O O8 0.539298 0.816733 0.336929
O O9 0.595448 0.956000 0.442165
O O10 0.500000 0.000000 0.500000
O O11 0.578920 0.111097 0.296543
O O12 0.000000 0.924922 0.750000
O O13 0.866165 0.393203 0.910675
O O14 0.838390 0.590472 0.780022
O O15 0.181027 0.699530 0.882562
#
# Coordination Sequence:
#
# PCOD9281509 Si02
#       7
#     8   8   8   8   8   8   8
#     4   9  21  41  59  94 130 164 214 263 314 373
#     4  11  21  42  68  92 130 172 206 265 322 376
#     4  10  22  40  59  90 129 161 209 267 309 374
#     4  10  21  38  62  90 127 169 206 261 314 377
#     4  11  23  41  68  92 124 178 208 256 328 381
#     4   9  22  41  61  91 132 165 211 266 313 376
#     4  10  22  44  64  94 134 160 214 270 315 376
#
# _framework density 20.587596999999999
#
# number of rings (size 3 to 8) (size 9 to 14) (size 15 to 20)
#    0.000    2.000    1.429    1.714    4.000    0.571 
#    0.000    3.571    0.000    0.000    0.000    0.000 
#    0.000    0.000    0.000    0.000    0.000    0.000 
#
# Total GULP energy -156218.462901 kJ/mol
# GULP energy per Si atom -5579.230818 kJ/mol
# Density = 2.054074 g / cm^3
# Si number density = 20.587597 Si / 1000 Ang^3
#
#
#
# Elastic Constant Matrix: (Units=GPa)
#
#
# Indices 1 2 3 4 5 6 
#
# 1 98.1475 17.9307 53.8757 0.0000 -20.8703 0.0000
# 2 17.9307 90.8825 21.1858 0.0000 0.0505 0.0000
# 3 53.8757 21.1858 70.4439 0.0000 7.8949 0.0000
# 4 0.0000 0.0000 0.0000 12.5533 0.0000 -14.4230
# 5 -20.8703 0.0505 7.8949 0.0000 38.1790 0.0000
# 6 0.0000 0.0000 0.0000 -14.4230 0.0000 24.4088
#
#
#
# Elastic Compliance Matrix: (Units=1/GPa)
#
#
# Indices 1 2 3 4 5 6 
#
# 1 0.026647 -0.000016 -0.022529 0.000000 0.019225 0.000000
# 2 -0.000016 0.011853 -0.003634 0.000000 0.000727 0.000000
# 3 -0.022529 -0.003634 0.034703 0.000000 -0.019487 0.000000
# 4 0.000000 0.000000 0.000000 0.248084 0.000000 0.146591
# 5 0.019225 0.000727 -0.019487 0.000000 0.040730 0.000000
# 6 0.000000 0.000000 0.000000 0.146591 0.000000 0.127588
#
#
# Mechanical properties :
#
#
# Convention : Reuss Voigt Hill
#
# Bulk Modulus (GPa) = 47.97501 49.49537 48.73519
# Shear Modulus (GPa) = 9.10894 26.12700 17.61797
#
# Velocity S-wave (km/s) = 2.10573 3.56626 2.92851
# Velocity P-wave (km/s) = 5.40977 6.40712 5.92945
#
# Compressibility (1/GPa) = 0.02084419
#
# Stress axis : x y z
#
# Youngs Moduli (GPa) = 37.52829 84.36606 28.81601
#
# Poissons Ratio (x) = 0.00136 0.64920
# Poissons Ratio (y) = 0.00061 0.10472
# Poissons Ratio (z) = 0.84548 0.30658
#
# Static dielectric constant tensor:
#      x y z
#    x 1.717820 0.000000 -0.045390 
#    y 0.000000 1.784890 0.000000 
#    z -0.045390 0.000000 1.748130 
# 
# From -- ./inp_files/125824.got.cif
#   From: 2010.05.17/outbox.cif.g08.bks.cpg/sg15_63_cif.got.tgz:125824.got - 2010.06.03 18:47:42.
