data_PCOD9281259
_publ_section_title
;
Structure prediction by ZEFSAII (Michael W. Deem and Ramdas Pophale) SiO2 
 PCOD9281259
Probable space group: C 2/C
;
_chemical_formula_sum "Si O2"
_cell_formula_units_Z 36
_cell_length_a 9.870452
_cell_length_b 25.145069
_cell_length_c 8.271464
_cell_angle_alpha 90.000000
_cell_angle_beta 56.584439
_cell_angle_gamma 90.000000
_cell_volume 1713.569800
_symmetry_space_group_name_H-M "C 2/C"
_symmetry_group_IT_number 15
_symmetry_cell_setting 'monoclinic'
loop_
_space_group_symop_operation_xyz
x,y,z
-x,y,1/2-z
-x,-y,-z
x,-y,1/2+z
1/2+x,1/2+y,z
1/2-x,1/2+y,1/2-z
1/2-x,1/2-y,-z
1/2+x,1/2-y,1/2+z
loop_
_atom_site_type_symbol
_atom_site_label
_atom_site_fract_x
_atom_site_fract_y
_atom_site_fract_z
Si Si1 0.259034 0.309919 0.313504
Si Si2 0.075171 0.432296 0.979378
Si Si3 0.000000 0.097915 0.750000
Si Si4 0.791895 0.535501 0.457604
Si Si5 0.500000 0.837623 0.250000
Si Si6 0.500000 0.218879 0.250000
O O1 0.376125 0.361311 0.243396
O O2 0.377143 0.259163 0.240652
O O3 0.127943 0.311604 0.549526
O O4 0.145122 0.306143 0.234208
O O5 0.146980 0.442306 0.754166
O O6 0.887127 0.442623 0.054223
O O7 0.162103 0.473664 0.044820
O O8 0.077405 0.375771 0.062030
O O9 0.110808 0.057082 0.578521
#
# Coordination Sequence:
#
# PCOD9281259 Si02
#       6
#     8   8   4   8   4   4
#     4  10  23  41  71  92 123 154 212 258 319 384
#     4  10  21  38  60  88 126 176 209 253 301 354
#     4  11  22  38  64  96 120 170 218 254 294 381
#     4  10  21  38  61  85 130 175 213 247 304 355
#     4  12  22  38  65 100 122 160 213 256 298 382
#     4   9  22  48  69  92 118 164 193 264 340 377
#
# _framework density 21.008773000000001
#
# number of rings (size 3 to 8) (size 9 to 14) (size 15 to 20)
#    0.000    1.778    2.222    2.667    3.111    1.778 
#    0.000    0.000    0.000    0.000    0.000    0.000 
#    0.000    0.000    0.000    0.000    0.000    0.000 
#
# Total GULP energy -100201.578925 kJ/mol
# GULP energy per Si atom -5566.754385 kJ/mol
# Density = 2.096096 g / cm^3
# Si number density = 21.008773 Si / 1000 Ang^3
#
#
#
# Elastic Constant Matrix: (Units=GPa)
#
#
# Indices 1 2 3 4 5 6 
#
# 1 142.0811 52.0321 48.9087 0.0000 -3.8840 0.0000
# 2 52.0321 57.1116 12.1694 0.0000 -3.4521 0.0000
# 3 48.9087 12.1694 91.6629 0.0000 -3.5400 0.0000
# 4 0.0000 0.0000 0.0000 -7.5007 0.0000 -10.6778
# 5 -3.8840 -3.4521 -3.5400 0.0000 37.1592 0.0000
# 6 0.0000 0.0000 0.0000 -10.6778 0.0000 34.4625
#
#
#
# Elastic Compliance Matrix: (Units=1/GPa)
#
#
# Indices 1 2 3 4 5 6 
#
# 1 0.012721 -0.010447 -0.005407 0.000000 -0.000156 0.000000
# 2 -0.010447 0.026677 0.002094 0.000000 0.001586 0.000000
# 3 -0.005407 0.002094 0.013552 0.000000 0.000920 0.000000
# 4 0.000000 0.000000 0.000000 -0.092514 0.000000 -0.028665
# 5 -0.000156 0.001586 0.000920 0.000000 0.027130 0.000000
# 6 0.000000 0.000000 0.000000 -0.028665 0.000000 0.020136
#
#
# Mechanical properties :
#
#
# Convention : Reuss Voigt Hill
#
# Bulk Modulus (GPa) = 39.32314 57.45289 48.38801
# Shear Modulus (GPa) = 114.42370 24.67389 69.54879
#
# Velocity S-wave (km/s) = 7.38803 3.43075 5.75991
# Velocity P-wave (km/s) = 9.56741 6.56505 8.20473
#
# Compressibility (1/GPa) = 0.02543032
#
# Stress axis : x y z
#
# Youngs Moduli (GPa) = 78.61097 37.48542 73.79032
#
# Poissons Ratio (x) = 0.39161 0.39895
# Poissons Ratio (y) = 0.82124 -0.15449
# Poissons Ratio (z) = 0.42501 -0.07848
#
# Static dielectric constant tensor:
#      x y z
#    x 1.782680 0.000000 -0.028520 
#    y 0.000000 1.822220 0.000000 
#    z -0.028520 0.000000 1.790820 
# 
# From -- ./inp_files/24352.got.cif
#   From: 2010.05.17/outbox.cif.g08.bks.cpg/sg15_13_cif.got.tgz:24352.got - 2010.06.03 18:47:42.
