data_PCOD9281151
_publ_section_title
;
Structure prediction by ZEFSAII (Michael W. Deem and Ramdas Pophale) SiO2 
 PCOD9281151
Probable space group: C 2/C
;
_chemical_formula_sum "Si O2"
_cell_formula_units_Z 60
_cell_length_a 15.078908
_cell_length_b 14.044373
_cell_length_c 17.101421
_cell_angle_alpha 90.000000
_cell_angle_beta 53.334446
_cell_angle_gamma 90.000000
_cell_volume 2905.037866
_symmetry_space_group_name_H-M "C 2/C"
_symmetry_group_IT_number 15
_symmetry_cell_setting 'monoclinic'
loop_
_space_group_symop_operation_xyz
x,y,z
-x,y,1/2-z
-x,-y,-z
x,-y,1/2+z
1/2+x,1/2+y,z
1/2-x,1/2+y,1/2-z
1/2-x,1/2-y,-z
1/2+x,1/2-y,1/2+z
loop_
_atom_site_type_symbol
_atom_site_label
_atom_site_fract_x
_atom_site_fract_y
_atom_site_fract_z
Si Si1 0.382803 0.724175 0.731944
Si Si2 0.834292 0.583532 0.897425
Si Si3 0.597358 0.242592 0.011272
Si Si4 0.454644 0.789464 0.443587
Si Si5 0.615693 0.613788 0.116980
Si Si6 0.000000 0.943369 0.250000
Si Si7 0.265042 0.256539 0.834499
Si Si8 0.303264 0.866203 0.903589
O O1 0.490120 0.736929 0.620647
O O2 0.405822 0.623539 0.761865
O O3 0.278426 0.740697 0.729863
O O4 0.369272 0.800253 0.808023
O O5 0.934031 0.619130 0.900068
O O6 0.821978 0.659892 0.834808
O O7 0.834387 0.474767 0.872630
O O8 0.723941 0.597009 0.007695
O O9 0.665123 0.164396 0.024765
O O10 0.555938 0.207244 0.949312
O O11 0.675387 0.334955 0.961854
O O12 0.453717 0.696565 0.389016
O O13 0.345246 0.774720 0.555042
O O14 0.553333 0.515152 0.159774
O O15 0.656611 0.656838 0.178839
#
# Coordination Sequence:
#
# PCOD9281151 Si02
#       8
#     8   8   8   8   8   4   8   8
#     4  11  22  39  57  84 123 153 190 241 296 345
#     4   9  18  36  61  86 111 150 195 234 294 353
#     4  10  21  38  59  83 118 154 194 240 288 341
#     4   8  17  37  60  83 114 147 187 245 295 343
#     4   9  19  35  58  86 113 145 194 243 289 344
#     4  12  22  34  60  82 120 156 196 246 290 340
#     4   8  18  37  59  82 116 150 182 242 299 346
#     4  11  22  35  62  83 119 156 195 238 288 350
#
# _framework density 20.653775
#
# number of rings (size 3 to 8) (size 9 to 14) (size 15 to 20)
#    0.000    2.400    1.333    2.400    1.867    3.733 
#    0.000    4.000   17.600    0.000    0.000    0.000 
#    0.000    0.000    0.000    0.000    0.000    0.000 
#
# Total GULP energy -167427.957806 kJ/mol
# GULP energy per Si atom -5580.931927 kJ/mol
# Density = 2.060677 g / cm^3
# Si number density = 20.653775 Si / 1000 Ang^3
#
#
#
# Elastic Constant Matrix: (Units=GPa)
#
#
# Indices 1 2 3 4 5 6 
#
# 1 118.1748 45.7935 34.2731 0.0000 36.9192 0.0000
# 2 45.7935 146.5941 22.5825 0.0000 14.3143 0.0000
# 3 34.2731 22.5825 62.6111 0.0000 -8.7275 0.0000
# 4 0.0000 0.0000 0.0000 15.1868 0.0000 -2.3353
# 5 36.9192 14.3143 -8.7275 0.0000 33.4098 0.0000
# 6 0.0000 0.0000 0.0000 -2.3353 0.0000 11.7263
#
#
#
# Elastic Compliance Matrix: (Units=1/GPa)
#
#
# Indices 1 2 3 4 5 6 
#
# 1 0.022471 -0.001884 -0.015536 0.000000 -0.028083 0.000000
# 2 -0.001884 0.007911 -0.002080 0.000000 -0.001851 0.000000
# 3 -0.015536 -0.002080 0.028792 0.000000 0.025580 0.000000
# 4 0.000000 0.000000 0.000000 0.067927 0.000000 0.013528
# 5 -0.028083 -0.001851 0.025580 0.000000 0.068439 0.000000
# 6 0.000000 0.000000 0.000000 0.013528 0.000000 0.087972
#
#
# Mechanical properties :
#
#
# Convention : Reuss Voigt Hill
#
# Bulk Modulus (GPa) = 49.56764 59.18649 54.37707
# Shear Modulus (GPa) = 15.18666 27.04665 21.11665
#
# Velocity S-wave (km/s) = 2.71458 3.62266 3.20099
# Velocity P-wave (km/s) = 5.82037 6.79831 6.32825
#
# Compressibility (1/GPa) = 0.02017445
#
# Stress axis : x y z
#
# Youngs Moduli (GPa) = 44.50143 126.40142 34.73233
#
# Poissons Ratio (x) = 0.23817 0.53959
# Poissons Ratio (y) = 0.08385 0.07224
# Poissons Ratio (z) = 0.69136 0.26292
#
# Static dielectric constant tensor:
#      x y z
#    x 1.767820 0.000000 -0.026490 
#    y 0.000000 1.686160 0.000000 
#    z -0.026490 0.000000 1.782750 
# 
# From -- ./inp_files/210622.got.cif
#   From: 2010.05.17/outbox.cif.g08.bks.cpg/sg15_106_cif.got.tgz:210622.got - 2010.06.03 18:47:42.
