data_PCOD9281109
_publ_section_title
;
Structure prediction by ZEFSAII (Michael W. Deem and Ramdas Pophale) SiO2 
 PCOD9281109
Probable space group: C 2/C
;
_chemical_formula_sum "Si O2"
_cell_formula_units_Z 40
_cell_length_a 23.393072
_cell_length_b 7.931471
_cell_length_c 27.711747
_cell_angle_alpha 90.000000
_cell_angle_beta 20.871882
_cell_angle_gamma 90.000000
_cell_volume 1831.874555
_symmetry_space_group_name_H-M "C 2/C"
_symmetry_group_IT_number 15
_symmetry_cell_setting 'monoclinic'
loop_
_space_group_symop_operation_xyz
x,y,z
-x,y,1/2-z
-x,-y,-z
x,-y,1/2+z
1/2+x,1/2+y,z
1/2-x,1/2+y,1/2-z
1/2-x,1/2-y,-z
1/2+x,1/2-y,1/2+z
loop_
_atom_site_type_symbol
_atom_site_label
_atom_site_fract_x
_atom_site_fract_y
_atom_site_fract_z
Si Si1 0.312764 0.390971 0.560730
Si Si2 0.327136 0.878887 0.402553
Si Si3 0.541420 0.886326 0.624002
Si Si4 0.425410 0.268147 0.074883
Si Si5 0.424098 0.911706 0.132994
O O1 0.277786 0.565364 0.560566
O O2 0.372862 0.259872 0.472987
O O3 0.447100 0.381498 0.496162
O O4 0.141143 0.337116 0.718333
O O5 0.500000 0.810556 0.250000
O O6 0.250000 0.750000 0.500000
O O7 0.369129 0.049505 0.399163
O O8 0.526252 0.045440 0.599758
O O9 0.250542 0.349362 0.213339
O O10 0.410559 0.090982 0.115891
O O11 0.495071 0.216625 0.968079
#
# Coordination Sequence:
#
# PCOD9281109 Si02
#       5
#     8   8   8   8   8
#     4  10  21  40  62  84 117 157 202 245 295 361
#     4  10  23  40  60  89 119 152 197 249 303 355
#     4  10  22  39  60  87 117 157 201 246 299 358
#     4  10  21  38  58  86 119 157 199 248 302 357
#     4  10  22  37  58  87 120 157 202 247 301 360
#
# _framework density 21.835556
#
# number of rings (size 3 to 8) (size 9 to 14) (size 15 to 20)
#    0.000    2.000    0.000    3.000    0.000    9.600 
#    0.000    0.000    0.000    0.000    0.000    0.000 
#    0.000    0.000    0.000    0.000    0.000    0.000 
#
# Total GULP energy -111877.425143 kJ/mol
# GULP energy per Si atom -5593.871257 kJ/mol
# Density = 2.178586 g / cm^3
# Si number density = 21.835556 Si / 1000 Ang^3
#
#
#
# Elastic Constant Matrix: (Units=GPa)
#
#
# Indices 1 2 3 4 5 6 
#
# 1 104.3872 31.0551 63.7728 0.0031 -3.6626 0.0008
# 2 31.0551 71.9461 68.7951 0.0112 1.3722 -0.0069
# 3 63.7728 68.7951 147.1815 0.0037 25.6628 -0.0026
# 4 0.0031 0.0112 0.0037 30.1493 -0.0070 16.1657
# 5 -3.6626 1.3722 25.6628 -0.0070 40.7088 0.0033
# 6 0.0008 -0.0069 -0.0026 16.1657 0.0033 41.4300
#
#
#
# Elastic Compliance Matrix: (Units=1/GPa)
#
#
# Indices 1 2 3 4 5 6 
#
# 1 0.014192 0.001195 -0.007778 0.000001 0.006140 -0.000002
# 2 0.001195 0.027367 -0.014793 -0.000010 0.008511 0.000007
# 3 -0.007778 -0.014793 0.019228 0.000001 -0.012322 -0.000001
# 4 0.000001 -0.000010 0.000001 0.041944 0.000008 -0.016366
# 5 0.006140 0.008511 -0.012322 0.000008 0.032598 -0.000005
# 6 -0.000002 0.000007 -0.000001 -0.016366 -0.000005 0.030523
#
#
# Mechanical properties :
#
#
# Convention : Reuss Voigt Hill
#
# Bulk Modulus (GPa) = 55.45522 72.30675 63.88098
# Shear Modulus (GPa) = 23.29759 33.11707 28.20733
#
# Velocity S-wave (km/s) = 3.26997 3.89865 3.59807
# Velocity P-wave (km/s) = 6.30150 7.31110 6.82499
#
# Compressibility (1/GPa) = 0.01803257
#
# Stress axis : x y z
#
# Youngs Moduli (GPa) = 70.46444 36.54088 52.00865
#
# Poissons Ratio (x) = -0.04365 0.40452
# Poissons Ratio (y) = -0.08417 0.76937
# Poissons Ratio (z) = 0.54807 0.54055
#
# Static dielectric constant tensor:
#      x y z
#    x 1.569080 -0.000080 0.056950 
#    y -0.000080 1.785180 0.000020 
#    z 0.056950 0.000020 1.727960 
# 
# From -- ./inp_files/318462.got.cif
#   From: 2010.05.17/outbox.cif.g08.bks.cpg/sg15_160_cif.got.tgz:318462.got - 2010.06.03 18:47:42.
