data_PCOD9281177
_publ_section_title
;
Structure prediction by ZEFSAII (Michael W. Deem and Ramdas Pophale) SiO2 
 PCOD9281177
Probable space group: C 2/C
;
_chemical_formula_sum "Si O2"
_cell_formula_units_Z 36
_cell_length_a 16.988168
_cell_length_b 22.512352
_cell_length_c 8.874072
_cell_angle_alpha 90.000000
_cell_angle_beta 153.098180
_cell_angle_gamma 90.000000
_cell_volume 1535.583625
_symmetry_space_group_name_H-M "C 2/C"
_symmetry_group_IT_number 15
_symmetry_cell_setting 'monoclinic'
loop_
_space_group_symop_operation_xyz
x,y,z
-x,y,1/2-z
-x,-y,-z
x,-y,1/2+z
1/2+x,1/2+y,z
1/2-x,1/2+y,1/2-z
1/2-x,1/2-y,-z
1/2+x,1/2-y,1/2+z
loop_
_atom_site_type_symbol
_atom_site_label
_atom_site_fract_x
_atom_site_fract_y
_atom_site_fract_z
Si Si1 0.000000 0.251447 0.750000
Si Si2 0.241703 0.343983 0.764771
Si Si3 0.628345 0.167020 0.742176
Si Si4 0.000000 0.950649 0.250000
Si Si5 0.246299 0.452311 0.413562
Si Si6 0.500000 0.997353 0.250000
O O1 0.850199 0.204709 0.543548
O O2 0.917180 0.290084 0.474109
O O3 0.193719 0.314481 0.521008
O O4 0.064647 0.358702 0.549066
O O5 0.357091 0.403853 0.943231
O O6 0.774237 0.117900 0.950744
O O7 0.104702 0.997794 0.325214
O O8 0.115512 0.462097 0.328424
O O9 0.137321 0.465343 0.077853
#
# Coordination Sequence:
#
# PCOD9281177 Si02
#       6
#     4   8   8   4   8   4
#     4  11  23  42  68  96 122 163 225 276 312 379
#     4  10  23  43  66  93 131 173 210 265 331 383
#     4  11  22  41  66  93 128 171 215 262 326 391
#     4  11  24  40  65 100 137 171 218 268 318 385
#     4  11  22  39  63  93 130 172 214 263 321 384
#     4  10  21  38  59  86 125 174 217 252 318 390
#
# _framework density 23.443856
#
# number of rings (size 3 to 8) (size 9 to 14) (size 15 to 20)
#    0.000    1.333    0.000    7.333    0.000    3.556 
#    0.000    6.667    0.000    0.000    0.000    0.000 
#    0.000    0.000    0.000    0.000    0.000    0.000 
#
# Total GULP energy -100309.432191 kJ/mol
# GULP energy per Si atom -5572.746233 kJ/mol
# Density = 2.339050 g / cm^3
# Si number density = 23.443856 Si / 1000 Ang^3
#
#
#
# Elastic Constant Matrix: (Units=GPa)
#
#
# Indices 1 2 3 4 5 6 
#
# 1 69.2048 54.4748 18.5316 0.0000 11.4182 0.0000
# 2 54.4748 132.9220 48.1403 0.0000 -3.6055 0.0000
# 3 18.5316 48.1403 84.4349 0.0000 -7.7783 0.0000
# 4 0.0000 0.0000 0.0000 57.2375 0.0000 12.8892
# 5 11.4182 -3.6055 -7.7783 0.0000 31.7253 0.0000
# 6 0.0000 0.0000 0.0000 12.8892 0.0000 22.9404
#
#
#
# Elastic Compliance Matrix: (Units=1/GPa)
#
#
# Indices 1 2 3 4 5 6 
#
# 1 0.024044 -0.009932 -0.000528 0.000000 -0.009912 0.000000
# 2 -0.009932 0.013585 -0.005212 0.000000 0.003841 0.000000
# 3 -0.000528 -0.005212 0.015238 0.000000 0.003334 0.000000
# 4 0.000000 0.000000 0.000000 0.020002 0.000000 -0.011238
# 5 -0.009912 0.003841 0.003334 0.000000 0.036342 0.000000
# 6 0.000000 0.000000 0.000000 -0.011238 0.000000 0.049905
#
#
# Mechanical properties :
#
#
# Convention : Reuss Voigt Hill
#
# Bulk Modulus (GPa) = 46.45841 58.76167 52.61004
# Shear Modulus (GPa) = 25.29928 33.40833 29.35381
#
# Velocity S-wave (km/s) = 3.28860 3.77906 3.54233
# Velocity P-wave (km/s) = 5.85489 6.64537 6.26262
#
# Compressibility (1/GPa) = 0.02152463
#
# Stress axis : x y z
#
# Youngs Moduli (GPa) = 41.58994 73.60913 65.62546
#
# Poissons Ratio (x) = 0.73106 0.03463
# Poissons Ratio (y) = 0.41306 0.34204
# Poissons Ratio (z) = 0.02195 0.38365
#
# Static dielectric constant tensor:
#      x y z
#    x 1.893190 0.000000 -0.013890 
#    y 0.000000 1.942420 0.000000 
#    z -0.013890 0.000000 1.907110 
# 
# From -- ./inp_files/50780.got.cif
#   From: 2010.05.17/outbox.cif.g08.bks.cpg/sg15_26_cif.got.tgz:50780.got - 2010.06.03 18:47:42.
