data_PCOD9281542
_publ_section_title
;
Structure prediction by ZEFSAII (Michael W. Deem and Ramdas Pophale) SiO2 
 PCOD9281542
Probable space group: C 2/C
;
_chemical_formula_sum "Si O2"
_cell_formula_units_Z 40
_cell_length_a 22.065042
_cell_length_b 8.422686
_cell_length_c 14.497460
_cell_angle_alpha 90.000000
_cell_angle_beta 141.377151
_cell_angle_gamma 90.000000
_cell_volume 1681.763554
_symmetry_space_group_name_H-M "C 2/C"
_symmetry_group_IT_number 15
_symmetry_cell_setting 'monoclinic'
loop_
_space_group_symop_operation_xyz
x,y,z
-x,y,1/2-z
-x,-y,-z
x,-y,1/2+z
1/2+x,1/2+y,z
1/2-x,1/2+y,1/2-z
1/2-x,1/2-y,-z
1/2+x,1/2-y,1/2+z
loop_
_atom_site_type_symbol
_atom_site_label
_atom_site_fract_x
_atom_site_fract_y
_atom_site_fract_z
Si Si1 0.394999 0.886556 0.671105
Si Si2 0.462427 0.650237 0.397500
Si Si3 0.153789 0.431896 0.202642
Si Si4 0.187946 0.076091 0.844884
Si Si5 0.665120 0.746472 0.617829
O O1 0.500000 0.902334 0.750000
O O2 0.299333 0.948530 0.504335
O O3 0.366067 0.701783 0.652589
O O4 0.392232 0.979958 0.764617
O O5 0.500000 0.500000 0.500000
O O6 0.419975 0.790328 0.411485
O O7 0.374880 0.583142 0.233289
O O8 0.556094 0.714125 0.456190
O O9 0.254145 0.342407 0.345387
O O10 0.174392 0.568446 0.152677
O O11 0.180978 0.163108 0.737138
#
# Coordination Sequence:
#
# PCOD9281542 Si02
#       5
#     8   8   8   8   8
#     4  10  23  42  64  93 133 176 215 263 324 390
#     4  10  21  38  62  93 127 164 210 267 324 377
#     4  11  23  40  65  96 129 169 218 266 324 385
#     4   9  21  40  63  92 127 171 217 263 324 388
#     4  10  21  38  63  93 127 164 211 271 322 380
#
# _framework density 23.784555000000001
#
# number of rings (size 3 to 8) (size 9 to 14) (size 15 to 20)
#    0.000    2.000    0.000    3.000    0.000   13.600 
#    0.000    1.000    0.000    0.000    0.000    0.000 
#    0.000    0.000    0.000    0.000    0.000    0.000 
#
# Total GULP energy -111774.096909 kJ/mol
# GULP energy per Si atom -5588.704845 kJ/mol
# Density = 2.373042 g / cm^3
# Si number density = 23.784555 Si / 1000 Ang^3
#
#
#
# Elastic Constant Matrix: (Units=GPa)
#
#
# Indices 1 2 3 4 5 6 
#
# 1 83.1542 47.3159 32.2881 0.0000 36.7024 0.0000
# 2 47.3159 152.8234 65.9889 0.0000 37.5850 0.0000
# 3 32.2881 65.9889 130.7117 0.0000 42.5324 0.0000
# 4 0.0000 0.0000 0.0000 43.8928 0.0000 13.3832
# 5 36.7024 37.5850 42.5324 0.0000 51.2719 0.0000
# 6 0.0000 0.0000 0.0000 13.3832 0.0000 27.2408
#
#
#
# Elastic Compliance Matrix: (Units=1/GPa)
#
#
# Indices 1 2 3 4 5 6 
#
# 1 0.018732 -0.003285 0.000837 0.000000 -0.011695 0.000000
# 2 -0.003285 0.009459 -0.003387 0.000000 -0.001773 0.000000
# 3 0.000837 -0.003387 0.011698 0.000000 -0.007820 0.000000
# 4 0.000000 0.000000 0.000000 0.026797 0.000000 -0.013165
# 5 -0.011695 -0.001773 -0.007820 0.000000 0.035663 0.000000
# 6 0.000000 0.000000 0.000000 -0.013165 0.000000 0.043178
#
#
# Mechanical properties :
#
#
# Convention : Reuss Voigt Hill
#
# Bulk Modulus (GPa) = 35.43666 73.09724 54.26695
# Shear Modulus (GPa) = 30.01143 39.22084 34.61614
#
# Velocity S-wave (km/s) = 3.55604 4.06520 3.81911
# Velocity P-wave (km/s) = 5.63843 7.26872 6.50485
#
# Compressibility (1/GPa) = 0.02821936
#
# Stress axis : x y z
#
# Youngs Moduli (GPa) = 53.38446 105.71916 85.48209
#
# Poissons Ratio (x) = 0.34724 -0.07152
# Poissons Ratio (y) = 0.17535 0.28953
# Poissons Ratio (z) = -0.04466 0.35808
#
# Static dielectric constant tensor:
#      x y z
#    x 1.936690 0.000000 -0.003660 
#    y 0.000000 1.924600 0.000000 
#    z -0.003660 0.000000 1.926550 
# 
# From -- ./inp_files/218812.got.cif
#   From: 2010.05.17/outbox.cif.g08.bks.cpg/sg15_110_cif.got.tgz:218812.got - 2010.06.03 18:47:42.
