data_PCOD9281638
_publ_section_title
;
Structure prediction by ZEFSAII (Michael W. Deem and Ramdas Pophale) SiO2 
 PCOD9281638
Probable space group: C 2/C
;
_chemical_formula_sum "Si O2"
_cell_formula_units_Z 60
_cell_length_a 21.948563
_cell_length_b 23.481846
_cell_length_c 8.492624
_cell_angle_alpha 90.000000
_cell_angle_beta 137.700485
_cell_angle_gamma 90.000000
_cell_volume 2945.773310
_symmetry_space_group_name_H-M "C 2/C"
_symmetry_group_IT_number 15
_symmetry_cell_setting 'monoclinic'
loop_
_space_group_symop_operation_xyz
x,y,z
-x,y,1/2-z
-x,-y,-z
x,-y,1/2+z
1/2+x,1/2+y,z
1/2-x,1/2+y,1/2-z
1/2-x,1/2-y,-z
1/2+x,1/2-y,1/2+z
loop_
_atom_site_type_symbol
_atom_site_label
_atom_site_fract_x
_atom_site_fract_y
_atom_site_fract_z
Si Si1 0.694928 0.799940 0.976956
Si Si2 0.089581 0.763060 0.533147
Si Si3 0.497247 0.176821 0.560957
Si Si4 0.500000 0.430964 0.750000
Si Si5 0.939365 0.890867 0.971974
Si Si6 0.171173 0.985599 0.594942
Si Si7 0.523336 0.939389 0.612306
Si Si8 0.234576 0.427273 0.020026
O O1 0.664665 0.773065 0.085033
O O2 0.602013 0.810558 0.701632
O O3 0.747799 0.860292 0.085368
O O4 0.750000 0.750000 0.000000
O O5 0.105956 0.828724 0.603627
O O6 0.000000 0.763045 0.250000
O O7 0.061739 0.727436 0.630777
O O8 0.527212 0.115544 0.552919
O O9 0.500000 0.173045 0.750000
O O10 0.507149 0.398151 0.593371
O O11 0.413676 0.472399 0.589226
O O12 0.000000 0.897072 0.250000
O O13 0.863584 0.939592 0.843986
O O14 0.203885 0.950096 0.505901
O O15 0.247476 0.028255 0.805057
O O16 0.500000 0.938919 0.750000
O O17 0.629140 0.931297 0.778785
O O18 0.500000 0.000000 0.500000
#
# Coordination Sequence:
#
# PCOD9281638 Si02
#       8
#     8   8   8   4   8   8   8   8
#     4  10  21  43  64  88 124 173 211 268 337 391
#     4   9  20  39  64  90 121 165 215 266 323 396
#     4  10  21  38  63  92 119 157 214 268 317 394
#     4  12  24  40  64  96 140 176 226 276 328 400
#     4  11  22  39  65  95 133 181 220 272 335 401
#     4  12  22  41  58  96 133 173 222 271 331 399
#     4  11  22  41  65  93 124 165 213 271 342 404
#     4  11  24  38  65  92 128 173 217 274 335 402
#
# _framework density 20.368165999999999
#
# number of rings (size 3 to 8) (size 9 to 14) (size 15 to 20)
#    0.000    1.333    2.000    5.200    0.933    3.200 
#    0.000    0.667    0.000    0.000    0.000    0.000 
#    0.000    0.000    0.000    0.000    0.000    0.000 
#
# Total GULP energy -167404.041343 kJ/mol
# GULP energy per Si atom -5580.134711 kJ/mol
# Density = 2.032181 g / cm^3
# Si number density = 20.368166 Si / 1000 Ang^3
#
#
#
# Elastic Constant Matrix: (Units=GPa)
#
#
# Indices 1 2 3 4 5 6 
#
# 1 110.3040 51.8419 19.0147 0.0000 -33.6587 0.0000
# 2 51.8419 193.2430 33.5595 0.0000 -19.5738 0.0000
# 3 19.0147 33.5595 16.8401 0.0000 -16.9613 0.0000
# 4 0.0000 0.0000 0.0000 20.1513 0.0000 -0.2795
# 5 -33.6587 -19.5738 -16.9613 0.0000 38.1632 0.0000
# 6 0.0000 0.0000 0.0000 -0.2795 0.0000 51.0369
#
#
#
# Elastic Compliance Matrix: (Units=1/GPa)
#
#
# Indices 1 2 3 4 5 6 
#
# 1 0.013509 -0.002747 0.001451 0.000000 0.011151 0.000000
# 2 -0.002747 0.009123 -0.023184 0.000000 -0.008047 0.000000
# 3 0.001451 -0.023184 0.168835 0.000000 0.064426 0.000000
# 4 0.000000 0.000000 0.000000 0.049628 0.000000 0.000272
# 5 0.011151 -0.008047 0.064426 0.000000 0.060544 0.000000
# 6 0.000000 0.000000 0.000000 0.000272 0.000000 0.019595
#
#
# Mechanical properties :
#
#
# Convention : Reuss Voigt Hill
#
# Bulk Modulus (GPa) = 7.01718 58.80216 32.90967
# Shear Modulus (GPa) = 11.97041 36.26836 24.11938
#
# Velocity S-wave (km/s) = 2.42689 4.22434 3.44491
# Velocity P-wave (km/s) = 3.36239 7.26125 5.65824
#
# Compressibility (1/GPa) = 0.14250730
#
# Stress axis : x y z
#
# Youngs Moduli (GPa) = 74.02324 109.61504 5.92294
#
# Poissons Ratio (x) = 0.30108 -0.00859
# Poissons Ratio (y) = 0.20332 0.13732
# Poissons Ratio (z) = -0.10741 2.54134
#
# Static dielectric constant tensor:
#      x y z
#    x 1.723910 0.000000 -0.013590 
#    y 0.000000 1.722920 0.000000 
#    z -0.013590 0.000000 1.742160 
# 
# From -- ./inp_files/58096.got.cif
#   From: 2010.05.17/outbox.cif.g08.bks.cpg/sg15_30_cif.got.tgz:58096.got - 2010.06.03 18:47:42.
