data_PCOD9281103
_publ_section_title
;
Structure prediction by ZEFSAII (Michael W. Deem and Ramdas Pophale) SiO2 
 PCOD9281103
Probable space group: C 2/C
;
_chemical_formula_sum "Si O2"
_cell_formula_units_Z 60
_cell_length_a 26.517262
_cell_length_b 17.297266
_cell_length_c 8.897174
_cell_angle_alpha 90.000000
_cell_angle_beta 55.447048
_cell_angle_gamma 90.000000
_cell_volume 3361.056525
_symmetry_space_group_name_H-M "C 2/C"
_symmetry_group_IT_number 15
_symmetry_cell_setting 'monoclinic'
loop_
_space_group_symop_operation_xyz
x,y,z
-x,y,1/2-z
-x,-y,-z
x,-y,1/2+z
1/2+x,1/2+y,z
1/2-x,1/2+y,1/2-z
1/2-x,1/2-y,-z
1/2+x,1/2-y,1/2+z
loop_
_atom_site_type_symbol
_atom_site_label
_atom_site_fract_x
_atom_site_fract_y
_atom_site_fract_z
Si Si1 0.370742 0.774389 0.448687
Si Si2 0.274563 0.459480 0.505439
Si Si3 0.005572 0.908966 0.013177
Si Si4 0.731912 0.694341 0.671338
Si Si5 0.500000 0.294809 0.750000
Si Si6 0.678378 0.270984 0.787564
Si Si7 0.893468 0.891328 0.403798
Si Si8 0.778520 0.401278 0.595988
O O1 0.326631 0.728290 0.640465
O O2 0.440301 0.757915 0.377458
O O3 0.360313 0.745153 0.295008
O O4 0.345433 0.862499 0.483641
O O5 0.277117 0.390758 0.378433
O O6 0.344696 0.459266 0.449772
O O7 0.234921 0.433298 0.715012
O O8 0.244269 0.534162 0.482075
O O9 0.017210 0.854006 0.853849
O O10 0.061616 0.905261 0.033500
O O11 0.940455 0.880829 0.189194
O O12 0.000000 0.000000 0.000000
O O13 0.750000 0.750000 0.500000
O O14 0.788005 0.698107 0.694681
O O15 0.732806 0.329025 0.648956
O O16 0.643559 0.315974 0.980287
#
# Coordination Sequence:
#
# PCOD9281103 Si02
#       8
#     8   8   8   8   4   8   8   8
#     4  11  23  41  60  89 124 157 215 250 296 379
#     4  11  23  36  60  91 117 160 194 252 326 355
#     4  11  24  38  53  85 125 168 201 243 285 368
#     4  11  19  38  61  90 118 157 191 258 310 365
#     4  12  24  38  68  86 116 182 202 250 310 344
#     4  10  21  38  58  85 121 155 197 250 303 355
#     4  10  21  39  53  80 127 156 205 237 282 373
#     4  10  23  37  58  90 121 152 201 254 308 372
#
# _framework density 17.851528999999999
#
# number of rings (size 3 to 8) (size 9 to 14) (size 15 to 20)
#    0.000    1.333    5.333    3.200    7.467    1.067 
#    2.400    0.000    0.000    0.800    0.000    0.000 
#    0.000    0.000    0.000    0.000    0.000    0.000 
#
# Total GULP energy -167268.321202 kJ/mol
# GULP energy per Si atom -5575.610707 kJ/mol
# Density = 1.781090 g / cm^3
# Si number density = 17.851529 Si / 1000 Ang^3
#
#
#
# Elastic Constant Matrix: (Units=GPa)
#
#
# Indices 1 2 3 4 5 6 
#
# 1 65.4903 27.8195 36.9931 0.0000 -18.7816 0.0000
# 2 27.8195 61.3205 27.6238 0.0000 -8.1597 0.0000
# 3 36.9931 27.6238 69.8435 0.0000 -3.0036 0.0000
# 4 0.0000 0.0000 0.0000 4.0526 0.0000 5.0495
# 5 -18.7816 -8.1597 -3.0036 0.0000 27.9421 0.0000
# 6 0.0000 0.0000 0.0000 5.0495 0.0000 38.0293
#
#
#
# Elastic Compliance Matrix: (Units=1/GPa)
#
#
# Indices 1 2 3 4 5 6 
#
# 1 0.029717 -0.005424 -0.012863 0.000000 0.017008 0.000000
# 2 -0.005424 0.021546 -0.005561 0.000000 0.002048 0.000000
# 3 -0.012863 -0.005561 0.022995 0.000000 -0.007798 0.000000
# 4 0.000000 0.000000 0.000000 0.295669 0.000000 -0.039259
# 5 0.017008 0.002048 -0.007798 0.000000 0.046981 0.000000
# 6 0.000000 0.000000 0.000000 -0.039259 0.000000 0.031508
#
#
# Mechanical properties :
#
#
# Convention : Reuss Voigt Hill
#
# Bulk Modulus (GPa) = 37.64771 42.39193 40.01982
# Shear Modulus (GPa) = 9.90167 20.95266 15.42716
#
# Velocity S-wave (km/s) = 2.35769 3.42967 2.94290
# Velocity P-wave (km/s) = 5.34292 6.28347 5.83219
#
# Compressibility (1/GPa) = 0.02656204
#
# Stress axis : x y z
#
# Youngs Moduli (GPa) = 33.65058 46.41219 43.48813
#
# Poissons Ratio (x) = 0.25174 0.55940
# Poissons Ratio (y) = 0.18252 0.24183
# Poissons Ratio (z) = 0.43286 0.25808
#
# Static dielectric constant tensor:
#      x y z
#    x 1.654070 0.000000 0.021950 
#    y 0.000000 1.672220 0.000000 
#    z 0.021950 0.000000 1.634480 
# 
# From -- ./inp_files/62723.got.cif
#   From: 2010.05.17/outbox.cif.g08.bks.cpg/sg15_32_cif.got.tgz:62723.got - 2010.06.03 18:47:42.
