data_PCOD9281501
_publ_section_title
;
Structure prediction by ZEFSAII (Michael W. Deem and Ramdas Pophale) SiO2 
 PCOD9281501
Probable space group: C 2/C
;
_chemical_formula_sum "Si O2"
_cell_formula_units_Z 32
_cell_length_a 8.255995
_cell_length_b 19.689327
_cell_length_c 9.670006
_cell_angle_alpha 90.000000
_cell_angle_beta 117.851361
_cell_angle_gamma 90.000000
_cell_volume 1389.821893
_symmetry_space_group_name_H-M "C 2/C"
_symmetry_group_IT_number 15
_symmetry_cell_setting 'monoclinic'
loop_
_space_group_symop_operation_xyz
x,y,z
-x,y,1/2-z
-x,-y,-z
x,-y,1/2+z
1/2+x,1/2+y,z
1/2-x,1/2+y,1/2-z
1/2-x,1/2-y,-z
1/2+x,1/2-y,1/2+z
loop_
_atom_site_type_symbol
_atom_site_label
_atom_site_fract_x
_atom_site_fract_y
_atom_site_fract_z
Si Si1 0.536136 0.333673 0.561637
Si Si2 0.303277 0.535539 0.408522
Si Si3 0.793988 0.576481 0.441671
Si Si4 0.895624 0.297599 0.852423
O O1 0.659818 0.387737 0.524435
O O2 0.377959 0.380774 0.564190
O O3 0.680810 0.301519 0.726688
O O4 0.448255 0.272759 0.442737
O O5 0.500000 0.500000 0.500000
O O6 0.253156 0.545217 0.227695
O O7 0.170301 0.486330 0.441661
O O8 0.935098 0.637135 0.465506
O O9 0.000000 0.304366 0.750000
#
# Coordination Sequence:
#
# PCOD9281501 Si02
#       4
#     8   8   8   8
#     4  10  21  38  62  90 123 163 209 258 309 371
#     4   9  17  34  59  89 116 157 209 254 297 368
#     4  10  21  38  63  90 123 163 212 259 306 370
#     4  11  22  38  59  93 129 161 202 261 316 371
#
# _framework density 23.024533000000002
#
# number of rings (size 3 to 8) (size 9 to 14) (size 15 to 20)
#    0.000    2.000    0.000    8.250    0.000    4.000 
#    0.000    5.000    0.000   18.000    0.000    0.000 
#    0.000    0.000    0.000    0.000    0.000    0.000 
#
# Total GULP energy -89255.568330 kJ/mol
# GULP energy per Si atom -5578.473021 kJ/mol
# Density = 2.297213 g / cm^3
# Si number density = 23.024533 Si / 1000 Ang^3
#
#
#
# Elastic Constant Matrix: (Units=GPa)
#
#
# Indices 1 2 3 4 5 6 
#
# 1 85.4784 61.4309 43.4605 0.0000 -17.5492 0.0000
# 2 61.4309 240.1722 94.5572 0.0000 -24.7750 0.0000
# 3 43.4605 94.5572 50.2582 0.0000 -17.1635 0.0000
# 4 0.0000 0.0000 0.0000 48.5886 0.0000 -11.0918
# 5 -17.5492 -24.7750 -17.1635 0.0000 35.0297 0.0000
# 6 0.0000 0.0000 0.0000 -11.0918 0.0000 27.6431
#
#
#
# Elastic Compliance Matrix: (Units=1/GPa)
#
#
# Indices 1 2 3 4 5 6 
#
# 1 0.024241 0.007891 -0.035735 0.000000 0.000216 0.000000
# 2 0.007891 0.019143 -0.044275 0.000000 -0.004201 0.000000
# 3 -0.035735 -0.044275 0.140862 0.000000 0.019802 0.000000
# 4 0.000000 0.000000 0.000000 0.022656 0.000000 0.009091
# 5 0.000216 -0.004201 0.019802 0.000000 0.035387 0.000000
# 6 0.000000 0.000000 0.000000 0.009091 0.000000 0.039823
#
#
# Mechanical properties :
#
#
# Convention : Reuss Voigt Hill
#
# Bulk Modulus (GPa) = 24.99490 86.08956 55.54223
# Shear Modulus (GPa) = 11.37174 34.01630 22.69402
#
# Velocity S-wave (km/s) = 2.22479 3.84786 3.14290
# Velocity P-wave (km/s) = 4.18078 7.56392 6.11113
#
# Compressibility (1/GPa) = 0.04000817
#
# Stress axis : x y z
#
# Youngs Moduli (GPa) = 41.25205 52.23726 7.09916
#
# Poissons Ratio (x) = -0.41220 0.25369
# Poissons Ratio (y) = -0.32552 0.31432
# Poissons Ratio (z) = 1.47413 2.31282
#
# Static dielectric constant tensor:
#      x y z
#    x 2.186620 0.000000 0.068480 
#    y 0.000000 1.904160 0.000000 
#    z 0.068480 0.000000 1.891060 
# 
# From -- ./inp_files/76184.got.cif
#   From: 2010.05.17/outbox.cif.g08.bks.cpg/sg15_39_cif.got.tgz:76184.got - 2010.06.03 18:47:42.
