data_PCOD9281200
_publ_section_title
;
Structure prediction by ZEFSAII (Michael W. Deem and Ramdas Pophale) SiO2 
 PCOD9281200
Probable space group: C 2/C
;
_chemical_formula_sum "Si O2"
_cell_formula_units_Z 56
_cell_length_a 8.957121
_cell_length_b 28.140885
_cell_length_c 20.333525
_cell_angle_alpha 90.000000
_cell_angle_beta 150.433741
_cell_angle_gamma 90.000000
_cell_volume 2528.972988
_symmetry_space_group_name_H-M "C 2/C"
_symmetry_group_IT_number 15
_symmetry_cell_setting 'monoclinic'
loop_
_space_group_symop_operation_xyz
x,y,z
-x,y,1/2-z
-x,-y,-z
x,-y,1/2+z
1/2+x,1/2+y,z
1/2-x,1/2+y,1/2-z
1/2-x,1/2-y,-z
1/2+x,1/2-y,1/2+z
loop_
_atom_site_type_symbol
_atom_site_label
_atom_site_fract_x
_atom_site_fract_y
_atom_site_fract_z
Si Si1 0.293710 0.116547 0.392509
Si Si2 0.637170 0.962948 0.103679
Si Si3 0.210276 0.327871 0.952139
Si Si4 0.387273 0.730073 0.635285
Si Si5 0.292014 0.858296 0.107064
Si Si6 0.813521 0.527876 0.613934
Si Si7 0.675382 0.201211 0.008577
O O1 0.496769 0.086206 0.520949
O O2 0.509140 0.134646 0.415301
O O3 0.160369 0.161329 0.383472
O O4 0.000000 0.090603 0.250000
O O5 0.503588 0.981316 0.121344
O O6 0.000000 0.959346 0.250000
O O7 0.500000 0.000000 0.000000
O O8 0.432711 0.304391 0.092164
O O9 0.440155 0.345215 0.984720
O O10 0.026001 0.283410 0.850727
O O11 0.500000 0.715629 0.750000
O O12 0.033111 0.723650 0.513586
O O13 0.500000 0.846972 0.250000
O O14 0.282493 0.915138 0.098701
O O15 0.413620 0.831412 0.088916
O O16 0.500000 0.500000 0.500000
O O17 0.000000 0.515397 0.750000
O O18 0.750000 0.250000 0.000000
#
# Coordination Sequence:
#
# PCOD9281200 Si02
#       7
#     8   8   8   8   8   8   8
#     4  11  27  45  69 104 150 192 252 298 367 442
#     4  12  27  50  83 113 151 193 241 302 381 460
#     4  10  23  39  60  95 132 185 233 297 345 423
#     4  10  21  38  59  89 131 180 243 288 357 409
#     4  11  23  41  69 100 138 180 242 292 369 431
#     4  11  26  49  77 111 145 182 237 303 367 445
#     4  11  22  41  64  96 142 190 246 303 358 427
#
# _framework density 22.143376
#
# number of rings (size 3 to 8) (size 9 to 14) (size 15 to 20)
#    0.000    1.143    2.857    2.143    8.000    2.857 
#    0.000    0.000    0.000    0.000    0.000    0.000 
#    0.000    0.000    0.000    0.000    0.000    0.000 
#
# Total GULP energy -155915.037527 kJ/mol
# GULP energy per Si atom -5568.394197 kJ/mol
# Density = 2.209298 g / cm^3
# Si number density = 22.143376 Si / 1000 Ang^3
#
#
#
# Elastic Constant Matrix: (Units=GPa)
#
#
# Indices 1 2 3 4 5 6 
#
# 1 140.5640 34.4930 45.8584 0.0021 -2.8798 -0.0010
# 2 34.4930 69.7140 47.6024 0.0062 5.8316 -0.0078
# 3 45.8584 47.6024 109.8537 -0.0070 3.4938 0.0212
# 4 0.0021 0.0062 -0.0070 -14.9076 0.0047 15.0829
# 5 -2.8798 5.8316 3.4938 0.0047 29.8257 -0.0057
# 6 -0.0010 -0.0078 0.0212 15.0829 -0.0057 21.8260
#
#
#
# Elastic Compliance Matrix: (Units=1/GPa)
#
#
# Indices 1 2 3 4 5 6 
#
# 1 0.008622 -0.002714 -0.002476 0.000002 0.001653 0.000001
# 2 -0.002714 0.021490 -0.008067 0.000015 -0.003519 0.000004
# 3 -0.002476 -0.008067 0.013641 -0.000016 -0.000260 -0.000005
# 4 0.000002 0.000015 -0.000016 -0.039478 0.000010 0.027281
# 5 0.001653 -0.003519 -0.000260 0.000010 0.034406 0.000001
# 6 0.000001 0.000004 -0.000005 0.027281 0.000001 0.026964
#
#
# Mechanical properties :
#
#
# Convention : Reuss Voigt Hill
#
# Bulk Modulus (GPa) = 58.00944 64.00435 61.00689
# Shear Modulus (GPa) = 51.07018 20.16069 35.61543
#
# Velocity S-wave (km/s) = 4.80765 3.02066 4.01484
# Velocity P-wave (km/s) = 7.55460 6.41351 7.00732
#
# Compressibility (1/GPa) = 0.01723857
#
# Stress axis : x y z
#
# Youngs Moduli (GPa) = 115.98684 46.53348 73.31035
#
# Poissons Ratio (x) = 0.12627 0.18150
# Poissons Ratio (y) = 0.31473 0.59143
# Poissons Ratio (z) = 0.28717 0.37541
#
# Static dielectric constant tensor:
#      x y z
#    x 1.799590 -0.000080 0.013330 
#    y -0.000080 1.926250 0.000040 
#    z 0.013330 0.000040 1.661620 
# 
# From -- ./inp_files/234951.got.cif
#   From: 2010.05.17/outbox.cif.g08.bks.cpg/sg15_118_cif.got.tgz:234951.got - 2010.06.03 18:47:42.
