data_PCOD9281918
_publ_section_title
;
Structure prediction by ZEFSAII (Michael W. Deem and Ramdas Pophale) SiO2 
 PCOD9281918
Probable space group: C 2/C
;
_chemical_formula_sum "Si O2"
_cell_formula_units_Z 56
_cell_length_a 19.901667
_cell_length_b 5.477390
_cell_length_c 25.895214
_cell_angle_alpha 90.000000
_cell_angle_beta 125.761175
_cell_angle_gamma 90.000000
_cell_volume 2290.602595
_symmetry_space_group_name_H-M "C 2/C"
_symmetry_group_IT_number 15
_symmetry_cell_setting 'monoclinic'
loop_
_space_group_symop_operation_xyz
x,y,z
-x,y,1/2-z
-x,-y,-z
x,-y,1/2+z
1/2+x,1/2+y,z
1/2-x,1/2+y,1/2-z
1/2-x,1/2-y,-z
1/2+x,1/2-y,1/2+z
loop_
_atom_site_type_symbol
_atom_site_label
_atom_site_fract_x
_atom_site_fract_y
_atom_site_fract_z
Si Si1 0.966363 0.361494 0.337018
Si Si2 0.368670 0.156782 0.081176
Si Si3 0.638916 0.013977 0.533735
Si Si4 0.716105 0.158222 0.867766
Si Si5 0.715627 0.944246 0.759154
Si Si6 0.432120 0.475313 0.688859
Si Si7 0.972082 0.202683 0.447179
O O1 0.958315 0.165758 0.380311
O O2 0.038550 0.552899 0.381472
O O3 0.881611 0.504389 0.292702
O O4 0.003749 0.218815 0.305638
O O5 0.317767 0.982747 0.097060
O O6 0.383493 0.404809 0.118815
O O7 0.334987 0.150595 0.007536
O O8 0.612621 0.190514 0.568005
O O9 0.705346 0.817413 0.581231
O O10 0.551616 0.879941 0.484410
O O11 0.731484 0.975854 0.827440
O O12 0.643656 0.344018 0.816478
O O13 0.740354 0.678274 0.748717
O O14 0.500000 0.642556 0.750000
O O15 0.000000 0.000000 0.500000
#
# Coordination Sequence:
#
# PCOD9281918 Si02
#       7
#     8   8   8   8   8   8   8
#     4  10  23  42  62  97 131 173 232 282 348 418
#     4  10  24  40  70  93 131 177 228 293 348 419
#     4  10  22  42  61  98 133 170 229 283 349 422
#     4  11  25  42  66  98 134 176 228 288 356 416
#     4  12  29  45  69 103 141 188 234 293 358 425
#     4  11  23  40  66  93 130 178 230 291 350 417
#     4  10  21  38  66  90 129 178 218 277 346 414
#
# _framework density 24.447716
#
# number of rings (size 3 to 8) (size 9 to 14) (size 15 to 20)
#    0.000    1.429    1.429    2.143    8.000    1.714 
#    0.000    0.000    0.000    0.000    0.000    0.000 
#    0.000    0.000    0.000    0.000    0.000    0.000 
#
# Total GULP energy -156511.894114 kJ/mol
# GULP energy per Si atom -5589.710504 kJ/mol
# Density = 2.439207 g / cm^3
# Si number density = 24.447716 Si / 1000 Ang^3
#
#
#
# Elastic Constant Matrix: (Units=GPa)
#
#
# Indices 1 2 3 4 5 6 
#
# 1 128.0245 28.5348 43.2217 -0.0002 3.3258 0.0004
# 2 28.5348 48.4147 -4.1934 -0.0007 4.0671 0.0009
# 3 43.2217 -4.1934 84.5989 -0.0001 1.6673 0.0001
# 4 -0.0002 -0.0007 -0.0001 28.2972 0.0000 10.2364
# 5 3.3258 4.0671 1.6673 0.0000 40.2654 -0.0001
# 6 0.0004 0.0009 0.0001 10.2364 -0.0001 14.2004
#
#
#
# Elastic Compliance Matrix: (Units=1/GPa)
#
#
# Indices 1 2 3 4 5 6 
#
# 1 0.011571 -0.007368 -0.006278 0.000000 0.000048 0.000000
# 2 -0.007368 0.025621 0.005077 0.000002 -0.002190 -0.000003
# 3 -0.006278 0.005077 0.015292 0.000000 -0.000627 0.000000
# 4 0.000000 0.000002 0.000000 0.047805 0.000000 -0.034460
# 5 0.000048 -0.002190 -0.000627 0.000000 0.025078 0.000000
# 6 0.000000 -0.000003 0.000000 -0.034460 0.000000 0.095261
#
#
# Mechanical properties :
#
#
# Convention : Reuss Voigt Hill
#
# Bulk Modulus (GPa) = 28.29056 44.01827 36.15441
# Shear Modulus (GPa) = 20.03617 29.45093 24.74355
#
# Velocity S-wave (km/s) = 2.86589 3.47457 3.18480
# Velocity P-wave (km/s) = 4.74848 5.84303 5.32396
#
# Compressibility (1/GPa) = 0.03534748
#
# Stress axis : x y z
#
# Youngs Moduli (GPa) = 86.41989 39.03041 65.39384
#
# Poissons Ratio (x) = 0.28757 0.41054
# Poissons Ratio (y) = 0.63673 -0.33203
# Poissons Ratio (z) = 0.54254 -0.19817
#
# Static dielectric constant tensor:
#      x y z
#    x 1.915480 0.000000 -0.049560 
#    y 0.000000 1.999460 0.000000 
#    z -0.049560 0.000000 2.155740 
# 
# From -- ./inp_files/299969.got.cif
#   From: 2010.05.17/outbox.cif.g08.bks.cpg/sg15_150_cif.got.tgz:299969.got - 2010.06.03 18:47:42.
