data_PCOD9281712
_publ_section_title
;
Structure prediction by ZEFSAII (Michael W. Deem and Ramdas Pophale) SiO2 
 PCOD9281712
Probable space group: C 2/C
;
_chemical_formula_sum "Si O2"
_cell_formula_units_Z 64
_cell_length_a 10.028699
_cell_length_b 16.400481
_cell_length_c 23.111712
_cell_angle_alpha 90.000000
_cell_angle_beta 39.760742
_cell_angle_gamma 90.000000
_cell_volume 2431.253831
_symmetry_space_group_name_H-M "C 2/C"
_symmetry_group_IT_number 15
_symmetry_cell_setting 'monoclinic'
loop_
_space_group_symop_operation_xyz
x,y,z
-x,y,1/2-z
-x,-y,-z
x,-y,1/2+z
1/2+x,1/2+y,z
1/2-x,1/2+y,1/2-z
1/2-x,1/2-y,-z
1/2+x,1/2-y,1/2+z
loop_
_atom_site_type_symbol
_atom_site_label
_atom_site_fract_x
_atom_site_fract_y
_atom_site_fract_z
Si Si1 0.053137 0.887511 0.353791
Si Si2 0.273050 0.219349 0.256062
Si Si3 0.886271 0.202894 0.069412
Si Si4 0.107052 0.574937 0.836915
Si Si5 0.572846 0.071513 0.160123
Si Si6 0.102920 0.623210 0.972144
Si Si7 0.719607 0.821905 0.116304
Si Si8 0.360900 0.355103 0.843715
O O1 0.104704 0.798467 0.308892
O O2 0.178416 0.945057 0.267586
O O3 0.168104 0.884075 0.377460
O O4 0.808925 0.908021 0.435991
O O5 0.254194 0.232594 0.331011
O O6 0.420370 0.143866 0.191368
O O7 0.039564 0.177297 0.327568
O O8 0.795097 0.114623 0.086160
O O9 0.874589 0.278319 0.028914
O O10 0.135273 0.192402 0.987884
O O11 0.951863 0.501514 0.875651
O O12 0.999727 0.647575 0.834669
O O13 0.125205 0.597919 0.897338
O O14 0.500000 0.048403 0.250000
O O15 0.859637 0.604244 0.067834
O O16 0.702507 0.736605 0.156849
O O17 0.500000 0.400387 0.750000
#
# Coordination Sequence:
#
# PCOD9281712 Si02
#       8
#     8   8   8   8   8   8   8   8
#     4  12  22  39  69 101 138 179 235 290 348 420
#     4  11  20  39  67  95 135 181 235 292 343 419
#     4  10  21  38  64 102 134 178 237 290 345 421
#     4  12  23  42  67  98 142 185 231 294 356 422
#     4  10  23  40  66  99 140 190 238 293 356 418
#     4  11  24  39  69 102 138 182 236 296 355 422
#     4  11  22  37  66 103 134 176 230 297 354 413
#     4  11  21  39  64 101 136 177 234 303 355 417
#
# _framework density 26.323865999999999
#
# number of rings (size 3 to 8) (size 9 to 14) (size 15 to 20)
#    0.000    1.000    5.000    2.250    0.000    5.500 
#    0.000    2.500    0.000    2.250    0.000    0.000 
#    0.000    0.000    0.000    0.000    0.000    0.000 
#
# Total GULP energy -178593.163307 kJ/mol
# GULP energy per Si atom -5581.036353 kJ/mol
# Density = 2.626395 g / cm^3
# Si number density = 26.323866 Si / 1000 Ang^3
#
#
#
# Elastic Constant Matrix: (Units=GPa)
#
#
# Indices 1 2 3 4 5 6 
#
# 1 97.0345 1.0732 24.1130 0.0026 -13.6320 -0.0001
# 2 1.0732 47.8059 -11.4385 0.0014 4.0009 0.0003
# 3 24.1130 -11.4385 162.1834 0.0153 -23.3455 -0.0038
# 4 0.0026 0.0014 0.0153 11.4725 -0.0024 -6.0931
# 5 -13.6320 4.0009 -23.3455 -0.0024 45.7547 0.0000
# 6 -0.0001 0.0003 -0.0038 -6.0931 0.0000 32.0256
#
#
#
# Elastic Compliance Matrix: (Units=1/GPa)
#
#
# Indices 1 2 3 4 5 6 
#
# 1 0.011016 -0.000785 -0.001307 0.000000 0.002684 0.000000
# 2 -0.000785 0.021392 0.001427 -0.000005 -0.001376 -0.000001
# 3 -0.001307 0.001427 0.006893 -0.000009 0.003003 -0.000001
# 4 0.000000 -0.000005 -0.000009 0.096963 0.000001 0.018448
# 5 0.002684 -0.001376 0.003003 0.000001 0.024308 0.000001
# 6 0.000000 -0.000001 -0.000001 0.018448 0.000001 0.034735
#
#
# Mechanical properties :
#
#
# Convention : Reuss Voigt Hill
#
# Bulk Modulus (GPa) = 26.33442 37.16881 31.75161
# Shear Modulus (GPa) = 23.89000 37.40230 30.64615
#
# Velocity S-wave (km/s) = 3.01581 3.77351 3.41573
# Velocity P-wave (km/s) = 4.70665 5.75641 5.25780
#
# Compressibility (1/GPa) = 0.03797312
#
# Stress axis : x y z
#
# Youngs Moduli (GPa) = 90.77626 46.74601 145.07309
#
# Poissons Ratio (x) = 0.03668 0.18959
# Poissons Ratio (y) = 0.07122 -0.20707
# Poissons Ratio (z) = 0.11863 -0.06672
#
# Static dielectric constant tensor:
#      x y z
#    x 2.202520 0.000000 0.021550 
#    y 0.000000 2.107980 0.000000 
#    z 0.021550 0.000000 2.045140 
# 
# From -- ./inp_files/311637.got.cif
#   From: 2010.05.17/outbox.cif.g08.bks.cpg/sg15_156_cif.got.tgz:311637.got - 2010.06.03 18:47:42.
