data_PCOD9281343
_publ_section_title
;
Structure prediction by ZEFSAII (Michael W. Deem and Ramdas Pophale) SiO2 
 PCOD9281343
Probable space group: C 2/C
;
_chemical_formula_sum "Si O2"
_cell_formula_units_Z 48
_cell_length_a 15.347030
_cell_length_b 22.221965
_cell_length_c 12.304835
_cell_angle_alpha 90.000000
_cell_angle_beta 35.719831
_cell_angle_gamma 90.000000
_cell_volume 2449.983950
_symmetry_space_group_name_H-M "C 2/C"
_symmetry_group_IT_number 15
_symmetry_cell_setting 'monoclinic'
loop_
_space_group_symop_operation_xyz
x,y,z
-x,y,1/2-z
-x,-y,-z
x,-y,1/2+z
1/2+x,1/2+y,z
1/2-x,1/2+y,1/2-z
1/2-x,1/2-y,-z
1/2+x,1/2-y,1/2+z
loop_
_atom_site_type_symbol
_atom_site_label
_atom_site_fract_x
_atom_site_fract_y
_atom_site_fract_z
Si Si1 0.653073 0.704032 0.527253
Si Si2 0.898893 0.516034 0.759259
Si Si3 0.104637 0.287837 0.374779
Si Si4 0.374772 0.722363 0.453957
Si Si5 0.386891 0.913101 0.054581
Si Si6 0.675350 0.575803 0.574559
O O1 0.500000 0.699803 0.750000
O O2 0.750000 0.750000 0.500000
O O3 0.630246 0.732380 0.431393
O O4 0.714604 0.635944 0.466013
O O5 0.863851 0.560402 0.697466
O O6 0.000000 0.546349 0.750000
O O7 0.999312 0.459818 0.616098
O O8 0.753429 0.484268 0.953018
O O9 0.054377 0.345501 0.494327
O O10 0.978938 0.269437 0.414616
O O11 0.263377 0.305411 0.157396
O O12 0.500000 0.689822 0.250000
O O13 0.250000 0.750000 0.500000
O O14 0.240369 0.912395 0.128633
O O15 0.500000 0.567933 0.750000
#
# Coordination Sequence:
#
# PCOD9281343 Si02
#       6
#     8   8   8   8   8   8
#     4  11  22  33  55  94 125 155 189 233 307 363
#     4   9  21  40  61  83 115 154 203 249 289 336
#     4  11  21  35  62  86 119 158 196 242 300 359
#     4   9  21  39  54  79 116 156 196 242 288 341
#     4  10  21  38  61  87 111 157 204 240 290 355
#     4  10  22  38  58  87 127 150 189 251 294 361
#
# _framework density 19.591965999999999
#
# number of rings (size 3 to 8) (size 9 to 14) (size 15 to 20)
#    0.000    2.000    1.667    1.000    7.000    2.667 
#    0.000    0.833    0.000    0.000    0.000    0.000 
#    0.000    0.000    0.000    0.000    0.000    0.000 
#
# Total GULP energy -133757.332505 kJ/mol
# GULP energy per Si atom -5573.222188 kJ/mol
# Density = 1.954737 g / cm^3
# Si number density = 19.591966 Si / 1000 Ang^3
#
#
#
# Elastic Constant Matrix: (Units=GPa)
#
#
# Indices 1 2 3 4 5 6 
#
# 1 157.1621 41.1452 30.2838 0.0030 -2.0345 -0.0035
# 2 41.1452 42.6405 3.2683 0.0049 -1.9393 -0.0073
# 3 30.2838 3.2683 78.7941 0.0041 -7.6575 -0.0058
# 4 0.0030 0.0049 0.0041 8.8722 -0.0027 -2.6994
# 5 -2.0345 -1.9393 -7.6575 -0.0027 34.7670 0.0037
# 6 -0.0035 -0.0073 -0.0058 -2.6994 0.0037 10.4668
#
#
#
# Elastic Compliance Matrix: (Units=1/GPa)
#
#
# Indices 1 2 3 4 5 6 
#
# 1 0.009267 -0.008722 -0.003264 0.000002 -0.000663 -0.000004
# 2 -0.008722 0.031778 0.002204 -0.000010 0.001748 0.000017
# 3 -0.003264 0.002204 0.014151 -0.000004 0.003049 0.000006
# 4 0.000002 -0.000010 -0.000004 0.122309 0.000005 0.031544
# 5 -0.000663 0.001748 0.003049 0.000005 0.029493 -0.000007
# 6 -0.000004 0.000017 0.000006 0.031544 -0.000007 0.103675
#
#
# Mechanical properties :
#
#
# Convention : Reuss Voigt Hill
#
# Bulk Modulus (GPa) = 28.06510 47.55459 37.80985
# Shear Modulus (GPa) = 14.61500 24.41450 19.51475
#
# Velocity S-wave (km/s) = 2.73421 3.53391 3.15946
# Velocity P-wave (km/s) = 4.93191 6.40129 5.71403
#
# Compressibility (1/GPa) = 0.03563144
#
# Stress axis : x y z
#
# Youngs Moduli (GPa) = 107.91474 31.46815 70.66763
#
# Poissons Ratio (x) = 0.27445 0.23067
# Poissons Ratio (y) = 0.94119 -0.15573
# Poissons Ratio (z) = 0.35226 -0.06935
#
# Static dielectric constant tensor:
#      x y z
#    x 1.637450 0.000010 0.089640 
#    y 0.000010 1.680300 -0.000010 
#    z 0.089640 -0.000010 1.645650 
# 
# From -- ./inp_files/99969.got.cif
#   From: 2010.05.17/outbox.cif.g08.bks.cpg/sg15_50_cif.got.tgz:99969.got - 2010.06.03 18:47:42.
