data_PCOD9281277
_publ_section_title
;
Structure prediction by ZEFSAII (Michael W. Deem and Ramdas Pophale) SiO2 
 PCOD9281277
Probable space group: C 2/C
;
_chemical_formula_sum "Si O2"
_cell_formula_units_Z 36
_cell_length_a 19.736892
_cell_length_b 6.640404
_cell_length_c 25.899429
_cell_angle_alpha 90.000000
_cell_angle_beta 27.620653
_cell_angle_gamma 90.000000
_cell_volume 1573.697865
_symmetry_space_group_name_H-M "C 2/C"
_symmetry_group_IT_number 15
_symmetry_cell_setting 'monoclinic'
loop_
_space_group_symop_operation_xyz
x,y,z
-x,y,1/2-z
-x,-y,-z
x,-y,1/2+z
1/2+x,1/2+y,z
1/2-x,1/2+y,1/2-z
1/2-x,1/2-y,-z
1/2+x,1/2-y,1/2+z
loop_
_atom_site_type_symbol
_atom_site_label
_atom_site_fract_x
_atom_site_fract_y
_atom_site_fract_z
Si Si1 0.828249 0.255230 0.135846
Si Si2 0.214666 0.959913 0.417666
Si Si3 0.096904 0.445227 0.009117
Si Si4 0.509168 0.697440 0.631896
Si Si5 0.000000 0.717068 0.250000
O O1 0.830193 0.030204 0.110150
O O2 0.663112 0.299481 0.264687
O O3 0.948618 0.322358 0.095686
O O4 0.867569 0.395522 0.060014
O O5 0.096287 0.044539 0.537759
O O6 0.221021 0.723051 0.422390
O O7 0.363239 0.077070 0.328634
O O8 0.072519 0.579750 0.075984
O O9 0.529862 0.657468 0.678330
#
# Coordination Sequence:
#
# PCOD9281277 Si02
#       5
#     8   8   8   8   4
#     4   9  21  39  58  89 124 150 186 250 302 353
#     4  10  21  39  62  84 117 160 198 244 290 348
#     4  10  21  38  60  90 118 151 202 236 301 355
#     4  10  22  38  61  88 117 159 196 244 294 349
#     4  10  22  42  56  84 126 160 202 242 294 338
#
# _framework density 22.876055999999998
#
# number of rings (size 3 to 8) (size 9 to 14) (size 15 to 20)
#    0.000    2.222    0.000    1.333    3.111    4.444 
#    4.000   11.111    0.000    0.000    0.000    0.000 
#    0.000    0.000    0.000    0.000    0.000    0.000 
#
# Total GULP energy -100621.220809 kJ/mol
# GULP energy per Si atom -5590.067823 kJ/mol
# Density = 2.282399 g / cm^3
# Si number density = 22.876056 Si / 1000 Ang^3
#
#
#
# Elastic Constant Matrix: (Units=GPa)
#
#
# Indices 1 2 3 4 5 6 
#
# 1 45.3730 6.9878 5.5323 -0.0048 10.3617 0.0068
# 2 6.9878 64.0264 -0.6405 -0.0098 10.9806 0.0132
# 3 5.5323 -0.6405 69.6889 -0.0048 -1.6538 0.0066
# 4 -0.0048 -0.0098 -0.0048 12.1512 0.0031 -4.8105
# 5 10.3617 10.9806 -1.6538 0.0031 38.1159 -0.0037
# 6 0.0068 0.0132 0.0066 -4.8105 -0.0037 8.1346
#
#
#
# Elastic Compliance Matrix: (Units=1/GPa)
#
#
# Indices 1 2 3 4 5 6 
#
# 1 0.023937 -0.001580 -0.002060 0.000002 -0.006141 -0.000018
# 2 -0.001580 0.016535 0.000175 0.000004 -0.004326 -0.000025
# 3 -0.002060 0.000175 0.014542 0.000001 0.001141 -0.000009
# 4 0.000002 0.000004 0.000001 0.107453 -0.000004 0.063544
# 5 -0.006141 -0.004326 0.001141 -0.000004 0.029201 0.000022
# 6 -0.000018 -0.000025 -0.000009 0.063544 0.000022 0.160509
#
#
# Mechanical properties :
#
#
# Convention : Reuss Voigt Hill
#
# Bulk Modulus (GPa) = 20.79785 22.53862 21.66823
# Shear Modulus (GPa) = 13.32854 22.82759 18.07806
#
# Velocity S-wave (km/s) = 2.41642 3.16235 2.81421
# Velocity P-wave (km/s) = 4.11056 4.81745 4.47798
#
# Compressibility (1/GPa) = 0.04808190
#
# Stress axis : x y z
#
# Youngs Moduli (GPa) = 41.77711 60.47887 68.76758
#
# Poissons Ratio (x) = 0.09554 0.14169
# Poissons Ratio (y) = 0.06600 -0.01201
# Poissons Ratio (z) = 0.08608 -0.01057
#
# Static dielectric constant tensor:
#      x y z
#    x 1.886620 0.000000 -0.019170 
#    y 0.000000 1.876650 0.000000 
#    z -0.019170 0.000000 1.847280 
# 
# From -- ./inp_files/115584.got.cif
#   From: 2010.05.17/outbox.cif.g08.bks.cpg/sg15_58_cif.got.tgz:115584.got - 2010.06.03 18:47:42.
