data_PCOD9281681
_publ_section_title
;
Structure prediction by ZEFSAII (Michael W. Deem and Ramdas Pophale) SiO2 
 PCOD9281681
Probable space group: C 2/C
;
_chemical_formula_sum "Si O2"
_cell_formula_units_Z 48
_cell_length_a 8.671269
_cell_length_b 17.109689
_cell_length_c 13.815084
_cell_angle_alpha 90.000000
_cell_angle_beta 109.866689
_cell_angle_gamma 90.000000
_cell_volume 1927.660619
_symmetry_space_group_name_H-M "C 2/C"
_symmetry_group_IT_number 15
_symmetry_cell_setting 'monoclinic'
loop_
_space_group_symop_operation_xyz
x,y,z
-x,y,1/2-z
-x,-y,-z
x,-y,1/2+z
1/2+x,1/2+y,z
1/2-x,1/2+y,1/2-z
1/2-x,1/2-y,-z
1/2+x,1/2-y,1/2+z
loop_
_atom_site_type_symbol
_atom_site_label
_atom_site_fract_x
_atom_site_fract_y
_atom_site_fract_z
Si Si1 0.316418 0.716565 0.226269
Si Si2 0.837839 0.172108 0.666897
Si Si3 0.964214 0.220298 0.974175
Si Si4 0.533082 0.109494 0.565954
Si Si5 0.536552 0.581529 0.131921
Si Si6 0.243715 0.498695 0.981279
O O1 0.500000 0.749779 0.250000
O O2 0.215695 0.745558 0.298222
O O3 0.200599 0.752995 0.117868
O O4 0.357574 0.624266 0.258703
O O5 0.692082 0.114349 0.666800
O O6 0.000000 0.140876 0.750000
O O7 0.898660 0.186963 0.570819
O O8 0.018567 0.302073 0.029377
O O9 0.959120 0.156087 0.057507
O O10 0.607244 0.060821 0.492128
O O11 0.365410 0.074293 0.566516
O O12 0.665455 0.537658 0.090499
O O13 0.380782 0.521532 0.091815
#
# Coordination Sequence:
#
# PCOD9281681 Si02
#       6
#     8   8   8   8   8   8
#     4  11  24  38  66 103 127 167 230 281 322 380
#     4  10  21  38  63  96 126 163 222 281 325 381
#     4  11  22  40  75  93 128 175 227 278 327 384
#     4  11  20  41  65  98 122 176 220 267 328 400
#     4  11  22  45  66  98 137 175 217 278 331 399
#     4  10  24  37  68  94 136 173 211 262 351 393
#
# _framework density 24.900646999999999
#
# number of rings (size 3 to 8) (size 9 to 14) (size 15 to 20)
#    0.000    1.333    3.333    2.500    2.333    1.333 
#    0.000    4.167    7.333    0.000    0.000    0.000 
#    0.000    0.000    0.000    0.000    0.000    0.000 
#
# Total GULP energy -133784.161589 kJ/mol
# GULP energy per Si atom -5574.340066 kJ/mol
# Density = 2.484397 g / cm^3
# Si number density = 24.900647 Si / 1000 Ang^3
#
#
#
# Elastic Constant Matrix: (Units=GPa)
#
#
# Indices 1 2 3 4 5 6 
#
# 1 112.2032 25.0128 21.9302 0.0000 34.5468 0.0000
# 2 25.0128 80.5666 19.6709 0.0000 5.0285 0.0000
# 3 21.9302 19.6709 75.3830 0.0000 23.9401 0.0000
# 4 0.0000 0.0000 0.0000 39.6920 0.0000 -6.8475
# 5 34.5468 5.0285 23.9401 0.0000 42.4287 0.0000
# 6 0.0000 0.0000 0.0000 -6.8475 0.0000 43.8315
#
#
#
# Elastic Compliance Matrix: (Units=1/GPa)
#
#
# Indices 1 2 3 4 5 6 
#
# 1 0.012733 -0.003421 0.000429 0.000000 -0.010204 0.000000
# 2 -0.003421 0.014183 -0.003724 0.000000 0.003206 0.000000
# 3 0.000429 -0.003724 0.017158 0.000000 -0.009589 0.000000
# 4 0.000000 0.000000 0.000000 0.025892 0.000000 0.004045
# 5 -0.010204 0.003206 -0.009589 0.000000 0.036908 0.000000
# 6 0.000000 0.000000 0.000000 0.004045 0.000000 0.023447
#
#
# Mechanical properties :
#
#
# Convention : Reuss Voigt Hill
#
# Bulk Modulus (GPa) = 32.63433 44.59784 38.61609
# Shear Modulus (GPa) = 32.47456 38.62637 35.55047
#
# Velocity S-wave (km/s) = 3.61524 3.94283 3.78258
# Velocity P-wave (km/s) = 5.52819 6.21909 5.88379
#
# Compressibility (1/GPa) = 0.03064257
#
# Stress axis : x y z
#
# Youngs Moduli (GPa) = 78.53602 70.50533 58.28244
#
# Poissons Ratio (x) = 0.24120 -0.02501
# Poissons Ratio (y) = 0.26867 0.21704
# Poissons Ratio (z) = -0.03370 0.26256
#
# Static dielectric constant tensor:
#      x y z
#    x 2.044630 0.000000 0.032660 
#    y 0.000000 2.047530 0.000000 
#    z 0.032660 0.000000 2.227070 
# 
# From -- ./inp_files/190615.got.cif
#   From: 2010.05.17/outbox.cif.g08.bks.cpg/sg15_96_cif.got.tgz:190615.got - 2010.06.03 18:47:42.
