data_PCOD9281652
_publ_section_title
;
Structure prediction by ZEFSAII (Michael W. Deem and Ramdas Pophale) SiO2 
 PCOD9281652
Probable space group: C 2/C
;
_chemical_formula_sum "Si O2"
_cell_formula_units_Z 64
_cell_length_a 8.768960
_cell_length_b 24.590954
_cell_length_c 15.593017
_cell_angle_alpha 90.000000
_cell_angle_beta 89.999945
_cell_angle_gamma 90.000000
_cell_volume 3362.432841
_symmetry_space_group_name_H-M "C 2/C"
_symmetry_group_IT_number 15
_symmetry_cell_setting 'monoclinic'
loop_
_space_group_symop_operation_xyz
x,y,z
-x,y,1/2-z
-x,-y,-z
x,-y,1/2+z
1/2+x,1/2+y,z
1/2-x,1/2+y,1/2-z
1/2-x,1/2-y,-z
1/2+x,1/2-y,1/2+z
loop_
_atom_site_type_symbol
_atom_site_label
_atom_site_fract_x
_atom_site_fract_y
_atom_site_fract_z
Si Si1 0.174636 0.374509 0.852180
Si Si2 0.174636 0.625491 0.147820
Si Si3 0.183737 0.010318 0.400237
Si Si4 0.315009 0.571777 0.750000
Si Si5 0.319628 0.265018 0.908701
Si Si6 0.319628 0.734982 0.091299
Si Si7 0.316119 0.302229 0.250000
Si Si8 0.316263 0.510318 0.400236
O O1 0.175692 0.367023 0.750000
O O2 0.278852 0.327781 0.891487
O O3 0.237139 0.434030 0.872489
O O4 0.000000 0.368393 0.882395
O O5 0.237138 0.565969 0.127511
O O6 0.278853 0.672219 0.108512
O O7 0.000000 0.016113 0.392454
O O8 0.230865 0.962102 0.334957
O O9 0.218756 0.000000 0.500000
O O10 0.500000 0.572963 0.750000
O O11 0.265540 0.634528 0.750001
O O12 0.269135 0.537897 0.834956
O O13 0.500000 0.256860 0.907968
O O14 0.244729 0.228976 0.833626
O O15 0.250000 0.250000 0.000000
O O16 0.244729 0.771023 0.166374
O O17 0.250000 0.750000 0.000000
O O18 0.500000 0.300274 0.250000
#
# Coordination Sequence:
#
# PCOD9281652 Si02
#       8
#     8   8   8   8   8   8   8   8
#     4  11  23  41  65  93 126 164 209 266 320 374
#     4  11  23  41  65  93 126 164 209 266 320 374
#     4  10  21  38  63  93 123 164 212 255 309 378
#     4   9  20  38  59  88 127 166 204 253 308 367
#     4  12  26  44  67  95 127 169 215 266 324 385
#     4  12  26  44  67  95 127 169 215 266 324 385
#     4  11  23  42  65  94 133 172 214 263 316 385
#     4  10  21  38  63  93 123 164 212 255 309 378
#
# _framework density 19.033836999999998
#
# number of rings (size 3 to 8) (size 9 to 14) (size 15 to 20)
#    0.000    1.250    2.500    3.375    3.500    1.500 
#    0.000    2.500    0.000    0.000    0.000    0.000 
#    0.000    0.000    0.000    0.000    0.000    0.000 
#
# Total GULP energy -178883.587506 kJ/mol
# GULP energy per Si atom -5590.112110 kJ/mol
# Density = 1.899051 g / cm^3
# Si number density = 19.033837 Si / 1000 Ang^3
#
#
#
# Elastic Constant Matrix: (Units=GPa)
#
#
# Indices 1 2 3 4 5 6 
#
# 1 95.9391 42.0816 50.2242 0.0000 0.0004 0.0000
# 2 42.0816 121.5087 40.7975 0.0000 0.0000 0.0000
# 3 50.2242 40.7975 123.0316 0.0000 0.0004 0.0000
# 4 0.0000 0.0000 0.0000 33.0726 0.0000 -0.0001
# 5 0.0004 0.0000 0.0004 0.0000 16.1221 0.0000
# 6 0.0000 0.0000 0.0000 -0.0001 0.0000 24.4387
#
#
#
# Elastic Compliance Matrix: (Units=1/GPa)
#
#
# Indices 1 2 3 4 5 6 
#
# 1 0.014399 -0.003391 -0.004754 0.000000 0.000000 0.000000
# 2 -0.003391 0.010059 -0.001952 0.000000 0.000000 0.000000
# 3 -0.004754 -0.001952 0.010716 0.000000 0.000000 0.000000
# 4 0.000000 0.000000 0.000000 0.030237 0.000000 0.000000
# 5 0.000000 0.000000 0.000000 0.000000 0.062027 0.000000
# 6 0.000000 0.000000 0.000000 0.000000 0.000000 0.040919
#
#
# Mechanical properties :
#
#
# Convention : Reuss Voigt Hill
#
# Bulk Modulus (GPa) = 66.74529 67.40957 67.07743
# Shear Modulus (GPa) = 25.83416 28.55173 27.19295
#
# Velocity S-wave (km/s) = 3.68812 3.87725 3.78387
# Velocity P-wave (km/s) = 7.29925 7.45229 7.37617
#
# Compressibility (1/GPa) = 0.01498233
#
# Stress axis : x y z
#
# Youngs Moduli (GPa) = 69.44893 99.40955 93.32115
#
# Poissons Ratio (x) = 0.33707 0.44362
# Poissons Ratio (y) = 0.23548 0.18212
# Poissons Ratio (z) = 0.33014 0.19400
#
# Static dielectric constant tensor:
#      x y z
#    x 1.644560 0.000000 0.000000 
#    y 0.000000 1.643330 0.000000 
#    z 0.000000 0.000000 1.622780 
# 
# From -- ./inp_files/137820.got.cif
#   From: 2010.05.17/outbox.cif.g08.bks.cpg/sg15_69_cif.got.tgz:137820.got - 2010.06.03 18:47:42.
