data_PCOD9281612
_publ_section_title
;
Structure prediction by ZEFSAII (Michael W. Deem and Ramdas Pophale) SiO2 
 PCOD9281612
Probable space group: C 2/C
;
_chemical_formula_sum "Si O2"
_cell_formula_units_Z 64
_cell_length_a 18.004842
_cell_length_b 12.190662
_cell_length_c 30.338301
_cell_angle_alpha 90.000000
_cell_angle_beta 151.271523
_cell_angle_gamma 90.000000
_cell_volume 3200.702404
_symmetry_space_group_name_H-M "C 2/C"
_symmetry_group_IT_number 15
_symmetry_cell_setting 'monoclinic'
loop_
_space_group_symop_operation_xyz
x,y,z
-x,y,1/2-z
-x,-y,-z
x,-y,1/2+z
1/2+x,1/2+y,z
1/2-x,1/2+y,1/2-z
1/2-x,1/2-y,-z
1/2+x,1/2-y,1/2+z
loop_
_atom_site_type_symbol
_atom_site_label
_atom_site_fract_x
_atom_site_fract_y
_atom_site_fract_z
Si Si1 0.552242 0.865335 0.826751
Si Si2 0.120386 0.196585 0.211880
Si Si3 0.862102 0.478544 0.487680
Si Si4 0.297937 0.376824 0.518060
Si Si5 0.718110 0.005662 0.154026
Si Si6 0.460227 0.101018 0.677866
Si Si7 0.374422 0.685651 0.789452
Si Si8 0.353156 0.273997 0.010740
O O1 0.500000 0.863614 0.750000
O O2 0.471960 0.766160 0.809518
O O3 0.737276 0.850434 0.923403
O O4 0.493959 0.980654 0.816263
O O5 0.225816 0.249481 0.229330
O O6 0.981453 0.123678 0.119566
O O7 0.044656 0.298346 0.198554
O O8 0.224334 0.122881 0.298287
O O9 0.778740 0.543102 0.484639
O O10 0.776428 0.499128 0.396354
O O11 0.873093 0.347099 0.500750
O O12 0.039747 0.516338 0.574663
O O13 0.250000 0.250000 0.500000
O O14 0.220255 0.398073 0.430148
O O15 0.823267 0.917689 0.234242
O O16 0.500000 0.106008 0.750000
O O17 0.488774 0.669679 0.890952
O O18 0.250000 0.250000 0.000000
#
# Coordination Sequence:
#
# PCOD9281612 Si02
#       8
#     8   8   8   8   8   8   8   8
#     4  10  22  41  65  90 122 171 222 271 326 394
#     4  11  25  40  65  97 130 177 218 274 346 395
#     4  11  23  44  63  97 137 172 224 280 334 395
#     4  10  22  39  65  88 127 176 216 265 329 398
#     4  11  25  39  67  97 134 174 217 287 339 389
#     4  10  23  43  64  91 130 172 224 273 324 397
#     4  11  23  41  63  94 131 168 221 273 336 403
#     4  10  21  38  63  89 124 170 215 265 325 391
#
# _framework density 19.995609999999999
#
# number of rings (size 3 to 8) (size 9 to 14) (size 15 to 20)
#    0.000    1.500    1.250    3.750   10.500    0.000 
#    0.000    0.000    0.000    3.000    0.000    0.000 
#    0.000    0.000    0.000    0.000    0.000    0.000 
#
# Total GULP energy -178455.260296 kJ/mol
# GULP energy per Si atom -5576.726884 kJ/mol
# Density = 1.995010 g / cm^3
# Si number density = 19.995610 Si / 1000 Ang^3
#
#
#
# Elastic Constant Matrix: (Units=GPa)
#
#
# Indices 1 2 3 4 5 6 
#
# 1 46.6354 14.9898 42.1429 0.0000 -1.9757 0.0000
# 2 14.9898 116.9251 44.9805 0.0000 -8.4879 0.0000
# 3 42.1429 44.9805 153.2555 -0.0001 -12.9111 -0.0001
# 4 0.0000 0.0000 -0.0001 -27.7213 0.0000 -16.2259
# 5 -1.9757 -8.4879 -12.9111 0.0000 30.7554 0.0000
# 6 0.0000 0.0000 -0.0001 -16.2259 0.0000 24.6687
#
#
#
# Elastic Compliance Matrix: (Units=1/GPa)
#
#
# Indices 1 2 3 4 5 6 
#
# 1 0.028667 -0.000799 -0.007787 0.000000 -0.001648 0.000000
# 2 -0.000799 0.009733 -0.002503 0.000000 0.001584 0.000000
# 3 -0.007787 -0.002503 0.009642 0.000000 0.002857 0.000000
# 4 0.000000 0.000000 0.000000 -0.026046 0.000000 -0.017132
# 5 -0.001648 0.001584 0.002857 0.000000 0.034045 0.000000
# 6 0.000000 0.000000 0.000000 -0.017132 0.000000 0.029269
#
#
# Mechanical properties :
#
#
# Convention : Reuss Voigt Hill
#
# Bulk Modulus (GPa) = 38.66634 57.89359 48.27996
# Shear Modulus (GPa) = 43.06243 19.85408 31.45825
#
# Velocity S-wave (km/s) = 4.64572 3.15448 3.97073
# Velocity P-wave (km/s) = 6.93948 6.50259 6.72458
#
# Compressibility (1/GPa) = 0.02586229
#
# Stress axis : x y z
#
# Youngs Moduli (GPa) = 34.88311 102.74367 103.71420
#
# Poissons Ratio (x) = 0.08209 0.80766
# Poissons Ratio (y) = 0.02787 0.25965
# Poissons Ratio (z) = 0.27165 0.25722
#
# Static dielectric constant tensor:
#      x y z
#    x 1.677480 0.000000 0.003200 
#    y 0.000000 0.824130 0.000000 
#    z 0.003200 0.000000 1.755480 
# 
# From -- ./inp_files/316227.got.cif
#   From: 2010.05.17/outbox.cif.g08.bks.cpg/sg15_159_cif.got.tgz:316227.got - 2010.06.03 18:47:42.
