data_PCOD9281915
_publ_section_title
;
Structure prediction by ZEFSAII (Michael W. Deem and Ramdas Pophale) SiO2 
 PCOD9281915
Probable space group: C 2/C
;
_chemical_formula_sum "Si O2"
_cell_formula_units_Z 56
_cell_length_a 14.502431
_cell_length_b 8.023769
_cell_length_c 24.491441
_cell_angle_alpha 90.000000
_cell_angle_beta 53.306688
_cell_angle_gamma 90.000000
_cell_volume 2285.199942
_symmetry_space_group_name_H-M "C 2/C"
_symmetry_group_IT_number 15
_symmetry_cell_setting 'monoclinic'
loop_
_space_group_symop_operation_xyz
x,y,z
-x,y,1/2-z
-x,-y,-z
x,-y,1/2+z
1/2+x,1/2+y,z
1/2-x,1/2+y,1/2-z
1/2-x,1/2-y,-z
1/2+x,1/2-y,1/2+z
loop_
_atom_site_type_symbol
_atom_site_label
_atom_site_fract_x
_atom_site_fract_y
_atom_site_fract_z
Si Si1 0.367997 0.988113 0.317068
Si Si2 0.636737 0.620355 0.195033
Si Si3 0.310334 0.302226 0.398363
Si Si4 0.060532 0.974699 0.054436
Si Si5 0.408827 0.241085 0.030630
Si Si6 0.665930 0.635845 0.311220
Si Si7 0.114142 0.586173 0.906600
O O1 0.500000 0.993539 0.250000
O O2 0.360337 0.122633 0.367780
O O3 0.272136 0.052530 0.306913
O O4 0.336182 0.798498 0.343393
O O5 0.500000 0.630676 0.250000
O O6 0.652023 0.444440 0.158937
O O7 0.682758 0.625332 0.240879
O O8 0.351778 0.371885 0.440342
O O9 0.176404 0.303279 0.431419
O O10 0.957284 0.055843 0.127673
O O11 0.986991 0.855368 0.041724
O O12 0.132142 0.116425 0.996746
O O13 0.354510 0.104320 0.090971
O O14 0.480463 0.119266 0.964453
O O15 0.652716 0.826682 0.337147
#
# Coordination Sequence:
#
# PCOD9281915 Si02
#       7
#     8   8   8   8   8   8   8
#     4  10  25  40  58  90 125 165 208 246 306 367
#     4  11  23  41  59  90 131 162 206 250 302 378
#     4  11  23  41  61  94 125 163 208 255 306 375
#     4  10  21  38  66  90 123 160 205 262 312 365
#     4   9  20  41  62  91 117 160 208 258 319 364
#     4  10  22  40  62  90 124 163 206 255 308 371
#     4   9  21  40  61  90 122 157 210 254 312 373
#
# _framework density 24.505516
#
# number of rings (size 3 to 8) (size 9 to 14) (size 15 to 20)
#    0.000    2.000    1.429    0.429    6.000    3.429 
#    2.571    0.000    0.000    0.000    0.000    0.000 
#    0.000    0.000    0.000    0.000    0.000    0.000 
#
# Total GULP energy -156280.152247 kJ/mol
# GULP energy per Si atom -5581.434009 kJ/mol
# Density = 2.444974 g / cm^3
# Si number density = 24.505516 Si / 1000 Ang^3
#
#
#
# Elastic Constant Matrix: (Units=GPa)
#
#
# Indices 1 2 3 4 5 6 
#
# 1 44.4840 -10.9446 4.7182 0.0000 15.0594 0.0000
# 2 -10.9446 149.8743 46.8321 0.0000 -5.0414 0.0000
# 3 4.7182 46.8321 77.1558 0.0000 11.7220 0.0000
# 4 0.0000 0.0000 0.0000 51.3949 0.0000 -8.2982
# 5 15.0594 -5.0414 11.7220 0.0000 33.0555 0.0000
# 6 0.0000 0.0000 0.0000 -8.2982 0.0000 25.9722
#
#
#
# Elastic Compliance Matrix: (Units=1/GPa)
#
#
# Indices 1 2 3 4 5 6 
#
# 1 0.027000 0.001905 -0.001038 0.000000 -0.011642 0.000000
# 2 0.001905 0.008702 -0.005779 0.000000 0.002509 0.000000
# 3 -0.001038 -0.005779 0.017539 0.000000 -0.006628 0.000000
# 4 0.000000 0.000000 0.000000 0.020516 0.000000 0.006555
# 5 -0.011642 0.002509 -0.006628 0.000000 0.038289 0.000000
# 6 0.000000 0.000000 0.000000 0.006555 0.000000 0.040597
#
#
# Mechanical properties :
#
#
# Convention : Reuss Voigt Hill
#
# Bulk Modulus (GPa) = 23.03385 39.19172 31.11278
# Shear Modulus (GPa) = 28.25814 37.47842 32.86828
#
# Velocity S-wave (km/s) = 3.39947 3.91498 3.66630
# Velocity P-wave (km/s) = 4.98281 6.03853 5.53589
#
# Compressibility (1/GPa) = 0.04341437
#
# Stress axis : x y z
#
# Youngs Moduli (GPa) = 37.03717 114.92090 57.01508
#
# Poissons Ratio (x) = -0.21887 0.05920
# Poissons Ratio (y) = -0.07054 0.32951
# Poissons Ratio (z) = 0.03846 0.66417
#
# Static dielectric constant tensor:
#      x y z
#    x 1.981630 0.000000 -0.107140 
#    y 0.000000 1.938750 0.000000 
#    z -0.107140 0.000000 2.068610 
# 
# From -- ./inp_files/295074.got.cif
#   From: 2010.05.17/outbox.cif.g08.bks.cpg/sg15_148_cif.got.tgz:295074.got - 2010.06.03 18:47:42.
