data_PCOD9281981
_publ_section_title
;
Structure prediction by ZEFSAII (Michael W. Deem and Ramdas Pophale) SiO2 
 PCOD9281981
Probable space group: C 2/C
;
_chemical_formula_sum "Si O2"
_cell_formula_units_Z 56
_cell_length_a 15.791377
_cell_length_b 7.520393
_cell_length_c 22.574124
_cell_angle_alpha 90.000000
_cell_angle_beta 63.550183
_cell_angle_gamma 90.000000
_cell_volume 2400.225641
_symmetry_space_group_name_H-M "C 2/C"
_symmetry_group_IT_number 15
_symmetry_cell_setting 'monoclinic'
loop_
_space_group_symop_operation_xyz
x,y,z
-x,y,1/2-z
-x,-y,-z
x,-y,1/2+z
1/2+x,1/2+y,z
1/2-x,1/2+y,1/2-z
1/2-x,1/2-y,-z
1/2+x,1/2-y,1/2+z
loop_
_atom_site_type_symbol
_atom_site_label
_atom_site_fract_x
_atom_site_fract_y
_atom_site_fract_z
Si Si1 0.909117 0.005918 0.485095
Si Si2 0.719757 0.788123 0.423034
Si Si3 0.301347 0.640237 0.197624
Si Si4 0.605719 0.282951 0.710303
Si Si5 0.924622 0.130054 0.853498
Si Si6 0.377303 0.240046 0.182944
Si Si7 0.794970 0.306517 0.584274
O O1 0.844373 0.832867 0.516033
O O2 0.936834 0.996425 0.407869
O O3 0.153572 0.826779 0.475854
O O4 0.000000 0.000000 0.500000
O O5 0.684743 0.741911 0.367728
O O6 0.831435 0.750612 0.388167
O O7 0.715790 0.996919 0.438550
O O8 0.352314 0.728218 0.237405
O O9 0.340750 0.441894 0.184552
O O10 0.191483 0.645407 0.249466
O O11 0.500000 0.205898 0.750000
O O12 0.591829 0.491407 0.694917
O O13 0.692873 0.231704 0.639154
O O14 0.017592 0.248778 0.825345
O O15 0.360165 0.164429 0.122563
#
# Coordination Sequence:
#
# PCOD9281981 Si02
#       7
#     8   8   8   8   8   8   8
#     4  12  24  47  72  98 145 189 238 287 350 416
#     4  11  25  43  69 103 133 185 230 295 348 417
#     4  11  21  38  68  96 141 175 228 288 355 420
#     4  10  21  38  67 102 133 178 229 288 354 413
#     4  11  23  42  70 102 138 188 236 290 347 418
#     4  11  20  40  66 100 137 184 229 286 355 419
#     4  10  23  43  69 104 137 181 235 280 352 417
#
# _framework density 23.331140000000001
#
# number of rings (size 3 to 8) (size 9 to 14) (size 15 to 20)
#    0.000    1.143    4.286    3.000    0.000    2.857 
#    0.000    4.286    0.000    0.000    0.000    0.000 
#    0.000    0.000    0.000    0.000    0.000    0.000 
#
# Total GULP energy -156610.801858 kJ/mol
# GULP energy per Si atom -5593.242923 kJ/mol
# Density = 2.327804 g / cm^3
# Si number density = 23.331140 Si / 1000 Ang^3
#
#
#
# Elastic Constant Matrix: (Units=GPa)
#
#
# Indices 1 2 3 4 5 6 
#
# 1 138.8610 23.4030 18.7143 0.0000 -26.8108 0.0000
# 2 23.4030 80.8789 15.2021 0.0000 -15.4422 0.0000
# 3 18.7143 15.2021 67.5068 0.0000 3.5600 0.0000
# 4 0.0000 0.0000 0.0000 36.1474 0.0000 -5.9636
# 5 -26.8108 -15.4422 3.5600 0.0000 41.4752 0.0000
# 6 0.0000 0.0000 0.0000 -5.9636 0.0000 27.3941
#
#
#
# Elastic Compliance Matrix: (Units=1/GPa)
#
#
# Indices 1 2 3 4 5 6 
#
# 1 0.008772 -0.001019 -0.002493 0.000000 0.005505 0.000000
# 2 -0.001019 0.014190 -0.003171 0.000000 0.004897 0.000000
# 3 -0.002493 -0.003171 0.016440 0.000000 -0.004203 0.000000
# 4 0.000000 0.000000 0.000000 0.028695 0.000000 0.006247
# 5 0.005505 0.004897 -0.004203 0.000000 0.029854 0.000000
# 6 0.000000 0.000000 0.000000 0.006247 0.000000 0.037864
#
#
# Mechanical properties :
#
#
# Convention : Reuss Voigt Hill
#
# Bulk Modulus (GPa) = 38.40718 44.65394 41.53056
# Shear Modulus (GPa) = 31.67378 36.33182 34.00280
#
# Velocity S-wave (km/s) = 3.68853 3.95045 3.82173
# Velocity P-wave (km/s) = 5.88539 6.32367 6.10846
#
# Compressibility (1/GPa) = 0.02603680
#
# Stress axis : x y z
#
# Youngs Moduli (GPa) = 113.99929 70.47223 60.82658
#
# Poissons Ratio (x) = 0.07178 0.15162
# Poissons Ratio (y) = 0.11612 0.19290
# Poissons Ratio (z) = 0.28417 0.22349
#
# Static dielectric constant tensor:
#      x y z
#    x 1.925420 0.000000 -0.006440 
#    y 0.000000 1.869170 0.000000 
#    z -0.006440 0.000000 1.902450 
# 
# From -- ./inp_files/272627.got.cif
#   From: 2010.05.17/outbox.cif.g08.bks.cpg/sg15_137_cif.got.tgz:272627.got - 2010.06.03 18:47:42.
