data_PCOD9281252
_publ_section_title
;
Structure prediction by ZEFSAII (Michael W. Deem and Ramdas Pophale) SiO2 
 PCOD9281252
Probable space group: C 2/C
;
_chemical_formula_sum "Si O2"
_cell_formula_units_Z 64
_cell_length_a 28.556252
_cell_length_b 5.157795
_cell_length_c 19.483379
_cell_angle_alpha 90.000000
_cell_angle_beta 98.280490
_cell_angle_gamma 90.000000
_cell_volume 2839.737698
_symmetry_space_group_name_H-M "C 2/C"
_symmetry_group_IT_number 15
_symmetry_cell_setting 'monoclinic'
loop_
_space_group_symop_operation_xyz
x,y,z
-x,y,1/2-z
-x,-y,-z
x,-y,1/2+z
1/2+x,1/2+y,z
1/2-x,1/2+y,1/2-z
1/2-x,1/2-y,-z
1/2+x,1/2-y,1/2+z
loop_
_atom_site_type_symbol
_atom_site_label
_atom_site_fract_x
_atom_site_fract_y
_atom_site_fract_z
Si Si1 0.418255 0.094869 0.349931
Si Si2 0.622793 0.647809 0.475880
Si Si3 0.745723 0.311840 0.792130
Si Si4 0.419506 0.545733 0.171211
Si Si5 0.570733 0.150369 0.504301
Si Si6 0.146966 0.757396 0.738113
Si Si7 0.476728 0.049135 0.141646
Si Si8 0.667722 0.585334 0.614739
O O1 0.470087 0.138444 0.330912
O O2 0.384520 0.298091 0.380850
O O3 0.430309 0.889826 0.414223
O O4 0.382908 0.993970 0.284634
O O5 0.620734 0.605042 0.394515
O O6 0.580645 0.450483 0.490274
O O7 0.665809 0.550588 0.532585
O O8 0.612117 0.950269 0.488227
O O9 0.742156 0.608640 0.766867
O O10 0.692036 0.227755 0.796593
O O11 0.787812 0.262067 0.854375
O O12 0.392790 0.560143 0.237610
O O13 0.441927 0.268844 0.162313
O O14 0.459023 0.771829 0.166849
O O15 0.529849 0.060495 0.442961
O O16 0.167292 0.849916 0.668584
#
# Coordination Sequence:
#
# PCOD9281252 Si02
#       8
#     8   8   8   8   8   8   8   8
#     4  11  21  36  59  90 112 152 200 243 288 346
#     4   9  18  36  59  82 115 152 192 236 293 344
#     4  10  21  38  60  88 117 147 191 251 307 343
#     4  10  24  41  56  83 124 162 189 236 293 353
#     4   9  18  35  57  84 112 149 193 243 285 336
#     4  11  23  39  60  86 119 157 197 245 302 348
#     4  10  23  39  58  82 121 159 193 233 290 350
#     4  10  21  38  62  89 114 146 199 249 295 344
#
# _framework density 22.537291
#
# number of rings (size 3 to 8) (size 9 to 14) (size 15 to 20)
#    0.000    2.000    2.500    0.375    3.500    0.500 
#    0.000    5.625    0.000    0.000    0.000   11.375 
#    0.000    0.000    0.000    0.000    0.000    0.000 
#
# Total GULP energy -178215.293978 kJ/mol
# GULP energy per Si atom -5569.227937 kJ/mol
# Density = 2.248599 g / cm^3
# Si number density = 22.537291 Si / 1000 Ang^3
#
#
#
# Elastic Constant Matrix: (Units=GPa)
#
#
# Indices 1 2 3 4 5 6 
#
# 1 73.6406 5.3860 31.6036 0.0000 21.6078 0.0000
# 2 5.3860 71.8265 11.6987 0.0000 0.3301 0.0000
# 3 31.6036 11.6987 32.9996 0.0000 9.8331 0.0000
# 4 0.0000 0.0000 0.0000 24.5233 0.0000 0.4609
# 5 21.6078 0.3301 9.8331 0.0000 30.2398 0.0000
# 6 0.0000 0.0000 0.0000 0.4609 0.0000 17.4981
#
#
#
# Elastic Compliance Matrix: (Units=1/GPa)
#
#
# Indices 1 2 3 4 5 6 
#
# 1 0.026565 0.001740 -0.022585 0.000000 -0.011657 0.000000
# 2 0.001740 0.014970 -0.007257 0.000000 0.000953 0.000000
# 3 -0.022585 -0.007257 0.055002 0.000000 -0.001668 0.000000
# 4 0.000000 0.000000 0.000000 0.040798 0.000000 -0.001075
# 5 -0.011657 0.000953 -0.001668 0.000000 0.041931 0.000000
# 6 0.000000 0.000000 0.000000 -0.001075 0.000000 0.057178
#
#
# Mechanical properties :
#
#
# Convention : Reuss Voigt Hill
#
# Bulk Modulus (GPa) = 24.79336 30.64926 27.72131
# Shear Modulus (GPa) = 16.33501 23.10412 19.71957
#
# Velocity S-wave (km/s) = 2.69513 3.20527 2.96121
# Velocity P-wave (km/s) = 4.55081 5.22755 4.90087
#
# Compressibility (1/GPa) = 0.04033338
#
# Stress axis : x y z
#
# Youngs Moduli (GPa) = 37.64342 66.80201 18.18104
#
# Poissons Ratio (x) = -0.11624 0.41061
# Poissons Ratio (y) = -0.06550 0.13195
# Poissons Ratio (z) = 0.85016 0.48480
#
# Static dielectric constant tensor:
#      x y z
#    x 1.838010 0.000000 0.021610 
#    y 0.000000 1.879400 0.000000 
#    z 0.021610 0.000000 1.964570 
# 
# From -- ./inp_files/223907.got.cif
#   From: 2010.05.17/outbox.cif.g08.bks.cpg/sg15_112_cif.got.tgz:223907.got - 2010.06.03 18:47:42.
