data_PCOD9281503
_publ_section_title
;
Structure prediction by ZEFSAII (Michael W. Deem and Ramdas Pophale) SiO2 
 PCOD9281503
Probable space group: C 2/C
;
_chemical_formula_sum "Si O2"
_cell_formula_units_Z 48
_cell_length_a 6.713145
_cell_length_b 28.613746
_cell_length_c 16.140427
_cell_angle_alpha 90.000000
_cell_angle_beta 47.011731
_cell_angle_gamma 90.000000
_cell_volume 2267.911645
_symmetry_space_group_name_H-M "C 2/C"
_symmetry_group_IT_number 15
_symmetry_cell_setting 'monoclinic'
loop_
_space_group_symop_operation_xyz
x,y,z
-x,y,1/2-z
-x,-y,-z
x,-y,1/2+z
1/2+x,1/2+y,z
1/2-x,1/2+y,1/2-z
1/2-x,1/2-y,-z
1/2+x,1/2-y,1/2+z
loop_
_atom_site_type_symbol
_atom_site_label
_atom_site_fract_x
_atom_site_fract_y
_atom_site_fract_z
Si Si1 0.797025 0.985101 0.946149
Si Si2 0.963658 0.115141 0.354987
Si Si3 0.540768 0.813531 0.986382
Si Si4 0.796355 0.938211 0.126629
Si Si5 0.387044 0.224059 0.870410
Si Si6 0.894080 0.153943 0.022284
O O1 0.934576 0.940266 0.864463
O O2 0.762766 0.966954 0.050390
O O3 0.003637 0.028197 0.878647
O O4 0.500000 0.000000 0.000000
O O5 0.675682 0.136475 0.466852
O O6 0.000000 0.130452 0.250000
O O7 0.168508 0.135216 0.366770
O O8 0.783798 0.777351 0.895150
O O9 0.425951 0.790178 0.103803
O O10 0.342676 0.824026 0.966567
O O11 0.500000 0.930096 0.250000
O O12 0.960402 0.890431 0.062493
O O13 0.500000 0.210209 0.750000
O O14 0.115326 0.194699 0.964180
#
# Coordination Sequence:
#
# PCOD9281503 Si02
#       6
#     8   8   8   8   8   8
#     4  10  22  39  59  87 122 160 211 269 321 384
#     4  10  22  38  58  87 121 161 209 262 317 382
#     4  10  21  39  61  89 126 160 203 258 314 379
#     4  10  22  39  60  89 123 161 214 267 319 388
#     4  10  21  38  62  90 124 158 203 256 310 382
#     4  10  21  40  59  88 122 163 206 260 316 386
#
# _framework density 21.164843999999999
#
# number of rings (size 3 to 8) (size 9 to 14) (size 15 to 20)
#    0.000    2.000    0.000    2.500    2.333    1.333 
#    0.000    3.333    0.000    0.000    0.000    0.000 
#    0.000    0.000    0.000    0.000    0.000    0.000 
#
# Total GULP energy -133783.185218 kJ/mol
# GULP energy per Si atom -5574.299384 kJ/mol
# Density = 2.111667 g / cm^3
# Si number density = 21.164844 Si / 1000 Ang^3
#
#
#
# Elastic Constant Matrix: (Units=GPa)
#
#
# Indices 1 2 3 4 5 6 
#
# 1 146.7708 47.2907 42.6601 0.0000 24.6273 0.0000
# 2 47.2907 122.2649 17.7341 0.0000 6.7537 0.0000
# 3 42.6601 17.7341 102.9274 0.0000 27.6018 0.0000
# 4 0.0000 0.0000 0.0000 4.9566 0.0000 8.8893
# 5 24.6273 6.7537 27.6018 0.0000 29.7234 0.0000
# 6 0.0000 0.0000 0.0000 8.8893 0.0000 36.2678
#
#
#
# Elastic Compliance Matrix: (Units=1/GPa)
#
#
# Indices 1 2 3 4 5 6 
#
# 1 0.009202 -0.002996 -0.001912 0.000000 -0.005168 0.000000
# 2 -0.002996 0.009377 -0.000623 0.000000 0.000931 0.000000
# 3 -0.001912 -0.000623 0.013519 0.000000 -0.010829 0.000000
# 4 0.000000 0.000000 0.000000 0.360000 0.000000 -0.088237
# 5 -0.005168 0.000931 -0.010829 0.000000 0.047770 0.000000
# 6 0.000000 0.000000 0.000000 -0.088237 0.000000 0.049200
#
#
# Mechanical properties :
#
#
# Convention : Reuss Voigt Hill
#
# Bulk Modulus (GPa) = 47.53966 65.25920 56.39943
# Shear Modulus (GPa) = 9.85919 31.80811 20.83365
#
# Velocity S-wave (km/s) = 2.16065 3.88090 3.14084
# Velocity P-wave (km/s) = 5.36050 7.14021 6.31338
#
# Compressibility (1/GPa) = 0.02103507
#
# Stress axis : x y z
#
# Youngs Moduli (GPa) = 108.67727 106.64499 73.96885
#
# Poissons Ratio (x) = 0.31954 0.14140
# Poissons Ratio (y) = 0.32563 0.04611
# Poissons Ratio (z) = 0.20775 0.06648
#
# Static dielectric constant tensor:
#      x y z
#    x 1.847040 0.000000 0.076350 
#    y 0.000000 1.770200 0.000000 
#    z 0.076350 0.000000 1.818920 
# 
# From -- ./inp_files/130608.got.cif
#   From: 2010.05.17/outbox.cif.g08.bks.cpg/sg15_66_cif.got.tgz:130608.got - 2010.06.03 18:47:42.
