data_PCOD9281820
_publ_section_title
;
Structure prediction by ZEFSAII (Michael W. Deem and Ramdas Pophale) SiO2 
 PCOD9281820
Probable space group: C 2/C
;
_chemical_formula_sum "Si O2"
_cell_formula_units_Z 40
_cell_length_a 17.449665
_cell_length_b 8.817283
_cell_length_c 25.585799
_cell_angle_alpha 90.000000
_cell_angle_beta 24.422926
_cell_angle_gamma 90.000000
_cell_volume 1627.659635
_symmetry_space_group_name_H-M "C 2/C"
_symmetry_group_IT_number 15
_symmetry_cell_setting 'monoclinic'
loop_
_space_group_symop_operation_xyz
x,y,z
-x,y,1/2-z
-x,-y,-z
x,-y,1/2+z
1/2+x,1/2+y,z
1/2-x,1/2+y,1/2-z
1/2-x,1/2-y,-z
1/2+x,1/2-y,1/2+z
loop_
_atom_site_type_symbol
_atom_site_label
_atom_site_fract_x
_atom_site_fract_y
_atom_site_fract_z
Si Si1 0.166885 0.696875 0.831156
Si Si2 0.427869 0.961213 0.701082
Si Si3 0.858501 0.123481 0.566634
Si Si4 0.302196 0.415585 0.944389
Si Si5 0.227251 0.059566 0.163322
O O1 0.343402 0.802839 0.733843
O O2 0.146317 0.579985 0.796655
O O3 0.165451 0.584650 0.882014
O O4 0.987571 0.806693 0.941085
O O5 0.332255 0.027739 0.813363
O O6 0.649180 0.972633 0.564130
O O7 0.810222 0.277815 0.627787
O O8 0.000000 0.000000 0.500000
O O9 0.279562 0.429824 0.895345
O O10 0.519230 0.450039 0.815425
O O11 0.250000 0.250000 0.000000
#
# Coordination Sequence:
#
# PCOD9281820 Si02
#       5
#     8   8   8   8   8
#     4  11  24  40  68  99 131 174 226 285 334 390
#     4  11  23  40  68  99 131 176 225 277 338 407
#     4  10  21  38  64  99 129 164 222 275 328 390
#     4  11  24  41  68  91 132 178 220 265 337 406
#     4  11  23  42  66  95 135 174 218 280 330 398
#
# _framework density 24.575161999999999
#
# number of rings (size 3 to 8) (size 9 to 14) (size 15 to 20)
#    0.000    1.200    4.000    1.800    2.800    0.800 
#    0.000    0.000   17.600    0.000    0.000    0.000 
#    0.000    0.000    0.000    0.000    0.000    0.000 
#
# Total GULP energy -111518.727827 kJ/mol
# GULP energy per Si atom -5575.936391 kJ/mol
# Density = 2.451923 g / cm^3
# Si number density = 24.575162 Si / 1000 Ang^3
#
#
#
# Elastic Constant Matrix: (Units=GPa)
#
#
# Indices 1 2 3 4 5 6 
#
# 1 84.3968 37.0159 20.0405 -0.0002 11.5504 -0.0001
# 2 37.0159 103.3916 25.4204 0.0005 5.6118 0.0002
# 3 20.0405 25.4204 168.0784 0.0005 -20.5508 0.0022
# 4 -0.0002 0.0005 0.0005 58.3275 0.0008 3.6838
# 5 11.5504 5.6118 -20.5508 0.0008 25.9486 0.0002
# 6 -0.0001 0.0002 0.0022 3.6838 0.0002 25.2350
#
#
#
# Elastic Compliance Matrix: (Units=1/GPa)
#
#
# Indices 1 2 3 4 5 6 
#
# 1 0.015374 -0.004594 -0.002052 0.000000 -0.007475 0.000000
# 2 -0.004594 0.011757 -0.001430 0.000000 -0.001630 0.000000
# 3 -0.002052 -0.001430 0.007263 0.000000 0.006975 -0.000001
# 4 0.000000 0.000000 0.000000 0.017304 -0.000001 -0.002526
# 5 -0.007475 -0.001630 0.006975 -0.000001 0.047742 -0.000001
# 6 0.000000 0.000000 -0.000001 -0.002526 -0.000001 0.039996
#
#
# Mechanical properties :
#
#
# Convention : Reuss Voigt Hill
#
# Bulk Modulus (GPa) = 54.81726 57.86894 56.34310
# Shear Modulus (GPa) = 30.92743 40.12820 35.52782
#
# Velocity S-wave (km/s) = 3.55136 4.04527 3.80633
# Velocity P-wave (km/s) = 6.25864 6.73927 6.50340
#
# Compressibility (1/GPa) = 0.01824243
#
# Stress axis : x y z
#
# Youngs Moduli (GPa) = 65.04479 85.05859 137.67689
#
# Poissons Ratio (x) = 0.39074 0.28256
# Poissons Ratio (y) = 0.29880 0.19683
# Poissons Ratio (z) = 0.13349 0.12160
#
# Static dielectric constant tensor:
#      x y z
#    x 2.015200 0.000000 0.095290 
#    y 0.000000 1.902660 0.000000 
#    z 0.095290 0.000000 2.130150 
# 
# From -- ./inp_files/214144.got.cif
#   From: 2010.05.17/outbox.cif.g08.bks.cpg/sg15_108_cif.got.tgz:214144.got - 2010.06.03 18:47:42.
