data_PCOD9281489
_publ_section_title
;
Structure prediction by ZEFSAII (Michael W. Deem and Ramdas Pophale) SiO2 
 PCOD9281489
Probable space group: C 2/C
;
_chemical_formula_sum "Si O2"
_cell_formula_units_Z 56
_cell_length_a 12.181295
_cell_length_b 29.694453
_cell_length_c 9.013296
_cell_angle_alpha 90.000000
_cell_angle_beta 56.901235
_cell_angle_gamma 90.000000
_cell_volume 2731.220384
_symmetry_space_group_name_H-M "C 2/C"
_symmetry_group_IT_number 15
_symmetry_cell_setting 'monoclinic'
loop_
_space_group_symop_operation_xyz
x,y,z
-x,y,1/2-z
-x,-y,-z
x,-y,1/2+z
1/2+x,1/2+y,z
1/2-x,1/2+y,1/2-z
1/2-x,1/2-y,-z
1/2+x,1/2-y,1/2+z
loop_
_atom_site_type_symbol
_atom_site_label
_atom_site_fract_x
_atom_site_fract_y
_atom_site_fract_z
Si Si1 0.653886 0.895949 0.649215
Si Si2 0.000000 0.356997 0.250000
Si Si3 0.904682 0.943493 0.098985
Si Si4 0.325592 0.734886 0.595558
Si Si5 0.262684 0.861796 0.228798
Si Si6 0.500000 0.306503 0.750000
Si Si7 0.173497 0.974314 0.015454
Si Si8 0.716589 0.829087 0.857946
O O1 0.500000 0.890905 0.750000
O O2 0.719278 0.872577 0.457241
O O3 0.694828 0.948248 0.621234
O O4 0.700738 0.870044 0.759267
O O5 0.893846 0.379045 0.217214
O O6 0.899686 0.331754 0.434254
O O7 0.857568 0.892447 0.127031
O O8 0.852484 0.964956 0.292392
O O9 0.844555 0.973785 0.013072
O O10 0.059676 0.949607 0.002841
O O11 0.250000 0.750000 0.500000
O O12 0.264808 0.690565 0.715657
O O13 0.467246 0.722304 0.422718
O O14 0.309907 0.780560 0.699779
O O15 0.362922 0.331290 0.818828
#
# Coordination Sequence:
#
# PCOD9281489 Si02
#       8
#     8   4   8   8   8   4   8   8
#     4  11  24  41  61  90 132 169 202 256 321 382
#     4  12  21  40  62  86 126 172 212 256 308 375
#     4   9  20  41  64  91 120 159 199 261 320 373
#     4  10  21  38  62  89 128 163 211 269 310 363
#     4  11  23  40  62  90 127 166 209 259 319 381
#     4  10  21  38  62  94 116 164 220 272 296 365
#     4   9  20  41  65  89 124 155 201 261 317 372
#     4  11  24  38  65  90 126 172 213 262 315 368
#
# _framework density 20.503654000000001
#
# number of rings (size 3 to 8) (size 9 to 14) (size 15 to 20)
#    0.000    1.714    4.286    0.429    4.000    1.714 
#    1.286    1.429    0.000    0.000    0.000    0.000 
#    0.000    0.000    0.000    0.000    0.000    0.000 
#
# Total GULP energy -156007.857464 kJ/mol
# GULP energy per Si atom -5571.709195 kJ/mol
# Density = 2.045699 g / cm^3
# Si number density = 20.503654 Si / 1000 Ang^3
#
#
#
# Elastic Constant Matrix: (Units=GPa)
#
#
# Indices 1 2 3 4 5 6 
#
# 1 54.7554 3.7423 18.4577 0.0000 -12.5829 0.0000
# 2 3.7423 47.2340 15.3538 0.0000 -1.1164 0.0000
# 3 18.4577 15.3538 56.4226 0.0000 -9.9516 0.0000
# 4 0.0000 0.0000 0.0000 9.4484 0.0000 12.3532
# 5 -12.5829 -1.1164 -9.9516 0.0000 29.3244 0.0000
# 6 0.0000 0.0000 0.0000 12.3532 0.0000 19.0643
#
#
#
# Elastic Compliance Matrix: (Units=1/GPa)
#
#
# Indices 1 2 3 4 5 6 
#
# 1 0.021955 0.000379 -0.005979 0.000000 0.007406 0.000000
# 2 0.000379 0.023282 -0.006674 0.000000 -0.001216 0.000000
# 3 -0.005979 -0.006674 0.022335 0.000000 0.004760 0.000000
# 4 0.000000 0.000000 0.000000 0.692630 0.000000 -0.448809
# 5 0.007406 -0.001216 0.004760 0.000000 0.038848 0.000000
# 6 0.000000 0.000000 0.000000 -0.448809 0.000000 0.343272
#
#
# Mechanical properties :
#
#
# Convention : Reuss Voigt Hill
#
# Bulk Modulus (GPa) = 23.24301 25.94663 24.59482
# Shear Modulus (GPa) = 4.23295 19.62463 11.92879
#
# Velocity S-wave (km/s) = 1.43839 3.09711 2.41465
# Velocity P-wave (km/s) = 3.75756 5.04693 4.44920
#
# Compressibility (1/GPa) = 0.04302369
#
# Stress axis : x y z
#
# Youngs Moduli (GPa) = 45.54874 42.95192 44.77275
#
# Poissons Ratio (x) = -0.01628 0.26769
# Poissons Ratio (y) = -0.01727 0.29881
# Poissons Ratio (z) = 0.27233 0.28666
#
# Static dielectric constant tensor:
#      x y z
#    x 1.744010 0.000000 0.007290 
#    y 0.000000 1.775030 0.000000 
#    z 0.007290 0.000000 1.771310 
# 
# From -- ./inp_files/35625.got.cif
#   From: 2010.05.17/outbox.cif.g08.bks.cpg/sg15_18_cif.got.tgz:35625.got - 2010.06.03 18:47:42.
