data_PCOD9281053
_publ_section_title
;
Structure prediction by ZEFSAII (Michael W. Deem and Ramdas Pophale) SiO2 
 PCOD9281053
Probable space group: C 2/C
;
_chemical_formula_sum "Si O2"
_cell_formula_units_Z 56
_cell_length_a 20.744891
_cell_length_b 12.887834
_cell_length_c 10.866716
_cell_angle_alpha 90.000000
_cell_angle_beta 82.581724
_cell_angle_gamma 90.000000
_cell_volume 2880.972267
_symmetry_space_group_name_H-M "C 2/C"
_symmetry_group_IT_number 15
_symmetry_cell_setting 'monoclinic'
loop_
_space_group_symop_operation_xyz
x,y,z
-x,y,1/2-z
-x,-y,-z
x,-y,1/2+z
1/2+x,1/2+y,z
1/2-x,1/2+y,1/2-z
1/2-x,1/2-y,-z
1/2+x,1/2-y,1/2+z
loop_
_atom_site_type_symbol
_atom_site_label
_atom_site_fract_x
_atom_site_fract_y
_atom_site_fract_z
Si Si1 0.209183 0.097389 0.354434
Si Si2 0.357182 0.063403 0.369283
Si Si3 0.103253 0.563885 0.407016
Si Si4 0.017127 0.244650 0.892305
Si Si5 0.725806 0.216429 0.373932
Si Si6 0.863243 0.893775 0.190569
Si Si7 0.878542 0.201560 0.935124
O O1 0.278834 0.051644 0.382301
O O2 0.223154 0.156573 0.223656
O O3 0.178749 0.178267 0.457166
O O4 0.157496 0.005662 0.350110
O O5 0.388974 0.021438 0.234671
O O6 0.367468 0.187685 0.371459
O O7 0.389732 0.015653 0.482753
O O8 0.042349 0.642240 0.426341
O O9 0.165951 0.638078 0.404295
O O10 0.075340 0.161481 0.889894
O O11 0.000000 0.249727 0.750000
O O12 0.950650 0.210157 0.973141
O O13 0.750000 0.250000 0.500000
O O14 0.698376 0.318353 0.314052
O O15 0.878043 0.887673 0.331912
#
# Coordination Sequence:
#
# PCOD9281053 Si02
#       7
#     8   8   8   8   8   8   8
#     4  11  24  35  63  96 116 159 205 250 308 367
#     4  11  22  38  62  94 127 157 202 252 318 365
#     4  10  21  38  62  92 119 166 202 250 304 372
#     4   9  18  42  62  84 118 166 205 239 309 353
#     4  10  21  38  57  85 126 156 188 251 309 357
#     4  10  21  38  61  85 115 160 200 243 303 362
#     4  11  22  40  62  84 124 162 200 256 295 365
#
# _framework density 19.437881999999998
#
# number of rings (size 3 to 8) (size 9 to 14) (size 15 to 20)
#    0.000    1.714    5.714    1.286    6.000    2.286 
#    0.000    0.000    0.000    3.429    0.000    0.000 
#    0.000    0.000    0.000    0.000    0.000    0.000 
#
# Total GULP energy -156215.369817 kJ/mol
# GULP energy per Si atom -5579.120351 kJ/mol
# Density = 1.939364 g / cm^3
# Si number density = 19.437882 Si / 1000 Ang^3
#
#
#
# Elastic Constant Matrix: (Units=GPa)
#
#
# Indices 1 2 3 4 5 6 
#
# 1 89.4115 20.2407 25.3190 0.0000 0.9488 0.0000
# 2 20.2407 43.1775 30.3604 0.0000 11.6090 0.0000
# 3 25.3190 30.3604 77.5538 0.0000 10.9070 0.0000
# 4 0.0000 0.0000 0.0000 24.2080 0.0000 8.3059
# 5 0.9488 11.6090 10.9070 0.0000 14.1260 0.0000
# 6 0.0000 0.0000 0.0000 8.3059 0.0000 24.4929
#
#
#
# Elastic Compliance Matrix: (Units=1/GPa)
#
#
# Indices 1 2 3 4 5 6 
#
# 1 0.013262 -0.005818 -0.002916 0.000000 0.006142 0.000000
# 2 -0.005818 0.039569 -0.010178 0.000000 -0.024270 0.000000
# 3 -0.002916 -0.010178 0.018652 0.000000 -0.005842 0.000000
# 4 0.000000 0.000000 0.000000 0.046748 0.000000 -0.015853
# 5 0.006142 -0.024270 -0.005842 0.000000 0.094835 0.000000
# 6 0.000000 0.000000 0.000000 -0.015853 0.000000 0.046204
#
#
# Mechanical properties :
#
#
# Convention : Reuss Voigt Hill
#
# Bulk Modulus (GPa) = 29.70872 40.22036 34.96454
# Shear Modulus (GPa) = 16.21726 21.51356 18.86541
#
# Velocity S-wave (km/s) = 2.89158 3.33045 3.11874
# Velocity P-wave (km/s) = 5.14446 5.96036 5.56737
#
# Compressibility (1/GPa) = 0.03366015
#
# Stress axis : x y z
#
# Youngs Moduli (GPa) = 75.40452 25.27201 53.61323
#
# Poissons Ratio (x) = 0.14703 0.15632
# Poissons Ratio (y) = 0.43870 0.54567
# Poissons Ratio (z) = 0.21986 0.25721
#
# Static dielectric constant tensor:
#      x y z
#    x 1.730710 0.000000 0.012090 
#    y 0.000000 1.668860 0.000000 
#    z 0.012090 0.000000 1.718280 
# 
# From -- ./inp_files/111084.got.cif
#   From: 2010.05.17/outbox.cif.g08.bks.cpg/sg15_56_cif.got.tgz:111084.got - 2010.06.03 18:47:42.
