data_PCOD9281275
_publ_section_title
;
Structure prediction by ZEFSAII (Michael W. Deem and Ramdas Pophale) SiO2 
 PCOD9281275
Probable space group: C 2/C
;
_chemical_formula_sum "Si O2"
_cell_formula_units_Z 56
_cell_length_a 10.343658
_cell_length_b 9.637619
_cell_length_c 26.841134
_cell_angle_alpha 90.000000
_cell_angle_beta 73.546900
_cell_angle_gamma 90.000000
_cell_volume 2566.178578
_symmetry_space_group_name_H-M "C 2/C"
_symmetry_group_IT_number 15
_symmetry_cell_setting 'monoclinic'
loop_
_space_group_symop_operation_xyz
x,y,z
-x,y,1/2-z
-x,-y,-z
x,-y,1/2+z
1/2+x,1/2+y,z
1/2-x,1/2+y,1/2-z
1/2-x,1/2-y,-z
1/2+x,1/2-y,1/2+z
loop_
_atom_site_type_symbol
_atom_site_label
_atom_site_fract_x
_atom_site_fract_y
_atom_site_fract_z
Si Si1 0.151248 0.898813 0.634256
Si Si2 0.066077 0.681559 0.443410
Si Si3 0.852158 0.562068 0.970758
Si Si4 0.842010 0.399899 0.778957
Si Si5 0.575239 0.534124 0.543394
Si Si6 0.275476 0.903509 0.194711
Si Si7 0.087103 0.607762 0.644536
O O1 0.302527 0.854318 0.602186
O O2 0.095769 0.761557 0.666736
O O3 0.067403 0.938157 0.593582
O O4 0.169304 0.029863 0.667894
O O5 0.110050 0.688674 0.496882
O O6 0.971851 0.547505 0.452771
O O7 0.981662 0.814712 0.436344
O O8 0.833899 0.611657 0.916513
O O9 0.730861 0.479116 0.009912
O O10 0.763923 0.255286 0.790965
O O11 0.781721 0.500869 0.743238
O O12 0.847376 0.489144 0.829079
O O13 0.000000 0.371966 0.750000
O O14 0.500000 0.500000 0.500000
O O15 0.427231 0.914468 0.156219
#
# Coordination Sequence:
#
# PCOD9281275 Si02
#       7
#     8   8   8   8   8   8   8
#     4  11  24  40  65  95 130 168 216 263 315 378
#     4  10  21  39  59  88 132 172 214 263 308 366
#     4  10  21  38  60  89 127 176 213 260 311 369
#     4  10  25  44  68  94 126 159 207 263 323 388
#     4  11  23  37  58  94 130 175 223 260 309 371
#     4  11  24  45  67  95 125 162 207 263 325 384
#     4  11  23  41  65  95 128 166 210 262 319 377
#
# _framework density 21.822331999999999
#
# number of rings (size 3 to 8) (size 9 to 14) (size 15 to 20)
#    0.000    1.429    1.429    3.000    2.000    6.857 
#    0.000    0.000    0.000    0.000    0.000    0.000 
#    0.000    0.000    0.000    0.000    0.000    0.000 
#
# Total GULP energy -156408.069961 kJ/mol
# GULP energy per Si atom -5586.002499 kJ/mol
# Density = 2.177266 g / cm^3
# Si number density = 21.822332 Si / 1000 Ang^3
#
#
#
# Elastic Constant Matrix: (Units=GPa)
#
#
# Indices 1 2 3 4 5 6 
#
# 1 60.8313 36.0322 13.7944 0.0000 19.8295 0.0000
# 2 36.0322 150.9285 40.5196 0.0000 13.9059 0.0000
# 3 13.7944 40.5196 65.8406 0.0000 11.7704 0.0000
# 4 0.0000 0.0000 0.0000 27.4654 0.0000 3.5940
# 5 19.8295 13.9059 11.7704 0.0000 15.7746 0.0000
# 6 0.0000 0.0000 0.0000 3.5940 0.0000 48.7398
#
#
#
# Elastic Compliance Matrix: (Units=1/GPa)
#
#
# Indices 1 2 3 4 5 6 
#
# 1 0.030376 -0.004722 0.003028 0.000000 -0.036281 0.000000
# 2 -0.004722 0.008881 -0.004775 0.000000 0.001669 0.000000
# 3 0.003028 -0.004775 0.020102 0.000000 -0.014596 0.000000
# 4 0.000000 0.000000 0.000000 0.036764 0.000000 -0.002711
# 5 -0.036281 0.001669 -0.014596 0.000000 0.118419 0.000000
# 6 0.000000 0.000000 0.000000 -0.002711 0.000000 0.020717
#
#
# Mechanical properties :
#
#
# Convention : Reuss Voigt Hill
#
# Bulk Modulus (GPa) = 21.54203 50.92141 36.23172
# Shear Modulus (GPa) = 18.96306 30.87957 24.92132
#
# Velocity S-wave (km/s) = 2.95104 3.76579 3.38303
# Velocity P-wave (km/s) = 4.63729 6.50334 5.64791
#
# Compressibility (1/GPa) = 0.04642088
#
# Stress axis : x y z
#
# Youngs Moduli (GPa) = 32.92085 112.59995 49.74716
#
# Poissons Ratio (x) = 0.53169 -0.15063
# Poissons Ratio (y) = 0.15545 0.23753
# Poissons Ratio (z) = -0.09968 0.53763
#
# Static dielectric constant tensor:
#      x y z
#    x 1.842640 0.000000 0.045150 
#    y 0.000000 1.796070 0.000000 
#    z 0.045150 0.000000 1.824010 
# 
# From -- ./inp_files/291538.got.cif
#   From: 2010.05.17/outbox.cif.g08.bks.cpg/sg15_146_cif.got.tgz:291538.got - 2010.06.03 18:47:42.
