data_PCOD9281212
_publ_section_title
;
Structure prediction by ZEFSAII (Michael W. Deem and Ramdas Pophale) SiO2 
 PCOD9281212
Probable space group: C 2/C
;
_chemical_formula_sum "Si O2"
_cell_formula_units_Z 56
_cell_length_a 17.654742
_cell_length_b 9.618381
_cell_length_c 24.350142
_cell_angle_alpha 90.000000
_cell_angle_beta 39.799241
_cell_angle_gamma 90.000000
_cell_volume 2646.746531
_symmetry_space_group_name_H-M "C 2/C"
_symmetry_group_IT_number 15
_symmetry_cell_setting 'monoclinic'
loop_
_space_group_symop_operation_xyz
x,y,z
-x,y,1/2-z
-x,-y,-z
x,-y,1/2+z
1/2+x,1/2+y,z
1/2-x,1/2+y,1/2-z
1/2-x,1/2-y,-z
1/2+x,1/2-y,1/2+z
loop_
_atom_site_type_symbol
_atom_site_label
_atom_site_fract_x
_atom_site_fract_y
_atom_site_fract_z
Si Si1 0.240864 0.273506 0.089448
Si Si2 0.583666 0.971610 0.006492
Si Si3 0.454039 0.421442 0.838644
Si Si4 0.205209 0.175652 0.579482
Si Si5 0.138872 0.546930 0.176135
Si Si6 0.861526 0.506335 0.697392
Si Si7 0.184636 0.801163 0.745719
O O1 0.148798 0.194460 0.101116
O O2 0.222273 0.439143 0.095511
O O3 0.194514 0.249034 0.177531
O O4 0.361698 0.184435 0.021181
O O5 0.499481 0.996139 0.105820
O O6 0.693251 0.079533 0.948939
O O7 0.500000 0.000000 0.000000
O O8 0.500000 0.422911 0.750000
O O9 0.398425 0.570509 0.879377
O O10 0.561494 0.382583 0.817930
O O11 0.250000 0.250000 0.500000
O O12 0.158438 0.297583 0.644473
O O13 0.166148 0.539257 0.225407
O O14 0.000000 0.504604 0.250000
O O15 0.817973 0.664678 0.715583
O O16 0.791629 0.402779 0.697563
#
# Coordination Sequence:
#
# PCOD9281212 Si02
#       7
#     8   8   8   8   8   8   8
#     4   9  19  40  64  89 126 165 208 262 317 383
#     4  11  23  42  63  91 131 175 211 259 324 398
#     4   9  19  38  64  86 117 163 209 256 311 386
#     4  11  25  41  64  94 125 165 216 273 327 385
#     4  11  23  42  64  97 128 162 215 277 322 374
#     4  11  24  38  65  91 128 168 214 266 319 388
#     4  10  21  38  59  93 121 164 216 257 320 378
#
# _framework density 21.158051
#
# number of rings (size 3 to 8) (size 9 to 14) (size 15 to 20)
#    0.000    1.714    1.429    3.429    2.000    3.429 
#    0.000    4.286    0.000    0.000    0.000    0.000 
#    0.000    0.000    0.000    0.000    0.000    0.000 
#
# Total GULP energy -156435.062276 kJ/mol
# GULP energy per Si atom -5586.966510 kJ/mol
# Density = 2.110989 g / cm^3
# Si number density = 21.158051 Si / 1000 Ang^3
#
#
#
# Elastic Constant Matrix: (Units=GPa)
#
#
# Indices 1 2 3 4 5 6 
#
# 1 30.0962 12.1786 -2.9414 0.0000 -8.6661 0.0000
# 2 12.1786 127.6629 26.2175 0.0000 -6.8545 0.0000
# 3 -2.9414 26.2175 53.0260 0.0000 -6.0995 0.0000
# 4 0.0000 0.0000 0.0000 37.1917 0.0000 -8.3736
# 5 -8.6661 -6.8545 -6.0995 0.0000 28.0019 0.0000
# 6 0.0000 0.0000 0.0000 -8.3736 0.0000 17.5324
#
#
#
# Elastic Compliance Matrix: (Units=1/GPa)
#
#
# Indices 1 2 3 4 5 6 
#
# 1 0.039027 -0.004228 0.005667 0.000000 0.012278 0.000000
# 2 -0.004228 0.009218 -0.004803 0.000000 -0.000098 0.000000
# 3 0.005667 -0.004803 0.022170 0.000000 0.005407 0.000000
# 4 0.000000 0.000000 0.000000 0.030127 0.000000 0.014389
# 5 0.012278 -0.000098 0.005407 0.000000 0.040665 0.000000
# 6 0.000000 0.000000 0.000000 0.014389 0.000000 0.063909
#
#
# Mechanical properties :
#
#
# Convention : Reuss Voigt Hill
#
# Bulk Modulus (GPa) = 15.70170 31.29938 23.50054
# Shear Modulus (GPa) = 21.45253 28.23388 24.84321
#
# Velocity S-wave (km/s) = 3.18766 3.65694 3.43034
# Velocity P-wave (km/s) = 4.58099 5.71456 5.17889
#
# Compressibility (1/GPa) = 0.06368738
#
# Stress axis : x y z
#
# Youngs Moduli (GPa) = 25.62337 108.48823 45.10613
#
# Poissons Ratio (x) = 0.45866 -0.25564
# Poissons Ratio (y) = 0.10833 0.21666
# Poissons Ratio (z) = -0.14522 0.52110
#
# Static dielectric constant tensor:
#      x y z
#    x 1.754770 0.000000 0.024440 
#    y 0.000000 1.764170 0.000000 
#    z 0.024440 0.000000 1.795530 
# 
# From -- ./inp_files/298517.got.cif
#   From: 2010.05.17/outbox.cif.g08.bks.cpg/sg15_150_cif.got.tgz:298517.got - 2010.06.03 18:47:42.
