data_PCOD9281005
_publ_section_title
;
Structure prediction by ZEFSAII (Michael W. Deem and Ramdas Pophale) SiO2 
 PCOD9281005
Probable space group: C 2/C
;
_chemical_formula_sum "Si O2"
_cell_formula_units_Z 44
_cell_length_a 6.147115
_cell_length_b 26.933342
_cell_length_c 15.479844
_cell_angle_alpha 90.000000
_cell_angle_beta 127.594203
_cell_angle_gamma 90.000000
_cell_volume 2030.700976
_symmetry_space_group_name_H-M "C 2/C"
_symmetry_group_IT_number 15
_symmetry_cell_setting 'monoclinic'
loop_
_space_group_symop_operation_xyz
x,y,z
-x,y,1/2-z
-x,-y,-z
x,-y,1/2+z
1/2+x,1/2+y,z
1/2-x,1/2+y,1/2-z
1/2-x,1/2-y,-z
1/2+x,1/2-y,1/2+z
loop_
_atom_site_type_symbol
_atom_site_label
_atom_site_fract_x
_atom_site_fract_y
_atom_site_fract_z
Si Si1 0.626891 0.118309 0.546866
Si Si2 0.009770 0.843849 0.895679
Si Si3 0.000000 0.762849 0.750000
Si Si4 0.083531 0.473181 0.431204
Si Si5 0.211259 0.935731 0.591719
Si Si6 0.457420 0.294754 0.070392
O O1 0.320646 0.138432 0.453272
O O2 0.597713 0.077053 0.615552
O O3 0.728172 0.089905 0.485730
O O4 0.821552 0.165859 0.603251
O O5 0.937585 0.799748 0.814104
O O6 0.807124 0.891425 0.843020
O O7 0.005393 0.822867 0.991541
O O8 0.260824 0.728837 0.830641
O O9 0.397988 0.455329 0.514940
O O10 0.089629 0.516422 0.360996
O O11 0.000000 0.500000 0.500000
O O12 0.250000 0.250000 0.000000
#
# Coordination Sequence:
#
# PCOD9281005 Si02
#       6
#     8   8   4   8   8   8
#     4   9  17  33  53  80 126 150 199 261 304 370
#     4  10  21  38  55  85 127 154 212 264 304 387
#     4  12  24  38  60  84 122 178 214 252 328 366
#     4   8  13  25  51  84 119 148 192 242 318 384
#     4   8  15  28  51  83 123 146 194 251 316 381
#     4  11  23  40  57  83 125 164 211 268 308 376
#
# _framework density 21.667394999999999
#
# number of rings (size 3 to 8) (size 9 to 14) (size 15 to 20)
#    0.000    2.545    1.818    0.545    0.000    0.727 
#    0.000    0.000    0.000    0.000    0.000    0.000 
#  856.364    0.000    0.000    1.455    0.364    0.364 
#
# Total GULP energy -122665.584839 kJ/mol
# GULP energy per Si atom -5575.708402 kJ/mol
# Density = 2.161808 g / cm^3
# Si number density = 21.667395 Si / 1000 Ang^3
#
#
#
# Elastic Constant Matrix: (Units=GPa)
#
#
# Indices 1 2 3 4 5 6 
#
# 1 130.1119 71.9781 36.0068 0.0000 2.5337 0.0000
# 2 71.9781 186.0962 49.8218 0.0000 5.0466 0.0000
# 3 36.0068 49.8218 57.8423 0.0000 8.0710 0.0000
# 4 0.0000 0.0000 0.0000 -14.3798 0.0000 -14.3309
# 5 2.5337 5.0466 8.0710 0.0000 16.7335 0.0000
# 6 0.0000 0.0000 0.0000 -14.3309 0.0000 80.4624
#
#
#
# Elastic Compliance Matrix: (Units=1/GPa)
#
#
# Indices 1 2 3 4 5 6 
#
# 1 0.010445 -0.002971 -0.004125 0.000000 0.001304 0.000000
# 2 -0.002971 0.007841 -0.004971 0.000000 0.000483 0.000000
# 3 -0.004125 -0.004971 0.025562 0.000000 -0.010205 0.000000
# 4 0.000000 0.000000 0.000000 -0.059059 0.000000 -0.010519
# 5 0.001304 0.000483 -0.010205 0.000000 0.064340 0.000000
# 6 0.000000 0.000000 0.000000 -0.010519 0.000000 0.010555
#
#
# Mechanical properties :
#
#
# Convention : Reuss Voigt Hill
#
# Bulk Modulus (GPa) = 50.72730 76.62931 63.67831
# Shear Modulus (GPa) = 55.31602 30.97946 43.14774
#
# Velocity S-wave (km/s) = 5.05817 3.78534 4.46732
# Velocity P-wave (km/s) = 7.58789 7.38566 7.48746
#
# Compressibility (1/GPa) = 0.01971325
#
# Stress axis : x y z
#
# Youngs Moduli (GPa) = 95.73513 127.54259 39.12020
#
# Poissons Ratio (x) = 0.37894 0.16138
# Poissons Ratio (y) = 0.28444 0.19448
# Poissons Ratio (z) = 0.39492 0.63405
#
# Static dielectric constant tensor:
#      x y z
#    x 1.789150 0.000000 -0.014080 
#    y 0.000000 1.882590 0.000000 
#    z -0.014080 0.000000 1.764140 
# 
# From -- ./inp_files/130129.got.cif
#   From: 2010.05.17/outbox.cif.g08.bks.cpg/sg15_66_cif.got.tgz:130129.got - 2010.06.03 18:47:42.
