data_PCOD9281841
_publ_section_title
;
Structure prediction by ZEFSAII (Michael W. Deem and Ramdas Pophale) SiO2 
 PCOD9281841
Probable space group: C 2/C
;
_chemical_formula_sum "Si O2"
_cell_formula_units_Z 36
_cell_length_a 10.694020
_cell_length_b 22.845162
_cell_length_c 8.751766
_cell_angle_alpha 90.000000
_cell_angle_beta 124.623938
_cell_angle_gamma 90.000000
_cell_volume 1759.452287
_symmetry_space_group_name_H-M "C 2/C"
_symmetry_group_IT_number 15
_symmetry_cell_setting 'monoclinic'
loop_
_space_group_symop_operation_xyz
x,y,z
-x,y,1/2-z
-x,-y,-z
x,-y,1/2+z
1/2+x,1/2+y,z
1/2-x,1/2+y,1/2-z
1/2-x,1/2-y,-z
1/2+x,1/2-y,1/2+z
loop_
_atom_site_type_symbol
_atom_site_label
_atom_site_fract_x
_atom_site_fract_y
_atom_site_fract_z
Si Si1 0.000000 0.744818 0.250000
Si Si2 0.166827 0.889879 0.853767
Si Si3 0.357578 0.152511 0.761069
Si Si4 0.692654 0.282055 0.659263
Si Si5 0.966364 0.563359 0.406071
O O1 0.863574 0.705858 0.221371
O O2 0.076053 0.782788 0.437142
O O3 0.149173 0.826372 0.761073
O O4 0.293785 0.921546 0.838306
O O5 0.000000 0.917479 0.750000
O O6 0.235897 0.879664 0.069676
O O7 0.500000 0.165951 0.750000
O O8 0.302044 0.214679 0.783643
O O9 0.422722 0.110544 0.936608
O O10 0.000000 0.562443 0.250000
O O11 0.000000 0.500000 0.500000
#
# Coordination Sequence:
#
# PCOD9281841 Si02
#       5
#     4   8   8   8   8
#     4  10  22  30  52  88 138 168 220 260 304 384
#     4  11  23  40  65  99 133 170 218 274 324 382
#     4  10  21  38  65  90 133 177 222 259 325 389
#     4  11  21  35  58  92 141 174 218 254 333 377
#     4  11  25  47  72  94 125 176 224 269 325 397
#
# _framework density 20.460910999999999
#
# number of rings (size 3 to 8) (size 9 to 14) (size 15 to 20)
#    0.000    1.333    0.000    7.333    9.333    0.000 
#    0.000    4.444    0.000    0.000    0.000    0.000 
#    0.000    0.000    0.000    0.000    0.000    0.000 
#
# Total GULP energy -100672.139717 kJ/mol
# GULP energy per Si atom -5592.896651 kJ/mol
# Density = 2.041434 g / cm^3
# Si number density = 20.460911 Si / 1000 Ang^3
#
#
#
# Elastic Constant Matrix: (Units=GPa)
#
#
# Indices 1 2 3 4 5 6 
#
# 1 138.2546 53.5776 89.0439 0.0000 6.6090 0.0000
# 2 53.5776 86.8065 24.9557 0.0000 -11.8947 0.0000
# 3 89.0439 24.9557 148.5813 0.0000 -4.8669 0.0000
# 4 0.0000 0.0000 0.0000 22.0660 0.0000 -4.4448
# 5 6.6090 -11.8947 -4.8669 0.0000 44.8752 0.0000
# 6 0.0000 0.0000 0.0000 -4.4448 0.0000 21.3649
#
#
#
# Elastic Compliance Matrix: (Units=1/GPa)
#
#
# Indices 1 2 3 4 5 6 
#
# 1 0.016172 -0.008298 -0.008478 0.000000 -0.005501 0.000000
# 2 -0.008298 0.016778 0.002349 0.000000 0.005924 0.000000
# 3 -0.008478 0.002349 0.011519 0.000000 0.003121 0.000000
# 4 0.000000 0.000000 0.000000 0.047301 0.000000 0.009841
# 5 -0.005501 0.005924 0.003121 0.000000 0.025003 0.000000
# 6 0.000000 0.000000 0.000000 0.009841 0.000000 0.048853
#
#
# Mechanical properties :
#
#
# Convention : Reuss Voigt Hill
#
# Bulk Modulus (GPa) = 64.04341 78.75518 71.39930
# Shear Modulus (GPa) = 25.03938 31.39890 28.21914
#
# Velocity S-wave (km/s) = 3.50203 3.92162 3.71775
# Velocity P-wave (km/s) = 6.90801 7.68633 7.30754
#
# Compressibility (1/GPa) = 0.01561441
#
# Stress axis : x y z
#
# Youngs Moduli (GPa) = 61.83425 59.60224 86.81254
#
# Poissons Ratio (x) = 0.49458 0.73603
# Poissons Ratio (y) = 0.51310 -0.20392
# Poissons Ratio (z) = 0.52426 -0.14000
#
# Static dielectric constant tensor:
#      x y z
#    x 1.739180 0.000000 0.011060 
#    y 0.000000 1.699090 0.000000 
#    z 0.011060 0.000000 1.745690 
# 
# From -- ./inp_files/31677.got.cif
#   From: 2010.05.17/outbox.cif.g08.bks.cpg/sg15_16_cif.got.tgz:31677.got - 2010.06.03 18:47:42.
