data_PCOD9281793
_publ_section_title
;
Structure prediction by ZEFSAII (Michael W. Deem and Ramdas Pophale) SiO2 
 PCOD9281793
Probable space group: C 2/C
;
_chemical_formula_sum "Si O2"
_cell_formula_units_Z 40
_cell_length_a 12.796764
_cell_length_b 14.467568
_cell_length_c 15.684919
_cell_angle_alpha 90.000000
_cell_angle_beta 31.625645
_cell_angle_gamma 90.000000
_cell_volume 1522.696642
_symmetry_space_group_name_H-M "C 2/C"
_symmetry_group_IT_number 15
_symmetry_cell_setting 'monoclinic'
loop_
_space_group_symop_operation_xyz
x,y,z
-x,y,1/2-z
-x,-y,-z
x,-y,1/2+z
1/2+x,1/2+y,z
1/2-x,1/2+y,1/2-z
1/2-x,1/2-y,-z
1/2+x,1/2-y,1/2+z
loop_
_atom_site_type_symbol
_atom_site_label
_atom_site_fract_x
_atom_site_fract_y
_atom_site_fract_z
Si Si1 0.861256 0.453545 0.928789
Si Si2 0.719130 0.294335 0.139761
Si Si3 0.486411 0.659498 0.400735
Si Si4 0.477464 0.387601 0.443305
Si Si5 0.831676 0.360785 0.530952
O O1 0.000000 0.453949 0.750000
O O2 0.859408 0.361352 0.986758
O O3 0.635547 0.453556 0.045822
O O4 0.919954 0.539063 0.948491
O O5 0.500000 0.287596 0.250000
O O6 0.666361 0.345599 0.263763
O O7 0.815151 0.194210 0.071285
O O8 0.461869 0.596021 0.501265
O O9 0.315800 0.649012 0.448253
O O10 0.694870 0.639368 0.209832
O O11 0.462465 0.768137 0.442051
#
# Coordination Sequence:
#
# PCOD9281793 Si02
#       5
#     8   8   8   8   8
#     4  11  24  41  64  93 129 167 209 262 320 375
#     4  10  21  38  64  95 130 166 201 258 326 377
#     4  10  23  42  66  89 125 168 213 255 315 380
#     4  11  21  40  68  95 127 163 216 258 311 379
#     4  10  24  43  66  88 129 170 212 253 327 378
#
# _framework density 26.269186000000001
#
# number of rings (size 3 to 8) (size 9 to 14) (size 15 to 20)
#    0.000    1.600    0.000    5.400   14.000    0.800 
#    0.000    2.000    0.000    0.000    0.000    0.000 
#    0.000    0.000    0.000    0.000    0.000    0.000 
#
# Total GULP energy -111979.839303 kJ/mol
# GULP energy per Si atom -5598.991965 kJ/mol
# Density = 2.620940 g / cm^3
# Si number density = 26.269186 Si / 1000 Ang^3
#
#
#
# Elastic Constant Matrix: (Units=GPa)
#
#
# Indices 1 2 3 4 5 6 
#
# 1 86.8025 2.3608 10.9590 -0.0010 19.3743 0.0009
# 2 2.3608 82.5932 0.2495 -0.0049 -2.2487 0.0030
# 3 10.9590 0.2495 98.9847 -0.0059 29.3020 0.0036
# 4 -0.0010 -0.0049 -0.0059 14.4875 0.0037 -1.1189
# 5 19.3743 -2.2487 29.3020 0.0037 47.7620 -0.0016
# 6 0.0009 0.0030 0.0036 -1.1189 -0.0016 50.9342
#
#
#
# Elastic Compliance Matrix: (Units=1/GPa)
#
#
# Indices 1 2 3 4 5 6 
#
# 1 0.012690 -0.000507 0.000155 0.000002 -0.005267 0.000000
# 2 -0.000507 0.012148 -0.000250 0.000004 0.000931 -0.000001
# 3 0.000155 -0.000250 0.012351 0.000007 -0.007652 -0.000001
# 4 0.000002 0.000004 0.000007 0.069142 -0.000010 0.001519
# 5 -0.005267 0.000931 -0.007652 -0.000010 0.027812 0.000001
# 6 0.000000 -0.000001 -0.000001 0.001519 0.000001 0.019667
#
#
# Mechanical properties :
#
#
# Convention : Reuss Voigt Hill
#
# Bulk Modulus (GPa) = 27.78785 32.83547 30.31166
# Shear Modulus (GPa) = 29.93854 39.62413 34.78134
#
# Velocity S-wave (km/s) = 3.37958 3.88801 3.64268
# Velocity P-wave (km/s) = 5.08231 5.71684 5.40889
#
# Compressibility (1/GPa) = 0.03598696
#
# Stress axis : x y z
#
# Youngs Moduli (GPa) = 78.80142 82.31732 80.96330
#
# Poissons Ratio (x) = 0.04170 -0.01258
# Poissons Ratio (y) = 0.03992 0.02025
# Poissons Ratio (z) = -0.01225 0.02059
#
# Static dielectric constant tensor:
#      x y z
#    x 2.155740 0.000000 -0.016640 
#    y 0.000000 2.099900 0.000000 
#    z -0.016640 0.000000 1.977940 
# 
# From -- ./inp_files/55153.got.cif
#   From: 2010.05.17/outbox.cif.g08.bks.cpg/sg15_28_cif.got.tgz:55153.got - 2010.06.03 18:47:42.
