data_PCOD9281711
_publ_section_title
;
Structure prediction by ZEFSAII (Michael W. Deem and Ramdas Pophale) SiO2 
 PCOD9281711
Probable space group: C 2/C
;
_chemical_formula_sum "Si O2"
_cell_formula_units_Z 36
_cell_length_a 7.399038
_cell_length_b 27.268087
_cell_length_c 8.209482
_cell_angle_alpha 90.000000
_cell_angle_beta 95.283987
_cell_angle_gamma 90.000000
_cell_volume 1649.286887
_symmetry_space_group_name_H-M "C 2/C"
_symmetry_group_IT_number 15
_symmetry_cell_setting 'monoclinic'
loop_
_space_group_symop_operation_xyz
x,y,z
-x,y,1/2-z
-x,-y,-z
x,-y,1/2+z
1/2+x,1/2+y,z
1/2-x,1/2+y,1/2-z
1/2-x,1/2-y,-z
1/2+x,1/2-y,1/2+z
loop_
_atom_site_type_symbol
_atom_site_label
_atom_site_fract_x
_atom_site_fract_y
_atom_site_fract_z
Si Si1 0.821550 0.071822 0.547782
Si Si2 0.500000 0.652550 0.750000
Si Si3 0.054530 0.613878 0.063629
Si Si4 0.673908 0.207984 0.875092
Si Si5 0.287739 0.976049 0.786692
O O1 0.963402 0.114039 0.600717
O O2 0.626606 0.098242 0.544354
O O3 0.822011 0.048741 0.368704
O O4 0.806355 0.025144 0.663331
O O5 0.330433 0.687203 0.770666
O O6 0.185722 0.566342 0.075579
O O7 0.000000 0.621696 0.250000
O O8 0.125889 0.662361 0.987649
O O9 0.500000 0.222298 0.750000
O O10 0.750000 0.250000 0.000000
O O11 0.500000 0.985995 0.750000
#
# Coordination Sequence:
#
# PCOD9281711 Si02
#       5
#     8   4   8   8   8
#     4  10  21  38  64 100 147 182 232 279 335 427
#     4  12  28  44  72 108 134 186 240 284 370 420
#     4   9  20  43  71  99 139 190 233 287 351 413
#     4  12  29  50  79 102 140 184 235 314 362 429
#     4   9  19  34  66 102 139 194 231 274 340 412
#
# _framework density 21.827615000000002
#
# number of rings (size 3 to 8) (size 9 to 14) (size 15 to 20)
#    0.000    2.222    2.222    2.667    7.778    5.333 
#    0.000    0.000    0.000    0.000    0.000    0.000 
#    0.000    0.000    0.000    0.000    0.000    0.000 
#
# Total GULP energy -100599.116055 kJ/mol
# GULP energy per Si atom -5588.839781 kJ/mol
# Density = 2.177793 g / cm^3
# Si number density = 21.827615 Si / 1000 Ang^3
#
#
#
# Elastic Constant Matrix: (Units=GPa)
#
#
# Indices 1 2 3 4 5 6 
#
# 1 89.3573 55.1454 43.9078 0.0000 20.3165 0.0000
# 2 55.1454 135.7446 41.0922 0.0000 14.7344 0.0000
# 3 43.9078 41.0922 67.2714 0.0000 27.8779 0.0000
# 4 0.0000 0.0000 0.0000 38.3800 0.0000 8.6973
# 5 20.3165 14.7344 27.8779 0.0000 30.1822 0.0000
# 6 0.0000 0.0000 0.0000 8.6973 0.0000 23.3900
#
#
#
# Elastic Compliance Matrix: (Units=1/GPa)
#
#
# Indices 1 2 3 4 5 6 
#
# 1 0.018849 -0.004882 -0.008182 0.000000 -0.002747 0.000000
# 2 -0.004882 0.010326 -0.003878 0.000000 0.001828 0.000000
# 3 -0.008182 -0.003878 0.031605 0.000000 -0.021791 0.000000
# 4 0.000000 0.000000 0.000000 0.028453 0.000000 -0.010580
# 5 -0.002747 0.001828 -0.021791 0.000000 0.054217 0.000000
# 6 0.000000 0.000000 0.000000 -0.010580 0.000000 0.046687
#
#
# Mechanical properties :
#
#
# Convention : Reuss Voigt Hill
#
# Bulk Modulus (GPa) = 37.18171 63.62933 50.40552
# Shear Modulus (GPa) = 21.46050 28.53896 24.99973
#
# Velocity S-wave (km/s) = 3.13897 3.61982 3.38794
# Velocity P-wave (km/s) = 5.49625 6.83264 6.20055
#
# Compressibility (1/GPa) = 0.02689494
#
# Stress axis : x y z
#
# Youngs Moduli (GPa) = 53.05315 96.84506 31.64064
#
# Poissons Ratio (x) = 0.47283 0.25888
# Poissons Ratio (y) = 0.25902 0.12271
# Poissons Ratio (z) = 0.43408 0.37558
#
# Static dielectric constant tensor:
#      x y z
#    x 1.843870 0.000000 -0.004210 
#    y 0.000000 1.750250 0.000000 
#    z -0.004210 0.000000 1.839020 
# 
# From -- ./inp_files/23852.got.cif
#   From: 2010.05.17/outbox.cif.g08.bks.cpg/sg15_12_cif.got.tgz:23852.got - 2010.06.03 18:47:42.
