data_PCOD9281014
_publ_section_title
;
Structure prediction by ZEFSAII (Michael W. Deem and Ramdas Pophale) SiO2 
 PCOD9281014
Probable space group: C 2/C
;
_chemical_formula_sum "Si O2"
_cell_formula_units_Z 32
_cell_length_a 15.414625
_cell_length_b 17.049146
_cell_length_c 5.316152
_cell_angle_alpha 90.000000
_cell_angle_beta 66.700594
_cell_angle_gamma 90.000000
_cell_volume 1283.183392
_symmetry_space_group_name_H-M "C 2/C"
_symmetry_group_IT_number 15
_symmetry_cell_setting 'monoclinic'
loop_
_space_group_symop_operation_xyz
x,y,z
-x,y,1/2-z
-x,-y,-z
x,-y,1/2+z
1/2+x,1/2+y,z
1/2-x,1/2+y,1/2-z
1/2-x,1/2-y,-z
1/2+x,1/2-y,1/2+z
loop_
_atom_site_type_symbol
_atom_site_label
_atom_site_fract_x
_atom_site_fract_y
_atom_site_fract_z
Si Si1 0.390989 0.469109 0.814479
Si Si2 0.138365 0.797571 0.875280
Si Si3 0.133561 0.286976 0.880521
Si Si4 0.893858 0.533244 0.134552
O O1 0.500000 0.489756 0.750000
O O2 0.350063 0.525964 0.644224
O O3 0.386523 0.383828 0.693278
O O4 0.104678 0.738767 0.693819
O O5 0.252256 0.791630 0.749547
O O6 0.105535 0.773264 0.191568
O O7 0.100890 0.373886 0.849163
O O8 0.847372 0.491913 0.426427
O O9 0.000000 0.500000 0.000000
#
# Coordination Sequence:
#
# PCOD9281014 Si02
#       4
#     8   8   8   8
#     4  10  21  38  58  84 116 144 191 243 291 350
#     4  10  21  38  59  88 112 157 195 242 297 347
#     4  10  21  38  59  83 122 149 200 243 285 358
#     4  10  21  38  56  81 119 157 192 242 289 349
#
# _framework density 24.93798
#
# number of rings (size 3 to 8) (size 9 to 14) (size 15 to 20)
#    0.000    2.000    0.000    3.000    0.000    2.000 
#   13.500    0.000    0.000    0.000    0.000    0.000 
#    0.000    0.000    0.000    0.000    0.000    0.000 
#
# Total GULP energy -89524.853956 kJ/mol
# GULP energy per Si atom -5595.303372 kJ/mol
# Density = 2.488122 g / cm^3
# Si number density = 24.937980 Si / 1000 Ang^3
#
#
#
# Elastic Constant Matrix: (Units=GPa)
#
#
# Indices 1 2 3 4 5 6 
#
# 1 111.7753 13.4095 38.8920 0.0000 13.2747 0.0000
# 2 13.4095 135.7603 30.9906 0.0000 38.7871 0.0000
# 3 38.8920 30.9906 149.8098 0.0000 64.3517 0.0000
# 4 0.0000 0.0000 0.0000 45.4257 0.0000 14.4589
# 5 13.2747 38.7871 64.3517 0.0000 49.1665 0.0000
# 6 0.0000 0.0000 0.0000 14.4589 0.0000 52.6074
#
#
#
# Elastic Compliance Matrix: (Units=1/GPa)
#
#
# Indices 1 2 3 4 5 6 
#
# 1 0.009976 -0.000948 -0.003559 0.000000 0.002713 0.000000
# 2 -0.000948 0.010171 0.003378 0.000000 -0.012189 0.000000
# 3 -0.003559 0.003378 0.017434 0.000000 -0.024523 0.000000
# 4 0.000000 0.000000 0.000000 0.024124 0.000000 -0.006631
# 5 0.002713 -0.012189 -0.024523 0.000000 0.061319 0.000000
# 6 0.000000 0.000000 0.000000 -0.006631 0.000000 0.020831
#
#
# Mechanical properties :
#
#
# Convention : Reuss Voigt Hill
#
# Bulk Modulus (GPa) = 28.30977 62.65886 45.48431
# Shear Modulus (GPa) = 31.66784 50.37681 41.02232
#
# Velocity S-wave (km/s) = 3.56738 4.49941 4.06023
# Velocity P-wave (km/s) = 5.32400 7.22311 6.34501
#
# Compressibility (1/GPa) = 0.03532350
#
# Stress axis : x y z
#
# Youngs Moduli (GPa) = 100.23582 98.31960 57.35857
#
# Poissons Ratio (x) = 0.09320 0.20414
# Poissons Ratio (y) = 0.09502 -0.19376
# Poissons Ratio (z) = 0.35675 -0.33212
#
# Static dielectric constant tensor:
#      x y z
#    x 1.934430 0.000000 -0.012320 
#    y 0.000000 1.897130 0.000000 
#    z -0.012320 0.000000 2.128940 
# 
# From -- ./inp_files/9453.got.cif
#   From: 2010.05.17/outbox.cif.g08.bks.cpg/sg15_5_cif.got.tgz:9453.got - 2010.06.03 18:47:42.
