data_PCOD9281098
_publ_section_title
;
Structure prediction by ZEFSAII (Michael W. Deem and Ramdas Pophale) SiO2 
 PCOD9281098
Probable space group: C 2/C
;
_chemical_formula_sum "Si O2"
_cell_formula_units_Z 60
_cell_length_a 15.473799
_cell_length_b 14.802618
_cell_length_c 21.921204
_cell_angle_alpha 90.000000
_cell_angle_beta 151.150505
_cell_angle_gamma 90.000000
_cell_volume 2422.739100
_symmetry_space_group_name_H-M "C 2/C"
_symmetry_group_IT_number 15
_symmetry_cell_setting 'monoclinic'
loop_
_space_group_symop_operation_xyz
x,y,z
-x,y,1/2-z
-x,-y,-z
x,-y,1/2+z
1/2+x,1/2+y,z
1/2-x,1/2+y,1/2-z
1/2-x,1/2-y,-z
1/2+x,1/2-y,1/2+z
loop_
_atom_site_type_symbol
_atom_site_label
_atom_site_fract_x
_atom_site_fract_y
_atom_site_fract_z
Si Si1 0.000000 0.022361 0.250000
Si Si2 0.807497 0.782877 0.733532
Si Si3 0.308999 0.943159 0.663167
Si Si4 0.065886 0.307135 0.944900
Si Si5 0.836255 0.779705 0.878083
Si Si6 0.820375 0.146397 0.053857
Si Si7 0.276466 0.371701 0.395633
Si Si8 0.615342 0.611911 0.923531
O O1 0.167893 0.089267 0.375878
O O2 0.998432 0.953250 0.307591
O O3 0.612001 0.823399 0.623874
O O4 0.837012 0.727683 0.814971
O O5 0.832266 0.714684 0.693616
O O6 0.967190 0.852226 0.828648
O O7 0.500000 0.946110 0.750000
O O8 0.307100 0.860726 0.709275
O O9 0.157548 0.923161 0.517954
O O10 0.263261 0.038117 0.665417
O O11 0.047166 0.215208 0.892100
O O12 0.194909 0.275028 0.080609
O O13 0.187594 0.379124 0.985681
O O14 0.024619 0.834261 0.993354
O O15 0.750000 0.250000 0.000000
O O16 0.737306 0.102754 0.941728
#
# Coordination Sequence:
#
# PCOD9281098 Si02
#       8
#     4   8   8   8   8   8   8   8
#     4  12  24  42  68 100 134 174 226 280 334 392
#     4  10  21  39  62  88 120 173 216 265 323 396
#     4  11  21  36  60  88 124 164 208 271 318 385
#     4   9  20  40  63  94 127 169 210 260 335 397
#     4   9  20  37  57  85 120 159 206 253 320 386
#     4  11  24  42  65  87 129 172 220 273 324 388
#     4  10  21  38  58  84 118 157 214 256 318 376
#     4  10  22  39  64  97 134 167 215 272 330 403
#
# _framework density 24.765357000000002
#
# number of rings (size 3 to 8) (size 9 to 14) (size 15 to 20)
#    0.000    1.867    1.333    2.000    3.733    0.000 
#    2.400    0.667    0.000    0.000    0.000    0.000 
#    0.000    0.000    0.000    0.000    0.000    0.000 
#
# Total GULP energy -167021.510075 kJ/mol
# GULP energy per Si atom -5567.383669 kJ/mol
# Density = 2.470899 g / cm^3
# Si number density = 24.765357 Si / 1000 Ang^3
#
#
#
# Elastic Constant Matrix: (Units=GPa)
#
#
# Indices 1 2 3 4 5 6 
#
# 1 68.8916 4.0504 27.5022 0.0009 -9.2470 0.0006
# 2 4.0504 85.6293 18.4469 0.0052 -9.5137 0.0010
# 3 27.5022 18.4469 58.9728 0.0065 -10.0096 0.0029
# 4 0.0009 0.0052 0.0065 35.3947 0.0034 -5.5914
# 5 -9.2470 -9.5137 -10.0096 0.0034 55.0051 0.0021
# 6 0.0006 0.0010 0.0029 -5.5914 0.0021 24.4560
#
#
#
# Elastic Compliance Matrix: (Units=1/GPa)
#
#
# Indices 1 2 3 4 5 6 
#
# 1 0.018069 0.001165 -0.008504 0.000001 0.001692 0.000001
# 2 0.001165 0.012718 -0.004246 -0.000001 0.001623 -0.000001
# 3 -0.008504 -0.004246 0.022581 -0.000004 0.001945 -0.000003
# 4 0.000001 -0.000001 -0.000004 0.029311 -0.000003 0.006702
# 5 0.001692 0.001623 0.001945 -0.000003 0.019099 -0.000003
# 6 0.000001 -0.000001 -0.000003 0.006702 -0.000003 0.042422
#
#
# Mechanical properties :
#
#
# Convention : Reuss Voigt Hill
#
# Bulk Modulus (GPa) = 33.11420 34.83252 33.97336
# Shear Modulus (GPa) = 28.17902 33.87079 31.02491
#
# Velocity S-wave (km/s) = 3.37685 3.70221 3.54327
# Velocity P-wave (km/s) = 5.34830 5.68953 5.52155
#
# Compressibility (1/GPa) = 0.03019853
#
# Stress axis : x y z
#
# Youngs Moduli (GPa) = 55.34355 78.62751 44.28462
#
# Poissons Ratio (x) = -0.09162 0.37659
# Poissons Ratio (y) = -0.06449 0.18804
# Poissons Ratio (z) = 0.47064 0.33387
#
# Static dielectric constant tensor:
#      x y z
#    x 1.955640 0.000000 -0.061310 
#    y 0.000000 2.024370 0.000000 
#    z -0.061310 0.000000 2.151390 
# 
# From -- ./inp_files/277569.got.cif
#   From: 2010.05.17/outbox.cif.g08.bks.cpg/sg15_139_cif.got.tgz:277569.got - 2010.06.03 18:47:42.
