data_PCOD9281676
_publ_section_title
;
Structure prediction by ZEFSAII (Michael W. Deem and Ramdas Pophale) SiO2 
 PCOD9281676
Probable space group: C 2/C
;
_chemical_formula_sum "Si O2"
_cell_formula_units_Z 48
_cell_length_a 5.462927
_cell_length_b 21.648141
_cell_length_c 20.305687
_cell_angle_alpha 90.000000
_cell_angle_beta 103.292670
_cell_angle_gamma 90.000000
_cell_volume 2337.058023
_symmetry_space_group_name_H-M "C 2/C"
_symmetry_group_IT_number 15
_symmetry_cell_setting 'monoclinic'
loop_
_space_group_symop_operation_xyz
x,y,z
-x,y,1/2-z
-x,-y,-z
x,-y,1/2+z
1/2+x,1/2+y,z
1/2-x,1/2+y,1/2-z
1/2-x,1/2-y,-z
1/2+x,1/2-y,1/2+z
loop_
_atom_site_type_symbol
_atom_site_label
_atom_site_fract_x
_atom_site_fract_y
_atom_site_fract_z
Si Si1 0.263138 0.517046 0.438184
Si Si2 0.749508 0.715180 0.912059
Si Si3 0.287089 0.290881 0.790319
Si Si4 0.068283 0.192764 0.500938
Si Si5 0.291307 0.433914 0.794680
Si Si6 0.047473 0.599122 0.985997
O O1 0.500000 0.500000 0.500000
O O2 0.321396 0.528796 0.365240
O O3 0.084744 0.457505 0.438705
O O4 0.110196 0.573836 0.462106
O O5 0.792560 0.734712 0.841272
O O6 0.815967 0.781562 0.951180
O O7 0.914147 0.656624 0.942989
O O8 0.482095 0.693715 0.924117
O O9 0.500000 0.279464 0.750000
O O10 0.333996 0.361638 0.815901
O O11 0.000000 0.292578 0.750000
O O12 0.250000 0.250000 0.500000
O O13 0.182871 0.130113 0.480516
O O14 0.500000 0.448305 0.750000
O O15 0.000000 0.440845 0.750000
#
# Coordination Sequence:
#
# PCOD9281676 Si02
#       6
#     8   8   8   8   8   8
#     4  11  25  42  71  98 134 178 236 293 334 406
#     4  10  21  38  63  95 132 167 215 272 344 402
#     4  10  24  41  66  97 129 178 223 275 336 416
#     4   9  20  34  60  96 125 166 199 274 335 397
#     4  10  25  46  70  98 136 181 232 283 350 415
#     4  10  23  39  63 100 132 166 222 280 351 392
#
# _framework density 20.538641999999999
#
# number of rings (size 3 to 8) (size 9 to 14) (size 15 to 20)
#    0.000    2.000    0.000    1.000   18.667    1.333 
#    0.000    0.833    0.000    0.000    0.000    0.000 
#    0.000    0.000    0.000    0.000    0.000    0.000 
#
# Total GULP energy -133624.290599 kJ/mol
# GULP energy per Si atom -5567.678775 kJ/mol
# Density = 2.049189 g / cm^3
# Si number density = 20.538642 Si / 1000 Ang^3
#
#
#
# Elastic Constant Matrix: (Units=GPa)
#
#
# Indices 1 2 3 4 5 6 
#
# 1 116.7235 40.6543 59.8839 0.0000 -33.8325 0.0000
# 2 40.6543 111.7942 54.8230 0.0000 -11.7136 0.0000
# 3 59.8839 54.8230 121.8093 0.0000 -28.1692 0.0000
# 4 0.0000 0.0000 0.0000 36.7338 0.0000 -9.0497
# 5 -33.8325 -11.7136 -28.1692 0.0000 27.6875 0.0000
# 6 0.0000 0.0000 0.0000 -9.0497 0.0000 42.7378
#
#
#
# Elastic Compliance Matrix: (Units=1/GPa)
#
#
# Indices 1 2 3 4 5 6 
#
# 1 0.015158 -0.002544 -0.002972 0.000000 0.014423 0.000000
# 2 -0.002544 0.011911 -0.004791 0.000000 -0.002944 0.000000
# 3 -0.002972 -0.004791 0.013755 0.000000 0.008335 0.000000
# 4 0.000000 0.000000 0.000000 0.028721 0.000000 0.006082
# 5 0.014423 -0.002944 0.008335 0.000000 0.060976 0.000000
# 6 0.000000 0.000000 0.000000 0.006082 0.000000 0.024686
#
#
# Mechanical properties :
#
#
# Convention : Reuss Voigt Hill
#
# Bulk Modulus (GPa) = 49.47877 73.44993 61.46435
# Shear Modulus (GPa) = 27.38851 34.42955 30.90903
#
# Velocity S-wave (km/s) = 3.65569 4.09874 3.88354
# Velocity P-wave (km/s) = 6.47778 7.63145 7.07816
#
# Compressibility (1/GPa) = 0.02021069
#
# Stress axis : x y z
#
# Youngs Moduli (GPa) = 65.96966 83.95527 72.70340
#
# Poissons Ratio (x) = 0.21357 0.21607
# Poissons Ratio (y) = 0.16781 0.34832
# Poissons Ratio (z) = 0.19606 0.40223
#
# Static dielectric constant tensor:
#      x y z
#    x 1.932590 0.000000 0.037080 
#    y 0.000000 1.731570 0.000000 
#    z 0.037080 0.000000 1.843770 
# 
# From -- ./inp_files/185285.got.cif
#   From: 2010.05.17/outbox.cif.g08.bks.cpg/sg15_93_cif.got.tgz:185285.got - 2010.06.03 18:47:42.
