data_PCOD9281657
_publ_section_title
;
Structure prediction by ZEFSAII (Michael W. Deem and Ramdas Pophale) SiO2 
 PCOD9281657
Probable space group: C 2/C
;
_chemical_formula_sum "Si O2"
_cell_formula_units_Z 44
_cell_length_a 16.236102
_cell_length_b 8.163242
_cell_length_c 15.731859
_cell_angle_alpha 90.000000
_cell_angle_beta 106.353580
_cell_angle_gamma 90.000000
_cell_volume 2000.730815
_symmetry_space_group_name_H-M "C 2/C"
_symmetry_group_IT_number 15
_symmetry_cell_setting 'monoclinic'
loop_
_space_group_symop_operation_xyz
x,y,z
-x,y,1/2-z
-x,-y,-z
x,-y,1/2+z
1/2+x,1/2+y,z
1/2-x,1/2+y,1/2-z
1/2-x,1/2-y,-z
1/2+x,1/2-y,1/2+z
loop_
_atom_site_type_symbol
_atom_site_label
_atom_site_fract_x
_atom_site_fract_y
_atom_site_fract_z
Si Si1 0.385347 0.455038 0.308049
Si Si2 0.815601 0.197618 0.615777
Si Si3 0.641328 0.342589 0.549337
Si Si4 0.088130 0.462216 0.402650
Si Si5 0.000000 0.222635 0.250000
Si Si6 0.462108 0.806505 0.956122
O O1 0.342323 0.375384 0.213331
O O2 0.330898 0.537295 0.367519
O O3 0.446178 0.600008 0.293159
O O4 0.433460 0.317059 0.375139
O O5 0.713128 0.202654 0.577432
O O6 0.850279 0.094331 0.545104
O O7 0.855263 0.381653 0.611020
O O8 0.544144 0.278644 0.526193
O O9 0.064827 0.339108 0.320801
O O10 0.108885 0.358186 0.494666
O O11 0.999934 0.542653 0.413118
#
# Coordination Sequence:
#
# PCOD9281657 Si02
#       6
#     8   8   8   8   4   8
#     4  12  24  40  69  98 127 174 224 273 325 399
#     4  10  24  45  65  94 139 175 216 273 339 391
#     4  10  22  44  66  92 133 176 213 276 332 390
#     4  10  21  38  63  93 126 170 214 269 321 391
#     4  12  22  34  66 102 124 164 234 272 320 388
#     4  10  21  42  67  92 127 173 219 268 329 386
#
# _framework density 21.991962000000001
#
# number of rings (size 3 to 8) (size 9 to 14) (size 15 to 20)
#    0.000    1.455    1.818    3.818    2.545    1.455 
#   13.091    0.909    0.000    0.000    0.000    0.000 
#    0.000    0.000    0.000    0.000    0.000    0.000 
#
# Total GULP energy -122627.672101 kJ/mol
# GULP energy per Si atom -5573.985096 kJ/mol
# Density = 2.194191 g / cm^3
# Si number density = 21.991962 Si / 1000 Ang^3
#
#
#
# Elastic Constant Matrix: (Units=GPa)
#
#
# Indices 1 2 3 4 5 6 
#
# 1 12.9855 -6.3665 42.4192 0.0000 5.3505 0.0000
# 2 -6.3665 71.0773 74.5892 0.0000 -4.5942 0.0000
# 3 42.4192 74.5892 193.0117 0.0000 -17.7880 0.0000
# 4 0.0000 0.0000 0.0000 67.9473 0.0000 -14.2251
# 5 5.3505 -4.5942 -17.7880 0.0000 16.2120 0.0000
# 6 0.0000 0.0000 0.0000 -14.2251 0.0000 15.5439
#
#
#
# Elastic Compliance Matrix: (Units=1/GPa)
#
#
# Indices 1 2 3 4 5 6 
#
# 1 -0.061694 -0.035648 0.031462 0.000000 0.044779 0.000000
# 2 -0.035648 0.003271 0.008611 0.000000 0.022140 0.000000
# 3 0.031462 0.008611 -0.006445 0.000000 -0.015015 0.000000
# 4 0.000000 0.000000 0.000000 0.018205 0.000000 0.016661
# 5 0.044779 0.022140 -0.015015 0.000000 0.036704 0.000000
# 6 0.000000 0.000000 0.000000 0.016661 0.000000 0.079581
#
#
# Mechanical properties :
#
#
# Convention : Reuss Voigt Hill
#
# Bulk Modulus (GPa) = -17.85130 55.37314 18.76092
# Shear Modulus (GPa) = 118.76463 31.03616 74.90039
#
# Velocity S-wave (km/s) = 7.35669 3.76074 5.84226
# Velocity P-wave (km/s) = 8.00165 6.64010 7.35246
#
# Compressibility (1/GPa) = -0.05601832
#
# Stress axis : x y z
#
# Youngs Moduli (GPa) = -16.20908 305.73403 -155.16103
#
# Poissons Ratio (x) = 10.89876 4.88163
# Poissons Ratio (y) = -0.57782 1.33608
# Poissons Ratio (z) = 0.50997 -2.63266
#
# Static dielectric constant tensor:
#      x y z
#    x 1.794470 0.000000 0.052740 
#    y 0.000000 2.032450 0.000000 
#    z 0.052740 0.000000 1.608620 
# 
# From -- ./inp_files/159405.got.cif
#   From: 2010.05.17/outbox.cif.g08.bks.cpg/sg15_80_cif.got.tgz:159405.got - 2010.06.03 18:47:42.
