data_PCOD9281751
_publ_section_title
;
Structure prediction by ZEFSAII (Michael W. Deem and Ramdas Pophale) SiO2 
 PCOD9281751
Probable space group: C 2/C
;
_chemical_formula_sum "Si O2"
_cell_formula_units_Z 44
_cell_length_a 8.136058
_cell_length_b 27.041537
_cell_length_c 9.848543
_cell_angle_alpha 90.000000
_cell_angle_beta 113.486013
_cell_angle_gamma 90.000000
_cell_volume 1987.290074
_symmetry_space_group_name_H-M "C 2/C"
_symmetry_group_IT_number 15
_symmetry_cell_setting 'monoclinic'
loop_
_space_group_symop_operation_xyz
x,y,z
-x,y,1/2-z
-x,-y,-z
x,-y,1/2+z
1/2+x,1/2+y,z
1/2-x,1/2+y,1/2-z
1/2-x,1/2-y,-z
1/2+x,1/2-y,1/2+z
loop_
_atom_site_type_symbol
_atom_site_label
_atom_site_fract_x
_atom_site_fract_y
_atom_site_fract_z
Si Si1 0.000000 0.910527 0.750000
Si Si2 0.682116 0.332170 0.005131
Si Si3 0.300103 0.026245 0.190255
Si Si4 0.211508 0.842202 0.317760
Si Si5 0.793647 0.949837 0.133383
Si Si6 0.005796 0.735759 0.587011
O O1 0.896405 0.875473 0.610266
O O2 0.850775 0.942346 0.780042
O O3 0.529356 0.290436 0.978879
O O4 0.753789 0.351233 0.172344
O O5 0.841514 0.300141 0.990942
O O6 0.500000 0.048623 0.250000
O O7 0.314067 0.976015 0.281799
O O8 0.232229 0.020369 0.014139
O O9 0.259366 0.892846 0.409833
O O10 0.317143 0.793490 0.394801
O O11 0.000000 0.835436 0.250000
O O12 0.000000 0.949072 0.250000
O O13 0.000000 0.740169 0.750000
#
# Coordination Sequence:
#
# PCOD9281751 Si02
#       6
#     4   8   8   8   8   8
#     4  12  24  42  70  96 144 178 224 290 346 402
#     4  10  21  38  64  91 126 178 224 271 342 405
#     4  12  28  45  71 105 140 183 238 287 351 415
#     4  10  22  38  65  94 132 171 225 282 345 400
#     4  11  24  47  70  99 144 184 230 289 351 418
#     4   9  19  39  61  91 124 171 229 273 326 418
#
# _framework density 22.140703999999999
#
# number of rings (size 3 to 8) (size 9 to 14) (size 15 to 20)
#    0.000    1.455    1.818    3.273    5.091    2.909 
#    0.000    0.909    0.000    0.000    0.000    0.000 
#    0.000    0.000    0.000    0.000    0.000    0.000 
#
# Total GULP energy -122961.451522 kJ/mol
# GULP energy per Si atom -5589.156887 kJ/mol
# Density = 2.209031 g / cm^3
# Si number density = 22.140704 Si / 1000 Ang^3
#
#
#
# Elastic Constant Matrix: (Units=GPa)
#
#
# Indices 1 2 3 4 5 6 
#
# 1 87.2561 36.9797 25.2790 0.0000 2.9005 0.0000
# 2 36.9797 79.1481 10.2593 0.0000 -1.5671 0.0000
# 3 25.2790 10.2593 74.9194 0.0000 -0.5802 0.0000
# 4 0.0000 0.0000 0.0000 -9.9721 0.0000 -10.0325
# 5 2.9005 -1.5671 -0.5802 0.0000 25.4206 0.0000
# 6 0.0000 0.0000 0.0000 -10.0325 0.0000 5.7101
#
#
#
# Elastic Compliance Matrix: (Units=1/GPa)
#
#
# Indices 1 2 3 4 5 6 
#
# 1 0.015692 -0.006810 -0.004380 0.000000 -0.002310 0.000000
# 2 -0.006810 0.015832 0.000143 0.000000 0.001756 0.000000
# 3 -0.004380 0.000143 0.014813 0.000000 0.000847 0.000000
# 4 0.000000 0.000000 0.000000 -0.036233 0.000000 -0.063661
# 5 -0.002310 0.001756 0.000847 0.000000 0.039729 0.000000
# 6 0.000000 0.000000 0.000000 -0.063661 0.000000 0.063277
#
#
# Mechanical properties :
#
#
# Convention : Reuss Voigt Hill
#
# Bulk Modulus (GPa) = 41.24753 42.92886 42.08820
# Shear Modulus (GPa) = 34.89530 15.48543 25.19037
#
# Velocity S-wave (km/s) = 3.97428 2.64751 3.37670
# Velocity P-wave (km/s) = 6.30318 5.36441 5.85265
#
# Compressibility (1/GPa) = 0.02424388
#
# Stress axis : x y z
#
# Youngs Moduli (GPa) = 63.72533 63.16149 67.51022
#
# Poissons Ratio (x) = 0.43012 0.29571
# Poissons Ratio (y) = 0.43396 -0.00967
# Poissons Ratio (z) = 0.27913 -0.00905
#
# Static dielectric constant tensor:
#      x y z
#    x 1.854170 0.000000 -0.013730 
#    y 0.000000 1.816630 0.000000 
#    z -0.013730 0.000000 1.816150 
# 
# From -- ./inp_files/25734.got.cif
#   From: 2010.05.17/outbox.cif.g08.bks.cpg/sg15_13_cif.got.tgz:25734.got - 2010.06.03 18:47:42.
