data_PCOD9281411
_publ_section_title
;
Structure prediction by ZEFSAII (Michael W. Deem and Ramdas Pophale) SiO2 
 PCOD9281411
Probable space group: C 2/C
;
_chemical_formula_sum "Si O2"
_cell_formula_units_Z 64
_cell_length_a 30.819052
_cell_length_b 11.180603
_cell_length_c 19.786437
_cell_angle_alpha 90.000000
_cell_angle_beta 151.004805
_cell_angle_gamma 90.000000
_cell_volume 3304.894619
_symmetry_space_group_name_H-M "C 2/C"
_symmetry_group_IT_number 15
_symmetry_cell_setting 'monoclinic'
loop_
_space_group_symop_operation_xyz
x,y,z
-x,y,1/2-z
-x,-y,-z
x,-y,1/2+z
1/2+x,1/2+y,z
1/2-x,1/2+y,1/2-z
1/2-x,1/2-y,-z
1/2+x,1/2-y,1/2+z
loop_
_atom_site_type_symbol
_atom_site_label
_atom_site_fract_x
_atom_site_fract_y
_atom_site_fract_z
Si Si1 0.976665 0.442309 0.080715
Si Si2 0.765957 0.877740 0.332279
Si Si3 0.722503 0.706613 0.035587
Si Si4 0.892112 0.249316 0.191295
Si Si5 0.743632 0.346364 0.891990
Si Si6 0.810091 0.422481 0.418214
Si Si7 0.599386 0.484973 0.889436
Si Si8 0.376739 0.935798 0.805671
O O1 0.020653 0.328909 0.177409
O O2 0.057199 0.528104 0.165050
O O3 0.902213 0.510640 0.023039
O O4 0.930615 0.406159 0.947058
O O5 0.767608 0.743850 0.363655
O O6 0.857553 0.943253 0.480364
O O7 0.740029 0.884481 0.218960
O O8 0.686800 0.950609 0.263230
O O9 0.812162 0.670865 0.197617
O O10 0.673888 0.809004 0.012435
O O11 0.750000 0.750000 0.000000
O O12 0.665263 0.586028 0.951803
O O13 0.848498 0.199790 0.200882
O O14 0.903881 0.134144 0.160329
O O15 0.817686 0.329688 0.051786
O O16 0.748900 0.480706 0.873382
O O17 0.500000 0.535046 0.750000
#
# Coordination Sequence:
#
# PCOD9281411 Si02
#       8
#     8   8   8   8   8   8   8   8
#     4  10  21  38  65 101 121 154 217 270 309 360
#     4   9  20  39  62  88 125 163 206 255 313 368
#     4  11  25  44  61  83 129 174 204 246 321 397
#     4  10  21  38  65  90 126 158 209 261 309 371
#     4  10  21  38  61  92 122 167 206 251 313 372
#     4  11  25  37  66  96 122 164 218 260 308 380
#     4  10  23  40  61  90 124 164 201 258 319 362
#     4   9  20  41  61  90 126 169 195 254 328 371
#
# _framework density 19.365217000000001
#
# number of rings (size 3 to 8) (size 9 to 14) (size 15 to 20)
#    0.000    2.000    1.250    0.750   12.250    1.000 
#    0.000    1.250    0.000    3.000    0.000    0.000 
#    0.000    0.000    0.000    0.000    0.000    0.000 
#
# Total GULP energy -178691.199379 kJ/mol
# GULP energy per Si atom -5584.099981 kJ/mol
# Density = 1.932114 g / cm^3
# Si number density = 19.365217 Si / 1000 Ang^3
#
#
#
# Elastic Constant Matrix: (Units=GPa)
#
#
# Indices 1 2 3 4 5 6 
#
# 1 77.4222 29.8346 29.9958 0.0000 -5.8923 0.0000
# 2 29.8346 83.7839 40.7198 0.0000 -11.0245 0.0000
# 3 29.9958 40.7198 88.7648 0.0000 10.2048 0.0000
# 4 0.0000 0.0000 0.0000 31.4997 0.0000 2.5580
# 5 -5.8923 -11.0245 10.2048 0.0000 17.4048 0.0000
# 6 0.0000 0.0000 0.0000 2.5580 0.0000 22.5564
#
#
#
# Elastic Compliance Matrix: (Units=1/GPa)
#
#
# Indices 1 2 3 4 5 6 
#
# 1 0.016415 -0.002314 -0.005314 0.000000 0.007207 0.000000
# 2 -0.002314 0.020363 -0.010672 0.000000 0.018372 0.000000
# 3 -0.005314 -0.010672 0.020310 0.000000 -0.020467 0.000000
# 4 0.000000 0.000000 0.000000 0.032041 0.000000 -0.003634
# 5 0.007207 0.018372 -0.020467 0.000000 0.083533 0.000000
# 6 0.000000 0.000000 0.000000 -0.003634 0.000000 0.044745
#
#
# Mechanical properties :
#
#
# Convention : Reuss Voigt Hill
#
# Bulk Modulus (GPa) = 48.80711 50.11904 49.46308
# Shear Modulus (GPa) = 19.16902 24.25356 21.71129
#
# Velocity S-wave (km/s) = 3.14963 3.54281 3.35199
# Velocity P-wave (km/s) = 6.20364 6.53242 6.37015
#
# Compressibility (1/GPa) = 0.02048882
#
# Stress axis : x y z
#
# Youngs Moduli (GPa) = 60.91855 49.10752 49.23716
#
# Poissons Ratio (x) = 0.11365 0.26165
# Poissons Ratio (y) = 0.14099 0.52544
# Poissons Ratio (z) = 0.32372 0.52405
#
# Static dielectric constant tensor:
#      x y z
#    x 1.695200 0.000000 0.021450 
#    y 0.000000 1.666050 0.000000 
#    z 0.021450 0.000000 1.685230 
# 
# From -- ./inp_files/225192.got.cif
#   From: 2010.05.17/outbox.cif.g08.bks.cpg/sg15_113_cif.got.tgz:225192.got - 2010.06.03 18:47:42.
