data_PCOD9281254
_publ_section_title
;
Structure prediction by ZEFSAII (Michael W. Deem and Ramdas Pophale) SiO2 
 PCOD9281254
Probable space group: C 2/C
;
_chemical_formula_sum "Si O2"
_cell_formula_units_Z 48
_cell_length_a 11.143245
_cell_length_b 8.388205
_cell_length_c 26.229599
_cell_angle_alpha 90.000000
_cell_angle_beta 63.707856
_cell_angle_gamma 90.000000
_cell_volume 2198.090207
_symmetry_space_group_name_H-M "C 2/C"
_symmetry_group_IT_number 15
_symmetry_cell_setting 'monoclinic'
loop_
_space_group_symop_operation_xyz
x,y,z
-x,y,1/2-z
-x,-y,-z
x,-y,1/2+z
1/2+x,1/2+y,z
1/2-x,1/2+y,1/2-z
1/2-x,1/2-y,-z
1/2+x,1/2-y,1/2+z
loop_
_atom_site_type_symbol
_atom_site_label
_atom_site_fract_x
_atom_site_fract_y
_atom_site_fract_z
Si Si1 0.941032 0.162018 0.204862
Si Si2 0.714802 0.931436 0.621258
Si Si3 0.100110 0.852857 0.473591
Si Si4 0.241015 0.127101 0.790372
Si Si5 0.453638 0.853066 0.615424
Si Si6 0.017660 0.724814 0.906283
O O1 0.833940 0.306017 0.228649
O O2 0.029839 0.202727 0.139042
O O3 0.000000 0.160277 0.250000
O O4 0.869833 0.994493 0.208680
O O5 0.763818 0.062932 0.570757
O O6 0.683688 0.027297 0.679331
O O7 0.589938 0.836175 0.622436
O O8 0.843909 0.820838 0.607856
O O9 0.047494 0.745119 0.436897
O O10 0.086386 0.758198 0.528787
O O11 0.000000 0.000000 0.500000
O O12 0.168096 0.278709 0.829547
O O13 0.446881 0.039841 0.604987
#
# Coordination Sequence:
#
# PCOD9281254 Si02
#       6
#     8   8   8   8   8   8
#     4  11  23  41  62  84 117 158 194 242 296 339
#     4   9  21  40  61  86 119 154 189 241 297 345
#     4   9  20  39  58  88 124 149 193 245 284 350
#     4  10  23  39  57  87 117 146 200 246 280 351
#     4  11  21  38  63  87 117 157 191 236 300 347
#     4  10  21  38  60  88 118 151 198 242 284 351
#
# _framework density 21.837137999999999
#
# number of rings (size 3 to 8) (size 9 to 14) (size 15 to 20)
#    0.000    2.000    0.000    3.500    0.000    7.333 
#    0.000   12.500    0.000    0.000    0.000    0.000 
#    0.000    0.000    0.000    0.000    0.000    0.000 
#
# Total GULP energy -134114.458376 kJ/mol
# GULP energy per Si atom -5588.102432 kJ/mol
# Density = 2.178744 g / cm^3
# Si number density = 21.837138 Si / 1000 Ang^3
#
#
#
# Elastic Constant Matrix: (Units=GPa)
#
#
# Indices 1 2 3 4 5 6 
#
# 1 53.2426 2.0179 17.1784 0.0000 16.9957 0.0000
# 2 2.0179 91.9458 14.2525 0.0000 10.5877 0.0000
# 3 17.1784 14.2525 106.5505 0.0000 12.1700 0.0000
# 4 0.0000 0.0000 0.0000 35.2793 0.0000 2.1756
# 5 16.9957 10.5877 12.1700 0.0000 26.5484 0.0000
# 6 0.0000 0.0000 0.0000 2.1756 0.0000 32.3883
#
#
#
# Elastic Compliance Matrix: (Units=1/GPa)
#
#
# Indices 1 2 3 4 5 6 
#
# 1 0.024317 0.001577 -0.002408 0.000000 -0.015092 0.000000
# 2 0.001577 0.011617 -0.001228 0.000000 -0.005080 0.000000
# 3 -0.002408 -0.001228 0.010242 0.000000 -0.002664 0.000000
# 4 0.000000 0.000000 0.000000 0.028463 0.000000 -0.001912
# 5 -0.015092 -0.005080 -0.002664 0.000000 0.050576 0.000000
# 6 0.000000 0.000000 0.000000 -0.001912 0.000000 0.031004
#
#
# Mechanical properties :
#
#
# Convention : Reuss Voigt Hill
#
# Bulk Modulus (GPa) = 23.77616 35.40406 29.59011
# Shear Modulus (GPa) = 28.67728 33.39586 31.03657
#
# Velocity S-wave (km/s) = 3.62779 3.91489 3.77407
# Velocity P-wave (km/s) = 5.33473 6.05666 5.70712
#
# Compressibility (1/GPa) = 0.04205893
#
# Stress axis : x y z
#
# Youngs Moduli (GPa) = 41.12403 86.08337 97.63798
#
# Poissons Ratio (x) = -0.13579 0.23507
# Poissons Ratio (y) = -0.06487 0.11990
# Poissons Ratio (z) = 0.09901 0.10571
#
# Static dielectric constant tensor:
#      x y z
#    x 1.833490 0.000000 0.017210 
#    y 0.000000 1.757110 0.000000 
#    z 0.017210 0.000000 1.808910 
# 
# From -- ./inp_files/267806.got.cif
#   From: 2010.05.17/outbox.cif.g08.bks.cpg/sg15_134_cif.got.tgz:267806.got - 2010.06.03 18:47:42.
