data_PCOD9281019
_publ_section_title
;
Structure prediction by ZEFSAII (Michael W. Deem and Ramdas Pophale) SiO2 
 PCOD9281019
Probable space group: C 2/C
;
_chemical_formula_sum "Si O2"
_cell_formula_units_Z 48
_cell_length_a 8.601809
_cell_length_b 17.645303
_cell_length_c 24.174404
_cell_angle_alpha 90.000000
_cell_angle_beta 129.417396
_cell_angle_gamma 90.000000
_cell_volume 2834.628366
_symmetry_space_group_name_H-M "C 2/C"
_symmetry_group_IT_number 15
_symmetry_cell_setting 'monoclinic'
loop_
_space_group_symop_operation_xyz
x,y,z
-x,y,1/2-z
-x,-y,-z
x,-y,1/2+z
1/2+x,1/2+y,z
1/2-x,1/2+y,1/2-z
1/2-x,1/2-y,-z
1/2+x,1/2-y,1/2+z
loop_
_atom_site_type_symbol
_atom_site_label
_atom_site_fract_x
_atom_site_fract_y
_atom_site_fract_z
Si Si1 0.787230 0.724123 0.673865
Si Si2 0.199431 0.687296 0.537761
Si Si3 0.435866 0.788004 0.671586
Si Si4 0.263829 0.693183 0.055005
Si Si5 0.099760 0.910423 0.582358
Si Si6 0.530627 0.584411 0.574572
O O1 0.630894 0.772152 0.676814
O O2 0.823669 0.765196 0.624347
O O3 0.684994 0.644689 0.634572
O O4 0.000000 0.713108 0.750000
O O5 0.250000 0.750000 0.500000
O O6 0.275744 0.726719 0.611447
O O7 0.322730 0.610777 0.555563
O O8 0.965838 0.668715 0.486837
O O9 0.500000 0.779061 0.750000
O O10 0.313073 0.866845 0.635968
O O11 0.430236 0.630599 0.080358
O O12 0.250000 0.750000 0.000000
O O13 0.015172 0.903299 0.500715
O O14 0.103652 0.998894 0.598093
#
# Coordination Sequence:
#
# PCOD9281019 Si02
#       6
#     8   8   8   8   8   8
#     4  11  22  37  59  84 113 150 194 234 279 331
#     4  11  18  38  59  82 112 147 188 240 276 325
#     4  11  21  36  58  85 112 151 189 234 279 335
#     4  12  19  34  62  88 108 147 193 238 269 338
#     4  11  21  35  59  86 115 147 191 227 291 338
#     4  10  21  38  56  83 117 152 183 234 286 338
#
# _framework density 16.933436
#
# number of rings (size 3 to 8) (size 9 to 14) (size 15 to 20)
#    0.000    1.000    8.333    1.000    0.000    1.333 
#    0.000    0.000    0.000   12.000    0.000    0.000 
#    0.000    0.000    0.000    0.000    0.000    0.000 
#
# Total GULP energy -133808.437086 kJ/mol
# GULP energy per Si atom -5575.351545 kJ/mol
# Density = 1.689489 g / cm^3
# Si number density = 16.933436 Si / 1000 Ang^3
#
#
#
# Elastic Constant Matrix: (Units=GPa)
#
#
# Indices 1 2 3 4 5 6 
#
# 1 83.7068 75.5307 51.7665 0.0000 2.6237 0.0000
# 2 75.5307 121.6390 58.3932 0.0000 1.7314 0.0000
# 3 51.7665 58.3932 134.4903 0.0000 -2.1593 0.0000
# 4 0.0000 0.0000 0.0000 11.0381 0.0000 -0.2954
# 5 2.6237 1.7314 -2.1593 0.0000 35.1245 0.0000
# 6 0.0000 0.0000 0.0000 -0.2954 0.0000 27.1345
#
#
#
# Elastic Compliance Matrix: (Units=1/GPa)
#
#
# Indices 1 2 3 4 5 6 
#
# 1 0.029040 -0.015956 -0.004276 0.000000 -0.001646 0.000000
# 2 -0.015956 0.019175 -0.002182 0.000000 0.000113 0.000000
# 3 -0.004276 -0.002182 0.010046 0.000000 0.001045 0.000000
# 4 0.000000 0.000000 0.000000 0.090621 0.000000 0.000987
# 5 -0.001646 0.000113 0.001045 0.000000 0.028652 0.000000
# 6 0.000000 0.000000 0.000000 0.000987 0.000000 0.036864
#
#
# Mechanical properties :
#
#
# Convention : Reuss Voigt Hill
#
# Bulk Modulus (GPa) = 74.44986 79.02412 76.73699
# Shear Modulus (GPa) = 18.96070 24.93580 21.94825
#
# Velocity S-wave (km/s) = 3.34985 3.84158 3.60411
# Velocity P-wave (km/s) = 7.68268 8.15143 7.92053
#
# Compressibility (1/GPa) = 0.01343186
#
# Stress axis : x y z
#
# Youngs Moduli (GPa) = 34.43514 52.15257 99.54578
#
# Poissons Ratio (x) = 0.83214 0.42570
# Poissons Ratio (y) = 0.54944 0.21720
# Poissons Ratio (z) = 0.14726 0.11379
#
# Static dielectric constant tensor:
#      x y z
#    x 1.569360 0.000000 -0.022580 
#    y 0.000000 1.563510 0.000000 
#    z -0.022580 0.000000 1.568680 
# 
# From -- ./inp_files/189961.got.cif
#   From: 2010.05.17/outbox.cif.g08.bks.cpg/sg15_95_cif.got.tgz:189961.got - 2010.06.03 18:47:42.
