data_PCOD9281560
_publ_section_title
;
Structure prediction by ZEFSAII (Michael W. Deem and Ramdas Pophale) SiO2 
 PCOD9281560
Probable space group: C 2/C
;
_chemical_formula_sum "Si O2"
_cell_formula_units_Z 40
_cell_length_a 12.517722
_cell_length_b 26.773688
_cell_length_c 9.166041
_cell_angle_alpha 90.000000
_cell_angle_beta 32.996776
_cell_angle_gamma 90.000000
_cell_volume 1672.963354
_symmetry_space_group_name_H-M "C 2/C"
_symmetry_group_IT_number 15
_symmetry_cell_setting 'monoclinic'
loop_
_space_group_symop_operation_xyz
x,y,z
-x,y,1/2-z
-x,-y,-z
x,-y,1/2+z
1/2+x,1/2+y,z
1/2-x,1/2+y,1/2-z
1/2-x,1/2-y,-z
1/2+x,1/2-y,1/2+z
loop_
_atom_site_type_symbol
_atom_site_label
_atom_site_fract_x
_atom_site_fract_y
_atom_site_fract_z
Si Si1 0.214770 0.191939 0.565570
Si Si2 0.699720 0.887161 0.751202
Si Si3 0.214091 0.565418 0.688661
Si Si4 0.267182 0.967550 0.011172
Si Si5 0.461769 0.660172 0.439744
O O1 0.250000 0.250000 0.500000
O O2 0.350842 0.156182 0.310301
O O3 0.000000 0.179424 0.750000
O O4 0.183811 0.182894 0.772076
O O5 0.804342 0.929753 0.532403
O O6 0.843731 0.860601 0.701564
O O7 0.511633 0.915378 0.036627
O O8 0.250676 0.523596 0.525732
O O9 0.338781 0.613904 0.520448
O O10 0.288338 0.542961 0.759062
O O11 0.500000 0.957302 0.750000
O O12 0.500000 0.692360 0.250000
#
# Coordination Sequence:
#
# PCOD9281560 Si02
#       5
#     8   8   8   8   8
#     4  10  23  44  75  99 125 171 225 275 343 412
#     4  10  22  44  63  96 133 172 225 276 327 404
#     4  11  24  41  67  92 141 181 227 276 330 387
#     4  10  21  38  62  96 130 176 235 265 321 394
#     4  11  26  43  64 100 136 172 222 279 333 401
#
# _framework density 23.909669999999998
#
# number of rings (size 3 to 8) (size 9 to 14) (size 15 to 20)
#    0.000    1.600    2.000    2.400    8.400    0.800 
#    0.000    4.000    0.000    0.000    0.000    0.000 
#    0.000    0.000    0.000    0.000    0.000    0.000 
#
# Total GULP energy -111750.595947 kJ/mol
# GULP energy per Si atom -5587.529797 kJ/mol
# Density = 2.385525 g / cm^3
# Si number density = 23.909670 Si / 1000 Ang^3
#
#
#
# Elastic Constant Matrix: (Units=GPa)
#
#
# Indices 1 2 3 4 5 6 
#
# 1 111.6716 10.6212 38.6602 0.0000 19.8952 0.0000
# 2 10.6212 117.7755 24.5043 0.0000 21.6715 0.0000
# 3 38.6602 24.5043 96.6352 0.0000 17.8830 0.0000
# 4 0.0000 0.0000 0.0000 8.8724 0.0000 -4.0299
# 5 19.8952 21.6715 17.8830 0.0000 46.9901 0.0000
# 6 0.0000 0.0000 0.0000 -4.0299 0.0000 20.9832
#
#
#
# Elastic Compliance Matrix: (Units=1/GPa)
#
#
# Indices 1 2 3 4 5 6 
#
# 1 0.010832 0.000432 -0.003827 0.000000 -0.003329 0.000000
# 2 0.000432 0.009556 -0.001879 0.000000 -0.003875 0.000000
# 3 -0.003827 -0.001879 0.012797 0.000000 -0.002383 0.000000
# 4 0.000000 0.000000 0.000000 0.123480 0.000000 0.023715
# 5 -0.003329 -0.003875 -0.002383 0.000000 0.025385 0.000000
# 6 0.000000 0.000000 0.000000 0.023715 0.000000 0.052212
#
#
# Mechanical properties :
#
#
# Convention : Reuss Voigt Hill
#
# Bulk Modulus (GPa) = 44.17644 52.62819 48.40231
# Shear Modulus (GPa) = 19.81351 32.18892 26.00121
#
# Velocity S-wave (km/s) = 2.88181 3.67314 3.30127
# Velocity P-wave (km/s) = 5.43963 6.32837 5.90076
#
# Compressibility (1/GPa) = 0.02263650
#
# Stress axis : x y z
#
# Youngs Moduli (GPa) = 92.32204 104.64982 78.14553
#
# Poissons Ratio (x) = -0.04520 0.29905
# Poissons Ratio (y) = -0.03988 0.14682
# Poissons Ratio (z) = 0.35330 0.19662
#
# Static dielectric constant tensor:
#      x y z
#    x 2.013920 0.000000 0.224520 
#    y 0.000000 1.891680 0.000000 
#    z 0.224520 0.000000 -0.221590 
# 
# From -- ./inp_files/34982.got.cif
#   From: 2010.05.17/outbox.cif.g08.bks.cpg/sg15_18_cif.got.tgz:34982.got - 2010.06.03 18:47:42.
