data_PCOD9281385
_publ_section_title
;
Structure prediction by ZEFSAII (Michael W. Deem and Ramdas Pophale) SiO2 
 PCOD9281385
Probable space group: C 2/C
;
_chemical_formula_sum "Si O2"
_cell_formula_units_Z 40
_cell_length_a 22.371994
_cell_length_b 15.528734
_cell_length_c 10.324781
_cell_angle_alpha 90.000000
_cell_angle_beta 154.791187
_cell_angle_gamma 90.000000
_cell_volume 1527.735113
_symmetry_space_group_name_H-M "C 2/C"
_symmetry_group_IT_number 15
_symmetry_cell_setting 'monoclinic'
loop_
_space_group_symop_operation_xyz
x,y,z
-x,y,1/2-z
-x,-y,-z
x,-y,1/2+z
1/2+x,1/2+y,z
1/2-x,1/2+y,1/2-z
1/2-x,1/2-y,-z
1/2+x,1/2-y,1/2+z
loop_
_atom_site_type_symbol
_atom_site_label
_atom_site_fract_x
_atom_site_fract_y
_atom_site_fract_z
Si Si1 0.606251 0.072390 0.840113
Si Si2 0.916354 0.621091 0.221090
Si Si3 0.399584 0.503465 0.677040
Si Si4 0.895692 0.191072 0.671178
Si Si5 0.170187 0.161115 0.340998
O O1 0.500000 0.081629 0.750000
O O2 0.523132 0.109455 0.551847
O O3 0.651907 0.972981 0.915917
O O4 0.753361 0.120732 0.134196
O O5 0.000000 0.624764 0.250000
O O6 0.833564 0.712241 0.060438
O O7 0.500000 0.500384 0.750000
O O8 0.322805 0.596903 0.531341
O O9 0.312796 0.414428 0.518729
O O10 0.500000 0.500000 0.000000
O O11 0.000000 0.192539 0.750000
O O12 0.008144 0.183415 0.008399
O O13 0.250000 0.250000 0.500000
#
# Coordination Sequence:
#
# PCOD9281385 Si02
#       5
#     8   8   8   8   8
#     4  10  21  38  61  90 121 157 205 252 292 362
#     4   9  18  38  61  80 124 158 191 248 311 344
#     4   9  20  40  61  88 123 156 198 255 305 356
#     4   9  18  39  61  84 120 158 192 252 308 354
#     4  11  21  38  63  89 117 163 206 244 303 368
#
# _framework density 26.182549000000002
#
# number of rings (size 3 to 8) (size 9 to 14) (size 15 to 20)
#    0.000    2.400    2.000    0.000    0.000    0.800 
#   32.400    1.000    0.000    0.000    0.000    0.000 
#    0.000    0.000    0.000    0.000    0.000    0.000 
#
# Total GULP energy -111609.783696 kJ/mol
# GULP energy per Si atom -5580.489185 kJ/mol
# Density = 2.612296 g / cm^3
# Si number density = 26.182549 Si / 1000 Ang^3
#
#
#
# Elastic Constant Matrix: (Units=GPa)
#
#
# Indices 1 2 3 4 5 6 
#
# 1 141.6134 53.9377 26.7659 0.0000 -8.9737 0.0000
# 2 53.9377 294.7599 18.3666 0.0000 11.8262 0.0000
# 3 26.7659 18.3666 55.4516 0.0000 -1.2965 0.0000
# 4 0.0000 0.0000 0.0000 5.7787 0.0000 31.8431
# 5 -8.9737 11.8262 -1.2965 0.0000 39.2033 0.0000
# 6 0.0000 0.0000 0.0000 31.8431 0.0000 32.6367
#
#
#
# Elastic Compliance Matrix: (Units=1/GPa)
#
#
# Indices 1 2 3 4 5 6 
#
# 1 0.008408 -0.001408 -0.003540 0.000000 0.002232 0.000000
# 2 -0.001408 0.003746 -0.000596 0.000000 -0.001472 0.000000
# 3 -0.003540 -0.000596 0.019941 0.000000 0.000029 0.000000
# 4 0.000000 0.000000 0.000000 -0.039541 0.000000 0.038580
# 5 0.002232 -0.001472 0.000029 0.000000 0.026464 0.000000
# 6 0.000000 0.000000 0.000000 0.038580 0.000000 -0.007001
#
#
# Mechanical properties :
#
#
# Convention : Reuss Voigt Hill
#
# Bulk Modulus (GPa) = 47.60102 76.66280 62.13191
# Shear Modulus (GPa) = 166.07717 41.70739 103.89228
#
# Velocity S-wave (km/s) = 7.97297 3.99550 6.30604
# Velocity P-wave (km/s) = 10.14778 7.11541 8.76375
#
# Compressibility (1/GPa) = 0.02100795
#
# Stress axis : x y z
#
# Youngs Moduli (GPa) = 118.93231 266.92657 50.14910
#
# Poissons Ratio (x) = 0.37572 0.17753
# Poissons Ratio (y) = 0.16741 0.02988
# Poissons Ratio (z) = 0.42103 0.15905
#
# Static dielectric constant tensor:
#      x y z
#    x 2.081550 0.000000 -0.035880 
#    y 0.000000 2.135590 0.000000 
#    z -0.035880 0.000000 2.183820 
# 
# From -- ./inp_files/118873.got.cif
#   From: 2010.05.17/outbox.cif.g08.bks.cpg/sg15_60_cif.got.tgz:118873.got - 2010.06.03 18:47:42.
