data_PCOD9281236
_publ_section_title
;
Structure prediction by ZEFSAII (Michael W. Deem and Ramdas Pophale) SiO2 
 PCOD9281236
Probable space group: C 2/C
;
_chemical_formula_sum "Si O2"
_cell_formula_units_Z 48
_cell_length_a 10.058388
_cell_length_b 10.073993
_cell_length_c 24.517776
_cell_angle_alpha 90.000000
_cell_angle_beta 96.180349
_cell_angle_gamma 90.000000
_cell_volume 2469.901282
_symmetry_space_group_name_H-M "C 2/C"
_symmetry_group_IT_number 15
_symmetry_cell_setting 'monoclinic'
loop_
_space_group_symop_operation_xyz
x,y,z
-x,y,1/2-z
-x,-y,-z
x,-y,1/2+z
1/2+x,1/2+y,z
1/2-x,1/2+y,1/2-z
1/2-x,1/2-y,-z
1/2+x,1/2-y,1/2+z
loop_
_atom_site_type_symbol
_atom_site_label
_atom_site_fract_x
_atom_site_fract_y
_atom_site_fract_z
Si Si1 0.368616 0.269735 0.281805
Si Si2 0.791054 0.307872 0.560922
Si Si3 0.811820 0.966233 0.118213
Si Si4 0.074419 0.971699 0.060023
Si Si5 0.344602 0.448036 0.743799
Si Si6 0.596161 0.181248 0.091927
O O1 0.500000 0.264338 0.250000
O O2 0.326969 0.424752 0.282273
O O3 0.253606 0.175395 0.252030
O O4 0.400976 0.215744 0.343394
O O5 0.750000 0.250000 0.500000
O O6 0.693251 0.425741 0.571989
O O7 0.945143 0.353868 0.568309
O O8 0.778172 0.184624 0.601707
O O9 0.814029 0.993474 0.182350
O O10 0.704461 0.066848 0.087138
O O11 0.959440 0.988554 0.100371
O O12 0.125959 0.820763 0.063899
O O13 0.000000 0.000000 0.000000
O O14 0.500000 0.406594 0.750000
#
# Coordination Sequence:
#
# PCOD9281236 Si02
#       6
#     8   8   8   8   8   8
#     4  10  21  38  60  86 116 151 187 236 289 344
#     4  11  21  39  58  82 112 152 194 234 280 334
#     4  10  23  39  57  87 118 147 194 239 285 340
#     4  11  21  39  58  82 112 152 194 234 280 334
#     4  10  21  38  60  86 116 151 187 236 289 344
#     4  10  23  39  57  87 118 147 194 239 285 340
#
# _framework density 19.433973000000002
#
# number of rings (size 3 to 8) (size 9 to 14) (size 15 to 20)
#    0.000    1.667    3.333    4.000    0.000    8.667 
#    0.000    6.667    0.000    0.000    0.000    0.000 
#    0.000    0.000    0.000    0.000    0.000    0.000 
#
# Total GULP energy -134084.132456 kJ/mol
# GULP energy per Si atom -5586.838852 kJ/mol
# Density = 1.938974 g / cm^3
# Si number density = 19.433973 Si / 1000 Ang^3
#
#
#
# Elastic Constant Matrix: (Units=GPa)
#
#
# Indices 1 2 3 4 5 6 
#
# 1 114.7700 86.3518 -0.6343 0.0000 33.7615 0.0000
# 2 86.3518 105.8407 -9.2560 0.0000 14.5870 0.0000
# 3 -0.6343 -9.2560 32.9712 0.0000 13.5702 0.0000
# 4 0.0000 0.0000 0.0000 24.2526 0.0000 14.1512
# 5 33.7615 14.5870 13.5702 0.0000 28.7527 0.0000
# 6 0.0000 0.0000 0.0000 14.1512 0.0000 43.8484
#
#
#
# Elastic Compliance Matrix: (Units=1/GPa)
#
#
# Indices 1 2 3 4 5 6 
#
# 1 0.039510 -0.026370 0.008619 0.000000 -0.037082 0.000000
# 2 -0.026370 0.028883 0.001102 0.000000 0.015791 0.000000
# 3 0.008619 0.001102 0.043686 0.000000 -0.031298 0.000000
# 4 0.000000 0.000000 0.000000 0.050799 0.000000 -0.016394
# 5 -0.037082 0.015791 -0.031298 0.000000 0.085082 0.000000
# 6 0.000000 0.000000 0.000000 -0.016394 0.000000 0.028097
#
#
# Mechanical properties :
#
#
# Convention : Reuss Voigt Hill
#
# Bulk Modulus (GPa) = 12.69347 45.16720 28.93033
# Shear Modulus (GPa) = 14.89806 31.17876 23.03841
#
# Velocity S-wave (km/s) = 2.77176 4.00977 3.44680
# Velocity P-wave (km/s) = 4.09747 6.68801 5.54611
#
# Compressibility (1/GPa) = 0.07878068
#
# Stress axis : x y z
#
# Youngs Moduli (GPa) = 25.31027 34.62285 22.89047
#
# Poissons Ratio (x) = 0.91301 -0.19730
# Poissons Ratio (y) = 0.66743 -0.02522
# Poissons Ratio (z) = -0.21816 -0.03814
#
# Static dielectric constant tensor:
#      x y z
#    x 1.655330 0.000000 0.013490 
#    y 0.000000 1.668560 0.000000 
#    z 0.013490 0.000000 1.714990 
# 
# From -- ./inp_files/263243.got.cif
#   From: 2010.05.17/outbox.cif.g08.bks.cpg/sg15_132_cif.got.tgz:263243.got - 2010.06.03 18:47:42.
