data_PCOD9281199
_publ_section_title
;
Structure prediction by ZEFSAII (Michael W. Deem and Ramdas Pophale) SiO2 
 PCOD9281199
Probable space group: C 2/C
;
_chemical_formula_sum "Si O2"
_cell_formula_units_Z 40
_cell_length_a 15.916994
_cell_length_b 10.764778
_cell_length_c 16.873736
_cell_angle_alpha 90.000000
_cell_angle_beta 30.371926
_cell_angle_gamma 90.000000
_cell_volume 1461.820231
_symmetry_space_group_name_H-M "C 2/C"
_symmetry_group_IT_number 15
_symmetry_cell_setting 'monoclinic'
loop_
_space_group_symop_operation_xyz
x,y,z
-x,y,1/2-z
-x,-y,-z
x,-y,1/2+z
1/2+x,1/2+y,z
1/2-x,1/2+y,1/2-z
1/2-x,1/2-y,-z
1/2+x,1/2-y,1/2+z
loop_
_atom_site_type_symbol
_atom_site_label
_atom_site_fract_x
_atom_site_fract_y
_atom_site_fract_z
Si Si1 0.210642 0.020965 0.986156
Si Si2 0.903964 0.868463 0.644929
Si Si3 0.527005 0.989550 0.110602
Si Si4 0.477262 0.283936 0.404605
Si Si5 0.782794 0.370126 0.214444
O O1 0.297576 0.056432 0.997670
O O2 0.368222 0.027298 0.798386
O O3 0.139383 0.879914 0.046769
O O4 0.057825 0.100780 0.076703
O O5 0.958572 0.823419 0.512407
O O6 0.789891 0.753955 0.763890
O O7 0.805873 0.995206 0.707825
O O8 0.541181 0.138062 0.091463
O O9 0.471082 0.913939 0.079359
O O10 0.671871 0.316700 0.231584
#
# Coordination Sequence:
#
# PCOD9281199 Si02
#       5
#     8   8   8   8   8
#     4  10  21  38  59  89 128 165 194 266 312 372
#     4  11  22  39  64  88 127 160 210 253 318 358
#     4  11  21  36  61  91 123 162 209 245 320 368
#     4  11  19  38  60  92 116 167 202 260 297 382
#     4  11  20  38  61  91 118 165 206 255 300 386
#
# _framework density 27.363143999999998
#
# number of rings (size 3 to 8) (size 9 to 14) (size 15 to 20)
#    0.000    1.200    6.000    1.800    0.000    1.600 
#    0.000    0.000    0.000    0.000    0.000    0.000 
#    0.000    0.000    0.000    0.000    0.000    0.000 
#
# Total GULP energy -111598.155715 kJ/mol
# GULP energy per Si atom -5579.907786 kJ/mol
# Density = 2.730086 g / cm^3
# Si number density = 27.363144 Si / 1000 Ang^3
#
#
#
# Elastic Constant Matrix: (Units=GPa)
#
#
# Indices 1 2 3 4 5 6 
#
# 1 113.2824 39.1637 61.3709 0.0000 -73.0787 0.0000
# 2 39.1637 164.8399 56.1183 0.0003 -25.3731 0.0000
# 3 61.3709 56.1183 117.1748 0.0005 -45.6308 0.0000
# 4 0.0000 0.0003 0.0005 47.2904 -0.0001 -18.2707
# 5 -73.0787 -25.3731 -45.6308 -0.0001 65.5931 0.0000
# 6 0.0000 0.0000 0.0000 -18.2707 0.0000 31.4781
#
#
#
# Elastic Compliance Matrix: (Units=1/GPa)
#
#
# Indices 1 2 3 4 5 6 
#
# 1 0.033014 -0.001475 -0.003406 0.000000 0.033841 0.000000
# 2 -0.001475 0.007328 -0.003118 0.000000 -0.000978 0.000000
# 3 -0.003406 -0.003118 0.013529 0.000000 0.004411 0.000000
# 4 0.000000 0.000000 0.000000 0.027259 0.000000 0.015822
# 5 0.033841 -0.000978 0.004411 0.000000 0.055639 0.000000
# 6 0.000000 0.000000 0.000000 0.015822 0.000000 0.040951
#
#
# Mechanical properties :
#
#
# Convention : Reuss Voigt Hill
#
# Bulk Modulus (GPa) = 26.40398 78.73366 52.56882
# Shear Modulus (GPa) = 24.23168 44.78193 34.50681
#
# Velocity S-wave (km/s) = 2.97906 4.04985 3.55501
# Velocity P-wave (km/s) = 4.63719 7.12071 6.00866
#
# Compressibility (1/GPa) = 0.03787308
#
# Stress axis : x y z
#
# Youngs Moduli (GPa) = 30.29048 136.46588 73.91500
#
# Poissons Ratio (x) = 0.20129 0.25176
# Poissons Ratio (y) = 0.04468 0.23044
# Poissons Ratio (z) = 0.10317 0.42545
#
# Static dielectric constant tensor:
#      x y z
#    x 2.330470 0.000000 0.326300 
#    y 0.000000 2.111820 0.000000 
#    z 0.326300 0.000000 2.680880 
# 
# From -- ./inp_files/276731.got.cif
#   From: 2010.05.17/outbox.cif.g08.bks.cpg/sg15_139_cif.got.tgz:276731.got - 2010.06.03 18:47:42.
