data_PCOD9281533
_publ_section_title
;
Structure prediction by ZEFSAII (Michael W. Deem and Ramdas Pophale) SiO2 
 PCOD9281533
Probable space group: C 2/C
;
_chemical_formula_sum "Si O2"
_cell_formula_units_Z 52
_cell_length_a 12.686982
_cell_length_b 25.805279
_cell_length_c 7.761044
_cell_angle_alpha 90.000000
_cell_angle_beta 106.296811
_cell_angle_gamma 90.000000
_cell_volume 2438.805895
_symmetry_space_group_name_H-M "C 2/C"
_symmetry_group_IT_number 15
_symmetry_cell_setting 'monoclinic'
loop_
_space_group_symop_operation_xyz
x,y,z
-x,y,1/2-z
-x,-y,-z
x,-y,1/2+z
1/2+x,1/2+y,z
1/2-x,1/2+y,1/2-z
1/2-x,1/2-y,-z
1/2+x,1/2-y,1/2+z
loop_
_atom_site_type_symbol
_atom_site_label
_atom_site_fract_x
_atom_site_fract_y
_atom_site_fract_z
Si Si1 0.729966 0.672550 0.618227
Si Si2 0.410758 0.570130 0.964292
Si Si3 0.000000 0.473014 0.250000
Si Si4 0.379972 0.064772 0.004650
Si Si5 0.880632 0.678485 0.025509
Si Si6 0.116693 0.717897 0.094474
Si Si7 0.365095 0.455242 0.046723
O O1 0.657858 0.622090 0.537358
O O2 0.823289 0.682254 0.518496
O O3 0.652995 0.723164 0.581256
O O4 0.788744 0.672450 0.834159
O O5 0.544084 0.569759 0.039017
O O6 0.392950 0.559198 0.754335
O O7 0.369981 0.517581 0.035597
O O8 0.068088 0.512809 0.397173
O O9 0.089727 0.440449 0.184169
O O10 0.257982 0.064354 0.025595
O O11 0.425672 0.120456 0.073292
O O12 0.846352 0.701009 0.195437
O O13 0.985715 0.712047 0.017516
#
# Coordination Sequence:
#
# PCOD9281533 Si02
#       7
#     8   8   4   8   8   8   8
#     4  11  23  45  70  96 128 181 214 280 334 393
#     4  10  22  40  64  93 127 169 215 260 329 392
#     4  10  24  36  60  94 134 168 222 258 320 408
#     4  11  22  39  60  96 129 175 211 266 330 385
#     4  11  23  42  69  97 130 175 216 282 332 394
#     4  10  25  43  67  99 133 163 232 278 333 388
#     4  10  21  38  62  92 128 167 209 264 315 397
#
# _framework density 21.321909999999999
#
# number of rings (size 3 to 8) (size 9 to 14) (size 15 to 20)
#    0.000    1.538    1.538    2.769    2.154    6.154 
#    2.769    0.000   10.154    0.000    0.000    0.000 
#    0.000    0.000    0.000    0.000    0.000    0.000 
#
# Total GULP energy -145016.061782 kJ/mol
# GULP energy per Si atom -5577.540838 kJ/mol
# Density = 2.127338 g / cm^3
# Si number density = 21.321910 Si / 1000 Ang^3
#
#
#
# Elastic Constant Matrix: (Units=GPa)
#
#
# Indices 1 2 3 4 5 6 
#
# 1 71.6719 22.0805 25.6277 0.0000 -0.4078 0.0000
# 2 22.0805 85.3303 12.9760 0.0000 -10.5024 0.0000
# 3 25.6277 12.9760 34.3067 0.0000 -6.3759 0.0000
# 4 0.0000 0.0000 0.0000 33.5293 0.0000 -3.1555
# 5 -0.4078 -10.5024 -6.3759 0.0000 32.3863 0.0000
# 6 0.0000 0.0000 0.0000 -3.1555 0.0000 40.2263
#
#
#
# Elastic Compliance Matrix: (Units=1/GPa)
#
#
# Indices 1 2 3 4 5 6 
#
# 1 0.020167 -0.003480 -0.014439 0.000000 -0.003717 0.000000
# 2 -0.003480 0.013368 -0.001722 0.000000 0.003952 0.000000
# 3 -0.014439 -0.001722 0.041985 0.000000 0.007525 0.000000
# 4 0.000000 0.000000 0.000000 0.030047 0.000000 0.002357
# 5 -0.003717 0.003952 0.007525 0.000000 0.033594 0.000000
# 6 0.000000 0.000000 0.000000 0.002357 0.000000 0.025044
#
#
# Mechanical properties :
#
#
# Convention : Reuss Voigt Hill
#
# Bulk Modulus (GPa) = 27.59629 34.74192 31.16911
# Shear Modulus (GPa) = 23.19479 29.93669 26.56574
#
# Velocity S-wave (km/s) = 3.30182 3.75111 3.53361
# Velocity P-wave (km/s) = 5.24469 5.92372 5.59452
#
# Compressibility (1/GPa) = 0.03623676
#
# Stress axis : x y z
#
# Youngs Moduli (GPa) = 49.58716 74.80539 23.81801
#
# Poissons Ratio (x) = 0.26034 0.34391
# Poissons Ratio (y) = 0.17257 0.04101
# Poissons Ratio (z) = 0.71600 0.12881
#
# Static dielectric constant tensor:
#      x y z
#    x 0.282530 0.000000 0.026140 
#    y 0.000000 1.726510 0.000000 
#    z 0.026140 0.000000 1.921920 
# 
# From -- ./inp_files/33661.got.cif
#   From: 2010.05.17/outbox.cif.g08.bks.cpg/sg15_17_cif.got.tgz:33661.got - 2010.06.03 18:47:42.
