data_PCOD9281633
_publ_section_title
;
Structure prediction by ZEFSAII (Michael W. Deem and Ramdas Pophale) SiO2 
 PCOD9281633
Probable space group: C 2/C
;
_chemical_formula_sum "Si O2"
_cell_formula_units_Z 48
_cell_length_a 5.357201
_cell_length_b 27.983029
_cell_length_c 13.319960
_cell_angle_alpha 90.000000
_cell_angle_beta 91.784233
_cell_angle_gamma 90.000000
_cell_volume 1995.836555
_symmetry_space_group_name_H-M "C 2/C"
_symmetry_group_IT_number 15
_symmetry_cell_setting 'monoclinic'
loop_
_space_group_symop_operation_xyz
x,y,z
-x,y,1/2-z
-x,-y,-z
x,-y,1/2+z
1/2+x,1/2+y,z
1/2-x,1/2+y,1/2-z
1/2-x,1/2-y,-z
1/2+x,1/2-y,1/2+z
loop_
_atom_site_type_symbol
_atom_site_label
_atom_site_fract_x
_atom_site_fract_y
_atom_site_fract_z
Si Si1 0.129752 0.604048 0.994676
Si Si2 0.321546 0.853484 0.656116
Si Si3 0.079250 0.193503 0.452599
Si Si4 0.428200 0.983812 0.111856
Si Si5 0.586264 0.462769 0.852201
Si Si6 0.027258 0.754522 0.137647
O O1 0.231317 0.657486 0.988168
O O2 0.330821 0.571844 0.057902
O O3 0.895958 0.610812 0.067037
O O4 0.072778 0.573715 0.894947
O O5 0.500000 0.869362 0.750000
O O6 0.409490 0.798379 0.639776
O O7 0.032611 0.840719 0.635607
O O8 0.924177 0.212981 0.546209
O O9 0.195019 0.239015 0.396066
O O10 0.669144 0.005419 0.171318
O O11 0.152015 0.004627 0.125304
O O12 0.500000 0.000000 0.000000
O O13 0.500000 0.435507 0.750000
O O14 0.000000 0.774119 0.250000
#
# Coordination Sequence:
#
# PCOD9281633 Si02
#       6
#     8   8   8   8   8   8
#     4  10  23  35  60  90 126 160 213 266 328 383
#     4  10  22  35  60  96 125 162 207 266 326 389
#     4  10  21  38  63  91 130 168 210 273 327 384
#     4  10  22  41  62  91 123 176 211 262 332 398
#     4  11  24  40  66  92 128 171 220 270 330 401
#     4   9  20  40  62  90 123 172 217 258 322 396
#
# _framework density 24.050063999999999
#
# number of rings (size 3 to 8) (size 9 to 14) (size 15 to 20)
#    0.000    2.000    0.000    3.000    9.333    5.333 
#    0.000    0.833    3.667    0.000    0.000    0.000 
#    0.000    0.000    0.000    0.000    0.000    0.000 
#
# Total GULP energy -133623.689441 kJ/mol
# GULP energy per Si atom -5567.653727 kJ/mol
# Density = 2.399532 g / cm^3
# Si number density = 24.050064 Si / 1000 Ang^3
#
#
#
# Elastic Constant Matrix: (Units=GPa)
#
#
# Indices 1 2 3 4 5 6 
#
# 1 98.7693 22.2886 24.7230 0.0000 5.1898 0.0000
# 2 22.2886 82.5755 21.1086 0.0000 9.3590 0.0000
# 3 24.7230 21.1086 96.8997 0.0000 6.3003 0.0000
# 4 0.0000 0.0000 0.0000 29.9977 0.0000 -0.4386
# 5 5.1898 9.3590 6.3003 0.0000 29.1370 0.0000
# 6 0.0000 0.0000 0.0000 -0.4386 0.0000 37.3047
#
#
#
# Elastic Compliance Matrix: (Units=1/GPa)
#
#
# Indices 1 2 3 4 5 6 
#
# 1 0.011277 -0.002368 -0.002313 0.000000 -0.000748 0.000000
# 2 -0.002368 0.013697 -0.002151 0.000000 -0.003513 0.000000
# 3 -0.002313 -0.002151 0.011468 0.000000 -0.001377 0.000000
# 4 0.000000 0.000000 0.000000 0.033342 0.000000 0.000392
# 5 -0.000748 -0.003513 -0.001377 0.000000 0.035880 0.000000
# 6 0.000000 0.000000 0.000000 0.000392 0.000000 0.026811
#
#
# Mechanical properties :
#
#
# Convention : Reuss Voigt Hill
#
# Bulk Modulus (GPa) = 43.90069 46.05389 44.97729
# Shear Modulus (GPa) = 32.52413 33.29615 32.91014
#
# Velocity S-wave (km/s) = 3.68142 3.72486 3.70320
# Velocity P-wave (km/s) = 6.03026 6.13923 6.08499
#
# Compressibility (1/GPa) = 0.02277868
#
# Stress axis : x y z
#
# Youngs Moduli (GPa) = 88.67467 73.00690 87.19776
#
# Poissons Ratio (x) = 0.17288 0.20167
# Poissons Ratio (y) = 0.20998 0.18759
# Poissons Ratio (z) = 0.20509 0.15706
#
# Static dielectric constant tensor:
#      x y z
#    x 2.224120 0.000000 0.035890 
#    y 0.000000 1.986240 0.000000 
#    z 0.035890 0.000000 2.060510 
# 
# From -- ./inp_files/130036.got.cif
#   From: 2010.05.17/outbox.cif.g08.bks.cpg/sg15_66_cif.got.tgz:130036.got - 2010.06.03 18:47:42.
