data_PCOD9281331
_publ_section_title
;
Structure prediction by ZEFSAII (Michael W. Deem and Ramdas Pophale) SiO2 
 PCOD9281331
Probable space group: C 2/C
;
_chemical_formula_sum "Si O2"
_cell_formula_units_Z 56
_cell_length_a 12.691034
_cell_length_b 8.512047
_cell_length_c 23.943346
_cell_angle_alpha 90.000000
_cell_angle_beta 61.394573
_cell_angle_gamma 90.000000
_cell_volume 2270.803350
_symmetry_space_group_name_H-M "C 2/C"
_symmetry_group_IT_number 15
_symmetry_cell_setting 'monoclinic'
loop_
_space_group_symop_operation_xyz
x,y,z
-x,y,1/2-z
-x,-y,-z
x,-y,1/2+z
1/2+x,1/2+y,z
1/2-x,1/2+y,1/2-z
1/2-x,1/2-y,-z
1/2+x,1/2-y,1/2+z
loop_
_atom_site_type_symbol
_atom_site_label
_atom_site_fract_x
_atom_site_fract_y
_atom_site_fract_z
Si Si1 0.700067 0.399559 0.620764
Si Si2 0.995587 0.064016 0.091361
Si Si3 0.860527 0.824738 0.524489
Si Si4 0.389927 0.024102 0.987184
Si Si5 0.652980 0.288500 0.327263
Si Si6 0.906007 0.586487 0.374277
Si Si7 0.366904 0.694533 0.792552
O O1 0.570152 0.381300 0.626036
O O2 0.791989 0.377695 0.545566
O O3 0.748832 0.288217 0.657235
O O4 0.699702 0.576413 0.647729
O O5 0.885275 0.958795 0.140965
O O6 0.948791 0.182053 0.055942
O O7 0.081532 0.945530 0.034240
O O8 0.845015 0.657032 0.500392
O O9 0.734829 0.883912 0.578409
O O10 0.421190 0.055943 0.914792
O O11 0.500000 0.000000 0.000000
O O12 0.525837 0.190103 0.359950
O O13 0.692891 0.294673 0.252664
O O14 0.895863 0.635095 0.311818
O O15 0.500000 0.620856 0.750000
#
# Coordination Sequence:
#
# PCOD9281331 Si02
#       7
#     8   8   8   8   8   8   8
#     4  12  21  40  68  88 124 165 204 262 320 373
#     4  11  22  39  58  91 129 164 200 252 321 384
#     4  11  21  36  60  89 128 162 197 258 324 374
#     4  12  20  36  63  96 121 155 213 264 316 379
#     4  11  23  40  63  93 116 163 219 250 308 388
#     4  11  19  37  63  87 120 157 213 254 309 375
#     4  10  21  38  61  85 120 167 213 256 309 381
#
# _framework density 24.660876999999999
#
# number of rings (size 3 to 8) (size 9 to 14) (size 15 to 20)
#    0.000    0.857    8.571    0.429    0.000    1.143 
#    2.571    2.143    0.000    0.000    0.000    0.000 
#    0.000    0.000    0.000    0.000    0.000    0.000 
#
# Total GULP energy -156083.867310 kJ/mol
# GULP energy per Si atom -5574.423833 kJ/mol
# Density = 2.460475 g / cm^3
# Si number density = 24.660877 Si / 1000 Ang^3
#
#
#
# Elastic Constant Matrix: (Units=GPa)
#
#
# Indices 1 2 3 4 5 6 
#
# 1 151.1510 31.8957 31.0980 0.0000 42.5883 0.0000
# 2 31.8957 53.1010 29.0821 0.0000 30.4702 0.0000
# 3 31.0980 29.0821 123.3023 0.0000 37.1597 0.0000
# 4 0.0000 0.0000 0.0000 20.7992 0.0000 13.3309
# 5 42.5883 30.4702 37.1597 0.0000 51.6105 0.0000
# 6 0.0000 0.0000 0.0000 13.3309 0.0000 33.6196
#
#
#
# Elastic Compliance Matrix: (Units=1/GPa)
#
#
# Indices 1 2 3 4 5 6 
#
# 1 0.008718 -0.001694 0.000086 0.000000 -0.006256 0.000000
# 2 -0.001694 0.029245 -0.002156 0.000000 -0.014315 0.000000
# 3 0.000086 -0.002156 0.010517 0.000000 -0.006370 0.000000
# 4 0.000000 0.000000 0.000000 0.064462 0.000000 -0.025561
# 5 -0.006256 -0.014315 -0.006370 0.000000 0.037577 0.000000
# 6 0.000000 0.000000 0.000000 -0.025561 0.000000 0.039880
#
#
# Mechanical properties :
#
#
# Convention : Reuss Voigt Hill
#
# Bulk Modulus (GPa) = 24.41893 56.85621 40.63757
# Shear Modulus (GPa) = 23.63203 36.90440 30.26822
#
# Velocity S-wave (km/s) = 3.09897 3.87263 3.50720
# Velocity P-wave (km/s) = 4.76741 6.56518 5.73715
#
# Compressibility (1/GPa) = 0.04095184
#
# Stress axis : x y z
#
# Youngs Moduli (GPa) = 114.69993 34.19392 95.08612
#
# Poissons Ratio (x) = 0.05793 -0.00819
# Poissons Ratio (y) = 0.19431 0.20502
# Poissons Ratio (z) = -0.00988 0.07373
#
# Static dielectric constant tensor:
#      x y z
#    x 1.978390 0.000000 0.024600 
#    y 0.000000 1.867750 0.000000 
#    z 0.024600 0.000000 2.045740 
# 
# From -- ./inp_files/268727.got.cif
#   From: 2010.05.17/outbox.cif.g08.bks.cpg/sg15_135_cif.got.tgz:268727.got - 2010.06.03 18:47:42.
