data_PCOD9281122
_publ_section_title
;
Structure prediction by ZEFSAII (Michael W. Deem and Ramdas Pophale) SiO2 
 PCOD9281122
Probable space group: C 2/C
;
_chemical_formula_sum "Si O2"
_cell_formula_units_Z 64
_cell_length_a 22.532142
_cell_length_b 16.664692
_cell_length_c 18.988694
_cell_angle_alpha 90.000000
_cell_angle_beta 28.432961
_cell_angle_gamma 90.000000
_cell_volume 3394.849851
_symmetry_space_group_name_H-M "C 2/C"
_symmetry_group_IT_number 15
_symmetry_cell_setting 'monoclinic'
loop_
_space_group_symop_operation_xyz
x,y,z
-x,y,1/2-z
-x,-y,-z
x,-y,1/2+z
1/2+x,1/2+y,z
1/2-x,1/2+y,1/2-z
1/2-x,1/2-y,-z
1/2+x,1/2-y,1/2+z
loop_
_atom_site_type_symbol
_atom_site_label
_atom_site_fract_x
_atom_site_fract_y
_atom_site_fract_z
Si Si1 0.988300 0.373073 0.056354
Si Si2 0.350068 0.550498 0.898188
Si Si3 0.310232 0.757736 0.706943
Si Si4 0.327839 0.396052 0.574787
Si Si5 0.123645 0.902064 0.279327
Si Si6 0.647375 0.365448 0.610711
Si Si7 0.188146 0.498648 0.333146
Si Si8 0.800793 0.729375 0.832713
O O1 0.886801 0.420976 0.116045
O O2 0.922373 0.324110 0.187522
O O3 0.063823 0.309639 0.930797
O O4 0.090142 0.440357 0.971105
O O5 0.500000 0.547243 0.750000
O O6 0.328050 0.601401 0.851092
O O7 0.309382 0.457965 0.930380
O O8 0.300232 0.589688 0.021517
O O9 0.211118 0.809468 0.854799
O O10 0.340921 0.675362 0.712873
O O11 0.261671 0.745535 0.677886
O O12 0.474495 0.411804 0.434300
O O13 0.245669 0.458000 0.705223
O O14 0.196825 0.975562 0.238071
O O15 0.500000 0.365371 0.750000
O O16 0.714496 0.321952 0.475163
O O17 0.671359 0.312170 0.655378
#
# Coordination Sequence:
#
# PCOD9281122 Si02
#       8
#     8   8   8   8   8   8   8   8
#     4  10  21  38  58  88 127 156 203 255 312 361
#     4   9  21  39  58  85 120 158 201 256 300 362
#     4  11  23  37  64  92 123 161 209 259 311 365
#     4  10  22  40  63  90 120 164 206 257 312 367
#     4  11  22  38  62  92 121 161 210 257 308 372
#     4  10  22  38  60  87 126 162 205 247 309 368
#     4  10  21  38  63  88 121 163 203 260 304 364
#     4  11  21  38  60  90 124 166 199 254 311 371
#
# _framework density 18.852084999999999
#
# number of rings (size 3 to 8) (size 9 to 14) (size 15 to 20)
#    0.000    1.750    1.250    2.625    3.500    0.500 
#    2.250    0.000    2.750    5.250    0.000    0.000 
#    0.000    0.000    0.000    0.000    0.000    0.000 
#
# Total GULP energy -178621.858812 kJ/mol
# GULP energy per Si atom -5581.933088 kJ/mol
# Density = 1.880918 g / cm^3
# Si number density = 18.852085 Si / 1000 Ang^3
#
#
#
# Elastic Constant Matrix: (Units=GPa)
#
#
# Indices 1 2 3 4 5 6 
#
# 1 93.8197 47.9044 40.3970 -0.0001 28.2595 0.0000
# 2 47.9044 78.2975 30.6270 0.0001 12.2253 -0.0001
# 3 40.3970 30.6270 98.8978 0.0001 10.6687 -0.0001
# 4 -0.0001 0.0001 0.0001 32.9153 -0.0001 1.3495
# 5 28.2595 12.2253 10.6687 -0.0001 29.3626 0.0001
# 6 0.0000 -0.0001 -0.0001 1.3495 0.0001 24.4154
#
#
#
# Elastic Compliance Matrix: (Units=1/GPa)
#
#
# Indices 1 2 3 4 5 6 
#
# 1 0.022062 -0.009306 -0.004431 0.000000 -0.015748 0.000000
# 2 -0.009306 0.019079 -0.002307 0.000000 0.001851 0.000000
# 3 -0.004431 -0.002307 0.012565 0.000000 0.000660 0.000000
# 4 0.000000 0.000000 0.000000 0.030450 0.000000 -0.001683
# 5 -0.015748 0.001851 0.000660 0.000000 0.048203 0.000000
# 6 0.000000 0.000000 0.000000 -0.001683 0.000000 0.041051
#
#
# Mechanical properties :
#
#
# Convention : Reuss Voigt Hill
#
# Bulk Modulus (GPa) = 46.25786 56.54130 51.39958
# Shear Modulus (GPa) = 23.50705 27.47777 25.49241
#
# Velocity S-wave (km/s) = 3.53501 3.82192 3.68126
# Velocity P-wave (km/s) = 6.42279 7.03799 6.73742
#
# Compressibility (1/GPa) = 0.02161795
#
# Stress axis : x y z
#
# Youngs Moduli (GPa) = 45.32741 52.41454 79.58887
#
# Poissons Ratio (x) = 0.48776 0.35265
# Poissons Ratio (y) = 0.42181 0.18360
# Poissons Ratio (z) = 0.20084 0.12091
#
# Static dielectric constant tensor:
#      x y z
#    x 1.649260 0.000000 -0.015470 
#    y 0.000000 1.660620 0.000000 
#    z -0.015470 0.000000 1.648570 
# 
# From -- ./inp_files/216146.got.cif
#   From: 2010.05.17/outbox.cif.g08.bks.cpg/sg15_109_cif.got.tgz:216146.got - 2010.06.03 18:47:42.
