data_PCOD9281237
_publ_section_title
;
Structure prediction by ZEFSAII (Michael W. Deem and Ramdas Pophale) SiO2 
 PCOD9281237
Probable space group: C 2/C
;
_chemical_formula_sum "Si O2"
_cell_formula_units_Z 32
_cell_length_a 8.246452
_cell_length_b 11.668442
_cell_length_c 16.531134
_cell_angle_alpha 90.000000
_cell_angle_beta 56.754224
_cell_angle_gamma 90.000000
_cell_volume 1330.327445
_symmetry_space_group_name_H-M "C 2/C"
_symmetry_group_IT_number 15
_symmetry_cell_setting 'monoclinic'
loop_
_space_group_symop_operation_xyz
x,y,z
-x,y,1/2-z
-x,-y,-z
x,-y,1/2+z
1/2+x,1/2+y,z
1/2-x,1/2+y,1/2-z
1/2-x,1/2-y,-z
1/2+x,1/2-y,1/2+z
loop_
_atom_site_type_symbol
_atom_site_label
_atom_site_fract_x
_atom_site_fract_y
_atom_site_fract_z
Si Si1 0.548989 0.565061 0.141465
Si Si2 0.342294 0.690318 0.865723
Si Si3 0.670063 0.934022 0.638705
Si Si4 0.922075 0.606709 0.968471
O O1 0.500000 0.575341 0.250000
O O2 0.605074 0.431244 0.109057
O O3 0.364807 0.582235 0.135833
O O4 0.730797 0.646489 0.069193
O O5 0.500000 0.697027 0.750000
O O6 0.361949 0.814845 0.902274
O O7 0.117576 0.677336 0.899819
O O8 0.500000 0.944129 0.750000
O O9 0.338244 0.951750 0.410991
O O10 0.000000 0.500000 0.000000
#
# Coordination Sequence:
#
# PCOD9281237 Si02
#       4
#     8   8   8   8
#     4  10  21  40  59  83 119 152 192 241 282 335
#     4   9  20  38  58  85 117 150 189 234 286 342
#     4  11  21  37  61  85 116 155 189 233 291 341
#     4  10  21  38  60  86 117 152 192 237 284 341
#
# _framework density 24.054228999999999
#
# number of rings (size 3 to 8) (size 9 to 14) (size 15 to 20)
#    0.000    2.000    0.000    5.250    0.000    5.000 
#    0.000   16.250    0.000    1.500    0.000    0.000 
#    0.000    0.000    0.000    0.000    0.000    0.000 
#
# Total GULP energy -89311.227300 kJ/mol
# GULP energy per Si atom -5581.951706 kJ/mol
# Density = 2.399948 g / cm^3
# Si number density = 24.054229 Si / 1000 Ang^3
#
#
#
# Elastic Constant Matrix: (Units=GPa)
#
#
# Indices 1 2 3 4 5 6 
#
# 1 95.4449 13.9170 41.4721 0.0000 -27.0631 0.0000
# 2 13.9170 95.0092 39.1602 -0.0001 3.1492 0.0000
# 3 41.4721 39.1602 177.3006 -0.0001 -34.5594 0.0000
# 4 0.0000 -0.0001 -0.0001 400.8679 0.0001 -137.6330
# 5 -27.0631 3.1492 -34.5594 0.0001 42.5784 0.0000
# 6 0.0000 0.0000 0.0000 -137.6330 0.0000 68.7912
#
#
#
# Elastic Compliance Matrix: (Units=1/GPa)
#
#
# Indices 1 2 3 4 5 6 
#
# 1 0.013445 -0.001693 -0.001284 0.000000 0.007629 0.000000
# 2 -0.001693 0.012245 -0.003201 0.000000 -0.004580 0.000000
# 3 -0.001284 -0.003201 0.007763 0.000000 0.005721 0.000000
# 4 0.000000 0.000000 0.000000 0.007968 0.000000 0.015942
# 5 0.007629 -0.004580 0.005721 0.000000 0.033318 0.000000
# 6 0.000000 0.000000 0.000000 0.015942 0.000000 0.046433
#
#
# Mechanical properties :
#
#
# Convention : Reuss Voigt Hill
#
# Bulk Modulus (GPa) = 47.40236 61.87260 54.63748
# Shear Modulus (GPa) = 35.57219 120.66118 78.11669
#
# Velocity S-wave (km/s) = 3.84973 7.09021 5.70489
# Velocity P-wave (km/s) = 6.28568 9.63359 8.13375
#
# Compressibility (1/GPa) = 0.02109600
#
# Stress axis : x y z
#
# Youngs Moduli (GPa) = 74.37609 81.66908 128.82095
#
# Poissons Ratio (x) = 0.13827 0.16540
# Poissons Ratio (y) = 0.12593 0.41237
# Poissons Ratio (z) = 0.09550 0.26143
#
# Static dielectric constant tensor:
#      x y z
#    x 2.146420 0.000000 -0.070780 
#    y 0.000000 1.967980 0.000000 
#    z -0.070780 0.000000 2.015200 
# 
# From -- ./inp_files/182062.got.cif
#   From: 2010.05.17/outbox.cif.g08.bks.cpg/sg15_92_cif.got.tgz:182062.got - 2010.06.03 18:47:42.
