data_PCOD9281306
_publ_section_title
;
Structure prediction by ZEFSAII (Michael W. Deem and Ramdas Pophale) SiO2 
 PCOD9281306
Probable space group: C 2/C
;
_chemical_formula_sum "Si O2"
_cell_formula_units_Z 56
_cell_length_a 18.640545
_cell_length_b 21.521795
_cell_length_c 14.398207
_cell_angle_alpha 90.000000
_cell_angle_beta 23.341034
_cell_angle_gamma 90.000000
_cell_volume 2288.566086
_symmetry_space_group_name_H-M "C 2/C"
_symmetry_group_IT_number 15
_symmetry_cell_setting 'monoclinic'
loop_
_space_group_symop_operation_xyz
x,y,z
-x,y,1/2-z
-x,-y,-z
x,-y,1/2+z
1/2+x,1/2+y,z
1/2-x,1/2+y,1/2-z
1/2-x,1/2-y,-z
1/2+x,1/2-y,1/2+z
loop_
_atom_site_type_symbol
_atom_site_label
_atom_site_fract_x
_atom_site_fract_y
_atom_site_fract_z
Si Si1 0.972135 0.791632 0.142201
Si Si2 0.226036 0.931138 0.587412
Si Si3 0.196210 0.330860 0.628860
Si Si4 0.188735 0.957133 0.988830
Si Si5 0.180880 0.504306 0.846241
Si Si6 0.716958 0.684345 0.991403
Si Si7 0.358990 0.369968 0.104702
O O1 0.965300 0.717051 0.162028
O O2 0.804833 0.813791 0.406045
O O3 0.937153 0.819745 0.083163
O O4 0.159397 0.816719 0.960772
O O5 0.327138 0.964781 0.551093
O O6 0.304437 0.868739 0.450495
O O7 0.213606 0.980737 0.518720
O O8 0.029850 0.908121 0.858133
O O9 0.162890 0.404184 0.669390
O O10 0.000000 0.929836 0.250000
O O11 0.176952 0.972277 0.894236
O O12 0.242155 0.574923 0.789165
O O13 0.000000 0.500000 0.000000
O O14 0.500000 0.677921 0.250000
O O15 0.750000 0.750000 0.000000
O O16 0.754865 0.666377 0.839430
#
# Coordination Sequence:
#
# PCOD9281306 Si02
#       7
#     8   8   8   8   8   8   8
#     4  10  21  38  60  93 135 173 227 279 333 418
#     4  11  23  44  73  98 137 187 240 291 342 434
#     4  10  22  38  63  96 131 182 226 275 351 399
#     4  12  21  43  71  97 134 182 235 281 337 438
#     4  12  27  40  65 106 137 173 229 298 363 405
#     4  10  23  43  67  99 134 180 230 290 356 414
#     4  11  22  43  68  96 132 186 242 275 345 432
#
# _framework density 24.469469
#
# number of rings (size 3 to 8) (size 9 to 14) (size 15 to 20)
#    0.000    1.143    4.286    2.571    0.000    6.286 
#    0.000    2.857    0.000    0.000    0.000    0.000 
#    0.000    0.000    0.000    0.000    0.000    0.000 
#
# Total GULP energy -156687.874789 kJ/mol
# GULP energy per Si atom -5595.995528 kJ/mol
# Density = 2.441378 g / cm^3
# Si number density = 24.469469 Si / 1000 Ang^3
#
#
#
# Elastic Constant Matrix: (Units=GPa)
#
#
# Indices 1 2 3 4 5 6 
#
# 1 159.0906 64.3276 9.2113 -0.0210 7.5948 0.0185
# 2 64.3276 180.0008 4.4693 0.0520 5.8108 0.0329
# 3 9.2113 4.4693 47.0794 0.0300 -7.1240 0.0279
# 4 -0.0210 0.0520 0.0300 16.1354 -0.0016 1.1999
# 5 7.5948 5.8108 -7.1240 -0.0016 31.6971 -0.0223
# 6 0.0185 0.0329 0.0279 1.1999 -0.0223 51.8657
#
#
#
# Elastic Compliance Matrix: (Units=1/GPa)
#
#
# Indices 1 2 3 4 5 6 
#
# 1 0.007497 -0.002589 -0.001471 0.000021 -0.001652 -0.000001
# 2 -0.002589 0.006506 -0.000205 -0.000024 -0.000618 -0.000003
# 3 -0.001471 -0.000205 0.022368 -0.000042 0.005417 -0.000008
# 4 0.000021 -0.000024 -0.000042 0.062083 -0.000008 -0.001436
# 5 -0.001652 -0.000618 0.005417 -0.000008 0.033275 0.000013
# 6 -0.000001 -0.000003 -0.000008 -0.001436 0.000013 0.019314
#
#
# Mechanical properties :
#
#
# Convention : Reuss Voigt Hill
#
# Bulk Modulus (GPa) = 35.91861 60.24301 48.08081
# Shear Modulus (GPa) = 29.61174 40.48380 35.04777
#
# Velocity S-wave (km/s) = 3.48250 4.07192 3.78869
# Velocity P-wave (km/s) = 5.55708 6.83963 6.23144
#
# Compressibility (1/GPa) = 0.02784072
#
# Stress axis : x y z
#
# Youngs Moduli (GPa) = 133.39134 153.70618 44.70735
#
# Poissons Ratio (x) = 0.39799 0.06576
# Poissons Ratio (y) = 0.34539 0.00914
# Poissons Ratio (z) = 0.19622 0.03144
#
# Static dielectric constant tensor:
#      x y z
#    x 1.935000 -0.000020 0.019990 
#    y -0.000020 1.979580 0.000050 
#    z 0.019990 0.000050 2.055900 
# 
# From -- ./inp_files/163750.got.cif
#   From: 2010.05.17/outbox.cif.g08.bks.cpg/sg15_82_cif.got.tgz:163750.got - 2010.06.03 18:47:42.
