data_PCOD9281453
_publ_section_title
;
Structure prediction by ZEFSAII (Michael W. Deem and Ramdas Pophale) SiO2 
 PCOD9281453
Probable space group: C 2/C
;
_chemical_formula_sum "Si O2"
_cell_formula_units_Z 48
_cell_length_a 15.865365
_cell_length_b 30.640449
_cell_length_c 5.301067
_cell_angle_alpha 90.000000
_cell_angle_beta 116.203917
_cell_angle_gamma 90.000000
_cell_volume 2312.125448
_symmetry_space_group_name_H-M "C 2/C"
_symmetry_group_IT_number 15
_symmetry_cell_setting 'monoclinic'
loop_
_space_group_symop_operation_xyz
x,y,z
-x,y,1/2-z
-x,-y,-z
x,-y,1/2+z
1/2+x,1/2+y,z
1/2-x,1/2+y,1/2-z
1/2-x,1/2-y,-z
1/2+x,1/2-y,1/2+z
loop_
_atom_site_type_symbol
_atom_site_label
_atom_site_fract_x
_atom_site_fract_y
_atom_site_fract_z
Si Si1 0.500000 0.314859 0.750000
Si Si2 0.335392 0.272636 0.762829
Si Si3 0.500000 0.628044 0.750000
Si Si4 0.000000 0.664456 0.750000
Si Si5 0.000000 0.281744 0.750000
Si Si6 0.184921 0.388717 0.319402
Si Si7 0.794056 0.133494 0.456883
Si Si8 0.541709 0.049103 0.552180
O O1 0.405657 0.287624 0.633537
O O2 0.500704 0.343282 0.502206
O O3 0.250000 0.250000 0.500000
O O4 0.305159 0.315813 0.881407
O O5 0.407153 0.244813 0.033417
O O6 0.395090 0.609189 0.616996
O O7 0.970192 0.691401 0.460608
O O8 0.906763 0.640350 0.736101
O O9 0.242505 0.388748 0.652964
O O10 0.239545 0.370066 0.149608
O O11 0.149648 0.437930 0.203737
O O12 0.500000 0.070982 0.250000
O O13 0.500000 0.000000 0.500000
O O14 0.500000 0.067885 0.750000
#
# Coordination Sequence:
#
# PCOD9281453 Si02
#       8
#     4   8   4   4   4   8   8   8
#     4  10  21  38  62  78 106 152 210 279 350 377
#     4  11  24  45  61  84 116 164 229 292 333 397
#     4  10  21  42  58  82 114 156 210 285 320 359
#     4  12  27  42  60  89 132 170 205 281 335 404
#     4  12  27  44  62  83 118 174 231 277 357 384
#     4  12  24  41  64  97 129 170 204 259 326 400
#     4  11  24  40  64  87 119 167 227 274 332 367
#     4  10  21  40  67  99 137 173 193 233 301 392
#
# _framework density 20.760117999999999
#
# number of rings (size 3 to 8) (size 9 to 14) (size 15 to 20)
#    0.000    1.000    0.833    7.500    1.167    4.000 
#    0.000   16.667    0.000    0.000    0.000    0.000 
#    0.000   53.333    0.000    0.000    0.000    0.000 
#
# Total GULP energy -133774.353248 kJ/mol
# GULP energy per Si atom -5573.931385 kJ/mol
# Density = 2.071287 g / cm^3
# Si number density = 20.760118 Si / 1000 Ang^3
#
#
#
# Elastic Constant Matrix: (Units=GPa)
#
#
# Indices 1 2 3 4 5 6 
#
# 1 148.5730 32.8695 59.4891 0.0000 -9.4768 0.0000
# 2 32.8695 43.9879 22.3550 0.0000 8.0079 0.0000
# 3 59.4891 22.3550 160.9358 0.0000 1.0251 0.0000
# 4 0.0000 0.0000 0.0000 165.3347 0.0000 -117.1781
# 5 -9.4768 8.0079 1.0251 0.0000 57.7574 0.0000
# 6 0.0000 0.0000 0.0000 -117.1781 0.0000 105.0279
#
#
#
# Elastic Compliance Matrix: (Units=1/GPa)
#
#
# Indices 1 2 3 4 5 6 
#
# 1 0.009260 -0.006036 -0.002600 0.000000 0.002402 0.000000
# 2 -0.006036 0.029052 -0.001773 0.000000 -0.004987 0.000000
# 3 -0.002600 -0.001773 0.007423 0.000000 -0.000313 0.000000
# 4 0.000000 0.000000 0.000000 0.028901 0.000000 0.032244
# 5 0.002402 -0.004987 -0.000313 0.000000 0.018405 0.000000
# 6 0.000000 0.000000 0.000000 0.032244 0.000000 0.045496
#
#
# Mechanical properties :
#
#
# Convention : Reuss Voigt Hill
#
# Bulk Modulus (GPa) = 40.13013 64.76934 52.44973
# Shear Modulus (GPa) = 29.82220 81.54287 55.68254
#
# Velocity S-wave (km/s) = 3.79425 6.27406 5.18460
# Velocity P-wave (km/s) = 6.21027 9.15160 7.82046
#
# Compressibility (1/GPa) = 0.02491893
#
# Stress axis : x y z
#
# Youngs Moduli (GPa) = 107.98837 34.42053 134.71755
#
# Poissons Ratio (x) = 0.20775 0.35025
# Poissons Ratio (y) = 0.65178 0.23882
# Poissons Ratio (z) = 0.28076 0.06102
#
# Static dielectric constant tensor:
#      x y z
#    x 1.790020 0.000000 0.039610 
#    y 0.000000 1.669270 0.000000 
#    z 0.039610 0.000000 1.818030 
# 
# From -- ./inp_files/9201.got.cif
#   From: 2010.05.17/outbox.cif.g08.bks.cpg/sg15_5_cif.got.tgz:9201.got - 2010.06.03 18:47:42.
