data_PCOD9281341
_publ_section_title
;
Structure prediction by ZEFSAII (Michael W. Deem and Ramdas Pophale) SiO2 
 PCOD9281341
Probable space group: C 2/C
;
_chemical_formula_sum "Si O2"
_cell_formula_units_Z 56
_cell_length_a 10.814387
_cell_length_b 28.226847
_cell_length_c 10.202486
_cell_angle_alpha 90.000000
_cell_angle_beta 53.859238
_cell_angle_gamma 90.000000
_cell_volume 2515.073802
_symmetry_space_group_name_H-M "C 2/C"
_symmetry_group_IT_number 15
_symmetry_cell_setting 'monoclinic'
loop_
_space_group_symop_operation_xyz
x,y,z
-x,y,1/2-z
-x,-y,-z
x,-y,1/2+z
1/2+x,1/2+y,z
1/2-x,1/2+y,1/2-z
1/2-x,1/2-y,-z
1/2+x,1/2-y,1/2+z
loop_
_atom_site_type_symbol
_atom_site_label
_atom_site_fract_x
_atom_site_fract_y
_atom_site_fract_z
Si Si1 0.531588 0.450152 0.541892
Si Si2 0.732662 0.968186 0.903262
Si Si3 0.696341 0.678291 0.199007
Si Si4 0.359664 0.213701 0.739550
Si Si5 0.915918 0.850068 0.013716
Si Si6 0.472196 0.169988 0.415531
Si Si7 0.933420 0.562990 0.439113
O O1 0.500000 0.500000 0.500000
O O2 0.377707 0.448664 0.728265
O O3 0.701702 0.454294 0.497008
O O4 0.546535 0.401630 0.455072
O O5 0.575845 0.946306 0.948458
O O6 0.696464 0.024829 0.937844
O O7 0.693268 0.734707 0.178079
O O8 0.642381 0.650946 0.102454
O O9 0.579865 0.673638 0.392278
O O10 0.859088 0.659318 0.135917
O O11 0.500000 0.199758 0.750000
O O12 0.410655 0.208550 0.556736
O O13 0.215762 0.178918 0.836189
O O14 0.500000 0.186914 0.250000
O O15 0.388613 0.118621 0.468351
O O16 0.000000 0.552827 0.250000
#
# Coordination Sequence:
#
# PCOD9281341 Si02
#       7
#     8   8   8   8   8   8   8
#     4  11  23  38  59  93 134 172 220 279 349 415
#     4  10  21  38  61  86 121 169 226 274 337 400
#     4  11  21  42  70  99 136 176 227 294 356 418
#     4  12  23  41  71 108 133 172 240 297 340 423
#     4  11  22  38  69 101 134 176 227 292 357 406
#     4  11  25  42  64  94 143 184 222 278 361 424
#     4  10  21  40  62  88 125 175 228 281 341 415
#
# _framework density 22.265749
#
# number of rings (size 3 to 8) (size 9 to 14) (size 15 to 20)
#    0.000    1.143    2.857    5.571    2.000    1.714 
#    0.000    0.714    0.000    0.000    0.000    0.000 
#    0.000    0.000    0.000    0.000    0.000    0.000 
#
# Total GULP energy -156026.518022 kJ/mol
# GULP energy per Si atom -5572.375644 kJ/mol
# Density = 2.221507 g / cm^3
# Si number density = 22.265749 Si / 1000 Ang^3
#
#
#
# Elastic Constant Matrix: (Units=GPa)
#
#
# Indices 1 2 3 4 5 6 
#
# 1 15.7620 -1.2327 -0.3449 0.0000 -5.9567 0.0000
# 2 -1.2327 130.9343 23.2232 0.0000 -4.6076 0.0000
# 3 -0.3449 23.2232 36.5992 0.0000 1.6216 0.0000
# 4 0.0000 0.0000 0.0000 38.5606 0.0000 -7.0898
# 5 -5.9567 -4.6076 1.6216 0.0000 34.2961 0.0000
# 6 0.0000 0.0000 0.0000 -7.0898 0.0000 29.4236
#
#
#
# Elastic Compliance Matrix: (Units=1/GPa)
#
#
# Indices 1 2 3 4 5 6 
#
# 1 0.068060 0.001176 -0.000637 0.000000 0.012009 0.000000
# 2 0.001176 0.008696 -0.005579 0.000000 0.001636 0.000000
# 3 -0.000637 -0.005579 0.030960 0.000000 -0.002324 0.000000
# 4 0.000000 0.000000 0.000000 0.027135 0.000000 0.006538
# 5 0.012009 0.001636 -0.002324 0.000000 0.031573 0.000000
# 6 0.000000 0.000000 0.000000 0.006538 0.000000 0.035562
#
#
# Mechanical properties :
#
#
# Convention : Reuss Voigt Hill
#
# Bulk Modulus (GPa) = 10.24212 25.17630 17.70921
# Shear Modulus (GPa) = 20.44061 31.23273 25.83667
#
# Velocity S-wave (km/s) = 3.03319 3.74936 3.41013
# Velocity P-wave (km/s) = 4.10815 5.48410 4.84522
#
# Compressibility (1/GPa) = 0.09763604
#
# Stress axis : x y z
#
# Youngs Moduli (GPa) = 14.69291 115.00072 32.29971
#
# Poissons Ratio (x) = -0.13529 0.02058
# Poissons Ratio (y) = -0.01728 0.18020
# Poissons Ratio (z) = 0.00936 0.64159
#
# Static dielectric constant tensor:
#      x y z
#    x 1.819890 0.000000 0.075650 
#    y 0.000000 -0.758610 0.000000 
#    z 0.075650 0.000000 1.912910 
# 
# From -- ./inp_files/92005.got.cif
#   From: 2010.05.17/outbox.cif.g08.bks.cpg/sg15_47_cif.got.tgz:92005.got - 2010.06.03 18:47:42.
