data_PCOD9281982
_publ_section_title
;
Structure prediction by ZEFSAII (Michael W. Deem and Ramdas Pophale) SiO2 
 PCOD9281982
Probable space group: C 2/C
;
_chemical_formula_sum "Si O2"
_cell_formula_units_Z 56
_cell_length_a 17.891531
_cell_length_b 16.965536
_cell_length_c 8.688030
_cell_angle_alpha 90.000000
_cell_angle_beta 78.980988
_cell_angle_gamma 90.000000
_cell_volume 2588.540367
_symmetry_space_group_name_H-M "C 2/C"
_symmetry_group_IT_number 15
_symmetry_cell_setting 'monoclinic'
loop_
_space_group_symop_operation_xyz
x,y,z
-x,y,1/2-z
-x,-y,-z
x,-y,1/2+z
1/2+x,1/2+y,z
1/2-x,1/2+y,1/2-z
1/2-x,1/2-y,-z
1/2+x,1/2-y,1/2+z
loop_
_atom_site_type_symbol
_atom_site_label
_atom_site_fract_x
_atom_site_fract_y
_atom_site_fract_z
Si Si1 0.637686 0.733801 0.733763
Si Si2 0.214822 0.703363 0.657351
Si Si3 0.044215 0.891978 0.472224
Si Si4 0.500000 0.523181 0.250000
Si Si5 0.635180 0.949916 0.096041
Si Si6 0.421646 0.730682 0.089331
Si Si7 0.000000 0.649588 0.750000
Si Si8 0.913003 0.590770 0.219430
O O1 0.723976 0.708553 0.730249
O O2 0.589280 0.674197 0.860189
O O3 0.615073 0.737655 0.563838
O O4 0.618711 0.821995 0.792605
O O5 0.250000 0.750000 0.500000
O O6 0.201428 0.613629 0.602879
O O7 0.139515 0.747849 0.753354
O O8 0.037247 0.964316 0.358474
O O9 0.964048 0.852562 0.556125
O O10 0.064690 0.928441 0.629962
O O11 0.570257 0.908751 0.223568
O O12 0.640581 0.039791 0.145870
O O13 0.599606 0.948653 0.940770
O O14 0.488453 0.793390 0.107509
O O15 0.000000 0.591707 0.250000
#
# Coordination Sequence:
#
# PCOD9281982 Si02
#       8
#     8   8   8   4   8   8   4   8
#     4  12  24  45  72 104 139 188 240 291 358 447
#     4  11  26  47  66  94 141 191 242 286 355 452
#     4  11  22  43  70 105 136 176 237 300 361 419
#     4  10  23  40  67 104 142 170 224 306 355 416
#     4  11  24  42  63 100 140 179 228 291 358 415
#     4  11  23  41  72 101 132 183 239 293 355 430
#     4  10  21  38  67 102 134 178 226 282 361 418
#     4  12  24  39  70 104 141 174 229 296 355 420
#
# _framework density 21.633814999999998
#
# number of rings (size 3 to 8) (size 9 to 14) (size 15 to 20)
#    0.000    0.857    3.571    3.857    8.000    0.000 
#    0.000    4.286    0.000    0.000    0.000    0.000 
#    0.000    0.000    0.000    0.000    0.000    0.000 
#
# Total GULP energy -156070.959659 kJ/mol
# GULP energy per Si atom -5573.962845 kJ/mol
# Density = 2.158458 g / cm^3
# Si number density = 21.633815 Si / 1000 Ang^3
#
#
#
# Elastic Constant Matrix: (Units=GPa)
#
#
# Indices 1 2 3 4 5 6 
#
# 1 65.9673 31.2724 15.5264 0.0000 7.5973 0.0000
# 2 31.2724 101.6276 56.5744 0.0000 -0.2842 0.0000
# 3 15.5264 56.5744 82.2044 0.0000 -3.0596 0.0000
# 4 0.0000 0.0000 0.0000 53.6007 0.0000 -3.0036
# 5 7.5973 -0.2842 -3.0596 0.0000 38.3187 0.0000
# 6 0.0000 0.0000 0.0000 -3.0036 0.0000 15.1027
#
#
#
# Elastic Compliance Matrix: (Units=1/GPa)
#
#
# Indices 1 2 3 4 5 6 
#
# 1 0.018258 -0.005890 0.000470 0.000000 -0.003626 0.000000
# 2 -0.005890 0.017873 -0.011173 0.000000 0.000408 0.000000
# 3 0.000470 -0.011173 0.019818 0.000000 0.001406 0.000000
# 4 0.000000 0.000000 0.000000 0.018867 0.000000 0.003752
# 5 -0.003626 0.000408 0.001406 0.000000 0.026931 0.000000
# 6 0.000000 0.000000 0.000000 0.003752 0.000000 0.066959
#
#
# Mechanical properties :
#
#
# Convention : Reuss Voigt Hill
#
# Bulk Modulus (GPa) = 43.93023 50.72731 47.32877
# Shear Modulus (GPa) = 23.86858 31.16619 27.51738
#
# Velocity S-wave (km/s) = 3.32520 3.79967 3.57033
# Velocity P-wave (km/s) = 5.92393 6.53828 6.23867
#
# Compressibility (1/GPa) = 0.02276337
#
# Stress axis : x y z
#
# Youngs Moduli (GPa) = 54.76963 55.94924 50.45988
#
# Poissons Ratio (x) = 0.32956 -0.02373
# Poissons Ratio (y) = 0.32261 0.56379
# Poissons Ratio (z) = -0.02576 0.62512
#
# Static dielectric constant tensor:
#      x y z
#    x 1.859670 0.000000 0.002380 
#    y 0.000000 1.873220 0.000000 
#    z 0.002380 0.000000 1.871290 
# 
# From -- ./inp_files/56110.got.cif
#   From: 2010.05.17/outbox.cif.g08.bks.cpg/sg15_29_cif.got.tgz:56110.got - 2010.06.03 18:47:42.
