data_PCOD9281685
_publ_section_title
;
Structure prediction by ZEFSAII (Michael W. Deem and Ramdas Pophale) SiO2 
 PCOD9281685
Probable space group: C 2/C
;
_chemical_formula_sum "Si O2"
_cell_formula_units_Z 48
_cell_length_a 13.782488
_cell_length_b 18.743386
_cell_length_c 13.573161
_cell_angle_alpha 90.000000
_cell_angle_beta 146.171991
_cell_angle_gamma 90.000000
_cell_volume 1951.997598
_symmetry_space_group_name_H-M "C 2/C"
_symmetry_group_IT_number 15
_symmetry_cell_setting 'monoclinic'
loop_
_space_group_symop_operation_xyz
x,y,z
-x,y,1/2-z
-x,-y,-z
x,-y,1/2+z
1/2+x,1/2+y,z
1/2-x,1/2+y,1/2-z
1/2-x,1/2-y,-z
1/2+x,1/2-y,1/2+z
loop_
_atom_site_type_symbol
_atom_site_label
_atom_site_fract_x
_atom_site_fract_y
_atom_site_fract_z
Si Si1 0.493895 0.629495 0.355993
Si Si2 0.397761 0.474965 0.249710
Si Si3 0.987313 0.531169 0.624546
Si Si4 0.123931 0.388376 0.649855
Si Si5 0.140443 0.158832 0.666503
Si Si6 0.727801 0.274954 0.592780
O O1 0.500000 0.655789 0.250000
O O2 0.516391 0.543713 0.371014
O O3 0.305094 0.633141 0.248420
O O4 0.633393 0.666608 0.543628
O O5 0.500000 0.433892 0.250000
O O6 0.365894 0.423962 0.313205
O O7 0.209356 0.500806 0.054735
O O8 0.996135 0.593332 0.548219
O O9 0.000000 0.552211 0.750000
O O10 0.109903 0.464174 0.696516
O O11 0.124529 0.328249 0.736379
O O12 0.275935 0.205691 0.840087
O O13 0.955419 0.186125 0.551980
O O14 0.750000 0.250000 0.500000
#
# Coordination Sequence:
#
# PCOD9281685 Si02
#       6
#     8   8   8   8   8   8
#     4   9  20  43  67  92 127 166 219 270 325 383
#     4  10  21  38  63  96 127 169 208 270 324 386
#     4  10  22  39  68  96 134 171 216 270 338 383
#     4   9  22  43  61  95 136 169 217 274 320 400
#     4  11  24  40  61  93 128 167 216 263 321 391
#     4  11  24  41  62  90 131 169 212 264 325 390
#
# _framework density 24.590195999999999
#
# number of rings (size 3 to 8) (size 9 to 14) (size 15 to 20)
#    0.000    2.000    0.000    2.000    9.333    0.000 
#   18.000    4.167    0.000    0.000    0.000    0.000 
#    0.000    0.000    0.000    0.000    0.000    0.000 
#
# Total GULP energy -133991.683790 kJ/mol
# GULP energy per Si atom -5582.986825 kJ/mol
# Density = 2.453423 g / cm^3
# Si number density = 24.590196 Si / 1000 Ang^3
#
#
#
# Elastic Constant Matrix: (Units=GPa)
#
#
# Indices 1 2 3 4 5 6 
#
# 1 109.9509 27.6067 58.5677 0.0000 -29.5583 0.0000
# 2 27.6067 71.6975 52.4139 0.0000 -33.0623 0.0000
# 3 58.5677 52.4139 145.8520 0.0000 -52.8656 0.0000
# 4 0.0000 0.0000 0.0000 42.5342 0.0000 -10.6531
# 5 -29.5583 -33.0623 -52.8656 0.0000 60.7312 0.0000
# 6 0.0000 0.0000 0.0000 -10.6531 0.0000 31.1958
#
#
#
# Elastic Compliance Matrix: (Units=1/GPa)
#
#
# Indices 1 2 3 4 5 6 
#
# 1 0.011838 -0.000921 -0.003676 0.000000 0.002061 0.000000
# 2 -0.000921 0.020860 -0.004635 0.000000 0.006873 0.000000
# 3 -0.003676 -0.004635 0.012323 0.000000 0.006414 0.000000
# 4 0.000000 0.000000 0.000000 0.025709 0.000000 0.008780
# 5 0.002061 0.006873 0.006414 0.000000 0.026794 0.000000
# 6 0.000000 0.000000 0.000000 0.008780 0.000000 0.035054
#
#
# Mechanical properties :
#
#
# Convention : Reuss Voigt Hill
#
# Bulk Modulus (GPa) = 37.65434 67.18634 52.42034
# Shear Modulus (GPa) = 31.27041 39.48639 35.37840
#
# Velocity S-wave (km/s) = 3.56991 4.01156 3.79716
# Velocity P-wave (km/s) = 5.68668 6.98846 6.37090
#
# Compressibility (1/GPa) = 0.02655736
#
# Stress axis : x y z
#
# Youngs Moduli (GPa) = 84.47263 47.93828 81.14824
#
# Poissons Ratio (x) = 0.04414 0.29829
# Poissons Ratio (y) = 0.07778 0.37616
# Poissons Ratio (z) = 0.31051 0.22221
#
# Static dielectric constant tensor:
#      x y z
#    x 2.002620 0.000000 0.011380 
#    y 0.000000 1.991490 0.000000 
#    z 0.011380 0.000000 2.065890 
# 
# From -- ./inp_files/100073.got.cif
#   From: 2010.05.17/outbox.cif.g08.bks.cpg/sg15_51_cif.got.tgz:100073.got - 2010.06.03 18:47:42.
