data_PCOD9281347
_publ_section_title
;
Structure prediction by ZEFSAII (Michael W. Deem and Ramdas Pophale) SiO2 
 PCOD9281347
Probable space group: C 2/C
;
_chemical_formula_sum "Si O2"
_cell_formula_units_Z 40
_cell_length_a 7.972067
_cell_length_b 16.907688
_cell_length_c 13.613571
_cell_angle_alpha 90.000000
_cell_angle_beta 89.821340
_cell_angle_gamma 90.000000
_cell_volume 1834.953717
_symmetry_space_group_name_H-M "C 2/C"
_symmetry_group_IT_number 15
_symmetry_cell_setting 'monoclinic'
loop_
_space_group_symop_operation_xyz
x,y,z
-x,y,1/2-z
-x,-y,-z
x,-y,1/2+z
1/2+x,1/2+y,z
1/2-x,1/2+y,1/2-z
1/2-x,1/2-y,-z
1/2+x,1/2-y,1/2+z
loop_
_atom_site_type_symbol
_atom_site_label
_atom_site_fract_x
_atom_site_fract_y
_atom_site_fract_z
Si Si1 0.184611 0.268780 0.260653
Si Si2 0.096775 0.315651 0.573904
Si Si3 0.860854 0.443182 0.553144
Si Si4 0.719106 0.400297 0.108531
Si Si5 0.875693 0.173287 0.573182
O O1 0.295727 0.221167 0.338852
O O2 0.176639 0.356648 0.307494
O O3 0.273980 0.281191 0.157271
O O4 0.000000 0.234508 0.250000
O O5 0.210983 0.358776 0.491874
O O6 0.970688 0.381860 0.614356
O O7 0.983749 0.245554 0.524463
O O8 0.746262 0.506607 0.607014
O O9 0.745290 0.385881 0.485870
O O10 0.000000 0.500000 0.500000
O O11 0.524204 0.379516 0.118741
#
# Coordination Sequence:
#
# PCOD9281347 Si02
#       5
#     8   8   8   8   8
#     4  11  22  38  60  88 121 158 198 248 296 343
#     4  10  21  38  62  89 115 153 201 241 289 358
#     4  10  21  38  61  87 117 154 194 241 292 351
#     4  10  21  40  64  89 118 156 199 243 295 357
#     4  11  21  38  62  89 119 157 198 245 296 347
#
# _framework density 21.798915000000001
#
# number of rings (size 3 to 8) (size 9 to 14) (size 15 to 20)
#    0.000    1.600    0.000    8.400    0.000    1.600 
#    0.000   10.000    0.000   19.200    0.000    0.000 
#    0.000    0.000    0.000    0.000    0.000    0.000 
#
# Total GULP energy -111601.414218 kJ/mol
# GULP energy per Si atom -5580.070711 kJ/mol
# Density = 2.174930 g / cm^3
# Si number density = 21.798915 Si / 1000 Ang^3
#
#
#
# Elastic Constant Matrix: (Units=GPa)
#
#
# Indices 1 2 3 4 5 6 
#
# 1 131.8338 53.4181 37.3225 0.0000 21.1858 0.0000
# 2 53.4181 133.2499 20.7234 0.0000 21.8157 0.0000
# 3 37.3225 20.7234 53.1452 0.0000 17.8110 0.0000
# 4 0.0000 0.0000 0.0000 7.4221 0.0000 -0.6900
# 5 21.1858 21.8157 17.8110 0.0000 34.4500 0.0000
# 6 0.0000 0.0000 0.0000 -0.6900 0.0000 29.9749
#
#
#
# Elastic Compliance Matrix: (Units=1/GPa)
#
#
# Indices 1 2 3 4 5 6 
#
# 1 0.010760 -0.003147 -0.005781 0.000000 -0.001635 0.000000
# 2 -0.003147 0.009438 -0.000140 0.000000 -0.003969 0.000000
# 3 -0.005781 -0.000140 0.026260 0.000000 -0.009932 0.000000
# 4 0.000000 0.000000 0.000000 0.135023 0.000000 0.003108
# 5 -0.001635 -0.003969 -0.009932 0.000000 0.037682 0.000000
# 6 0.000000 0.000000 0.000000 0.003108 0.000000 0.033433
#
#
# Mechanical properties :
#
#
# Convention : Reuss Voigt Hill
#
# Bulk Modulus (GPa) = 35.30924 60.12855 47.71889
# Shear Modulus (GPa) = 17.84623 28.15371 22.99997
#
# Velocity S-wave (km/s) = 2.86435 3.59767 3.25175
# Velocity P-wave (km/s) = 5.21270 6.70081 6.00304
#
# Compressibility (1/GPa) = 0.02832120
#
# Stress axis : x y z
#
# Youngs Moduli (GPa) = 92.93868 105.95774 38.08095
#
# Poissons Ratio (x) = 0.33340 0.22016
# Poissons Ratio (y) = 0.29244 0.00534
# Poissons Ratio (z) = 0.53730 0.01486
#
# Static dielectric constant tensor:
#      x y z
#    x 1.865560 0.000000 -0.031170 
#    y 0.000000 1.825710 0.000000 
#    z -0.031170 0.000000 1.791780 
# 
# From -- ./inp_files/76921.got.cif
#   From: 2010.05.17/outbox.cif.g08.bks.cpg/sg15_39_cif.got.tgz:76921.got - 2010.06.03 18:47:42.
