data_PCOD9281006
_publ_section_title
;
Structure prediction by ZEFSAII (Michael W. Deem and Ramdas Pophale) SiO2 
 PCOD9281006
Probable space group: C 2/C
;
_chemical_formula_sum "Si O2"
_cell_formula_units_Z 52
_cell_length_a 12.674914
_cell_length_b 8.324126
_cell_length_c 23.892141
_cell_angle_alpha 90.000000
_cell_angle_beta 107.179123
_cell_angle_gamma 90.000000
_cell_volume 2408.339063
_symmetry_space_group_name_H-M "C 2/C"
_symmetry_group_IT_number 15
_symmetry_cell_setting 'monoclinic'
loop_
_space_group_symop_operation_xyz
x,y,z
-x,y,1/2-z
-x,-y,-z
x,-y,1/2+z
1/2+x,1/2+y,z
1/2-x,1/2+y,1/2-z
1/2-x,1/2-y,-z
1/2+x,1/2-y,1/2+z
loop_
_atom_site_type_symbol
_atom_site_label
_atom_site_fract_x
_atom_site_fract_y
_atom_site_fract_z
Si Si1 0.110928 0.999689 0.052822
Si Si2 0.628906 0.813675 0.266832
Si Si3 0.000000 0.086295 0.750000
Si Si4 0.181620 0.318681 0.404423
Si Si5 0.685919 0.165570 0.271255
Si Si6 0.945256 0.001985 0.618302
Si Si7 0.678893 0.169849 0.404787
O O1 0.194650 0.147988 0.054850
O O2 0.065318 0.003032 0.108966
O O3 0.191702 0.846624 0.057314
O O4 0.000000 0.000000 0.000000
O O5 0.500000 0.783997 0.250000
O O6 0.680254 0.811901 0.336693
O O7 0.696459 0.697504 0.237554
O O8 0.643340 0.993153 0.245692
O O9 0.097398 0.199311 0.740979
O O10 0.047902 0.002681 0.813105
O O11 0.121427 0.155922 0.412331
O O12 0.127263 0.493279 0.411240
O O13 0.687525 0.170937 0.338634
O O14 0.884964 0.167991 0.590606
#
# Coordination Sequence:
#
# PCOD9281006 Si02
#       7
#     8   8   4   8   8   8   8
#     4  10  23  45  66  91 126 163 216 271 307 368
#     4  11  23  35  58  89 125 171 204 253 314 378
#     4  10  22  38  64  96 128 172 202 258 318 380
#     4   9  23  41  58  96 121 158 221 249 311 384
#     4  10  21  38  55  87 131 159 212 252 306 384
#     4  11  22  42  66  89 133 166 202 261 320 370
#     4   8  22  43  55  93 125 153 211 262 302 373
#
# _framework density 21.591643999999999
#
# number of rings (size 3 to 8) (size 9 to 14) (size 15 to 20)
#    0.923    1.231    0.769    0.923    7.538    1.231 
#    2.769    0.769    0.000    0.000    0.000    0.000 
#    0.000    0.000    0.000    0.000    0.000    0.000 
#
# Total GULP energy -144981.343085 kJ/mol
# GULP energy per Si atom -5576.205503 kJ/mol
# Density = 2.154250 g / cm^3
# Si number density = 21.591644 Si / 1000 Ang^3
#
#
#
# Elastic Constant Matrix: (Units=GPa)
#
#
# Indices 1 2 3 4 5 6 
#
# 1 98.5934 54.5846 -8.6246 0.0000 5.4630 0.0000
# 2 54.5846 152.9954 15.4054 0.0000 8.5925 0.0000
# 3 -8.6246 15.4054 42.9859 0.0000 15.7644 0.0000
# 4 0.0000 0.0000 0.0000 -194.4411 0.0000 329.3620
# 5 5.4630 8.5925 15.7644 0.0000 37.8102 0.0000
# 6 0.0000 0.0000 0.0000 329.3620 0.0000 -469.1791
#
#
#
# Elastic Compliance Matrix: (Units=1/GPa)
#
#
# Indices 1 2 3 4 5 6 
#
# 1 0.013782 -0.005326 0.005856 0.000000 -0.003222 0.000000
# 2 -0.005326 0.008851 -0.004468 0.000000 0.000621 0.000000
# 3 0.005856 -0.004468 0.030667 0.000000 -0.012617 0.000000
# 4 0.000000 0.000000 0.000000 0.027196 0.000000 0.019092
# 5 -0.003222 0.000621 -0.012617 0.000000 0.032033 0.000000
# 6 0.000000 0.000000 0.000000 0.019092 0.000000 0.011271
#
#
# Mechanical properties :
#
#
# Convention : Reuss Voigt Hill
#
# Bulk Modulus (GPa) = 22.01542 46.36730 34.19136
# Shear Modulus (GPa) = 34.05593 -109.61471 -37.77939
#
# Velocity S-wave (km/s) = 3.97580 -7.13284 -4.18751
# Velocity P-wave (km/s) = 5.59414 6.80553 2.74052
#
# Compressibility (1/GPa) = 0.04542271
#
# Stress axis : x y z
#
# Youngs Moduli (GPa) = 72.55905 112.97852 32.60875
#
# Poissons Ratio (x) = 0.60168 -0.19094
# Poissons Ratio (y) = 0.38642 0.14571
# Poissons Ratio (z) = -0.42487 0.50483
#
# Static dielectric constant tensor:
#      x y z
#    x 1.750080 0.000000 0.026530 
#    y 0.000000 1.863230 0.000000 
#    z 0.026530 0.000000 1.849990 
# 
# From -- ./inp_files/291227.got.cif
#   From: 2010.05.17/outbox.cif.g08.bks.cpg/sg15_146_cif.got.tgz:291227.got - 2010.06.03 18:47:42.
