data_PCOD9281448
_publ_section_title
;
Structure prediction by ZEFSAII (Michael W. Deem and Ramdas Pophale) SiO2 
 PCOD9281448
Probable space group: C 2/C
;
_chemical_formula_sum "Si O2"
_cell_formula_units_Z 48
_cell_length_a 20.004303
_cell_length_b 8.887640
_cell_length_c 26.549383
_cell_angle_alpha 90.000000
_cell_angle_beta 153.208721
_cell_angle_gamma 90.000000
_cell_volume 2127.610014
_symmetry_space_group_name_H-M "C 2/C"
_symmetry_group_IT_number 15
_symmetry_cell_setting 'monoclinic'
loop_
_space_group_symop_operation_xyz
x,y,z
-x,y,1/2-z
-x,-y,-z
x,-y,1/2+z
1/2+x,1/2+y,z
1/2-x,1/2+y,1/2-z
1/2-x,1/2-y,-z
1/2+x,1/2-y,1/2+z
loop_
_atom_site_type_symbol
_atom_site_label
_atom_site_fract_x
_atom_site_fract_y
_atom_site_fract_z
Si Si1 0.627303 0.644290 0.641841
Si Si2 0.786109 0.944385 0.891967
Si Si3 0.620720 0.647617 0.757458
Si Si4 0.415053 0.412921 0.643882
Si Si5 0.848443 0.215102 0.002349
Si Si6 0.140056 0.595617 0.081441
O O1 0.706871 0.524181 0.658355
O O2 0.450869 0.622180 0.512884
O O3 0.644065 0.641497 0.712974
O O4 0.681634 0.804177 0.657159
O O5 0.670199 0.808003 0.811828
O O6 0.763457 0.069978 0.920968
O O7 0.458697 0.586981 0.665247
O O8 0.730682 0.514657 0.850358
O O9 0.500000 0.354461 0.750000
O O10 0.250588 0.349280 0.540681
O O11 0.458175 0.339569 0.619361
O O12 0.915436 0.288099 0.998099
O O13 0.000000 0.500000 0.000000
#
# Coordination Sequence:
#
# PCOD9281448 Si02
#       6
#     8   8   8   8   8   8
#     4  10  21  38  62 100 141 168 211 270 341 401
#     4  10  21  40  64  99 133 171 215 277 333 396
#     4  12  22  39  68 100 135 173 224 270 332 400
#     4  11  23  44  71  91 125 183 228 269 320 397
#     4  10  23  45  70  92 134 175 222 276 330 392
#     4  11  22  38  67 100 136 173 215 271 337 397
#
# _framework density 22.560524000000001
#
# number of rings (size 3 to 8) (size 9 to 14) (size 15 to 20)
#    0.000    1.333    5.000    1.000    0.000    1.333 
#    3.000    1.667    3.667    0.000    0.000    0.000 
#    0.000    0.000    0.000    0.000    0.000    0.000 
#
# Total GULP energy -133862.582557 kJ/mol
# GULP energy per Si atom -5577.607607 kJ/mol
# Density = 2.250918 g / cm^3
# Si number density = 22.560524 Si / 1000 Ang^3
#
#
#
# Elastic Constant Matrix: (Units=GPa)
#
#
# Indices 1 2 3 4 5 6 
#
# 1 77.1663 46.8575 29.9196 -0.0005 -24.2527 -0.0002
# 2 46.8575 149.1040 41.1202 -0.0002 1.0588 -0.0004
# 3 29.9196 41.1202 50.4923 0.0001 -21.7132 -0.0003
# 4 -0.0005 -0.0002 0.0001 32.1366 0.0002 17.3393
# 5 -24.2527 1.0588 -21.7132 0.0002 55.5032 0.0000
# 6 -0.0002 -0.0004 -0.0003 17.3393 0.0000 22.6124
#
#
#
# Elastic Compliance Matrix: (Units=1/GPa)
#
#
# Indices 1 2 3 4 5 6 
#
# 1 0.020071 -0.005039 -0.004782 0.000000 0.006996 0.000000
# 2 -0.005039 0.010523 -0.007956 0.000000 -0.005515 0.000000
# 3 -0.004782 -0.007956 0.034005 -0.000001 0.011365 0.000001
# 4 0.000000 0.000000 -0.000001 0.053077 0.000000 -0.040700
# 5 0.006996 -0.005515 0.011365 0.000000 0.025625 0.000000
# 6 0.000000 0.000000 0.000001 -0.040700 0.000000 0.075432
#
#
# Mechanical properties :
#
#
# Convention : Reuss Voigt Hill
#
# Bulk Modulus (GPa) = 34.42647 56.95080 45.68864
# Shear Modulus (GPa) = 18.94160 32.64146 25.79153
#
# Velocity S-wave (km/s) = 2.90071 3.80786 3.38481
# Velocity P-wave (km/s) = 5.14894 6.68068 5.96419
#
# Compressibility (1/GPa) = 0.02904742
#
# Stress axis : x y z
#
# Youngs Moduli (GPa) = 49.82220 95.02567 29.40730
#
# Poissons Ratio (x) = 0.47880 0.14061
# Poissons Ratio (y) = 0.25104 0.23397
# Poissons Ratio (z) = 0.23823 0.75603
#
# Static dielectric constant tensor:
#      x y z
#    x 1.961420 0.000000 0.007440 
#    y 0.000000 1.859700 0.000000 
#    z 0.007440 0.000000 1.865360 
# 
# From -- ./inp_files/300568.got.cif
#   From: 2010.05.17/outbox.cif.g08.bks.cpg/sg15_151_cif.got.tgz:300568.got - 2010.06.03 18:47:42.
