data_PCOD9281173
_publ_section_title
;
Structure prediction by ZEFSAII (Michael W. Deem and Ramdas Pophale) SiO2 
 PCOD9281173
Probable space group: C 2/C
;
_chemical_formula_sum "Si O2"
_cell_formula_units_Z 40
_cell_length_a 7.583178
_cell_length_b 10.593143
_cell_length_c 21.497389
_cell_angle_alpha 90.000000
_cell_angle_beta 85.687064
_cell_angle_gamma 90.000000
_cell_volume 1721.988362
_symmetry_space_group_name_H-M "C 2/C"
_symmetry_group_IT_number 15
_symmetry_cell_setting 'monoclinic'
loop_
_space_group_symop_operation_xyz
x,y,z
-x,y,1/2-z
-x,-y,-z
x,-y,1/2+z
1/2+x,1/2+y,z
1/2-x,1/2+y,1/2-z
1/2-x,1/2-y,-z
1/2+x,1/2-y,1/2+z
loop_
_atom_site_type_symbol
_atom_site_label
_atom_site_fract_x
_atom_site_fract_y
_atom_site_fract_z
Si Si1 0.478059 0.807167 0.352639
Si Si2 0.331117 0.941205 0.888990
Si Si3 0.640990 0.700505 0.692764
Si Si4 0.837523 0.619074 0.522191
Si Si5 0.414069 0.541245 0.388178
O O1 0.379586 0.938656 0.345292
O O2 0.646347 0.790285 0.302634
O O3 0.554535 0.832775 0.420607
O O4 0.365784 0.679527 0.362741
O O5 0.119426 0.947342 0.900916
O O6 0.389260 0.812660 0.855250
O O7 0.413822 0.937401 0.955814
O O8 0.500000 0.718727 0.750000
O O9 0.608970 0.563599 0.664190
O O10 0.750000 0.750000 0.500000
O O11 0.698778 0.516023 0.552437
#
# Coordination Sequence:
#
# PCOD9281173 Si02
#       5
#     8   8   8   8   8
#     4  10  23  37  58  92 117 151 195 234 287 348
#     4  11  22  38  62  89 116 153 193 236 288 347
#     4  10  23  43  61  79 115 156 195 246 292 336
#     4  11  19  38  60  87 126 154 186 228 289 350
#     4  10  21  38  59  86 120 152 190 240 286 341
#
# _framework density 23.228961999999999
#
# number of rings (size 3 to 8) (size 9 to 14) (size 15 to 20)
#    0.000    1.600    6.000    1.200    0.000    7.200 
#    0.000    1.000    0.000    0.000    0.000    0.000 
#    0.000    0.000    0.000    0.000    0.000    0.000 
#
# Total GULP energy -111681.742981 kJ/mol
# GULP energy per Si atom -5584.087149 kJ/mol
# Density = 2.317609 g / cm^3
# Si number density = 23.228962 Si / 1000 Ang^3
#
#
#
# Elastic Constant Matrix: (Units=GPa)
#
#
# Indices 1 2 3 4 5 6 
#
# 1 52.6345 27.5714 25.7289 0.0000 -17.0819 0.0000
# 2 27.5714 178.8925 31.8017 0.0000 -32.6891 0.0000
# 3 25.7289 31.8017 89.0265 0.0000 -46.8153 0.0000
# 4 0.0000 0.0000 0.0000 18.9137 0.0000 -11.9005
# 5 -17.0819 -32.6891 -46.8153 0.0000 39.4688 0.0000
# 6 0.0000 0.0000 0.0000 -11.9005 0.0000 32.8109
#
#
#
# Elastic Compliance Matrix: (Units=1/GPa)
#
#
# Indices 1 2 3 4 5 6 
#
# 1 0.023289 -0.002255 -0.004271 0.000000 0.003146 0.000000
# 2 -0.002255 0.006869 0.001798 0.000000 0.006845 0.000000
# 3 -0.004271 0.001798 0.030924 0.000000 0.036321 0.000000
# 4 0.000000 0.000000 0.000000 0.068505 0.000000 0.024847
# 5 0.003146 0.006845 0.036321 0.000000 0.075449 0.000000
# 6 0.000000 0.000000 0.000000 0.024847 0.000000 0.039490
#
#
# Mechanical properties :
#
#
# Convention : Reuss Voigt Hill
#
# Bulk Modulus (GPa) = 19.37017 54.52860 36.94938
# Shear Modulus (GPa) = 18.43718 33.93545 26.18632
#
# Velocity S-wave (km/s) = 2.82035 3.82633 3.36119
# Velocity P-wave (km/s) = 4.35462 6.56098 5.56818
#
# Compressibility (1/GPa) = 0.05162578
#
# Stress axis : x y z
#
# Youngs Moduli (GPa) = 42.93902 145.58617 32.33684
#
# Poissons Ratio (x) = 0.32834 0.13810
# Poissons Ratio (y) = 0.09684 -0.05813
# Poissons Ratio (z) = 0.18338 -0.26173
#
# Static dielectric constant tensor:
#      x y z
#    x 1.954790 0.000000 0.038800 
#    y 0.000000 1.911680 0.000000 
#    z 0.038800 0.000000 1.882560 
# 
# From -- ./inp_files/262414.got.cif
#   From: 2010.05.17/outbox.cif.g08.bks.cpg/sg15_132_cif.got.tgz:262414.got - 2010.06.03 18:47:42.
