data_PCOD9281040
_publ_section_title
;
Structure prediction by ZEFSAII (Michael W. Deem and Ramdas Pophale) SiO2 
 PCOD9281040
Probable space group: C 2/C
;
_chemical_formula_sum "Si O2"
_cell_formula_units_Z 40
_cell_length_a 14.038484
_cell_length_b 8.604244
_cell_length_c 19.651110
_cell_angle_alpha 90.000000
_cell_angle_beta 126.653332
_cell_angle_gamma 90.000000
_cell_volume 1904.304172
_symmetry_space_group_name_H-M "C 2/C"
_symmetry_group_IT_number 15
_symmetry_cell_setting 'monoclinic'
loop_
_space_group_symop_operation_xyz
x,y,z
-x,y,1/2-z
-x,-y,-z
x,-y,1/2+z
1/2+x,1/2+y,z
1/2-x,1/2+y,1/2-z
1/2-x,1/2-y,-z
1/2+x,1/2-y,1/2+z
loop_
_atom_site_type_symbol
_atom_site_label
_atom_site_fract_x
_atom_site_fract_y
_atom_site_fract_z
Si Si1 0.151190 0.654809 0.915618
Si Si2 0.762552 0.685699 0.342699
Si Si3 0.536151 0.602934 0.186432
Si Si4 0.622393 0.064797 0.518780
Si Si5 0.491366 0.631522 0.554243
O O1 0.192065 0.681703 0.855889
O O2 0.027365 0.744254 0.869726
O O3 0.250000 0.750000 0.000000
O O4 0.137679 0.492706 0.947498
O O5 0.677540 0.631502 0.245473
O O6 0.781013 0.529969 0.396202
O O7 0.890077 0.763403 0.386385
O O8 0.500000 0.585460 0.250000
O O9 0.483766 0.461762 0.121078
O O10 0.611761 0.249585 0.511544
O O11 0.500000 0.000000 0.500000
O O12 0.500000 0.500000 0.500000
#
# Coordination Sequence:
#
# PCOD9281040 Si02
#       5
#     8   8   8   8   8
#     4   9  17  36  58  76 106 150 190 223 278 347
#     4   9  20  37  57  80 112 152 191 239 288 338
#     4  10  21  38  57  82 115 147 185 238 288 331
#     4   9  18  34  56  80 110 151 191 226 277 347
#     4  11  22  37  59  86 115 150 191 236 285 345
#
# _framework density 21.005047000000001
#
# number of rings (size 3 to 8) (size 9 to 14) (size 15 to 20)
#    0.000    2.400    0.000    3.600    0.000    4.800 
#    0.000   21.000    0.000    0.000    0.000    0.000 
#    0.000    0.000    0.000    0.000    0.000    0.000 
#
# Total GULP energy -111418.571048 kJ/mol
# GULP energy per Si atom -5570.928552 kJ/mol
# Density = 2.095724 g / cm^3
# Si number density = 21.005047 Si / 1000 Ang^3
#
#
#
# Elastic Constant Matrix: (Units=GPa)
#
#
# Indices 1 2 3 4 5 6 
#
# 1 25.2335 6.1179 3.6971 0.0000 2.2593 0.0000
# 2 6.1179 107.1477 27.5042 0.0000 -7.8383 0.0000
# 3 3.6971 27.5042 84.3696 0.0000 11.1048 0.0000
# 4 0.0000 0.0000 0.0000 22.7545 0.0000 -1.4244
# 5 2.2593 -7.8383 11.1048 0.0000 32.2042 0.0000
# 6 0.0000 0.0000 0.0000 -1.4244 0.0000 33.8097
#
#
#
# Elastic Compliance Matrix: (Units=1/GPa)
#
#
# Indices 1 2 3 4 5 6 
#
# 1 0.040587 -0.002409 -0.000567 0.000000 -0.003238 0.000000
# 2 -0.002409 0.010791 -0.003960 0.000000 0.004161 0.000000
# 3 -0.000567 -0.003960 0.013922 0.000000 -0.005725 0.000000
# 4 0.000000 0.000000 0.000000 0.044064 0.000000 0.001856
# 5 -0.003238 0.004161 -0.005725 0.000000 0.034266 0.000000
# 6 0.000000 0.000000 0.000000 0.001856 0.000000 0.029655
#
#
# Mechanical properties :
#
#
# Convention : Reuss Voigt Hill
#
# Bulk Modulus (GPa) = 19.44454 32.37657 25.91056
# Shear Modulus (GPa) = 24.47388 29.71580 27.09484
#
# Velocity S-wave (km/s) = 3.41712 3.76533 3.59544
# Velocity P-wave (km/s) = 4.98459 5.86095 5.44045
#
# Compressibility (1/GPa) = 0.05142831
#
# Stress axis : x y z
#
# Youngs Moduli (GPa) = 24.63854 92.66666 71.82925
#
# Poissons Ratio (x) = 0.22321 0.04074
# Poissons Ratio (y) = 0.05935 0.28445
# Poissons Ratio (z) = 0.01397 0.36697
#
# Static dielectric constant tensor:
#      x y z
#    x 1.844060 0.000000 0.011000 
#    y 0.000000 1.666680 0.000000 
#    z 0.011000 0.000000 1.784980 
# 
# From -- ./inp_files/202219.got.cif
#   From: 2010.05.17/outbox.cif.g08.bks.cpg/sg15_102_cif.got.tgz:202219.got - 2010.06.03 18:47:42.
