data_PCOD9281932
_publ_section_title
;
Structure prediction by ZEFSAII (Michael W. Deem and Ramdas Pophale) SiO2 
 PCOD9281932
Probable space group: C 2/C
;
_chemical_formula_sum "Si O2"
_cell_formula_units_Z 56
_cell_length_a 15.529551
_cell_length_b 9.555576
_cell_length_c 20.509491
_cell_angle_alpha 90.000000
_cell_angle_beta 67.336676
_cell_angle_gamma 90.000000
_cell_volume 2808.478761
_symmetry_space_group_name_H-M "C 2/C"
_symmetry_group_IT_number 15
_symmetry_cell_setting 'monoclinic'
loop_
_space_group_symop_operation_xyz
x,y,z
-x,y,1/2-z
-x,-y,-z
x,-y,1/2+z
1/2+x,1/2+y,z
1/2-x,1/2+y,1/2-z
1/2-x,1/2-y,-z
1/2+x,1/2-y,1/2+z
loop_
_atom_site_type_symbol
_atom_site_label
_atom_site_fract_x
_atom_site_fract_y
_atom_site_fract_z
Si Si1 0.398932 0.090999 0.987488
Si Si2 0.432276 0.451489 0.119549
Si Si3 0.273933 0.106466 0.459060
Si Si4 0.725346 0.673647 0.326175
Si Si5 0.887296 0.894224 0.980635
Si Si6 0.570113 0.820771 0.791664
Si Si7 0.399746 0.053805 0.614121
O O1 0.361430 0.236295 0.971560
O O2 0.371527 0.958658 0.951722
O O3 0.510178 0.114197 0.950549
O O4 0.362569 0.054905 0.070414
O O5 0.348038 0.550101 0.170622
O O6 0.523443 0.548359 0.084202
O O7 0.451539 0.315974 0.158031
O O8 0.409219 0.402042 0.052127
O O9 0.250000 0.250000 0.500000
O O10 0.261821 0.129195 0.386639
O O11 0.198155 0.996189 0.505947
O O12 0.819567 0.690480 0.257917
O O13 0.669199 0.820071 0.348342
O O14 0.500000 0.823995 0.750000
O O15 0.566859 0.964526 0.833920
#
# Coordination Sequence:
#
# PCOD9281932 Si02
#       7
#     8   8   8   8   8   8   8
#     4  11  21  39  63  98 128 160 208 264 319 369
#     4  10  22  41  65  92 123 171 215 257 317 378
#     4  11  23  36  65 101 127 157 208 267 317 367
#     4  11  23  44  62  93 129 172 209 257 316 386
#     4  10  21  38  66  92 130 161 208 264 319 375
#     4  12  26  42  65  91 129 171 216 262 313 379
#     4  11  23  39  67  91 125 169 211 256 318 377
#
# _framework density 19.939620999999999
#
# number of rings (size 3 to 8) (size 9 to 14) (size 15 to 20)
#    0.000    1.143    4.286    2.143    4.000    0.000 
#    0.000    0.714    0.000    0.000    0.000    0.000 
#    0.000    0.000    0.000    0.000    0.000    0.000 
#
# Total GULP energy -156296.832716 kJ/mol
# GULP energy per Si atom -5582.029740 kJ/mol
# Density = 1.989424 g / cm^3
# Si number density = 19.939621 Si / 1000 Ang^3
#
#
#
# Elastic Constant Matrix: (Units=GPa)
#
#
# Indices 1 2 3 4 5 6 
#
# 1 69.6501 15.0853 28.2990 0.0000 -3.3569 0.0000
# 2 15.0853 102.2186 24.6918 0.0000 -1.8211 0.0000
# 3 28.2990 24.6918 55.6511 0.0000 -7.0999 0.0000
# 4 0.0000 0.0000 0.0000 32.5660 0.0000 1.1217
# 5 -3.3569 -1.8211 -7.0999 0.0000 33.2990 0.0000
# 6 0.0000 0.0000 0.0000 1.1217 0.0000 37.8168
#
#
#
# Elastic Compliance Matrix: (Units=1/GPa)
#
#
# Indices 1 2 3 4 5 6 
#
# 1 0.018120 -0.000500 -0.009007 0.000000 -0.000121 0.000000
# 2 -0.000500 0.010978 -0.004673 0.000000 -0.000446 0.000000
# 3 -0.009007 -0.004673 0.025159 0.000000 0.004201 0.000000
# 4 0.000000 0.000000 0.000000 0.030738 0.000000 -0.000912
# 5 -0.000121 -0.000446 0.004201 0.000000 0.030890 0.000000
# 6 0.000000 0.000000 0.000000 -0.000912 0.000000 0.026470
#
#
# Mechanical properties :
#
#
# Convention : Reuss Voigt Hill
#
# Bulk Modulus (GPa) = 38.61881 40.40802 39.51341
# Shear Modulus (GPa) = 27.87870 31.36593 29.62231
#
# Velocity S-wave (km/s) = 3.74325 3.97047 3.85853
# Velocity P-wave (km/s) = 6.17191 6.42874 6.30163
#
# Compressibility (1/GPa) = 0.02589412
#
# Stress axis : x y z
#
# Youngs Moduli (GPa) = 55.18824 91.09383 39.74752
#
# Poissons Ratio (x) = 0.04559 0.35803
# Poissons Ratio (y) = 0.02762 0.18575
# Poissons Ratio (z) = 0.49711 0.42570
#
# Static dielectric constant tensor:
#      x y z
#    x 1.933130 0.000000 0.201660 
#    y 0.000000 1.704000 0.000000 
#    z 0.201660 0.000000 1.981300 
# 
# From -- ./inp_files/247347.got.cif
#   From: 2010.05.17/outbox.cif.g08.bks.cpg/sg15_124_cif.got.tgz:247347.got - 2010.06.03 18:47:42.
