data_PCOD9281624
_publ_section_title
;
Structure prediction by ZEFSAII (Michael W. Deem and Ramdas Pophale) SiO2 
 PCOD9281624
Probable space group: C 2/C
;
_chemical_formula_sum "Si O2"
_cell_formula_units_Z 48
_cell_length_a 17.587503
_cell_length_b 6.980263
_cell_length_c 23.686182
_cell_angle_alpha 90.000000
_cell_angle_beta 42.855936
_cell_angle_gamma 90.000000
_cell_volume 1977.790991
_symmetry_space_group_name_H-M "C 2/C"
_symmetry_group_IT_number 15
_symmetry_cell_setting 'monoclinic'
loop_
_space_group_symop_operation_xyz
x,y,z
-x,y,1/2-z
-x,-y,-z
x,-y,1/2+z
1/2+x,1/2+y,z
1/2-x,1/2+y,1/2-z
1/2-x,1/2-y,-z
1/2+x,1/2-y,1/2+z
loop_
_atom_site_type_symbol
_atom_site_label
_atom_site_fract_x
_atom_site_fract_y
_atom_site_fract_z
Si Si1 0.600464 0.106800 0.307037
Si Si2 0.250000 0.750000 0.500000
Si Si3 0.693743 0.547576 0.621178
Si Si4 0.971962 0.819004 0.939752
Si Si5 0.435517 0.234442 0.489484
Si Si6 0.500000 0.152876 0.250000
Si Si7 0.166910 0.952796 0.759015
O O1 0.508479 0.111839 0.405918
O O2 0.552580 0.033644 0.273261
O O3 0.719914 0.040762 0.265678
O O4 0.621041 0.331917 0.283630
O O5 0.317380 0.585647 0.426821
O O6 0.141245 0.722815 0.518702
O O7 0.691562 0.833493 0.440269
O O8 0.596108 0.707367 0.673670
O O9 0.688599 0.418113 0.681036
O O10 0.075164 0.820387 0.839398
O O11 0.943743 0.042596 0.967353
O O12 0.013086 0.730627 0.976219
#
# Coordination Sequence:
#
# PCOD9281624 Si02
#       7
#     8   4   8   8   8   4   8
#     4  10  21  38  63  91 119 157 201 245 300 362
#     4  12  24  36  60  96 122 148 204 262 302 344
#     4  11  23  41  63  87 124 166 200 247 307 364
#     4  10  22  40  64  92 121 158 205 254 301 359
#     4  10  22  42  65  88 122 166 205 242 301 374
#     4  10  22  42  64  86 120 160 198 246 308 358
#     4  10  21  40  63  85 121 164 200 241 302 366
#
# _framework density 24.269500000000001
#
# number of rings (size 3 to 8) (size 9 to 14) (size 15 to 20)
#    0.000    1.667    0.000    6.000    0.000    6.667 
#    0.000    1.667    0.000   10.000    0.000    0.000 
#    0.000    0.000    0.000    0.000    0.000    0.000 
#
# Total GULP energy -133986.398420 kJ/mol
# GULP energy per Si atom -5582.766601 kJ/mol
# Density = 2.421426 g / cm^3
# Si number density = 24.269500 Si / 1000 Ang^3
#
#
#
# Elastic Constant Matrix: (Units=GPa)
#
#
# Indices 1 2 3 4 5 6 
#
# 1 157.2299 29.6601 44.2404 -0.0002 -8.2031 -0.0011
# 2 29.6601 48.2504 34.7355 -0.0001 12.4965 -0.0014
# 3 44.2404 34.7355 113.0344 -0.0001 -9.9407 0.0005
# 4 -0.0002 -0.0001 -0.0001 32.1561 0.0000 -4.3812
# 5 -8.2031 12.4965 -9.9407 0.0000 49.2194 0.0001
# 6 -0.0011 -0.0014 0.0005 -4.3812 0.0001 23.8856
#
#
#
# Elastic Compliance Matrix: (Units=1/GPa)
#
#
# Indices 1 2 3 4 5 6 
#
# 1 0.007682 -0.004116 -0.001565 0.000000 0.002009 0.000000
# 2 -0.004116 0.032905 -0.009464 0.000000 -0.010952 0.000002
# 3 -0.001565 -0.009464 0.012783 0.000000 0.004724 -0.000001
# 4 0.000000 0.000000 0.000000 0.031895 0.000000 0.005850
# 5 0.002009 -0.010952 0.004724 0.000000 0.024387 -0.000001
# 6 0.000000 0.000002 -0.000001 0.005850 -0.000001 0.042939
#
#
# Mechanical properties :
#
#
# Convention : Reuss Voigt Hill
#
# Bulk Modulus (GPa) = 43.32732 59.53186 51.42959
# Shear Modulus (GPa) = 26.23659 35.04415 30.64037
#
# Velocity S-wave (km/s) = 3.29150 3.80407 3.55703
# Velocity P-wave (km/s) = 5.68653 6.62400 6.17309
#
# Compressibility (1/GPa) = 0.02308013
#
# Stress axis : x y z
#
# Youngs Moduli (GPa) = 130.17956 30.39081 78.22820
#
# Poissons Ratio (x) = 0.12508 0.12243
# Poissons Ratio (y) = 0.53578 0.74035
# Poissons Ratio (z) = 0.20374 0.28762
#
# Static dielectric constant tensor:
#      x y z
#    x 1.886350 0.000000 0.046500 
#    y 0.000000 1.953160 0.000000 
#    z 0.046500 0.000000 1.946050 
# 
# From -- ./inp_files/243282.got.cif
#   From: 2010.05.17/outbox.cif.g08.bks.cpg/sg15_122_cif.got.tgz:243282.got - 2010.06.03 18:47:42.
