data_PCOD9281919
_publ_section_title
;
Structure prediction by ZEFSAII (Michael W. Deem and Ramdas Pophale) SiO2 
 PCOD9281919
Probable space group: C 2/C
;
_chemical_formula_sum "Si O2"
_cell_formula_units_Z 56
_cell_length_a 13.933307
_cell_length_b 25.970243
_cell_length_c 8.097840
_cell_angle_alpha 90.000000
_cell_angle_beta 120.430251
_cell_angle_gamma 90.000000
_cell_volume 2526.566815
_symmetry_space_group_name_H-M "C 2/C"
_symmetry_group_IT_number 15
_symmetry_cell_setting 'monoclinic'
loop_
_space_group_symop_operation_xyz
x,y,z
-x,y,1/2-z
-x,-y,-z
x,-y,1/2+z
1/2+x,1/2+y,z
1/2-x,1/2+y,1/2-z
1/2-x,1/2-y,-z
1/2+x,1/2-y,1/2+z
loop_
_atom_site_type_symbol
_atom_site_label
_atom_site_fract_x
_atom_site_fract_y
_atom_site_fract_z
Si Si1 0.965715 0.830119 0.476921
Si Si2 0.776192 0.444306 0.147852
Si Si3 0.611258 0.967618 0.585669
Si Si4 0.263767 0.843088 0.353097
Si Si5 0.865927 0.356259 0.795607
Si Si6 0.954672 0.719029 0.897021
Si Si7 0.847896 0.872766 0.677721
O O1 0.870193 0.839116 0.260033
O O2 0.024633 0.775573 0.512685
O O3 0.892000 0.832107 0.581719
O O4 0.060145 0.872656 0.597870
O O5 0.786556 0.496902 0.259764
O O6 0.793711 0.396899 0.288246
O O7 0.867683 0.451080 0.084406
O O8 0.671345 0.424862 0.945376
O O9 0.601182 0.916149 0.683140
O O10 0.500000 0.000000 0.500000
O O11 0.312586 0.840167 0.577529
O O12 0.327395 0.798856 0.305518
O O13 0.768715 0.355360 0.848600
O O14 0.968942 0.321514 0.937359
O O15 0.000000 0.717681 0.750000
#
# Coordination Sequence:
#
# PCOD9281919 Si02
#       7
#     8   8   8   8   8   8   8
#     4  10  22  42  69  87 124 177 223 280 319 397
#     4  10  21  38  66  90 131 169 214 265 324 396
#     4  11  21  37  63  97 127 171 211 263 339 390
#     4  11  25  43  60  94 136 172 220 272 336 392
#     4  11  25  41  63  97 140 167 214 279 329 409
#     4  12  23  39  65  91 125 173 224 267 332 393
#     4   9  20  43  64  94 122 173 230 264 332 383
#
# _framework density 22.164465
#
# number of rings (size 3 to 8) (size 9 to 14) (size 15 to 20)
#    0.000    1.429    1.429    5.143    2.000    4.571 
#    2.571    0.000    0.000   56.571    0.000    0.000 
#    0.000    0.000    0.000    0.000    0.000    0.000 
#
# Total GULP energy -156386.993913 kJ/mol
# GULP energy per Si atom -5585.249783 kJ/mol
# Density = 2.211402 g / cm^3
# Si number density = 22.164465 Si / 1000 Ang^3
#
#
#
# Elastic Constant Matrix: (Units=GPa)
#
#
# Indices 1 2 3 4 5 6 
#
# 1 36.6210 4.5309 -3.0515 0.0000 18.0585 0.0000
# 2 4.5309 95.3879 30.1567 0.0000 18.0305 0.0000
# 3 -3.0515 30.1567 108.5708 0.0000 24.7218 0.0000
# 4 0.0000 0.0000 0.0000 21.9381 0.0000 6.1184
# 5 18.0585 18.0305 24.7218 0.0000 41.3587 0.0000
# 6 0.0000 0.0000 0.0000 6.1184 0.0000 23.1113
#
#
#
# Elastic Compliance Matrix: (Units=1/GPa)
#
#
# Indices 1 2 3 4 5 6 
#
# 1 0.037468 0.000216 0.005486 0.000000 -0.019733 0.000000
# 2 0.000216 0.011974 -0.002442 0.000000 -0.003855 0.000000
# 3 0.005486 -0.002442 0.011976 0.000000 -0.008490 0.000000
# 4 0.000000 0.000000 0.000000 0.049217 0.000000 -0.013029
# 5 -0.019733 -0.003855 -0.008490 0.000000 0.039550 0.000000
# 6 0.000000 0.000000 0.000000 -0.013029 0.000000 0.046718
#
#
# Mechanical properties :
#
#
# Convention : Reuss Voigt Hill
#
# Bulk Modulus (GPa) = 14.71921 33.76132 24.24027
# Shear Modulus (GPa) = 23.47098 31.21119 27.34108
#
# Velocity S-wave (km/s) = 3.25768 3.75662 3.51601
# Velocity P-wave (km/s) = 4.56128 5.83794 5.23864
#
# Compressibility (1/GPa) = 0.06793844
#
# Stress axis : x y z
#
# Youngs Moduli (GPa) = 26.68937 83.51481 83.49883
#
# Poissons Ratio (x) = -0.01802 -0.45811
# Poissons Ratio (y) = -0.00576 0.20392
# Poissons Ratio (z) = -0.14643 0.20396
#
# Static dielectric constant tensor:
#      x y z
#    x 1.833870 0.000000 0.001970 
#    y 0.000000 1.817440 0.000000 
#    z 0.001970 0.000000 1.908180 
# 
# From -- ./inp_files/42762.got.cif
#   From: 2010.05.17/outbox.cif.g08.bks.cpg/sg15_22_cif.got.tgz:42762.got - 2010.06.03 18:47:42.
