data_PCOD9281197
_publ_section_title
;
Structure prediction by ZEFSAII (Michael W. Deem and Ramdas Pophale) SiO2 
 PCOD9281197
Probable space group: C 2/C
;
_chemical_formula_sum "Si O2"
_cell_formula_units_Z 48
_cell_length_a 13.843172
_cell_length_b 19.520079
_cell_length_c 13.620045
_cell_angle_alpha 90.000000
_cell_angle_beta 137.125195
_cell_angle_gamma 90.000000
_cell_volume 2504.143367
_symmetry_space_group_name_H-M "C 2/C"
_symmetry_group_IT_number 15
_symmetry_cell_setting 'monoclinic'
loop_
_space_group_symop_operation_xyz
x,y,z
-x,y,1/2-z
-x,-y,-z
x,-y,1/2+z
1/2+x,1/2+y,z
1/2-x,1/2+y,1/2-z
1/2-x,1/2-y,-z
1/2+x,1/2-y,1/2+z
loop_
_atom_site_type_symbol
_atom_site_label
_atom_site_fract_x
_atom_site_fract_y
_atom_site_fract_z
Si Si1 0.090668 0.194264 0.223819
Si Si2 0.899302 0.322126 0.025054
Si Si3 0.474685 0.565857 0.410071
Si Si4 0.287228 0.065759 0.593845
Si Si5 0.411595 0.934121 0.401331
Si Si6 0.343455 0.466024 0.157228
O O1 0.250618 0.207868 0.377498
O O2 0.101933 0.139470 0.142326
O O3 0.000000 0.165405 0.250000
O O4 0.005436 0.262373 0.134523
O O5 0.858009 0.376243 0.079881
O O6 0.985541 0.369323 0.013443
O O7 0.500000 0.500000 0.500000
O O8 0.633272 0.591368 0.510652
O O9 0.391534 0.531369 0.257746
O O10 0.370746 0.053978 0.756644
O O11 0.244687 0.997283 0.500292
O O12 0.268084 0.926225 0.358044
O O13 0.500000 0.000000 0.500000
O O14 0.500000 0.434099 0.250000
#
# Coordination Sequence:
#
# PCOD9281197 Si02
#       6
#     8   8   8   8   8   8
#     4  12  23  40  59  91 135 173 214 254 328 405
#     4  12  26  39  60  95 135 177 206 266 329 399
#     4  11  20  36  62  88 128 164 215 256 311 382
#     4  11  21  38  58  90 128 171 206 258 324 379
#     4  12  23  38  59  89 132 165 224 267 321 385
#     4  10  21  38  59  89 126 164 211 269 319 383
#
# _framework density 19.168232
#
# number of rings (size 3 to 8) (size 9 to 14) (size 15 to 20)
#    0.000    0.667    6.667    2.500    2.333    0.000 
#    0.000    0.000    0.000    0.000    0.000   10.500 
#   10.000    0.000    0.000    0.000    0.000    0.000 
#
# Total GULP energy -133675.633627 kJ/mol
# GULP energy per Si atom -5569.818068 kJ/mol
# Density = 1.912460 g / cm^3
# Si number density = 19.168232 Si / 1000 Ang^3
#
#
#
# Elastic Constant Matrix: (Units=GPa)
#
#
# Indices 1 2 3 4 5 6 
#
# 1 94.7683 42.5925 44.9320 0.0000 29.4530 0.0000
# 2 42.5925 79.6560 46.4393 0.0000 12.5871 0.0000
# 3 44.9320 46.4393 134.0709 0.0000 23.3474 0.0000
# 4 0.0000 0.0000 0.0000 38.3105 0.0000 0.2668
# 5 29.4530 12.5871 23.3474 0.0000 36.3352 0.0000
# 6 0.0000 0.0000 0.0000 0.2668 0.0000 28.5080
#
#
#
# Elastic Compliance Matrix: (Units=1/GPa)
#
#
# Indices 1 2 3 4 5 6 
#
# 1 0.017840 -0.006806 -0.001704 0.000000 -0.011008 0.000000
# 2 -0.006806 0.018484 -0.004467 0.000000 0.001984 0.000000
# 3 -0.001704 -0.004467 0.010210 0.000000 -0.003631 0.000000
# 4 0.000000 0.000000 0.000000 0.026104 0.000000 -0.000244
# 5 -0.011008 0.001984 -0.003631 0.000000 0.038091 0.000000
# 6 0.000000 0.000000 0.000000 -0.000244 0.000000 0.035080
#
#
# Mechanical properties :
#
#
# Convention : Reuss Voigt Hill
#
# Bulk Modulus (GPa) = 48.59380 64.04698 56.32039
# Shear Modulus (GPa) = 27.99183 32.26618 30.12901
#
# Velocity S-wave (km/s) = 3.82556 4.10727 3.96892
# Velocity P-wave (km/s) = 6.70220 7.48188 7.10275
#
# Compressibility (1/GPa) = 0.02057876
#
# Stress axis : x y z
#
# Youngs Moduli (GPa) = 56.05265 54.10092 97.94733
#
# Poissons Ratio (x) = 0.36822 0.16695
# Poissons Ratio (y) = 0.38150 0.43753
# Poissons Ratio (z) = 0.09554 0.24167
#
# Static dielectric constant tensor:
#      x y z
#    x 1.755990 0.000000 -0.028100 
#    y 0.000000 1.700860 0.000000 
#    z -0.028100 0.000000 1.834710 
# 
# From -- ./inp_files/155283.got.cif
#   From: 2010.05.17/outbox.cif.g08.bks.cpg/sg15_78_cif.got.tgz:155283.got - 2010.06.03 18:47:42.
