data_PCOD9281370
_publ_section_title
;
Structure prediction by ZEFSAII (Michael W. Deem and Ramdas Pophale) SiO2 
 PCOD9281370
Probable space group: C 2/C
;
_chemical_formula_sum "Si O2"
_cell_formula_units_Z 56
_cell_length_a 11.011889
_cell_length_b 32.004779
_cell_length_c 8.376235
_cell_angle_alpha 90.000000
_cell_angle_beta 105.437439
_cell_angle_gamma 90.000000
_cell_volume 2845.556787
_symmetry_space_group_name_H-M "C 2/C"
_symmetry_group_IT_number 15
_symmetry_cell_setting 'monoclinic'
loop_
_space_group_symop_operation_xyz
x,y,z
-x,y,1/2-z
-x,-y,-z
x,-y,1/2+z
1/2+x,1/2+y,z
1/2-x,1/2+y,1/2-z
1/2-x,1/2-y,-z
1/2+x,1/2-y,1/2+z
loop_
_atom_site_type_symbol
_atom_site_label
_atom_site_fract_x
_atom_site_fract_y
_atom_site_fract_z
Si Si1 0.625980 0.950047 0.085965
Si Si2 0.846979 0.283136 0.698523
Si Si3 0.141112 0.192376 0.745026
Si Si4 0.640695 0.596282 0.274516
Si Si5 0.171171 0.462997 0.466973
Si Si6 0.736360 0.868756 0.996728
Si Si7 0.363110 0.309056 0.626447
O O1 0.684424 0.952075 0.284621
O O2 0.476255 0.956125 0.046456
O O3 0.644451 0.905821 0.009209
O O4 0.688006 0.987673 0.006786
O O5 0.813698 0.234453 0.649763
O O6 0.820027 0.326399 0.596774
O O7 0.757044 0.291248 0.821377
O O8 0.000000 0.281361 0.750000
O O9 0.142726 0.202405 0.559800
O O10 0.000000 0.185302 0.750000
O O11 0.208500 0.150001 0.820388
O O12 0.500000 0.578965 0.250000
O O13 0.742391 0.565073 0.387337
O O14 0.670194 0.610720 0.102314
O O15 0.643814 0.640687 0.366663
O O16 0.500000 0.296835 0.750000
#
# Coordination Sequence:
#
# PCOD9281370 Si02
#       7
#     8   8   8   8   8   8   8
#     4  10  22  38  64  91 115 165 194 256 307 365
#     4  10  23  39  59  89 120 164 205 261 311 363
#     4  11  21  39  61  87 123 161 207 257 310 371
#     4  10  21  38  61  88 121 161 198 249 303 363
#     4  10  21  41  62  89 126 153 206 246 310 369
#     4  11  23  37  60  90 120 156 204 248 305 367
#     4  10  21  39  63  86 119 166 207 253 312 370
#
# _framework density 19.679804000000001
#
# number of rings (size 3 to 8) (size 9 to 14) (size 15 to 20)
#    0.000    1.714    0.000    5.143    4.000    2.286 
#    0.000    3.571    0.000    0.000    0.000    0.000 
#    0.000    0.000    0.000    0.000    0.000    0.000 
#
# Total GULP energy -155936.301131 kJ/mol
# GULP energy per Si atom -5569.153612 kJ/mol
# Density = 1.963501 g / cm^3
# Si number density = 19.679804 Si / 1000 Ang^3
#
#
#
# Elastic Constant Matrix: (Units=GPa)
#
#
# Indices 1 2 3 4 5 6 
#
# 1 76.3866 24.4150 30.1100 0.0000 -4.5956 0.0000
# 2 24.4150 106.3999 28.3248 0.0000 1.9287 0.0000
# 3 30.1100 28.3248 68.6027 0.0000 8.9328 0.0000
# 4 0.0000 0.0000 0.0000 28.9012 0.0000 -6.2627
# 5 -4.5956 1.9287 8.9328 0.0000 13.7204 0.0000
# 6 0.0000 0.0000 0.0000 -6.2627 0.0000 26.2525
#
#
#
# Elastic Compliance Matrix: (Units=1/GPa)
#
#
# Indices 1 2 3 4 5 6 
#
# 1 0.017805 -0.002034 -0.008510 0.000000 0.011790 0.000000
# 2 -0.002034 0.010819 -0.003592 0.000000 0.000137 0.000000
# 3 -0.008510 -0.003592 0.021962 0.000000 -0.016644 0.000000
# 4 0.000000 0.000000 0.000000 0.036487 0.000000 0.008704
# 5 0.011790 0.000137 -0.016644 0.000000 0.087650 0.000000
# 6 0.000000 0.000000 0.000000 0.008704 0.000000 0.040168
#
#
# Mechanical properties :
#
#
# Convention : Reuss Voigt Hill
#
# Bulk Modulus (GPa) = 44.81486 46.34322 45.57904
# Shear Modulus (GPa) = 19.95195 25.01080 22.48137
#
# Velocity S-wave (km/s) = 3.18752 3.56882 3.38354
# Velocity P-wave (km/s) = 6.03063 6.37038 6.20283
#
# Compressibility (1/GPa) = 0.02231403
#
# Stress axis : x y z
#
# Youngs Moduli (GPa) = 56.16297 92.43020 45.53268
#
# Poissons Ratio (x) = 0.18799 0.38750
# Poissons Ratio (y) = 0.11423 0.16356
# Poissons Ratio (z) = 0.47796 0.33201
#
# Static dielectric constant tensor:
#      x y z
#    x 1.633770 0.000000 -0.017970 
#    y 0.000000 1.662830 0.000000 
#    z -0.017970 0.000000 1.747020 
# 
# From -- ./inp_files/34324.got.cif
#   From: 2010.05.17/outbox.cif.g08.bks.cpg/sg15_18_cif.got.tgz:34324.got - 2010.06.03 18:47:42.
