data_PCOD9281777
_publ_section_title
;
Structure prediction by ZEFSAII (Michael W. Deem and Ramdas Pophale) SiO2 
 PCOD9281777
Probable space group: C 2/C
;
_chemical_formula_sum "Si O2"
_cell_formula_units_Z 32
_cell_length_a 7.483828
_cell_length_b 12.517660
_cell_length_c 16.279686
_cell_angle_alpha 90.000000
_cell_angle_beta 50.540575
_cell_angle_gamma 90.000000
_cell_volume 1177.476838
_symmetry_space_group_name_H-M "C 2/C"
_symmetry_group_IT_number 15
_symmetry_cell_setting 'monoclinic'
loop_
_space_group_symop_operation_xyz
x,y,z
-x,y,1/2-z
-x,-y,-z
x,-y,1/2+z
1/2+x,1/2+y,z
1/2-x,1/2+y,1/2-z
1/2-x,1/2-y,-z
1/2+x,1/2-y,1/2+z
loop_
_atom_site_type_symbol
_atom_site_label
_atom_site_fract_x
_atom_site_fract_y
_atom_site_fract_z
Si Si1 0.030753 0.343431 0.422030
Si Si2 0.251478 0.391007 0.637745
Si Si3 0.230887 0.261400 0.142573
Si Si4 0.584556 0.425551 0.094028
O O1 0.155359 0.228715 0.377609
O O2 0.230439 0.425060 0.387003
O O3 0.871976 0.354003 0.388440
O O4 0.860528 0.323477 0.548373
O O5 0.275355 0.411733 0.532839
O O6 0.423973 0.472747 0.631739
O O7 0.000000 0.402411 0.750000
O O8 0.414697 0.321789 0.146221
O O9 0.000000 0.217030 0.250000
#
# Coordination Sequence:
#
# PCOD9281777 Si02
#       4
#     8   8   8   8
#     4  10  23  40  65  98 128 174 222 274 335 402
#     4  10  21  39  66  95 131 175 223 272 335 404
#     4  10  21  38  64  93 128 169 221 272 330 405
#     4  10  22  42  63  93 138 169 216 285 329 395
#
# _framework density 27.176756999999998
#
# number of rings (size 3 to 8) (size 9 to 14) (size 15 to 20)
#    0.000    2.000    0.000    3.750    7.000    0.000 
#    0.000   22.500    5.500    3.000    0.000    0.000 
#    0.000    0.000    0.000    0.000    0.000    0.000 
#
# Total GULP energy -89820.931511 kJ/mol
# GULP energy per Si atom -5613.808219 kJ/mol
# Density = 2.711490 g / cm^3
# Si number density = 27.176757 Si / 1000 Ang^3
#
#
#
# Elastic Constant Matrix: (Units=GPa)
#
#
# Indices 1 2 3 4 5 6 
#
# 1 151.6294 20.4311 22.9996 -0.0002 -25.9298 0.0001
# 2 20.4311 69.9723 35.4626 -0.0001 -10.7426 0.0001
# 3 22.9996 35.4626 197.8616 -0.0003 -39.9805 0.0002
# 4 -0.0002 -0.0001 -0.0003 21.9966 0.0002 -14.2009
# 5 -25.9298 -10.7426 -39.9805 0.0002 40.2450 -0.0001
# 6 0.0001 0.0001 0.0002 -14.2009 -0.0001 46.4445
#
#
#
# Elastic Compliance Matrix: (Units=1/GPa)
#
#
# Indices 1 2 3 4 5 6 
#
# 1 0.007587 -0.001673 0.000395 0.000000 0.004834 0.000000
# 2 -0.001673 0.016187 -0.002567 0.000000 0.000693 0.000000
# 3 0.000395 -0.002567 0.006733 0.000000 0.006258 0.000000
# 4 0.000000 0.000000 0.000000 0.056643 0.000000 0.017319
# 5 0.004834 0.000693 0.006258 0.000000 0.034364 0.000000
# 6 0.000000 0.000000 0.000000 0.017319 0.000000 0.026827
#
#
# Mechanical properties :
#
#
# Convention : Reuss Voigt Hill
#
# Bulk Modulus (GPa) = 43.82806 64.13888 53.98347
# Shear Modulus (GPa) = 30.55565 44.44191 37.49878
#
# Velocity S-wave (km/s) = 3.35674 4.04826 3.71861
# Velocity P-wave (km/s) = 5.58441 6.74560 6.19228
#
# Compressibility (1/GPa) = 0.02281643
#
# Stress axis : x y z
#
# Youngs Moduli (GPa) = 131.79985 61.77741 148.53109
#
# Poissons Ratio (x) = 0.10337 -0.05863
# Poissons Ratio (y) = 0.22054 0.38123
# Poissons Ratio (z) = -0.05202 0.15856
#
# Static dielectric constant tensor:
#      x y z
#    x 2.131480 0.000000 0.080570 
#    y 0.000000 2.060900 0.000000 
#    z 0.080570 0.000000 2.142120 
# 
# From -- ./inp_files/76043.got.cif
#   From: 2010.05.17/outbox.cif.g08.bks.cpg/sg15_39_cif.got.tgz:76043.got - 2010.06.03 18:47:42.
