data_PCOD9281222
_publ_section_title
;
Structure prediction by ZEFSAII (Michael W. Deem and Ramdas Pophale) SiO2 
 PCOD9281222
Probable space group: C 2/C
;
_chemical_formula_sum "Si O2"
_cell_formula_units_Z 52
_cell_length_a 12.640087
_cell_length_b 18.211835
_cell_length_c 15.778530
_cell_angle_alpha 90.000000
_cell_angle_beta 34.212456
_cell_angle_gamma 90.000000
_cell_volume 2042.254902
_symmetry_space_group_name_H-M "C 2/C"
_symmetry_group_IT_number 15
_symmetry_cell_setting 'monoclinic'
loop_
_space_group_symop_operation_xyz
x,y,z
-x,y,1/2-z
-x,-y,-z
x,-y,1/2+z
1/2+x,1/2+y,z
1/2-x,1/2+y,1/2-z
1/2-x,1/2-y,-z
1/2+x,1/2-y,1/2+z
loop_
_atom_site_type_symbol
_atom_site_label
_atom_site_fract_x
_atom_site_fract_y
_atom_site_fract_z
Si Si1 0.408385 0.795498 0.990190
Si Si2 0.000000 0.214832 0.750000
Si Si3 0.780679 0.881915 0.797908
Si Si4 0.132040 0.450593 0.055828
Si Si5 0.617891 0.635710 0.443580
Si Si6 0.500000 0.076254 0.250000
Si Si7 0.500000 0.737270 0.250000
Si Si8 0.274564 0.871062 0.342519
O O1 0.464673 0.762217 0.859904
O O2 0.580667 0.843097 0.909539
O O3 0.380216 0.723829 0.067892
O O4 0.197440 0.828301 0.127121
O O5 0.850075 0.910530 0.662633
O O6 0.936058 0.820800 0.720905
O O7 0.750051 0.939173 0.893615
O O8 0.241189 0.429051 0.069872
O O9 0.032888 0.526582 0.144558
O O10 0.962948 0.391356 0.167228
O O11 0.800814 0.616988 0.375977
O O12 0.398578 0.624685 0.606559
O O13 0.323175 0.793918 0.358106
#
# Coordination Sequence:
#
# PCOD9281222 Si02
#       8
#     8   4   8   8   8   4   4   8
#     4  11  23  39  62 101 137 179 213 271 337 418
#     4  10  23  40  58  84 152 178 211 252 324 418
#     4  12  24  36  67 102 140 167 221 274 351 404
#     4   9  23  44  64  93 128 179 226 285 323 392
#     4  12  24  40  68 101 130 186 217 282 328 402
#     4  10  26  50  66  84 138 187 247 274 320 380
#     4  10  21  38  60 104 146 165 196 276 348 424
#     4   9  21  38  67  95 136 173 213 264 348 402
#
# _framework density 25.462052
#
# number of rings (size 3 to 8) (size 9 to 14) (size 15 to 20)
#    0.000    1.846    3.077    1.385    8.615    6.154 
#    0.000    0.000    0.000    4.615    0.000    0.000 
#    0.000    0.000    0.000    0.000    0.000    0.000 
#
# Total GULP energy -144975.759281 kJ/mol
# GULP energy per Si atom -5575.990742 kJ/mol
# Density = 2.540410 g / cm^3
# Si number density = 25.462052 Si / 1000 Ang^3
#
#
#
# Elastic Constant Matrix: (Units=GPa)
#
#
# Indices 1 2 3 4 5 6 
#
# 1 109.1075 15.8725 50.5690 0.0018 -26.0521 0.0034
# 2 15.8725 33.9397 7.2139 -0.0096 -12.5682 0.0002
# 3 50.5690 7.2139 114.6039 -0.0129 -17.4823 0.0021
# 4 0.0018 -0.0096 -0.0129 29.0653 0.0048 1.2679
# 5 -26.0521 -12.5682 -17.4823 0.0048 75.7472 -0.0036
# 6 0.0034 0.0002 0.0021 1.2679 -0.0036 -0.6143
#
#
#
# Elastic Compliance Matrix: (Units=1/GPa)
#
#
# Indices 1 2 3 4 5 6 
#
# 1 0.012634 -0.003912 -0.004938 -0.000006 0.002556 0.000025
# 2 -0.003912 0.032771 0.000298 0.000011 0.004161 -0.000012
# 3 -0.004938 0.000298 0.011023 0.000005 0.000895 0.000014
# 4 -0.000006 0.000011 0.000005 0.031564 0.000002 0.065143
# 5 0.002556 0.004161 0.000895 0.000002 0.014978 -0.000066
# 6 0.000025 -0.000012 0.000014 0.065143 -0.000066 -1.493322
#
#
# Mechanical properties :
#
#
# Convention : Reuss Voigt Hill
#
# Bulk Modulus (GPa) = 25.43082 44.99577 35.21330
# Shear Modulus (GPa) = -3.67609 33.10601 14.71496
#
# Velocity S-wave (km/s) = -1.20287 3.60975 2.40660
# Velocity P-wave (km/s) = 2.84258 5.92316 4.64565
#
# Compressibility (1/GPa) = 0.03932236
#
# Stress axis : x y z
#
# Youngs Moduli (GPa) = 79.15405 30.51484 90.72326
#
# Poissons Ratio (x) = 0.11938 0.44803
# Poissons Ratio (y) = 0.30966 -0.02704
# Poissons Ratio (z) = 0.39089 -0.00910
#
# Static dielectric constant tensor:
#      x y z
#    x 2.083220 0.000000 0.002500 
#    y 0.000000 2.067350 0.000010 
#    z 0.002500 0.000010 2.075290 
# 
# From -- ./inp_files/206811.got.cif
#   From: 2010.05.17/outbox.cif.g08.bks.cpg/sg15_104_cif.got.tgz:206811.got - 2010.06.03 18:47:42.
