data_PCOD9281739
_publ_section_title
;
Structure prediction by ZEFSAII (Michael W. Deem and Ramdas Pophale) SiO2 
 PCOD9281739
Probable space group: C 2/C
;
_chemical_formula_sum "Si O2"
_cell_formula_units_Z 44
_cell_length_a 12.659389
_cell_length_b 22.125606
_cell_length_c 7.990912
_cell_angle_alpha 90.000000
_cell_angle_beta 119.314547
_cell_angle_gamma 90.000000
_cell_volume 1951.611444
_symmetry_space_group_name_H-M "C 2/C"
_symmetry_group_IT_number 15
_symmetry_cell_setting 'monoclinic'
loop_
_space_group_symop_operation_xyz
x,y,z
-x,y,1/2-z
-x,-y,-z
x,-y,1/2+z
1/2+x,1/2+y,z
1/2-x,1/2+y,1/2-z
1/2-x,1/2-y,-z
1/2+x,1/2-y,1/2+z
loop_
_atom_site_type_symbol
_atom_site_label
_atom_site_fract_x
_atom_site_fract_y
_atom_site_fract_z
Si Si1 0.972416 0.741437 0.921950
Si Si2 0.272303 0.782359 0.836329
Si Si3 0.500000 0.496816 0.750000
Si Si4 0.093702 0.605580 0.551170
Si Si5 0.334291 0.087718 0.276345
Si Si6 0.814988 0.964488 0.361807
O O1 0.846370 0.772802 0.868489
O O2 0.939446 0.670965 0.906057
O O3 0.000000 0.758439 0.750000
O O4 0.098752 0.746651 0.119648
O O5 0.291212 0.854587 0.849837
O O6 0.250000 0.750000 0.000000
O O7 0.393018 0.457178 0.588601
O O8 0.576278 0.538947 0.686327
O O9 0.138508 0.608826 0.393333
O O10 0.202538 0.578025 0.741476
O O11 0.966323 0.569478 0.451640
O O12 0.242973 0.031836 0.191196
#
# Coordination Sequence:
#
# PCOD9281739 Si02
#       6
#     8   8   4   8   8   8
#     4   9  19  38  59  87 121 159 209 264 312 381
#     4   9  19  38  58  86 121 159 208 262 314 375
#     4  10  24  38  60  82 136 166 206 266 308 394
#     4  10  21  38  64  89 124 162 215 269 323 375
#     4  10  21  39  62  91 123 164 215 271 315 381
#     4  11  21  43  58  91 127 172 213 263 325 383
#
# _framework density 22.545472
#
# number of rings (size 3 to 8) (size 9 to 14) (size 15 to 20)
#    0.000    2.182    1.818    0.545    0.000    5.091 
#   14.727    0.000    0.000    0.000    0.000    0.000 
#    0.000    0.000    0.000    0.000    0.000    0.000 
#
# Total GULP energy -122606.706180 kJ/mol
# GULP energy per Si atom -5573.032099 kJ/mol
# Density = 2.249416 g / cm^3
# Si number density = 22.545472 Si / 1000 Ang^3
#
#
#
# Elastic Constant Matrix: (Units=GPa)
#
#
# Indices 1 2 3 4 5 6 
#
# 1 88.9054 25.3592 52.7972 0.0000 46.8726 0.0000
# 2 25.3592 52.4589 17.1850 0.0000 17.0609 0.0000
# 3 52.7972 17.1850 98.4523 0.0000 47.7132 0.0000
# 4 0.0000 0.0000 0.0000 19.2468 0.0000 13.2430
# 5 46.8726 17.0609 47.7132 0.0000 51.5214 0.0000
# 6 0.0000 0.0000 0.0000 13.2430 0.0000 24.0608
#
#
#
# Elastic Compliance Matrix: (Units=1/GPa)
#
#
# Indices 1 2 3 4 5 6 
#
# 1 0.023437 -0.004809 -0.003932 0.000000 -0.016088 0.000000
# 2 -0.004809 0.022366 0.000261 0.000000 -0.003273 0.000000
# 3 -0.003932 0.000261 0.019102 0.000000 -0.014199 0.000000
# 4 0.000000 0.000000 0.000000 0.083627 0.000000 -0.046028
# 5 -0.016088 -0.003273 -0.014199 0.000000 0.048279 0.000000
# 6 0.000000 0.000000 0.000000 -0.046028 0.000000 0.066895
#
#
# Mechanical properties :
#
#
# Convention : Reuss Voigt Hill
#
# Bulk Modulus (GPa) = 20.85776 47.83329 34.34552
# Shear Modulus (GPa) = 16.85502 28.59747 22.72624
#
# Velocity S-wave (km/s) = 2.73720 3.56537 3.17837
# Velocity P-wave (km/s) = 4.38875 6.18155 5.36063
#
# Compressibility (1/GPa) = 0.04794380
#
# Stress axis : x y z
#
# Youngs Moduli (GPa) = 42.66807 44.71021 52.35176
#
# Poissons Ratio (x) = 0.21502 0.20586
# Poissons Ratio (y) = 0.20520 -0.01367
# Poissons Ratio (z) = 0.16778 -0.01168
#
# Static dielectric constant tensor:
#      x y z
#    x 1.877370 0.000000 -0.027730 
#    y 0.000000 1.794850 0.000000 
#    z -0.027730 0.000000 1.964420 
# 
# From -- ./inp_files/32727.got.cif
#   From: 2010.05.17/outbox.cif.g08.bks.cpg/sg15_17_cif.got.tgz:32727.got - 2010.06.03 18:47:42.
