data_PCOD9281260
_publ_section_title
;
Structure prediction by ZEFSAII (Michael W. Deem and Ramdas Pophale) SiO2 
 PCOD9281260
Probable space group: C 2/C
;
_chemical_formula_sum "Si O2"
_cell_formula_units_Z 48
_cell_length_a 13.329783
_cell_length_b 6.867879
_cell_length_c 25.622794
_cell_angle_alpha 90.000000
_cell_angle_beta 114.561150
_cell_angle_gamma 90.000000
_cell_volume 2133.455438
_symmetry_space_group_name_H-M "C 2/C"
_symmetry_group_IT_number 15
_symmetry_cell_setting 'monoclinic'
loop_
_space_group_symop_operation_xyz
x,y,z
-x,y,1/2-z
-x,-y,-z
x,-y,1/2+z
1/2+x,1/2+y,z
1/2-x,1/2+y,1/2-z
1/2-x,1/2-y,-z
1/2+x,1/2-y,1/2+z
loop_
_atom_site_type_symbol
_atom_site_label
_atom_site_fract_x
_atom_site_fract_y
_atom_site_fract_z
Si Si1 0.636301 0.973451 0.101212
Si Si2 0.417722 0.222263 0.573339
Si Si3 0.894584 0.770570 0.319489
Si Si4 0.225252 0.142310 0.194814
Si Si5 0.433382 0.970934 0.185608
Si Si6 0.237960 0.969636 0.479506
O O1 0.521199 0.864671 0.064733
O O2 0.692519 0.834741 0.156632
O O3 0.709507 0.992693 0.066299
O O4 0.614414 0.176903 0.125232
O O5 0.437313 0.175203 0.638220
O O6 0.384401 0.440974 0.551383
O O7 0.310934 0.095220 0.535067
O O8 0.878371 0.001504 0.317347
O O9 0.792351 0.697437 0.261314
O O10 0.003017 0.670286 0.318031
O O11 0.311081 0.022471 0.177470
O O12 0.500000 0.893992 0.250000
O O13 0.250000 0.750000 0.500000
#
# Coordination Sequence:
#
# PCOD9281260 Si02
#       6
#     8   8   8   8   8   8
#     4  11  23  38  64  92 123 168 211 260 321 378
#     4  10  23  43  62  92 126 161 212 261 320 376
#     4  10  21  38  60  88 127 164 209 259 314 386
#     4  11  20  37  61  88 127 166 205 259 320 377
#     4   9  20  38  64  90 124 163 202 260 317 380
#     4  11  24  42  65  89 124 165 214 265 312 379
#
# _framework density 22.498711
#
# number of rings (size 3 to 8) (size 9 to 14) (size 15 to 20)
#    0.000    1.667    1.667    2.500    0.000    6.000 
#    0.000    0.000    0.000    0.000    0.000    0.000 
#    0.000    0.000    0.000    0.000    0.000    0.000 
#
# Total GULP energy -134246.672985 kJ/mol
# GULP energy per Si atom -5593.611374 kJ/mol
# Density = 2.244750 g / cm^3
# Si number density = 22.498711 Si / 1000 Ang^3
#
#
#
# Elastic Constant Matrix: (Units=GPa)
#
#
# Indices 1 2 3 4 5 6 
#
# 1 50.6278 4.4894 20.6506 0.0000 4.4040 0.0000
# 2 4.4894 75.0896 25.5072 0.0000 -1.2633 0.0000
# 3 20.6506 25.5072 71.7406 0.0000 -8.1927 0.0000
# 4 0.0000 0.0000 0.0000 13.2051 0.0000 14.2631
# 5 4.4040 -1.2633 -8.1927 0.0000 34.8388 0.0000
# 6 0.0000 0.0000 0.0000 14.2631 0.0000 19.0411
#
#
#
# Elastic Compliance Matrix: (Units=1/GPa)
#
#
# Indices 1 2 3 4 5 6 
#
# 1 0.023158 0.001117 -0.007597 0.000000 -0.004673 0.000000
# 2 0.001117 0.015219 -0.005843 0.000000 -0.000963 0.000000
# 3 -0.007597 -0.005843 0.018794 0.000000 0.005168 0.000000
# 4 0.000000 0.000000 0.000000 0.396658 0.000000 -0.297125
# 5 -0.004673 -0.000963 0.005168 0.000000 0.030475 0.000000
# 6 0.000000 0.000000 0.000000 -0.297125 0.000000 0.275085
#
#
# Mechanical properties :
#
#
# Convention : Reuss Voigt Hill
#
# Bulk Modulus (GPa) = 30.74469 33.19473 31.96971
# Shear Modulus (GPa) = 6.29029 23.20440 14.74734
#
# Velocity S-wave (km/s) = 1.67389 3.21497 2.56300
# Velocity P-wave (km/s) = 4.17500 5.34486 4.79573
#
# Compressibility (1/GPa) = 0.03252594
#
# Stress axis : x y z
#
# Youngs Moduli (GPa) = 43.18116 65.70669 53.20979
#
# Poissons Ratio (x) = -0.07343 0.40424
# Poissons Ratio (y) = -0.04825 0.31090
# Poissons Ratio (z) = 0.32805 0.38391
#
# Static dielectric constant tensor:
#      x y z
#    x 1.819710 0.000000 0.035330 
#    y 0.000000 1.914680 0.000000 
#    z 0.035330 0.000000 1.822950 
# 
# From -- ./inp_files/312443.got.cif
#   From: 2010.05.17/outbox.cif.g08.bks.cpg/sg15_157_cif.got.tgz:312443.got - 2010.06.03 18:47:42.
