data_PCOD9281905
_publ_section_title
;
Structure prediction by ZEFSAII (Michael W. Deem and Ramdas Pophale) SiO2 
 PCOD9281905
Probable space group: C 2/C
;
_chemical_formula_sum "Si O2"
_cell_formula_units_Z 28
_cell_length_a 7.843961
_cell_length_b 19.551548
_cell_length_c 10.758723
_cell_angle_alpha 90.000000
_cell_angle_beta 134.403248
_cell_angle_gamma 90.000000
_cell_volume 1178.796442
_symmetry_space_group_name_H-M "C 2/C"
_symmetry_group_IT_number 15
_symmetry_cell_setting 'monoclinic'
loop_
_space_group_symop_operation_xyz
x,y,z
-x,y,1/2-z
-x,-y,-z
x,-y,1/2+z
1/2+x,1/2+y,z
1/2-x,1/2+y,1/2-z
1/2-x,1/2-y,-z
1/2+x,1/2-y,1/2+z
loop_
_atom_site_type_symbol
_atom_site_label
_atom_site_fract_x
_atom_site_fract_y
_atom_site_fract_z
Si Si1 0.897447 0.705025 0.836526
Si Si2 0.500000 0.610133 0.750000
Si Si3 0.284040 0.648505 0.223195
Si Si4 0.568850 0.034328 0.405370
O O1 0.669477 0.658998 0.753401
O O2 0.858856 0.785826 0.840909
O O3 0.000000 0.699010 0.750000
O O4 0.100259 0.679636 0.031376
O O5 0.328843 0.565432 0.571489
O O6 0.500000 0.620339 0.250000
O O7 0.138232 0.591463 0.219402
O O8 0.500000 0.987927 0.250000
O O9 0.500000 0.000000 0.500000
#
# Coordination Sequence:
#
# PCOD9281905 Si02
#       4
#     8   4   8   8
#     4  10  21  38  66 105 144 174 220 286 365 421
#     4  10  26  44  72 106 138 182 236 300 344 440
#     4  10  22  39  68 104 137 182 222 290 356 426
#     4  11  28  47  70 102 137 197 242 293 350 410
#
# _framework density 23.753043000000002
#
# number of rings (size 3 to 8) (size 9 to 14) (size 15 to 20)
#    0.000    1.714    0.000    3.429   12.000    8.000 
#    0.000    0.000    0.000    0.000    0.000    0.000 
#    0.000    0.000    0.000    0.000    0.000    0.000 
#
# Total GULP energy -78242.647981 kJ/mol
# GULP energy per Si atom -5588.760570 kJ/mol
# Density = 2.369898 g / cm^3
# Si number density = 23.753043 Si / 1000 Ang^3
#
#
#
# Elastic Constant Matrix: (Units=GPa)
#
#
# Indices 1 2 3 4 5 6 
#
# 1 105.3124 24.9290 46.2349 0.0000 21.7869 0.0000
# 2 24.9290 21.5400 4.4963 0.0000 6.6392 0.0000
# 3 46.2349 4.4963 116.9634 0.0000 1.9282 0.0000
# 4 0.0000 0.0000 0.0000 -6.4278 0.0000 2.4455
# 5 21.7869 6.6392 1.9282 0.0000 49.1369 0.0000
# 6 0.0000 0.0000 0.0000 2.4455 0.0000 -5.4035
#
#
#
# Elastic Compliance Matrix: (Units=1/GPa)
#
#
# Indices 1 2 3 4 5 6 
#
# 1 0.017289 -0.017163 -0.006090 0.000000 -0.005108 0.000000
# 2 -0.017163 0.065845 0.004277 0.000000 -0.001454 0.000000
# 3 -0.006090 0.004277 0.010765 0.000000 0.001700 0.000000
# 4 0.000000 0.000000 0.000000 -0.187935 0.000000 -0.085057
# 5 -0.005108 -0.001454 0.001700 0.000000 0.022746 0.000000
# 6 0.000000 0.000000 0.000000 -0.085057 0.000000 -0.223562
#
#
# Mechanical properties :
#
#
# Convention : Reuss Voigt Hill
#
# Bulk Modulus (GPa) = 17.87449 43.90402 30.88926
# Shear Modulus (GPa) = -20.98613 18.67150 -1.15732
#
# Velocity S-wave (km/s) = -2.97562 2.80673 -0.69877
# Velocity P-wave (km/s) = 2.06501 5.38770 3.51874
#
# Compressibility (1/GPa) = 0.05594565
#
# Stress axis : x y z
#
# Youngs Moduli (GPa) = 57.84101 15.18728 92.89684
#
# Poissons Ratio (x) = 0.26066 0.56576
# Poissons Ratio (y) = 0.99274 -0.39735
# Poissons Ratio (z) = 0.35226 -0.06496
#
# Static dielectric constant tensor:
#      x y z
#    x 2.189920 0.000000 -0.161360 
#    y 0.000000 2.065040 0.000000 
#    z -0.161360 0.000000 2.031810 
# 
# From -- ./inp_files/77495.got.cif
#   From: 2010.05.17/outbox.cif.g08.bks.cpg/sg15_39_cif.got.tgz:77495.got - 2010.06.03 18:47:42.
