data_PCOD9281617
_publ_section_title
;
Structure prediction by ZEFSAII (Michael W. Deem and Ramdas Pophale) SiO2 
 PCOD9281617
Probable space group: C 2/C
;
_chemical_formula_sum "Si O2"
_cell_formula_units_Z 60
_cell_length_a 21.194539
_cell_length_b 8.667875
_cell_length_c 25.975083
_cell_angle_alpha 90.000000
_cell_angle_beta 146.545820
_cell_angle_gamma 90.000000
_cell_volume 2630.618511
_symmetry_space_group_name_H-M "C 2/C"
_symmetry_group_IT_number 15
_symmetry_cell_setting 'monoclinic'
loop_
_space_group_symop_operation_xyz
x,y,z
-x,y,1/2-z
-x,-y,-z
x,-y,1/2+z
1/2+x,1/2+y,z
1/2-x,1/2+y,1/2-z
1/2-x,1/2-y,-z
1/2+x,1/2-y,1/2+z
loop_
_atom_site_type_symbol
_atom_site_label
_atom_site_fract_x
_atom_site_fract_y
_atom_site_fract_z
Si Si1 0.151784 0.982425 0.208791
Si Si2 0.905793 0.532761 0.771770
Si Si3 0.503248 0.665174 0.973171
Si Si4 0.500000 0.735958 0.250000
Si Si5 0.577860 0.785301 0.849589
Si Si6 0.125400 0.685001 0.640804
Si Si7 0.918129 0.964721 0.607986
Si Si8 0.780448 0.953940 0.928704
O O1 0.268956 0.913164 0.309968
O O2 0.050581 0.016798 0.180692
O O3 0.164274 0.143607 0.186404
O O4 0.102687 0.848469 0.137349
O O5 0.944504 0.656593 0.755403
O O6 0.910760 0.598456 0.831962
O O7 0.777416 0.498525 0.664903
O O8 0.991971 0.389289 0.824528
O O9 0.523344 0.790942 0.030589
O O10 0.618484 0.662937 0.017497
O O11 0.500000 0.500000 0.000000
O O12 0.585888 0.634229 0.343084
O O13 0.500000 0.722720 0.750000
O O14 0.625551 0.636509 0.909938
O O15 0.674818 0.888029 0.889276
O O16 0.844489 0.917482 0.507559
#
# Coordination Sequence:
#
# PCOD9281617 Si02
#       8
#     8   8   8   4   8   8   8   8
#     4  10  23  39  63  95 123 166 210 261 315 379
#     4  11  22  41  62  90 129 164 208 256 320 379
#     4   9  20  39  62  89 121 161 212 252 313 377
#     4  12  22  40  58  92 126 164 208 260 308 376
#     4  10  21  38  63  90 124 169 209 258 312 372
#     4  11  22  40  66  92 126 170 206 259 325 368
#     4  11  23  39  65  90 129 162 216 261 312 375
#     4  10  21  40  65  89 122 169 211 258 315 377
#
# _framework density 22.808326000000001
#
# number of rings (size 3 to 8) (size 9 to 14) (size 15 to 20)
#    0.000    1.600    4.000    2.000    5.600    0.533 
#    0.000    0.667    0.000    0.000    0.000    0.000 
#    0.000    0.000    0.000    0.000    0.000    0.000 
#
# Total GULP energy -167501.114568 kJ/mol
# GULP energy per Si atom -5583.370486 kJ/mol
# Density = 2.275641 g / cm^3
# Si number density = 22.808326 Si / 1000 Ang^3
#
#
#
# Elastic Constant Matrix: (Units=GPa)
#
#
# Indices 1 2 3 4 5 6 
#
# 1 46.8041 -10.5997 3.6224 0.0001 1.8716 0.0001
# 2 -10.5997 46.5183 1.1724 0.0001 0.9411 0.0001
# 3 3.6224 1.1724 51.1353 0.0000 -8.9292 0.0000
# 4 0.0001 0.0001 0.0000 27.6416 0.0000 -11.8496
# 5 1.8716 0.9411 -8.9292 0.0000 29.3358 0.0000
# 6 0.0001 0.0001 0.0000 -11.8496 0.0000 23.4132
#
#
#
# Elastic Compliance Matrix: (Units=1/GPa)
#
#
# Indices 1 2 3 4 5 6 
#
# 1 0.022822 0.005300 -0.002136 0.000000 -0.002276 0.000000
# 2 0.005300 0.022762 -0.001145 0.000000 -0.001417 0.000000
# 3 -0.002136 -0.001145 0.020873 0.000000 0.006526 0.000000
# 4 0.000000 0.000000 0.000000 0.046201 0.000000 0.023383
# 5 -0.002276 -0.001417 0.006526 0.000000 0.036265 0.000000
# 6 0.000000 0.000000 0.000000 0.023383 0.000000 0.054545
#
#
# Mechanical properties :
#
#
# Convention : Reuss Voigt Hill
#
# Bulk Modulus (GPa) = 14.18500 14.76089 14.47294
# Shear Modulus (GPa) = 22.42869 26.09562 24.26215
#
# Velocity S-wave (km/s) = 3.13925 3.38616 3.26504
# Velocity P-wave (km/s) = 4.40143 4.66625 4.53577
#
# Compressibility (1/GPa) = 0.07049700
#
# Stress axis : x y z
#
# Youngs Moduli (GPa) = 43.81679 43.93265 47.90850
#
# Poissons Ratio (x) = -0.23285 0.10232
# Poissons Ratio (y) = -0.23224 0.05484
# Poissons Ratio (z) = 0.09358 0.05029
#
# Static dielectric constant tensor:
#      x y z
#    x 1.868800 0.000000 -0.037400 
#    y 0.000000 1.881900 0.000000 
#    z -0.037400 0.000000 1.948840 
# 
# From -- ./inp_files/302100.got.cif
#   From: 2010.05.17/outbox.cif.g08.bks.cpg/sg15_152_cif.got.tgz:302100.got - 2010.06.03 18:47:42.
