data_PCOD9281599
_publ_section_title
;
Structure prediction by ZEFSAII (Michael W. Deem and Ramdas Pophale) SiO2 
 PCOD9281599
Probable space group: C 2/C
;
_chemical_formula_sum "Si O2"
_cell_formula_units_Z 56
_cell_length_a 12.306520
_cell_length_b 7.777389
_cell_length_c 28.256859
_cell_angle_alpha 90.000000
_cell_angle_beta 126.715250
_cell_angle_gamma 90.000000
_cell_volume 2168.001823
_symmetry_space_group_name_H-M "C 2/C"
_symmetry_group_IT_number 15
_symmetry_cell_setting 'monoclinic'
loop_
_space_group_symop_operation_xyz
x,y,z
-x,y,1/2-z
-x,-y,-z
x,-y,1/2+z
1/2+x,1/2+y,z
1/2-x,1/2+y,1/2-z
1/2-x,1/2-y,-z
1/2+x,1/2-y,1/2+z
loop_
_atom_site_type_symbol
_atom_site_label
_atom_site_fract_x
_atom_site_fract_y
_atom_site_fract_z
Si Si1 0.489899 0.967271 0.079770
Si Si2 0.837268 0.805090 0.759686
Si Si3 0.683808 0.789044 0.060919
Si Si4 0.871982 0.304807 0.135608
Si Si5 0.907873 0.132174 0.548303
Si Si6 0.285224 0.530722 0.666965
Si Si7 0.690093 0.525523 0.660692
O O1 0.547308 0.874358 0.047438
O O2 0.388932 0.854149 0.085169
O O3 0.631045 0.976478 0.145015
O O4 0.449540 0.165648 0.064138
O O5 0.730744 0.687942 0.704317
O O6 0.979027 0.708230 0.802630
O O7 0.865361 0.974064 0.734283
O O8 0.789974 0.868193 0.798515
O O9 0.775000 0.890833 0.045872
O O10 0.784283 0.802723 0.132765
O O11 0.634558 0.624303 0.017920
O O12 0.784530 0.445224 0.140276
O O13 0.806008 0.123716 0.134020
O O14 0.035327 0.027916 0.601583
#
# Coordination Sequence:
#
# PCOD9281599 Si02
#       7
#     8   8   8   8   8   8   8
#     4  10  21  38  63  88 125 160 210 254 318 380
#     4  11  22  38  65  92 129 170 210 261 320 386
#     4   9  22  39  66  89 124 165 213 267 306 377
#     4  11  22  39  63  91 131 161 209 267 315 380
#     4  11  20  41  65  92 124 165 214 264 315 374
#     4   9  19  40  59  85 120 164 205 248 317 369
#     4  11  23  40  67  94 129 170 214 259 329 375
#
# _framework density 25.830234999999998
#
# number of rings (size 3 to 8) (size 9 to 14) (size 15 to 20)
#    0.857    0.857    2.857    3.857    0.000    1.143 
#    0.000    2.857    3.143    4.286    0.000    0.000 
#    0.000    0.000    0.000    0.000    0.000    0.000 
#
# Total GULP energy -156103.426389 kJ/mol
# GULP energy per Si atom -5575.122371 kJ/mol
# Density = 2.577144 g / cm^3
# Si number density = 25.830235 Si / 1000 Ang^3
#
#
#
# Elastic Constant Matrix: (Units=GPa)
#
#
# Indices 1 2 3 4 5 6 
#
# 1 150.0346 27.8600 44.7156 0.0000 -38.9522 0.0000
# 2 27.8600 87.7111 34.7384 0.0000 -20.8913 0.0000
# 3 44.7156 34.7384 116.0571 0.0000 -18.5314 0.0000
# 4 0.0000 0.0000 0.0000 39.3266 0.0000 -14.7210
# 5 -38.9522 -20.8913 -18.5314 0.0000 45.0510 0.0000
# 6 0.0000 0.0000 0.0000 -14.7210 0.0000 13.8889
#
#
#
# Elastic Compliance Matrix: (Units=1/GPa)
#
#
# Indices 1 2 3 4 5 6 
#
# 1 0.009204 -0.000369 -0.002346 0.000000 0.006822 0.000000
# 2 -0.000369 0.013958 -0.003268 0.000000 0.004809 0.000000
# 3 -0.002346 -0.003268 0.010631 0.000000 0.000829 0.000000
# 4 0.000000 0.000000 0.000000 0.042152 0.000000 0.044678
# 5 0.006822 0.004809 0.000829 0.000000 0.030666 0.000000
# 6 0.000000 0.000000 0.000000 0.044678 0.000000 0.119354
#
#
# Mechanical properties :
#
#
# Convention : Reuss Voigt Hill
#
# Bulk Modulus (GPa) = 45.81701 63.15899 54.48800
# Shear Modulus (GPa) = 20.39082 36.08589 28.23835
#
# Velocity S-wave (km/s) = 2.81270 3.74176 3.30999
# Velocity P-wave (km/s) = 5.32209 6.57056 5.97900
#
# Compressibility (1/GPa) = 0.02182596
#
# Stress axis : x y z
#
# Youngs Moduli (GPa) = 108.64756 71.64324 94.06503
#
# Poissons Ratio (x) = 0.02647 0.22072
# Poissons Ratio (y) = 0.04014 0.30738
# Poissons Ratio (z) = 0.25493 0.23411
#
# Static dielectric constant tensor:
#      x y z
#    x 2.010030 0.000000 -0.037090 
#    y 0.000000 2.175270 0.000000 
#    z -0.037090 0.000000 2.083250 
# 
# From -- ./inp_files/310363.got.cif
#   From: 2010.05.17/outbox.cif.g08.bks.cpg/sg15_156_cif.got.tgz:310363.got - 2010.06.03 18:47:42.
