data_PCOD9281499
_publ_section_title
;
Structure prediction by ZEFSAII (Michael W. Deem and Ramdas Pophale) SiO2 
 PCOD9281499
Probable space group: C 2/C
;
_chemical_formula_sum "Si O2"
_cell_formula_units_Z 40
_cell_length_a 20.480989
_cell_length_b 8.294262
_cell_length_c 10.740880
_cell_angle_alpha 90.000000
_cell_angle_beta 98.566984
_cell_angle_gamma 90.000000
_cell_volume 1804.245422
_symmetry_space_group_name_H-M "C 2/C"
_symmetry_group_IT_number 15
_symmetry_cell_setting 'monoclinic'
loop_
_space_group_symop_operation_xyz
x,y,z
-x,y,1/2-z
-x,-y,-z
x,-y,1/2+z
1/2+x,1/2+y,z
1/2-x,1/2+y,1/2-z
1/2-x,1/2-y,-z
1/2+x,1/2-y,1/2+z
loop_
_atom_site_type_symbol
_atom_site_label
_atom_site_fract_x
_atom_site_fract_y
_atom_site_fract_z
Si Si1 0.868816 0.836315 0.501347
Si Si2 0.190859 0.087927 0.850988
Si Si3 0.686770 0.103616 0.220730
Si Si4 0.425794 0.146082 0.754941
Si Si5 0.058618 0.987526 0.667423
O O1 0.827405 0.722533 0.398699
O O2 0.892679 0.730694 0.624956
O O3 0.934972 0.908199 0.455458
O O4 0.823565 0.988915 0.527526
O O5 0.198465 0.280574 0.843680
O O6 0.124050 0.047753 0.757176
O O7 0.251901 0.007207 0.797314
O O8 0.622330 0.994487 0.218084
O O9 0.500000 0.087388 0.750000
O O10 0.433358 0.296395 0.851915
O O11 0.000000 0.011462 0.750000
#
# Coordination Sequence:
#
# PCOD9281499 Si02
#       5
#     8   8   8   8   8
#     4  10  22  41  66  91 123 165 206 254 318 370
#     4  10  21  38  62  90 123 162 205 253 305 367
#     4  11  23  41  63  92 130 162 207 260 305 368
#     4  10  23  41  63  94 126 163 210 257 306 368
#     4   9  20  39  63  91 124 160 204 254 305 367
#
# _framework density 22.169931999999999
#
# number of rings (size 3 to 8) (size 9 to 14) (size 15 to 20)
#    0.000    2.000    0.000    3.000    0.000   14.400 
#    0.000    6.000    0.000    0.000    0.000    0.000 
#    0.000    0.000    0.000    0.000    0.000    0.000 
#
# Total GULP energy -111699.581131 kJ/mol
# GULP energy per Si atom -5584.979057 kJ/mol
# Density = 2.211947 g / cm^3
# Si number density = 22.169932 Si / 1000 Ang^3
#
#
#
# Elastic Constant Matrix: (Units=GPa)
#
#
# Indices 1 2 3 4 5 6 
#
# 1 117.9757 41.2018 -16.1468 0.0000 -15.6366 0.0000
# 2 41.2018 82.5049 11.2594 0.0000 -12.9086 0.0000
# 3 -16.1468 11.2594 41.9513 0.0000 0.6501 0.0000
# 4 0.0000 0.0000 0.0000 -2.6909 0.0000 0.1407
# 5 -15.6366 -12.9086 0.6501 0.0000 25.4945 0.0000
# 6 0.0000 0.0000 0.0000 0.1407 0.0000 43.8108
#
#
#
# Elastic Compliance Matrix: (Units=1/GPa)
#
#
# Indices 1 2 3 4 5 6 
#
# 1 0.012047 -0.006231 0.006246 0.000000 0.004075 0.000000
# 2 -0.006231 0.016966 -0.007028 0.000000 0.004948 0.000000
# 3 0.006246 -0.007028 0.028135 0.000000 -0.000445 0.000000
# 4 0.000000 0.000000 0.000000 -0.371563 0.000000 0.001193
# 5 0.004075 0.004948 -0.000445 0.000000 0.044240 0.000000
# 6 0.000000 0.000000 0.000000 0.001193 0.000000 0.022822
#
#
# Mechanical properties :
#
#
# Convention : Reuss Voigt Hill
#
# Bulk Modulus (GPa) = 23.19066 35.00673 29.09870
# Shear Modulus (GPa) = -22.83585 27.06405 2.11410
#
# Velocity S-wave (km/s) = -3.21290 3.49772 0.97758
# Velocity P-wave (km/s) = 1.81122 5.66891 3.79842
#
# Compressibility (1/GPa) = 0.04312081
#
# Stress axis : x y z
#
# Youngs Moduli (GPa) = 83.00478 58.94302 35.54342
#
# Poissons Ratio (x) = 0.36729 -0.22201
# Poissons Ratio (y) = 0.51722 0.24982
# Poissons Ratio (z) = -0.51847 0.41428
#
# Static dielectric constant tensor:
#      x y z
#    x 1.791250 0.000000 0.013130 
#    y 0.000000 1.820380 0.000000 
#    z 0.013130 0.000000 2.001530 
# 
# From -- ./inp_files/109584.got.cif
#   From: 2010.05.17/outbox.cif.g08.bks.cpg/sg15_55_cif.got.tgz:109584.got - 2010.06.03 18:47:42.
