data_PCOD9281268
_publ_section_title
;
Structure prediction by ZEFSAII (Michael W. Deem and Ramdas Pophale) SiO2 
 PCOD9281268
Probable space group: C 2/C
;
_chemical_formula_sum "Si O2"
_cell_formula_units_Z 64
_cell_length_a 21.040081
_cell_length_b 31.731655
_cell_length_c 14.928340
_cell_angle_alpha 90.000000
_cell_angle_beta 160.530453
_cell_angle_gamma 90.000000
_cell_volume 3321.960862
_symmetry_space_group_name_H-M "C 2/C"
_symmetry_group_IT_number 15
_symmetry_cell_setting 'monoclinic'
loop_
_space_group_symop_operation_xyz
x,y,z
-x,y,1/2-z
-x,-y,-z
x,-y,1/2+z
1/2+x,1/2+y,z
1/2-x,1/2+y,1/2-z
1/2-x,1/2-y,-z
1/2+x,1/2-y,1/2+z
loop_
_atom_site_type_symbol
_atom_site_label
_atom_site_fract_x
_atom_site_fract_y
_atom_site_fract_z
Si Si1 0.550582 0.205742 0.037063
Si Si2 0.810363 0.915331 0.560360
Si Si3 0.684076 0.626337 0.807233
Si Si4 0.312208 0.682967 0.062207
Si Si5 0.540497 0.453392 0.019850
Si Si6 0.422386 0.705746 0.408854
Si Si7 0.062280 0.626336 0.185457
Si Si8 0.918229 0.546610 0.897594
O O1 0.736865 0.206289 0.223720
O O2 0.558159 0.165670 0.112759
O O3 0.365415 0.201696 0.727370
O O4 0.531956 0.249998 0.063902
O O5 0.768116 0.866391 0.518127
O O6 0.867291 0.937597 0.727679
O O7 0.646491 0.937589 0.286084
O O8 0.000000 0.916590 0.750000
O O9 0.579811 0.582171 0.646896
O O10 0.551057 0.665673 0.605633
O O11 0.763646 0.628168 0.013633
O O12 0.867961 0.628220 0.985911
O O13 0.500000 0.686869 0.250000
O O14 0.358479 0.701705 0.220418
O O15 0.500000 0.500000 0.000000
O O16 0.729863 0.454405 0.209723
O O17 0.054395 0.582169 0.121504
O O18 0.000000 0.500000 0.000000
#
# Coordination Sequence:
#
# PCOD9281268 Si02
#       8
#     8   8   8   8   8   8   8   8
#     4  12  25  41  63  93 125 160 204 252 308 369
#     4   9  18  36  62  85 117 160 201 243 304 361
#     4  10  22  42  65  88 120 163 209 255 309 367
#     4  11  20  40  67  91 126 164 202 251 307 363
#     4  10  21  38  60  89 121 160 202 250 305 363
#     4  12  25  41  63  93 125 160 204 252 308 369
#     4  10  22  42  65  88 120 163 209 255 309 367
#     4  10  21  38  60  89 121 160 202 250 305 363
#
# _framework density 19.265730000000001
#
# number of rings (size 3 to 8) (size 9 to 14) (size 15 to 20)
#    0.000    1.500    2.500    3.000    1.750    2.000 
#    0.000    0.000    0.000    0.000    0.000    0.000 
#    0.000    0.000    0.000    0.000    0.000    0.000 
#
# Total GULP energy -178847.012524 kJ/mol
# GULP energy per Si atom -5588.969141 kJ/mol
# Density = 1.922188 g / cm^3
# Si number density = 19.265730 Si / 1000 Ang^3
#
#
#
# Elastic Constant Matrix: (Units=GPa)
#
#
# Indices 1 2 3 4 5 6 
#
# 1 65.7291 57.3985 55.9250 -0.0002 -19.0699 0.0000
# 2 57.3985 197.8041 72.3419 -0.0001 -22.6121 0.0000
# 3 55.9250 72.3419 98.5707 -0.0002 -30.5183 0.0000
# 4 -0.0002 -0.0001 -0.0002 42.7011 -0.0002 -3.0330
# 5 -19.0699 -22.6121 -30.5183 -0.0002 28.4664 0.0001
# 6 0.0000 0.0000 0.0000 -3.0330 0.0001 40.7030
#
#
#
# Elastic Compliance Matrix: (Units=1/GPa)
#
#
# Indices 1 2 3 4 5 6 
#
# 1 0.031256 -0.003528 -0.014263 0.000000 0.002845 0.000000
# 2 -0.003528 0.007309 -0.003437 0.000000 -0.000243 0.000000
# 3 -0.014263 -0.003437 0.025381 0.000000 0.014925 0.000000
# 4 0.000000 0.000000 0.000000 0.023543 0.000000 0.001754
# 5 0.002845 -0.000243 0.014925 0.000000 0.052842 0.000000
# 6 0.000000 0.000000 0.000000 0.001754 0.000000 0.024699
#
#
# Mechanical properties :
#
#
# Convention : Reuss Voigt Hill
#
# Bulk Modulus (GPa) = 46.53763 81.49274 64.01519
# Shear Modulus (GPa) = 23.29362 34.13667 28.71514
#
# Velocity S-wave (km/s) = 3.48094 4.21394 3.86486
# Velocity P-wave (km/s) = 6.35327 8.12820 7.29492
#
# Compressibility (1/GPa) = 0.02148799
#
# Stress axis : x y z
#
# Youngs Moduli (GPa) = 31.99364 136.82376 39.39949
#
# Poissons Ratio (x) = 0.48274 0.56197
# Poissons Ratio (y) = 0.11288 0.13543
# Poissons Ratio (z) = 0.45634 0.47032
#
# Static dielectric constant tensor:
#      x y z
#    x 1.656910 0.000000 -0.001190 
#    y 0.000000 1.653300 0.000000 
#    z -0.001190 0.000000 1.657710 
# 
# From -- ./inp_files/170091.got.cif
#   From: 2010.05.17/outbox.cif.g08.bks.cpg/sg15_86_cif.got.tgz:170091.got - 2010.06.03 18:47:42.
