data_PCOD9281375
_publ_section_title
;
Structure prediction by ZEFSAII (Michael W. Deem and Ramdas Pophale) SiO2 
 PCOD9281375
Probable space group: C 2/C
;
_chemical_formula_sum "Si O2"
_cell_formula_units_Z 60
_cell_length_a 20.979386
_cell_length_b 10.939304
_cell_length_c 12.798494
_cell_angle_alpha 90.000000
_cell_angle_beta 68.121226
_cell_angle_gamma 90.000000
_cell_volume 2725.695361
_symmetry_space_group_name_H-M "C 2/C"
_symmetry_group_IT_number 15
_symmetry_cell_setting 'monoclinic'
loop_
_space_group_symop_operation_xyz
x,y,z
-x,y,1/2-z
-x,-y,-z
x,-y,1/2+z
1/2+x,1/2+y,z
1/2-x,1/2+y,1/2-z
1/2-x,1/2-y,-z
1/2+x,1/2-y,1/2+z
loop_
_atom_site_type_symbol
_atom_site_label
_atom_site_fract_x
_atom_site_fract_y
_atom_site_fract_z
Si Si1 0.554015 0.163445 0.130464
Si Si2 0.000000 0.099435 0.250000
Si Si3 0.774532 0.037950 0.361210
Si Si4 0.387857 0.326888 0.656282
Si Si5 0.357871 0.919082 0.431019
Si Si6 0.448794 0.884939 0.543985
Si Si7 0.108379 0.920344 0.077143
Si Si8 0.158895 0.567715 0.801682
O O1 0.500000 0.114482 0.250000
O O2 0.498388 0.204293 0.075571
O O3 0.592456 0.286948 0.135427
O O4 0.609003 0.055679 0.077119
O O5 0.047226 0.168949 0.305632
O O6 0.050933 0.013220 0.152574
O O7 0.820348 0.965844 0.416967
O O8 0.733853 0.953252 0.303273
O O9 0.823755 0.125857 0.264999
O O10 0.712834 0.098478 0.464372
O O11 0.391753 0.406847 0.548320
O O12 0.373974 0.188564 0.628529
O O13 0.416037 0.840772 0.455551
O O14 0.344987 0.904252 0.317984
O O15 0.500000 0.000000 0.500000
O O16 0.385862 0.945793 0.646889
#
# Coordination Sequence:
#
# PCOD9281375 Si02
#       8
#     8   4   8   8   8   8   8   8
#     4  11  20  36  63  95 124 157 200 252 311 361
#     4  10  24  42  62  90 120 160 202 252 312 360
#     4  10  24  42  60  90 121 166 210 247 300 360
#     4  11  24  41  64  88 122 161 206 251 307 364
#     4  10  21  38  61  88 129 158 199 257 303 364
#     4   9  19  34  55  91 123 155 194 243 304 359
#     4  11  22  42  64  89 123 160 207 252 298 368
#     4  11  22  39  62  89 122 163 200 252 306 360
#
# _framework density 22.012732
#
# number of rings (size 3 to 8) (size 9 to 14) (size 15 to 20)
#    0.000    1.600    2.000    3.600    0.000    6.933 
#    0.000    0.000    0.000    0.000    0.000    0.000 
#    0.000    0.000    0.000    0.000    0.000    0.000 
#
# Total GULP energy -167446.684975 kJ/mol
# GULP energy per Si atom -5581.556166 kJ/mol
# Density = 2.196263 g / cm^3
# Si number density = 22.012732 Si / 1000 Ang^3
#
#
#
# Elastic Constant Matrix: (Units=GPa)
#
#
# Indices 1 2 3 4 5 6 
#
# 1 171.0600 20.7477 44.6284 0.0000 9.6483 0.0000
# 2 20.7477 46.7945 -1.9482 0.0000 -7.5443 0.0000
# 3 44.6284 -1.9482 110.2583 0.0000 6.4922 0.0000
# 4 0.0000 0.0000 0.0000 20.0148 0.0000 -2.4448
# 5 9.6483 -7.5443 6.4922 0.0000 45.7357 0.0000
# 6 0.0000 0.0000 0.0000 -2.4448 0.0000 25.4486
#
#
#
# Elastic Compliance Matrix: (Units=1/GPa)
#
#
# Indices 1 2 3 4 5 6 
#
# 1 0.007112 -0.003543 -0.002842 0.000000 -0.001681 0.000000
# 2 -0.003543 0.023722 0.001592 0.000000 0.004434 0.000000
# 3 -0.002842 0.001592 0.010283 0.000000 -0.000598 0.000000
# 4 0.000000 0.000000 0.000000 0.050556 0.000000 0.004857
# 5 -0.001681 0.004434 -0.000598 0.000000 0.023036 0.000000
# 6 0.000000 0.000000 0.000000 0.004857 0.000000 0.039761
#
#
# Mechanical properties :
#
#
# Convention : Reuss Voigt Hill
#
# Bulk Modulus (GPa) = 31.71438 50.55207 41.13322
# Shear Modulus (GPa) = 28.64231 35.88550 32.26390
#
# Velocity S-wave (km/s) = 3.61109 4.04197 3.83259
# Velocity P-wave (km/s) = 5.64138 6.69314 6.18964
#
# Compressibility (1/GPa) = 0.03153144
#
# Stress axis : x y z
#
# Youngs Moduli (GPa) = 140.60861 42.15498 97.24444
#
# Poissons Ratio (x) = 0.14934 0.27639
# Poissons Ratio (y) = 0.49813 -0.15481
# Poissons Ratio (z) = 0.39964 -0.06711
#
# Static dielectric constant tensor:
#      x y z
#    x 1.822350 0.000000 0.061200 
#    y 0.000000 1.776410 0.000000 
#    z 0.061200 0.000000 1.918070 
# 
# From -- ./inp_files/167599.got.cif
#   From: 2010.05.17/outbox.cif.g08.bks.cpg/sg15_84_cif.got.tgz:167599.got - 2010.06.03 18:47:42.
