data_PCOD9281572
_publ_section_title
;
Structure prediction by ZEFSAII (Michael W. Deem and Ramdas Pophale) SiO2 
 PCOD9281572
Probable space group: C 2/C
;
_chemical_formula_sum "Si O2"
_cell_formula_units_Z 56
_cell_length_a 20.627667
_cell_length_b 15.442746
_cell_length_c 22.181345
_cell_angle_alpha 90.000000
_cell_angle_beta 20.866965
_cell_angle_gamma 90.000000
_cell_volume 2516.839876
_symmetry_space_group_name_H-M "C 2/C"
_symmetry_group_IT_number 15
_symmetry_cell_setting 'monoclinic'
loop_
_space_group_symop_operation_xyz
x,y,z
-x,y,1/2-z
-x,-y,-z
x,-y,1/2+z
1/2+x,1/2+y,z
1/2-x,1/2+y,1/2-z
1/2-x,1/2-y,-z
1/2+x,1/2-y,1/2+z
loop_
_atom_site_type_symbol
_atom_site_label
_atom_site_fract_x
_atom_site_fract_y
_atom_site_fract_z
Si Si1 0.930704 0.812888 0.507232
Si Si2 0.086636 0.371499 0.876625
Si Si3 0.857112 0.484807 0.002612
Si Si4 0.627438 0.836096 0.971426
Si Si5 0.977274 0.888070 0.335573
Si Si6 0.347627 0.010360 0.842756
Si Si7 0.216364 0.149366 0.862780
O O1 0.948507 0.709666 0.498029
O O2 0.965929 0.834061 0.406891
O O3 0.071638 0.853198 0.433976
O O4 0.737391 0.848580 0.696128
O O5 0.976328 0.457570 0.957317
O O6 0.187643 0.367379 0.852877
O O7 0.817800 0.587127 0.031753
O O8 0.000355 0.455908 0.826638
O O9 0.665059 0.440284 0.174582
O O10 0.410184 0.838986 0.162840
O O11 0.684039 0.737189 0.929093
O O12 0.000000 0.842718 0.250000
O O13 0.803221 0.953434 0.491488
O O14 0.500000 0.062328 0.750000
O O15 0.238821 0.069184 0.888946
#
# Coordination Sequence:
#
# PCOD9281572 Si02
#       7
#     8   8   8   8   8   8   8
#     4  11  23  40  66 100 132 175 223 268 332 389
#     4  11  21  40  64  98 143 170 216 276 322 397
#     4  11  23  41  65  95 133 174 226 264 329 390
#     4  10  21  38  62  98 133 176 211 272 331 384
#     4  12  25  43  70  92 132 177 222 274 335 392
#     4  11  24  46  65  96 130 177 221 279 326 393
#     4  10  22  40  66  96 135 170 224 270 327 394
#
# _framework density 22.250125000000001
#
# number of rings (size 3 to 8) (size 9 to 14) (size 15 to 20)
#    0.000    1.143    2.857    5.571    4.000    1.714 
#    0.000    7.143    0.000    0.000    0.000    0.000 
#    0.000    0.000    0.000    0.000    0.000    0.000 
#
# Total GULP energy -156061.804509 kJ/mol
# GULP energy per Si atom -5573.635875 kJ/mol
# Density = 2.219948 g / cm^3
# Si number density = 22.250125 Si / 1000 Ang^3
#
#
#
# Elastic Constant Matrix: (Units=GPa)
#
#
# Indices 1 2 3 4 5 6 
#
# 1 50.1782 4.2278 3.2750 -0.0122 15.6959 0.0067
# 2 4.2278 31.2463 4.4784 -0.0028 3.8471 0.0107
# 3 3.2750 4.4784 80.9333 -0.0031 20.5577 0.0066
# 4 -0.0122 -0.0028 -0.0031 28.9889 -0.0028 14.4404
# 5 15.6959 3.8471 20.5577 -0.0028 40.6344 -0.0016
# 6 0.0067 0.0107 0.0066 14.4404 -0.0016 -10.2910
#
#
#
# Elastic Compliance Matrix: (Units=1/GPa)
#
#
# Indices 1 2 3 4 5 6 
#
# 1 0.022972 -0.002170 0.001598 0.000001 -0.009476 0.000016
# 2 -0.002170 0.032682 -0.001317 -0.000008 -0.001590 0.000021
# 3 0.001598 -0.001317 0.014331 -0.000002 -0.007743 0.000007
# 4 0.000001 -0.000008 -0.000002 0.020304 0.000004 0.028491
# 5 -0.009476 -0.001590 -0.007743 0.000004 0.032338 -0.000012
# 6 0.000016 0.000021 0.000007 0.028491 -0.000012 -0.057194
#
#
# Mechanical properties :
#
#
# Convention : Reuss Voigt Hill
#
# Bulk Modulus (GPa) = 15.10464 20.70223 17.90344
# Shear Modulus (GPa) = 54.77687 21.89158 38.33422
#
# Velocity S-wave (km/s) = 4.96710 3.14010 4.15526
# Velocity P-wave (km/s) = 6.30075 4.74041 5.57543
#
# Compressibility (1/GPa) = 0.06620483
#
# Stress axis : x y z
#
# Youngs Moduli (GPa) = 43.53179 30.59796 69.78000
#
# Poissons Ratio (x) = 0.06641 -0.11148
# Poissons Ratio (y) = 0.09448 0.09189
# Poissons Ratio (z) = -0.06954 0.04029
#
# Static dielectric constant tensor:
#      x y z
#    x 1.986510 0.000000 0.053090 
#    y 0.000000 1.840170 0.000010 
#    z 0.053090 0.000010 1.808910 
# 
# From -- ./inp_files/253328.got.cif
#   From: 2010.05.17/outbox.cif.g08.bks.cpg/sg15_127_cif.got.tgz:253328.got - 2010.06.03 18:47:42.
