data_PCOD9281311
_publ_section_title
;
Structure prediction by ZEFSAII (Michael W. Deem and Ramdas Pophale) SiO2 
 PCOD9281311
Probable space group: C 2/C
;
_chemical_formula_sum "Si O2"
_cell_formula_units_Z 52
_cell_length_a 8.239271
_cell_length_b 16.285896
_cell_length_c 27.924687
_cell_angle_alpha 90.000000
_cell_angle_beta 138.815261
_cell_angle_gamma 90.000000
_cell_volume 2467.387165
_symmetry_space_group_name_H-M "C 2/C"
_symmetry_group_IT_number 15
_symmetry_cell_setting 'monoclinic'
loop_
_space_group_symop_operation_xyz
x,y,z
-x,y,1/2-z
-x,-y,-z
x,-y,1/2+z
1/2+x,1/2+y,z
1/2-x,1/2+y,1/2-z
1/2-x,1/2-y,-z
1/2+x,1/2-y,1/2+z
loop_
_atom_site_type_symbol
_atom_site_label
_atom_site_fract_x
_atom_site_fract_y
_atom_site_fract_z
Si Si1 0.840088 0.325146 0.487795
Si Si2 0.138679 0.000570 0.978567
Si Si3 0.140398 0.554275 0.332281
Si Si4 0.835898 0.238722 0.074021
Si Si5 0.500000 0.657578 0.750000
Si Si6 0.481803 0.914370 0.120175
Si Si7 0.852107 0.731037 0.146439
O O1 0.750000 0.250000 0.500000
O O2 0.725124 0.410727 0.479458
O O3 0.745361 0.291758 0.415697
O O4 0.138578 0.321512 0.553877
O O5 0.938142 0.960415 0.898522
O O6 0.378908 0.948487 0.046801
O O7 0.000000 0.000000 0.000000
O O8 0.051378 0.477423 0.343955
O O9 0.083351 0.637324 0.350076
O O10 0.000000 0.558582 0.250000
O O11 0.833025 0.329696 0.096387
O O12 0.122641 0.217242 0.132374
O O13 0.750000 0.250000 0.000000
O O14 0.437982 0.718722 0.779916
O O15 0.731559 0.606168 0.818018
#
# Coordination Sequence:
#
# PCOD9281311 Si02
#       7
#     8   8   8   8   4   8   8
#     4  11  20  35  67  97 127 163 219 265 322 393
#     4  10  21  38  60  94 130 167 208 275 331 383
#     4  11  22  39  65  91 127 170 215 267 330 385
#     4   9  19  39  62  91 122 168 210 259 312 388
#     4  10  22  42  62  90 130 178 208 272 324 390
#     4  10  21  41  64  87 132 165 215 269 327 386
#     4  10  21  41  63  87 128 176 218 256 328 395
#
# _framework density 21.074926000000001
#
# number of rings (size 3 to 8) (size 9 to 14) (size 15 to 20)
#    0.000    1.846    0.769    5.538    2.154    0.000 
#    2.769    7.692    0.000    0.000    0.000    0.000 
#    0.000    0.000    0.000    0.000    0.000    0.000 
#
# Total GULP energy -144872.060507 kJ/mol
# GULP energy per Si atom -5572.002327 kJ/mol
# Density = 2.102696 g / cm^3
# Si number density = 21.074926 Si / 1000 Ang^3
#
#
#
# Elastic Constant Matrix: (Units=GPa)
#
#
# Indices 1 2 3 4 5 6 
#
# 1 56.4312 35.9826 27.8586 0.0001 4.8141 0.0000
# 2 35.9826 157.1728 53.0724 0.0000 -2.1196 0.0000
# 3 27.8586 53.0724 161.4944 0.0002 10.3742 0.0001
# 4 0.0001 0.0000 0.0002 35.6377 0.0001 -1.8757
# 5 4.8141 -2.1196 10.3742 0.0001 18.5759 0.0000
# 6 0.0000 0.0000 0.0001 -1.8757 0.0000 43.1040
#
#
#
# Elastic Compliance Matrix: (Units=1/GPa)
#
#
# Indices 1 2 3 4 5 6 
#
# 1 0.021963 -0.004417 -0.002011 0.000000 -0.005073 0.000000
# 2 -0.004417 0.008134 -0.002120 0.000000 0.003257 0.000000
# 3 -0.002011 -0.002120 0.007486 0.000000 -0.003902 0.000000
# 4 0.000000 0.000000 0.000000 0.028125 0.000000 0.001224
# 5 -0.005073 0.003257 -0.003902 0.000000 0.057698 0.000000
# 6 0.000000 0.000000 0.000000 0.001224 0.000000 0.023253
#
#
# Mechanical properties :
#
#
# Convention : Reuss Voigt Hill
#
# Bulk Modulus (GPa) = 48.81477 67.65839 58.23658
# Shear Modulus (GPa) = 29.31090 36.67585 32.99337
#
# Velocity S-wave (km/s) = 3.73338 4.17617 3.96097
# Velocity P-wave (km/s) = 6.46506 7.44495 6.97224
#
# Compressibility (1/GPa) = 0.02048560
#
# Stress axis : x y z
#
# Youngs Moduli (GPa) = 45.53107 122.94726 133.57382
#
# Poissons Ratio (x) = 0.54311 0.26864
# Poissons Ratio (y) = 0.20113 0.28320
# Poissons Ratio (z) = 0.09157 0.26067
#
# Static dielectric constant tensor:
#      x y z
#    x 1.953540 0.000000 -0.153040 
#    y 0.000000 1.822610 0.000000 
#    z -0.153040 0.000000 2.080840 
# 
# From -- ./inp_files/308333.got.cif
#   From: 2010.05.17/outbox.cif.g08.bks.cpg/sg15_155_cif.got.tgz:308333.got - 2010.06.03 18:47:42.
