data_PCOD9281108
_publ_section_title
;
Structure prediction by ZEFSAII (Michael W. Deem and Ramdas Pophale) SiO2 
 PCOD9281108
Probable space group: C 2/C
;
_chemical_formula_sum "Si O2"
_cell_formula_units_Z 56
_cell_length_a 17.955231
_cell_length_b 34.037530
_cell_length_c 5.070897
_cell_angle_alpha 90.000000
_cell_angle_beta 109.974732
_cell_angle_gamma 90.000000
_cell_volume 2912.656719
_symmetry_space_group_name_H-M "C 2/C"
_symmetry_group_IT_number 15
_symmetry_cell_setting 'monoclinic'
loop_
_space_group_symop_operation_xyz
x,y,z
-x,y,1/2-z
-x,-y,-z
x,-y,1/2+z
1/2+x,1/2+y,z
1/2-x,1/2+y,1/2-z
1/2-x,1/2-y,-z
1/2+x,1/2-y,1/2+z
loop_
_atom_site_type_symbol
_atom_site_label
_atom_site_fract_x
_atom_site_fract_y
_atom_site_fract_z
Si Si1 0.250584 0.107543 0.960112
Si Si2 0.325827 0.146179 0.536501
Si Si3 0.672205 0.026024 0.488136
Si Si4 0.407173 0.704257 0.133982
Si Si5 0.404334 0.652114 0.639551
Si Si6 0.703716 0.233317 0.190636
Si Si7 0.000000 0.620169 0.750000
Si Si8 0.500000 0.935909 0.750000
O O1 0.281379 0.135791 0.757288
O O2 0.160405 0.117250 0.942869
O O3 0.302373 0.114777 0.285599
O O4 0.271594 0.063555 0.896894
O O5 0.303287 0.187191 0.367784
O O6 0.419976 0.144747 0.697927
O O7 0.580058 0.039490 0.392682
O O8 0.686078 0.992617 0.720295
O O9 0.500000 0.707775 0.250000
O O10 0.385472 0.685252 0.392264
O O11 0.386224 0.671296 0.897898
O O12 0.378058 0.744476 0.964526
O O13 0.500000 0.643016 0.750000
O O14 0.750000 0.250000 0.500000
O O15 0.750000 0.250000 0.000000
O O16 0.988126 0.592081 0.485983
#
# Coordination Sequence:
#
# PCOD9281108 Si02
#       8
#     8   8   8   8   8   8   4   4
#     4  12  23  42  63  90 121 158 204 253 306 364
#     4  12  24  39  63  86 124 168 206 254 301 362
#     4  12  24  40  62  92 124 161 198 249 305 361
#     4  10  21  38  58  86 118 152 200 255 305 352
#     4  10  21  39  65  89 116 153 200 256 308 364
#     4  12  24  38  58  87 120 161 209 253 307 359
#     4  12  22  41  60  90 126 166 214 248 296 366
#     4  12  22  43  62  88 126 162 210 250 294 360
#
# _framework density 19.226434999999999
#
# number of rings (size 3 to 8) (size 9 to 14) (size 15 to 20)
#    0.000    0.571    2.857    7.286    1.000    0.000 
#    0.000    0.000    0.000    0.857    0.000    0.000 
#    0.000    0.000    0.000    0.000    0.000    0.000 
#
# Total GULP energy -156183.885976 kJ/mol
# GULP energy per Si atom -5577.995928 kJ/mol
# Density = 1.918267 g / cm^3
# Si number density = 19.226435 Si / 1000 Ang^3
#
#
#
# Elastic Constant Matrix: (Units=GPa)
#
#
# Indices 1 2 3 4 5 6 
#
# 1 76.6386 25.2250 26.7967 0.0000 5.4524 0.0000
# 2 25.2250 76.1785 11.6533 0.0000 14.0702 0.0000
# 3 26.7967 11.6533 112.7403 0.0000 -9.2235 0.0000
# 4 0.0000 0.0000 0.0000 38.4002 0.0000 0.1666
# 5 5.4524 14.0702 -9.2235 0.0000 26.4998 0.0000
# 6 0.0000 0.0000 0.0000 0.1666 0.0000 50.3883
#
#
#
# Elastic Compliance Matrix: (Units=1/GPa)
#
#
# Indices 1 2 3 4 5 6 
#
# 1 0.015846 -0.004307 -0.003500 0.000000 -0.002192 0.000000
# 2 -0.004307 0.016275 -0.001331 0.000000 -0.008218 0.000000
# 3 -0.003500 -0.001331 0.010248 0.000000 0.004994 0.000000
# 4 0.000000 0.000000 0.000000 0.026042 0.000000 -0.000086
# 5 -0.002192 -0.008218 0.004994 0.000000 0.044289 0.000000
# 6 0.000000 0.000000 0.000000 -0.000086 0.000000 0.019846
#
#
# Mechanical properties :
#
#
# Convention : Reuss Voigt Hill
#
# Bulk Modulus (GPa) = 41.50705 43.65638 42.58172
# Shear Modulus (GPa) = 31.47586 36.51651 33.99618
#
# Velocity S-wave (km/s) = 4.05052 4.36281 4.20956
# Velocity P-wave (km/s) = 6.59628 6.93790 6.76925
#
# Compressibility (1/GPa) = 0.02409229
#
# Stress axis : x y z
#
# Youngs Moduli (GPa) = 63.10891 61.44532 97.57939
#
# Poissons Ratio (x) = 0.26462 0.34157
# Poissons Ratio (y) = 0.27179 0.12987
# Poissons Ratio (z) = 0.22091 0.08178
#
# Static dielectric constant tensor:
#      x y z
#    x 1.678300 0.000000 0.000940 
#    y 0.000000 1.631260 0.000000 
#    z 0.000940 0.000000 1.718280 
# 
# From -- ./inp_files/11595.got.cif
#   From: 2010.05.17/outbox.cif.g08.bks.cpg/sg15_6_cif.got.tgz:11595.got - 2010.06.03 18:47:42.
