data_PCOD9281466
_publ_section_title
;
Structure prediction by ZEFSAII (Michael W. Deem and Ramdas Pophale) SiO2 
 PCOD9281466
Probable space group: C 2/C
;
_chemical_formula_sum "Si O2"
_cell_formula_units_Z 48
_cell_length_a 13.260189
_cell_length_b 22.937651
_cell_length_c 8.953463
_cell_angle_alpha 90.000000
_cell_angle_beta 114.363375
_cell_angle_gamma 90.000000
_cell_volume 2480.750379
_symmetry_space_group_name_H-M "C 2/C"
_symmetry_group_IT_number 15
_symmetry_cell_setting 'monoclinic'
loop_
_space_group_symop_operation_xyz
x,y,z
-x,y,1/2-z
-x,-y,-z
x,-y,1/2+z
1/2+x,1/2+y,z
1/2-x,1/2+y,1/2-z
1/2-x,1/2-y,-z
1/2+x,1/2-y,1/2+z
loop_
_atom_site_type_symbol
_atom_site_label
_atom_site_fract_x
_atom_site_fract_y
_atom_site_fract_z
Si Si1 0.725809 0.039507 0.498945
Si Si2 0.927707 0.043826 0.058541
Si Si3 0.029023 0.825576 0.940723
Si Si4 0.880699 0.250985 0.758754
Si Si5 0.703845 0.666152 0.037632
Si Si6 0.577961 0.024045 0.678606
O O1 0.782930 0.098731 0.487136
O O2 0.677475 0.048184 0.636567
O O3 0.813143 0.986761 0.536114
O O4 0.631634 0.024476 0.319299
O O5 0.917085 0.110434 0.994998
O O6 0.000000 0.050843 0.250000
O O7 0.000000 0.000000 0.000000
O O8 0.000000 0.816763 0.750000
O O9 0.909895 0.825566 0.945774
O O10 0.098060 0.774598 0.063882
O O11 0.807293 0.308643 0.694029
O O12 0.811510 0.202464 0.624164
O O13 0.000000 0.258551 0.750000
O O14 0.500000 0.059005 0.750000
O O15 0.500000 0.000000 0.500000
#
# Coordination Sequence:
#
# PCOD9281466 Si02
#       6
#     8   8   8   8   8   8
#     4  11  21  35  63  87 123 165 204 252 310 373
#     4  11  22  33  55  96 129 160 197 242 318 376
#     4  10  22  38  59  90 131 155 197 265 308 371
#     4   9  21  40  62  85 118 158 214 258 303 363
#     4  10  21  38  62  88 113 166 210 250 307 367
#     4   9  21  39  55  82 121 162 205 252 299 359
#
# _framework density 19.348984000000002
#
# number of rings (size 3 to 8) (size 9 to 14) (size 15 to 20)
#    0.000    2.000    1.667    1.000    7.000    2.667 
#    0.000    0.000    0.000   10.000    0.000    0.000 
#    0.000    0.000    0.000    0.000    0.000    0.000 
#
# Total GULP energy -133685.299151 kJ/mol
# GULP energy per Si atom -5570.220798 kJ/mol
# Density = 1.930495 g / cm^3
# Si number density = 19.348984 Si / 1000 Ang^3
#
#
#
# Elastic Constant Matrix: (Units=GPa)
#
#
# Indices 1 2 3 4 5 6 
#
# 1 71.2724 8.0018 31.4035 0.0000 0.7813 0.0000
# 2 8.0018 38.7838 20.5700 0.0000 7.6730 0.0000
# 3 31.4035 20.5700 95.3363 0.0000 -10.6710 0.0000
# 4 0.0000 0.0000 0.0000 19.5379 0.0000 4.0243
# 5 0.7813 7.6730 -10.6710 0.0000 35.8024 0.0000
# 6 0.0000 0.0000 0.0000 4.0243 0.0000 16.2199
#
#
#
# Elastic Compliance Matrix: (Units=1/GPa)
#
#
# Indices 1 2 3 4 5 6 
#
# 1 0.016558 0.000006 -0.005686 0.000000 -0.002057 0.000000
# 2 0.000006 0.031776 -0.007883 0.000000 -0.009160 0.000000
# 3 -0.005686 -0.007883 0.014758 0.000000 0.006212 0.000000
# 4 0.000000 0.000000 0.000000 0.053939 0.000000 -0.013383
# 5 -0.002057 -0.009160 0.006212 0.000000 0.031791 0.000000
# 6 0.000000 0.000000 0.000000 -0.013383 0.000000 0.064973
#
#
# Mechanical properties :
#
#
# Convention : Reuss Voigt Hill
#
# Bulk Modulus (GPa) = 27.80358 36.14922 31.97640
# Shear Modulus (GPa) = 19.76991 24.00651 21.88821
#
# Velocity S-wave (km/s) = 3.19996 3.52620 3.36703
# Velocity P-wave (km/s) = 5.29657 5.94155 5.62831
#
# Compressibility (1/GPa) = 0.03596659
#
# Stress axis : x y z
#
# Youngs Moduli (GPa) = 60.39481 31.47031 67.75820
#
# Poissons Ratio (x) = -0.00020 0.38526
# Poissons Ratio (y) = -0.00039 0.53417
# Poissons Ratio (z) = 0.34339 0.24809
#
# Static dielectric constant tensor:
#      x y z
#    x 1.746850 0.000000 -0.012220 
#    y 0.000000 1.682950 0.000000 
#    z -0.012220 0.000000 1.699820 
# 
# From -- ./inp_files/32615.got.cif
#   From: 2010.05.17/outbox.cif.g08.bks.cpg/sg15_17_cif.got.tgz:32615.got - 2010.06.03 18:47:42.
