data_PCOD9281558
_publ_section_title
;
Structure prediction by ZEFSAII (Michael W. Deem and Ramdas Pophale) SiO2 
 PCOD9281558
Probable space group: C 2/C
;
_chemical_formula_sum "Si O2"
_cell_formula_units_Z 44
_cell_length_a 21.792811
_cell_length_b 14.502322
_cell_length_c 9.930712
_cell_angle_alpha 90.000000
_cell_angle_beta 32.240848
_cell_angle_gamma 90.000000
_cell_volume 1674.360048
_symmetry_space_group_name_H-M "C 2/C"
_symmetry_group_IT_number 15
_symmetry_cell_setting 'monoclinic'
loop_
_space_group_symop_operation_xyz
x,y,z
-x,y,1/2-z
-x,-y,-z
x,-y,1/2+z
1/2+x,1/2+y,z
1/2-x,1/2+y,1/2-z
1/2-x,1/2-y,-z
1/2+x,1/2-y,1/2+z
loop_
_atom_site_type_symbol
_atom_site_label
_atom_site_fract_x
_atom_site_fract_y
_atom_site_fract_z
Si Si1 0.974190 0.822330 0.985500
Si Si2 0.247597 0.306601 0.233330
Si Si3 0.373494 0.061870 0.330007
Si Si4 0.679158 0.618726 0.477254
Si Si5 0.895026 0.633187 0.730373
Si Si6 0.000000 0.022921 0.250000
O O1 0.872140 0.809499 0.067106
O O2 0.911653 0.837840 0.244794
O O3 0.025041 0.917593 0.836939
O O4 0.053020 0.732358 0.828554
O O5 0.172441 0.371417 0.470264
O O6 0.209589 0.201145 0.320677
O O7 0.219444 0.345125 0.139943
O O8 0.288328 0.082303 0.360625
O O9 0.372173 0.953435 0.370208
O O10 0.502332 0.091805 0.053094
O O11 0.612451 0.539071 0.523510
#
# Coordination Sequence:
#
# PCOD9281558 Si02
#       6
#     8   8   8   8   8   4
#     4  11  23  44  61  94 129 163 211 262 307 382
#     4  11  21  41  70  90 123 171 214 251 309 376
#     4  10  21  38  62  96 125 155 218 259 300 364
#     4  11  21  42  65  93 121 173 215 253 296 391
#     4  11  21  39  65  96 128 162 205 263 315 366
#     4  12  26  40  64  92 132 166 202 264 334 352
#
# _framework density 26.278697000000001
#
# number of rings (size 3 to 8) (size 9 to 14) (size 15 to 20)
#    0.000    1.091    3.636    4.364    0.000    0.000 
#    6.545    5.455    0.000    0.000    0.000    0.000 
#    0.000    0.000    0.000    0.000    0.000    0.000 
#
# Total GULP energy -123351.005112 kJ/mol
# GULP energy per Si atom -5606.863869 kJ/mol
# Density = 2.621889 g / cm^3
# Si number density = 26.278697 Si / 1000 Ang^3
#
#
#
# Elastic Constant Matrix: (Units=GPa)
#
#
# Indices 1 2 3 4 5 6 
#
# 1 85.1411 38.3333 11.6679 0.0000 -26.8338 0.0000
# 2 38.3333 178.7451 27.3170 0.0000 -13.4918 0.0000
# 3 11.6679 27.3170 50.1482 0.0000 -13.7749 0.0000
# 4 0.0000 0.0000 0.0000 36.4501 0.0000 -12.4928
# 5 -26.8338 -13.4918 -13.7749 0.0000 41.8620 0.0000
# 6 0.0000 0.0000 0.0000 -12.4928 0.0000 38.2890
#
#
#
# Elastic Compliance Matrix: (Units=1/GPa)
#
#
# Indices 1 2 3 4 5 6 
#
# 1 0.015908 -0.002760 0.000394 0.000000 0.009438 0.000000
# 2 -0.002760 0.006617 -0.003147 0.000000 -0.000672 0.000000
# 3 0.000394 -0.003147 0.023476 0.000000 0.006963 0.000000
# 4 0.000000 0.000000 0.000000 0.030889 0.000000 0.010078
# 5 0.009438 -0.000672 0.006963 0.000000 0.032012 0.000000
# 6 0.000000 0.000000 0.000000 0.010078 0.000000 0.029406
#
#
# Mechanical properties :
#
#
# Convention : Reuss Voigt Hill
#
# Bulk Modulus (GPa) = 28.59058 52.07453 40.33255
# Shear Modulus (GPa) = 31.05779 39.10129 35.07954
#
# Velocity S-wave (km/s) = 3.44155 3.86158 3.65760
# Velocity P-wave (km/s) = 5.16679 6.30410 5.76357
#
# Compressibility (1/GPa) = 0.03497656
#
# Stress axis : x y z
#
# Youngs Moduli (GPa) = 62.86136 151.13637 42.59676
#
# Poissons Ratio (x) = 0.41706 -0.01679
# Poissons Ratio (y) = 0.17347 0.13404
# Poissons Ratio (z) = -0.02478 0.47558
#
# Static dielectric constant tensor:
#      x y z
#    x 1.983110 0.000000 0.027790 
#    y 0.000000 2.118640 0.000000 
#    z 0.027790 0.000000 2.140470 
# 
# From -- ./inp_files/117905.got.cif
#   From: 2010.05.17/outbox.cif.g08.bks.cpg/sg15_59_cif.got.tgz:117905.got - 2010.06.03 18:47:42.
