data_PCOD9281893
_publ_section_title
;
Structure prediction by ZEFSAII (Michael W. Deem and Ramdas Pophale) SiO2 
 PCOD9281893
Probable space group: C 2/C
;
_chemical_formula_sum "Si O2"
_cell_formula_units_Z 56
_cell_length_a 7.552064
_cell_length_b 16.595598
_cell_length_c 21.188226
_cell_angle_alpha 90.000000
_cell_angle_beta 92.531368
_cell_angle_gamma 90.000000
_cell_volume 2652.950638
_symmetry_space_group_name_H-M "C 2/C"
_symmetry_group_IT_number 15
_symmetry_cell_setting 'monoclinic'
loop_
_space_group_symop_operation_xyz
x,y,z
-x,y,1/2-z
-x,-y,-z
x,-y,1/2+z
1/2+x,1/2+y,z
1/2-x,1/2+y,1/2-z
1/2-x,1/2-y,-z
1/2+x,1/2-y,1/2+z
loop_
_atom_site_type_symbol
_atom_site_label
_atom_site_fract_x
_atom_site_fract_y
_atom_site_fract_z
Si Si1 0.892896 0.273026 0.555468
Si Si2 0.573349 0.913276 0.482064
Si Si3 0.916119 0.955420 0.898700
Si Si4 0.500000 0.925811 0.750000
Si Si5 0.429964 0.946771 0.153299
Si Si6 0.299149 0.676817 0.319145
Si Si7 0.508450 0.601503 0.533737
Si Si8 0.500000 0.184969 0.750000
O O1 0.750000 0.250000 0.500000
O O2 0.809332 0.299273 0.619976
O O3 0.009113 0.344425 0.528028
O O4 0.995697 0.188806 0.563656
O O5 0.502326 0.904162 0.409177
O O6 0.786345 0.910457 0.482769
O O7 0.500000 0.000000 0.500000
O O8 0.948012 0.886272 0.847656
O O9 0.739295 0.000569 0.871442
O O10 0.041809 0.030723 0.917899
O O11 0.900351 0.912110 0.967073
O O12 0.334201 0.870675 0.728807
O O13 0.455978 0.986433 0.807516
O O14 0.393704 0.875205 0.201987
O O15 0.378298 0.755527 0.288573
#
# Coordination Sequence:
#
# PCOD9281893 Si02
#       8
#     8   8   8   4   8   8   8   4
#     4  12  23  39  65 100 133 165 213 278 338 384
#     4  11  23  40  66 101 131 170 211 265 338 399
#     4   9  19  40  64  91 129 164 206 263 320 392
#     4   9  20  40  64  85 120 176 220 251 318 384
#     4   9  20  41  64  87 125 170 211 264 314 389
#     4  11  23  44  65  91 128 172 215 276 317 391
#     4  10  21  38  65  98 134 165 206 261 339 400
#     4  11  24  44  64  91 126 172 224 265 318 376
#
# _framework density 21.108574000000001
#
# number of rings (size 3 to 8) (size 9 to 14) (size 15 to 20)
#    0.000    1.714    1.429    3.857    2.000    2.286 
#    5.143    2.857    0.000    0.000    0.000    0.000 
#    0.000    0.000    0.000    0.000    0.000    0.000 
#
# Total GULP energy -156160.069414 kJ/mol
# GULP energy per Si atom -5577.145336 kJ/mol
# Density = 2.106053 g / cm^3
# Si number density = 21.108574 Si / 1000 Ang^3
#
#
#
# Elastic Constant Matrix: (Units=GPa)
#
#
# Indices 1 2 3 4 5 6 
#
# 1 52.7972 34.0999 32.4882 0.0000 4.0505 0.0000
# 2 34.0999 165.2105 59.3439 0.0000 0.0104 0.0000
# 3 32.4882 59.3439 126.0456 0.0000 11.2201 0.0000
# 4 0.0000 0.0000 0.0000 45.2193 0.0000 -4.9565
# 5 4.0505 0.0104 11.2201 0.0000 28.8873 0.0000
# 6 0.0000 0.0000 0.0000 -4.9565 0.0000 29.4244
#
#
#
# Elastic Compliance Matrix: (Units=1/GPa)
#
#
# Indices 1 2 3 4 5 6 
#
# 1 0.023969 -0.003346 -0.004458 0.000000 -0.001628 0.000000
# 2 -0.003346 0.007805 -0.002956 0.000000 0.001615 0.000000
# 3 -0.004458 -0.002956 0.010792 0.000000 -0.003565 0.000000
# 4 0.000000 0.000000 0.000000 0.022530 0.000000 0.003795
# 5 -0.001628 0.001615 -0.003565 0.000000 0.036230 0.000000
# 6 0.000000 0.000000 0.000000 0.003795 0.000000 0.034625
#
#
# Mechanical properties :
#
#
# Convention : Reuss Voigt Hill
#
# Bulk Modulus (GPa) = 47.51354 66.21303 56.86328
# Shear Modulus (GPa) = 30.39756 35.24763 32.82260
#
# Velocity S-wave (km/s) = 3.79893 4.09078 3.94755
# Velocity P-wave (km/s) = 6.46533 7.33134 6.91191
#
# Compressibility (1/GPa) = 0.02104663
#
# Stress axis : x y z
#
# Youngs Moduli (GPa) = 41.71977 128.11901 92.66303
#
# Poissons Ratio (x) = 0.42869 0.41308
# Poissons Ratio (y) = 0.13959 0.27392
# Poissons Ratio (z) = 0.18598 0.37873
#
# Static dielectric constant tensor:
#      x y z
#    x 1.784970 0.000000 0.019480 
#    y 0.000000 1.813450 0.000000 
#    z 0.019480 0.000000 1.796360 
# 
# From -- ./inp_files/231608.got.cif
#   From: 2010.05.17/outbox.cif.g08.bks.cpg/sg15_116_cif.got.tgz:231608.got - 2010.06.03 18:47:42.
