data_PCOD9281278
_publ_section_title
;
Structure prediction by ZEFSAII (Michael W. Deem and Ramdas Pophale) SiO2 
 PCOD9281278
Probable space group: C 2/C
;
_chemical_formula_sum "Si O2"
_cell_formula_units_Z 60
_cell_length_a 20.795003
_cell_length_b 6.674365
_cell_length_c 24.496242
_cell_angle_alpha 90.000000
_cell_angle_beta 71.898448
_cell_angle_gamma 90.000000
_cell_volume 3231.646646
_symmetry_space_group_name_H-M "C 2/C"
_symmetry_group_IT_number 15
_symmetry_cell_setting 'monoclinic'
loop_
_space_group_symop_operation_xyz
x,y,z
-x,y,1/2-z
-x,-y,-z
x,-y,1/2+z
1/2+x,1/2+y,z
1/2-x,1/2+y,1/2-z
1/2-x,1/2-y,-z
1/2+x,1/2-y,1/2+z
loop_
_atom_site_type_symbol
_atom_site_label
_atom_site_fract_x
_atom_site_fract_y
_atom_site_fract_z
Si Si1 0.940618 0.182577 0.952740
Si Si2 0.816824 0.898416 0.187700
Si Si3 0.586899 0.430630 0.640407
Si Si4 0.089382 0.423660 0.783946
Si Si5 0.000000 0.124849 0.750000
Si Si6 0.173525 0.212121 0.215704
Si Si7 0.513930 0.919124 0.102265
Si Si8 0.923212 0.923806 0.576152
O O1 0.951701 0.418933 0.945737
O O2 0.904490 0.099433 0.907968
O O3 0.906088 0.108203 0.017310
O O4 0.016018 0.085174 0.934350
O O5 0.854720 0.695143 0.196211
O O6 0.742173 0.836221 0.188978
O O7 0.814633 0.048214 0.240052
O O8 0.861463 0.005978 0.129638
O O9 0.520128 0.490882 0.693155
O O10 0.645506 0.393011 0.668666
O O11 0.569154 0.228058 0.613311
O O12 0.117832 0.627887 0.751421
O O13 0.025081 0.467039 0.839063
O O14 0.063094 0.267755 0.745793
O O15 0.457746 0.781051 0.088116
#
# Coordination Sequence:
#
# PCOD9281278 Si02
#       8
#     8   8   8   8   4   8   8   8
#     4  10  21  38  60  90 121 155 194 259 304 348
#     4  12  23  41  59  85 119 163 202 244 292 356
#     4  11  23  36  56  89 124 153 199 244 304 361
#     4  12  21  35  59  87 119 152 192 242 309 354
#     4  12  20  36  58  86 126 152 178 260 310 360
#     4  12  25  39  58  86 122 161 204 242 293 367
#     4  11  19  36  61  90 117 154 192 248 310 353
#     4  10  21  38  61  88 121 153 206 247 298 362
#
# _framework density 18.566385
#
# number of rings (size 3 to 8) (size 9 to 14) (size 15 to 20)
#    0.000    0.800    6.667    2.800    0.000    0.000 
#    0.000    0.667    0.000    0.800    0.000    0.000 
#    0.000    0.000    0.000    0.000    0.000    0.000 
#
# Total GULP energy -167623.770168 kJ/mol
# GULP energy per Si atom -5587.459006 kJ/mol
# Density = 1.852413 g / cm^3
# Si number density = 18.566385 Si / 1000 Ang^3
#
#
#
# Elastic Constant Matrix: (Units=GPa)
#
#
# Indices 1 2 3 4 5 6 
#
# 1 70.3897 11.1700 31.6064 -0.0002 8.0366 0.0004
# 2 11.1700 69.1149 16.1582 -0.0008 8.5705 0.0006
# 3 31.6064 16.1582 101.5702 0.0007 14.7966 0.0010
# 4 -0.0002 -0.0008 0.0007 19.0897 -0.0011 1.5672
# 5 8.0366 8.5705 14.7966 -0.0011 18.8265 -0.0008
# 6 0.0004 0.0006 0.0010 1.5672 -0.0008 24.5653
#
#
#
# Elastic Compliance Matrix: (Units=1/GPa)
#
#
# Indices 1 2 3 4 5 6 
#
# 1 0.016812 -0.001273 -0.004594 0.000000 -0.002987 0.000000
# 2 -0.001273 0.015666 -0.001283 0.000000 -0.005580 0.000000
# 3 -0.004594 -0.001283 0.012545 -0.000001 -0.007314 -0.000001
# 4 0.000000 0.000000 -0.000001 0.052660 0.000003 -0.003360
# 5 -0.002987 -0.005580 -0.007314 0.000003 0.062680 0.000002
# 6 0.000000 0.000000 -0.000001 -0.003360 0.000002 0.040922
#
#
# Mechanical properties :
#
#
# Convention : Reuss Voigt Hill
#
# Bulk Modulus (GPa) = 32.54881 39.88268 36.21574
# Shear Modulus (GPa) = 22.14080 24.63896 23.38988
#
# Velocity S-wave (km/s) = 3.45704 3.64685 3.55321
# Velocity P-wave (km/s) = 5.78826 6.26582 6.03177
#
# Compressibility (1/GPa) = 0.03072309
#
# Stress axis : x y z
#
# Youngs Moduli (GPa) = 59.47978 63.83123 79.71521
#
# Poissons Ratio (x) = 0.08124 0.36622
# Poissons Ratio (y) = 0.07570 0.10230
# Poissons Ratio (z) = 0.27326 0.08192
#
# Static dielectric constant tensor:
#      x y z
#    x 1.629550 0.000000 0.022690 
#    y 0.000000 1.655260 0.000000 
#    z 0.022690 0.000000 1.656430 
# 
# From -- ./inp_files/299898.got.cif
#   From: 2010.05.17/outbox.cif.g08.bks.cpg/sg15_150_cif.got.tgz:299898.got - 2010.06.03 18:47:42.
