data_PCOD9281897
_publ_section_title
;
Structure prediction by ZEFSAII (Michael W. Deem and Ramdas Pophale) SiO2 
 PCOD9281897
Probable space group: C 2/C
;
_chemical_formula_sum "Si O2"
_cell_formula_units_Z 40
_cell_length_a 9.415237
_cell_length_b 27.116541
_cell_length_c 7.731464
_cell_angle_alpha 90.000000
_cell_angle_beta 105.531294
_cell_angle_gamma 90.000000
_cell_volume 1901.831115
_symmetry_space_group_name_H-M "C 2/C"
_symmetry_group_IT_number 15
_symmetry_cell_setting 'monoclinic'
loop_
_space_group_symop_operation_xyz
x,y,z
-x,y,1/2-z
-x,-y,-z
x,-y,1/2+z
1/2+x,1/2+y,z
1/2-x,1/2+y,1/2-z
1/2-x,1/2-y,-z
1/2+x,1/2-y,1/2+z
loop_
_atom_site_type_symbol
_atom_site_label
_atom_site_fract_x
_atom_site_fract_y
_atom_site_fract_z
Si Si1 0.074429 0.259057 0.960309
Si Si2 0.595481 0.653535 0.063179
Si Si3 0.467332 0.943932 0.941783
Si Si4 0.793474 0.879935 0.550913
Si Si5 0.338581 0.143399 0.850637
O O1 0.000000 0.265122 0.750000
O O2 0.250000 0.250000 0.000000
O O3 0.021491 0.207653 0.025318
O O4 0.065338 0.309160 0.064401
O O5 0.696437 0.650675 0.267126
O O6 0.463046 0.614957 0.045716
O O7 0.305377 0.644105 0.571903
O O8 0.500000 0.935939 0.750000
O O9 0.300482 0.928235 0.933269
O O10 0.572232 0.906200 0.079343
O O11 0.500000 0.000000 0.000000
O O12 0.713147 0.855018 0.362836
#
# Coordination Sequence:
#
# PCOD9281897 Si02
#       5
#     8   8   8   8   8
#     4  10  21  38  65  99 140 186 230 277 339 402
#     4  10  22  42  67  96 143 177 222 280 333 418
#     4  12  25  47  71  96 132 169 228 288 342 409
#     4  11  23  42  66 100 131 179 228 275 349 403
#     4  11  22  42  69  97 138 179 225 278 336 405
#
# _framework density 21.032361000000002
#
# number of rings (size 3 to 8) (size 9 to 14) (size 15 to 20)
#    0.000    1.200    2.000    5.400    2.800    0.800 
#    7.200    1.000    4.400    0.000    0.000    0.000 
#    0.000    0.000    0.000    0.000    0.000    0.000 
#
# Total GULP energy -111774.676379 kJ/mol
# GULP energy per Si atom -5588.733819 kJ/mol
# Density = 2.098449 g / cm^3
# Si number density = 21.032361 Si / 1000 Ang^3
#
#
#
# Elastic Constant Matrix: (Units=GPa)
#
#
# Indices 1 2 3 4 5 6 
#
# 1 132.4417 50.0741 34.1962 0.0000 -12.6578 0.0000
# 2 50.0741 143.7432 55.1345 0.0000 12.0585 0.0000
# 3 34.1962 55.1345 195.3126 0.0000 6.3479 0.0000
# 4 0.0000 0.0000 0.0000 25.3550 0.0000 3.2602
# 5 -12.6578 12.0585 6.3479 0.0000 34.2636 0.0000
# 6 0.0000 0.0000 0.0000 3.2602 0.0000 28.7820
#
#
#
# Elastic Compliance Matrix: (Units=1/GPa)
#
#
# Indices 1 2 3 4 5 6 
#
# 1 0.009523 -0.003393 -0.000868 0.000000 0.004873 0.000000
# 2 -0.003393 0.009204 -0.001869 0.000000 -0.004146 0.000000
# 3 -0.000868 -0.001869 0.005824 0.000000 -0.000742 0.000000
# 4 0.000000 0.000000 0.000000 0.040023 0.000000 -0.004534
# 5 0.004873 -0.004146 -0.000742 0.000000 0.032582 0.000000
# 6 0.000000 0.000000 0.000000 -0.004534 0.000000 0.035257
#
#
# Mechanical properties :
#
#
# Convention : Reuss Voigt Hill
#
# Bulk Modulus (GPa) = 81.36837 83.36747 82.36792
# Shear Modulus (GPa) = 33.60863 39.81964 36.71413
#
# Velocity S-wave (km/s) = 4.00177 4.35588 4.18257
# Velocity P-wave (km/s) = 7.75393 8.06362 7.91029
#
# Compressibility (1/GPa) = 0.01228979
#
# Stress axis : x y z
#
# Youngs Moduli (GPa) = 105.00539 108.65084 171.71199
#
# Poissons Ratio (x) = 0.36870 0.14902
# Poissons Ratio (y) = 0.35633 0.32097
# Poissons Ratio (z) = 0.09113 0.20309
#
# Static dielectric constant tensor:
#      x y z
#    x 1.628900 0.000000 -0.072510 
#    y 0.000000 1.756970 0.000000 
#    z -0.072510 0.000000 1.731540 
# 
# From -- ./inp_files/32281.got.cif
#   From: 2010.05.17/outbox.cif.g08.bks.cpg/sg15_17_cif.got.tgz:32281.got - 2010.06.03 18:47:42.
