data_PCOD9281157
_publ_section_title
;
Structure prediction by ZEFSAII (Michael W. Deem and Ramdas Pophale) SiO2 
 PCOD9281157
Probable space group: C 2/C
;
_chemical_formula_sum "Si O2"
_cell_formula_units_Z 36
_cell_length_a 6.734415
_cell_length_b 13.271888
_cell_length_c 20.735545
_cell_angle_alpha 90.000000
_cell_angle_beta 91.211081
_cell_angle_gamma 90.000000
_cell_volume 1852.895866
_symmetry_space_group_name_H-M "C 2/C"
_symmetry_group_IT_number 15
_symmetry_cell_setting 'monoclinic'
loop_
_space_group_symop_operation_xyz
x,y,z
-x,y,1/2-z
-x,-y,-z
x,-y,1/2+z
1/2+x,1/2+y,z
1/2-x,1/2+y,1/2-z
1/2-x,1/2-y,-z
1/2+x,1/2-y,1/2+z
loop_
_atom_site_type_symbol
_atom_site_label
_atom_site_fract_x
_atom_site_fract_y
_atom_site_fract_z
Si Si1 0.529073 0.596536 0.145925
Si Si2 0.647514 0.953436 0.303261
Si Si3 0.632087 0.980397 0.588244
Si Si4 0.285064 0.865087 0.521318
Si Si5 0.000000 0.263102 0.250000
O O1 0.648678 0.508848 0.183062
O O2 0.301661 0.568291 0.133111
O O3 0.630577 0.611947 0.077274
O O4 0.555472 0.694141 0.190457
O O5 0.500000 0.005505 0.250000
O O6 0.667498 0.841259 0.275488
O O7 0.522725 0.957310 0.368745
O O8 0.502857 0.894040 0.551556
O O9 0.732058 0.056745 0.538083
O O10 0.250000 0.750000 0.500000
#
# Coordination Sequence:
#
# PCOD9281157 Si02
#       5
#     8   8   8   8   4
#     4  11  21  38  62  86 115 158 201 238 297 357
#     4   9  21  39  56  83 122 148 191 253 288 343
#     4  10  21  38  59  84 118 155 197 247 289 354
#     4  10  22  38  57  86 121 154 194 246 299 348
#     4  10  22  38  60  88 118 154 200 244 296 360
#
# _framework density 19.429048000000002
#
# number of rings (size 3 to 8) (size 9 to 14) (size 15 to 20)
#    0.667    1.333    0.000    3.333    0.000    2.667 
#    0.000    6.667    0.000    0.000    0.000    0.000 
#    0.000    0.000    0.000    0.000    0.000    0.000 
#
# Total GULP energy -100353.579481 kJ/mol
# GULP energy per Si atom -5575.198860 kJ/mol
# Density = 1.938483 g / cm^3
# Si number density = 19.429048 Si / 1000 Ang^3
#
#
#
# Elastic Constant Matrix: (Units=GPa)
#
#
# Indices 1 2 3 4 5 6 
#
# 1 63.0415 50.6418 22.5802 0.0000 9.3376 0.0000
# 2 50.6418 132.6514 43.3805 0.0000 16.7009 0.0000
# 3 22.5802 43.3805 82.9009 0.0000 11.3717 0.0000
# 4 0.0000 0.0000 0.0000 2.2304 0.0000 -13.2553
# 5 9.3376 16.7009 11.3717 0.0000 14.6109 0.0000
# 6 0.0000 0.0000 0.0000 -13.2553 0.0000 9.0572
#
#
#
# Elastic Compliance Matrix: (Units=1/GPa)
#
#
# Indices 1 2 3 4 5 6 
#
# 1 0.023428 -0.007807 -0.001642 0.000000 -0.004772 0.000000
# 2 -0.007807 0.012493 -0.003511 0.000000 -0.006558 0.000000
# 3 -0.001642 -0.003511 0.015285 0.000000 -0.006833 0.000000
# 4 0.000000 0.000000 0.000000 -0.058245 0.000000 -0.085242
# 5 -0.004772 -0.006558 -0.006833 0.000000 0.084306 0.000000
# 6 0.000000 0.000000 0.000000 -0.085242 0.000000 -0.014343
#
#
# Mechanical properties :
#
#
# Convention : Reuss Voigt Hill
#
# Bulk Modulus (GPa) = 39.54693 56.86654 48.20673
# Shear Modulus (GPa) = 51.40253 15.97911 33.69082
#
# Velocity S-wave (km/s) = 5.14917 2.87092 4.16870
# Velocity P-wave (km/s) = 7.46664 6.34996 6.93082
#
# Compressibility (1/GPa) = 0.02528641
#
# Stress axis : x y z
#
# Youngs Moduli (GPa) = 42.68310 80.04622 65.42563
#
# Poissons Ratio (x) = 0.62488 0.10741
# Poissons Ratio (y) = 0.33321 0.22973
# Poissons Ratio (z) = 0.07008 0.28107
#
# Static dielectric constant tensor:
#      x y z
#    x 1.744580 0.000000 -0.117420 
#    y 0.000000 1.689180 0.000000 
#    z -0.117420 0.000000 1.891370 
# 
# From -- ./inp_files/259911.got.cif
#   From: 2010.05.17/outbox.cif.g08.bks.cpg/sg15_130_cif.got.tgz:259911.got - 2010.06.03 18:47:42.
