data_PCOD9281587
_publ_section_title
;
Structure prediction by ZEFSAII (Michael W. Deem and Ramdas Pophale) SiO2 
 PCOD9281587
Probable space group: C 2/C
;
_chemical_formula_sum "Si O2"
_cell_formula_units_Z 56
_cell_length_a 27.920561
_cell_length_b 9.144914
_cell_length_c 15.112146
_cell_angle_alpha 90.000000
_cell_angle_beta 46.473078
_cell_angle_gamma 90.000000
_cell_volume 2797.682149
_symmetry_space_group_name_H-M "C 2/C"
_symmetry_group_IT_number 15
_symmetry_cell_setting 'monoclinic'
loop_
_space_group_symop_operation_xyz
x,y,z
-x,y,1/2-z
-x,-y,-z
x,-y,1/2+z
1/2+x,1/2+y,z
1/2-x,1/2+y,1/2-z
1/2-x,1/2-y,-z
1/2+x,1/2-y,1/2+z
loop_
_atom_site_type_symbol
_atom_site_label
_atom_site_fract_x
_atom_site_fract_y
_atom_site_fract_z
Si Si1 0.436034 0.325925 0.890699
Si Si2 0.601104 0.052923 0.683635
Si Si3 0.275561 0.427982 0.857412
Si Si4 0.237843 0.588502 0.604615
Si Si5 0.836914 0.056234 0.101736
Si Si6 0.851342 0.388170 0.029315
Si Si7 0.468493 0.933359 0.454278
O O1 0.500000 0.368942 0.750000
O O2 0.399195 0.199718 0.878149
O O3 0.456930 0.238239 0.953104
O O4 0.389805 0.455681 0.983055
O O5 0.660428 0.069426 0.678374
O O6 0.526927 0.038038 0.810303
O O7 0.617020 0.908706 0.607661
O O8 0.255054 0.257478 0.875618
O O9 0.333876 0.457717 0.712700
O O10 0.277849 0.444625 0.961582
O O11 0.218598 0.534867 0.895428
O O12 0.267338 0.489775 0.644524
O O13 0.848109 0.225218 0.066624
O O14 0.899874 0.484484 0.027207
O O15 0.500000 0.000000 0.500000
#
# Coordination Sequence:
#
# PCOD9281587 Si02
#       7
#     8   8   8   8   8   8   8
#     4   9  20  41  61  85 119 165 203 241 311 364
#     4   9  20  40  65  81 117 164 205 240 298 376
#     4  10  22  39  63  88 123 164 208 239 298 377
#     4  10  21  41  63  88 121 166 199 245 307 363
#     4  12  23  37  64  93 127 156 199 260 305 363
#     4  10  22  38  56  89 120 151 199 253 304 346
#     4  10  21  38  63  85 112 160 210 247 291 366
#
# _framework density 20.016569
#
# number of rings (size 3 to 8) (size 9 to 14) (size 15 to 20)
#    0.000    2.000    0.000    5.571    4.000    3.429 
#    2.571    0.714    0.000    0.000    0.000    0.000 
#    0.000    0.000    0.000    0.000    0.000    0.000 
#
# Total GULP energy -155982.350166 kJ/mol
# GULP energy per Si atom -5570.798220 kJ/mol
# Density = 1.997101 g / cm^3
# Si number density = 20.016569 Si / 1000 Ang^3
#
#
#
# Elastic Constant Matrix: (Units=GPa)
#
#
# Indices 1 2 3 4 5 6 
#
# 1 41.0406 16.2832 20.2243 0.0000 5.5604 0.0000
# 2 16.2832 49.9175 36.7324 0.0001 12.3501 0.0000
# 3 20.2243 36.7324 95.4669 0.0000 13.6229 0.0000
# 4 0.0000 0.0001 0.0000 10.0473 0.0000 -1.6591
# 5 5.5604 12.3501 13.6229 0.0000 19.4162 0.0000
# 6 0.0000 0.0000 0.0000 -1.6591 0.0000 25.6095
#
#
#
# Elastic Compliance Matrix: (Units=1/GPa)
#
#
# Indices 1 2 3 4 5 6 
#
# 1 0.028839 -0.006500 -0.003356 0.000000 -0.001770 0.000000
# 2 -0.006500 0.031867 -0.009176 0.000000 -0.011970 0.000000
# 3 -0.003356 -0.009176 0.015276 0.000000 -0.003920 0.000000
# 4 0.000000 0.000000 0.000000 0.100605 0.000000 0.006517
# 5 -0.001770 -0.011970 -0.003920 0.000000 0.062374 0.000000
# 6 0.000000 0.000000 0.000000 0.006517 0.000000 0.039470
#
#
# Mechanical properties :
#
#
# Convention : Reuss Voigt Hill
#
# Bulk Modulus (GPa) = 26.37302 36.98941 31.68122
# Shear Modulus (GPa) = 15.19132 18.56028 16.87580
#
# Velocity S-wave (km/s) = 2.75787 3.04837 2.90675
# Velocity P-wave (km/s) = 4.83170 5.55964 5.20840
#
# Compressibility (1/GPa) = 0.03791754
#
# Stress axis : x y z
#
# Youngs Moduli (GPa) = 34.67581 31.37997 65.46258
#
# Poissons Ratio (x) = 0.20397 0.21968
# Poissons Ratio (y) = 0.22539 0.60071
# Poissons Ratio (z) = 0.11637 0.28796
#
# Static dielectric constant tensor:
#      x y z
#    x 1.742760 0.000000 -0.044070 
#    y 0.000000 1.664810 0.000000 
#    z -0.044070 0.000000 1.538160 
# 
# From -- ./inp_files/180750.got.cif
#   From: 2010.05.17/outbox.cif.g08.bks.cpg/sg15_91_cif.got.tgz:180750.got - 2010.06.03 18:47:42.
