data_PCOD9281204
_publ_section_title
;
Structure prediction by ZEFSAII (Michael W. Deem and Ramdas Pophale) SiO2 
 PCOD9281204
Probable space group: C 2/C
;
_chemical_formula_sum "Si O2"
_cell_formula_units_Z 48
_cell_length_a 14.393515
_cell_length_b 7.759140
_cell_length_c 27.909846
_cell_angle_alpha 90.000000
_cell_angle_beta 40.599082
_cell_angle_gamma 90.000000
_cell_volume 2028.430410
_symmetry_space_group_name_H-M "C 2/C"
_symmetry_group_IT_number 15
_symmetry_cell_setting 'monoclinic'
loop_
_space_group_symop_operation_xyz
x,y,z
-x,y,1/2-z
-x,-y,-z
x,-y,1/2+z
1/2+x,1/2+y,z
1/2-x,1/2+y,1/2-z
1/2-x,1/2-y,-z
1/2+x,1/2-y,1/2+z
loop_
_atom_site_type_symbol
_atom_site_label
_atom_site_fract_x
_atom_site_fract_y
_atom_site_fract_z
Si Si1 0.188572 0.115922 0.846681
Si Si2 0.736442 0.735816 0.083393
Si Si3 0.043653 0.091548 0.680398
Si Si4 0.417101 0.753933 0.929749
Si Si5 0.232974 0.477322 0.775748
Si Si6 0.529693 0.863327 0.079106
O O1 0.248774 0.146515 0.875489
O O2 0.197107 0.295259 0.813384
O O3 0.276819 0.989387 0.778019
O O4 0.014722 0.100671 0.913850
O O5 0.672028 0.548935 0.125516
O O6 0.625515 0.807980 0.087339
O O7 0.891442 0.724201 0.996826
O O8 0.064864 0.244056 0.634659
O O9 0.000000 0.148694 0.750000
O O10 0.899846 0.998154 0.719632
O O11 0.452121 0.935161 0.939426
O O12 0.250000 0.750000 0.000000
O O13 0.135419 0.626646 0.838889
#
# Coordination Sequence:
#
# PCOD9281204 Si02
#       6
#     8   8   8   8   8   8
#     4  10  22  39  63  88 120 160 201 251 301 361
#     4  11  22  41  65  90 117 163 209 247 303 357
#     4  11  21  37  64  88 118 160 202 243 300 362
#     4  10  21  41  59  85 127 158 196 252 301 359
#     4  10  21  38  59  91 120 156 197 252 299 359
#     4  10  23  39  62  89 125 156 203 254 300 357
#
# _framework density 23.663616999999999
#
# number of rings (size 3 to 8) (size 9 to 14) (size 15 to 20)
#    0.000    1.667    3.333    1.000    0.000    4.000 
#    9.000    0.833    0.000    0.000    0.000    0.000 
#    0.000    0.000    0.000    0.000    0.000    0.000 
#
# Total GULP energy -133752.941419 kJ/mol
# GULP energy per Si atom -5573.039226 kJ/mol
# Density = 2.360976 g / cm^3
# Si number density = 23.663617 Si / 1000 Ang^3
#
#
#
# Elastic Constant Matrix: (Units=GPa)
#
#
# Indices 1 2 3 4 5 6 
#
# 1 56.7737 -7.3332 40.7711 -0.0002 22.9008 -0.0010
# 2 -7.3332 27.1287 22.6918 -0.0020 -7.5178 -0.0029
# 3 40.7711 22.6918 127.4601 0.0001 -1.3202 -0.0005
# 4 -0.0002 -0.0020 0.0001 28.0956 0.0000 -1.2617
# 5 22.9008 -7.5178 -1.3202 0.0000 42.5856 -0.0002
# 6 -0.0010 -0.0029 -0.0005 -1.2617 -0.0002 21.4578
#
#
#
# Elastic Compliance Matrix: (Units=1/GPa)
#
#
# Indices 1 2 3 4 5 6 
#
# 1 0.038747 0.018806 -0.015929 0.000002 -0.018010 0.000004
# 2 0.018806 0.054909 -0.015801 0.000004 -0.000910 0.000008
# 3 -0.015929 -0.015801 0.015819 -0.000001 0.006267 -0.000002
# 4 0.000002 0.000004 -0.000001 0.035687 0.000000 0.002098
# 5 -0.018010 -0.000910 0.006267 0.000000 0.033201 0.000000
# 6 0.000004 0.000008 -0.000002 0.002098 0.000000 0.046726
#
#
# Mechanical properties :
#
#
# Convention : Reuss Voigt Hill
#
# Bulk Modulus (GPa) = 11.95766 35.95798 23.95782
# Shear Modulus (GPa) = 17.93332 28.77666 23.35499
#
# Velocity S-wave (km/s) = 2.75588 3.49101 3.14500
# Velocity P-wave (km/s) = 3.89752 5.61052 4.83056
#
# Compressibility (1/GPa) = 0.08362838
#
# Stress axis : x y z
#
# Youngs Moduli (GPa) = 25.80877 18.21191 63.21666
#
# Poissons Ratio (x) = -0.34250 1.00695
# Poissons Ratio (y) = -0.48536 0.99886
# Poissons Ratio (z) = 0.41110 0.28776
#
# Static dielectric constant tensor:
#      x y z
#    x 1.975870 0.000000 -0.092130 
#    y 0.000000 1.928080 0.000000 
#    z -0.092130 0.000000 2.144540 
# 
# From -- ./inp_files/242595.got.cif
#   From: 2010.05.17/outbox.cif.g08.bks.cpg/sg15_122_cif.got.tgz:242595.got - 2010.06.03 18:47:42.
