data_PCOD9281465
_publ_section_title
;
Structure prediction by ZEFSAII (Michael W. Deem and Ramdas Pophale) SiO2 
 PCOD9281465
Probable space group: C 2/C
;
_chemical_formula_sum "Si O2"
_cell_formula_units_Z 56
_cell_length_a 21.380814
_cell_length_b 18.725449
_cell_length_c 15.985588
_cell_angle_alpha 90.000000
_cell_angle_beta 153.256943
_cell_angle_gamma 90.000000
_cell_volume 2879.971393
_symmetry_space_group_name_H-M "C 2/C"
_symmetry_group_IT_number 15
_symmetry_cell_setting 'monoclinic'
loop_
_space_group_symop_operation_xyz
x,y,z
-x,y,1/2-z
-x,-y,-z
x,-y,1/2+z
1/2+x,1/2+y,z
1/2-x,1/2+y,1/2-z
1/2-x,1/2-y,-z
1/2+x,1/2-y,1/2+z
loop_
_atom_site_type_symbol
_atom_site_label
_atom_site_fract_x
_atom_site_fract_y
_atom_site_fract_z
Si Si1 0.238101 0.746474 0.174361
Si Si2 0.606515 0.002929 0.452528
Si Si3 0.321302 0.476560 0.432049
Si Si4 0.560736 0.276211 0.735161
Si Si5 0.367798 0.440432 0.677680
Si Si6 0.374309 0.128638 0.907861
Si Si7 0.351236 0.901151 0.858066
O O1 0.320889 0.756790 0.184292
O O2 0.321390 0.790823 0.342750
O O3 0.219154 0.663680 0.175467
O O4 0.082734 0.777681 0.986734
O O5 0.500000 0.999737 0.250000
O O6 0.748843 0.965011 0.597239
O O7 0.561333 0.954500 0.476997
O O8 0.631203 0.082692 0.514475
O O9 0.323566 0.472840 0.535333
O O10 0.484610 0.465774 0.609623
O O11 0.227014 0.414596 0.277710
O O12 0.259534 0.549668 0.321958
O O13 0.500000 0.242592 0.750000
O O14 0.615359 0.355792 0.817657
O O15 0.532367 0.128301 0.065115
#
# Coordination Sequence:
#
# PCOD9281465 Si02
#       7
#     8   8   8   8   8   8   8
#     4  12  24  40  61  88 127 169 205 242 316 370
#     4  11  23  38  64  91 116 160 210 257 307 363
#     4  10  21  38  62  87 124 158 199 256 309 359
#     4  12  23  40  60  93 130 164 199 255 307 377
#     4  11  20  38  63  93 119 154 205 260 312 356
#     4  11  22  41  60  86 127 165 200 256 302 371
#     4  11  23  39  61  89 123 163 203 251 310 364
#
# _framework density 19.444638000000001
#
# number of rings (size 3 to 8) (size 9 to 14) (size 15 to 20)
#    0.000    0.857    5.714    3.857    0.000    4.000 
#    0.000    0.000    3.143    1.714    0.000    0.000 
#    0.000    0.000    0.000    0.000    0.000    0.000 
#
# Total GULP energy -156255.859454 kJ/mol
# GULP energy per Si atom -5580.566409 kJ/mol
# Density = 1.940038 g / cm^3
# Si number density = 19.444638 Si / 1000 Ang^3
#
#
#
# Elastic Constant Matrix: (Units=GPa)
#
#
# Indices 1 2 3 4 5 6 
#
# 1 66.0852 20.8753 24.0400 0.0000 15.8815 0.0000
# 2 20.8753 92.6852 32.8282 0.0000 -12.0912 0.0000
# 3 24.0400 32.8282 96.6127 0.0000 3.0393 0.0000
# 4 0.0000 0.0000 0.0000 14.6276 0.0000 5.3591
# 5 15.8815 -12.0912 3.0393 0.0000 28.4142 0.0000
# 6 0.0000 0.0000 0.0000 5.3591 0.0000 19.4691
#
#
#
# Elastic Compliance Matrix: (Units=1/GPa)
#
#
# Indices 1 2 3 4 5 6 
#
# 1 0.021334 -0.005575 -0.002974 0.000000 -0.013979 0.000000
# 2 -0.005575 0.014711 -0.003920 0.000000 0.009795 0.000000
# 3 -0.002974 -0.003920 0.012465 0.000000 -0.001339 0.000000
# 4 0.000000 0.000000 0.000000 0.076032 0.000000 -0.020929
# 5 -0.013979 0.009795 -0.001339 0.000000 0.047318 0.000000
# 6 0.000000 0.000000 0.000000 -0.020929 0.000000 0.057124
#
#
# Mechanical properties :
#
#
# Convention : Reuss Voigt Hill
#
# Bulk Modulus (GPa) = 42.42367 45.65223 44.03795
# Shear Modulus (GPa) = 19.10000 24.34482 21.72241
#
# Velocity S-wave (km/s) = 3.13753 3.54221 3.34599
# Velocity P-wave (km/s) = 5.91528 6.34497 6.13389
#
# Compressibility (1/GPa) = 0.02357174
#
# Stress axis : x y z
#
# Youngs Moduli (GPa) = 46.87258 67.97623 80.22657
#
# Poissons Ratio (x) = 0.37898 0.23863
# Poissons Ratio (y) = 0.26132 0.31446
# Poissons Ratio (z) = 0.13942 0.26644
#
# Static dielectric constant tensor:
#      x y z
#    x 1.741430 0.000000 0.003370 
#    y 0.000000 1.683470 0.000000 
#    z 0.003370 0.000000 1.668200 
# 
# From -- ./inp_files/169162.got.cif
#   From: 2010.05.17/outbox.cif.g08.bks.cpg/sg15_85_cif.got.tgz:169162.got - 2010.06.03 18:47:42.
