data_PCOD9281992
_publ_section_title
;
Structure prediction by ZEFSAII (Michael W. Deem and Ramdas Pophale) SiO2 
 PCOD9281992
Probable space group: C 2/C
;
_chemical_formula_sum "Si O2"
_cell_formula_units_Z 64
_cell_length_a 9.273362
_cell_length_b 19.203355
_cell_length_c 29.899567
_cell_angle_alpha 90.000000
_cell_angle_beta 34.099993
_cell_angle_gamma 90.000000
_cell_volume 2985.124480
_symmetry_space_group_name_H-M "C 2/C"
_symmetry_group_IT_number 15
_symmetry_cell_setting 'monoclinic'
loop_
_space_group_symop_operation_xyz
x,y,z
-x,y,1/2-z
-x,-y,-z
x,-y,1/2+z
1/2+x,1/2+y,z
1/2-x,1/2+y,1/2-z
1/2-x,1/2-y,-z
1/2+x,1/2-y,1/2+z
loop_
_atom_site_type_symbol
_atom_site_label
_atom_site_fract_x
_atom_site_fract_y
_atom_site_fract_z
Si Si1 0.794541 0.653799 0.660590
Si Si2 0.256521 0.356490 0.431261
Si Si3 0.290155 0.459385 0.159730
Si Si4 0.425989 0.266232 0.696557
Si Si5 0.434945 0.983060 0.373253
Si Si6 0.047624 0.417291 0.912560
Si Si7 0.916345 0.263417 0.629607
Si Si8 0.110676 0.932742 0.794249
O O1 0.500000 0.642089 0.750000
O O2 0.813984 0.653324 0.602115
O O3 0.878152 0.725060 0.663415
O O4 0.953942 0.590705 0.640488
O O5 0.512512 0.402667 0.372574
O O6 0.329253 0.282811 0.435076
O O7 0.041119 0.395514 0.515343
O O8 0.366905 0.531540 0.163438
O O9 0.000000 0.440559 0.250000
O O10 0.273912 0.469039 0.111001
O O11 0.707240 0.248811 0.644478
O O12 0.223823 0.245922 0.787318
O O13 0.388435 0.349329 0.702225
O O14 0.369328 0.026591 0.434277
O O15 0.658691 0.031011 0.292538
O O16 0.042087 0.345969 0.885525
O O17 0.335211 0.447883 0.842361
#
# Coordination Sequence:
#
# PCOD9281992 Si02
#       8
#     8   8   8   8   8   8   8   8
#     4  12  23  37  61  94 123 160 209 259 306 367
#     4  12  25  40  61  94 131 166 204 255 312 374
#     4  10  23  39  62  90 126 162 210 265 306 358
#     4  10  21  38  67  92 118 159 210 262 310 359
#     4  11  22  40  64  92 126 164 215 260 305 363
#     4  11  23  41  64  91 129 170 204 250 316 376
#     4  10  21  40  62  90 122 161 208 257 307 373
#     4  10  21  41  64  94 123 162 211 259 312 364
#
# _framework density 21.439643
#
# number of rings (size 3 to 8) (size 9 to 14) (size 15 to 20)
#    0.000    1.250    2.500    4.500    1.750    5.000 
#    0.000    3.750    0.000    0.000    0.000    0.000 
#    0.000    0.000    0.000    0.000    0.000    0.000 
#
# Total GULP energy -178920.370045 kJ/mol
# GULP energy per Si atom -5591.261564 kJ/mol
# Density = 2.139085 g / cm^3
# Si number density = 21.439643 Si / 1000 Ang^3
#
#
#
# Elastic Constant Matrix: (Units=GPa)
#
#
# Indices 1 2 3 4 5 6 
#
# 1 144.7338 63.4664 25.9553 0.0466 27.3749 0.0414
# 2 63.4664 72.6475 16.5920 0.0260 10.9220 0.0286
# 3 25.9553 16.5920 44.1162 -0.0408 7.4419 0.0934
# 4 0.0466 0.0260 -0.0408 15.3774 0.0504 -0.8197
# 5 27.3749 10.9220 7.4419 0.0504 32.8377 -0.0336
# 6 0.0414 0.0286 0.0934 -0.8197 -0.0336 27.2441
#
#
#
# Elastic Compliance Matrix: (Units=1/GPa)
#
#
# Indices 1 2 3 4 5 6 
#
# 1 0.012952 -0.009623 -0.002827 -0.000008 -0.006956 -0.000009
# 2 -0.009623 0.022698 -0.003072 -0.000021 0.001169 0.000002
# 3 -0.002827 -0.003072 0.025907 0.000086 -0.002493 -0.000082
# 4 -0.000008 -0.000021 0.000086 0.065135 -0.000104 0.001959
# 5 -0.006956 0.001169 -0.002493 -0.000104 0.036427 0.000060
# 6 -0.000009 0.000002 -0.000082 0.001959 0.000060 0.036764
#
#
# Mechanical properties :
#
#
# Convention : Reuss Voigt Hill
#
# Bulk Modulus (GPa) = 32.77497 52.61386 42.69441
# Shear Modulus (GPa) = 20.73822 25.45744 23.09783
#
# Velocity S-wave (km/s) = 3.11349 3.44961 3.28585
# Velocity P-wave (km/s) = 5.31464 6.36083 5.86112
#
# Compressibility (1/GPa) = 0.03051109
#
# Stress axis : x y z
#
# Youngs Moduli (GPa) = 77.20938 44.05622 38.59958
#
# Poissons Ratio (x) = 0.42397 0.10913
# Poissons Ratio (y) = 0.74302 0.11859
# Poissons Ratio (z) = 0.21830 0.13535
#
# Static dielectric constant tensor:
#      x y z
#    x 1.764620 -0.000010 0.011750 
#    y -0.000010 1.791810 -0.000010 
#    z 0.011750 -0.000010 1.840230 
# 
# From -- ./inp_files/308768.got.cif
#   From: 2010.05.17/outbox.cif.g08.bks.cpg/sg15_155_cif.got.tgz:308768.got - 2010.06.03 18:47:42.
