data_PCOD9282730
_publ_section_title
;
Structure prediction by ZEFSAII (Michael W. Deem and Ramdas Pophale) SiO2 
 PCOD9282730
Probable space group: C 2/C
;
_chemical_formula_sum "Si O2"
_cell_formula_units_Z 44
_cell_length_a 12.464330
_cell_length_b 7.990152
_cell_length_c 25.401165
_cell_angle_alpha 90.000000
_cell_angle_beta 43.539079
_cell_angle_gamma 90.000000
_cell_volume 1742.616212
_symmetry_space_group_name_H-M "C 2/C"
_symmetry_group_IT_number 15
_symmetry_cell_setting 'monoclinic'
loop_
_space_group_symop_operation_xyz
x,y,z
-x,y,1/2-z
-x,-y,-z
x,-y,1/2+z
1/2+x,1/2+y,z
1/2-x,1/2+y,1/2-z
1/2-x,1/2-y,-z
1/2+x,1/2-y,1/2+z
loop_
_atom_site_type_symbol
_atom_site_label
_atom_site_fract_x
_atom_site_fract_y
_atom_site_fract_z
Si Si1 0.000000 0.715447 0.250000
Si Si2 0.187030 0.821034 0.337830
Si Si3 0.275591 0.934834 0.202036
Si Si4 0.830617 0.078333 0.951397
Si Si5 0.754303 0.482987 0.910910
Si Si6 0.615273 0.858155 0.439068
O O1 0.121846 0.833865 0.237989
O O2 0.097854 0.609299 0.170910
O O3 0.294133 0.915039 0.257254
O O4 0.213278 0.628129 0.316319
O O5 0.014159 0.892487 0.388962
O O6 0.226531 0.861481 0.383265
O O7 0.399001 0.854080 0.118715
O O8 0.771993 0.067406 0.912202
O O9 0.750000 0.250000 0.000000
O O10 0.759189 0.963577 0.023243
O O11 0.620987 0.337711 0.951986
O O12 0.500000 0.000000 0.500000
#
# Coordination Sequence:
#
# PCOD9282730 Si02
#       6
#     4   8   8   8   8   8
#     4  10  22  42  62  92 132 172 212 272 328 384
#     4  12  24  40  65  95 127 174 220 270 324 388
#     4  11  22  39  61  89 126 166 217 266 322 383
#     4  10  21  40  65  89 127 168 210 265 322 379
#     4  10  22  41  65  93 130 172 215 263 325 390
#     4  10  21  39  64  90 124 169 210 265 324 381
#
# _framework density 25.249393000000001
#
# number of rings (size 3 to 8) (size 9 to 14) (size 15 to 20)
#    0.000    1.455    0.000    8.182    0.000    2.182 
#    0.000    5.455    0.000    0.000    0.000    1.273 
#    0.000    0.000    0.000    0.000    0.000    0.000 
#
# Total GULP energy -122700.548325 kJ/mol
# GULP energy per Si atom -5577.297651 kJ/mol
# Density = 2.519192 g / cm^3
# Si number density = 25.249393 Si / 1000 Ang^3
#
#
#
# Elastic Constant Matrix: (Units=GPa)
#
#
# Indices 1 2 3 4 5 6 
#
# 1 46.7088 4.7727 18.5543 0.0000 1.7336 -0.0001
# 2 4.7727 74.7549 -0.6198 0.0000 2.1106 -0.0001
# 3 18.5543 -0.6198 128.4545 0.0000 27.0063 0.0000
# 4 0.0000 0.0000 0.0000 41.5825 0.0000 7.0583
# 5 1.7336 2.1106 27.0063 0.0000 49.7173 0.0000
# 6 -0.0001 -0.0001 0.0000 7.0583 0.0000 33.0945
#
#
#
# Elastic Compliance Matrix: (Units=1/GPa)
#
#
# Indices 1 2 3 4 5 6 
#
# 1 0.022941 -0.001528 -0.003575 0.000000 0.001207 0.000000
# 2 -0.001528 0.013500 0.000446 0.000000 -0.000762 0.000000
# 3 -0.003575 0.000446 0.009349 0.000000 -0.004973 0.000000
# 4 0.000000 0.000000 0.000000 0.024952 0.000000 -0.005322
# 5 0.001207 -0.000762 -0.004973 0.000000 0.022805 0.000000
# 6 0.000000 0.000000 0.000000 -0.005322 0.000000 0.031351
#
#
# Mechanical properties :
#
#
# Convention : Reuss Voigt Hill
#
# Bulk Modulus (GPa) = 27.41572 32.81473 30.11523
# Shear Modulus (GPa) = 34.16005 40.02628 37.09317
#
# Velocity S-wave (km/s) = 3.68218 3.98582 3.83701
# Velocity P-wave (km/s) = 5.38140 5.84866 5.61989
#
# Compressibility (1/GPa) = 0.03647542
#
# Stress axis : x y z
#
# Youngs Moduli (GPa) = 43.59087 74.07489 106.96603
#
# Poissons Ratio (x) = 0.11321 0.38237
# Poissons Ratio (y) = 0.06662 -0.04772
# Poissons Ratio (z) = 0.15582 -0.03305
#
# Static dielectric constant tensor:
#      x y z
#    x 2.081890 0.000000 0.190200 
#    y 0.000000 1.962710 0.000000 
#    z 0.190200 0.000000 1.717590 
# 
# From -- ./inp_files/295008.got.cif
#   From: 2010.05.17/outbox.cif.g08.bks.cpg/sg15_148_cif.got.tgz:295008.got - 2010.06.03 18:47:42.
