data_PCOD9282085
_publ_section_title
;
Structure prediction by ZEFSAII (Michael W. Deem and Ramdas Pophale) SiO2 
 PCOD9282085
Probable space group: C 2/C
;
_chemical_formula_sum "Si O2"
_cell_formula_units_Z 48
_cell_length_a 26.340503
_cell_length_b 9.378419
_cell_length_c 13.990266
_cell_angle_alpha 90.000000
_cell_angle_beta 39.631904
_cell_angle_gamma 90.000000
_cell_volume 2204.449866
_symmetry_space_group_name_H-M "C 2/C"
_symmetry_group_IT_number 15
_symmetry_cell_setting 'monoclinic'
loop_
_space_group_symop_operation_xyz
x,y,z
-x,y,1/2-z
-x,-y,-z
x,-y,1/2+z
1/2+x,1/2+y,z
1/2-x,1/2+y,1/2-z
1/2-x,1/2-y,-z
1/2+x,1/2-y,1/2+z
loop_
_atom_site_type_symbol
_atom_site_label
_atom_site_fract_x
_atom_site_fract_y
_atom_site_fract_z
Si Si1 0.462436 0.642896 0.101979
Si Si2 0.191116 0.739292 0.776340
Si Si3 0.385120 0.251643 0.172713
Si Si4 0.582111 0.576799 0.686865
Si Si5 0.246514 0.540039 0.849176
Si Si6 0.241822 0.477923 0.585364
O O1 0.394457 0.707617 0.134593
O O2 0.425317 0.579152 0.252057
O O3 0.500000 0.500000 0.000000
O O4 0.535046 0.753491 0.005196
O O5 0.187328 0.640327 0.875825
O O6 0.227925 0.636453 0.642154
O O7 0.245489 0.880483 0.701141
O O8 0.411343 0.303773 0.240325
O O9 0.330404 0.378925 0.211500
O O10 0.328498 0.117808 0.269219
O O11 0.500000 0.598294 0.750000
O O12 0.669531 0.573609 0.512588
O O13 0.236479 0.536709 0.978067
#
# Coordination Sequence:
#
# PCOD9282085 Si02
#       6
#     8   8   8   8   8   8
#     4  10  21  41  65  97 136 175 228 282 338 415
#     4  12  24  42  71  98 136 183 230 287 346 412
#     4  10  22  40  64  97 140 171 227 283 338 413
#     4  10  21  38  70  98 129 183 229 279 342 412
#     4  11  23  41  67 100 131 179 231 282 339 412
#     4  11  24  43  66 103 141 175 234 288 348 415
#
# _framework density 21.774139999999999
#
# number of rings (size 3 to 8) (size 9 to 14) (size 15 to 20)
#    0.000    1.333    5.000    3.500    2.333    6.000 
#    0.000    0.000    0.000    1.000    0.000    0.000 
#    0.000    0.000    0.000    0.000    0.000    0.000 
#
# Total GULP energy -134062.112573 kJ/mol
# GULP energy per Si atom -5585.921357 kJ/mol
# Density = 2.172458 g / cm^3
# Si number density = 21.774140 Si / 1000 Ang^3
#
#
#
# Elastic Constant Matrix: (Units=GPa)
#
#
# Indices 1 2 3 4 5 6 
#
# 1 133.7700 48.5306 21.5018 0.0000 -13.6597 0.0000
# 2 48.5306 130.1468 31.5880 0.0002 -5.1392 -0.0001
# 3 21.5018 31.5880 70.6140 0.0001 -15.5973 0.0000
# 4 0.0000 0.0002 0.0001 39.4039 0.0000 2.4707
# 5 -13.6597 -5.1392 -15.5973 0.0000 32.2755 0.0000
# 6 0.0000 -0.0001 0.0000 2.4707 0.0000 41.3488
#
#
#
# Elastic Compliance Matrix: (Units=1/GPa)
#
#
# Indices 1 2 3 4 5 6 
#
# 1 0.009007 -0.003068 -0.000712 0.000000 0.002979 0.000000
# 2 -0.003068 0.009673 -0.003739 0.000000 -0.001565 0.000000
# 3 -0.000712 -0.003739 0.017747 0.000000 0.007680 0.000000
# 4 0.000000 0.000000 0.000000 0.025474 0.000000 -0.001522
# 5 0.002979 -0.001565 0.007680 0.000000 0.035706 0.000000
# 6 0.000000 0.000000 0.000000 -0.001522 0.000000 0.024275
#
#
# Mechanical properties :
#
#
# Convention : Reuss Voigt Hill
#
# Bulk Modulus (GPa) = 46.75125 59.75241 53.25183
# Shear Modulus (GPa) = 34.70993 38.13300 36.42146
#
# Velocity S-wave (km/s) = 3.99694 4.18939 4.09429
# Velocity P-wave (km/s) = 6.54357 7.13462 6.84548
#
# Compressibility (1/GPa) = 0.02138980
#
# Stress axis : x y z
#
# Youngs Moduli (GPa) = 111.02028 103.37658 56.34751
#
# Poissons Ratio (x) = 0.31719 0.04012
# Poissons Ratio (y) = 0.34064 0.21066
# Poissons Ratio (z) = 0.07905 0.38648
#
# Static dielectric constant tensor:
#      x y z
#    x 1.854340 0.000000 0.014070 
#    y 0.000000 1.805250 0.000000 
#    z 0.014070 0.000000 1.864890 
# 
# From -- ./inp_files/176878.got.cif
#   From: 2010.05.17/outbox.cif.g08.bks.cpg/sg15_89_cif.got.tgz:176878.got - 2010.06.03 18:47:42.
