data_PCOD9282330
_publ_section_title
;
Structure prediction by ZEFSAII (Michael W. Deem and Ramdas Pophale) SiO2 
 PCOD9282330
Probable space group: C 2/C
;
_chemical_formula_sum "Si O2"
_cell_formula_units_Z 44
_cell_length_a 12.413336
_cell_length_b 21.871026
_cell_length_c 7.425923
_cell_angle_alpha 90.000000
_cell_angle_beta 109.465584
_cell_angle_gamma 90.000000
_cell_volume 1900.846079
_symmetry_space_group_name_H-M "C 2/C"
_symmetry_group_IT_number 15
_symmetry_cell_setting 'monoclinic'
loop_
_space_group_symop_operation_xyz
x,y,z
-x,y,1/2-z
-x,-y,-z
x,-y,1/2+z
1/2+x,1/2+y,z
1/2-x,1/2+y,1/2-z
1/2-x,1/2-y,-z
1/2+x,1/2-y,1/2+z
loop_
_atom_site_type_symbol
_atom_site_label
_atom_site_fract_x
_atom_site_fract_y
_atom_site_fract_z
Si Si1 0.278598 0.593400 0.966864
Si Si2 0.500000 0.731893 0.750000
Si Si3 0.766082 0.463333 0.443422
Si Si4 0.500000 0.359878 0.750000
Si Si5 0.000000 0.434843 0.750000
Si Si6 0.330242 0.654374 0.459295
Si Si7 0.382373 0.168383 0.384437
O O1 0.236358 0.570397 0.749940
O O2 0.269675 0.533428 0.088759
O O3 0.412856 0.608355 0.059445
O O4 0.198516 0.649030 0.994296
O O5 0.390951 0.689209 0.653694
O O6 0.534346 0.774374 0.597689
O O7 0.683448 0.418035 0.511115
O O8 0.889838 0.467248 0.607607
O O9 0.591364 0.330148 0.668407
O O10 0.043000 0.391263 0.613769
O O11 0.203536 0.674702 0.334652
#
# Coordination Sequence:
#
# PCOD9282330 Si02
#       7
#     8   4   8   4   4   8   8
#     4  11  23  39  61  92 126 162 210 252 306 375
#     4  11  20  39  66  88 124 165 204 261 308 357
#     4  11  23  39  64  93 123 163 206 256 310 370
#     4  10  22  41  60  86 128 163 202 258 306 362
#     4   9  20  40  60  86 124 160 200 255 312 361
#     4  10  21  39  61  88 120 160 209 253 307 366
#     4   9  21  39  59  88 122 161 205 252 304 367
#
# _framework density 23.147587000000001
#
# number of rings (size 3 to 8) (size 9 to 14) (size 15 to 20)
#    0.000    1.818    0.000    4.909    0.000    7.273 
#    0.000   13.636    0.000    0.000    0.000    0.000 
#    0.000    0.000    0.000    0.000    0.000    0.000 
#
# Total GULP energy -122611.794350 kJ/mol
# GULP energy per Si atom -5573.263380 kJ/mol
# Density = 2.309490 g / cm^3
# Si number density = 23.147587 Si / 1000 Ang^3
#
#
#
# Elastic Constant Matrix: (Units=GPa)
#
#
# Indices 1 2 3 4 5 6 
#
# 1 85.1372 18.9416 -1.0641 0.0000 6.7252 0.0000
# 2 18.9416 63.6514 14.8741 0.0000 5.1804 0.0000
# 3 -1.0641 14.8741 77.2495 0.0000 -5.1418 0.0000
# 4 0.0000 0.0000 0.0000 2.9725 0.0000 2.9037
# 5 6.7252 5.1804 -5.1418 0.0000 27.9287 0.0000
# 6 0.0000 0.0000 0.0000 2.9037 0.0000 24.3088
#
#
#
# Elastic Compliance Matrix: (Units=1/GPa)
#
#
# Indices 1 2 3 4 5 6 
#
# 1 0.012776 -0.003798 0.000759 0.000000 -0.002233 0.000000
# 2 -0.003798 0.017962 -0.003717 0.000000 -0.003102 0.000000
# 3 0.000759 -0.003717 0.013875 0.000000 0.003061 0.000000
# 4 0.000000 0.000000 0.000000 0.380856 0.000000 -0.045493
# 5 -0.002233 -0.003102 0.003061 0.000000 0.037482 0.000000
# 6 0.000000 0.000000 0.000000 -0.045493 0.000000 0.046572
#
#
# Mechanical properties :
#
#
# Convention : Reuss Voigt Hill
#
# Bulk Modulus (GPa) = 32.15358 32.39350 32.27354
# Shear Modulus (GPa) = 9.37380 23.92776 16.65078
#
# Velocity S-wave (km/s) = 2.01454 3.21862 2.68494
# Velocity P-wave (km/s) = 4.39682 5.27611 4.85641
#
# Compressibility (1/GPa) = 0.03110074
#
# Stress axis : x y z
#
# Youngs Moduli (GPa) = 78.26875 55.67386 72.07200
#
# Poissons Ratio (x) = 0.21143 -0.05468
# Poissons Ratio (y) = 0.29724 0.26791
# Poissons Ratio (z) = -0.05938 0.20695
#
# Static dielectric constant tensor:
#      x y z
#    x 1.857160 0.000000 -0.044490 
#    y 0.000000 1.873710 0.000000 
#    z -0.044490 0.000000 1.946700 
# 
# From -- ./inp_files/31064.got.cif
#   From: 2010.05.17/outbox.cif.g08.bks.cpg/sg15_16_cif.got.tgz:31064.got - 2010.06.03 18:47:42.
