data_PCOD9282455
_publ_section_title
;
Structure prediction by ZEFSAII (Michael W. Deem and Ramdas Pophale) SiO2 
 PCOD9282455
Probable space group: C 2/C
;
_chemical_formula_sum "Si O2"
_cell_formula_units_Z 40
_cell_length_a 8.041361
_cell_length_b 14.888963
_cell_length_c 16.240100
_cell_angle_alpha 90.000000
_cell_angle_beta 63.258107
_cell_angle_gamma 90.000000
_cell_volume 1736.420463
_symmetry_space_group_name_H-M "C 2/C"
_symmetry_group_IT_number 15
_symmetry_cell_setting 'monoclinic'
loop_
_space_group_symop_operation_xyz
x,y,z
-x,y,1/2-z
-x,-y,-z
x,-y,1/2+z
1/2+x,1/2+y,z
1/2-x,1/2+y,1/2-z
1/2-x,1/2-y,-z
1/2+x,1/2-y,1/2+z
loop_
_atom_site_type_symbol
_atom_site_label
_atom_site_fract_x
_atom_site_fract_y
_atom_site_fract_z
Si Si1 0.329541 0.652543 0.464919
Si Si2 0.265663 0.170022 0.367946
Si Si3 0.458967 0.645774 0.854434
Si Si4 0.824750 0.474649 0.982605
Si Si5 0.718263 0.719772 0.195125
O O1 0.250000 0.750000 0.500000
O O2 0.548138 0.653174 0.429096
O O3 0.242377 0.571130 0.533647
O O4 0.282375 0.647381 0.377940
O O5 0.318280 0.269319 0.386048
O O6 0.365294 0.095024 0.400500
O O7 0.288598 0.175243 0.264444
O O8 0.500000 0.620365 0.750000
O O9 0.348037 0.568221 0.926780
O O10 0.647281 0.693717 0.846580
O O11 0.000000 0.500000 0.000000
O O12 0.500000 0.747683 0.250000
#
# Coordination Sequence:
#
# PCOD9282455 Si02
#       5
#     8   8   8   8   8
#     4  11  22  39  62  91 127 170 219 274 333 402
#     4  10  21  39  62  90 126 169 217 274 336 399
#     4  10  21  40  64  93 129 173 222 278 338 405
#     4  12  24  39  64  98 133 177 225 277 338 407
#     4   9  20  39  65  92 128 177 224 279 344 403
#
# _framework density 23.035896999999999
#
# number of rings (size 3 to 8) (size 9 to 14) (size 15 to 20)
#    0.000    1.600    0.000    4.800    0.000    2.400 
#    0.000    2.000    0.000    8.400    0.000    0.000 
#    0.000    0.000    0.000    0.000    0.000    0.000 
#
# Total GULP energy -111771.864494 kJ/mol
# GULP energy per Si atom -5588.593225 kJ/mol
# Density = 2.298347 g / cm^3
# Si number density = 23.035897 Si / 1000 Ang^3
#
#
#
# Elastic Constant Matrix: (Units=GPa)
#
#
# Indices 1 2 3 4 5 6 
#
# 1 144.2769 32.4574 35.4526 0.0000 9.2748 0.0000
# 2 32.4574 116.1818 40.3824 0.0000 6.8020 0.0000
# 3 35.4526 40.3824 82.1036 0.0000 10.7153 0.0000
# 4 0.0000 0.0000 0.0000 38.0692 0.0000 -3.3078
# 5 9.2748 6.8020 10.7153 0.0000 32.5197 0.0000
# 6 0.0000 0.0000 0.0000 -3.3078 0.0000 43.2188
#
#
#
# Elastic Compliance Matrix: (Units=1/GPa)
#
#
# Indices 1 2 3 4 5 6 
#
# 1 0.007936 -0.001220 -0.002680 0.000000 -0.001125 0.000000
# 2 -0.001220 0.010578 -0.004632 0.000000 -0.000338 0.000000
# 3 -0.002680 -0.004632 0.016080 0.000000 -0.003565 0.000000
# 4 0.000000 0.000000 0.000000 0.026444 0.000000 0.002024
# 5 -0.001125 -0.000338 -0.003565 0.000000 0.032317 0.000000
# 6 0.000000 0.000000 0.000000 0.002024 0.000000 0.023293
#
#
# Mechanical properties :
#
#
# Convention : Reuss Voigt Hill
#
# Bulk Modulus (GPa) = 57.04100 62.12745 59.58423
# Shear Modulus (GPa) = 35.82803 38.37954 37.10379
#
# Velocity S-wave (km/s) = 3.94802 4.08619 4.01770
# Velocity P-wave (km/s) = 6.75263 7.02075 6.88800
#
# Compressibility (1/GPa) = 0.01753125
#
# Stress axis : x y z
#
# Youngs Moduli (GPa) = 126.00098 94.53888 62.18723
#
# Poissons Ratio (x) = 0.11531 0.16667
# Poissons Ratio (y) = 0.15369 0.28803
# Poissons Ratio (z) = 0.33771 0.43788
#
# Static dielectric constant tensor:
#      x y z
#    x 1.912150 0.000000 0.040520 
#    y 0.000000 1.842020 0.000000 
#    z 0.040520 0.000000 1.984870 
# 
# From -- ./inp_files/133070.got.cif
#   From: 2010.05.17/outbox.cif.g08.bks.cpg/sg15_67_cif.got.tgz:133070.got - 2010.06.03 18:47:42.
