data_PCOD9282021
_publ_section_title
;
Structure prediction by ZEFSAII (Michael W. Deem and Ramdas Pophale) SiO2 
 PCOD9282021
Probable space group: C 2/C
;
_chemical_formula_sum "Si O2"
_cell_formula_units_Z 48
_cell_length_a 29.040292
_cell_length_b 12.420931
_cell_length_c 9.234592
_cell_angle_alpha 90.000000
_cell_angle_beta 141.357853
_cell_angle_gamma 90.000000
_cell_volume 2080.048747
_symmetry_space_group_name_H-M "C 2/C"
_symmetry_group_IT_number 15
_symmetry_cell_setting 'monoclinic'
loop_
_space_group_symop_operation_xyz
x,y,z
-x,y,1/2-z
-x,-y,-z
x,-y,1/2+z
1/2+x,1/2+y,z
1/2-x,1/2+y,1/2-z
1/2-x,1/2-y,-z
1/2+x,1/2-y,1/2+z
loop_
_atom_site_type_symbol
_atom_site_label
_atom_site_fract_x
_atom_site_fract_y
_atom_site_fract_z
Si Si1 0.500000 0.178354 0.750000
Si Si2 0.000000 0.043332 0.750000
Si Si3 0.706060 0.824945 0.179511
Si Si4 0.650461 0.943194 0.542373
Si Si5 0.560047 0.641697 0.608419
Si Si6 0.278839 0.616880 0.583892
Si Si7 0.227606 0.885495 0.868576
O O1 0.428303 0.106842 0.613432
O O2 0.479715 0.256292 0.564633
O O3 0.962114 0.116343 0.781113
O O4 0.957294 0.960249 0.538559
O O5 0.749366 0.807475 0.137498
O O6 0.765404 0.863793 0.444865
O O7 0.682451 0.711803 0.189131
O O8 0.651071 0.926222 0.026012
O O9 0.689877 0.890286 0.498531
O O10 0.710707 0.916868 0.814904
O O11 0.647337 0.655899 0.808471
O O12 0.300000 0.505653 0.720958
#
# Coordination Sequence:
#
# PCOD9282021 Si02
#       7
#     4   4   8   8   8   8   8
#     4  11  24  44  64  89 140 187 220 266 341 402
#     4   9  22  42  62 101 140 169 210 272 359 392
#     4   9  19  38  60  96 130 164 219 274 328 395
#     4  10  22  41  63  95 130 176 223 278 331 394
#     4  10  22  41  66  98 140 175 212 279 337 405
#     4  10  21  38  67  98 130 166 224 281 331 393
#     4   9  19  36  62  99 125 163 221 277 336 386
#
# _framework density 23.076381000000001
#
# number of rings (size 3 to 8) (size 9 to 14) (size 15 to 20)
#    0.000    2.333    0.000    1.000    7.000    2.667 
#   12.000    7.500    0.000    2.000    0.000    0.000 
#    0.000    0.000    0.000    0.000    0.000    0.000 
#
# Total GULP energy -133989.027685 kJ/mol
# GULP energy per Si atom -5582.876154 kJ/mol
# Density = 2.302386 g / cm^3
# Si number density = 23.076381 Si / 1000 Ang^3
#
#
#
# Elastic Constant Matrix: (Units=GPa)
#
#
# Indices 1 2 3 4 5 6 
#
# 1 180.1100 38.4659 90.1301 0.0000 -5.0195 0.0000
# 2 38.4659 124.1564 49.1923 0.0000 24.6313 0.0000
# 3 90.1301 49.1923 98.6767 0.0000 6.5415 0.0000
# 4 0.0000 0.0000 0.0000 9.5741 0.0000 -3.1204
# 5 -5.0195 24.6313 6.5415 0.0000 44.1267 0.0000
# 6 0.0000 0.0000 0.0000 -3.1204 0.0000 30.7545
#
#
#
# Elastic Compliance Matrix: (Units=1/GPa)
#
#
# Indices 1 2 3 4 5 6 
#
# 1 0.010526 0.000128 -0.009849 0.000000 0.002586 0.000000
# 2 0.000128 0.011215 -0.005347 0.000000 -0.005453 0.000000
# 3 -0.009849 -0.005347 0.021887 0.000000 -0.001381 0.000000
# 4 0.000000 0.000000 0.000000 0.108021 0.000000 0.010960
# 5 0.002586 -0.005453 -0.001381 0.000000 0.026205 0.000000
# 6 0.000000 0.000000 0.000000 0.010960 0.000000 0.033628
#
#
# Mechanical properties :
#
#
# Convention : Reuss Voigt Hill
#
# Bulk Modulus (GPa) = 74.11502 84.27998 79.19750
# Shear Modulus (GPa) = 20.31583 31.90136 26.10859
#
# Velocity S-wave (km/s) = 2.97033 3.72213 3.36728
# Velocity P-wave (km/s) = 6.62954 7.42117 7.03650
#
# Compressibility (1/GPa) = 0.01349254
#
# Stress axis : x y z
#
# Youngs Moduli (GPa) = 95.00642 89.16847 45.68843
#
# Poissons Ratio (x) = -0.01145 0.45000
# Poissons Ratio (y) = -0.01220 0.24428
# Poissons Ratio (z) = 0.93576 0.47675
#
# Static dielectric constant tensor:
#      x y z
#    x 1.845150 0.000000 -0.032130 
#    y 0.000000 1.943440 0.000000 
#    z -0.032130 0.000000 1.878400 
# 
# From -- ./inp_files/66533.got.cif
#   From: 2010.05.17/outbox.cif.g08.bks.cpg/sg15_34_cif.got.tgz:66533.got - 2010.06.03 18:47:42.
