data_PCOD9282118
_publ_section_title
;
Structure prediction by ZEFSAII (Michael W. Deem and Ramdas Pophale) SiO2 
 PCOD9282118
Probable space group: C 2/C
;
_chemical_formula_sum "Si O2"
_cell_formula_units_Z 44
_cell_length_a 13.048510
_cell_length_b 13.228930
_cell_length_c 10.576470
_cell_angle_alpha 90.000000
_cell_angle_beta 68.750200
_cell_angle_gamma 90.000000
_cell_volume 1701.557195
_symmetry_space_group_name_H-M "C 2/C"
_symmetry_group_IT_number 15
_symmetry_cell_setting 'monoclinic'
loop_
_space_group_symop_operation_xyz
x,y,z
-x,y,1/2-z
-x,-y,-z
x,-y,1/2+z
1/2+x,1/2+y,z
1/2-x,1/2+y,1/2-z
1/2-x,1/2-y,-z
1/2+x,1/2-y,1/2+z
loop_
_atom_site_type_symbol
_atom_site_label
_atom_site_fract_x
_atom_site_fract_y
_atom_site_fract_z
Si Si1 0.059417 0.571664 0.371568
Si Si2 0.500000 0.725408 0.250000
Si Si3 0.380045 0.547736 0.036567
Si Si4 0.277238 0.614420 0.423101
Si Si5 0.215694 0.584110 0.719443
Si Si6 0.596150 0.214908 0.958057
O O1 0.169691 0.618775 0.384776
O O2 0.111457 0.492183 0.248300
O O3 0.000000 0.500000 0.500000
O O4 0.966957 0.658789 0.400164
O O5 0.388367 0.662671 0.319503
O O6 0.484706 0.785608 0.127770
O O7 0.314560 0.495785 0.181082
O O8 0.379981 0.667939 0.028493
O O9 0.500000 0.500000 0.000000
O O10 0.314799 0.498144 0.949800
O O11 0.241250 0.650217 0.582654
O O12 0.196151 0.653278 0.850280
#
# Coordination Sequence:
#
# PCOD9282118 Si02
#       6
#     8   4   8   8   8   8
#     4  10  22  40  63  92 128 171 219 265 321 389
#     4  12  22  34  68  96 130 158 220 278 334 380
#     4  10  21  39  55  92 131 164 209 266 330 386
#     4  10  23  40  61  96 132 164 212 269 332 377
#     4   9  22  39  62  90 133 168 211 271 322 394
#     4  11  21  38  64  98 126 169 222 269 331 388
#
# _framework density 25.858664999999998
#
# number of rings (size 3 to 8) (size 9 to 14) (size 15 to 20)
#    1.091    0.727    1.818    2.182    0.000    9.455 
#    0.000    3.636    0.000    0.000    0.000    0.000 
#    0.000    0.000    0.000    0.000    0.000    0.000 
#
# Total GULP energy -122777.857068 kJ/mol
# GULP energy per Si atom -5580.811685 kJ/mol
# Density = 2.579981 g / cm^3
# Si number density = 25.858665 Si / 1000 Ang^3
#
#
#
# Elastic Constant Matrix: (Units=GPa)
#
#
# Indices 1 2 3 4 5 6 
#
# 1 53.9273 24.1917 30.7320 0.0000 -24.7461 0.0000
# 2 24.1917 182.2164 62.9675 0.0000 -35.3724 0.0000
# 3 30.7320 62.9675 176.0662 0.0000 -38.7883 0.0000
# 4 0.0000 0.0000 0.0000 47.1160 0.0000 -15.8276
# 5 -24.7461 -35.3724 -38.7883 0.0000 56.7570 0.0000
# 6 0.0000 0.0000 0.0000 -15.8276 0.0000 53.2991
#
#
#
# Elastic Compliance Matrix: (Units=1/GPa)
#
#
# Indices 1 2 3 4 5 6 
#
# 1 0.023991 -0.000829 -0.002002 0.000000 0.008576 0.000000
# 2 -0.000829 0.006690 -0.001659 0.000000 0.002675 0.000000
# 3 -0.002002 -0.001659 0.007302 0.000000 0.003083 0.000000
# 4 0.000000 0.000000 0.000000 0.023576 0.000000 0.007001
# 5 0.008576 0.002675 0.003083 0.000000 0.025132 0.000000
# 6 0.000000 0.000000 0.000000 0.007001 0.000000 0.020841
#
#
# Mechanical properties :
#
#
# Convention : Reuss Voigt Hill
#
# Bulk Modulus (GPa) = 34.47752 71.99913 53.23833
# Shear Modulus (GPa) = 39.62601 51.05567 45.34084
#
# Velocity S-wave (km/s) = 3.91884 4.44826 4.19192
# Velocity P-wave (km/s) = 5.81708 7.36793 6.63795
#
# Compressibility (1/GPa) = 0.02900441
#
# Stress axis : x y z
#
# Youngs Moduli (GPa) = 41.68178 149.46664 136.95500
#
# Poissons Ratio (x) = 0.12385 0.27419
# Poissons Ratio (y) = 0.03454 0.22719
# Poissons Ratio (z) = 0.08345 0.24794
#
# Static dielectric constant tensor:
#      x y z
#    x 2.084020 0.000000 0.039830 
#    y 0.000000 2.113530 0.000000 
#    z 0.039830 0.000000 2.218380 
# 
# From -- ./inp_files/153240.got.cif
#   From: 2010.05.17/outbox.cif.g08.bks.cpg/sg15_77_cif.got.tgz:153240.got - 2010.06.03 18:47:42.
