data_PCOD9282083
_publ_section_title
;
Structure prediction by ZEFSAII (Michael W. Deem and Ramdas Pophale) SiO2 
 PCOD9282083
Probable space group: C 2/C
;
_chemical_formula_sum "Si O2"
_cell_formula_units_Z 44
_cell_length_a 17.049747
_cell_length_b 7.713980
_cell_length_c 16.554441
_cell_angle_alpha 90.000000
_cell_angle_beta 74.275589
_cell_angle_gamma 90.000000
_cell_volume 2095.782277
_symmetry_space_group_name_H-M "C 2/C"
_symmetry_group_IT_number 15
_symmetry_cell_setting 'monoclinic'
loop_
_space_group_symop_operation_xyz
x,y,z
-x,y,1/2-z
-x,-y,-z
x,-y,1/2+z
1/2+x,1/2+y,z
1/2-x,1/2+y,1/2-z
1/2-x,1/2-y,-z
1/2+x,1/2-y,1/2+z
loop_
_atom_site_type_symbol
_atom_site_label
_atom_site_fract_x
_atom_site_fract_y
_atom_site_fract_z
Si Si1 0.198991 0.333558 0.703646
Si Si2 0.000000 0.141331 0.250000
Si Si3 0.418177 0.104628 0.507117
Si Si4 0.361166 0.843238 0.200539
Si Si5 0.602928 0.587568 0.609630
Si Si6 0.256278 0.956800 0.977189
O O1 0.273183 0.245961 0.729411
O O2 0.146883 0.454908 0.775882
O O3 0.147045 0.186712 0.672112
O O4 0.234321 0.457329 0.621631
O O5 0.074956 0.256642 0.258054
O O6 0.031939 0.026337 0.166815
O O7 0.389287 0.178305 0.600749
O O8 0.429146 0.262006 0.441005
O O9 0.342038 0.991529 0.493533
O O10 0.500000 0.000000 0.500000
O O11 0.673375 0.479210 0.542075
O O12 0.250000 0.750000 0.000000
#
# Coordination Sequence:
#
# PCOD9282083 Si02
#       6
#     8   4   8   8   8   8
#     4  10  21  42  70  85 126 172 215 260 319 381
#     4  12  30  36  60 104 136 162 218 268 324 378
#     4  10  21  38  70  95 125 165 219 265 325 381
#     4  12  24  42  62 100 127 167 220 272 312 390
#     4  10  21  47  64  88 130 178 202 265 324 387
#     4   8  16  40  64  85 115 171 206 249 310 385
#
# _framework density 20.994547000000001
#
# number of rings (size 3 to 8) (size 9 to 14) (size 15 to 20)
#    0.000    2.182    5.455    1.091    7.636    0.727 
#    0.000    0.909    0.000    0.000    0.000    0.000 
#    0.000    0.000    0.000    0.000    0.000    0.000 
#
# Total GULP energy -122807.608659 kJ/mol
# GULP energy per Si atom -5582.164030 kJ/mol
# Density = 2.094676 g / cm^3
# Si number density = 20.994547 Si / 1000 Ang^3
#
#
#
# Elastic Constant Matrix: (Units=GPa)
#
#
# Indices 1 2 3 4 5 6 
#
# 1 91.3861 30.2027 -4.5500 0.0000 15.5432 0.0000
# 2 30.2027 34.7749 -1.4654 0.0000 7.7344 0.0000
# 3 -4.5500 -1.4654 29.8993 0.0000 12.8893 0.0000
# 4 0.0000 0.0000 0.0000 6.7009 0.0000 3.3365
# 5 15.5432 7.7344 12.8893 0.0000 35.5345 0.0000
# 6 0.0000 0.0000 0.0000 3.3365 0.0000 33.9166
#
#
#
# Elastic Compliance Matrix: (Units=1/GPa)
#
#
# Indices 1 2 3 4 5 6 
#
# 1 0.016389 -0.012706 0.004468 0.000000 -0.006024 0.000000
# 2 -0.012706 0.040745 0.001767 0.000000 -0.003952 0.000000
# 3 0.004468 0.001767 0.041749 0.000000 -0.017482 0.000000
# 4 0.000000 0.000000 0.000000 0.156921 0.000000 -0.015437
# 5 -0.006024 -0.003952 -0.017482 0.000000 0.037978 0.000000
# 6 0.000000 0.000000 0.000000 -0.015437 0.000000 0.031003
#
#
# Mechanical properties :
#
#
# Convention : Reuss Voigt Hill
#
# Bulk Modulus (GPa) = 11.63594 22.71500 17.17547
# Shear Modulus (GPa) = 13.64729 24.02191 18.83460
#
# Velocity S-wave (km/s) = 2.55235 3.38627 2.99844
# Velocity P-wave (km/s) = 3.77365 5.11195 4.49291
#
# Compressibility (1/GPa) = 0.08594063
#
# Stress axis : x y z
#
# Youngs Moduli (GPa) = 61.01697 24.54276 23.95291
#
# Poissons Ratio (x) = 0.31184 -0.10702
# Poissons Ratio (y) = 0.77528 -0.04232
# Poissons Ratio (z) = -0.27263 -0.04337
#
# Static dielectric constant tensor:
#      x y z
#    x 1.800730 0.000000 -0.028120 
#    y 0.000000 1.750340 0.000000 
#    z -0.028120 0.000000 1.775290 
# 
# From -- ./inp_files/159281.got.cif
#   From: 2010.05.17/outbox.cif.g08.bks.cpg/sg15_80_cif.got.tgz:159281.got - 2010.06.03 18:47:42.
