data_PCOD9282010
_publ_section_title
;
Structure prediction by ZEFSAII (Michael W. Deem and Ramdas Pophale) SiO2 
 PCOD9282010
Probable space group: C 2/C
;
_chemical_formula_sum "Si O2"
_cell_formula_units_Z 48
_cell_length_a 20.014751
_cell_length_b 11.109289
_cell_length_c 14.386582
_cell_angle_alpha 90.000000
_cell_angle_beta 138.413615
_cell_angle_gamma 90.000000
_cell_volume 2123.232887
_symmetry_space_group_name_H-M "C 2/C"
_symmetry_group_IT_number 15
_symmetry_cell_setting 'monoclinic'
loop_
_space_group_symop_operation_xyz
x,y,z
-x,y,1/2-z
-x,-y,-z
x,-y,1/2+z
1/2+x,1/2+y,z
1/2-x,1/2+y,1/2-z
1/2-x,1/2-y,-z
1/2+x,1/2-y,1/2+z
loop_
_atom_site_type_symbol
_atom_site_label
_atom_site_fract_x
_atom_site_fract_y
_atom_site_fract_z
Si Si1 0.885215 0.507223 0.112534
Si Si2 0.864426 0.053089 0.310144
Si Si3 0.754146 0.465636 0.137567
Si Si4 0.419498 0.096581 0.954952
Si Si5 0.686944 0.784819 0.549566
Si Si6 0.446086 0.689121 0.926130
O O1 0.812572 0.541527 0.121051
O O2 0.000000 0.540141 0.250000
O O3 0.860913 0.556460 0.985589
O O4 0.877736 0.363269 0.089118
O O5 0.787098 0.136630 0.173772
O O6 0.973098 0.116547 0.426686
O O7 0.817127 0.037154 0.365541
O O8 0.886912 0.913234 0.307300
O O9 0.837746 0.398333 0.288496
O O10 0.700601 0.352750 0.032677
O O11 0.481778 0.214520 0.046478
O O12 0.500000 0.000000 0.000000
O O13 0.629127 0.765570 0.587453
#
# Coordination Sequence:
#
# PCOD9282010 Si02
#       6
#     8   8   8   8   8   8
#     4  12  24  37  63  98 127 169 221 269 320 385
#     4  10  21  39  67  94 128 170 211 270 331 383
#     4  11  22  39  62  94 128 168 219 266 323 385
#     4  12  20  39  64  90 129 171 212 266 322 384
#     4  11  21  39  67  93 127 170 217 276 324 381
#     4  10  21  38  67  96 125 170 219 264 327 389
#
# _framework density 22.607036000000001
#
# number of rings (size 3 to 8) (size 9 to 14) (size 15 to 20)
#    0.000    1.000    6.667    0.500    0.000    0.000 
#    0.000    0.833    3.667    0.000    0.000    0.000 
#    0.000    0.000    0.000    0.000    0.000    0.000 
#
# Total GULP energy -133921.685131 kJ/mol
# GULP energy per Si atom -5580.070214 kJ/mol
# Density = 2.255558 g / cm^3
# Si number density = 22.607036 Si / 1000 Ang^3
#
#
#
# Elastic Constant Matrix: (Units=GPa)
#
#
# Indices 1 2 3 4 5 6 
#
# 1 95.5714 17.6356 13.8635 0.0000 -6.7712 0.0000
# 2 17.6356 43.5674 12.5401 0.0000 1.9924 0.0000
# 3 13.8635 12.5401 53.3123 0.0000 9.5980 0.0000
# 4 0.0000 0.0000 0.0000 34.9752 0.0000 16.9811
# 5 -6.7712 1.9924 9.5980 0.0000 34.1369 0.0000
# 6 0.0000 0.0000 0.0000 16.9811 0.0000 29.7921
#
#
#
# Elastic Compliance Matrix: (Units=1/GPa)
#
#
# Indices 1 2 3 4 5 6 
#
# 1 0.011865 -0.004177 -0.002707 0.000000 0.003358 0.000000
# 2 -0.004177 0.026092 -0.004874 0.000000 -0.000981 0.000000
# 3 -0.002707 -0.004874 0.021755 0.000000 -0.006369 0.000000
# 4 0.000000 0.000000 0.000000 0.039532 0.000000 -0.022532
# 5 0.003358 -0.000981 -0.006369 0.000000 0.031808 0.000000
# 6 0.000000 0.000000 0.000000 -0.022532 0.000000 0.046409
#
#
# Mechanical properties :
#
#
# Convention : Reuss Voigt Hill
#
# Bulk Modulus (GPa) = 27.62951 31.16994 29.39973
# Shear Modulus (GPa) = 23.46954 29.67498 26.57226
#
# Velocity S-wave (km/s) = 3.22553 3.62697 3.43213
# Velocity P-wave (km/s) = 5.11080 5.59978 5.36087
#
# Compressibility (1/GPa) = 0.03619318
#
# Stress axis : x y z
#
# Youngs Moduli (GPa) = 84.28255 38.32648 45.96710
#
# Poissons Ratio (x) = 0.16009 0.12446
# Poissons Ratio (y) = 0.35205 0.22406
# Poissons Ratio (z) = 0.22819 0.18682
#
# Static dielectric constant tensor:
#      x y z
#    x 1.872930 0.000000 0.009720 
#    y 0.000000 1.928540 0.000000 
#    z 0.009720 0.000000 1.869700 
# 
# From -- ./inp_files/167139.got.cif
#   From: 2010.05.17/outbox.cif.g08.bks.cpg/sg15_84_cif.got.tgz:167139.got - 2010.06.03 18:47:42.
