data_PCOD9282741
_publ_section_title
;
Structure prediction by ZEFSAII (Michael W. Deem and Ramdas Pophale) SiO2 
 PCOD9282741
Probable space group: C 2/C
;
_chemical_formula_sum "Si O2"
_cell_formula_units_Z 40
_cell_length_a 27.013488
_cell_length_b 14.794366
_cell_length_c 14.699874
_cell_angle_alpha 90.000000
_cell_angle_beta 162.763036
_cell_angle_gamma 90.000000
_cell_volume 1740.836055
_symmetry_space_group_name_H-M "C 2/C"
_symmetry_group_IT_number 15
_symmetry_cell_setting 'monoclinic'
loop_
_space_group_symop_operation_xyz
x,y,z
-x,y,1/2-z
-x,-y,-z
x,-y,1/2+z
1/2+x,1/2+y,z
1/2-x,1/2+y,1/2-z
1/2-x,1/2-y,-z
1/2+x,1/2-y,1/2+z
loop_
_atom_site_type_symbol
_atom_site_label
_atom_site_fract_x
_atom_site_fract_y
_atom_site_fract_z
Si Si1 0.379534 0.588651 0.403941
Si Si2 0.815953 0.738050 0.879702
Si Si3 0.162835 0.489214 0.365959
Si Si4 0.808323 0.462406 0.289530
Si Si5 0.249246 0.665155 0.434896
O O1 0.307905 0.691192 0.282978
O O2 0.321686 0.528994 0.388722
O O3 0.575603 0.610557 0.753364
O O4 0.306078 0.536433 0.188360
O O5 0.793170 0.634197 0.813223
O O6 0.705686 0.789001 0.762499
O O7 0.000000 0.742237 0.250000
O O8 0.209944 0.445424 0.351116
O O9 0.134755 0.592772 0.283489
O O10 0.984277 0.481436 0.103828
O O11 0.250000 0.750000 0.500000
#
# Coordination Sequence:
#
# PCOD9282741 Si02
#       5
#     8   8   8   8   8
#     4  11  22  41  68  95 137 176 228 289 337 401
#     4  10  21  39  64  91 131 176 226 272 339 403
#     4  11  23  39  67  98 136 179 229 280 348 405
#     4  11  23  42  67  97 139 183 222 283 348 413
#     4  11  22  41  68  99 129 176 238 279 335 418
#
# _framework density 22.977464999999999
#
# number of rings (size 3 to 8) (size 9 to 14) (size 15 to 20)
#    0.000    1.200    2.000    6.000    0.000    0.800 
#    0.000    0.000    8.800    0.000    0.000    0.000 
#    0.000    0.000    0.000    0.000    0.000    0.000 
#
# Total GULP energy -111383.006543 kJ/mol
# GULP energy per Si atom -5569.150327 kJ/mol
# Density = 2.292517 g / cm^3
# Si number density = 22.977465 Si / 1000 Ang^3
#
#
#
# Elastic Constant Matrix: (Units=GPa)
#
#
# Indices 1 2 3 4 5 6 
#
# 1 116.6581 44.7419 54.3837 0.0000 -12.5476 0.0000
# 2 44.7419 163.6825 25.9293 0.0000 -3.7256 0.0000
# 3 54.3837 25.9293 64.6187 0.0000 3.3100 0.0000
# 4 0.0000 0.0000 0.0000 30.1131 0.0000 -4.5972
# 5 -12.5476 -3.7256 3.3100 0.0000 38.3584 0.0000
# 6 0.0000 0.0000 0.0000 -4.5972 0.0000 59.3306
#
#
#
# Elastic Compliance Matrix: (Units=1/GPa)
#
#
# Indices 1 2 3 4 5 6 
#
# 1 0.016162 -0.002212 -0.013032 0.000000 0.006197 0.000000
# 2 -0.002212 0.006856 -0.000890 0.000000 0.000019 0.000000
# 3 -0.013032 -0.000890 0.027143 0.000000 -0.006692 0.000000
# 4 0.000000 0.000000 0.000000 0.033606 0.000000 0.002604
# 5 0.006197 0.000019 -0.006692 0.000000 0.028676 0.000000
# 6 0.000000 0.000000 0.000000 0.002604 0.000000 0.017056
#
#
# Mechanical properties :
#
#
# Convention : Reuss Voigt Hill
#
# Bulk Modulus (GPa) = 55.88976 66.11879 61.00428
# Shear Modulus (GPa) = 29.80945 40.22071 35.01508
#
# Velocity S-wave (km/s) = 3.60576 4.18837 3.90794
# Velocity P-wave (km/s) = 6.45847 7.22688 6.85346
#
# Compressibility (1/GPa) = 0.01789237
#
# Stress axis : x y z
#
# Youngs Moduli (GPa) = 61.87220 145.86736 36.84179
#
# Poissons Ratio (x) = 0.32272 0.48012
# Poissons Ratio (y) = 0.13689 0.03278
# Poissons Ratio (z) = 0.80632 0.12980
#
# Static dielectric constant tensor:
#      x y z
#    x 2.005680 0.000000 0.082080 
#    y 0.000000 1.886660 0.000000 
#    z 0.082080 0.000000 1.960660 
# 
# From -- ./inp_files/178471.got.cif
#   From: 2010.05.17/outbox.cif.g08.bks.cpg/sg15_90_cif.got.tgz:178471.got - 2010.06.03 18:47:42.
