data_PCOD9282676
_publ_section_title
;
Structure prediction by ZEFSAII (Michael W. Deem and Ramdas Pophale) SiO2 
 PCOD9282676
Probable space group: C 2/C
;
_chemical_formula_sum "Si O2"
_cell_formula_units_Z 44
_cell_length_a 28.449166
_cell_length_b 7.279459
_cell_length_c 9.032735
_cell_angle_alpha 90.000000
_cell_angle_beta 108.326418
_cell_angle_gamma 90.000000
_cell_volume 1775.752843
_symmetry_space_group_name_H-M "C 2/C"
_symmetry_group_IT_number 15
_symmetry_cell_setting 'monoclinic'
loop_
_space_group_symop_operation_xyz
x,y,z
-x,y,1/2-z
-x,-y,-z
x,-y,1/2+z
1/2+x,1/2+y,z
1/2-x,1/2+y,1/2-z
1/2-x,1/2-y,-z
1/2+x,1/2-y,1/2+z
loop_
_atom_site_type_symbol
_atom_site_label
_atom_site_fract_x
_atom_site_fract_y
_atom_site_fract_z
Si Si1 0.939205 0.318504 0.463655
Si Si2 0.189220 0.899125 0.828146
Si Si3 0.000000 0.431726 0.250000
Si Si4 0.858408 0.386193 0.813892
Si Si5 0.791564 0.481312 0.019644
Si Si6 0.121405 0.973060 0.022812
O O1 0.963032 0.435354 0.621484
O O2 0.892647 0.436542 0.358793
O O3 0.974528 0.313510 0.354707
O O4 0.920737 0.123809 0.504761
O O5 0.235194 0.023905 0.925817
O O6 0.171285 0.948056 0.648530
O O7 0.207899 0.690695 0.865245
O O8 0.139806 0.920798 0.878329
O O9 0.816107 0.403342 0.895634
O O10 0.830129 0.376730 0.630057
O O11 0.889955 0.210174 0.894332
#
# Coordination Sequence:
#
# PCOD9282676 Si02
#       6
#     8   8   4   8   8   8
#     4  11  24  50  70 102 129 168 222 284 345 434
#     4  10  22  40  61 101 139 190 218 275 305 389
#     4  10  26  48  80  94 130 172 214 288 384 408
#     4  11  23  40  69  99 131 189 213 280 324 398
#     4  10  21  39  63  97 146 178 235 257 318 375
#     4  11  25  40  68  97 136 176 230 266 336 387
#
# _framework density 24.778223000000001
#
# number of rings (size 3 to 8) (size 9 to 14) (size 15 to 20)
#    0.000    1.455    1.818    2.182    7.636    0.727 
#    0.000    5.455    0.000    0.000    0.000    0.000 
#    0.000    0.000    0.000    0.000    0.000    0.000 
#
# Total GULP energy -123198.363086 kJ/mol
# GULP energy per Si atom -5599.925595 kJ/mol
# Density = 2.472183 g / cm^3
# Si number density = 24.778223 Si / 1000 Ang^3
#
#
#
# Elastic Constant Matrix: (Units=GPa)
#
#
# Indices 1 2 3 4 5 6 
#
# 1 69.8545 35.3687 16.8665 0.0000 -1.7598 0.0000
# 2 35.3687 93.8317 1.6932 0.0000 -0.3797 0.0000
# 3 16.8665 1.6932 90.7571 0.0000 1.9770 0.0000
# 4 0.0000 0.0000 0.0000 31.7809 0.0000 7.3407
# 5 -1.7598 -0.3797 1.9770 0.0000 33.6448 0.0000
# 6 0.0000 0.0000 0.0000 7.3407 0.0000 34.0735
#
#
#
# Elastic Compliance Matrix: (Units=1/GPa)
#
#
# Indices 1 2 3 4 5 6 
#
# 1 0.018690 -0.006980 -0.003367 0.000000 0.001097 0.000000
# 2 -0.006980 0.013268 0.001056 0.000000 -0.000277 0.000000
# 3 -0.003367 0.001056 0.011643 0.000000 -0.000848 0.000000
# 4 0.000000 0.000000 0.000000 0.033113 0.000000 -0.007134
# 5 0.001097 -0.000277 -0.000848 0.000000 0.029826 0.000000
# 6 0.000000 0.000000 0.000000 -0.007134 0.000000 0.030885
#
#
# Mechanical properties :
#
#
# Convention : Reuss Voigt Hill
#
# Bulk Modulus (GPa) = 39.97005 40.25557 40.11281
# Shear Modulus (GPa) = 30.42323 33.26750 31.84537
#
# Velocity S-wave (km/s) = 3.50783 3.66814 3.58888
# Velocity P-wave (km/s) = 5.70724 5.84995 5.77904
#
# Compressibility (1/GPa) = 0.02501873
#
# Stress axis : x y z
#
# Youngs Moduli (GPa) = 53.50424 75.36842 85.88885
#
# Poissons Ratio (x) = 0.52606 0.28920
# Poissons Ratio (y) = 0.37345 -0.09067
# Poissons Ratio (z) = 0.18015 -0.07956
#
# Static dielectric constant tensor:
#      x y z
#    x 1.929500 0.000000 0.019890 
#    y 0.000000 2.029310 0.000000 
#    z 0.019890 0.000000 1.941210 
# 
# From -- ./inp_files/68647.got.cif
#   From: 2010.05.17/outbox.cif.g08.bks.cpg/sg15_35_cif.got.tgz:68647.got - 2010.06.03 18:47:42.
