data_PCOD9282324
_publ_section_title
;
Structure prediction by ZEFSAII (Michael W. Deem and Ramdas Pophale) SiO2 
 PCOD9282324
Probable space group: C 2/C
;
_chemical_formula_sum "Si O2"
_cell_formula_units_Z 56
_cell_length_a 25.393379
_cell_length_b 10.645103
_cell_length_c 17.135802
_cell_angle_alpha 90.000000
_cell_angle_beta 142.604177
_cell_angle_gamma 90.000000
_cell_volume 2813.137087
_symmetry_space_group_name_H-M "C 2/C"
_symmetry_group_IT_number 15
_symmetry_cell_setting 'monoclinic'
loop_
_space_group_symop_operation_xyz
x,y,z
-x,y,1/2-z
-x,-y,-z
x,-y,1/2+z
1/2+x,1/2+y,z
1/2-x,1/2+y,1/2-z
1/2-x,1/2-y,-z
1/2+x,1/2-y,1/2+z
loop_
_atom_site_type_symbol
_atom_site_label
_atom_site_fract_x
_atom_site_fract_y
_atom_site_fract_z
Si Si1 0.122004 0.540452 0.563392
Si Si2 0.441143 0.375685 0.428203
Si Si3 0.822365 0.227860 0.473240
Si Si4 0.093040 0.729222 0.671408
Si Si5 0.955502 0.534834 0.780851
Si Si6 0.195726 0.066791 0.201369
Si Si7 0.875537 0.740603 0.201921
O O1 0.145803 0.638968 0.522944
O O2 0.111127 0.624101 0.627383
O O3 0.201561 0.446424 0.669780
O O4 0.032982 0.476806 0.434676
O O5 0.500000 0.500000 0.500000
O O6 0.495472 0.281807 0.545795
O O7 0.347552 0.428571 0.343310
O O8 0.433166 0.313232 0.333445
O O9 0.829564 0.129395 0.410982
O O10 0.873959 0.199261 0.613698
O O11 0.722067 0.239736 0.379777
O O12 0.100937 0.655693 0.761714
O O13 0.156488 0.844245 0.723258
O O14 0.905233 0.403228 0.727382
O O15 0.000000 0.548540 0.750000
#
# Coordination Sequence:
#
# PCOD9282324 Si02
#       7
#     8   8   8   8   8   8   8
#     4  11  20  37  63  91 117 157 205 257 295 365
#     4  10  21  39  61  87 123 160 202 250 304 370
#     4  10  22  37  63  95 119 160 204 257 308 350
#     4  10  23  38  60  89 120 162 203 251 311 357
#     4  12  24  38  60  91 125 161 208 254 306 366
#     4  10  22  40  61  93 122 159 210 248 308 375
#     4  11  21  40  63  90 126 159 206 263 306 353
#
# _framework density 19.906603
#
# number of rings (size 3 to 8) (size 9 to 14) (size 15 to 20)
#    0.000    1.429    4.286    1.286    2.000    0.000 
#    0.000    3.571    0.000    0.000    0.000    0.000 
#    0.000    0.000    0.000    0.000    0.000    0.000 
#
# Total GULP energy -156327.507997 kJ/mol
# GULP energy per Si atom -5583.125286 kJ/mol
# Density = 1.986129 g / cm^3
# Si number density = 19.906603 Si / 1000 Ang^3
#
#
#
# Elastic Constant Matrix: (Units=GPa)
#
#
# Indices 1 2 3 4 5 6 
#
# 1 71.7434 34.6845 -9.7809 0.0000 -5.2169 0.0000
# 2 34.6845 79.2009 6.9482 0.0000 -12.5165 0.0000
# 3 -9.7809 6.9482 26.0057 0.0000 1.3215 0.0000
# 4 0.0000 0.0000 0.0000 26.8465 0.0000 4.2251
# 5 -5.2169 -12.5165 1.3215 0.0000 32.3247 0.0000
# 6 0.0000 0.0000 0.0000 4.2251 0.0000 33.2733
#
#
#
# Elastic Compliance Matrix: (Units=1/GPa)
#
#
# Indices 1 2 3 4 5 6 
#
# 1 0.019998 -0.009808 0.010192 0.000000 -0.000987 0.000000
# 2 -0.009808 0.018659 -0.008979 0.000000 0.006009 0.000000
# 3 0.010192 -0.008979 0.044872 0.000000 -0.003666 0.000000
# 4 0.000000 0.000000 0.000000 0.038008 0.000000 -0.004826
# 5 -0.000987 0.006009 -0.003666 0.000000 0.033254 0.000000
# 6 0.000000 0.000000 0.000000 -0.004826 0.000000 0.030667
#
#
# Mechanical properties :
#
#
# Convention : Reuss Voigt Hill
#
# Bulk Modulus (GPa) = 15.07435 26.73930 20.90683
# Shear Modulus (GPa) = 22.24595 28.16210 25.20402
#
# Velocity S-wave (km/s) = 3.34655 3.76535 3.56211
# Velocity P-wave (km/s) = 4.74569 5.68905 5.23865
#
# Compressibility (1/GPa) = 0.06633783
#
# Stress axis : x y z
#
# Youngs Moduli (GPa) = 50.00535 53.59458 22.28576
#
# Poissons Ratio (x) = 0.52564 -0.22713
# Poissons Ratio (y) = 0.49044 0.20011
# Poissons Ratio (z) = -0.50965 0.48124
#
# Static dielectric constant tensor:
#      x y z
#    x 1.736100 0.000000 0.019740 
#    y 0.000000 1.709260 0.000000 
#    z 0.019740 0.000000 1.719330 
# 
# From -- ./inp_files/222068.got.cif
#   From: 2010.05.17/outbox.cif.g08.bks.cpg/sg15_112_cif.got.tgz:222068.got - 2010.06.03 18:47:42.
