data_PCOD9282647
_publ_section_title
;
Structure prediction by ZEFSAII (Michael W. Deem and Ramdas Pophale) SiO2 
 PCOD9282647
Probable space group: C 2/C
;
_chemical_formula_sum "Si O2"
_cell_formula_units_Z 36
_cell_length_a 12.306143
_cell_length_b 16.224562
_cell_length_c 12.389273
_cell_angle_alpha 90.000000
_cell_angle_beta 46.919347
_cell_angle_gamma 90.000000
_cell_volume 1806.746979
_symmetry_space_group_name_H-M "C 2/C"
_symmetry_group_IT_number 15
_symmetry_cell_setting 'monoclinic'
loop_
_space_group_symop_operation_xyz
x,y,z
-x,y,1/2-z
-x,-y,-z
x,-y,1/2+z
1/2+x,1/2+y,z
1/2-x,1/2+y,1/2-z
1/2-x,1/2-y,-z
1/2+x,1/2-y,1/2+z
loop_
_atom_site_type_symbol
_atom_site_label
_atom_site_fract_x
_atom_site_fract_y
_atom_site_fract_z
Si Si1 0.025700 0.099793 0.858252
Si Si2 0.235951 0.970129 0.816936
Si Si3 0.044320 0.403955 0.984346
Si Si4 0.919091 0.721277 0.411142
Si Si5 0.500000 0.062370 0.750000
O O1 0.018417 0.198438 0.872191
O O2 0.000000 0.080656 0.750000
O O3 0.890333 0.068517 0.023362
O O4 0.168034 0.049626 0.802089
O O5 0.300426 0.904717 0.686784
O O6 0.364266 0.004306 0.807170
O O7 0.932042 0.344552 0.997414
O O8 0.045496 0.388085 0.111238
O O9 0.000000 0.500000 0.000000
O O10 0.750000 0.750000 0.500000
O O11 0.000000 0.685576 0.250000
#
# Coordination Sequence:
#
# PCOD9282647 Si02
#       5
#     8   8   8   8   4
#     4  10  22  38  64  93 132 163 222 271 332 373
#     4  10  21  39  63  94 128 175 215 265 326 405
#     4  10  23  38  65  93 128 171 216 261 329 391
#     4  11  25  39  68  99 132 164 225 281 327 381
#     4  10  22  36  66  86 130 168 224 250 322 400
#
# _framework density 19.925314
#
# number of rings (size 3 to 8) (size 9 to 14) (size 15 to 20)
#    0.000    1.778    0.000    2.667   24.889    0.000 
#    0.000    1.111    9.778    0.000    0.000    0.000 
#    0.000    0.000    0.000    0.000    0.000    0.000 
#
# Total GULP energy -100494.107151 kJ/mol
# GULP energy per Si atom -5583.005953 kJ/mol
# Density = 1.987996 g / cm^3
# Si number density = 19.925314 Si / 1000 Ang^3
#
#
#
# Elastic Constant Matrix: (Units=GPa)
#
#
# Indices 1 2 3 4 5 6 
#
# 1 120.3025 56.1103 51.9705 0.0001 14.8674 0.0000
# 2 56.1103 85.4806 21.2866 0.0000 17.3846 0.0000
# 3 51.9705 21.2866 147.6515 0.0001 24.5629 0.0000
# 4 0.0001 0.0000 0.0001 7.6028 -0.0001 -20.0066
# 5 14.8674 17.3846 24.5629 -0.0001 40.3052 0.0000
# 6 0.0000 0.0000 0.0000 -20.0066 0.0000 10.7039
#
#
#
# Elastic Compliance Matrix: (Units=1/GPa)
#
#
# Indices 1 2 3 4 5 6 
#
# 1 0.013658 -0.008189 -0.003757 0.000000 0.000784 0.000000
# 2 -0.008189 0.017877 0.001208 0.000000 -0.005426 0.000000
# 3 -0.003757 0.001208 0.008655 0.000000 -0.004409 0.000000
# 4 0.000000 0.000000 0.000000 -0.033567 0.000000 -0.062739
# 5 0.000784 -0.005426 -0.004409 0.000000 0.029549 0.000000
# 6 0.000000 0.000000 0.000000 -0.062739 0.000000 -0.023842
#
#
# Mechanical properties :
#
#
# Convention : Reuss Voigt Hill
#
# Bulk Modulus (GPa) = 53.44038 68.01884 60.72961
# Shear Modulus (GPa) = 124.86173 26.66019 75.76096
#
# Velocity S-wave (km/s) = 7.92470 3.66184 6.17293
# Velocity P-wave (km/s) = 10.51728 7.21733 9.01951
#
# Compressibility (1/GPa) = 0.01871244
#
# Stress axis : x y z
#
# Youngs Moduli (GPa) = 73.21683 55.93883 115.54608
#
# Poissons Ratio (x) = 0.45809 0.43413
# Poissons Ratio (y) = 0.59958 -0.13956
# Poissons Ratio (z) = 0.27509 -0.06756
#
# Static dielectric constant tensor:
#      x y z
#    x 1.702500 0.000000 -0.002950 
#    y 0.000000 1.706980 0.000000 
#    z -0.002950 0.000000 1.813050 
# 
# From -- ./inp_files/86490.got.cif
#   From: 2010.05.17/outbox.cif.g08.bks.cpg/sg15_44_cif.got.tgz:86490.got - 2010.06.03 18:47:42.
