data_PCOD9282808
_publ_section_title
;
Structure prediction by ZEFSAII (Michael W. Deem and Ramdas Pophale) SiO2 
 PCOD9282808
Probable space group: C 2/C
;
_chemical_formula_sum "Si O2"
_cell_formula_units_Z 48
_cell_length_a 13.185748
_cell_length_b 26.233847
_cell_length_c 7.851962
_cell_angle_alpha 90.000000
_cell_angle_beta 120.119524
_cell_angle_gamma 90.000000
_cell_volume 2349.369071
_symmetry_space_group_name_H-M "C 2/C"
_symmetry_group_IT_number 15
_symmetry_cell_setting 'monoclinic'
loop_
_space_group_symop_operation_xyz
x,y,z
-x,y,1/2-z
-x,-y,-z
x,-y,1/2+z
1/2+x,1/2+y,z
1/2-x,1/2+y,1/2-z
1/2-x,1/2-y,-z
1/2+x,1/2-y,1/2+z
loop_
_atom_site_type_symbol
_atom_site_label
_atom_site_fract_x
_atom_site_fract_y
_atom_site_fract_z
Si Si1 0.459057 0.845648 0.034357
Si Si2 0.177070 0.932851 0.060103
Si Si3 0.262155 0.970940 0.484698
Si Si4 0.315507 0.336237 0.649427
Si Si5 0.442507 0.408131 0.020714
Si Si6 0.500000 0.917980 0.750000
Si Si7 0.500000 0.250623 0.750000
O O1 0.500000 0.870213 0.250000
O O2 0.511283 0.788581 0.100536
O O3 0.319612 0.835025 0.908542
O O4 0.498350 0.880746 0.912546
O O5 0.249266 0.947725 0.286997
O O6 0.040858 0.938318 0.996300
O O7 0.186502 0.874926 0.010940
O O8 0.227949 0.969781 0.958676
O O9 0.163192 0.944549 0.516300
O O10 0.387453 0.954479 0.658952
O O11 0.384620 0.285640 0.653505
O O12 0.392620 0.362854 0.862823
O O13 0.500000 0.391431 0.250000
#
# Coordination Sequence:
#
# PCOD9282808 Si02
#       7
#     8   8   8   8   8   4   4
#     4  10  25  45  70  99 137 180 232 282 344 409
#     4  11  23  39  66  97 133 178 228 277 344 402
#     4  11  24  40  64  98 139 186 225 272 342 415
#     4  12  20  45  70  96 136 176 219 296 341 409
#     4  10  21  39  64  97 133 175 228 278 341 395
#     4  12  24  48  65  98 148 185 232 282 334 418
#     4  10  24  44  73 104 128 179 230 288 356 404
#
# _framework density 20.431016
#
# number of rings (size 3 to 8) (size 9 to 14) (size 15 to 20)
#    0.500    0.667    3.333    3.000    0.000    3.333 
#    3.000    0.833    0.000    0.000    0.000    0.000 
#    0.000    0.000    0.000    0.000    0.000    0.000 
#
# Total GULP energy -133989.997046 kJ/mol
# GULP energy per Si atom -5582.916544 kJ/mol
# Density = 2.038451 g / cm^3
# Si number density = 20.431016 Si / 1000 Ang^3
#
#
#
# Elastic Constant Matrix: (Units=GPa)
#
#
# Indices 1 2 3 4 5 6 
#
# 1 71.3275 34.0043 20.7550 0.0000 10.4833 0.0000
# 2 34.0043 55.2334 39.1756 0.0000 5.6988 0.0000
# 3 20.7550 39.1756 102.1919 0.0000 -4.5577 0.0000
# 4 0.0000 0.0000 0.0000 24.3288 0.0000 1.7193
# 5 10.4833 5.6988 -4.5577 0.0000 36.4838 0.0000
# 6 0.0000 0.0000 0.0000 1.7193 0.0000 15.5936
#
#
#
# Elastic Compliance Matrix: (Units=1/GPa)
#
#
# Indices 1 2 3 4 5 6 
#
# 1 0.020409 -0.012506 0.000477 0.000000 -0.003851 0.000000
# 2 -0.012506 0.033512 -0.010438 0.000000 -0.002945 0.000000
# 3 0.000477 -0.010438 0.013834 0.000000 0.003221 0.000000
# 4 0.000000 0.000000 0.000000 0.041426 0.000000 -0.004568
# 5 -0.003851 -0.002945 0.003221 0.000000 0.029378 0.000000
# 6 0.000000 0.000000 0.000000 -0.004568 0.000000 0.064632
#
#
# Mechanical properties :
#
#
# Convention : Reuss Voigt Hill
#
# Bulk Modulus (GPa) = 43.81963 46.29140 45.05551
# Shear Modulus (GPa) = 19.55171 24.26912 21.91042
#
# Velocity S-wave (km/s) = 3.09684 3.45027 3.27832
# Velocity P-wave (km/s) = 5.85503 6.21121 6.03574
#
# Compressibility (1/GPa) = 0.02282082
#
# Stress axis : x y z
#
# Youngs Moduli (GPa) = 48.99802 29.84038 72.28704
#
# Poissons Ratio (x) = 0.37318 -0.03451
# Poissons Ratio (y) = 0.61277 0.75455
# Poissons Ratio (z) = -0.02339 0.31148
#
# Static dielectric constant tensor:
#      x y z
#    x 1.780320 0.000000 -0.031020 
#    y 0.000000 1.728730 0.000000 
#    z -0.031020 0.000000 1.779560 
# 
# From -- ./inp_files/33853.got.cif
#   From: 2010.05.17/outbox.cif.g08.bks.cpg/sg15_17_cif.got.tgz:33853.got - 2010.06.03 18:47:42.
