data_PCOD9282566
_publ_section_title
;
Structure prediction by ZEFSAII (Michael W. Deem and Ramdas Pophale) SiO2 
 PCOD9282566
Probable space group: C 2/C
;
_chemical_formula_sum "Si O2"
_cell_formula_units_Z 52
_cell_length_a 15.292882
_cell_length_b 17.206539
_cell_length_c 13.873683
_cell_angle_alpha 90.000000
_cell_angle_beta 137.570637
_cell_angle_gamma 90.000000
_cell_volume 2463.048380
_symmetry_space_group_name_H-M "C 2/C"
_symmetry_group_IT_number 15
_symmetry_cell_setting 'monoclinic'
loop_
_space_group_symop_operation_xyz
x,y,z
-x,y,1/2-z
-x,-y,-z
x,-y,1/2+z
1/2+x,1/2+y,z
1/2-x,1/2+y,1/2-z
1/2-x,1/2-y,-z
1/2+x,1/2-y,1/2+z
loop_
_atom_site_type_symbol
_atom_site_label
_atom_site_fract_x
_atom_site_fract_y
_atom_site_fract_z
Si Si1 0.196181 0.709189 0.052360
Si Si2 0.184398 0.586153 0.732063
Si Si3 0.669320 0.022371 0.053483
Si Si4 0.503947 0.389965 0.034112
Si Si5 0.551475 0.522409 0.199484
Si Si6 0.500000 0.040780 0.750000
Si Si7 0.587946 0.244309 0.614958
O O1 0.178698 0.615562 0.044580
O O2 0.295378 0.730759 0.219148
O O3 0.250000 0.750000 0.000000
O O4 0.051397 0.742353 0.946231
O O5 0.147464 0.507609 0.644327
O O6 0.340353 0.600309 0.861601
O O7 0.110212 0.586155 0.775241
O O8 0.124079 0.656049 0.620460
O O9 0.812538 0.990627 0.153812
O O10 0.575083 0.994392 0.893311
O O11 0.474017 0.448485 0.096588
O O12 0.436977 0.423231 0.883192
O O13 0.443967 0.305026 0.995670
O O14 0.500000 0.567004 0.250000
#
# Coordination Sequence:
#
# PCOD9282566 Si02
#       7
#     8   8   8   8   8   4   8
#     4  12  25  38  59  96 127 165 204 261 326 379
#     4  11  24  41  61  91 127 170 212 261 321 380
#     4  11  24  40  62  90 128 167 211 260 315 389
#     4  10  22  39  61  91 122 162 213 265 322 379
#     4  10  21  39  63  89 121 163 211 264 320 382
#     4  12  22  38  60  90 122 166 210 260 314 382
#     4  12  23  38  61  87 130 163 206 261 325 377
#
# _framework density 21.112048999999999
#
# number of rings (size 3 to 8) (size 9 to 14) (size 15 to 20)
#    0.000    0.923    4.615    2.769    2.154    0.000 
#    0.000    0.000    1.692    1.846    0.000    0.000 
#    0.000    0.000    0.000    0.000    0.000    0.000 
#
# Total GULP energy -144772.047650 kJ/mol
# GULP energy per Si atom -5568.155679 kJ/mol
# Density = 2.106400 g / cm^3
# Si number density = 21.112049 Si / 1000 Ang^3
#
#
#
# Elastic Constant Matrix: (Units=GPa)
#
#
# Indices 1 2 3 4 5 6 
#
# 1 47.7064 11.7921 25.4775 0.0000 -1.4105 0.0000
# 2 11.7921 93.0300 13.6307 0.0000 -17.2529 0.0000
# 3 25.4775 13.6307 119.3968 0.0000 10.3838 0.0000
# 4 0.0000 0.0000 0.0000 34.7552 0.0000 7.5213
# 5 -1.4105 -17.2529 10.3838 0.0000 25.5951 0.0000
# 6 0.0000 0.0000 0.0000 7.5213 0.0000 14.1499
#
#
#
# Elastic Compliance Matrix: (Units=1/GPa)
#
#
# Indices 1 2 3 4 5 6 
#
# 1 0.024244 -0.001927 -0.005138 0.000000 0.002122 0.000000
# 2 -0.001927 0.013022 -0.001897 0.000000 0.009441 0.000000
# 3 -0.005138 -0.001897 0.010183 0.000000 -0.005693 0.000000
# 4 0.000000 0.000000 0.000000 0.032513 0.000000 -0.017282
# 5 0.002122 0.009441 -0.005693 0.000000 0.047861 0.000000
# 6 0.000000 0.000000 0.000000 -0.017282 0.000000 0.079858
#
#
# Mechanical properties :
#
#
# Convention : Reuss Voigt Hill
#
# Bulk Modulus (GPa) = 33.86688 40.21488 37.04088
# Shear Modulus (GPa) = 21.23620 28.84887 25.04254
#
# Velocity S-wave (km/s) = 3.17500 3.70058 3.44782
# Velocity P-wave (km/s) = 5.43297 6.11136 5.78212
#
# Compressibility (1/GPa) = 0.02952738
#
# Stress axis : x y z
#
# Youngs Moduli (GPa) = 41.24648 76.79158 98.19865
#
# Poissons Ratio (x) = 0.14796 0.50454
# Poissons Ratio (y) = 0.07948 0.18624
# Poissons Ratio (z) = 0.21192 0.14564
#
# Static dielectric constant tensor:
#      x y z
#    x 1.920300 0.000000 0.022410 
#    y 0.000000 1.863420 0.000000 
#    z 0.022410 0.000000 1.788150 
# 
# From -- ./inp_files/113696.got.cif
#   From: 2010.05.17/outbox.cif.g08.bks.cpg/sg15_57_cif.got.tgz:113696.got - 2010.06.03 18:47:42.
