data_PCOD9282410
_publ_section_title
;
Structure prediction by ZEFSAII (Michael W. Deem and Ramdas Pophale) SiO2 
 PCOD9282410
Probable space group: C 2/C
;
_chemical_formula_sum "Si O2"
_cell_formula_units_Z 40
_cell_length_a 4.924386
_cell_length_b 16.834371
_cell_length_c 21.998133
_cell_angle_alpha 90.000000
_cell_angle_beta 78.462313
_cell_angle_gamma 90.000000
_cell_volume 1786.772648
_symmetry_space_group_name_H-M "C 2/C"
_symmetry_group_IT_number 15
_symmetry_cell_setting 'monoclinic'
loop_
_space_group_symop_operation_xyz
x,y,z
-x,y,1/2-z
-x,-y,-z
x,-y,1/2+z
1/2+x,1/2+y,z
1/2-x,1/2+y,1/2-z
1/2-x,1/2-y,-z
1/2+x,1/2-y,1/2+z
loop_
_atom_site_type_symbol
_atom_site_label
_atom_site_fract_x
_atom_site_fract_y
_atom_site_fract_z
Si Si1 0.983136 0.482481 0.318260
Si Si2 0.670889 0.219936 0.934335
Si Si3 0.008244 0.125097 0.679702
Si Si4 0.348978 0.914225 0.508841
Si Si5 0.722918 0.610730 0.415765
O O1 0.798910 0.403888 0.320549
O O2 0.804551 0.543758 0.364939
O O3 0.000000 0.517014 0.250000
O O4 0.281503 0.451608 0.327732
O O5 0.893509 0.179585 0.880067
O O6 0.607361 0.302826 0.903505
O O7 0.750000 0.250000 0.000000
O O8 0.442955 0.150638 0.954858
O O9 0.000000 0.156682 0.750000
O O10 0.483709 0.878386 0.563771
O O11 0.020999 0.920104 0.529093
O O12 0.500000 0.000000 0.500000
#
# Coordination Sequence:
#
# PCOD9282410 Si02
#       5
#     8   8   8   8   8
#     4  10  21  39  62  86 114 155 205 249 295 360
#     4  10  23  39  59  90 126 157 198 250 305 360
#     4  10  22  41  63  85 116 159 203 246 298 364
#     4  11  22  37  57  82 114 155 194 236 288 350
#     4  11  22  36  56  85 116 148 188 243 296 344
#
# _framework density 22.386733
#
# number of rings (size 3 to 8) (size 9 to 14) (size 15 to 20)
#    0.000    1.600    0.000    4.800    0.000    8.800 
#    0.000    0.000    0.000    7.200    0.000    0.000 
#    0.000    0.000    0.000    0.000    0.000    0.000 
#
# Total GULP energy -111446.117468 kJ/mol
# GULP energy per Si atom -5572.305873 kJ/mol
# Density = 2.233578 g / cm^3
# Si number density = 22.386733 Si / 1000 Ang^3
#
#
#
# Elastic Constant Matrix: (Units=GPa)
#
#
# Indices 1 2 3 4 5 6 
#
# 1 89.0364 2.2419 15.9127 0.0000 -10.9159 0.0000
# 2 2.2419 88.7686 29.0323 0.0000 -9.9437 0.0000
# 3 15.9127 29.0323 129.2573 0.0000 -17.8069 0.0000
# 4 0.0000 0.0000 0.0000 -33.0146 0.0000 -10.1248
# 5 -10.9159 -9.9437 -17.8069 0.0000 32.8602 0.0000
# 6 0.0000 0.0000 0.0000 -10.1248 0.0000 19.6760
#
#
#
# Elastic Compliance Matrix: (Units=1/GPa)
#
#
# Indices 1 2 3 4 5 6 
#
# 1 0.011840 0.000444 -0.001077 0.000000 0.003484 0.000000
# 2 0.000444 0.012349 -0.002478 0.000000 0.002541 0.000000
# 3 -0.001077 -0.002478 0.008941 0.000000 0.003737 0.000000
# 4 0.000000 0.000000 0.000000 -0.026161 0.000000 -0.013462
# 5 0.003484 0.002541 0.003737 0.000000 0.034383 0.000000
# 6 0.000000 0.000000 0.000000 -0.013462 0.000000 0.043896
#
#
# Mechanical properties :
#
#
# Convention : Reuss Voigt Hill
#
# Bulk Modulus (GPa) = 37.16697 44.60403 40.88550
# Shear Modulus (GPa) = 49.78071 21.22935 35.50503
#
# Velocity S-wave (km/s) = 4.72070 3.08279 3.98676
# Velocity P-wave (km/s) = 6.80820 5.71306 6.28453
#
# Compressibility (1/GPa) = 0.02690561
#
# Stress axis : x y z
#
# Youngs Moduli (GPa) = 84.46084 80.97665 111.84928
#
# Poissons Ratio (x) = -0.03592 0.12050
# Poissons Ratio (y) = -0.03746 0.27719
# Poissons Ratio (z) = 0.09099 0.20068
#
# Static dielectric constant tensor:
#      x y z
#    x 1.814050 0.000000 0.037300 
#    y 0.000000 1.926940 0.000000 
#    z 0.037300 0.000000 1.908390 
# 
# From -- ./inp_files/226759.got.cif
#   From: 2010.05.17/outbox.cif.g08.bks.cpg/sg15_114_cif.got.tgz:226759.got - 2010.06.03 18:47:42.
