data_PCOD9282456
_publ_section_title
;
Structure prediction by ZEFSAII (Michael W. Deem and Ramdas Pophale) SiO2 
 PCOD9282456
Probable space group: C 2/C
;
_chemical_formula_sum "Si O2"
_cell_formula_units_Z 52
_cell_length_a 6.653564
_cell_length_b 13.463458
_cell_length_c 27.448949
_cell_angle_alpha 90.000000
_cell_angle_beta 71.275485
_cell_angle_gamma 90.000000
_cell_volume 2328.735370
_symmetry_space_group_name_H-M "C 2/C"
_symmetry_group_IT_number 15
_symmetry_cell_setting 'monoclinic'
loop_
_space_group_symop_operation_xyz
x,y,z
-x,y,1/2-z
-x,-y,-z
x,-y,1/2+z
1/2+x,1/2+y,z
1/2-x,1/2+y,1/2-z
1/2-x,1/2-y,-z
1/2+x,1/2-y,1/2+z
loop_
_atom_site_type_symbol
_atom_site_label
_atom_site_fract_x
_atom_site_fract_y
_atom_site_fract_z
Si Si1 0.580801 0.342958 0.512739
Si Si2 0.203905 0.839530 0.814037
Si Si3 0.672750 0.298517 0.603799
Si Si4 0.673955 0.078740 0.593470
Si Si5 0.869058 0.354264 0.912454
Si Si6 0.715402 0.941279 0.206111
Si Si7 0.500000 0.678151 0.750000
O O1 0.750000 0.250000 0.500000
O O2 0.631608 0.378365 0.564006
O O3 0.641251 0.408586 0.461652
O O4 0.328620 0.327282 0.537057
O O5 0.295491 0.839258 0.862382
O O6 0.306134 0.747993 0.779344
O O7 0.951005 0.832778 0.839028
O O8 0.265784 0.942054 0.784859
O O9 0.572101 0.189664 0.599003
O O10 0.922726 0.290965 0.592154
O O11 0.718583 0.070935 0.647550
O O12 0.573625 0.972124 0.587634
O O13 0.500000 0.906659 0.250000
O O14 0.919064 0.887725 0.212120
#
# Coordination Sequence:
#
# PCOD9282456 Si02
#       7
#     8   8   8   8   8   8   4
#     4   9  20  38  60  93 130 164 213 266 314 390
#     4  10  23  42  62  93 130 157 215 275 314 390
#     4  10  21  39  62  93 124 173 209 254 329 384
#     4  10  21  39  62  90 128 162 212 266 312 383
#     4  10  21  39  64  89 128 169 207 265 325 380
#     4  11  24  43  64  95 126 165 220 266 330 393
#     4  12  24  44  70  90 126 174 212 274 336 382
#
# _framework density 22.329716999999999
#
# number of rings (size 3 to 8) (size 9 to 14) (size 15 to 20)
#    0.000    1.846    0.769    2.308    0.000    6.769 
#    4.154   12.308    0.000    0.000    0.000    0.000 
#    0.000    0.000    0.000    0.000    0.000    0.000 
#
# Total GULP energy -144821.005240 kJ/mol
# GULP energy per Si atom -5570.038663 kJ/mol
# Density = 2.227889 g / cm^3
# Si number density = 22.329717 Si / 1000 Ang^3
#
#
#
# Elastic Constant Matrix: (Units=GPa)
#
#
# Indices 1 2 3 4 5 6 
#
# 1 65.9417 22.6186 19.6281 0.0000 -20.9922 0.0000
# 2 22.6186 98.7642 25.5133 0.0000 2.1275 0.0000
# 3 19.6281 25.5133 87.0121 0.0000 -12.5123 0.0000
# 4 0.0000 0.0000 0.0000 34.3427 0.0000 -9.6835
# 5 -20.9922 2.1275 -12.5123 0.0000 31.3249 0.0000
# 6 0.0000 0.0000 0.0000 -9.6835 0.0000 36.1742
#
#
#
# Elastic Compliance Matrix: (Units=1/GPa)
#
#
# Indices 1 2 3 4 5 6 
#
# 1 0.021881 -0.004959 -0.001406 0.000000 0.014439 0.000000
# 2 -0.004959 0.012217 -0.003247 0.000000 -0.005450 0.000000
# 3 -0.001406 -0.003247 0.013430 0.000000 0.004643 0.000000
# 4 0.000000 0.000000 0.000000 0.031496 0.000000 0.008431
# 5 0.014439 -0.005450 0.004643 0.000000 0.043824 0.000000
# 6 0.000000 0.000000 0.000000 0.008431 0.000000 0.029901
#
#
# Mechanical properties :
#
#
# Convention : Reuss Voigt Hill
#
# Bulk Modulus (GPa) = 35.33106 43.02642 39.17874
# Shear Modulus (GPa) = 27.56247 32.63223 30.09735
#
# Velocity S-wave (km/s) = 3.51713 3.82695 3.67530
# Velocity P-wave (km/s) = 5.68774 6.23201 5.96608
#
# Compressibility (1/GPa) = 0.02830371
#
# Stress axis : x y z
#
# Youngs Moduli (GPa) = 45.70234 81.85267 74.46281
#
# Poissons Ratio (x) = 0.40591 0.10466
# Poissons Ratio (y) = 0.22664 0.24180
# Poissons Ratio (z) = 0.06424 0.26580
#
# Static dielectric constant tensor:
#      x y z
#    x 1.833890 0.000000 -0.027510 
#    y 0.000000 1.871110 0.000000 
#    z -0.027510 0.000000 1.928930 
# 
# From -- ./inp_files/305355.got.cif
#   From: 2010.05.17/outbox.cif.g08.bks.cpg/sg15_153_cif.got.tgz:305355.got - 2010.06.03 18:47:42.
