data_PCOD9282188
_publ_section_title
;
Structure prediction by ZEFSAII (Michael W. Deem and Ramdas Pophale) SiO2 
 PCOD9282188
Probable space group: C 2/C
;
_chemical_formula_sum "Si O2"
_cell_formula_units_Z 40
_cell_length_a 15.691622
_cell_length_b 10.979133
_cell_length_c 13.442397
_cell_angle_alpha 90.000000
_cell_angle_beta 63.515501
_cell_angle_gamma 90.000000
_cell_volume 2072.823607
_symmetry_space_group_name_H-M "C 2/C"
_symmetry_group_IT_number 15
_symmetry_cell_setting 'monoclinic'
loop_
_space_group_symop_operation_xyz
x,y,z
-x,y,1/2-z
-x,-y,-z
x,-y,1/2+z
1/2+x,1/2+y,z
1/2-x,1/2+y,1/2-z
1/2-x,1/2-y,-z
1/2+x,1/2-y,1/2+z
loop_
_atom_site_type_symbol
_atom_site_label
_atom_site_fract_x
_atom_site_fract_y
_atom_site_fract_z
Si Si1 0.381432 0.173026 0.402000
Si Si2 0.613292 0.430402 0.355424
Si Si3 0.763086 0.482630 0.116886
Si Si4 0.095154 0.037162 0.579426
Si Si5 0.095386 0.349841 0.838776
O O1 0.308757 0.115744 0.518314
O O2 0.389732 0.319365 0.405926
O O3 0.360933 0.146972 0.296242
O O4 0.484813 0.118686 0.377700
O O5 0.708941 0.433573 0.242069
O O6 0.618699 0.505347 0.453580
O O7 0.518389 0.481429 0.349725
O O8 0.594194 0.287693 0.380913
O O9 0.672512 0.536508 0.103500
O O10 0.845162 0.569377 0.115855
#
# Coordination Sequence:
#
# PCOD9282188 Si02
#       5
#     8   8   8   8   8
#     4  10  21  40  61  82 118 159 196 234 299 353
#     4  10  22  37  59  87 117 153 197 244 293 348
#     4  12  21  33  62  88 115 151 199 242 288 349
#     4  10  21  39  59  84 117 155 198 244 292 348
#     4  10  22  39  58  87 119 154 194 246 290 351
#
# _framework density 19.297349000000001
#
# number of rings (size 3 to 8) (size 9 to 14) (size 15 to 20)
#    0.000    1.600    2.000    3.000    2.800    0.800 
#    0.000    0.000    0.000    0.000    0.000    0.000 
#    0.000    0.000    0.000    0.000    0.000    0.000 
#
# Total GULP energy -111460.391719 kJ/mol
# GULP energy per Si atom -5573.019586 kJ/mol
# Density = 1.925343 g / cm^3
# Si number density = 19.297349 Si / 1000 Ang^3
#
#
#
# Elastic Constant Matrix: (Units=GPa)
#
#
# Indices 1 2 3 4 5 6 
#
# 1 113.2827 22.4448 14.4726 0.0000 12.5827 0.0000
# 2 22.4448 16.7836 9.8643 0.0000 9.7501 0.0000
# 3 14.4726 9.8643 80.0095 0.0000 -8.3033 0.0000
# 4 0.0000 0.0000 0.0000 29.2157 0.0000 3.2154
# 5 12.5827 9.7501 -8.3033 0.0000 43.4058 0.0000
# 6 0.0000 0.0000 0.0000 3.2154 0.0000 23.0186
#
#
#
# Elastic Compliance Matrix: (Units=1/GPa)
#
#
# Indices 1 2 3 4 5 6 
#
# 1 0.012013 -0.015994 -0.000194 0.000000 0.000073 0.000000
# 2 -0.015994 0.099181 -0.011392 0.000000 -0.019822 0.000000
# 3 -0.000194 -0.011392 0.014497 0.000000 0.005388 0.000000
# 4 0.000000 0.000000 0.000000 0.034763 0.000000 -0.004856
# 5 0.000073 -0.019822 0.005388 0.000000 0.028500 0.000000
# 6 0.000000 0.000000 0.000000 -0.004856 0.000000 0.044121
#
#
# Mechanical properties :
#
#
# Convention : Reuss Voigt Hill
#
# Bulk Modulus (GPa) = 14.17781 33.73768 23.95774
# Shear Modulus (GPa) = 16.03874 30.01428 23.02651
#
# Velocity S-wave (km/s) = 2.88607 3.94808 3.45809
# Velocity P-wave (km/s) = 4.29754 6.18903 5.32790
#
# Compressibility (1/GPa) = 0.07053277
#
# Stress axis : x y z
#
# Youngs Moduli (GPa) = 83.24372 10.08256 68.97876
#
# Poissons Ratio (x) = 0.16126 0.01335
# Poissons Ratio (y) = 1.33138 0.78581
# Poissons Ratio (z) = 0.01611 0.11486
#
# Static dielectric constant tensor:
#      x y z
#    x 1.728430 0.000000 -0.016300 
#    y 0.000000 1.644060 0.000000 
#    z -0.016300 0.000000 1.708220 
# 
# From -- ./inp_files/94479.got.cif
#   From: 2010.05.17/outbox.cif.g08.bks.cpg/sg15_48_cif.got.tgz:94479.got - 2010.06.03 18:47:42.
