data_PCOD9282844
_publ_section_title
;
Structure prediction by ZEFSAII (Michael W. Deem and Ramdas Pophale) SiO2 
 PCOD9282844
Probable space group: C 2/C
;
_chemical_formula_sum "Si O2"
_cell_formula_units_Z 56
_cell_length_a 7.835083
_cell_length_b 28.924144
_cell_length_c 13.026413
_cell_angle_alpha 90.000000
_cell_angle_beta 52.509213
_cell_angle_gamma 90.000000
_cell_volume 2342.335985
_symmetry_space_group_name_H-M "C 2/C"
_symmetry_group_IT_number 15
_symmetry_cell_setting 'monoclinic'
loop_
_space_group_symop_operation_xyz
x,y,z
-x,y,1/2-z
-x,-y,-z
x,-y,1/2+z
1/2+x,1/2+y,z
1/2-x,1/2+y,1/2-z
1/2-x,1/2-y,-z
1/2+x,1/2-y,1/2+z
loop_
_atom_site_type_symbol
_atom_site_label
_atom_site_fract_x
_atom_site_fract_y
_atom_site_fract_z
Si Si1 0.505300 0.142930 0.918198
Si Si2 0.547129 0.266358 0.346491
Si Si3 0.721529 0.828126 0.550414
Si Si4 0.224682 0.440026 0.219762
Si Si5 0.500000 0.903393 0.750000
Si Si6 0.374949 0.424260 0.948104
Si Si7 0.280526 0.035694 0.181952
Si Si8 0.000000 0.279195 0.250000
O O1 0.660047 0.106865 0.801019
O O2 0.481631 0.187985 0.856527
O O3 0.619889 0.151436 0.983817
O O4 0.265401 0.121900 0.016624
O O5 0.500000 0.286251 0.250000
O O6 0.411156 0.219499 0.390413
O O7 0.459672 0.307570 0.450787
O O8 0.781911 0.252878 0.301346
O O9 0.684872 0.865924 0.651533
O O10 0.276493 0.483460 0.270240
O O11 0.000000 0.454280 0.250000
O O12 0.385285 0.433174 0.065518
O O13 0.519176 0.938640 0.838880
O O14 0.220436 0.459207 0.939898
O O15 0.595897 0.433788 0.808357
#
# Coordination Sequence:
#
# PCOD9282844 Si02
#       8
#     8   8   8   8   4   8   8   4
#     4  11  22  42  70  96 134 176 230 284 336 414
#     4  11  25  48  74 100 144 177 228 296 346 427
#     4  11  25  47  68 102 140 176 226 287 354 414
#     4  10  21  39  65  90 129 174 227 284 332 402
#     4  12  24  39  66  98 132 180 220 275 342 410
#     4  10  22  40  59  92 129 173 220 287 325 403
#     4  11  23  39  61  94 131 178 221 276 347 392
#     4  12  24  45  74 108 130 182 234 275 362 404
#
# _framework density 23.907758999999999
#
# number of rings (size 3 to 8) (size 9 to 14) (size 15 to 20)
#    0.000    1.143    6.429    0.429    2.000    4.000 
#    2.571    2.857    0.000    0.000    0.000    0.000 
#    0.000    0.000    0.000    0.000    0.000    0.000 
#
# Total GULP energy -156182.196694 kJ/mol
# GULP energy per Si atom -5577.935596 kJ/mol
# Density = 2.385334 g / cm^3
# Si number density = 23.907759 Si / 1000 Ang^3
#
#
#
# Elastic Constant Matrix: (Units=GPa)
#
#
# Indices 1 2 3 4 5 6 
#
# 1 46.2304 -2.2051 -7.8477 0.0000 -0.0719 0.0000
# 2 -2.2051 59.2452 6.2823 0.0000 3.7905 0.0000
# 3 -7.8477 6.2823 61.0697 0.0000 0.9376 0.0000
# 4 0.0000 0.0000 0.0000 20.1355 0.0000 6.9202
# 5 -0.0719 3.7905 0.9376 0.0000 26.5029 0.0000
# 6 0.0000 0.0000 0.0000 6.9202 0.0000 12.5172
#
#
#
# Elastic Compliance Matrix: (Units=1/GPa)
#
#
# Indices 1 2 3 4 5 6 
#
# 1 0.022130 0.000535 0.002790 0.000000 -0.000115 0.000000
# 2 0.000535 0.017229 -0.001667 0.000000 -0.002404 0.000000
# 3 0.002790 -0.001667 0.016910 0.000000 -0.000352 0.000000
# 4 0.000000 0.000000 0.000000 0.061313 0.000000 -0.033897
# 5 -0.000115 -0.002404 -0.000352 0.000000 0.038088 0.000000
# 6 0.000000 0.000000 0.000000 -0.033897 0.000000 0.098630
#
#
# Mechanical properties :
#
#
# Convention : Reuss Voigt Hill
#
# Bulk Modulus (GPa) = 16.78212 17.66715 17.22464
# Shear Modulus (GPa) = 18.46071 23.18551 20.82311
#
# Velocity S-wave (km/s) = 2.78180 3.11752 2.95443
# Velocity P-wave (km/s) = 4.16565 4.51269 4.34264
#
# Compressibility (1/GPa) = 0.05958722
#
# Stress axis : x y z
#
# Youngs Moduli (GPa) = 45.18794 58.04017 59.13599
#
# Poissons Ratio (x) = -0.03106 -0.16502
# Poissons Ratio (y) = -0.02418 0.09856
# Poissons Ratio (z) = -0.12610 0.09674
#
# Static dielectric constant tensor:
#      x y z
#    x 2.060290 0.000000 -0.027780 
#    y 0.000000 1.907680 0.000000 
#    z -0.027780 0.000000 2.048950 
# 
# From -- ./inp_files/139489.got.cif
#   From: 2010.05.17/outbox.cif.g08.bks.cpg/sg15_70_cif.got.tgz:139489.got - 2010.06.03 18:47:42.
