data_PCOD9282212
_publ_section_title
;
Structure prediction by ZEFSAII (Michael W. Deem and Ramdas Pophale) SiO2 
 PCOD9282212
Probable space group: C 2/C
;
_chemical_formula_sum "Si O2"
_cell_formula_units_Z 64
_cell_length_a 14.972791
_cell_length_b 10.679988
_cell_length_c 18.747590
_cell_angle_alpha 90.000000
_cell_angle_beta 51.485537
_cell_angle_gamma 90.000000
_cell_volume 2345.719726
_symmetry_space_group_name_H-M "C 2/C"
_symmetry_group_IT_number 15
_symmetry_cell_setting 'monoclinic'
loop_
_space_group_symop_operation_xyz
x,y,z
-x,y,1/2-z
-x,-y,-z
x,-y,1/2+z
1/2+x,1/2+y,z
1/2-x,1/2+y,1/2-z
1/2-x,1/2-y,-z
1/2+x,1/2-y,1/2+z
loop_
_atom_site_type_symbol
_atom_site_label
_atom_site_fract_x
_atom_site_fract_y
_atom_site_fract_z
Si Si1 0.839915 0.934934 0.121347
Si Si2 0.039215 0.302775 0.014624
Si Si3 0.401974 0.861547 0.948109
Si Si4 0.752292 0.579344 0.141888
Si Si5 0.870110 0.191348 0.409670
Si Si6 0.890911 0.859137 0.257458
Si Si7 0.348853 0.418470 0.481747
Si Si8 0.864528 0.579597 0.235654
O O1 0.886206 0.913122 0.178361
O O2 0.873306 0.053507 0.054110
O O3 0.703511 0.964070 0.195647
O O4 0.889417 0.813347 0.056465
O O5 0.134585 0.410237 0.962078
O O6 0.937883 0.342726 0.013802
O O7 0.028498 0.266334 0.102478
O O8 0.284772 0.905891 0.970954
O O9 0.507006 0.933161 0.857388
O O10 0.402959 0.711193 0.928700
O O11 0.655463 0.672694 0.160618
O O12 0.709857 0.438889 0.158322
O O13 0.789134 0.609451 0.203106
O O14 0.750000 0.250000 0.500000
O O15 0.884158 0.048557 0.428458
O O16 0.000000 0.891139 0.250000
O O17 0.867230 0.711504 0.275140
#
# Coordination Sequence:
#
# PCOD9282212 Si02
#       8
#     8   8   8   8   8   8   8   8
#     4  10  21  39  59  90 124 164 204 258 315 369
#     4   9  18  39  64  85 125 162 207 252 314 370
#     4  10  21  39  60  94 124 160 205 268 299 371
#     4   9  19  37  60  86 122 158 203 254 304 368
#     4   9  19  36  60  85 116 169 196 251 309 368
#     4  11  23  35  61  90 119 158 209 259 303 366
#     4  10  23  36  63  93 127 160 212 254 313 368
#     4  10  22  39  62  88 128 162 207 260 317 355
#
# _framework density 27.283738
#
# number of rings (size 3 to 8) (size 9 to 14) (size 15 to 20)
#    0.000    2.250    2.500    0.000    3.500    4.000 
#    0.000    5.625    8.250    4.500    0.000    0.000 
#    0.000    0.000    0.000    0.000    0.000    0.000 
#
# Total GULP energy -178815.104294 kJ/mol
# GULP energy per Si atom -5587.972009 kJ/mol
# Density = 2.722164 g / cm^3
# Si number density = 27.283738 Si / 1000 Ang^3
#
#
#
# Elastic Constant Matrix: (Units=GPa)
#
#
# Indices 1 2 3 4 5 6 
#
# 1 184.1262 63.5477 48.7095 0.0000 1.2504 0.0000
# 2 63.5477 117.3683 20.5938 0.0000 -8.9767 0.0000
# 3 48.7095 20.5938 64.1028 0.0000 9.7277 0.0000
# 4 0.0000 0.0000 0.0000 32.7710 0.0000 -11.9800
# 5 1.2504 -8.9767 9.7277 0.0000 38.0075 0.0000
# 6 0.0000 0.0000 0.0000 -11.9800 0.0000 51.5897
#
#
#
# Elastic Compliance Matrix: (Units=1/GPa)
#
#
# Indices 1 2 3 4 5 6 
#
# 1 0.007913 -0.003400 -0.004951 0.000000 0.000204 0.000000
# 2 -0.003400 0.010829 -0.001353 0.000000 0.003016 0.000000
# 3 -0.004951 -0.001353 0.020622 0.000000 -0.005435 0.000000
# 4 0.000000 0.000000 0.000000 0.033346 0.000000 0.007743
# 5 0.000204 0.003016 -0.005435 0.000000 0.028407 0.000000
# 6 0.000000 0.000000 0.000000 0.007743 0.000000 0.021182
#
#
# Mechanical properties :
#
#
# Convention : Reuss Voigt Hill
#
# Bulk Modulus (GPa) = 50.11326 70.14436 60.12881
# Shear Modulus (GPa) = 33.70197 39.99005 36.84601
#
# Velocity S-wave (km/s) = 3.51841 3.83261 3.67887
# Velocity P-wave (km/s) = 5.90872 6.73426 6.33495
#
# Compressibility (1/GPa) = 0.01995480
#
# Stress axis : x y z
#
# Youngs Moduli (GPa) = 126.37435 92.34321 48.49235
#
# Poissons Ratio (x) = 0.31397 0.24011
# Poissons Ratio (y) = 0.42967 0.06562
# Poissons Ratio (z) = 0.62574 0.12495
#
# Static dielectric constant tensor:
#      x y z
#    x 2.094840 0.000000 0.017390 
#    y 0.000000 2.151860 0.000000 
#    z 0.017390 0.000000 2.332420 
# 
# From -- ./inp_files/243706.got.cif
#   From: 2010.05.17/outbox.cif.g08.bks.cpg/sg15_122_cif.got.tgz:243706.got - 2010.06.03 18:47:42.
