data_PCOD9282807
_publ_section_title
;
Structure prediction by ZEFSAII (Michael W. Deem and Ramdas Pophale) SiO2 
 PCOD9282807
Probable space group: C 2/C
;
_chemical_formula_sum "Si O2"
_cell_formula_units_Z 40
_cell_length_a 14.529664
_cell_length_b 17.272752
_cell_length_c 7.855375
_cell_angle_alpha 90.000000
_cell_angle_beta 47.976992
_cell_angle_gamma 90.000000
_cell_volume 1464.537166
_symmetry_space_group_name_H-M "C 2/C"
_symmetry_group_IT_number 15
_symmetry_cell_setting 'monoclinic'
loop_
_space_group_symop_operation_xyz
x,y,z
-x,y,1/2-z
-x,-y,-z
x,-y,1/2+z
1/2+x,1/2+y,z
1/2-x,1/2+y,1/2-z
1/2-x,1/2-y,-z
1/2+x,1/2-y,1/2+z
loop_
_atom_site_type_symbol
_atom_site_label
_atom_site_fract_x
_atom_site_fract_y
_atom_site_fract_z
Si Si1 0.464229 0.795772 0.116139
Si Si2 0.133926 0.385354 0.678926
Si Si3 0.707631 0.066056 0.591610
Si Si4 0.055806 0.919360 0.494144
Si Si5 0.341096 0.660556 0.116112
O O1 0.500000 0.756571 0.250000
O O2 0.406487 0.878951 0.229737
O O3 0.354619 0.749663 0.156301
O O4 0.590774 0.818192 0.868003
O O5 0.159783 0.478089 0.647549
O O6 0.278474 0.358018 0.513835
O O7 0.000000 0.382439 0.750000
O O8 0.800342 0.074301 0.637704
O O9 0.771763 0.103634 0.342022
O O10 0.000000 0.907546 0.750000
O O11 0.986697 0.859613 0.458001
O O12 0.000000 0.000000 0.500000
#
# Coordination Sequence:
#
# PCOD9282807 Si02
#       5
#     8   8   8   8   8
#     4  12  25  44  75 104 140 190 244 297 356 432
#     4  12  28  44  71 107 148 189 239 299 367 423
#     4  11  23  43  74 105 137 184 240 300 350 425
#     4  10  21  39  64  97 131 176 230 285 345 417
#     4  11  25  45  71 103 143 190 245 291 352 434
#
# _framework density 27.312381999999999
#
# number of rings (size 3 to 8) (size 9 to 14) (size 15 to 20)
#    0.000    0.800    4.000    3.600    5.600    0.800 
#    0.000    1.000    0.000    0.000    0.000    0.000 
#    0.000    0.000    0.000    0.000    0.000    0.000 
#
# Total GULP energy -111398.759359 kJ/mol
# GULP energy per Si atom -5569.937968 kJ/mol
# Density = 2.725022 g / cm^3
# Si number density = 27.312382 Si / 1000 Ang^3
#
#
#
# Elastic Constant Matrix: (Units=GPa)
#
#
# Indices 1 2 3 4 5 6 
#
# 1 239.4032 29.5998 15.2042 0.0000 -30.1496 0.0000
# 2 29.5998 137.4286 14.7913 0.0000 6.3743 0.0000
# 3 15.2042 14.7913 65.2398 0.0000 0.7300 0.0000
# 4 0.0000 0.0000 0.0000 21.4139 0.0000 -26.0940
# 5 -30.1496 6.3743 0.7300 0.0000 37.9194 0.0000
# 6 0.0000 0.0000 0.0000 -26.0940 0.0000 57.2115
#
#
#
# Elastic Compliance Matrix: (Units=1/GPa)
#
#
# Indices 1 2 3 4 5 6 
#
# 1 0.004894 -0.001145 -0.000927 0.000000 0.004101 0.000000
# 2 -0.001145 0.007783 -0.001473 0.000000 -0.002190 0.000000
# 3 -0.000927 -0.001473 0.015887 0.000000 -0.000795 0.000000
# 4 0.000000 0.000000 0.000000 0.105125 0.000000 0.047947
# 5 0.004101 -0.002190 -0.000795 0.000000 0.030016 0.000000
# 6 0.000000 0.000000 0.000000 0.047947 0.000000 0.039347
#
#
# Mechanical properties :
#
#
# Convention : Reuss Voigt Hill
#
# Bulk Modulus (GPa) = 46.56697 62.36246 54.46472
# Shear Modulus (GPa) = 23.00962 48.80740 35.90851
#
# Velocity S-wave (km/s) = 2.90567 4.23189 3.62986
# Velocity P-wave (km/s) = 5.32391 6.83821 6.12801
#
# Compressibility (1/GPa) = 0.02147445
#
# Stress axis : x y z
#
# Youngs Moduli (GPa) = 204.33397 128.48221 62.94443
#
# Poissons Ratio (x) = 0.14705 0.05835
# Poissons Ratio (y) = 0.23387 0.09274
# Poissons Ratio (z) = 0.18940 0.18930
#
# Static dielectric constant tensor:
#      x y z
#    x 2.311390 0.000000 0.068770 
#    y 0.000000 2.103950 0.000000 
#    z 0.068770 0.000000 2.199580 
# 
# From -- ./inp_files/95999.got.cif
#   From: 2010.05.17/outbox.cif.g08.bks.cpg/sg15_48_cif.got.tgz:95999.got - 2010.06.03 18:47:42.
