data_PCOD9282054
_publ_section_title
;
Structure prediction by ZEFSAII (Michael W. Deem and Ramdas Pophale) SiO2 
 PCOD9282054
Probable space group: C 2/C
;
_chemical_formula_sum "Si O2"
_cell_formula_units_Z 40
_cell_length_a 8.811041
_cell_length_b 16.710869
_cell_length_c 12.952479
_cell_angle_alpha 90.000000
_cell_angle_beta 71.082549
_cell_angle_gamma 90.000000
_cell_volume 1804.114780
_symmetry_space_group_name_H-M "C 2/C"
_symmetry_group_IT_number 15
_symmetry_cell_setting 'monoclinic'
loop_
_space_group_symop_operation_xyz
x,y,z
-x,y,1/2-z
-x,-y,-z
x,-y,1/2+z
1/2+x,1/2+y,z
1/2-x,1/2+y,1/2-z
1/2-x,1/2-y,-z
1/2+x,1/2-y,1/2+z
loop_
_atom_site_type_symbol
_atom_site_label
_atom_site_fract_x
_atom_site_fract_y
_atom_site_fract_z
Si Si1 0.000000 0.834390 0.750000
Si Si2 0.438884 0.751045 0.478268
Si Si3 0.955175 0.898099 0.431705
Si Si4 0.089793 0.419470 0.442409
Si Si5 0.000000 0.519448 0.750000
Si Si6 0.161593 0.038547 0.328351
O O1 0.002906 0.780465 0.852105
O O2 0.858207 0.900835 0.763307
O O3 0.250000 0.750000 0.500000
O O4 0.489485 0.692413 0.560842
O O5 0.500681 0.838664 0.493441
O O6 0.776845 0.912334 0.428416
O O7 0.941961 0.926963 0.554011
O O8 0.083432 0.950337 0.339842
O O9 0.067793 0.426450 0.325146
O O10 0.000000 0.500000 0.500000
O O11 0.847133 0.467466 0.817334
#
# Coordination Sequence:
#
# PCOD9282054 Si02
#       6
#     4   8   8   8   4   8
#     4  10  23  42  64  97 138 172 232 277 346 418
#     4  11  25  42  68 100 142 183 225 290 348 410
#     4  10  22  43  66  96 138 176 227 280 354 404
#     4  12  25  42  67  99 137 182 231 285 343 420
#     4  12  23  38  68  99 132 176 240 275 348 410
#     4  10  21  38  68  98 129 176 220 286 339 418
#
# _framework density 22.171537000000001
#
# number of rings (size 3 to 8) (size 9 to 14) (size 15 to 20)
#    0.000    1.200    2.000    3.600    8.400    0.000 
#    0.000    0.000    0.000    3.600    0.000    0.000 
#    0.000    0.000    0.000    0.000    0.000    0.000 
#
# Total GULP energy -111577.059368 kJ/mol
# GULP energy per Si atom -5578.852968 kJ/mol
# Density = 2.212107 g / cm^3
# Si number density = 22.171537 Si / 1000 Ang^3
#
#
#
# Elastic Constant Matrix: (Units=GPa)
#
#
# Indices 1 2 3 4 5 6 
#
# 1 143.1797 56.4532 14.1067 0.0000 -5.4067 0.0000
# 2 56.4532 166.8779 30.7325 0.0000 -8.0389 0.0000
# 3 14.1067 30.7325 40.6595 0.0000 4.3780 0.0000
# 4 0.0000 0.0000 0.0000 17.0361 0.0000 5.7034
# 5 -5.4067 -8.0389 4.3780 0.0000 44.4654 0.0000
# 6 0.0000 0.0000 0.0000 5.7034 0.0000 27.2937
#
#
#
# Elastic Compliance Matrix: (Units=1/GPa)
#
#
# Indices 1 2 3 4 5 6 
#
# 1 0.008101 -0.002533 -0.000963 0.000000 0.000622 0.000000
# 2 -0.002533 0.007898 -0.005268 0.000000 0.001639 0.000000
# 3 -0.000963 -0.005268 0.029336 0.000000 -0.003958 0.000000
# 4 0.000000 0.000000 0.000000 0.063114 0.000000 -0.013189
# 5 0.000622 0.001639 -0.003958 0.000000 0.023251 0.000000
# 6 0.000000 0.000000 0.000000 -0.013189 0.000000 0.039394
#
#
# Mechanical properties :
#
#
# Convention : Reuss Voigt Hill
#
# Bulk Modulus (GPa) = 35.96027 61.47800 48.71913
# Shear Modulus (GPa) = 25.26624 34.38737 29.82681
#
# Velocity S-wave (km/s) = 3.37943 3.94251 3.67178
# Velocity P-wave (km/s) = 5.61086 6.96513 6.32435
#
# Compressibility (1/GPa) = 0.02780847
#
# Stress axis : x y z
#
# Youngs Moduli (GPa) = 123.43492 126.60764 34.08766
#
# Poissons Ratio (x) = 0.32074 0.03282
# Poissons Ratio (y) = 0.31270 0.17956
# Poissons Ratio (z) = 0.11886 0.66691
#
# Static dielectric constant tensor:
#      x y z
#    x 1.765890 0.000000 0.045430 
#    y 0.000000 1.956080 0.000000 
#    z 0.045430 0.000000 1.859040 
# 
# From -- ./inp_files/133135.got.cif
#   From: 2010.05.17/outbox.cif.g08.bks.cpg/sg15_67_cif.got.tgz:133135.got - 2010.06.03 18:47:42.
