data_PCOD9282131
_publ_section_title
;
Structure prediction by ZEFSAII (Michael W. Deem and Ramdas Pophale) SiO2 
 PCOD9282131
Probable space group: C 2/C
;
_chemical_formula_sum "Si O2"
_cell_formula_units_Z 36
_cell_length_a 11.060962
_cell_length_b 8.377310
_cell_length_c 21.723118
_cell_angle_alpha 90.000000
_cell_angle_beta 127.542180
_cell_angle_gamma 90.000000
_cell_volume 1596.029032
_symmetry_space_group_name_H-M "C 2/C"
_symmetry_group_IT_number 15
_symmetry_cell_setting 'monoclinic'
loop_
_space_group_symop_operation_xyz
x,y,z
-x,y,1/2-z
-x,-y,-z
x,-y,1/2+z
1/2+x,1/2+y,z
1/2-x,1/2+y,1/2-z
1/2-x,1/2-y,-z
1/2+x,1/2-y,1/2+z
loop_
_atom_site_type_symbol
_atom_site_label
_atom_site_fract_x
_atom_site_fract_y
_atom_site_fract_z
Si Si1 0.407409 0.595102 0.418413
Si Si2 0.678384 0.263734 0.149634
Si Si3 0.111634 0.426119 0.888550
Si Si4 0.500000 0.829329 0.250000
Si Si5 0.109375 0.622820 0.999230
O O1 0.500000 0.500000 0.500000
O O2 0.360070 0.452744 0.358265
O O3 0.251193 0.664710 0.399356
O O4 0.512521 0.742554 0.433219
O O5 0.535857 0.173033 0.135796
O O6 0.849859 0.235735 0.226288
O O7 0.689690 0.209156 0.081230
O O8 0.185710 0.515454 0.970713
O O9 0.054480 0.555482 0.821792
O O10 0.000000 0.500000 0.000000
#
# Coordination Sequence:
#
# PCOD9282131 Si02
#       5
#     8   8   8   4   8
#     4   9  19  34  56  84 109 142 183 227 283 332
#     4   9  20  38  58  81 112 150 189 234 284 337
#     4  10  21  39  57  80 117 148 188 241 284 339
#     4  10  22  36  54  82 114 150 190 230 286 344
#     4   9  19  36  60  87 111 144 188 235 282 332
#
# _framework density 22.555983000000001
#
# number of rings (size 3 to 8) (size 9 to 14) (size 15 to 20)
#    0.000    2.667    0.000    0.000    0.000   19.556 
#    0.000   11.111    0.000    2.667    0.000    0.000 
#    0.000    0.000    0.000    0.000    0.000    0.000 
#
# Total GULP energy -100335.377659 kJ/mol
# GULP energy per Si atom -5574.187648 kJ/mol
# Density = 2.250464 g / cm^3
# Si number density = 22.555983 Si / 1000 Ang^3
#
#
#
# Elastic Constant Matrix: (Units=GPa)
#
#
# Indices 1 2 3 4 5 6 
#
# 1 91.2020 15.6750 0.2192 0.0000 24.7762 0.0000
# 2 15.6750 65.5565 -4.4632 0.0000 7.4152 0.0000
# 3 0.2192 -4.4632 46.5668 0.0000 11.8228 0.0000
# 4 0.0000 0.0000 0.0000 18.1746 0.0000 -2.0144
# 5 24.7762 7.4152 11.8228 0.0000 42.5795 0.0000
# 6 0.0000 0.0000 0.0000 -2.0144 0.0000 31.7237
#
#
#
# Elastic Compliance Matrix: (Units=1/GPa)
#
#
# Indices 1 2 3 4 5 6 
#
# 1 0.013502 -0.002210 0.001745 0.000000 -0.007956 0.000000
# 2 -0.002210 0.016164 0.002096 0.000000 -0.002111 0.000000
# 3 0.001745 0.002096 0.023687 0.000000 -0.007957 0.000000
# 4 0.000000 0.000000 0.000000 0.055412 0.000000 0.003519
# 5 -0.007956 -0.002111 -0.007957 0.000000 0.030692 0.000000
# 6 0.000000 0.000000 0.000000 0.003519 0.000000 0.031746
#
#
# Mechanical properties :
#
#
# Convention : Reuss Voigt Hill
#
# Bulk Modulus (GPa) = 17.66351 25.13193 21.39772
# Shear Modulus (GPa) = 26.76483 31.28852 29.02667
#
# Velocity S-wave (km/s) = 3.44844 3.72849 3.59119
# Velocity P-wave (km/s) = 4.86863 5.44993 5.16746
#
# Compressibility (1/GPa) = 0.05661389
#
# Stress axis : x y z
#
# Youngs Moduli (GPa) = 74.06545 61.86660 42.21649
#
# Poissons Ratio (x) = 0.13670 -0.07365
# Poissons Ratio (y) = 0.16366 -0.08847
# Poissons Ratio (z) = -0.12921 -0.12965
#
# Static dielectric constant tensor:
#      x y z
#    x 1.882770 0.000000 0.013520 
#    y 0.000000 1.838630 0.000000 
#    z 0.013520 0.000000 1.877280 
# 
# From -- ./inp_files/194890.got.cif
#   From: 2010.05.17/outbox.cif.g08.bks.cpg/sg15_98_cif.got.tgz:194890.got - 2010.06.03 18:47:42.
