data_PCOD9282510
_publ_section_title
;
Structure prediction by ZEFSAII (Michael W. Deem and Ramdas Pophale) SiO2 
 PCOD9282510
Probable space group: C 2/C
;
_chemical_formula_sum "Si O2"
_cell_formula_units_Z 48
_cell_length_a 8.314827
_cell_length_b 12.324898
_cell_length_c 22.137658
_cell_angle_alpha 90.000000
_cell_angle_beta 87.685845
_cell_angle_gamma 90.000000
_cell_volume 2266.803591
_symmetry_space_group_name_H-M "C 2/C"
_symmetry_group_IT_number 15
_symmetry_cell_setting 'monoclinic'
loop_
_space_group_symop_operation_xyz
x,y,z
-x,y,1/2-z
-x,-y,-z
x,-y,1/2+z
1/2+x,1/2+y,z
1/2-x,1/2+y,1/2-z
1/2-x,1/2-y,-z
1/2+x,1/2-y,1/2+z
loop_
_atom_site_type_symbol
_atom_site_label
_atom_site_fract_x
_atom_site_fract_y
_atom_site_fract_z
Si Si1 0.410134 0.418971 0.393226
Si Si2 0.315060 0.592930 0.125382
Si Si3 0.287651 0.185552 0.700768
Si Si4 0.181874 0.545319 0.004520
Si Si5 0.797712 0.174884 0.552998
Si Si6 0.639529 0.122703 0.671902
O O1 0.510729 0.532817 0.387726
O O2 0.356117 0.378412 0.328739
O O3 0.255773 0.420506 0.439621
O O4 0.528714 0.328149 0.419505
O O5 0.313551 0.697861 0.168351
O O6 0.225654 0.619569 0.062346
O O7 0.214256 0.495826 0.158982
O O8 0.450851 0.118515 0.685774
O O9 0.277857 0.184270 0.773320
O O10 0.284884 0.442223 0.023173
O O11 0.000000 0.500000 0.000000
O O12 0.750000 0.250000 0.500000
O O13 0.672717 0.185562 0.609295
#
# Coordination Sequence:
#
# PCOD9282510 Si02
#       6
#     8   8   8   8   8   8
#     4  10  22  40  63  96 127 164 219 262 317 399
#     4  10  23  42  63  92 134 167 214 271 319 383
#     4  11  23  41  69  90 127 179 210 263 334 377
#     4  10  21  39  62  94 132 164 209 272 324 381
#     4  10  22  38  62  90 127 163 211 267 316 380
#     4   9  23  44  58  95 130 160 222 266 307 397
#
# _framework density 21.175190000000001
#
# number of rings (size 3 to 8) (size 9 to 14) (size 15 to 20)
#    0.000    2.333    0.000    4.000    7.000    6.000 
#    0.000    5.000    0.000    0.000    0.000    0.000 
#    0.000    0.000    0.000    0.000    0.000    0.000 
#
# Total GULP energy -133754.511699 kJ/mol
# GULP energy per Si atom -5573.104654 kJ/mol
# Density = 2.112699 g / cm^3
# Si number density = 21.175190 Si / 1000 Ang^3
#
#
#
# Elastic Constant Matrix: (Units=GPa)
#
#
# Indices 1 2 3 4 5 6 
#
# 1 59.2025 0.1811 -14.9305 0.0000 9.6066 0.0000
# 2 0.1811 37.5809 11.1376 0.0000 -1.4666 0.0000
# 3 -14.9305 11.1376 88.0723 0.0000 11.7942 0.0000
# 4 0.0000 0.0000 0.0000 32.3417 0.0000 0.2961
# 5 9.6066 -1.4666 11.7942 0.0000 42.8643 0.0000
# 6 0.0000 0.0000 0.0000 0.2961 0.0000 18.5983
#
#
#
# Elastic Compliance Matrix: (Units=1/GPa)
#
#
# Indices 1 2 3 4 5 6 
#
# 1 0.018806 -0.001517 0.004102 0.000000 -0.005395 0.000000
# 2 -0.001517 0.027931 -0.004114 0.000000 0.002428 0.000000
# 3 0.004102 -0.004114 0.013198 0.000000 -0.004692 0.000000
# 4 0.000000 0.000000 0.000000 0.030924 0.000000 -0.000492
# 5 -0.005395 0.002428 -0.004692 0.000000 0.025913 0.000000
# 6 0.000000 0.000000 0.000000 -0.000492 0.000000 0.053776
#
#
# Mechanical properties :
#
#
# Convention : Reuss Voigt Hill
#
# Bulk Modulus (GPa) = 17.58174 19.73688 18.65931
# Shear Modulus (GPa) = 25.96525 31.32536 28.64530
#
# Velocity S-wave (km/s) = 3.50553 3.85039 3.68200
# Velocity P-wave (km/s) = 4.97051 5.39522 5.18721
#
# Compressibility (1/GPa) = 0.05687718
#
# Stress axis : x y z
#
# Youngs Moduli (GPa) = 53.17469 35.80299 75.76689
#
# Poissons Ratio (x) = 0.05431 -0.31083
# Poissons Ratio (y) = 0.08066 0.31173
# Poissons Ratio (z) = -0.21815 0.14731
#
# Static dielectric constant tensor:
#      x y z
#    x 1.824720 0.000000 0.052970 
#    y 0.000000 1.944380 0.000000 
#    z 0.052970 0.000000 1.869860 
# 
# From -- ./inp_files/230742.got.cif
#   From: 2010.05.17/outbox.cif.g08.bks.cpg/sg15_116_cif.got.tgz:230742.got - 2010.06.03 18:47:42.
