data_PCOD9282608
_publ_section_title
;
Structure prediction by ZEFSAII (Michael W. Deem and Ramdas Pophale) SiO2 
 PCOD9282608
Probable space group: C 2/C
;
_chemical_formula_sum "Si O2"
_cell_formula_units_Z 56
_cell_length_a 17.140565
_cell_length_b 16.939735
_cell_length_c 11.388629
_cell_angle_alpha 90.000000
_cell_angle_beta 140.920428
_cell_angle_gamma 90.000000
_cell_volume 2084.580932
_symmetry_space_group_name_H-M "C 2/C"
_symmetry_group_IT_number 15
_symmetry_cell_setting 'monoclinic'
loop_
_space_group_symop_operation_xyz
x,y,z
-x,y,1/2-z
-x,-y,-z
x,-y,1/2+z
1/2+x,1/2+y,z
1/2-x,1/2+y,1/2-z
1/2-x,1/2-y,-z
1/2+x,1/2-y,1/2+z
loop_
_atom_site_type_symbol
_atom_site_label
_atom_site_fract_x
_atom_site_fract_y
_atom_site_fract_z
Si Si1 0.140378 0.908480 0.534839
Si Si2 0.621792 0.480971 0.260937
Si Si3 0.341134 0.331970 0.724387
Si Si4 0.505164 0.813217 0.628775
Si Si5 0.408878 0.251329 0.515021
Si Si6 0.767143 0.611143 0.729849
Si Si7 0.884545 0.471130 0.790344
O O1 0.119080 0.831812 0.588716
O O2 0.153834 0.926710 0.412967
O O3 0.276129 0.931509 0.738158
O O4 0.023148 0.962708 0.424593
O O5 0.636361 0.576164 0.286515
O O6 0.704216 0.440443 0.257886
O O7 0.197177 0.305695 0.550782
O O8 0.444182 0.271731 0.789243
O O9 0.500000 0.770999 0.750000
O O10 0.584798 0.775064 0.616114
O O11 0.375680 0.839374 0.418450
O O12 0.571416 0.898380 0.734964
O O13 0.339171 0.334185 0.443363
O O14 0.823546 0.555908 0.692227
O O15 0.000000 0.500000 0.000000
#
# Coordination Sequence:
#
# PCOD9282608 Si02
#       7
#     8   8   8   8   8   8   8
#     4  11  21  39  68 100 128 166 234 282 329 389
#     4  11  23  39  70  99 129 177 228 286 326 393
#     4  12  24  45  66 102 138 179 226 272 348 404
#     4  11  23  37  57  95 138 172 212 276 345 410
#     4  12  24  39  65  94 139 182 207 272 343 422
#     4  11  21  37  61  92 124 179 221 263 331 396
#     4  10  21  39  63  91 130 173 227 277 327 395
#
# _framework density 26.863913
#
# number of rings (size 3 to 8) (size 9 to 14) (size 15 to 20)
#    0.000    0.857    5.714    2.143    0.000    1.714 
#    0.000    0.000    0.000    7.714    0.000    0.000 
#    0.000    0.000    0.000    0.000    0.000    0.000 
#
# Total GULP energy -156018.722318 kJ/mol
# GULP energy per Si atom -5572.097226 kJ/mol
# Density = 2.680277 g / cm^3
# Si number density = 26.863913 Si / 1000 Ang^3
#
#
#
# Elastic Constant Matrix: (Units=GPa)
#
#
# Indices 1 2 3 4 5 6 
#
# 1 90.9572 38.1300 41.3627 0.0000 34.2251 0.0000
# 2 38.1300 128.5524 45.5949 0.0000 18.1244 0.0000
# 3 41.3627 45.5949 146.0559 0.0000 34.1306 0.0000
# 4 0.0000 0.0000 0.0000 50.8446 0.0000 17.4239
# 5 34.2251 18.1244 34.1306 0.0000 47.6909 0.0000
# 6 0.0000 0.0000 0.0000 17.4239 0.0000 45.2527
#
#
#
# Elastic Compliance Matrix: (Units=1/GPa)
#
#
# Indices 1 2 3 4 5 6 
#
# 1 0.016584 -0.003025 -0.001489 0.000000 -0.009686 0.000000
# 2 -0.003025 0.009408 -0.002104 0.000000 0.000101 0.000000
# 3 -0.001489 -0.002104 0.008992 0.000000 -0.004568 0.000000
# 4 0.000000 0.000000 0.000000 0.022657 0.000000 -0.008724
# 5 -0.009686 0.000101 -0.004568 0.000000 0.031150 0.000000
# 6 0.000000 0.000000 0.000000 -0.008724 0.000000 0.025457
#
#
# Mechanical properties :
#
#
# Convention : Reuss Voigt Hill
#
# Bulk Modulus (GPa) = 45.97905 68.41562 57.19733
# Shear Modulus (GPa) = 37.10988 44.78951 40.94969
#
# Velocity S-wave (km/s) = 3.72075 4.08766 3.90851
# Velocity P-wave (km/s) = 5.96753 6.91385 6.45805
#
# Compressibility (1/GPa) = 0.02174904
#
# Stress axis : x y z
#
# Youngs Moduli (GPa) = 60.29840 106.29014 111.20464
#
# Poissons Ratio (x) = 0.32157 0.16554
# Poissons Ratio (y) = 0.18243 0.23396
# Poissons Ratio (z) = 0.08976 0.22362
#
# Static dielectric constant tensor:
#      x y z
#    x 2.230650 0.000000 -0.115880 
#    y 0.000000 2.261230 0.000000 
#    z -0.115880 0.000000 2.221110 
# 
# From -- ./inp_files/163090.got.cif
#   From: 2010.05.17/outbox.cif.g08.bks.cpg/sg15_82_cif.got.tgz:163090.got - 2010.06.03 18:47:42.
