data_PCOD9282718
_publ_section_title
;
Structure prediction by ZEFSAII (Michael W. Deem and Ramdas Pophale) SiO2 
 PCOD9282718
Probable space group: C 2/C
;
_chemical_formula_sum "Si O2"
_cell_formula_units_Z 32
_cell_length_a 25.385373
_cell_length_b 8.037551
_cell_length_c 22.189606
_cell_angle_alpha 90.000000
_cell_angle_beta 17.871869
_cell_angle_gamma 90.000000
_cell_volume 1389.436569
_symmetry_space_group_name_H-M "C 2/C"
_symmetry_group_IT_number 15
_symmetry_cell_setting 'monoclinic'
loop_
_space_group_symop_operation_xyz
x,y,z
-x,y,1/2-z
-x,-y,-z
x,-y,1/2+z
1/2+x,1/2+y,z
1/2-x,1/2+y,1/2-z
1/2-x,1/2-y,-z
1/2+x,1/2-y,1/2+z
loop_
_atom_site_type_symbol
_atom_site_label
_atom_site_fract_x
_atom_site_fract_y
_atom_site_fract_z
Si Si1 0.102302 0.977776 0.079478
Si Si2 0.099075 0.408946 0.315738
Si Si3 0.862697 0.137416 0.629547
Si Si4 0.374191 0.745110 0.749272
O O1 0.000000 0.024938 0.250000
O O2 0.971169 0.912099 0.170974
O O3 0.218572 0.810227 0.960450
O O4 0.239762 0.113237 0.906125
O O5 0.201029 0.428107 0.268138
O O6 0.023223 0.580265 0.371934
O O7 0.961388 0.268845 0.479214
O O8 0.813203 0.215011 0.747496
O O9 0.000000 0.000000 0.500000
#
# Coordination Sequence:
#
# PCOD9282718 Si02
#       4
#     8   8   8   8
#     4  10  21  40  62  90 121 166 212 251 300 365
#     4  10  24  36  62  91 124 157 202 254 308 367
#     4  12  20  40  61  93 127 155 200 258 321 365
#     4  10  21  39  64  89 122 156 209 256 304 365
#
# _framework density 23.030916999999999
#
# number of rings (size 3 to 8) (size 9 to 14) (size 15 to 20)
#    1.500    0.000    2.500    4.500    0.000    2.000 
#    0.000    1.250    0.000    0.000    0.000    0.000 
#    0.000    0.000    0.000    0.000    0.000    0.000 
#
# Total GULP energy -89106.408780 kJ/mol
# GULP energy per Si atom -5569.150549 kJ/mol
# Density = 2.297850 g / cm^3
# Si number density = 23.030917 Si / 1000 Ang^3
#
#
#
# Elastic Constant Matrix: (Units=GPa)
#
#
# Indices 1 2 3 4 5 6 
#
# 1 73.2779 21.0340 28.3404 -0.0012 20.8040 0.0002
# 2 21.0340 47.8099 19.3265 -0.0054 2.2720 0.0013
# 3 28.3404 19.3265 106.4167 -0.0046 27.2097 0.0017
# 4 -0.0012 -0.0054 -0.0046 43.4992 0.0010 -4.2099
# 5 20.8040 2.2720 27.2097 0.0010 47.9952 -0.0001
# 6 0.0002 0.0013 0.0017 -4.2099 -0.0001 22.0953
#
#
#
# Elastic Compliance Matrix: (Units=1/GPa)
#
#
# Indices 1 2 3 4 5 6 
#
# 1 0.018222 -0.006925 -0.001941 0.000000 -0.006470 0.000000
# 2 -0.006925 0.025294 -0.003755 0.000002 0.003933 -0.000001
# 3 -0.001941 -0.003755 0.012087 0.000001 -0.005834 -0.000001
# 4 0.000000 0.000002 0.000001 0.023421 -0.000001 0.004462
# 5 -0.006470 0.003933 -0.005834 -0.000001 0.026761 0.000000
# 6 0.000000 -0.000001 -0.000001 0.004462 0.000000 0.046109
#
#
# Mechanical properties :
#
#
# Convention : Reuss Voigt Hill
#
# Bulk Modulus (GPa) = 32.93601 40.54516 36.74058
# Shear Modulus (GPa) = 26.70143 33.30484 30.00313
#
# Velocity S-wave (km/s) = 3.40865 3.80688 3.61325
# Velocity P-wave (km/s) = 5.46111 6.07997 5.77883
#
# Compressibility (1/GPa) = 0.03036191
#
# Stress axis : x y z
#
# Youngs Moduli (GPa) = 54.87885 39.53542 82.73027
#
# Poissons Ratio (x) = 0.27377 0.16056
# Poissons Ratio (y) = 0.38002 0.31066
# Poissons Ratio (z) = 0.10651 0.14846
#
# Static dielectric constant tensor:
#      x y z
#    x 1.843500 0.000000 0.000380 
#    y 0.000000 1.911540 0.000000 
#    z 0.000380 0.000000 1.918820 
# 
# From -- ./inp_files/53452.got.cif
#   From: 2010.05.17/outbox.cif.g08.bks.cpg/sg15_27_cif.got.tgz:53452.got - 2010.06.03 18:47:42.
