data_PCOD9282445
_publ_section_title
;
Structure prediction by ZEFSAII (Michael W. Deem and Ramdas Pophale) SiO2 
 PCOD9282445
Probable space group: C 2/C
;
_chemical_formula_sum "Si O2"
_cell_formula_units_Z 56
_cell_length_a 28.526403
_cell_length_b 13.064478
_cell_length_c 13.434470
_cell_angle_alpha 90.000000
_cell_angle_beta 147.586130
_cell_angle_gamma 90.000000
_cell_volume 2683.796975
_symmetry_space_group_name_H-M "C 2/C"
_symmetry_group_IT_number 15
_symmetry_cell_setting 'monoclinic'
loop_
_space_group_symop_operation_xyz
x,y,z
-x,y,1/2-z
-x,-y,-z
x,-y,1/2+z
1/2+x,1/2+y,z
1/2-x,1/2+y,1/2-z
1/2-x,1/2-y,-z
1/2+x,1/2-y,1/2+z
loop_
_atom_site_type_symbol
_atom_site_label
_atom_site_fract_x
_atom_site_fract_y
_atom_site_fract_z
Si Si1 0.861895 0.933123 0.487425
Si Si2 0.768146 0.973313 0.991980
Si Si3 0.611355 0.725849 0.791443
Si Si4 0.397009 0.026467 0.921046
Si Si5 0.807799 0.420242 0.453201
Si Si6 0.000000 0.892262 0.250000
Si Si7 0.983192 0.654448 0.918494
Si Si8 0.500000 0.735290 0.250000
O O1 0.777171 0.916691 0.268826
O O2 0.923506 0.838518 0.576814
O O3 0.832395 0.948042 0.550321
O O4 0.920539 0.034168 0.571610
O O5 0.688560 0.965116 0.771058
O O6 0.822751 0.869162 0.109821
O O7 0.719476 0.998069 0.007829
O O8 0.537922 0.677551 0.731215
O O9 0.559654 0.778393 0.608036
O O10 0.663465 0.815338 0.942150
O O11 0.383722 0.050914 0.012414
O O12 0.413148 0.125209 0.878875
O O13 0.477858 0.953067 0.048498
O O14 0.959876 0.706627 0.772652
#
# Coordination Sequence:
#
# PCOD9282445 Si02
#       8
#     8   8   8   8   8   4   8   4
#     4   9  22  41  59  93 125 157 201 244 312 368
#     4  10  21  39  62  90 120 159 200 251 300 362
#     4  11  21  37  68  91 117 156 217 250 290 355
#     4  10  24  40  57  90 124 155 203 245 310 360
#     4  11  21  38  65  86 123 158 200 257 299 350
#     4   9  20  40  61  92 122 162 197 256 298 357
#     4  11  24  40  60  88 121 160 205 247 302 366
#     4  11  24  40  65  84 128 162 197 250 310 359
#
# _framework density 20.865960000000001
#
# number of rings (size 3 to 8) (size 9 to 14) (size 15 to 20)
#    0.000    1.714    1.429    2.143    4.000    1.143 
#    0.000    8.571    0.000    0.000    0.000    0.000 
#    0.000    0.000    0.000    0.000    0.000    0.000 
#
# Total GULP energy -156108.135323 kJ/mol
# GULP energy per Si atom -5575.290547 kJ/mol
# Density = 2.081847 g / cm^3
# Si number density = 20.865960 Si / 1000 Ang^3
#
#
#
# Elastic Constant Matrix: (Units=GPa)
#
#
# Indices 1 2 3 4 5 6 
#
# 1 144.6014 23.3556 3.2670 0.0000 -10.8224 0.0000
# 2 23.3556 44.5291 14.0191 0.0000 -8.7696 0.0000
# 3 3.2670 14.0191 58.3141 0.0000 -7.0311 0.0000
# 4 0.0000 0.0000 0.0000 -4.1520 0.0000 10.4529
# 5 -10.8224 -8.7696 -7.0311 0.0000 30.2427 0.0000
# 6 0.0000 0.0000 0.0000 10.4529 0.0000 6.4174
#
#
#
# Elastic Compliance Matrix: (Units=1/GPa)
#
#
# Indices 1 2 3 4 5 6 
#
# 1 0.007662 -0.003895 0.000722 0.000000 0.001780 0.000000
# 2 -0.003895 0.027326 -0.005724 0.000000 0.005199 0.000000
# 3 0.000722 -0.005724 0.018843 0.000000 0.002979 0.000000
# 4 0.000000 0.000000 0.000000 -0.047218 0.000000 0.076911
# 5 0.001780 0.005199 0.002979 0.000000 0.035903 0.000000
# 6 0.000000 0.000000 0.000000 0.076911 0.000000 0.030550
#
#
# Mechanical properties :
#
#
# Convention : Reuss Voigt Hill
#
# Bulk Modulus (GPa) = 27.75001 36.52533 32.13767
# Shear Modulus (GPa) = 48.60333 20.28847 34.44590
#
# Velocity S-wave (km/s) = 4.83153 3.12159 4.06743
# Velocity P-wave (km/s) = 6.66731 5.52587 6.12324
#
# Compressibility (1/GPa) = 0.03603602
#
# Stress axis : x y z
#
# Youngs Moduli (GPa) = 130.52055 36.59460 53.06878
#
# Poissons Ratio (x) = 0.14254 -0.03831
# Poissons Ratio (y) = 0.50841 0.30378
# Poissons Ratio (z) = -0.09421 0.20948
#
# Static dielectric constant tensor:
#      x y z
#    x 1.830200 0.000000 0.023960 
#    y 0.000000 1.750860 0.000000 
#    z 0.023960 0.000000 1.816720 
# 
# From -- ./inp_files/123364.got.cif
#   From: 2010.05.17/outbox.cif.g08.bks.cpg/sg15_62_cif.got.tgz:123364.got - 2010.06.03 18:47:42.
