data_PCOD9282482
_publ_section_title
;
Structure prediction by ZEFSAII (Michael W. Deem and Ramdas Pophale) SiO2 
 PCOD9282482
Probable space group: C 2/C
;
_chemical_formula_sum "Si O2"
_cell_formula_units_Z 32
_cell_length_a 11.426188
_cell_length_b 25.607112
_cell_length_c 5.177407
_cell_angle_alpha 90.000000
_cell_angle_beta 65.621012
_cell_angle_gamma 90.000000
_cell_volume 1379.793293
_symmetry_space_group_name_H-M "C 2/C"
_symmetry_group_IT_number 15
_symmetry_cell_setting 'monoclinic'
loop_
_space_group_symop_operation_xyz
x,y,z
-x,y,1/2-z
-x,-y,-z
x,-y,1/2+z
1/2+x,1/2+y,z
1/2-x,1/2+y,1/2-z
1/2-x,1/2-y,-z
1/2+x,1/2-y,1/2+z
loop_
_atom_site_type_symbol
_atom_site_label
_atom_site_fract_x
_atom_site_fract_y
_atom_site_fract_z
Si Si1 0.624655 0.762651 0.789078
Si Si2 0.723036 0.135046 0.348234
Si Si3 0.357259 0.976988 0.604233
Si Si4 0.881318 0.855972 0.190382
O O1 0.500000 0.783270 0.750000
O O2 0.750000 0.750000 0.500000
O O3 0.663369 0.807591 0.956879
O O4 0.585516 0.704503 0.910416
O O5 0.633889 0.084636 0.441172
O O6 0.832589 0.123026 0.461082
O O7 0.769968 0.139978 0.008899
O O8 0.500000 0.000000 0.500000
O O9 0.290701 0.006707 0.429990
O O10 0.000000 0.877545 0.250000
#
# Coordination Sequence:
#
# PCOD9282482 Si02
#       4
#     8   8   8   8
#     4   9  20  37  60  94 133 168 214 259 317 397
#     4  11  21  38  64  89 124 170 207 258 328 374
#     4  10  22  39  59  86 125 154 206 264 324 368
#     4  10  21  39  62  92 127 164 210 257 312 389
#
# _framework density 23.191877000000002
#
# number of rings (size 3 to 8) (size 9 to 14) (size 15 to 20)
#    0.000    2.000    0.000    3.000    3.500    0.000 
#    4.500    7.500    0.000   15.000    0.000    0.000 
#    0.000    0.000    0.000    0.000    0.000    0.000 
#
# Total GULP energy -89171.688696 kJ/mol
# GULP energy per Si atom -5573.230543 kJ/mol
# Density = 2.313909 g / cm^3
# Si number density = 23.191877 Si / 1000 Ang^3
#
#
#
# Elastic Constant Matrix: (Units=GPa)
#
#
# Indices 1 2 3 4 5 6 
#
# 1 104.6879 36.4991 26.4562 0.0000 12.2883 0.0000
# 2 36.4991 115.9839 17.0892 0.0000 11.9792 0.0000
# 3 26.4562 17.0892 94.4947 0.0000 34.3253 0.0000
# 4 0.0000 0.0000 0.0000 15.8092 0.0000 -3.1366
# 5 12.2883 11.9792 34.3253 0.0000 34.9328 0.0000
# 6 0.0000 0.0000 0.0000 -3.1366 0.0000 33.1038
#
#
#
# Elastic Compliance Matrix: (Units=1/GPa)
#
#
# Indices 1 2 3 4 5 6 
#
# 1 0.011322 -0.003153 -0.002404 0.000000 -0.000540 0.000000
# 2 -0.003153 0.009854 -0.000116 0.000000 -0.002156 0.000000
# 3 -0.002404 -0.000116 0.017036 0.000000 -0.015854 0.000000
# 4 0.000000 0.000000 0.000000 0.064466 0.000000 0.006108
# 5 -0.000540 -0.002156 -0.015854 0.000000 0.045134 0.000000
# 6 0.000000 0.000000 0.000000 0.006108 0.000000 0.030787
#
#
# Mechanical properties :
#
#
# Convention : Reuss Voigt Hill
#
# Bulk Modulus (GPa) = 37.22204 52.80617 45.01411
# Shear Modulus (GPa) = 25.13827 32.44395 28.79111
#
# Velocity S-wave (km/s) = 3.29587 3.74429 3.52722
# Velocity P-wave (km/s) = 5.52885 6.44295 6.00332
#
# Compressibility (1/GPa) = 0.02686580
#
# Stress axis : x y z
#
# Youngs Moduli (GPa) = 88.32099 101.48243 58.70076
#
# Poissons Ratio (x) = 0.31999 0.14110
# Poissons Ratio (y) = 0.27849 0.00682
# Poissons Ratio (z) = 0.21230 0.01179
#
# Static dielectric constant tensor:
#      x y z
#    x 1.785730 0.000000 -0.211190 
#    y 0.000000 1.906840 0.000000 
#    z -0.211190 0.000000 1.676900 
# 
# From -- ./inp_files/3676.got.cif
#   From: 2010.05.17/outbox.cif.g08.bks.cpg/sg15_2_cif.got.tgz:3676.got - 2010.06.03 18:47:42.
