data_PCOD9282663
_publ_section_title
;
Structure prediction by ZEFSAII (Michael W. Deem and Ramdas Pophale) SiO2 
 PCOD9282663
Probable space group: C 2/C
;
_chemical_formula_sum "Si O2"
_cell_formula_units_Z 32
_cell_length_a 27.738408
_cell_length_b 6.873967
_cell_length_c 14.415766
_cell_angle_alpha 90.000000
_cell_angle_beta 152.391674
_cell_angle_gamma 90.000000
_cell_volume 1273.813887
_symmetry_space_group_name_H-M "C 2/C"
_symmetry_group_IT_number 15
_symmetry_cell_setting 'monoclinic'
loop_
_space_group_symop_operation_xyz
x,y,z
-x,y,1/2-z
-x,-y,-z
x,-y,1/2+z
1/2+x,1/2+y,z
1/2-x,1/2+y,1/2-z
1/2-x,1/2-y,-z
1/2+x,1/2-y,1/2+z
loop_
_atom_site_type_symbol
_atom_site_label
_atom_site_fract_x
_atom_site_fract_y
_atom_site_fract_z
Si Si1 0.008809 0.417562 0.620103
Si Si2 0.135071 0.925132 0.648057
Si Si3 0.768255 0.519948 0.035119
Si Si4 0.181016 0.368609 0.678945
O O1 0.919723 0.517513 0.528180
O O2 0.000000 0.500000 0.500000
O O3 0.124389 0.485785 0.839348
O O4 0.972498 0.191091 0.551904
O O5 0.137384 0.157258 0.634740
O O6 0.222622 0.851730 0.725224
O O7 0.179312 0.903956 0.828884
O O8 0.781437 0.502920 0.167910
O O9 0.750000 0.750000 0.000000
#
# Coordination Sequence:
#
# PCOD9282663 Si02
#       4
#     8   8   8   8
#     4  10  22  40  65  95 128 171 227 269 334 408
#     4  11  21  42  67  89 139 170 221 283 330 396
#     4   9  22  40  65  92 129 175 217 267 343 386
#     4  10  21  39  63  95 127 176 217 277 334 394
#
# _framework density 25.121410000000001
#
# number of rings (size 3 to 8) (size 9 to 14) (size 15 to 20)
#    0.000    2.000    2.500    0.000    0.000   14.000 
#    0.000    2.500   11.000    0.000    0.000    0.000 
#    0.000    0.000    0.000    0.000    0.000    0.000 
#
# Total GULP energy -89285.877956 kJ/mol
# GULP energy per Si atom -5580.367372 kJ/mol
# Density = 2.506423 g / cm^3
# Si number density = 25.121410 Si / 1000 Ang^3
#
#
#
# Elastic Constant Matrix: (Units=GPa)
#
#
# Indices 1 2 3 4 5 6 
#
# 1 121.1168 14.2762 11.2732 0.0000 0.0676 0.0000
# 2 14.2762 128.3412 10.7980 0.0000 -1.2421 0.0000
# 3 11.2732 10.7980 46.3240 0.0000 5.4170 0.0000
# 4 0.0000 0.0000 0.0000 30.2381 0.0000 13.0464
# 5 0.0676 -1.2421 5.4170 0.0000 31.1803 0.0000
# 6 0.0000 0.0000 0.0000 13.0464 0.0000 44.3809
#
#
#
# Elastic Compliance Matrix: (Units=1/GPa)
#
#
# Indices 1 2 3 4 5 6 
#
# 1 0.008528 -0.000784 -0.001926 0.000000 0.000285 0.000000
# 2 -0.000784 0.008033 -0.001755 0.000000 0.000627 0.000000
# 3 -0.001926 -0.001755 0.022939 0.000000 -0.004051 0.000000
# 4 0.000000 0.000000 0.000000 0.037875 0.000000 -0.011134
# 5 0.000285 0.000627 -0.004051 0.000000 0.032800 0.000000
# 6 0.000000 0.000000 0.000000 -0.011134 0.000000 0.025805
#
#
# Mechanical properties :
#
#
# Convention : Reuss Voigt Hill
#
# Bulk Modulus (GPa) = 32.71202 40.94188 36.82695
# Shear Modulus (GPa) = 32.23774 38.45552 35.34663
#
# Velocity S-wave (km/s) = 3.58617 3.91677 3.75511
# Velocity P-wave (km/s) = 5.49521 6.06529 5.78728
#
# Compressibility (1/GPa) = 0.03056980
#
# Stress axis : x y z
#
# Youngs Moduli (GPa) = 117.26103 124.49217 43.59479
#
# Poissons Ratio (x) = 0.09758 0.08396
# Poissons Ratio (y) = 0.09191 0.07651
# Poissons Ratio (z) = 0.22584 0.21847
#
# Static dielectric constant tensor:
#      x y z
#    x 3.672620 0.000000 0.588910 
#    y 0.000000 2.209440 0.000000 
#    z 0.588910 0.000000 2.309510 
# 
# From -- ./inp_files/176776.got.cif
#   From: 2010.05.17/outbox.cif.g08.bks.cpg/sg15_89_cif.got.tgz:176776.got - 2010.06.03 18:47:42.
