data_PCOD9282714
_publ_section_title
;
Structure prediction by ZEFSAII (Michael W. Deem and Ramdas Pophale) SiO2 
 PCOD9282714
Probable space group: C 2/C
;
_chemical_formula_sum "Si O2"
_cell_formula_units_Z 52
_cell_length_a 16.056134
_cell_length_b 21.303308
_cell_length_c 19.336777
_cell_angle_alpha 90.000000
_cell_angle_beta 23.258965
_cell_angle_gamma 90.000000
_cell_volume 2611.834359
_symmetry_space_group_name_H-M "C 2/C"
_symmetry_group_IT_number 15
_symmetry_cell_setting 'monoclinic'
loop_
_space_group_symop_operation_xyz
x,y,z
-x,y,1/2-z
-x,-y,-z
x,-y,1/2+z
1/2+x,1/2+y,z
1/2-x,1/2+y,1/2-z
1/2-x,1/2-y,-z
1/2+x,1/2-y,1/2+z
loop_
_atom_site_type_symbol
_atom_site_label
_atom_site_fract_x
_atom_site_fract_y
_atom_site_fract_z
Si Si1 0.500000 0.962352 0.750000
Si Si2 0.689824 0.462749 0.717134
Si Si3 0.145917 0.154779 0.844054
Si Si4 0.962156 0.169898 0.197573
Si Si5 0.957275 0.254763 0.476385
Si Si6 0.884766 0.529605 0.696241
Si Si7 0.941563 0.090142 0.871304
O O1 0.695295 0.921874 0.572409
O O2 0.420907 0.003615 0.745253
O O3 0.547372 0.401113 0.821777
O O4 0.777049 0.478414 0.727219
O O5 0.559140 0.523199 0.792267
O O6 0.891364 0.454966 0.512061
O O7 0.346625 0.199321 0.679240
O O8 0.236969 0.090922 0.808037
O O9 0.033838 0.135514 0.859143
O O10 0.000476 0.197534 0.003505
O O11 0.734775 0.200709 0.356559
O O12 0.000000 0.168865 0.250000
O O13 0.108899 0.217125 0.042740
O O14 0.000000 0.111919 0.750000
#
# Coordination Sequence:
#
# PCOD9282714 Si02
#       7
#     4   8   8   8   8   8   8
#     4  12  26  38  68 104 128 164 218 260 342 384
#     4  10  21  39  64  88 130 169 200 255 339 381
#     4  10  23  44  65  90 128 173 218 261 321 385
#     4  11  22  36  60  89 125 166 211 263 313 378
#     4  10  23  41  59  87 123 178 218 257 309 382
#     4  10  22  39  62  97 126 166 203 264 323 390
#     4  11  24  44  66  99 133 164 210 279 329 381
#
# _framework density 19.909378
#
# number of rings (size 3 to 8) (size 9 to 14) (size 15 to 20)
#    0.000    1.538    3.077    0.923    4.308    1.231 
#    8.308    0.769    0.000    0.000    0.000    0.000 
#    0.000    0.000    0.000    0.000    0.000    0.000 
#
# Total GULP energy -145222.987038 kJ/mol
# GULP energy per Si atom -5585.499501 kJ/mol
# Density = 1.986406 g / cm^3
# Si number density = 19.909378 Si / 1000 Ang^3
#
#
#
# Elastic Constant Matrix: (Units=GPa)
#
#
# Indices 1 2 3 4 5 6 
#
# 1 133.1668 42.6580 20.3698 0.1276 24.2990 0.0725
# 2 42.6580 81.6983 -0.4939 -0.0094 16.6656 -0.0099
# 3 20.3698 -0.4939 36.6689 -0.0622 11.2507 -0.0630
# 4 0.1276 -0.0094 -0.0622 65.2087 -0.0676 33.8890
# 5 24.2990 16.6656 11.2507 -0.0676 26.9991 -0.0509
# 6 0.0725 -0.0099 -0.0630 33.8890 -0.0509 35.2021
#
#
#
# Elastic Compliance Matrix: (Units=1/GPa)
#
#
# Indices 1 2 3 4 5 6 
#
# 1 0.010519 -0.004535 -0.004425 -0.000022 -0.004824 -0.000017
# 2 -0.004535 0.016306 0.005246 0.000004 -0.008170 0.000008
# 3 -0.004425 0.005246 0.033906 0.000002 -0.013385 0.000050
# 4 -0.000022 0.000004 0.000002 0.030690 0.000038 -0.029545
# 5 -0.004824 -0.008170 -0.013385 0.000038 0.052001 0.000023
# 6 -0.000017 0.000008 0.000050 -0.029545 0.000023 0.056851
#
#
# Mechanical properties :
#
#
# Convention : Reuss Voigt Hill
#
# Bulk Modulus (GPa) = 18.76038 41.84463 30.30250
# Shear Modulus (GPa) = 22.17592 38.08199 30.12895
#
# Velocity S-wave (km/s) = 3.34105 4.37826 3.89434
# Velocity P-wave (km/s) = 4.93222 6.82804 5.95604
#
# Compressibility (1/GPa) = 0.05330383
#
# Stress axis : x y z
#
# Youngs Moduli (GPa) = 95.06372 61.32561 29.49294
#
# Poissons Ratio (x) = 0.27812 0.13049
# Poissons Ratio (y) = 0.43113 -0.15471
# Poissons Ratio (z) = 0.42061 -0.32169
#
# Static dielectric constant tensor:
#      x y z
#    x 1.697250 0.000000 0.042600 
#    y 0.000000 1.664480 0.000020 
#    z 0.042600 0.000020 1.760640 
# 
# From -- ./inp_files/40900.got.cif
#   From: 2010.05.17/outbox.cif.g08.bks.cpg/sg15_21_cif.got.tgz:40900.got - 2010.06.03 18:47:42.
