data_PCOD9282297
_publ_section_title
;
Structure prediction by ZEFSAII (Michael W. Deem and Ramdas Pophale) SiO2 
 PCOD9282297
Probable space group: C 2/C
;
_chemical_formula_sum "Si O2"
_cell_formula_units_Z 52
_cell_length_a 18.420307
_cell_length_b 28.188044
_cell_length_c 4.977696
_cell_angle_alpha 90.000000
_cell_angle_beta 57.761628
_cell_angle_gamma 90.000000
_cell_volume 2186.132049
_symmetry_space_group_name_H-M "C 2/C"
_symmetry_group_IT_number 15
_symmetry_cell_setting 'monoclinic'
loop_
_space_group_symop_operation_xyz
x,y,z
-x,y,1/2-z
-x,-y,-z
x,-y,1/2+z
1/2+x,1/2+y,z
1/2-x,1/2+y,1/2-z
1/2-x,1/2-y,-z
1/2+x,1/2-y,1/2+z
loop_
_atom_site_type_symbol
_atom_site_label
_atom_site_fract_x
_atom_site_fract_y
_atom_site_fract_z
Si Si1 0.500000 0.202583 0.750000
Si Si2 0.669508 0.030118 0.194408
Si Si3 0.840985 0.363737 0.624205
Si Si4 0.760344 0.318142 0.261339
Si Si5 0.620323 0.732814 0.376058
Si Si6 0.000000 0.838437 0.250000
Si Si7 0.376193 0.472186 0.280766
Si Si8 0.500000 0.399953 0.750000
O O1 0.574623 0.168202 0.489277
O O2 0.451446 0.235917 0.633336
O O3 0.639538 0.081394 0.354457
O O4 0.644069 0.988727 0.452845
O O5 0.773825 0.033684 0.979552
O O6 0.807123 0.351213 0.393607
O O7 0.766293 0.346595 0.974450
O O8 0.673275 0.298314 0.557609
O O9 0.815988 0.270194 0.117006
O O10 0.577762 0.696587 0.666237
O O11 0.969704 0.868369 0.561893
O O12 0.399479 0.482908 0.542722
O O13 0.425273 0.430210 0.038379
#
# Coordination Sequence:
#
# PCOD9282297 Si02
#       8
#     4   8   8   8   8   4   8   4
#     4  10  23  44  70  94 134 174 214 268 331 392
#     4  10  22  40  65  93 127 164 210 267 323 383
#     4  11  23  42  68  99 128 169 220 263 323 392
#     4  10  24  40  69  91 126 172 221 266 304 388
#     4  10  23  43  61  94 129 174 215 262 327 370
#     4  12  26  35  58  86 134 156 202 257 316 360
#     4  10  21  39  61  81 116 162 203 254 311 378
#     4  12  25  37  56  92 118 164 202 259 309 380
#
# _framework density 23.786301999999999
#
# number of rings (size 3 to 8) (size 9 to 14) (size 15 to 20)
#    0.000    1.538    0.000    3.692    4.308    9.846 
#    0.000    0.769    0.000    0.000    0.000    0.000 
#    0.000    0.000    0.000    0.000    0.000    0.000 
#
# Total GULP energy -145500.684187 kJ/mol
# GULP energy per Si atom -5596.180161 kJ/mol
# Density = 2.373216 g / cm^3
# Si number density = 23.786302 Si / 1000 Ang^3
#
#
#
# Elastic Constant Matrix: (Units=GPa)
#
#
# Indices 1 2 3 4 5 6 
#
# 1 43.9117 9.7581 16.0157 0.0000 1.2282 0.0000
# 2 9.7581 114.8327 43.5547 0.0000 -12.2652 0.0000
# 3 16.0157 43.5547 82.0790 0.0000 4.6483 0.0000
# 4 0.0000 0.0000 0.0000 73.0493 0.0000 14.0957
# 5 1.2282 -12.2652 4.6483 0.0000 29.0457 0.0000
# 6 0.0000 0.0000 0.0000 14.0957 0.0000 23.5726
#
#
#
# Elastic Compliance Matrix: (Units=1/GPa)
#
#
# Indices 1 2 3 4 5 6 
#
# 1 0.024534 -0.000415 -0.004540 0.000000 -0.000486 0.000000
# 2 -0.000415 0.011886 -0.006571 0.000000 0.006088 0.000000
# 3 -0.004540 -0.006571 0.016855 0.000000 -0.005280 0.000000
# 4 0.000000 0.000000 0.000000 0.015475 0.000000 -0.009254
# 5 -0.000486 0.006088 -0.005280 0.000000 0.037865 0.000000
# 6 0.000000 0.000000 0.000000 -0.009254 0.000000 0.047955
#
#
# Mechanical properties :
#
#
# Convention : Reuss Voigt Hill
#
# Bulk Modulus (GPa) = 33.08580 42.16449 37.62514
# Shear Modulus (GPa) = 26.63859 36.56652 31.60255
#
# Velocity S-wave (km/s) = 3.35014 3.92509 3.64896
# Velocity P-wave (km/s) = 5.37628 6.18923 5.79702
#
# Compressibility (1/GPa) = 0.03022445
#
# Stress axis : x y z
#
# Youngs Moduli (GPa) = 40.75894 84.13073 59.32902
#
# Poissons Ratio (x) = 0.03491 0.26933
# Poissons Ratio (y) = 0.01691 0.38986
# Poissons Ratio (z) = 0.18503 0.55284
#
# Static dielectric constant tensor:
#      x y z
#    x 1.887240 0.000000 -0.035100 
#    y 0.000000 1.920980 0.000000 
#    z -0.035100 0.000000 1.845220 
# 
# From -- ./inp_files/14381.got.cif
#   From: 2010.05.17/outbox.cif.g08.bks.cpg/sg15_8_cif.got.tgz:14381.got - 2010.06.03 18:47:42.
