data_PCOD9282364
_publ_section_title
;
Structure prediction by ZEFSAII (Michael W. Deem and Ramdas Pophale) SiO2 
 PCOD9282364
Probable space group: C 2/C
;
_chemical_formula_sum "Si O2"
_cell_formula_units_Z 44
_cell_length_a 10.163854
_cell_length_b 19.936233
_cell_length_c 23.779945
_cell_angle_alpha 90.000000
_cell_angle_beta 155.086237
_cell_angle_gamma 90.000000
_cell_volume 2029.813209
_symmetry_space_group_name_H-M "C 2/C"
_symmetry_group_IT_number 15
_symmetry_cell_setting 'monoclinic'
loop_
_space_group_symop_operation_xyz
x,y,z
-x,y,1/2-z
-x,-y,-z
x,-y,1/2+z
1/2+x,1/2+y,z
1/2-x,1/2+y,1/2-z
1/2-x,1/2-y,-z
1/2+x,1/2-y,1/2+z
loop_
_atom_site_type_symbol
_atom_site_label
_atom_site_fract_x
_atom_site_fract_y
_atom_site_fract_z
Si Si1 0.091584 0.353709 0.718255
Si Si2 0.651601 0.714939 0.871743
Si Si3 0.206953 0.637284 0.057361
Si Si4 0.500000 0.532374 0.250000
Si Si5 0.363319 0.006012 0.135948
Si Si6 0.244479 0.410680 0.217140
O O1 0.460951 0.351046 0.845333
O O2 0.000000 0.353960 0.750000
O O3 0.935563 0.285704 0.634423
O O4 0.961150 0.424178 0.643749
O O5 0.500000 0.719196 0.750000
O O6 0.473185 0.648539 0.825099
O O7 0.021344 0.701188 0.010324
O O8 0.258836 0.582973 0.126635
O O9 0.956371 0.610726 0.915044
O O10 0.415370 0.479617 0.266203
O O11 0.500000 0.012875 0.250000
O O12 0.494378 0.936599 0.163789
O O13 0.000000 0.000000 0.000000
#
# Coordination Sequence:
#
# PCOD9282364 Si02
#       6
#     8   8   8   4   8   8
#     4  10  21  39  61  91 123 166 205 252 312 375
#     4   9  21  37  63  93 117 163 211 255 306 368
#     4  11  22  39  63  91 124 159 209 262 308 369
#     4  12  22  36  64  92 118 156 208 260 312 352
#     4  11  24  40  65  96 128 168 206 258 318 380
#     4  11  21  39  65  93 121 159 213 258 308 368
#
# _framework density 21.676870999999998
#
# number of rings (size 3 to 8) (size 9 to 14) (size 15 to 20)
#    0.000    1.455    4.545    2.727    0.000    8.000 
#    0.000    0.909    4.000    0.000    0.000    0.000 
#    0.000    0.000    0.000    0.000    0.000    0.000 
#
# Total GULP energy -122582.339821 kJ/mol
# GULP energy per Si atom -5571.924537 kJ/mol
# Density = 2.162753 g / cm^3
# Si number density = 21.676871 Si / 1000 Ang^3
#
#
#
# Elastic Constant Matrix: (Units=GPa)
#
#
# Indices 1 2 3 4 5 6 
#
# 1 39.0131 21.6686 12.3952 -0.0120 18.5474 -0.0003
# 2 21.6686 118.7548 36.3906 0.0045 8.1792 -0.0015
# 3 12.3952 36.3906 103.6956 -0.0239 25.6055 0.0000
# 4 -0.0120 0.0045 -0.0239 20.5708 0.0097 6.5257
# 5 18.5474 8.1792 25.6055 0.0097 35.8121 -0.0016
# 6 -0.0003 -0.0015 0.0000 6.5257 -0.0016 24.4755
#
#
#
# Elastic Compliance Matrix: (Units=1/GPa)
#
#
# Indices 1 2 3 4 5 6 
#
# 1 0.037839 -0.006336 0.002650 0.000040 -0.020045 -0.000012
# 2 -0.006336 0.010498 -0.003819 -0.000014 0.003615 0.000004
# 3 0.002650 -0.003819 0.013104 0.000025 -0.009870 -0.000007
# 4 0.000040 -0.000014 0.000025 0.053104 -0.000050 -0.014159
# 5 -0.020045 0.003615 -0.009870 -0.000050 0.044536 0.000016
# 6 -0.000012 0.000004 -0.000007 -0.014159 0.000016 0.044632
#
#
# Mechanical properties :
#
#
# Convention : Reuss Voigt Hill
#
# Bulk Modulus (GPa) = 21.53705 44.70803 33.12254
# Shear Modulus (GPa) = 21.34907 28.90562 25.12735
#
# Velocity S-wave (km/s) = 3.14168 3.65564 3.40836
# Velocity P-wave (km/s) = 4.80804 6.20386 5.55000
#
# Compressibility (1/GPa) = 0.04643162
#
# Stress axis : x y z
#
# Youngs Moduli (GPa) = 26.42758 95.25417 76.31053
#
# Poissons Ratio (x) = 0.60352 -0.20223
# Poissons Ratio (y) = 0.16744 0.29146
# Poissons Ratio (z) = -0.07004 0.36381
#
# Static dielectric constant tensor:
#      x y z
#    x 1.950770 0.000020 0.007230 
#    y 0.000020 1.906640 -0.000020 
#    z 0.007230 -0.000020 1.771040 
# 
# From -- ./inp_files/31058.got.cif
#   From: 2010.05.17/outbox.cif.g08.bks.cpg/sg15_16_cif.got.tgz:31058.got - 2010.06.03 18:47:42.
