data_PCOD9282504
_publ_section_title
;
Structure prediction by ZEFSAII (Michael W. Deem and Ramdas Pophale) SiO2 
 PCOD9282504
Probable space group: C 2/C
;
_chemical_formula_sum "Si O2"
_cell_formula_units_Z 52
_cell_length_a 25.571580
_cell_length_b 6.736326
_cell_length_c 16.771814
_cell_angle_alpha 90.000000
_cell_angle_beta 124.825556
_cell_angle_gamma 90.000000
_cell_volume 2371.636244
_symmetry_space_group_name_H-M "C 2/C"
_symmetry_group_IT_number 15
_symmetry_cell_setting 'monoclinic'
loop_
_space_group_symop_operation_xyz
x,y,z
-x,y,1/2-z
-x,-y,-z
x,-y,1/2+z
1/2+x,1/2+y,z
1/2-x,1/2+y,1/2-z
1/2-x,1/2-y,-z
1/2+x,1/2-y,1/2+z
loop_
_atom_site_type_symbol
_atom_site_label
_atom_site_fract_x
_atom_site_fract_y
_atom_site_fract_z
Si Si1 0.115348 0.384283 0.253173
Si Si2 0.271266 0.372668 0.595799
Si Si3 0.552496 0.531146 0.443591
Si Si4 0.713340 0.224727 0.329805
Si Si5 0.457207 0.806558 0.457511
Si Si6 0.500000 0.737896 0.250000
Si Si7 0.188951 0.116688 0.635397
O O1 0.158642 0.203324 0.320618
O O2 0.155342 0.582205 0.304033
O O3 0.104357 0.361358 0.148431
O O4 0.048186 0.370625 0.239708
O O5 0.250000 0.250000 0.500000
O O6 0.269758 0.608875 0.590802
O O7 0.224369 0.300234 0.624546
O O8 0.494322 0.642687 0.437222
O O9 0.551830 0.298615 0.465425
O O10 0.542258 0.598277 0.344446
O O11 0.617957 0.606127 0.539567
O O12 0.692215 0.345508 0.232251
O O13 0.771340 0.078550 0.356492
O O14 0.500000 0.000000 0.500000
#
# Coordination Sequence:
#
# PCOD9282504 Si02
#       7
#     8   8   8   8   8   4   8
#     4  10  23  41  67  94 137 173 231 280 344 407
#     4  11  24  43  65  98 137 175 223 284 347 410
#     4  10  22  39  64  89 132 172 227 277 337 396
#     4  11  23  40  67 101 135 177 227 286 343 414
#     4  10  21  39  62  94 122 172 227 284 330 395
#     4  10  22  46  64  96 136 192 228 286 350 418
#     4  11  22  39  67  99 132 180 227 281 342 413
#
# _framework density 21.925792000000001
#
# number of rings (size 3 to 8) (size 9 to 14) (size 15 to 20)
#    0.000    1.538    1.538    2.769    2.154    6.154 
#    0.000   11.538    0.000    0.000    0.000    0.000 
#    0.000    0.000    0.000    0.000    0.000    0.000 
#
# Total GULP energy -145321.460339 kJ/mol
# GULP energy per Si atom -5589.286936 kJ/mol
# Density = 2.187589 g / cm^3
# Si number density = 21.925792 Si / 1000 Ang^3
#
#
#
# Elastic Constant Matrix: (Units=GPa)
#
#
# Indices 1 2 3 4 5 6 
#
# 1 50.6078 12.1317 -11.2456 0.0000 -1.3541 0.0000
# 2 12.1317 125.9475 16.8039 0.0001 -10.1854 0.0000
# 3 -11.2456 16.8039 80.7735 0.0000 -4.0527 0.0000
# 4 0.0000 0.0001 0.0000 32.2194 0.0000 -6.0182
# 5 -1.3541 -10.1854 -4.0527 0.0000 31.1541 0.0000
# 6 0.0000 0.0000 0.0000 -6.0182 0.0000 21.7325
#
#
#
# Elastic Compliance Matrix: (Units=1/GPa)
#
#
# Indices 1 2 3 4 5 6 
#
# 1 0.021137 -0.002455 0.003482 0.000000 0.000569 0.000000
# 2 -0.002455 0.008644 -0.002017 0.000000 0.002457 0.000000
# 3 0.003482 -0.002017 0.013346 0.000000 0.001228 0.000000
# 4 0.000000 0.000000 0.000000 0.032730 0.000000 0.009064
# 5 0.000569 0.002457 0.001228 0.000000 0.033086 0.000000
# 6 0.000000 0.000000 0.000000 0.009064 0.000000 0.048524
#
#
# Mechanical properties :
#
#
# Convention : Reuss Voigt Hill
#
# Bulk Modulus (GPa) = 24.30202 32.52320 28.41261
# Shear Modulus (GPa) = 28.87459 32.99713 30.93586
#
# Velocity S-wave (km/s) = 3.63288 3.88357 3.76032
# Velocity P-wave (km/s) = 5.35770 5.91397 5.64269
#
# Compressibility (1/GPa) = 0.04114884
#
# Stress axis : x y z
#
# Youngs Moduli (GPa) = 47.31005 115.68703 74.92749
#
# Poissons Ratio (x) = 0.28396 -0.26090
# Poissons Ratio (y) = 0.11612 0.15111
# Poissons Ratio (z) = -0.16473 0.23331
#
# Static dielectric constant tensor:
#      x y z
#    x 1.831380 0.000000 -0.047040 
#    y 0.000000 1.768250 0.000000 
#    z -0.047040 0.000000 1.847070 
# 
# From -- ./inp_files/221341.got.cif
#   From: 2010.05.17/outbox.cif.g08.bks.cpg/sg15_111_cif.got.tgz:221341.got - 2010.06.03 18:47:42.
