data_PCOD9282988
_publ_section_title
;
Structure prediction by ZEFSAII (Michael W. Deem and Ramdas Pophale) SiO2 
 PCOD9282988
Probable space group: C 2/C
;
_chemical_formula_sum "Si O2"
_cell_formula_units_Z 52
_cell_length_a 7.656562
_cell_length_b 28.229385
_cell_length_c 16.366483
_cell_angle_alpha 90.000000
_cell_angle_beta 38.131889
_cell_angle_gamma 90.000000
_cell_volume 2184.283939
_symmetry_space_group_name_H-M "C 2/C"
_symmetry_group_IT_number 15
_symmetry_cell_setting 'monoclinic'
loop_
_space_group_symop_operation_xyz
x,y,z
-x,y,1/2-z
-x,-y,-z
x,-y,1/2+z
1/2+x,1/2+y,z
1/2-x,1/2+y,1/2-z
1/2-x,1/2-y,-z
1/2+x,1/2-y,1/2+z
loop_
_atom_site_type_symbol
_atom_site_label
_atom_site_fract_x
_atom_site_fract_y
_atom_site_fract_z
Si Si1 0.976100 0.338460 0.043280
Si Si2 0.500000 0.324518 0.750000
Si Si3 0.415327 0.700121 0.938976
Si Si4 0.777584 0.115610 0.093008
Si Si5 0.591857 0.917479 0.120099
Si Si6 0.820391 0.482281 0.900019
Si Si7 0.293221 0.750900 0.196816
O O1 0.938612 0.377134 0.125787
O O2 0.703891 0.333411 0.087489
O O3 0.004211 0.283939 0.066683
O O4 0.233082 0.350406 0.887622
O O5 0.616216 0.295149 0.786142
O O6 0.722177 0.714560 0.799435
O O7 0.250000 0.750000 0.000000
O O8 0.365182 0.668527 0.035215
O O9 0.500000 0.121088 0.250000
O O10 0.696087 0.071656 0.061538
O O11 0.076413 0.095652 0.015749
O O12 0.500000 0.915422 0.250000
O O13 0.545460 0.971494 0.106824
O O14 0.000000 0.477724 0.750000
O O15 0.500000 0.500000 0.000000
O O16 0.000000 0.745942 0.250000
#
# Coordination Sequence:
#
# PCOD9282988 Si02
#       7
#     8   4   8   8   8   8   8
#     4  11  25  39  59  89 120 160 211 260 314 371
#     4  12  24  42  62  88 130 164 218 262 314 368
#     4  11  23  42  56  84 128 163 202 254 310 374
#     4  10  22  37  63  91 122 163 205 253 324 375
#     4  10  21  39  66  92 119 157 210 261 311 378
#     4   8  16  35  59  90 119 150 200 258 309 379
#     4  10  24  42  60  84 121 173 216 259 312 378
#
# _framework density 23.806429000000001
#
# number of rings (size 3 to 8) (size 9 to 14) (size 15 to 20)
#    0.000    1.846    1.538    1.385    5.385    4.308 
#    0.000    0.769    0.000    0.000    6.000    0.000 
#    0.000    0.000    0.000    0.000    0.000    0.000 
#
# Total GULP energy -144790.936975 kJ/mol
# GULP energy per Si atom -5568.882191 kJ/mol
# Density = 2.375224 g / cm^3
# Si number density = 23.806429 Si / 1000 Ang^3
#
#
#
# Elastic Constant Matrix: (Units=GPa)
#
#
# Indices 1 2 3 4 5 6 
#
# 1 59.3580 24.2818 8.0055 0.0000 2.8791 0.0000
# 2 24.2818 110.8189 -9.0198 0.0000 9.4087 0.0000
# 3 8.0055 -9.0198 104.0535 0.0000 -6.8835 0.0000
# 4 0.0000 0.0000 0.0000 14.9789 0.0000 -6.9485
# 5 2.8791 9.4087 -6.8835 0.0000 27.1119 0.0000
# 6 0.0000 0.0000 0.0000 -6.9485 0.0000 25.5441
#
#
#
# Elastic Compliance Matrix: (Units=1/GPa)
#
#
# Indices 1 2 3 4 5 6 
#
# 1 0.018869 -0.004201 -0.001884 0.000000 -0.001024 0.000000
# 2 -0.004201 0.010270 0.001024 0.000000 -0.002858 0.000000
# 3 -0.001884 0.001024 0.010002 0.000000 0.002384 0.000000
# 4 0.000000 0.000000 0.000000 0.076401 0.000000 0.020783
# 5 -0.001024 -0.002858 0.002384 0.000000 0.038590 0.000000
# 6 0.000000 0.000000 0.000000 0.020783 0.000000 0.044801
#
#
# Mechanical properties :
#
#
# Convention : Reuss Voigt Hill
#
# Bulk Modulus (GPa) = 34.45770 35.64061 35.04915
# Shear Modulus (GPa) = 22.85948 30.25783 26.55866
#
# Velocity S-wave (km/s) = 3.10211 3.56897 3.34370
# Velocity P-wave (km/s) = 5.22841 5.65569 5.44625
#
# Compressibility (1/GPa) = 0.02902109
#
# Stress axis : x y z
#
# Youngs Moduli (GPa) = 52.99674 97.36911 99.98137
#
# Poissons Ratio (x) = 0.40903 0.18833
# Poissons Ratio (y) = 0.22263 -0.10242
# Poissons Ratio (z) = 0.09983 -0.09974
#
# Static dielectric constant tensor:
#      x y z
#    x 2.028690 0.000000 0.086750 
#    y 0.000000 2.016510 0.000000 
#    z 0.086750 0.000000 2.016320 
# 
# From -- ./inp_files/193668.got.cif
#   From: 2010.05.17/outbox.cif.g08.bks.cpg/sg15_97_cif.got.tgz:193668.got - 2010.06.03 18:47:42.
