data_PCOD9282749
_publ_section_title
;
Structure prediction by ZEFSAII (Michael W. Deem and Ramdas Pophale) SiO2 
 PCOD9282749
Probable space group: C 2/C
;
_chemical_formula_sum "Si O2"
_cell_formula_units_Z 40
_cell_length_a 24.255706
_cell_length_b 7.378058
_cell_length_c 15.899460
_cell_angle_alpha 90.000000
_cell_angle_beta 32.202005
_cell_angle_gamma 90.000000
_cell_volume 1516.313067
_symmetry_space_group_name_H-M "C 2/C"
_symmetry_group_IT_number 15
_symmetry_cell_setting 'monoclinic'
loop_
_space_group_symop_operation_xyz
x,y,z
-x,y,1/2-z
-x,-y,-z
x,-y,1/2+z
1/2+x,1/2+y,z
1/2-x,1/2+y,1/2-z
1/2-x,1/2-y,-z
1/2+x,1/2-y,1/2+z
loop_
_atom_site_type_symbol
_atom_site_label
_atom_site_fract_x
_atom_site_fract_y
_atom_site_fract_z
Si Si1 0.289026 0.250563 0.754060
Si Si2 0.350631 0.801184 0.422592
Si Si3 0.341317 0.340085 0.224432
Si Si4 0.929007 0.322427 0.771755
Si Si5 0.977216 0.347198 0.112367
O O1 0.334511 0.447170 0.716128
O O2 0.259314 0.235486 0.695127
O O3 0.372910 0.122757 0.690845
O O4 0.180507 0.234437 0.945409
O O5 0.250000 0.750000 0.500000
O O6 0.444002 0.741378 0.240943
O O7 0.363754 0.019555 0.402924
O O8 0.360193 0.294153 0.297626
O O9 0.440026 0.256143 0.048924
O O10 0.000664 0.453764 0.619996
O O11 0.000000 0.228244 0.750000
#
# Coordination Sequence:
#
# PCOD9282749 Si02
#       5
#     8   8   8   8   8
#     4  11  23  41  65 100 129 167 216 273 326 386
#     4   8  19  39  63  86 126 163 215 256 321 387
#     4  12  24  39  68  97 133 168 217 273 325 385
#     4  10  21  39  64  92 126 174 214 259 321 393
#     4   9  21  43  66  89 126 173 217 262 320 393
#
# _framework density 26.379776
#
# number of rings (size 3 to 8) (size 9 to 14) (size 15 to 20)
#    1.200    0.800    0.000    3.600    0.000    2.400 
#    0.000    1.000    0.000    0.000    0.000    0.000 
#    0.000    0.000    0.000    0.000    0.000    0.000 
#
# Total GULP energy -111689.204152 kJ/mol
# GULP energy per Si atom -5584.460208 kJ/mol
# Density = 2.631973 g / cm^3
# Si number density = 26.379776 Si / 1000 Ang^3
#
#
#
# Elastic Constant Matrix: (Units=GPa)
#
#
# Indices 1 2 3 4 5 6 
#
# 1 265.6207 50.0492 19.8420 0.0005 19.1611 -0.0004
# 2 50.0492 62.4222 5.7519 0.0003 4.2480 0.0008
# 3 19.8420 5.7519 111.0705 0.0005 0.0767 0.0002
# 4 0.0005 0.0003 0.0005 18.9157 -0.0001 7.3503
# 5 19.1611 4.2480 0.0767 -0.0001 27.8108 0.0005
# 6 -0.0004 0.0008 0.0002 7.3503 0.0005 9.4597
#
#
#
# Elastic Compliance Matrix: (Units=1/GPa)
#
#
# Indices 1 2 3 4 5 6 
#
# 1 0.004666 -0.003499 -0.000650 0.000000 -0.002678 0.000001
# 2 -0.003499 0.018890 -0.000353 0.000001 -0.000474 -0.000002
# 3 -0.000650 -0.000353 0.009137 0.000000 0.000477 0.000000
# 4 0.000000 0.000001 0.000000 0.075733 0.000002 -0.058845
# 5 -0.002678 -0.000474 0.000477 0.000002 0.037874 -0.000004
# 6 0.000001 -0.000002 0.000000 -0.058845 -0.000004 0.151435
#
#
# Mechanical properties :
#
#
# Convention : Reuss Voigt Hill
#
# Bulk Modulus (GPa) = 42.21378 65.59997 53.90687
# Shear Modulus (GPa) = 15.89142 35.46858 25.68000
#
# Velocity S-wave (km/s) = 2.45707 3.67077 3.12344
# Velocity P-wave (km/s) = 4.90781 6.54886 5.78680
#
# Compressibility (1/GPa) = 0.02368895
#
# Stress axis : x y z
#
# Youngs Moduli (GPa) = 214.32429 52.93818 109.43986
#
# Poissons Ratio (x) = 0.18522 0.07119
# Poissons Ratio (y) = 0.74987 0.03862
# Poissons Ratio (z) = 0.13941 0.01868
#
# Static dielectric constant tensor:
#      x y z
#    x 2.123340 0.000000 0.007010 
#    y 0.000000 2.064570 0.000000 
#    z 0.007010 0.000000 2.184150 
# 
# From -- ./inp_files/171659.got.cif
#   From: 2010.05.17/outbox.cif.g08.bks.cpg/sg15_86_cif.got.tgz:171659.got - 2010.06.03 18:47:42.
