data_PCOD9282873
_publ_section_title
;
Structure prediction by ZEFSAII (Michael W. Deem and Ramdas Pophale) SiO2 
 PCOD9282873
Probable space group: C 2/C
;
_chemical_formula_sum "Si O2"
_cell_formula_units_Z 60
_cell_length_a 11.562672
_cell_length_b 13.862030
_cell_length_c 17.407110
_cell_angle_alpha 90.000000
_cell_angle_beta 107.037838
_cell_angle_gamma 90.000000
_cell_volume 2667.597125
_symmetry_space_group_name_H-M "C 2/C"
_symmetry_group_IT_number 15
_symmetry_cell_setting 'monoclinic'
loop_
_space_group_symop_operation_xyz
x,y,z
-x,y,1/2-z
-x,-y,-z
x,-y,1/2+z
1/2+x,1/2+y,z
1/2-x,1/2+y,1/2-z
1/2-x,1/2-y,-z
1/2+x,1/2-y,1/2+z
loop_
_atom_site_type_symbol
_atom_site_label
_atom_site_fract_x
_atom_site_fract_y
_atom_site_fract_z
Si Si1 0.313404 0.176234 0.809090
Si Si2 0.412040 0.358882 0.331251
Si Si3 0.695931 0.653059 0.067768
Si Si4 0.022580 0.942413 0.890487
Si Si5 0.272903 0.355418 0.466154
Si Si6 0.012650 0.408079 0.449670
Si Si7 0.432930 0.785692 0.571729
Si Si8 0.000000 0.209711 0.250000
O O1 0.187762 0.135220 0.754354
O O2 0.295634 0.261460 0.867533
O O3 0.402123 0.102122 0.869179
O O4 0.387949 0.224141 0.753515
O O5 0.498428 0.452172 0.351373
O O6 0.340565 0.351694 0.398256
O O7 0.486532 0.258879 0.345726
O O8 0.598091 0.579627 0.082214
O O9 0.836405 0.633378 0.078027
O O10 0.641417 0.695414 0.978363
O O11 0.027649 0.860271 0.826380
O O12 0.142345 0.922432 0.963323
O O13 0.250000 0.250000 0.500000
O O14 0.139884 0.399751 0.432485
O O15 0.000000 0.500000 0.500000
O O16 0.004819 0.322158 0.511243
#
# Coordination Sequence:
#
# PCOD9282873 Si02
#       8
#     8   8   8   8   8   8   8   4
#     4  10  22  44  64  92 131 181 216 279 344 406
#     4  12  24  39  68 101 135 170 227 286 351 396
#     4   9  20  41  62  86 131 164 216 258 342 403
#     4  11  24  39  67 105 128 173 225 291 335 405
#     4  12  22  42  69  98 135 178 235 274 339 423
#     4  11  25  42  67  98 132 182 236 278 336 414
#     4  10  21  39  65  92 126 179 211 273 339 404
#     4  10  22  44  68  92 138 182 224 272 352 416
#
# _framework density 22.492152000000001
#
# number of rings (size 3 to 8) (size 9 to 14) (size 15 to 20)
#    0.000    1.333    2.667    3.600    1.867    4.800 
#    2.400    0.000    0.000    0.000    0.000    0.000 
#    0.000    0.000    0.000    0.000    0.000    0.000 
#
# Total GULP energy -167709.911800 kJ/mol
# GULP energy per Si atom -5590.330393 kJ/mol
# Density = 2.244096 g / cm^3
# Si number density = 22.492152 Si / 1000 Ang^3
#
#
#
# Elastic Constant Matrix: (Units=GPa)
#
#
# Indices 1 2 3 4 5 6 
#
# 1 101.9732 17.8150 36.2461 0.0000 7.0341 0.0000
# 2 17.8150 77.8300 33.3487 0.0000 19.5881 0.0000
# 3 36.2461 33.3487 108.1314 0.0000 32.4007 0.0000
# 4 0.0000 0.0000 0.0000 29.3587 0.0000 -4.8990
# 5 7.0341 19.5881 32.4007 0.0000 52.3660 0.0000
# 6 0.0000 0.0000 0.0000 -4.8990 0.0000 21.0650
#
#
#
# Elastic Compliance Matrix: (Units=1/GPa)
#
#
# Indices 1 2 3 4 5 6 
#
# 1 0.011284 -0.001294 -0.003774 0.000000 0.001303 0.000000
# 2 -0.001294 0.015442 -0.003253 0.000000 -0.003590 0.000000
# 3 -0.003774 -0.003253 0.013503 0.000000 -0.006631 0.000000
# 4 0.000000 0.000000 0.000000 0.035437 0.000000 0.008241
# 5 0.001303 -0.003590 -0.006631 0.000000 0.024367 0.000000
# 6 0.000000 0.000000 0.000000 0.008241 0.000000 0.049389
#
#
# Mechanical properties :
#
#
# Convention : Reuss Voigt Hill
#
# Bulk Modulus (GPa) = 42.39532 51.41714 46.90623
# Shear Modulus (GPa) = 28.74781 33.92625 31.33703
#
# Velocity S-wave (km/s) = 3.57897 3.88797 3.73667
# Velocity P-wave (km/s) = 5.99738 6.56238 6.28623
#
# Compressibility (1/GPa) = 0.02358751
#
# Stress axis : x y z
#
# Youngs Moduli (GPa) = 88.62047 64.75838 74.05580
#
# Poissons Ratio (x) = 0.08379 0.27948
# Poissons Ratio (y) = 0.11466 0.24092
# Poissons Ratio (z) = 0.33445 0.21067
#
# Static dielectric constant tensor:
#      x y z
#    x 1.899130 0.000000 -0.010920 
#    y 0.000000 2.135860 0.000000 
#    z -0.010920 0.000000 1.805750 
# 
# From -- ./inp_files/198383.got.cif
#   From: 2010.05.17/outbox.cif.g08.bks.cpg/sg15_100_cif.got.tgz:198383.got - 2010.06.03 18:47:42.
