data_PCOD9282202
_publ_section_title
;
Structure prediction by ZEFSAII (Michael W. Deem and Ramdas Pophale) SiO2 
 PCOD9282202
Probable space group: C 2/C
;
_chemical_formula_sum "Si O2"
_cell_formula_units_Z 64
_cell_length_a 23.718037
_cell_length_b 27.593257
_cell_length_c 9.048107
_cell_angle_alpha 90.000000
_cell_angle_beta 148.010337
_cell_angle_gamma 90.000000
_cell_volume 3137.066517
_symmetry_space_group_name_H-M "C 2/C"
_symmetry_group_IT_number 15
_symmetry_cell_setting 'monoclinic'
loop_
_space_group_symop_operation_xyz
x,y,z
-x,y,1/2-z
-x,-y,-z
x,-y,1/2+z
1/2+x,1/2+y,z
1/2-x,1/2+y,1/2-z
1/2-x,1/2-y,-z
1/2+x,1/2-y,1/2+z
loop_
_atom_site_type_symbol
_atom_site_label
_atom_site_fract_x
_atom_site_fract_y
_atom_site_fract_z
Si Si1 0.127785 0.291881 0.824309
Si Si2 0.209601 0.493793 0.142997
Si Si3 0.274649 0.214268 0.268959
Si Si4 0.392606 0.657716 0.415346
Si Si5 0.235439 0.073380 0.471188
Si Si6 0.956615 0.772972 0.804693
Si Si7 0.468899 0.118747 0.020479
Si Si8 0.924818 0.540608 0.404091
O O1 0.194819 0.304943 0.826402
O O2 0.057941 0.246610 0.616382
O O3 0.041317 0.331911 0.682901
O O4 0.211194 0.266187 0.120306
O O5 0.255556 0.537970 0.149989
O O6 0.270456 0.461301 0.398630
O O7 0.119252 0.520355 0.041708
O O8 0.169678 0.457526 0.926440
O O9 0.202805 0.175991 0.192896
O O10 0.383731 0.227576 0.594385
O O11 0.365016 0.606405 0.283822
O O12 0.397260 0.693592 0.286915
O O13 0.500000 0.658625 0.750000
O O14 0.341331 0.108342 0.725548
O O15 0.000000 0.796387 0.750000
O O16 0.500000 0.095822 0.250000
O O17 0.514242 0.090584 0.978391
O O18 0.000000 0.500000 0.500000
#
# Coordination Sequence:
#
# PCOD9282202 Si02
#       8
#     8   8   8   8   8   8   8   8
#     4  10  23  39  60  97 133 169 213 259 316 375
#     4  10  21  39  59  86 128 163 199 254 326 384
#     4  10  22  42  64  88 130 177 214 256 318 368
#     4  12  25  44  67  93 123 165 224 270 313 364
#     4  11  25  41  64  96 124 167 213 258 326 391
#     4  10  22  43  66  92 128 169 209 265 320 372
#     4  12  23  33  59 100 135 164 214 254 310 397
#     4  11  18  34  57  86 130 166 193 247 319 386
#
# _framework density 20.401225
#
# number of rings (size 3 to 8) (size 9 to 14) (size 15 to 20)
#    0.000    1.250    5.000    1.500    5.250    0.000 
#    0.000    3.125    0.000    0.000    0.000    0.000 
#    0.000    0.000    0.000    0.000    0.000    0.000 
#
# Total GULP energy -178303.108800 kJ/mol
# GULP energy per Si atom -5571.972150 kJ/mol
# Density = 2.035479 g / cm^3
# Si number density = 20.401225 Si / 1000 Ang^3
#
#
#
# Elastic Constant Matrix: (Units=GPa)
#
#
# Indices 1 2 3 4 5 6 
#
# 1 63.5231 10.7783 15.9588 0.0000 -13.7994 0.0000
# 2 10.7783 29.2948 1.6078 0.0000 -5.5048 0.0000
# 3 15.9588 1.6078 64.3759 0.0000 -11.5865 0.0000
# 4 0.0000 0.0000 0.0000 -0.6650 0.0000 -23.7990
# 5 -13.7994 -5.5048 -11.5865 0.0000 19.5733 0.0000
# 6 0.0000 0.0000 0.0000 -23.7990 0.0000 0.8464
#
#
#
# Elastic Compliance Matrix: (Units=1/GPa)
#
#
# Indices 1 2 3 4 5 6 
#
# 1 0.019643 -0.005050 -0.002805 0.000000 0.010768 0.000000
# 2 -0.005050 0.037400 0.001757 0.000000 0.007999 0.000000
# 3 -0.002805 0.001757 0.017817 0.000000 0.009063 0.000000
# 4 0.000000 0.000000 0.000000 -0.001493 0.000000 -0.041977
# 5 0.010768 0.007999 0.009063 0.000000 0.066296 0.000000
# 6 0.000000 0.000000 0.000000 -0.041977 0.000000 0.001173
#
#
# Mechanical properties :
#
#
# Convention : Reuss Voigt Hill
#
# Bulk Modulus (GPa) = 15.95810 23.76483 19.86147
# Shear Modulus (GPa) = 28.74897 12.54087 20.64492
#
# Velocity S-wave (km/s) = 3.75798 2.48203 3.18456
# Velocity P-wave (km/s) = 5.16420 4.45959 4.82478
#
# Compressibility (1/GPa) = 0.06266409
#
# Stress axis : x y z
#
# Youngs Moduli (GPa) = 50.90859 26.73777 56.12770
#
# Poissons Ratio (x) = 0.13502 0.15746
# Poissons Ratio (y) = 0.25708 -0.09864
# Poissons Ratio (z) = 0.14282 -0.04699
#
# Static dielectric constant tensor:
#      x y z
#    x 1.761030 0.000000 -0.015930 
#    y 0.000000 1.761760 0.000000 
#    z -0.015930 0.000000 1.762220 
# 
# From -- ./inp_files/64216.got.cif
#   From: 2010.05.17/outbox.cif.g08.bks.cpg/sg15_33_cif.got.tgz:64216.got - 2010.06.03 18:47:42.
