data_PCOD9282683
_publ_section_title
;
Structure prediction by ZEFSAII (Michael W. Deem and Ramdas Pophale) SiO2 
 PCOD9282683
Probable space group: C 2/C
;
_chemical_formula_sum "Si O2"
_cell_formula_units_Z 44
_cell_length_a 19.504966
_cell_length_b 11.176903
_cell_length_c 8.931030
_cell_angle_alpha 90.000000
_cell_angle_beta 102.994275
_cell_angle_gamma 90.000000
_cell_volume 1897.152213
_symmetry_space_group_name_H-M "C 2/C"
_symmetry_group_IT_number 15
_symmetry_cell_setting 'monoclinic'
loop_
_space_group_symop_operation_xyz
x,y,z
-x,y,1/2-z
-x,-y,-z
x,-y,1/2+z
1/2+x,1/2+y,z
1/2-x,1/2+y,1/2-z
1/2-x,1/2-y,-z
1/2+x,1/2-y,1/2+z
loop_
_atom_site_type_symbol
_atom_site_label
_atom_site_fract_x
_atom_site_fract_y
_atom_site_fract_z
Si Si1 0.418663 0.971962 0.921496
Si Si2 0.414828 0.242170 0.936363
Si Si3 0.275158 0.394539 0.356145
Si Si4 0.500000 0.168098 0.250000
Si Si5 0.138400 0.736323 0.894722
Si Si6 0.709383 0.626148 0.978677
O O1 0.431709 0.911104 0.765282
O O2 0.385524 0.103472 0.915069
O O3 0.385281 0.874886 0.014153
O O4 0.500000 0.000000 0.000000
O O5 0.419077 0.265102 0.760587
O O6 0.478514 0.237504 0.087898
O O7 0.363203 0.340760 0.977331
O O8 0.211184 0.301372 0.346882
O O9 0.339492 0.344334 0.486863
O O10 0.252989 0.521887 0.411312
O O11 0.297522 0.409388 0.196900
O O12 0.750000 0.750000 0.000000
#
# Coordination Sequence:
#
# PCOD9282683 Si02
#       6
#     8   8   8   4   8   8
#     4  10  21  39  63  99 133 177 232 288 343 399
#     4  11  21  39  63  96 131 179 217 284 339 401
#     4  11  26  42  64  99 135 182 229 274 350 416
#     4  10  22  38  64  98 136 174 232 280 340 396
#     4  11  23  40  64  95 138 176 226 282 347 412
#     4  12  24  43  67  96 140 181 229 286 344 415
#
# _framework density 23.192658000000002
#
# number of rings (size 3 to 8) (size 9 to 14) (size 15 to 20)
#    0.000    1.091    1.818    5.455    2.545    2.182 
#    0.000    0.000    0.000   17.455    0.000    1.273 
#    0.000    0.000    0.000    0.000    0.000    0.000 
#
# Total GULP energy -122864.545037 kJ/mol
# GULP energy per Si atom -5584.752047 kJ/mol
# Density = 2.313987 g / cm^3
# Si number density = 23.192658 Si / 1000 Ang^3
#
#
#
# Elastic Constant Matrix: (Units=GPa)
#
#
# Indices 1 2 3 4 5 6 
#
# 1 41.8530 0.9724 18.2607 0.0000 -9.8391 0.0000
# 2 0.9724 56.8751 28.0219 0.0000 0.6640 0.0000
# 3 18.2607 28.0219 168.2778 0.0000 -2.6822 0.0000
# 4 0.0000 0.0000 0.0000 40.8033 0.0000 -4.2629
# 5 -9.8391 0.6640 -2.6822 0.0000 39.5852 0.0000
# 6 0.0000 0.0000 0.0000 -4.2629 0.0000 25.8948
#
#
#
# Elastic Compliance Matrix: (Units=1/GPa)
#
#
# Indices 1 2 3 4 5 6 
#
# 1 0.026664 0.000920 -0.002944 0.000000 0.006412 0.000000
# 2 0.000920 0.019197 -0.003302 0.000000 -0.000317 0.000000
# 3 -0.002944 -0.003302 0.006808 0.000000 -0.000215 0.000000
# 4 0.000000 0.000000 0.000000 0.024937 0.000000 0.004105
# 5 0.006412 -0.000317 -0.000215 0.000000 0.026847 0.000000
# 6 0.000000 0.000000 0.000000 0.004105 0.000000 0.039294
#
#
# Mechanical properties :
#
#
# Convention : Reuss Voigt Hill
#
# Bulk Modulus (GPa) = 23.79975 40.16843 31.98409
# Shear Modulus (GPa) = 29.69047 35.90672 32.79859
#
# Velocity S-wave (km/s) = 3.58182 3.93898 3.76464
# Velocity P-wave (km/s) = 5.23354 6.16802 5.71990
#
# Compressibility (1/GPa) = 0.04201725
#
# Stress axis : x y z
#
# Youngs Moduli (GPa) = 37.50386 52.09140 146.87680
#
# Poissons Ratio (x) = -0.04792 0.43247
# Poissons Ratio (y) = -0.03450 0.48493
# Poissons Ratio (z) = 0.11043 0.17199
#
# Static dielectric constant tensor:
#      x y z
#    x 1.974860 0.000000 0.053780 
#    y 0.000000 1.891330 0.000000 
#    z 0.053780 0.000000 1.965790 
# 
# From -- ./inp_files/54497.got.cif
#   From: 2010.05.17/outbox.cif.g08.bks.cpg/sg15_28_cif.got.tgz:54497.got - 2010.06.03 18:47:42.
