data_PCOD9282210
_publ_section_title
;
Structure prediction by ZEFSAII (Michael W. Deem and Ramdas Pophale) SiO2 
 PCOD9282210
Probable space group: C 2/C
;
_chemical_formula_sum "Si O2"
_cell_formula_units_Z 52
_cell_length_a 26.780677
_cell_length_b 8.019151
_cell_length_c 10.951020
_cell_angle_alpha 90.000000
_cell_angle_beta 91.718186
_cell_angle_gamma 90.000000
_cell_volume 2350.764964
_symmetry_space_group_name_H-M "C 2/C"
_symmetry_group_IT_number 15
_symmetry_cell_setting 'monoclinic'
loop_
_space_group_symop_operation_xyz
x,y,z
-x,y,1/2-z
-x,-y,-z
x,-y,1/2+z
1/2+x,1/2+y,z
1/2-x,1/2+y,1/2-z
1/2-x,1/2-y,-z
1/2+x,1/2-y,1/2+z
loop_
_atom_site_type_symbol
_atom_site_label
_atom_site_fract_x
_atom_site_fract_y
_atom_site_fract_z
Si Si1 0.781796 0.087652 0.742426
Si Si2 0.179376 0.671093 0.455226
Si Si3 0.478768 0.417425 0.875638
Si Si4 0.500000 0.089343 0.750000
Si Si5 0.392114 0.978712 0.734557
Si Si6 0.134109 0.838424 0.688970
Si Si7 0.197133 0.611398 0.116552
O O1 0.787942 0.214617 0.629809
O O2 0.786422 0.199372 0.864573
O O3 0.829150 0.965326 0.741824
O O4 0.730928 0.990240 0.716677
O O5 0.128966 0.623044 0.380263
O O6 0.164602 0.770327 0.575097
O O7 0.202895 0.494286 0.495299
O O8 0.500000 0.494799 0.750000
O O9 0.496216 0.222529 0.862240
O O10 0.418547 0.415213 0.859233
O O11 0.500000 0.500000 0.000000
O O12 0.451042 0.978153 0.747624
O O13 0.378501 0.175917 0.730723
O O14 0.360501 0.905670 0.845872
#
# Coordination Sequence:
#
# PCOD9282210 Si02
#       7
#     8   8   8   4   8   8   8
#     4  11  23  40  62  89 127 162 211 261 320 384
#     4  10  22  38  63  89 124 162 212 257 324 390
#     4   9  20  37  63  92 132 170 218 267 325 384
#     4   8  18  36  62  86 122 168 212 262 320 378
#     4   9  19  40  60  86 124 160 208 260 316 384
#     4  10  22  40  63  91 124 167 211 268 319 388
#     4  10  21  39  59  90 122 163 207 260 316 388
#
# _framework density 22.120457999999999
#
# number of rings (size 3 to 8) (size 9 to 14) (size 15 to 20)
#    0.462    1.846    0.000    2.308    2.154    3.692 
#    0.000   14.615    0.000    0.000    0.000    0.000 
#    0.000    0.000    0.000    0.000    0.000    0.000 
#
# Total GULP energy -145130.393216 kJ/mol
# GULP energy per Si atom -5581.938201 kJ/mol
# Density = 2.207011 g / cm^3
# Si number density = 22.120458 Si / 1000 Ang^3
#
#
#
# Elastic Constant Matrix: (Units=GPa)
#
#
# Indices 1 2 3 4 5 6 
#
# 1 124.2377 24.5999 21.9224 0.0000 -10.6884 0.0000
# 2 24.5999 27.7837 -2.8844 0.0000 -7.5110 0.0000
# 3 21.9224 -2.8844 45.0634 0.0000 -3.8487 0.0000
# 4 0.0000 0.0000 0.0000 37.4456 0.0000 8.1799
# 5 -10.6884 -7.5110 -3.8487 0.0000 16.5925 0.0000
# 6 0.0000 0.0000 0.0000 8.1799 0.0000 35.8040
#
#
#
# Elastic Compliance Matrix: (Units=1/GPa)
#
#
# Indices 1 2 3 4 5 6 
#
# 1 0.011247 -0.010258 -0.006025 0.000000 0.001204 0.000000
# 2 -0.010258 0.051199 0.009878 0.000000 0.018860 0.000000
# 3 -0.006025 0.009878 0.026326 0.000000 0.006697 0.000000
# 4 0.000000 0.000000 0.000000 0.028108 0.000000 -0.006422
# 5 0.001204 0.018860 0.006697 0.000000 0.071134 0.000000
# 6 0.000000 0.000000 0.000000 -0.006422 0.000000 0.029397
#
#
# Mechanical properties :
#
#
# Convention : Reuss Voigt Hill
#
# Bulk Modulus (GPa) = 13.16450 31.59562 22.38006
# Shear Modulus (GPa) = 19.56617 28.19821 23.88219
#
# Velocity S-wave (km/s) = 2.97733 3.57425 3.28936
# Velocity P-wave (km/s) = 4.21705 5.59894 4.95639
#
# Compressibility (1/GPa) = 0.07596187
#
# Stress axis : x y z
#
# Youngs Moduli (GPa) = 88.91211 19.53161 37.98475
#
# Poissons Ratio (x) = 0.20036 0.22887
# Poissons Ratio (y) = 0.91209 -0.37522
# Poissons Ratio (z) = 0.53572 -0.19294
#
# Static dielectric constant tensor:
#      x y z
#    x 1.793150 0.000000 -0.003390 
#    y 0.000000 1.831280 0.000000 
#    z -0.003390 0.000000 1.832500 
# 
# From -- ./inp_files/121527.got.cif
#   From: 2010.05.17/outbox.cif.g08.bks.cpg/sg15_61_cif.got.tgz:121527.got - 2010.06.03 18:47:42.
