data_PCOD9282796
_publ_section_title
;
Structure prediction by ZEFSAII (Michael W. Deem and Ramdas Pophale) SiO2 
 PCOD9282796
Probable space group: C 2/C
;
_chemical_formula_sum "Si O2"
_cell_formula_units_Z 60
_cell_length_a 25.850514
_cell_length_b 21.138548
_cell_length_c 15.080754
_cell_angle_alpha 90.000000
_cell_angle_beta 19.611206
_cell_angle_gamma 90.000000
_cell_volume 2765.894973
_symmetry_space_group_name_H-M "C 2/C"
_symmetry_group_IT_number 15
_symmetry_cell_setting 'monoclinic'
loop_
_space_group_symop_operation_xyz
x,y,z
-x,y,1/2-z
-x,-y,-z
x,-y,1/2+z
1/2+x,1/2+y,z
1/2-x,1/2+y,1/2-z
1/2-x,1/2-y,-z
1/2+x,1/2-y,1/2+z
loop_
_atom_site_type_symbol
_atom_site_label
_atom_site_fract_x
_atom_site_fract_y
_atom_site_fract_z
Si Si1 0.253610 0.160255 0.903962
Si Si2 0.316935 0.989266 0.962725
Si Si3 0.287841 0.822805 0.763806
Si Si4 0.146037 0.022618 0.071592
Si Si5 0.145019 0.461116 0.906310
Si Si6 0.577611 0.211650 0.707977
Si Si7 0.500000 0.754691 0.750000
Si Si8 0.072970 0.353087 0.778990
O O1 0.309626 0.170093 0.914928
O O2 0.403442 0.149542 0.599531
O O3 0.150197 0.098449 0.064643
O O4 0.162976 0.225857 0.034577
O O5 0.385573 0.919387 0.834214
O O6 0.460026 0.034704 0.705424
O O7 0.174148 0.999925 0.126905
O O8 0.291891 0.005023 0.106543
O O9 0.302570 0.889122 0.689255
O O10 0.431617 0.777177 0.507905
O O11 0.306587 0.839988 0.836825
O O12 0.130304 0.788727 0.997177
O O13 0.000000 0.999744 0.250000
O O14 0.292867 0.997749 0.779676
O O15 0.500000 0.178392 0.750000
O O16 0.576328 0.799068 0.700177
#
# Coordination Sequence:
#
# PCOD9282796 Si02
#       8
#     8   8   8   8   8   8   4   8
#     4  10  22  40  66  97 137 169 220 282 342 403
#     4  11  23  45  74 102 128 179 243 277 347 423
#     4  11  25  42  65  98 139 175 228 283 343 402
#     4  12  25  42  68 101 139 177 219 295 360 405
#     4  11  24  43  73  99 132 183 230 293 340 414
#     4  10  21  39  64  96 132 176 222 276 331 402
#     4  12  26  42  68  96 132 190 226 276 342 410
#     4  11  22  45  70  95 131 179 232 281 335 419
#
# _framework density 21.692798
#
# number of rings (size 3 to 8) (size 9 to 14) (size 15 to 20)
#    0.000    1.067    2.667    4.400    4.667    0.533 
#    0.000    0.000    0.000    0.000    0.000    0.000 
#    0.000    0.000    0.000    0.000    0.000    0.000 
#
# Total GULP energy -167643.664081 kJ/mol
# GULP energy per Si atom -5588.122136 kJ/mol
# Density = 2.164342 g / cm^3
# Si number density = 21.692798 Si / 1000 Ang^3
#
#
#
# Elastic Constant Matrix: (Units=GPa)
#
#
# Indices 1 2 3 4 5 6 
#
# 1 129.0250 23.4830 1.7454 0.0065 -0.3177 -0.0040
# 2 23.4830 132.1083 25.0660 0.0064 5.0892 -0.0032
# 3 1.7454 25.0660 14.8083 0.0182 -8.4361 0.0002
# 4 0.0065 0.0064 0.0182 2.9433 -0.0044 -8.6612
# 5 -0.3177 5.0892 -8.4361 -0.0044 32.0112 -0.0003
# 6 -0.0040 -0.0032 0.0002 -8.6612 -0.0003 11.7478
#
#
#
# Elastic Compliance Matrix: (Units=1/GPa)
#
#
# Indices 1 2 3 4 5 6 
#
# 1 0.008097 -0.002139 0.003419 0.000022 0.001321 0.000019
# 2 -0.002139 0.013742 -0.028552 -0.000125 -0.009731 -0.000089
# 3 0.003419 -0.028552 0.138919 0.000652 0.041183 0.000474
# 4 0.000022 -0.000125 0.000652 -0.290504 0.000150 -0.214177
# 5 0.001321 -0.009731 0.041183 0.000150 0.043653 0.000109
# 6 0.000019 -0.000089 0.000474 -0.214177 0.000109 -0.072782
#
#
# Mechanical properties :
#
#
# Convention : Reuss Voigt Hill
#
# Bulk Modulus (GPa) = 9.41508 41.83670 25.62589
# Shear Modulus (GPa) = -72.54020 24.38362 -24.07829
#
# Velocity S-wave (km/s) = -5.78899 3.35631 -3.33523
# Velocity P-wave (km/s) = 6.35087 5.86068 1.73002
#
# Compressibility (1/GPa) = 0.10621256
#
# Stress axis : x y z
#
# Youngs Moduli (GPa) = 123.50691 72.76925 7.19846
#
# Poissons Ratio (x) = 0.15564 -0.02461
# Poissons Ratio (y) = 0.26416 0.20553
# Poissons Ratio (z) = -0.42225 2.07774
#
# Static dielectric constant tensor:
#      x y z
#    x 1.812290 0.000000 0.002980 
#    y 0.000000 1.786550 0.000000 
#    z 0.002980 0.000000 1.803020 
# 
# From -- ./inp_files/179078.got.cif
#   From: 2010.05.17/outbox.cif.g08.bks.cpg/sg15_90_cif.got.tgz:179078.got - 2010.06.03 18:47:42.
