data_PCOD9282233
_publ_section_title
;
Structure prediction by ZEFSAII (Michael W. Deem and Ramdas Pophale) SiO2 
 PCOD9282233
Probable space group: C 2/C
;
_chemical_formula_sum "Si O2"
_cell_formula_units_Z 64
_cell_length_a 14.070325
_cell_length_b 25.694186
_cell_length_c 9.469557
_cell_angle_alpha 90.000000
_cell_angle_beta 54.771190
_cell_angle_gamma 90.000000
_cell_volume 2796.492116
_symmetry_space_group_name_H-M "C 2/C"
_symmetry_group_IT_number 15
_symmetry_cell_setting 'monoclinic'
loop_
_space_group_symop_operation_xyz
x,y,z
-x,y,1/2-z
-x,-y,-z
x,-y,1/2+z
1/2+x,1/2+y,z
1/2-x,1/2+y,1/2-z
1/2-x,1/2-y,-z
1/2+x,1/2-y,1/2+z
loop_
_atom_site_type_symbol
_atom_site_label
_atom_site_fract_x
_atom_site_fract_y
_atom_site_fract_z
Si Si1 0.197219 0.419771 0.487132
Si Si2 0.316869 0.575076 0.313513
Si Si3 0.700491 0.795793 0.204646
Si Si4 0.845986 0.897772 0.106617
Si Si5 0.424138 0.977923 0.435852
Si Si6 0.977905 0.674505 0.412285
Si Si7 0.204898 0.320359 0.888303
Si Si8 0.068021 0.935832 0.057854
O O1 0.247491 0.426475 0.284876
O O2 0.135353 0.472250 0.587304
O O3 0.101495 0.374833 0.564349
O O4 0.313402 0.411873 0.479567
O O5 0.356890 0.575293 0.443391
O O6 0.183661 0.556459 0.424056
O O7 0.307243 0.636965 0.290329
O O8 0.385879 0.542799 0.134047
O O9 0.801031 0.838614 0.142796
O O10 0.598922 0.798611 0.404341
O O11 0.749585 0.737908 0.172773
O O12 0.656953 0.814981 0.088981
O O13 0.966603 0.899050 0.086178
O O14 0.500000 0.950402 0.250000
O O15 0.500000 0.000000 0.500000
O O16 0.000000 0.705895 0.250000
O O17 0.102181 0.663025 0.373136
O O18 0.000000 0.962621 0.250000
#
# Coordination Sequence:
#
# PCOD9282233 Si02
#       8
#     8   8   8   8   8   8   8   8
#     4  10  21  40  60  88 124 160 196 234 299 369
#     4  11  22  38  61  91 119 152 208 253 290 355
#     4   9  21  39  60  86 116 154 202 245 299 364
#     4   9  20  39  63  87 116 155 201 251 293 345
#     4  12  24  39  62  92 124 158 196 246 303 357
#     4  11  21  36  60  89 122 157 193 243 298 358
#     4  10  21  39  60  84 117 157 196 248 303 352
#     4  10  21  40  62  82 117 162 193 238 303 353
#
# _framework density 22.885815000000001
#
# number of rings (size 3 to 8) (size 9 to 14) (size 15 to 20)
#    0.000    1.750    0.000    4.125    0.000    3.500 
#    0.000   14.375    0.000    0.000    0.000    0.000 
#    0.000    0.000    0.000    0.000    0.000    0.000 
#
# Total GULP energy -178555.986491 kJ/mol
# GULP energy per Si atom -5579.874578 kJ/mol
# Density = 2.283373 g / cm^3
# Si number density = 22.885815 Si / 1000 Ang^3
#
#
#
# Elastic Constant Matrix: (Units=GPa)
#
#
# Indices 1 2 3 4 5 6 
#
# 1 124.1450 1.0594 10.2686 0.0000 20.1591 0.0000
# 2 1.0594 39.4358 3.3732 0.0000 7.3748 0.0000
# 3 10.2686 3.3732 166.7575 0.0000 18.5340 0.0000
# 4 0.0000 0.0000 0.0000 7.2388 0.0000 10.7361
# 5 20.1591 7.3748 18.5340 0.0000 29.1609 0.0000
# 6 0.0000 0.0000 0.0000 10.7361 0.0000 -1.1802
#
#
#
# Elastic Compliance Matrix: (Units=1/GPa)
#
#
# Indices 1 2 3 4 5 6 
#
# 1 0.009113 0.000985 0.000158 0.000000 -0.006650 0.000000
# 2 0.000985 0.026731 0.000243 0.000000 -0.007596 0.000000
# 3 0.000158 0.000243 0.006457 0.000000 -0.004275 0.000000
# 4 0.000000 0.000000 0.000000 0.009532 0.000000 0.086717
# 5 -0.006650 -0.007596 -0.004275 0.000000 0.043527 0.000000
# 6 0.000000 0.000000 0.000000 0.086717 0.000000 -0.058468
#
#
# Mechanical properties :
#
#
# Convention : Reuss Voigt Hill
#
# Bulk Modulus (GPa) = 22.18599 39.97118 31.07858
# Shear Modulus (GPa) = 101.73894 28.08637 64.91266
#
# Velocity S-wave (km/s) = 6.67469 3.50700 5.33154
# Velocity P-wave (km/s) = 8.31368 5.82255 7.17703
#
# Compressibility (1/GPa) = 0.04507349
#
# Stress axis : x y z
#
# Youngs Moduli (GPa) = 109.72818 37.40990 154.86612
#
# Poissons Ratio (x) = -0.03686 -0.02446
# Poissons Ratio (y) = -0.10810 -0.03761
# Poissons Ratio (z) = -0.01733 -0.00908
#
# Static dielectric constant tensor:
#      x y z
#    x 1.876430 0.000000 -0.003000 
#    y 0.000000 1.849200 0.000000 
#    z -0.003000 0.000000 1.993050 
# 
# From -- ./inp_files/44851.got.cif
#   From: 2010.05.17/outbox.cif.g08.bks.cpg/sg15_23_cif.got.tgz:44851.got - 2010.06.03 18:47:42.
