data_PCOD9282532
_publ_section_title
;
Structure prediction by ZEFSAII (Michael W. Deem and Ramdas Pophale) SiO2 
 PCOD9282532
Probable space group: C 2/C
;
_chemical_formula_sum "Si O2"
_cell_formula_units_Z 44
_cell_length_a 28.069605
_cell_length_b 12.930289
_cell_length_c 13.938618
_cell_angle_alpha 90.000000
_cell_angle_beta 19.298570
_cell_angle_gamma 90.000000
_cell_volume 1671.951488
_symmetry_space_group_name_H-M "C 2/C"
_symmetry_group_IT_number 15
_symmetry_cell_setting 'monoclinic'
loop_
_space_group_symop_operation_xyz
x,y,z
-x,y,1/2-z
-x,-y,-z
x,-y,1/2+z
1/2+x,1/2+y,z
1/2-x,1/2+y,1/2-z
1/2-x,1/2-y,-z
1/2+x,1/2-y,1/2+z
loop_
_atom_site_type_symbol
_atom_site_label
_atom_site_fract_x
_atom_site_fract_y
_atom_site_fract_z
Si Si1 0.300849 0.475859 0.788162
Si Si2 0.507858 0.906351 0.848281
Si Si3 0.343502 0.217378 0.040104
Si Si4 0.000000 0.963420 0.250000
Si Si5 0.833289 0.789603 0.439813
Si Si6 0.775993 0.859287 0.007792
O O1 0.249253 0.370933 0.834005
O O2 0.398753 0.522230 0.518766
O O3 0.158684 0.539924 0.087863
O O4 0.361924 0.433274 0.772484
O O5 0.500000 0.928477 0.750000
O O6 0.528595 0.783889 0.819900
O O7 0.366153 0.921241 0.182522
O O8 0.279246 0.242000 0.264607
O O9 0.351059 0.317257 0.959371
O O10 0.500000 0.169978 0.750000
O O11 0.900764 0.895128 0.361266
O O12 0.750000 0.750000 0.500000
O O13 0.750000 0.750000 0.000000
#
# Coordination Sequence:
#
# PCOD9282532 Si02
#       6
#     8   8   8   4   8   8
#     4  10  23  40  70  97 136 187 222 304 357 417
#     4  12  22  44  66 102 141 177 235 292 360 413
#     4  10  21  39  63 100 131 178 237 286 343 428
#     4  10  22  50  66  96 144 184 244 288 360 424
#     4  11  23  40  70  96 130 188 235 293 348 428
#     4  10  21  40  68  98 132 180 229 286 345 419
#
# _framework density 26.316552999999999
#
# number of rings (size 3 to 8) (size 9 to 14) (size 15 to 20)
#    0.000    1.455    2.727    3.273    7.636    0.000 
#    8.182    0.909    0.000    0.000    0.000    0.000 
#    0.000    0.000    0.000    0.000    0.000    0.000 
#
# Total GULP energy -122655.023933 kJ/mol
# GULP energy per Si atom -5575.228361 kJ/mol
# Density = 2.625666 g / cm^3
# Si number density = 26.316553 Si / 1000 Ang^3
#
#
#
# Elastic Constant Matrix: (Units=GPa)
#
#
# Indices 1 2 3 4 5 6 
#
# 1 159.2731 54.4658 52.4434 0.0000 31.3101 0.0000
# 2 54.4658 70.0476 39.1913 0.0000 9.1466 0.0000
# 3 52.4434 39.1913 123.9784 0.0000 39.5205 0.0000
# 4 0.0000 0.0000 0.0000 45.0086 0.0000 -6.1542
# 5 31.3101 9.1466 39.5205 0.0000 42.3591 0.0000
# 6 0.0000 0.0000 0.0000 -6.1542 0.0000 33.5111
#
#
#
# Elastic Compliance Matrix: (Units=1/GPa)
#
#
# Indices 1 2 3 4 5 6 
#
# 1 0.009741 -0.006722 -0.000232 0.000000 -0.005532 0.000000
# 2 -0.006722 0.022096 -0.005984 0.000000 0.005781 0.000000
# 3 -0.000232 -0.005984 0.013648 0.000000 -0.011270 0.000000
# 4 0.000000 0.000000 0.000000 0.022790 0.000000 0.004185
# 5 -0.005532 0.005781 -0.011270 0.000000 0.036963 0.000000
# 6 0.000000 0.000000 0.000000 0.004185 0.000000 0.030609
#
#
# Mechanical properties :
#
#
# Convention : Reuss Voigt Hill
#
# Bulk Modulus (GPa) = 50.99699 71.72225 61.35962
# Shear Modulus (GPa) = 29.71564 37.98900 33.85232
#
# Velocity S-wave (km/s) = 3.36395 3.80352 3.59046
# Velocity P-wave (km/s) = 5.87440 6.82655 6.36829
#
# Compressibility (1/GPa) = 0.01960900
#
# Stress axis : x y z
#
# Youngs Moduli (GPa) = 102.65680 45.25696 73.26926
#
# Poissons Ratio (x) = 0.30422 0.01701
# Poissons Ratio (y) = 0.69007 0.43845
# Poissons Ratio (z) = 0.02383 0.27082
#
# Static dielectric constant tensor:
#      x y z
#    x 2.132280 0.000000 0.006750 
#    y 0.000000 2.121210 0.000000 
#    z 0.006750 0.000000 2.181040 
# 
# From -- ./inp_files/182251.got.cif
#   From: 2010.05.17/outbox.cif.g08.bks.cpg/sg15_92_cif.got.tgz:182251.got - 2010.06.03 18:47:42.
