data_PCOD9282559
_publ_section_title
;
Structure prediction by ZEFSAII (Michael W. Deem and Ramdas Pophale) SiO2 
 PCOD9282559
Probable space group: C 2/C
;
_chemical_formula_sum "Si O2"
_cell_formula_units_Z 40
_cell_length_a 7.149810
_cell_length_b 18.581420
_cell_length_c 13.876660
_cell_angle_alpha 90.000000
_cell_angle_beta 120.045200
_cell_angle_gamma 90.000000
_cell_volume 1595.846053
_symmetry_space_group_name_H-M "C 2/C"
_symmetry_group_IT_number 15
_symmetry_cell_setting 'monoclinic'
loop_
_space_group_symop_operation_xyz
x,y,z
-x,y,1/2-z
-x,-y,-z
x,-y,1/2+z
1/2+x,1/2+y,z
1/2-x,1/2+y,1/2-z
1/2-x,1/2-y,-z
1/2+x,1/2-y,1/2+z
loop_
_atom_site_type_symbol
_atom_site_label
_atom_site_fract_x
_atom_site_fract_y
_atom_site_fract_z
Si Si1 0.599977 0.416127 0.525667
Si Si2 0.410647 0.914355 0.939209
Si Si3 0.763405 0.322468 0.739685
Si Si4 0.843489 0.834071 0.300558
Si Si5 0.440899 0.962683 0.330384
O O1 0.500000 0.500000 0.500000
O O2 0.840784 0.419564 0.537879
O O3 0.628106 0.377662 0.637873
O O4 0.479223 0.353945 0.431175
O O5 0.298698 0.849622 0.857529
O O6 0.307282 0.985182 0.865127
O O7 0.408492 0.921859 0.052854
O O8 0.711210 0.238692 0.743820
O O9 0.000000 0.320620 0.750000
O O10 0.693533 0.902077 0.254215
O O11 0.000000 0.839342 0.250000
O O12 0.500000 0.008092 0.250000
#
# Coordination Sequence:
#
# PCOD9282559 Si02
#       5
#     8   8   8   8   8
#     4  11  21  38  66  95 123 161 213 259 302 371
#     4  10  21  39  63  88 124 163 206 252 309 369
#     4   9  21  36  62  93 124 160 205 253 313 369
#     4  11  22  37  64  93 125 156 208 262 306 360
#     4  11  22  39  63  88 123 170 201 247 312 371
#
# _framework density 25.065072000000001
#
# number of rings (size 3 to 8) (size 9 to 14) (size 15 to 20)
#    0.000    1.600    2.000    4.200    2.800    2.400 
#    0.000    1.000    8.800    0.000    0.000    0.000 
#    0.000    0.000    0.000    0.000    0.000    0.000 
#
# Total GULP energy -111404.086943 kJ/mol
# GULP energy per Si atom -5570.204347 kJ/mol
# Density = 2.500802 g / cm^3
# Si number density = 25.065072 Si / 1000 Ang^3
#
#
#
# Elastic Constant Matrix: (Units=GPa)
#
#
# Indices 1 2 3 4 5 6 
#
# 1 94.7279 -1.7564 11.5187 0.0000 -15.7946 0.0000
# 2 -1.7564 74.3678 10.8343 0.0000 14.1216 0.0000
# 3 11.5187 10.8343 158.1728 0.0000 -32.7785 0.0000
# 4 0.0000 0.0000 0.0000 53.7133 0.0000 -8.7147
# 5 -15.7946 14.1216 -32.7785 0.0000 31.3578 0.0000
# 6 0.0000 0.0000 0.0000 -8.7147 0.0000 6.6530
#
#
#
# Elastic Compliance Matrix: (Units=1/GPa)
#
#
# Indices 1 2 3 4 5 6 
#
# 1 0.011639 -0.001185 0.000714 0.000000 0.007142 0.000000
# 2 -0.001185 0.016064 -0.003366 0.000000 -0.011350 0.000000
# 3 0.000714 -0.003366 0.008794 0.000000 0.011068 0.000000
# 4 0.000000 0.000000 0.000000 0.023642 0.000000 0.030968
# 5 0.007142 -0.011350 0.011068 0.000000 0.052168 0.000000
# 6 0.000000 0.000000 0.000000 0.030968 0.000000 0.190873
#
#
# Mechanical properties :
#
#
# Convention : Reuss Voigt Hill
#
# Bulk Modulus (GPa) = 34.69574 40.94021 37.81797
# Shear Modulus (GPa) = 15.60239 38.78962 27.19600
#
# Velocity S-wave (km/s) = 2.49765 3.93817 3.29753
# Velocity P-wave (km/s) = 4.71063 6.08670 5.44233
#
# Compressibility (1/GPa) = 0.02882198
#
# Stress axis : x y z
#
# Youngs Moduli (GPa) = 85.92080 62.24984 113.70745
#
# Poissons Ratio (x) = 0.07378 -0.08115
# Poissons Ratio (y) = 0.10184 0.38275
# Poissons Ratio (z) = -0.06132 0.20954
#
# Static dielectric constant tensor:
#      x y z
#    x 0.511210 0.000000 0.517200 
#    y 0.000000 2.066380 0.000000 
#    z 0.517200 0.000000 1.923590 
# 
# From -- ./inp_files/136293.got.cif
#   From: 2010.05.17/outbox.cif.g08.bks.cpg/sg15_69_cif.got.tgz:136293.got - 2010.06.03 18:47:42.
