data_PCOD9282677
_publ_section_title
;
Structure prediction by ZEFSAII (Michael W. Deem and Ramdas Pophale) SiO2 
 PCOD9282677
Probable space group: C 2/C
;
_chemical_formula_sum "Si O2"
_cell_formula_units_Z 56
_cell_length_a 23.349171
_cell_length_b 16.902702
_cell_length_c 7.223564
_cell_angle_alpha 90.000000
_cell_angle_beta 54.599610
_cell_angle_gamma 90.000000
_cell_volume 2323.821296
_symmetry_space_group_name_H-M "C 2/C"
_symmetry_group_IT_number 15
_symmetry_cell_setting 'monoclinic'
loop_
_space_group_symop_operation_xyz
x,y,z
-x,y,1/2-z
-x,-y,-z
x,-y,1/2+z
1/2+x,1/2+y,z
1/2-x,1/2+y,1/2-z
1/2-x,1/2-y,-z
1/2+x,1/2-y,1/2+z
loop_
_atom_site_type_symbol
_atom_site_label
_atom_site_fract_x
_atom_site_fract_y
_atom_site_fract_z
Si Si1 0.904246 0.899828 0.297688
Si Si2 0.613309 0.576282 0.241323
Si Si3 0.653836 0.177737 0.894393
Si Si4 0.096516 0.756993 0.680909
Si Si5 0.551580 0.231067 0.385315
Si Si6 0.223946 0.436506 0.991519
Si Si7 0.241939 0.386602 0.534192
O O1 0.900485 0.899855 0.524233
O O2 0.948978 0.824294 0.160601
O O3 0.825976 0.885351 0.366875
O O4 0.920939 0.990615 0.220701
O O5 0.587197 0.649085 0.168496
O O6 0.697917 0.569709 0.063676
O O7 0.583738 0.185330 0.150887
O O8 0.653729 0.245798 0.736129
O O9 0.668237 0.103969 0.732110
O O10 0.712183 0.178650 0.947230
O O11 0.102882 0.720276 0.466182
O O12 0.026847 0.716447 0.896905
O O13 0.213143 0.530552 0.002688
O O14 0.225614 0.395837 0.785210
#
# Coordination Sequence:
#
# PCOD9282677 Si02
#       7
#     8   8   8   8   8   8   8
#     4  10  21  39  64  94 132 168 208 256 305 371
#     4  10  21  39  64  94 132 168 208 256 305 371
#     4  12  23  40  66  92 131 168 200 266 316 376
#     4  11  25  44  63  89 127 171 216 258 307 366
#     4  11  25  44  63  89 127 171 216 258 307 366
#     4  10  21  39  63  98 132 163 202 256 320 379
#     4  10  21  39  63  98 132 163 202 256 320 379
#
# _framework density 24.098240000000001
#
# number of rings (size 3 to 8) (size 9 to 14) (size 15 to 20)
#    0.000    1.429    2.857    2.143    4.000    1.714 
#    0.000    0.000    0.000    3.429    0.000    0.000 
#    0.000    0.000    0.000    0.000    0.000    0.000 
#
# Total GULP energy -156378.856167 kJ/mol
# GULP energy per Si atom -5584.959149 kJ/mol
# Density = 2.404339 g / cm^3
# Si number density = 24.098240 Si / 1000 Ang^3
#
#
#
# Elastic Constant Matrix: (Units=GPa)
#
#
# Indices 1 2 3 4 5 6 
#
# 1 85.8496 22.4916 39.6712 0.0000 24.4703 0.0000
# 2 22.4916 44.5531 31.2283 0.0000 -4.6362 0.0000
# 3 39.6712 31.2283 126.5288 0.0000 30.8129 0.0000
# 4 0.0000 0.0000 0.0000 35.4170 0.0000 18.5781
# 5 24.4703 -4.6362 30.8129 0.0000 36.7842 0.0000
# 6 0.0000 0.0000 0.0000 18.5781 0.0000 -49.4823
#
#
#
# Elastic Compliance Matrix: (Units=1/GPa)
#
#
# Indices 1 2 3 4 5 6 
#
# 1 0.018291 -0.010891 0.000315 0.000000 -0.013804 0.000000
# 2 -0.010891 0.038002 -0.011175 0.000000 0.021396 0.000000
# 3 0.000315 -0.011175 0.013765 0.000000 -0.013148 0.000000
# 4 0.000000 0.000000 0.000000 0.023589 0.000000 0.008857
# 5 -0.013804 0.021396 -0.013148 0.000000 0.050079 0.000000
# 6 0.000000 0.000000 0.000000 0.008857 0.000000 -0.016884
#
#
# Mechanical properties :
#
#
# Convention : Reuss Voigt Hill
#
# Bulk Modulus (GPa) = 37.65673 49.30154 43.47913
# Shear Modulus (GPa) = 27.90246 15.44649 21.67447
#
# Velocity S-wave (km/s) = 3.40643 2.53450 3.00229
# Velocity P-wave (km/s) = 5.57960 5.39147 5.48634
#
# Compressibility (1/GPa) = 0.02655568
#
# Stress axis : x y z
#
# Youngs Moduli (GPa) = 54.67258 26.31413 72.65005
#
# Poissons Ratio (x) = 0.28658 -0.02287
# Poissons Ratio (y) = 0.59542 0.81187
# Poissons Ratio (z) = -0.01721 0.29406
#
# Static dielectric constant tensor:
#      x y z
#    x 2.037560 0.000000 -0.015430 
#    y 0.000000 2.012640 0.000000 
#    z -0.015430 0.000000 1.918130 
# 
# From -- ./inp_files/69885.got.cif
#   From: 2010.05.17/outbox.cif.g08.bks.cpg/sg15_35_cif.got.tgz:69885.got - 2010.06.03 18:47:42.
