data_PCOD9282790
_publ_section_title
;
Structure prediction by ZEFSAII (Michael W. Deem and Ramdas Pophale) SiO2 
 PCOD9282790
Probable space group: C 2/C
;
_chemical_formula_sum "Si O2"
_cell_formula_units_Z 64
_cell_length_a 14.969620
_cell_length_b 8.881536
_cell_length_c 29.740077
_cell_angle_alpha 90.000000
_cell_angle_beta 49.324477
_cell_angle_gamma 90.000000
_cell_volume 2998.793948
_symmetry_space_group_name_H-M "C 2/C"
_symmetry_group_IT_number 15
_symmetry_cell_setting 'monoclinic'
loop_
_space_group_symop_operation_xyz
x,y,z
-x,y,1/2-z
-x,-y,-z
x,-y,1/2+z
1/2+x,1/2+y,z
1/2-x,1/2+y,1/2-z
1/2-x,1/2-y,-z
1/2+x,1/2-y,1/2+z
loop_
_atom_site_type_symbol
_atom_site_label
_atom_site_fract_x
_atom_site_fract_y
_atom_site_fract_z
Si Si1 0.954587 0.109547 0.714267
Si Si2 0.183599 0.386308 0.323361
Si Si3 0.900056 0.362981 0.981935
Si Si4 0.167365 0.568212 0.419468
Si Si5 0.027747 0.582869 0.143817
Si Si6 0.692670 0.164242 0.595556
Si Si7 0.593309 0.523743 0.509035
Si Si8 0.003885 0.127590 0.374161
O O1 0.813184 0.120611 0.760796
O O2 0.000000 0.097476 0.750000
O O3 0.007722 0.258834 0.673992
O O4 0.989808 0.963917 0.673976
O O5 0.190047 0.452340 0.371775
O O6 0.096070 0.497592 0.324662
O O7 0.120825 0.224232 0.344454
O O8 0.914307 0.395583 0.924639
O O9 0.859324 0.193676 0.004521
O O10 0.033405 0.374393 0.957722
O O11 0.825033 0.483245 0.035027
O O12 0.253376 0.710323 0.389410
O O13 0.115741 0.471294 0.141431
O O14 0.601259 0.251373 0.593713
O O15 0.801620 0.092229 0.533667
O O16 0.500000 0.500000 0.500000
O O17 0.524702 0.488178 0.577183
#
# Coordination Sequence:
#
# PCOD9282790 Si02
#       8
#     8   8   8   8   8   8   8   8
#     4  12  25  47  69  97 134 180 232 289 339 399
#     4  10  23  45  72  95 132 180 230 283 342 402
#     4  10  21  39  64  95 138 172 220 275 339 404
#     4  10  21  40  67 101 134 174 221 276 338 409
#     4  10  24  44  64 100 132 178 233 281 338 409
#     4  11  25  40  66  99 140 178 221 275 342 408
#     4  12  23  39  65 102 136 177 217 274 340 414
#     4  11  25  44  67  99 133 177 227 277 341 407
#
# _framework density 21.341912000000001
#
# number of rings (size 3 to 8) (size 9 to 14) (size 15 to 20)
#    0.000    1.250    2.500    2.625    7.000    3.500 
#    0.000    6.250    0.000    0.000    0.000    0.000 
#    0.000    0.000    0.000    0.000    0.000    0.000 
#
# Total GULP energy -179067.929075 kJ/mol
# GULP energy per Si atom -5595.872784 kJ/mol
# Density = 2.129334 g / cm^3
# Si number density = 21.341912 Si / 1000 Ang^3
#
#
#
# Elastic Constant Matrix: (Units=GPa)
#
#
# Indices 1 2 3 4 5 6 
#
# 1 80.7715 47.5676 48.6093 0.0000 -3.8875 0.0000
# 2 47.5676 144.8952 59.2535 0.0000 4.0583 0.0000
# 3 48.6093 59.2535 90.6354 0.0000 4.0744 0.0000
# 4 0.0000 0.0000 0.0000 33.9020 0.0000 -6.1980
# 5 -3.8875 4.0583 4.0744 0.0000 32.6763 0.0000
# 6 0.0000 0.0000 0.0000 -6.1980 0.0000 26.2165
#
#
#
# Elastic Compliance Matrix: (Units=1/GPa)
#
#
# Indices 1 2 3 4 5 6 
#
# 1 0.019555 -0.002958 -0.008724 0.000000 0.003782 0.000000
# 2 -0.002958 0.009873 -0.004824 0.000000 -0.000977 0.000000
# 3 -0.008724 -0.004824 0.018992 0.000000 -0.002807 0.000000
# 4 0.000000 0.000000 0.000000 0.030829 0.000000 0.007289
# 5 0.003782 -0.000977 -0.002807 0.000000 0.031524 0.000000
# 6 0.000000 0.000000 0.000000 0.007289 0.000000 0.039867
#
#
# Mechanical properties :
#
#
# Convention : Reuss Voigt Hill
#
# Bulk Modulus (GPa) = 64.90247 69.68478 67.29363
# Shear Modulus (GPa) = 26.48486 29.28374 27.88430
#
# Velocity S-wave (km/s) = 3.52657 3.70824 3.61855
# Velocity P-wave (km/s) = 6.85997 7.14543 7.00415
#
# Compressibility (1/GPa) = 0.01540773
#
# Stress axis : x y z
#
# Youngs Moduli (GPa) = 51.13877 101.28915 52.65444
#
# Poissons Ratio (x) = 0.29962 0.45934
# Poissons Ratio (y) = 0.15127 0.25401
# Poissons Ratio (z) = 0.44612 0.48862
#
# Static dielectric constant tensor:
#      x y z
#    x 1.788730 0.000000 -0.013460 
#    y 0.000000 1.777250 0.000000 
#    z -0.013460 0.000000 1.731140 
# 
# From -- ./inp_files/313125.got.cif
#   From: 2010.05.17/outbox.cif.g08.bks.cpg/sg15_157_cif.got.tgz:313125.got - 2010.06.03 18:47:42.
