data_PCOD9282891
_publ_section_title
;
Structure prediction by ZEFSAII (Michael W. Deem and Ramdas Pophale) SiO2 
 PCOD9282891
Probable space group: C 2/C
;
_chemical_formula_sum "Si O2"
_cell_formula_units_Z 52
_cell_length_a 17.482055
_cell_length_b 30.158906
_cell_length_c 5.096731
_cell_angle_alpha 90.000000
_cell_angle_beta 56.984858
_cell_angle_gamma 90.000000
_cell_volume 2253.287585
_symmetry_space_group_name_H-M "C 2/C"
_symmetry_group_IT_number 15
_symmetry_cell_setting 'monoclinic'
loop_
_space_group_symop_operation_xyz
x,y,z
-x,y,1/2-z
-x,-y,-z
x,-y,1/2+z
1/2+x,1/2+y,z
1/2-x,1/2+y,1/2-z
1/2-x,1/2-y,-z
1/2+x,1/2-y,1/2+z
loop_
_atom_site_type_symbol
_atom_site_label
_atom_site_fract_x
_atom_site_fract_y
_atom_site_fract_z
Si Si1 0.585173 0.678323 0.774626
Si Si2 0.899273 0.480745 0.140122
Si Si3 0.803318 0.403766 0.142271
Si Si4 0.354532 0.469288 0.852301
Si Si5 0.815973 0.253762 0.629727
Si Si6 0.500000 0.598933 0.250000
Si Si7 0.720394 0.847007 0.820274
O O1 0.500000 0.691874 0.750000
O O2 0.610904 0.715296 0.946678
O O3 0.675965 0.668570 0.434267
O O4 0.558922 0.632212 0.962086
O O5 0.854912 0.487090 0.506855
O O6 0.894200 0.431499 0.039475
O O7 0.000000 0.500000 0.000000
O O8 0.728929 0.439498 0.380773
O O9 0.789217 0.363353 0.366121
O O10 0.798528 0.385549 0.857252
O O11 0.358440 0.491196 0.558568
O O12 0.436517 0.434074 0.707209
O O13 0.750000 0.250000 0.500000
O O14 0.846756 0.304915 0.583187
O O15 0.750000 0.250000 0.000000
#
# Coordination Sequence:
#
# PCOD9282891 Si02
#       7
#     8   8   8   8   8   4   8
#     4  11  25  42  71 100 136 186 229 285 344 432
#     4  10  21  39  65  93 126 166 229 278 335 402
#     4  12  22  41  69  96 132 177 230 279 344 413
#     4  12  26  42  61  93 138 179 226 285 342 404
#     4  10  23  43  69  99 134 173 222 280 339 405
#     4  12  26  42  66  94 142 184 232 280 352 422
#     4  11  23  42  68 102 133 173 228 284 339 417
#
# _framework density 23.077393000000001
#
# number of rings (size 3 to 8) (size 9 to 14) (size 15 to 20)
#    0.000    0.923    1.538    6.000    6.462    0.000 
#    0.000    0.000   10.154    0.000    0.000    0.000 
#    0.000    0.000    0.000    0.000    0.000    0.000 
#
# Total GULP energy -145230.341224 kJ/mol
# GULP energy per Si atom -5585.782355 kJ/mol
# Density = 2.302487 g / cm^3
# Si number density = 23.077393 Si / 1000 Ang^3
#
#
#
# Elastic Constant Matrix: (Units=GPa)
#
#
# Indices 1 2 3 4 5 6 
#
# 1 90.4336 29.6855 16.6196 0.0000 7.3556 0.0000
# 2 29.6855 92.1213 -6.8993 0.0000 -16.2678 0.0000
# 3 16.6196 -6.8993 52.1477 0.0000 13.8974 0.0000
# 4 0.0000 0.0000 0.0000 35.3173 0.0000 10.5265
# 5 7.3556 -16.2678 13.8974 0.0000 43.8796 0.0000
# 6 0.0000 0.0000 0.0000 10.5265 0.0000 11.0696
#
#
#
# Elastic Compliance Matrix: (Units=1/GPa)
#
#
# Indices 1 2 3 4 5 6 
#
# 1 0.013829 -0.005294 -0.004332 0.000000 -0.002909 0.000000
# 2 -0.005294 0.013651 0.002084 0.000000 0.005288 0.000000
# 3 -0.004332 0.002084 0.022317 0.000000 -0.005569 0.000000
# 4 0.000000 0.000000 0.000000 0.039515 0.000000 -0.037576
# 5 -0.002909 0.005288 -0.005569 0.000000 0.027002 0.000000
# 6 0.000000 0.000000 0.000000 -0.037576 0.000000 0.126071
#
#
# Mechanical properties :
#
#
# Convention : Reuss Voigt Hill
#
# Bulk Modulus (GPa) = 28.80901 34.83491 31.82196
# Shear Modulus (GPa) = 18.58462 31.07308 24.82885
#
# Velocity S-wave (km/s) = 2.84089 3.67341 3.28364
# Velocity P-wave (km/s) = 4.82407 5.75496 5.30995
#
# Compressibility (1/GPa) = 0.03471137
#
# Stress axis : x y z
#
# Youngs Moduli (GPa) = 72.31434 73.25318 44.80890
#
# Poissons Ratio (x) = 0.38782 0.19413
# Poissons Ratio (y) = 0.38285 -0.09338
# Poissons Ratio (z) = 0.31330 -0.15266
#
# Static dielectric constant tensor:
#      x y z
#    x 2.056940 0.000000 -0.129930 
#    y 0.000000 1.911720 0.000000 
#    z -0.129930 0.000000 2.057570 
# 
# From -- ./inp_files/11435.got.cif
#   From: 2010.05.17/outbox.cif.g08.bks.cpg/sg15_6_cif.got.tgz:11435.got - 2010.06.03 18:47:42.
