data_PCOD9282511
_publ_section_title
;
Structure prediction by ZEFSAII (Michael W. Deem and Ramdas Pophale) SiO2 
 PCOD9282511
Probable space group: C 2/C
;
_chemical_formula_sum "Si O2"
_cell_formula_units_Z 40
_cell_length_a 15.247542
_cell_length_b 10.945993
_cell_length_c 24.337068
_cell_angle_alpha 90.000000
_cell_angle_beta 156.773364
_cell_angle_gamma 90.000000
_cell_volume 1601.866081
_symmetry_space_group_name_H-M "C 2/C"
_symmetry_group_IT_number 15
_symmetry_cell_setting 'monoclinic'
loop_
_space_group_symop_operation_xyz
x,y,z
-x,y,1/2-z
-x,-y,-z
x,-y,1/2+z
1/2+x,1/2+y,z
1/2-x,1/2+y,1/2-z
1/2-x,1/2-y,-z
1/2+x,1/2-y,1/2+z
loop_
_atom_site_type_symbol
_atom_site_label
_atom_site_fract_x
_atom_site_fract_y
_atom_site_fract_z
Si Si1 0.121534 0.094370 0.610699
Si Si2 0.547726 0.637999 0.865617
Si Si3 0.793304 0.673002 0.607331
Si Si4 0.468063 0.382009 0.823667
Si Si5 0.566080 0.882628 0.670223
O O1 0.163155 0.198935 0.588693
O O2 0.989716 0.131830 0.589247
O O3 0.336794 0.015711 0.756422
O O4 0.000000 0.000000 0.500000
O O5 0.430574 0.515632 0.776893
O O6 0.444255 0.770001 0.791654
O O7 0.808575 0.618124 0.003670
O O8 0.643649 0.610921 0.475639
O O9 0.907289 0.788925 0.644387
O O10 0.000000 0.595044 0.750000
O O11 0.246005 0.344299 0.727803
#
# Coordination Sequence:
#
# PCOD9282511 Si02
#       5
#     8   8   8   8   8
#     4  11  21  37  61  99 127 172 229 276 325 401
#     4  10  21  39  65  92 133 172 218 280 341 393
#     4  11  21  37  64  94 127 166 229 273 320 397
#     4  10  22  40  64  95 131 180 220 275 338 400
#     4  10  21  39  62  94 132 173 217 278 343 391
#
# _framework density 24.970877000000002
#
# number of rings (size 3 to 8) (size 9 to 14) (size 15 to 20)
#    0.000    1.600    4.000    2.400    0.000    4.800 
#    0.000    0.000    8.800    7.200    0.000    0.000 
#    0.000    0.000    0.000    0.000    0.000    0.000 
#
# Total GULP energy -111349.113305 kJ/mol
# GULP energy per Si atom -5567.455665 kJ/mol
# Density = 2.491404 g / cm^3
# Si number density = 24.970877 Si / 1000 Ang^3
#
#
#
# Elastic Constant Matrix: (Units=GPa)
#
#
# Indices 1 2 3 4 5 6 
#
# 1 136.7072 20.3304 28.6578 0.0024 10.6311 0.0014
# 2 20.3304 87.6214 7.7731 0.0073 26.3802 -0.0002
# 3 28.6578 7.7731 95.7708 0.0208 24.7710 0.0001
# 4 0.0024 0.0073 0.0208 33.2638 -0.0020 17.6283
# 5 10.6311 26.3802 24.7710 -0.0020 43.7577 0.0004
# 6 0.0014 -0.0002 0.0001 17.6283 0.0004 40.7573
#
#
#
# Elastic Compliance Matrix: (Units=1/GPa)
#
#
# Indices 1 2 3 4 5 6 
#
# 1 0.008045 -0.001800 -0.002386 0.000002 0.000481 -0.000001
# 2 -0.001800 0.014469 0.001766 -0.000006 -0.009285 0.000003
# 3 -0.002386 0.001766 0.013048 -0.000012 -0.007871 0.000005
# 4 0.000002 -0.000006 -0.000012 0.039003 0.000012 -0.016869
# 5 0.000481 -0.009285 -0.007871 0.000012 0.032790 -0.000005
# 6 -0.000001 0.000003 0.000005 -0.016869 -0.000005 0.031832
#
#
# Mechanical properties :
#
#
# Convention : Reuss Voigt Hill
#
# Bulk Modulus (GPa) = 32.54872 48.18022 40.36447
# Shear Modulus (GPa) = 32.41113 41.11161 36.76137
#
# Velocity S-wave (km/s) = 3.60663 4.06197 3.84105
# Velocity P-wave (km/s) = 5.51422 6.42930 5.98926
#
# Compressibility (1/GPa) = 0.03072318
#
# Stress axis : x y z
#
# Youngs Moduli (GPa) = 124.29631 69.11197 76.63942
#
# Poissons Ratio (x) = 0.12439 0.18284
# Poissons Ratio (y) = 0.22372 -0.13534
# Poissons Ratio (z) = 0.29654 -0.12204
#
# Static dielectric constant tensor:
#      x y z
#    x 2.033760 0.000000 0.026040 
#    y 0.000000 2.208460 -0.000010 
#    z 0.026040 -0.000010 2.072480 
# 
# From -- ./inp_files/316099.got.cif
#   From: 2010.05.17/outbox.cif.g08.bks.cpg/sg15_159_cif.got.tgz:316099.got - 2010.06.03 18:47:42.
