data_PCOD9282828
_publ_section_title
;
Structure prediction by ZEFSAII (Michael W. Deem and Ramdas Pophale) SiO2 
 PCOD9282828
Probable space group: C 2/C
;
_chemical_formula_sum "Si O2"
_cell_formula_units_Z 36
_cell_length_a 19.004835
_cell_length_b 9.759015
_cell_length_c 17.802216
_cell_angle_alpha 90.000000
_cell_angle_beta 152.260610
_cell_angle_gamma 90.000000
_cell_volume 1536.801509
_symmetry_space_group_name_H-M "C 2/C"
_symmetry_group_IT_number 15
_symmetry_cell_setting 'monoclinic'
loop_
_space_group_symop_operation_xyz
x,y,z
-x,y,1/2-z
-x,-y,-z
x,-y,1/2+z
1/2+x,1/2+y,z
1/2-x,1/2+y,1/2-z
1/2-x,1/2-y,-z
1/2+x,1/2-y,1/2+z
loop_
_atom_site_type_symbol
_atom_site_label
_atom_site_fract_x
_atom_site_fract_y
_atom_site_fract_z
Si Si1 0.154878 0.380243 0.017925
Si Si2 0.446076 0.114494 0.863229
Si Si3 0.097519 0.104886 0.542139
Si Si4 0.996510 0.901046 0.157874
Si Si5 0.500000 0.955383 0.250000
O O1 0.125575 0.444503 0.906394
O O2 0.045314 0.476529 0.963588
O O3 0.098289 0.225573 0.964265
O O4 0.329184 0.390922 0.202640
O O5 0.274252 0.104812 0.726775
O O6 0.443009 0.129218 0.768084
O O7 0.529942 0.243616 0.977964
O O8 0.000000 0.000000 0.500000
O O9 0.075205 0.041213 0.438217
O O10 0.000000 0.889397 0.250000
#
# Coordination Sequence:
#
# PCOD9282828 Si02
#       5
#     8   8   8   8   4
#     4  10  21  39  65 104 134 173 222 285 334 396
#     4  10  23  46  67  96 137 175 228 274 343 400
#     4  12  28  45  67 101 137 184 226 277 343 410
#     4  12  22  38  69 100 136 177 230 282 334 390
#     4   8  20  40  72 100 138 166 234 276 346 384
#
# _framework density 23.425277000000001
#
# number of rings (size 3 to 8) (size 9 to 14) (size 15 to 20)
#    1.333    0.000    1.111    4.667    1.556    4.444 
#    0.000    3.333    0.000    0.000    0.000    0.000 
#    0.000    0.000    0.000    0.000    0.000    0.000 
#
# Total GULP energy -100714.928102 kJ/mol
# GULP energy per Si atom -5595.273783 kJ/mol
# Density = 2.337196 g / cm^3
# Si number density = 23.425277 Si / 1000 Ang^3
#
#
#
# Elastic Constant Matrix: (Units=GPa)
#
#
# Indices 1 2 3 4 5 6 
#
# 1 102.2892 12.1741 19.1457 0.0000 16.1331 0.0000
# 2 12.1741 117.2661 38.7125 0.0000 14.7694 0.0000
# 3 19.1457 38.7125 158.1193 0.0000 40.4614 0.0000
# 4 0.0000 0.0000 0.0000 42.4801 0.0000 -0.5542
# 5 16.1331 14.7694 40.4614 0.0000 44.5709 0.0000
# 6 0.0000 0.0000 0.0000 -0.5542 0.0000 26.9032
#
#
#
# Elastic Compliance Matrix: (Units=1/GPa)
#
#
# Indices 1 2 3 4 5 6 
#
# 1 0.010421 -0.000573 -0.000267 0.000000 -0.003340 0.000000
# 2 -0.000573 0.009369 -0.001932 0.000000 -0.001143 0.000000
# 3 -0.000267 -0.001932 0.008651 0.000000 -0.007116 0.000000
# 4 0.000000 0.000000 0.000000 0.023547 0.000000 0.000485
# 5 -0.003340 -0.001143 -0.007116 0.000000 0.030484 0.000000
# 6 0.000000 0.000000 0.000000 0.000485 0.000000 0.037180
#
#
# Mechanical properties :
#
#
# Convention : Reuss Voigt Hill
#
# Bulk Modulus (GPa) = 43.67377 57.52658 50.60017
# Shear Modulus (GPa) = 37.64273 43.30031 40.47152
#
# Velocity S-wave (km/s) = 4.01300 4.30402 4.16105
# Velocity P-wave (km/s) = 6.33692 7.02212 6.68830
#
# Compressibility (1/GPa) = 0.02289704
#
# Stress axis : x y z
#
# Youngs Moduli (GPa) = 95.95875 106.73657 115.59879
#
# Poissons Ratio (x) = 0.06117 0.03085
# Poissons Ratio (y) = 0.05500 0.22331
# Poissons Ratio (z) = 0.02561 0.20619
#
# Static dielectric constant tensor:
#      x y z
#    x 2.008280 0.000000 -0.063670 
#    y 0.000000 1.789200 0.000000 
#    z -0.063670 0.000000 1.831740 
# 
# From -- ./inp_files/252078.got.cif
#   From: 2010.05.17/outbox.cif.g08.bks.cpg/sg15_127_cif.got.tgz:252078.got - 2010.06.03 18:47:42.
