data_PCOD9282103
_publ_section_title
;
Structure prediction by ZEFSAII (Michael W. Deem and Ramdas Pophale) SiO2 
 PCOD9282103
Probable space group: C 2/C
;
_chemical_formula_sum "Si O2"
_cell_formula_units_Z 48
_cell_length_a 28.600143
_cell_length_b 17.712618
_cell_length_c 5.395886
_cell_angle_alpha 90.000000
_cell_angle_beta 63.668536
_cell_angle_gamma 90.000000
_cell_volume 2449.850005
_symmetry_space_group_name_H-M "C 2/C"
_symmetry_group_IT_number 15
_symmetry_cell_setting 'monoclinic'
loop_
_space_group_symop_operation_xyz
x,y,z
-x,y,1/2-z
-x,-y,-z
x,-y,1/2+z
1/2+x,1/2+y,z
1/2-x,1/2+y,1/2-z
1/2-x,1/2-y,-z
1/2+x,1/2-y,1/2+z
loop_
_atom_site_type_symbol
_atom_site_label
_atom_site_fract_x
_atom_site_fract_y
_atom_site_fract_z
Si Si1 0.500000 0.264416 0.750000
Si Si2 0.554558 0.170079 0.015228
Si Si3 0.000000 0.951173 0.250000
Si Si4 0.740731 0.150993 0.762857
Si Si5 0.299541 0.676832 0.122210
Si Si6 0.857090 0.547606 0.596926
Si Si7 0.921187 0.830523 0.293323
O O1 0.538871 0.204517 0.789449
O O2 0.541491 0.321419 0.530599
O O3 0.599517 0.110462 0.945822
O O4 0.500000 0.139460 0.250000
O O5 0.569771 0.247390 0.116022
O O6 0.050659 0.896506 0.121704
O O7 0.000000 0.000000 0.500000
O O8 0.712188 0.232908 0.848170
O O9 0.782476 0.152889 0.439672
O O10 0.698576 0.089050 0.784301
O O11 0.765658 0.141116 0.977349
O O12 0.359631 0.659617 0.920308
O O13 0.862518 0.510380 0.312740
#
# Coordination Sequence:
#
# PCOD9282103 Si02
#       7
#     4   8   4   8   8   8   8
#     4  10  21  38  72  97 138 164 236 282 333 386
#     4  10  23  41  67 100 130 180 235 277 326 407
#     4  12  27  44  64  99 140 170 212 268 359 414
#     4  10  22  42  61 104 125 168 224 286 325 393
#     4  10  22  38  74  94 126 162 237 283 316 381
#     4  12  27  44  67  96 145 188 215 281 355 404
#     4  11  22  42  69 101 132 181 223 286 331 405
#
# _framework density 19.593036999999999
#
# number of rings (size 3 to 8) (size 9 to 14) (size 15 to 20)
#    0.000    1.333    4.167    1.500    7.000    2.000 
#    0.000    5.000    0.000    0.000    0.000    0.000 
#    0.000    0.000    0.000    0.000    0.000    0.000 
#
# Total GULP energy -133725.473386 kJ/mol
# GULP energy per Si atom -5571.894724 kJ/mol
# Density = 1.954844 g / cm^3
# Si number density = 19.593037 Si / 1000 Ang^3
#
#
#
# Elastic Constant Matrix: (Units=GPa)
#
#
# Indices 1 2 3 4 5 6 
#
# 1 155.3682 82.6722 22.3913 0.0000 16.1865 0.0000
# 2 82.6722 121.6076 -10.5318 0.0000 34.5832 0.0000
# 3 22.3913 -10.5318 113.5418 0.0000 -23.6181 0.0000
# 4 0.0000 0.0000 0.0000 56.1461 0.0000 25.0621
# 5 16.1865 34.5832 -23.6181 0.0000 66.2741 0.0000
# 6 0.0000 0.0000 0.0000 25.0621 0.0000 57.5431
#
#
#
# Elastic Compliance Matrix: (Units=1/GPa)
#
#
# Indices 1 2 3 4 5 6 
#
# 1 0.010948 -0.007798 -0.002800 0.000000 0.000398 0.000000
# 2 -0.007798 0.015214 0.001829 0.000000 -0.005382 0.000000
# 3 -0.002800 0.001829 0.010231 0.000000 0.003375 0.000000
# 4 0.000000 0.000000 0.000000 0.022109 0.000000 -0.009629
# 5 0.000398 -0.005382 0.003375 0.000000 0.019003 0.000000
# 6 0.000000 0.000000 0.000000 -0.009629 0.000000 0.021572
#
#
# Mechanical properties :
#
#
# Convention : Reuss Voigt Hill
#
# Bulk Modulus (GPa) = 53.03340 64.39789 58.71564
# Shear Modulus (GPa) = 40.68387 55.72505 48.20446
#
# Velocity S-wave (km/s) = 4.56175 5.33882 4.96551
# Velocity P-wave (km/s) = 7.40758 8.42277 7.93144
#
# Compressibility (1/GPa) = 0.01885604
#
# Stress axis : x y z
#
# Youngs Moduli (GPa) = 91.34237 65.73037 97.74009
#
# Poissons Ratio (x) = 0.51258 0.27363
# Poissons Ratio (y) = 0.71231 -0.17881
# Poissons Ratio (z) = 0.25572 -0.12025
#
# Static dielectric constant tensor:
#      x y z
#    x 1.688550 0.000000 0.030490 
#    y 0.000000 1.662200 0.000000 
#    z 0.030490 0.000000 1.729780 
# 
# From -- ./inp_files/18186.got.cif
#   From: 2010.05.17/outbox.cif.g08.bks.cpg/sg15_10_cif.got.tgz:18186.got - 2010.06.03 18:47:42.
