data_PCOD9282317
_publ_section_title
;
Structure prediction by ZEFSAII (Michael W. Deem and Ramdas Pophale) SiO2 
 PCOD9282317
Probable space group: C 2/C
;
_chemical_formula_sum "Si O2"
_cell_formula_units_Z 36
_cell_length_a 17.419015
_cell_length_b 7.881301
_cell_length_c 16.231571
_cell_angle_alpha 90.000000
_cell_angle_beta 129.814802
_cell_angle_gamma 90.000000
_cell_volume 1711.630745
_symmetry_space_group_name_H-M "C 2/C"
_symmetry_group_IT_number 15
_symmetry_cell_setting 'monoclinic'
loop_
_space_group_symop_operation_xyz
x,y,z
-x,y,1/2-z
-x,-y,-z
x,-y,1/2+z
1/2+x,1/2+y,z
1/2-x,1/2+y,1/2-z
1/2-x,1/2-y,-z
1/2+x,1/2-y,1/2+z
loop_
_atom_site_type_symbol
_atom_site_label
_atom_site_fract_x
_atom_site_fract_y
_atom_site_fract_z
Si Si1 0.500000 0.141286 0.250000
Si Si2 0.997981 0.818100 0.955576
Si Si3 0.890922 0.688491 0.325896
Si Si4 0.308288 0.185744 0.732568
Si Si5 0.903684 0.302647 0.134443
O O1 0.438033 0.249916 0.272381
O O2 0.429463 0.006178 0.151126
O O3 0.891117 0.793634 0.838995
O O4 0.082831 0.781403 0.944753
O O5 0.022627 0.689060 0.046493
O O6 0.000000 0.000000 0.000000
O O7 0.799167 0.790711 0.301255
O O8 0.848560 0.504115 0.274136
O O9 0.314938 0.224235 0.638897
O O10 0.000000 0.232729 0.250000
#
# Coordination Sequence:
#
# PCOD9282317 Si02
#       5
#     4   8   8   8   8
#     4   8  18  38  60  84 118 160 190 242 304 336
#     4  11  21  37  61  89 119 157 200 240 292 356
#     4  11  21  39  63  87 118 156 199 243 294 350
#     4  10  21  39  61  87 117 157 197 244 295 354
#     4   7  16  36  59  77 116 157 187 232 303 341
#
# _framework density 21.032575000000001
#
# number of rings (size 3 to 8) (size 9 to 14) (size 15 to 20)
#    0.667    1.778    2.222    2.000    0.000    0.889 
#   10.000    1.111    0.000    0.000    0.000    0.000 
#    0.000    0.000    0.000    0.000    0.000    0.000 
#
# Total GULP energy -100213.067423 kJ/mol
# GULP energy per Si atom -5567.392635 kJ/mol
# Density = 2.098470 g / cm^3
# Si number density = 21.032575 Si / 1000 Ang^3
#
#
#
# Elastic Constant Matrix: (Units=GPa)
#
#
# Indices 1 2 3 4 5 6 
#
# 1 178.5714 15.5909 53.1287 0.0000 -40.6556 0.0000
# 2 15.5909 30.7289 14.3160 0.0000 -18.2288 0.0000
# 3 53.1287 14.3160 75.4506 0.0000 -29.2182 0.0000
# 4 0.0000 0.0000 0.0000 20.7789 0.0000 1.1058
# 5 -40.6556 -18.2288 -29.2182 0.0000 45.9969 0.0000
# 6 0.0000 0.0000 0.0000 1.1058 0.0000 26.9036
#
#
#
# Elastic Compliance Matrix: (Units=1/GPa)
#
#
# Indices 1 2 3 4 5 6 
#
# 1 0.007729 0.000607 -0.003738 0.000000 0.004697 0.000000
# 2 0.000607 0.042832 -0.002352 0.000000 0.016017 0.000000
# 3 -0.003738 -0.002352 0.019485 0.000000 0.008141 0.000000
# 4 0.000000 0.000000 0.000000 0.048231 0.000000 -0.001982
# 5 0.004697 0.016017 0.008141 0.000000 0.037411 0.000000
# 6 0.000000 0.000000 0.000000 -0.001982 0.000000 0.037251
#
#
# Mechanical properties :
#
#
# Convention : Reuss Voigt Hill
#
# Bulk Modulus (GPa) = 16.92654 50.09134 33.50894
# Shear Modulus (GPa) = 22.36152 32.18356 27.27254
#
# Velocity S-wave (km/s) = 3.26419 3.91599 3.60485
# Velocity P-wave (km/s) = 4.71930 6.65691 5.77002
#
# Compressibility (1/GPa) = 0.05907883
#
# Stress axis : x y z
#
# Youngs Moduli (GPa) = 129.38917 23.34706 51.32191
#
# Poissons Ratio (x) = -0.01416 0.19186
# Poissons Ratio (y) = -0.07849 0.12069
# Poissons Ratio (z) = 0.48370 0.05490
#
# Static dielectric constant tensor:
#      x y z
#    x 1.819690 0.000000 -0.012520 
#    y 0.000000 1.782480 0.000000 
#    z -0.012520 0.000000 1.775140 
# 
# From -- ./inp_files/158904.got.cif
#   From: 2010.05.17/outbox.cif.g08.bks.cpg/sg15_80_cif.got.tgz:158904.got - 2010.06.03 18:47:42.
