data_PCOD9282424
_publ_section_title
;
Structure prediction by ZEFSAII (Michael W. Deem and Ramdas Pophale) SiO2 
 PCOD9282424
Probable space group: C 2/C
;
_chemical_formula_sum "Si O2"
_cell_formula_units_Z 36
_cell_length_a 12.426325
_cell_length_b 27.720451
_cell_length_c 14.212739
_cell_angle_alpha 90.000000
_cell_angle_beta 159.599023
_cell_angle_gamma 90.000000
_cell_volume 1706.605929
_symmetry_space_group_name_H-M "C 2/C"
_symmetry_group_IT_number 15
_symmetry_cell_setting 'monoclinic'
loop_
_space_group_symop_operation_xyz
x,y,z
-x,y,1/2-z
-x,-y,-z
x,-y,1/2+z
1/2+x,1/2+y,z
1/2-x,1/2+y,1/2-z
1/2-x,1/2-y,-z
1/2+x,1/2-y,1/2+z
loop_
_atom_site_type_symbol
_atom_site_label
_atom_site_fract_x
_atom_site_fract_y
_atom_site_fract_z
Si Si1 0.230227 0.869102 0.104321
Si Si2 0.687125 0.716457 0.174464
Si Si3 0.874596 0.425426 0.929993
Si Si4 0.641855 0.974964 0.969477
Si Si5 0.500000 0.214612 0.250000
O O1 0.500000 0.863731 0.250000
O O2 0.398529 0.886032 0.337903
O O3 0.032045 0.820735 0.953050
O O4 0.978082 0.908124 0.864305
O O5 0.829588 0.690162 0.198131
O O6 0.971526 0.738829 0.465092
O O7 0.982773 0.439524 0.914139
O O8 0.893641 0.472279 0.012359
O O9 0.500000 0.974102 0.750000
O O10 0.000000 0.963377 0.250000
O O11 0.750000 0.250000 0.500000
#
# Coordination Sequence:
#
# PCOD9282424 Si02
#       5
#     8   8   8   8   4
#     4  12  24  40  62  92 129 167 212 258 310 372
#     4  10  21  39  62  88 120 163 209 254 311 368
#     4  11  24  41  62  93 127 166 209 254 315 375
#     4  11  22  41  67  91 124 165 209 258 312 374
#     4   8  16  34  58  80 108 150 198 242 300 364
#
# _framework density 21.094501000000001
#
# number of rings (size 3 to 8) (size 9 to 14) (size 15 to 20)
#    0.000    1.333    0.000    6.667    0.000    4.444 
#    6.000    0.000    0.000    0.000    0.000    0.000 
#    0.000    0.000    0.000    0.000    0.000    0.000 
#
# Total GULP energy -100644.261393 kJ/mol
# GULP energy per Si atom -5591.347855 kJ/mol
# Density = 2.104649 g / cm^3
# Si number density = 21.094501 Si / 1000 Ang^3
#
#
#
# Elastic Constant Matrix: (Units=GPa)
#
#
# Indices 1 2 3 4 5 6 
#
# 1 130.5574 34.1700 41.4260 0.0025 -0.9045 0.0004
# 2 34.1700 39.4874 4.3393 0.0008 11.5512 0.0001
# 3 41.4260 4.3393 122.8676 0.0059 -2.3354 -0.0004
# 4 0.0025 0.0008 0.0059 34.4325 0.0025 9.2169
# 5 -0.9045 11.5512 -2.3354 0.0025 39.4371 0.0003
# 6 0.0004 0.0001 -0.0004 9.2169 0.0003 25.8757
#
#
#
# Elastic Compliance Matrix: (Units=1/GPa)
#
#
# Indices 1 2 3 4 5 6 
#
# 1 0.011530 -0.010516 -0.003456 0.000000 0.003140 0.000000
# 2 -0.010516 0.037448 0.002012 0.000000 -0.011091 0.000000
# 3 -0.003456 0.002012 0.009231 -0.000002 -0.000122 0.000001
# 4 0.000000 0.000000 -0.000002 0.032103 -0.000002 -0.011435
# 5 0.003140 -0.011091 -0.000122 -0.000002 0.028670 0.000000
# 6 0.000000 0.000000 0.000001 -0.011435 0.000000 0.042719
#
#
# Mechanical properties :
#
#
# Convention : Reuss Voigt Hill
#
# Bulk Modulus (GPa) = 29.16460 50.30920 39.73690
# Shear Modulus (GPa) = 25.37396 34.14754 29.76075
#
# Velocity S-wave (km/s) = 3.47201 4.02778 3.76018
# Velocity P-wave (km/s) = 5.47072 6.74773 6.14250
#
# Compressibility (1/GPa) = 0.03428814
#
# Stress axis : x y z
#
# Youngs Moduli (GPa) = 86.72759 26.70372 108.33254
#
# Poissons Ratio (x) = 0.28083 0.37445
# Poissons Ratio (y) = 0.91206 -0.21800
# Poissons Ratio (z) = 0.29977 -0.05374
#
# Static dielectric constant tensor:
#      x y z
#    x 1.763290 0.000000 0.006820 
#    y 0.000000 1.773350 0.000000 
#    z 0.006820 0.000000 1.697730 
# 
# From -- ./inp_files/4401.got.cif
#   From: 2010.05.17/outbox.cif.g08.bks.cpg/sg15_3_cif.got.tgz:4401.got - 2010.06.03 18:47:42.
