data_PCOD9282150
_publ_section_title
;
Structure prediction by ZEFSAII (Michael W. Deem and Ramdas Pophale) SiO2 
 PCOD9282150
Probable space group: C 2/C
;
_chemical_formula_sum "Si O2"
_cell_formula_units_Z 56
_cell_length_a 22.754623
_cell_length_b 25.068749
_cell_length_c 5.264912
_cell_angle_alpha 90.000000
_cell_angle_beta 75.595867
_cell_angle_gamma 90.000000
_cell_volume 2908.856472
_symmetry_space_group_name_H-M "C 2/C"
_symmetry_group_IT_number 15
_symmetry_cell_setting 'monoclinic'
loop_
_space_group_symop_operation_xyz
x,y,z
-x,y,1/2-z
-x,-y,-z
x,-y,1/2+z
1/2+x,1/2+y,z
1/2-x,1/2+y,1/2-z
1/2-x,1/2-y,-z
1/2+x,1/2-y,1/2+z
loop_
_atom_site_type_symbol
_atom_site_label
_atom_site_fract_x
_atom_site_fract_y
_atom_site_fract_z
Si Si1 0.000000 0.226993 0.750000
Si Si2 0.246635 0.535328 0.562134
Si Si3 0.938458 0.307940 0.195435
Si Si4 0.773706 0.154396 0.571362
Si Si5 0.500000 0.035315 0.750000
Si Si6 0.194476 0.675054 0.160611
Si Si7 0.379890 0.726274 0.650262
Si Si8 0.125230 0.402553 0.099085
O O1 0.036707 0.268438 0.538387
O O2 0.058382 0.198339 0.809990
O O3 0.257032 0.498190 0.306321
O O4 0.282706 0.591288 0.511995
O O5 0.177289 0.557165 0.627903
O O6 0.906642 0.269144 0.426875
O O7 0.891691 0.354649 0.187470
O O8 0.000000 0.331594 0.250000
O O9 0.739361 0.178966 0.361329
O O10 0.835501 0.184943 0.564790
O O11 0.733113 0.159250 0.871730
O O12 0.437709 0.067408 0.851651
O O13 0.500000 0.000000 0.500000
O O14 0.162238 0.732414 0.141900
O O15 0.149056 0.628801 0.320903
#
# Coordination Sequence:
#
# PCOD9282150 Si02
#       8
#     4   8   8   8   4   8   8   8
#     4  10  22  35  60  86 130 158 187 240 294 362
#     4  11  23  41  58  82 115 152 201 255 301 338
#     4   9  19  38  53  86 119 158 194 234 293 361
#     4  11  23  40  63  89 116 159 204 251 305 361
#     4  12  26  39  54  82 110 160 219 266 288 326
#     4  10  23  37  61  89 121 159 199 250 302 363
#     4  10  22  36  60  89 124 155 196 244 301 376
#     4  10  21  39  58  80 116 160 204 251 299 343
#
# _framework density 19.251550999999999
#
# number of rings (size 3 to 8) (size 9 to 14) (size 15 to 20)
#    0.000    1.714    0.714    3.429    8.000    2.857 
#    2.571    0.000    0.000    0.000    0.000    1.000 
#    0.000    0.000    0.000    0.000    0.000    0.000 
#
# Total GULP energy -156052.176645 kJ/mol
# GULP energy per Si atom -5573.292023 kJ/mol
# Density = 1.920773 g / cm^3
# Si number density = 19.251551 Si / 1000 Ang^3
#
#
#
# Elastic Constant Matrix: (Units=GPa)
#
#
# Indices 1 2 3 4 5 6 
#
# 1 127.8620 55.0506 23.2251 0.0000 16.3531 0.0000
# 2 55.0506 80.2800 3.5759 0.0000 8.9042 0.0000
# 3 23.2251 3.5759 71.8811 0.0000 8.6915 0.0000
# 4 0.0000 0.0000 0.0000 15.4042 0.0000 2.1062
# 5 16.3531 8.9042 8.6915 0.0000 18.2909 0.0000
# 6 0.0000 0.0000 0.0000 2.1062 0.0000 52.0808
#
#
#
# Elastic Compliance Matrix: (Units=1/GPa)
#
#
# Indices 1 2 3 4 5 6 
#
# 1 0.012449 -0.007744 -0.002914 0.000000 -0.005975 0.000000
# 2 -0.007744 0.017986 0.001940 0.000000 -0.002754 0.000000
# 3 -0.002914 0.001940 0.015443 0.000000 -0.005677 0.000000
# 4 0.000000 0.000000 0.000000 0.065278 0.000000 -0.002640
# 5 -0.005975 -0.002754 -0.005677 0.000000 0.064052 0.000000
# 6 0.000000 0.000000 0.000000 -0.002640 0.000000 0.019308
#
#
# Mechanical properties :
#
#
# Convention : Reuss Voigt Hill
#
# Bulk Modulus (GPa) = 35.15961 49.30293 42.23127
# Shear Modulus (GPa) = 22.58023 30.36663 26.47343
#
# Velocity S-wave (km/s) = 3.42848 3.97591 3.71230
# Velocity P-wave (km/s) = 5.82886 6.83685 6.35288
#
# Compressibility (1/GPa) = 0.02844173
#
# Stress axis : x y z
#
# Youngs Moduli (GPa) = 80.33026 55.59981 64.75225
#
# Poissons Ratio (x) = 0.43056 0.18872
# Poissons Ratio (y) = 0.62207 -0.12564
# Poissons Ratio (z) = 0.23412 -0.10788
#
# Static dielectric constant tensor:
#      x y z
#    x 1.722320 0.000000 0.114250 
#    y 0.000000 1.780480 0.000000 
#    z 0.114250 0.000000 1.684290 
# 
# From -- ./inp_files/13706.got.cif
#   From: 2010.05.17/outbox.cif.g08.bks.cpg/sg15_7_cif.got.tgz:13706.got - 2010.06.03 18:47:42.
