data_PCOD9282298
_publ_section_title
;
Structure prediction by ZEFSAII (Michael W. Deem and Ramdas Pophale) SiO2 
 PCOD9282298
Probable space group: C 2/C
;
_chemical_formula_sum "Si O2"
_cell_formula_units_Z 40
_cell_length_a 11.859510
_cell_length_b 27.230458
_cell_length_c 8.190793
_cell_angle_alpha 90.000000
_cell_angle_beta 145.344315
_cell_angle_gamma 90.000000
_cell_volume 1504.138057
_symmetry_space_group_name_H-M "C 2/C"
_symmetry_group_IT_number 15
_symmetry_cell_setting 'monoclinic'
loop_
_space_group_symop_operation_xyz
x,y,z
-x,y,1/2-z
-x,-y,-z
x,-y,1/2+z
1/2+x,1/2+y,z
1/2-x,1/2+y,1/2-z
1/2-x,1/2-y,-z
1/2+x,1/2-y,1/2+z
loop_
_atom_site_type_symbol
_atom_site_label
_atom_site_fract_x
_atom_site_fract_y
_atom_site_fract_z
Si Si1 0.732125 0.301011 0.884928
Si Si2 0.807243 0.851078 0.354006
Si Si3 0.230952 0.832227 0.551575
Si Si4 0.746570 0.457705 0.266765
Si Si5 0.694761 0.057775 0.281235
O O1 0.504996 0.318455 0.591299
O O2 0.812580 0.297976 0.794332
O O3 0.750000 0.250000 0.000000
O O4 0.805877 0.339128 0.112709
O O5 0.696278 0.838728 0.050193
O O6 0.866441 0.908553 0.419955
O O7 0.242593 0.885897 0.651162
O O8 0.000000 0.819551 0.250000
O O9 0.686375 0.513287 0.157650
O O10 0.781340 0.453809 0.499868
O O11 0.967379 0.448193 0.454217
#
# Coordination Sequence:
#
# PCOD9282298 Si02
#       5
#     8   8   8   8   8
#     4  10  21  39  61  83 111 152 204 248 299 350
#     4   9  20  40  58  84 122 147 194 251 292 352
#     4   9  19  38  59  84 119 153 191 243 299 355
#     4   9  18  34  56  84 122 156 191 239 289 356
#     4   9  18  33  55  88 117 157 197 226 294 361
#
# _framework density 26.593304
#
# number of rings (size 3 to 8) (size 9 to 14) (size 15 to 20)
#    0.000    2.800    0.000    0.000    2.800    0.800 
#   10.800    3.000    8.800    0.000    0.000    0.000 
#    0.000    0.000    0.000    0.000    0.000    0.000 
#
# Total GULP energy -111646.073294 kJ/mol
# GULP energy per Si atom -5582.303665 kJ/mol
# Density = 2.653278 g / cm^3
# Si number density = 26.593304 Si / 1000 Ang^3
#
#
#
# Elastic Constant Matrix: (Units=GPa)
#
#
# Indices 1 2 3 4 5 6 
#
# 1 84.2072 13.5087 32.2126 0.0000 -26.9647 0.0000
# 2 13.5087 154.7539 46.4587 0.0000 -29.4959 0.0000
# 3 32.2126 46.4587 127.5653 0.0000 -20.5924 0.0000
# 4 0.0000 0.0000 0.0000 46.8591 0.0000 -14.1664
# 5 -26.9647 -29.4959 -20.5924 0.0000 54.0294 0.0000
# 6 0.0000 0.0000 0.0000 -14.1664 0.0000 33.2961
#
#
#
# Elastic Compliance Matrix: (Units=1/GPa)
#
#
# Indices 1 2 3 4 5 6 
#
# 1 0.015089 0.000901 -0.003030 0.000000 0.006868 0.000000
# 2 0.000901 0.007849 -0.002474 0.000000 0.003792 0.000000
# 3 -0.003030 -0.002474 0.009636 0.000000 0.000810 0.000000
# 4 0.000000 0.000000 0.000000 0.024491 0.000000 0.010420
# 5 0.006868 0.003792 0.000810 0.000000 0.024315 0.000000
# 6 0.000000 0.000000 0.000000 0.010420 0.000000 0.034467
#
#
# Mechanical properties :
#
#
# Convention : Reuss Voigt Hill
#
# Bulk Modulus (GPa) = 42.79198 61.20958 52.00078
# Shear Modulus (GPa) = 37.63913 45.12669 41.38291
#
# Velocity S-wave (km/s) = 3.76621 4.12384 3.94907
# Velocity P-wave (km/s) = 5.91934 6.76325 6.35532
#
# Compressibility (1/GPa) = 0.02336887
#
# Stress axis : x y z
#
# Youngs Moduli (GPa) = 66.27268 127.41141 103.77776
#
# Poissons Ratio (x) = -0.11486 0.31444
# Poissons Ratio (y) = -0.05974 0.25674
# Poissons Ratio (z) = 0.20080 0.31521
#
# Static dielectric constant tensor:
#      x y z
#    x 1.577460 0.000000 -0.171400 
#    y 0.000000 2.088780 0.000000 
#    z -0.171400 0.000000 2.016250 
# 
# From -- ./inp_files/42419.got.cif
#   From: 2010.05.17/outbox.cif.g08.bks.cpg/sg15_22_cif.got.tgz:42419.got - 2010.06.03 18:47:42.
