data_PCOD9282443
_publ_section_title
;
Structure prediction by ZEFSAII (Michael W. Deem and Ramdas Pophale) SiO2 
 PCOD9282443
Probable space group: C 2/C
;
_chemical_formula_sum "Si O2"
_cell_formula_units_Z 44
_cell_length_a 22.282818
_cell_length_b 11.050659
_cell_length_c 9.915134
_cell_angle_alpha 90.000000
_cell_angle_beta 61.665043
_cell_angle_gamma 90.000000
_cell_volume 2148.979602
_symmetry_space_group_name_H-M "C 2/C"
_symmetry_group_IT_number 15
_symmetry_cell_setting 'monoclinic'
loop_
_space_group_symop_operation_xyz
x,y,z
-x,y,1/2-z
-x,-y,-z
x,-y,1/2+z
1/2+x,1/2+y,z
1/2-x,1/2+y,1/2-z
1/2-x,1/2-y,-z
1/2+x,1/2-y,1/2+z
loop_
_atom_site_type_symbol
_atom_site_label
_atom_site_fract_x
_atom_site_fract_y
_atom_site_fract_z
Si Si1 0.605982 0.516189 0.997044
Si Si2 0.960704 0.434875 0.661419
Si Si3 0.159776 0.638455 0.059863
Si Si4 0.310749 0.598518 0.851057
Si Si5 0.551404 0.745531 0.473947
Si Si6 0.000000 0.195375 0.250000
O O1 0.650776 0.567308 0.827281
O O2 0.567945 0.393657 0.988634
O O3 0.655189 0.480031 0.067295
O O4 0.551587 0.611599 0.110407
O O5 0.882291 0.440592 0.786322
O O6 0.000000 0.478500 0.750000
O O7 0.000000 0.500000 0.500000
O O8 0.981084 0.293634 0.615083
O O9 0.177597 0.762619 0.118022
O O10 0.229380 0.579874 0.933863
O O11 0.109866 0.676435 0.988806
O O12 0.542989 0.762388 0.321788
#
# Coordination Sequence:
#
# PCOD9282443 Si02
#       6
#     8   8   8   8   8   4
#     4  11  22  37  63  99 127 162 203 267 331 388
#     4  10  22  39  62  85 117 164 213 261 307 361
#     4   9  21  41  62  82 128 173 205 252 316 390
#     4  10  21  39  62  89 126 167 205 246 330 388
#     4  10  22  37  61  95 127 159 211 268 322 371
#     4  12  22  34  66 100 130 158 208 276 322 386
#
# _framework density 20.474833
#
# number of rings (size 3 to 8) (size 9 to 14) (size 15 to 20)
#    0.000    1.818    1.818    1.636    7.636    2.909 
#    0.000    0.909    4.000    0.000    0.000    0.000 
#    0.000    0.000    0.000    0.000    0.000    0.000 
#
# Total GULP energy -122767.298258 kJ/mol
# GULP energy per Si atom -5580.331739 kJ/mol
# Density = 2.042823 g / cm^3
# Si number density = 20.474833 Si / 1000 Ang^3
#
#
#
# Elastic Constant Matrix: (Units=GPa)
#
#
# Indices 1 2 3 4 5 6 
#
# 1 94.9143 19.0459 74.8619 0.0000 -12.6949 0.0000
# 2 19.0459 45.3384 48.8973 0.0000 -11.1812 0.0000
# 3 74.8619 48.8973 205.6645 0.0000 -7.1867 0.0000
# 4 0.0000 0.0000 0.0000 34.7909 0.0000 -2.4591
# 5 -12.6949 -11.1812 -7.1867 0.0000 46.2736 0.0000
# 6 0.0000 0.0000 0.0000 -2.4591 0.0000 15.1147
#
#
#
# Elastic Compliance Matrix: (Units=1/GPa)
#
#
# Indices 1 2 3 4 5 6 
#
# 1 0.015282 0.000398 -0.005538 0.000000 0.003429 0.000000
# 2 0.000398 0.031493 -0.007403 0.000000 0.006569 0.000000
# 3 -0.005538 -0.007403 0.008569 0.000000 -0.001977 0.000000
# 4 0.000000 0.000000 0.000000 0.029078 0.000000 0.004731
# 5 0.003429 0.006569 -0.001977 0.000000 0.023832 0.000000
# 6 0.000000 0.000000 0.000000 0.004731 0.000000 0.066931
#
#
# Mechanical properties :
#
#
# Convention : Reuss Voigt Hill
#
# Bulk Modulus (GPa) = 33.04750 70.16971 51.60861
# Shear Modulus (GPa) = 23.76928 32.77663 28.27295
#
# Velocity S-wave (km/s) = 3.41090 4.00537 3.72003
# Velocity P-wave (km/s) = 5.62920 7.46567 6.61151
#
# Compressibility (1/GPa) = 0.03025947
#
# Stress axis : x y z
#
# Youngs Moduli (GPa) = 65.43568 31.75279 116.70075
#
# Poissons Ratio (x) = -0.01264 0.64623
# Poissons Ratio (y) = -0.02604 0.86393
# Poissons Ratio (z) = 0.36235 0.23506
#
# Static dielectric constant tensor:
#      x y z
#    x 1.756450 0.000000 0.013180 
#    y 0.000000 1.806350 0.000000 
#    z 0.013180 0.000000 1.718920 
# 
# From -- ./inp_files/47184.got.cif
#   From: 2010.05.17/outbox.cif.g08.bks.cpg/sg15_24_cif.got.tgz:47184.got - 2010.06.03 18:47:42.
