data_PCOD9282607
_publ_section_title
;
Structure prediction by ZEFSAII (Michael W. Deem and Ramdas Pophale) SiO2 
 PCOD9282607
Probable space group: C 2/C
;
_chemical_formula_sum "Si O2"
_cell_formula_units_Z 52
_cell_length_a 18.195454
_cell_length_b 27.164490
_cell_length_c 5.441763
_cell_angle_alpha 90.000000
_cell_angle_beta 50.949072
_cell_angle_gamma 90.000000
_cell_volume 2088.785225
_symmetry_space_group_name_H-M "C 2/C"
_symmetry_group_IT_number 15
_symmetry_cell_setting 'monoclinic'
loop_
_space_group_symop_operation_xyz
x,y,z
-x,y,1/2-z
-x,-y,-z
x,-y,1/2+z
1/2+x,1/2+y,z
1/2-x,1/2+y,1/2-z
1/2-x,1/2-y,-z
1/2+x,1/2-y,1/2+z
loop_
_atom_site_type_symbol
_atom_site_label
_atom_site_fract_x
_atom_site_fract_y
_atom_site_fract_z
Si Si1 0.120069 0.708007 0.379258
Si Si2 0.376037 0.524940 0.660119
Si Si3 0.834723 0.513538 0.911388
Si Si4 0.818163 0.627237 0.879346
Si Si5 0.058209 0.134919 0.876539
Si Si6 0.500000 0.834851 0.750000
Si Si7 0.796861 0.802993 0.191456
O O1 0.150077 0.658402 0.452530
O O2 0.140953 0.755325 0.504880
O O3 0.022983 0.698556 0.439562
O O4 0.194836 0.715149 0.997920
O O5 0.407409 0.510766 0.317884
O O6 0.405436 0.579212 0.674787
O O7 0.261860 0.519061 0.888191
O O8 0.886358 0.498945 0.553783
O O9 0.804162 0.570429 0.967049
O O10 0.907813 0.632793 0.505293
O O11 0.727524 0.654708 0.953791
O O12 0.146947 0.171167 0.706033
O O13 0.000000 0.141070 0.750000
O O14 0.000000 0.145486 0.250000
#
# Coordination Sequence:
#
# PCOD9282607 Si02
#       7
#     8   8   8   8   8   4   8
#     4  10  23  43  74 100 140 185 235 298 359 431
#     4  10  21  39  63  91 129 181 230 282 339 408
#     4  10  23  40  70 103 133 184 234 294 352 420
#     4  11  23  43  75 100 143 181 241 290 366 427
#     4  12  28  43  66 102 145 189 231 294 348 418
#     4  10  24  42  68 108 136 182 226 302 364 440
#     4  10  24  43  68 106 137 186 246 283 355 429
#
# _framework density 24.894850000000002
#
# number of rings (size 3 to 8) (size 9 to 14) (size 15 to 20)
#    0.000    1.538    0.000    3.692   11.846    3.077 
#    0.000    0.769    0.000    0.000    0.000    0.000 
#    0.000    0.000    0.000    0.000    0.000    0.000 
#
# Total GULP energy -145501.229696 kJ/mol
# GULP energy per Si atom -5596.201142 kJ/mol
# Density = 2.483819 g / cm^3
# Si number density = 24.894850 Si / 1000 Ang^3
#
#
#
# Elastic Constant Matrix: (Units=GPa)
#
#
# Indices 1 2 3 4 5 6 
#
# 1 119.3982 42.8235 45.3901 0.0000 22.9948 0.0000
# 2 42.8235 123.3123 18.1982 0.0000 13.0357 0.0000
# 3 45.3901 18.1982 90.9905 0.0000 18.9445 0.0000
# 4 0.0000 0.0000 0.0000 25.0674 0.0000 -2.2536
# 5 22.9948 13.0357 18.9445 0.0000 53.5865 0.0000
# 6 0.0000 0.0000 0.0000 -2.2536 0.0000 11.8169
#
#
#
# Elastic Compliance Matrix: (Units=1/GPa)
#
#
# Indices 1 2 3 4 5 6 
#
# 1 0.011793 -0.003122 -0.004710 0.000000 -0.002636 0.000000
# 2 -0.003122 0.009305 -0.000120 0.000000 -0.000881 0.000000
# 3 -0.004710 -0.000120 0.013965 0.000000 -0.002887 0.000000
# 4 0.000000 0.000000 0.000000 0.040588 0.000000 0.007741
# 5 -0.002636 -0.000881 -0.002887 0.000000 0.021028 0.000000
# 6 0.000000 0.000000 0.000000 0.007741 0.000000 0.086101
#
#
# Mechanical properties :
#
#
# Convention : Reuss Voigt Hill
#
# Bulk Modulus (GPa) = 52.19470 60.72497 56.45984
# Shear Modulus (GPa) = 24.38212 33.24678 28.81445
#
# Velocity S-wave (km/s) = 3.13294 3.65840 3.40582
# Velocity P-wave (km/s) = 5.83940 6.50313 6.18018
#
# Compressibility (1/GPa) = 0.01915903
#
# Stress axis : x y z
#
# Youngs Moduli (GPa) = 84.79527 107.47477 71.60952
#
# Poissons Ratio (x) = 0.33551 0.33726
# Poissons Ratio (y) = 0.26471 0.00860
# Poissons Ratio (z) = 0.39936 0.01291
#
# Static dielectric constant tensor:
#      x y z
#    x 1.980170 0.000000 -0.021640 
#    y 0.000000 1.927710 0.000000 
#    z -0.021640 0.000000 2.129870 
# 
# From -- ./inp_files/11456.got.cif
#   From: 2010.05.17/outbox.cif.g08.bks.cpg/sg15_6_cif.got.tgz:11456.got - 2010.06.03 18:47:42.
