data_PCOD9282910
_publ_section_title
;
Structure prediction by ZEFSAII (Michael W. Deem and Ramdas Pophale) SiO2 
 PCOD9282910
Probable space group: C 2/C
;
_chemical_formula_sum "Si O2"
_cell_formula_units_Z 36
_cell_length_a 7.779685
_cell_length_b 24.346957
_cell_length_c 8.177255
_cell_angle_alpha 90.000000
_cell_angle_beta 91.893558
_cell_angle_gamma 90.000000
_cell_volume 1548.021634
_symmetry_space_group_name_H-M "C 2/C"
_symmetry_group_IT_number 15
_symmetry_cell_setting 'monoclinic'
loop_
_space_group_symop_operation_xyz
x,y,z
-x,y,1/2-z
-x,-y,-z
x,-y,1/2+z
1/2+x,1/2+y,z
1/2-x,1/2+y,1/2-z
1/2-x,1/2-y,-z
1/2+x,1/2-y,1/2+z
loop_
_atom_site_type_symbol
_atom_site_label
_atom_site_fract_x
_atom_site_fract_y
_atom_site_fract_z
Si Si1 0.260565 0.453377 0.611383
Si Si2 0.500000 0.769261 0.750000
Si Si3 0.112340 0.345068 0.490203
Si Si4 0.148062 0.064527 0.011103
Si Si5 0.734493 0.675648 0.841618
O O1 0.128505 0.409777 0.530751
O O2 0.244761 0.518800 0.587520
O O3 0.279579 0.438109 0.802156
O O4 0.444166 0.445584 0.526638
O O5 0.628127 0.808824 0.653496
O O6 0.617659 0.728843 0.861968
O O7 0.247114 0.331117 0.353430
O O8 0.927284 0.326594 0.417322
O O9 0.156965 0.122221 0.922635
#
# Coordination Sequence:
#
# PCOD9282910 Si02
#       5
#     8   4   8   8   8
#     4  10  21  39  65  95 129 167 211 259 315 385
#     4  12  24  44  66  90 130 174 218 264 318 386
#     4  11  24  41  63  94 127 165 214 268 320 376
#     4  10  21  39  65  95 128 169 209 256 320 385
#     4  11  24  41  64  93 127 168 214 266 322 379
#
# _framework density 23.255490000000002
#
# number of rings (size 3 to 8) (size 9 to 14) (size 15 to 20)
#    0.000    1.333    0.000    5.333    0.000    4.444 
#    0.000    6.667    0.000    0.000    0.000    0.000 
#    0.000    0.000    0.000    0.000    0.000    0.000 
#
# Total GULP energy -100592.937109 kJ/mol
# GULP energy per Si atom -5588.496506 kJ/mol
# Density = 2.320256 g / cm^3
# Si number density = 23.255490 Si / 1000 Ang^3
#
#
#
# Elastic Constant Matrix: (Units=GPa)
#
#
# Indices 1 2 3 4 5 6 
#
# 1 60.2690 30.7113 27.3279 0.0000 6.4308 0.0000
# 2 30.7113 141.4984 72.8191 0.0000 -14.3079 0.0000
# 3 27.3279 72.8191 69.6124 0.0000 -16.0004 0.0000
# 4 0.0000 0.0000 0.0000 28.7335 0.0000 -5.9825
# 5 6.4308 -14.3079 -16.0004 0.0000 29.9300 0.0000
# 6 0.0000 0.0000 0.0000 -5.9825 0.0000 43.3404
#
#
#
# Elastic Compliance Matrix: (Units=1/GPa)
#
#
# Indices 1 2 3 4 5 6 
#
# 1 0.023057 -0.000336 -0.011259 0.000000 -0.011134 0.000000
# 2 -0.000336 0.015366 -0.016231 0.000000 -0.001259 0.000000
# 3 -0.011259 -0.016231 0.039375 0.000000 0.015710 0.000000
# 4 0.000000 0.000000 0.000000 0.035832 0.000000 0.004946
# 5 -0.011134 -0.001259 0.015710 0.000000 0.043600 0.000000
# 6 0.000000 0.000000 0.000000 0.004946 0.000000 0.023756
#
#
# Mechanical properties :
#
#
# Convention : Reuss Voigt Hill
#
# Bulk Modulus (GPa) = 45.15690 59.23295 52.19492
# Shear Modulus (GPa) = 20.49009 29.76887 25.12948
#
# Velocity S-wave (km/s) = 2.97153 3.58170 3.29079
# Velocity P-wave (km/s) = 5.58867 6.52921 6.07716
#
# Compressibility (1/GPa) = 0.02214501
#
# Stress axis : x y z
#
# Youngs Moduli (GPa) = 43.37137 65.07928 25.39664
#
# Poissons Ratio (x) = 0.02185 0.28595
# Poissons Ratio (y) = 0.01456 0.41222
# Poissons Ratio (z) = 0.48833 1.05633
#
# Static dielectric constant tensor:
#      x y z
#    x 1.911480 0.000000 0.040360 
#    y 0.000000 1.883050 0.000000 
#    z 0.040360 0.000000 1.913520 
# 
# From -- ./inp_files/22543.got.cif
#   From: 2010.05.17/outbox.cif.g08.bks.cpg/sg15_12_cif.got.tgz:22543.got - 2010.06.03 18:47:42.
