data_PCOD9282044
_publ_section_title
;
Structure prediction by ZEFSAII (Michael W. Deem and Ramdas Pophale) SiO2 
 PCOD9282044
Probable space group: C 2/C
;
_chemical_formula_sum "Si O2"
_cell_formula_units_Z 44
_cell_length_a 13.846037
_cell_length_b 25.199677
_cell_length_c 8.539699
_cell_angle_alpha 90.000000
_cell_angle_beta 41.187766
_cell_angle_gamma 90.000000
_cell_volume 1962.175233
_symmetry_space_group_name_H-M "C 2/C"
_symmetry_group_IT_number 15
_symmetry_cell_setting 'monoclinic'
loop_
_space_group_symop_operation_xyz
x,y,z
-x,y,1/2-z
-x,-y,-z
x,-y,1/2+z
1/2+x,1/2+y,z
1/2-x,1/2+y,1/2-z
1/2-x,1/2-y,-z
1/2+x,1/2-y,1/2+z
loop_
_atom_site_type_symbol
_atom_site_label
_atom_site_fract_x
_atom_site_fract_y
_atom_site_fract_z
Si Si1 0.823653 0.617190 0.478836
Si Si2 0.347373 0.227620 0.521938
Si Si3 0.238383 0.927006 0.556053
Si Si4 0.165281 0.019192 0.830368
Si Si5 0.500000 0.140451 0.750000
Si Si6 0.269065 0.666787 0.240967
O O1 0.801525 0.668206 0.621866
O O2 0.729262 0.567343 0.649412
O O3 0.757293 0.639120 0.395139
O O4 0.000000 0.605515 0.250000
O O5 0.250000 0.250000 0.500000
O O6 0.346569 0.276457 0.642118
O O7 0.500000 0.220258 0.250000
O O8 0.385859 0.900092 0.310267
O O9 0.170705 0.960558 0.500575
O O10 0.264164 0.968024 0.666835
O O11 0.157411 0.876690 0.734047
O O12 0.000000 0.000000 0.000000
O O13 0.603500 0.173637 0.510167
#
# Coordination Sequence:
#
# PCOD9282044 Si02
#       6
#     8   8   8   8   4   8
#     4  10  21  38  68  94 130 178 232 275 338 408
#     4   9  19  37  65  99 129 172 229 275 335 407
#     4  10  23  39  63  91 128 171 227 271 339 400
#     4  12  25  41  61  91 136 176 221 283 343 405
#     4   8  20  38  64  98 128 166 236 270 348 398
#     4   9  19  39  64  96 130 169 226 285 331 404
#
# _framework density 22.424091000000001
#
# number of rings (size 3 to 8) (size 9 to 14) (size 15 to 20)
#    1.091    1.091    0.000    2.727    1.273    3.636 
#    0.000    0.909    4.000    0.000    0.000    0.000 
#    0.000    0.000    0.000    0.000    0.000    0.364 
#
# Total GULP energy -122548.208898 kJ/mol
# GULP energy per Si atom -5570.373132 kJ/mol
# Density = 2.237305 g / cm^3
# Si number density = 22.424091 Si / 1000 Ang^3
#
#
#
# Elastic Constant Matrix: (Units=GPa)
#
#
# Indices 1 2 3 4 5 6 
#
# 1 64.2484 16.5571 5.2009 0.0000 4.1346 0.0000
# 2 16.5571 184.1701 61.8365 0.0000 6.7082 0.0000
# 3 5.2009 61.8365 72.7368 0.0000 8.2481 0.0000
# 4 0.0000 0.0000 0.0000 39.0602 0.0000 -1.1400
# 5 4.1346 6.7082 8.2481 0.0000 29.4378 0.0000
# 6 0.0000 0.0000 0.0000 -1.1400 0.0000 20.9667
#
#
#
# Elastic Compliance Matrix: (Units=1/GPa)
#
#
# Indices 1 2 3 4 5 6 
#
# 1 0.016049 -0.001485 0.000343 0.000000 -0.002012 0.000000
# 2 -0.001485 0.007736 -0.006501 0.000000 0.000267 0.000000
# 3 0.000343 -0.006501 0.019714 0.000000 -0.004090 0.000000
# 4 0.000000 0.000000 0.000000 0.025642 0.000000 0.001394
# 5 -0.002012 0.000267 -0.004090 0.000000 0.035338 0.000000
# 6 0.000000 0.000000 0.000000 0.001394 0.000000 0.047771
#
#
# Mechanical properties :
#
#
# Convention : Reuss Voigt Hill
#
# Bulk Modulus (GPa) = 35.44391 54.26048 44.85219
# Shear Modulus (GPa) = 28.25812 33.73034 30.99423
#
# Velocity S-wave (km/s) = 3.55374 3.88261 3.72181
# Velocity P-wave (km/s) = 5.71657 6.65954 6.20599
#
# Compressibility (1/GPa) = 0.02821359
#
# Stress axis : x y z
#
# Youngs Moduli (GPa) = 62.30959 129.26114 50.72455
#
# Poissons Ratio (x) = 0.19190 -0.01738
# Poissons Ratio (y) = 0.09250 0.32976
# Poissons Ratio (z) = -0.02135 0.84033
#
# Static dielectric constant tensor:
#      x y z
#    x 1.892440 0.000000 0.033510 
#    y 0.000000 1.889660 0.000000 
#    z 0.033510 0.000000 1.857010 
# 
# From -- ./inp_files/43360.got.cif
#   From: 2010.05.17/outbox.cif.g08.bks.cpg/sg15_22_cif.got.tgz:43360.got - 2010.06.03 18:47:42.
