data_PCOD9282478
_publ_section_title
;
Structure prediction by ZEFSAII (Michael W. Deem and Ramdas Pophale) SiO2 
 PCOD9282478
Probable space group: C 2/C
;
_chemical_formula_sum "Si O2"
_cell_formula_units_Z 56
_cell_length_a 17.768605
_cell_length_b 21.885533
_cell_length_c 7.379190
_cell_angle_alpha 90.000000
_cell_angle_beta 107.078614
_cell_angle_gamma 90.000000
_cell_volume 2743.044431
_symmetry_space_group_name_H-M "C 2/C"
_symmetry_group_IT_number 15
_symmetry_cell_setting 'monoclinic'
loop_
_space_group_symop_operation_xyz
x,y,z
-x,y,1/2-z
-x,-y,-z
x,-y,1/2+z
1/2+x,1/2+y,z
1/2-x,1/2+y,1/2-z
1/2-x,1/2-y,-z
1/2+x,1/2-y,1/2+z
loop_
_atom_site_type_symbol
_atom_site_label
_atom_site_fract_x
_atom_site_fract_y
_atom_site_fract_z
Si Si1 0.345352 0.080727 0.497771
Si Si2 0.000000 0.380396 0.250000
Si Si3 0.500000 0.650316 0.750000
Si Si4 0.840584 0.871452 0.295381
Si Si5 0.197016 0.552531 0.622564
Si Si6 0.075282 0.352815 0.936316
Si Si7 0.770624 0.815169 0.601949
Si Si8 0.861605 0.222867 0.523343
O O1 0.439501 0.081946 0.581484
O O2 0.321339 0.074777 0.689438
O O3 0.306020 0.143532 0.405671
O O4 0.312121 0.019857 0.385078
O O5 0.952702 0.344990 0.372770
O O6 0.567724 0.615609 0.685383
O O7 0.449815 0.694462 0.584035
O O8 0.785068 0.922205 0.162076
O O9 0.819965 0.855306 0.488366
O O10 0.823768 0.809052 0.172109
O O11 0.129653 0.586605 0.457488
O O12 0.000000 0.353723 0.750000
O O13 0.129889 0.294418 0.942747
O O14 0.750000 0.750000 0.500000
O O15 0.818437 0.799758 0.815141
#
# Coordination Sequence:
#
# PCOD9282478 Si02
#       8
#     8   4   4   8   8   8   8   8
#     4  10  24  40  60  95 121 178 211 255 324 371
#     4  10  24  40  57  86 139 164 216 256 296 390
#     4   8  20  38  59  90 113 164 198 266 324 362
#     4   9  21  42  58  91 126 157 213 269 313 389
#     4  10  23  38  61  87 128 165 217 263 307 383
#     4  11  23  38  59  94 126 173 209 254 320 373
#     4  11  23  39  64  93 125 168 212 263 327 378
#     4  10  21  39  62  92 122 165 211 258 327 369
#
# _framework density 20.415272000000002
#
# number of rings (size 3 to 8) (size 9 to 14) (size 15 to 20)
#    0.857    1.143    0.714    2.571    5.000    8.571 
#    0.000    0.000    0.000    7.714    0.000    0.000 
#    0.000    0.000    0.000    0.000    0.000    0.000 
#
# Total GULP energy -156015.605237 kJ/mol
# GULP energy per Si atom -5571.985901 kJ/mol
# Density = 2.036881 g / cm^3
# Si number density = 20.415272 Si / 1000 Ang^3
#
#
#
# Elastic Constant Matrix: (Units=GPa)
#
#
# Indices 1 2 3 4 5 6 
#
# 1 72.1322 18.2496 21.9580 0.0000 16.4050 0.0000
# 2 18.2496 105.8193 28.5073 0.0000 23.8006 0.0000
# 3 21.9580 28.5073 104.8953 0.0000 18.8753 0.0000
# 4 0.0000 0.0000 0.0000 12.1739 0.0000 1.4292
# 5 16.4050 23.8006 18.8753 0.0000 36.5367 0.0000
# 6 0.0000 0.0000 0.0000 1.4292 0.0000 36.3353
#
#
#
# Elastic Compliance Matrix: (Units=1/GPa)
#
#
# Indices 1 2 3 4 5 6 
#
# 1 0.015990 -0.000962 -0.002102 0.000000 -0.005467 0.000000
# 2 -0.000962 0.011480 -0.001820 0.000000 -0.006106 0.000000
# 3 -0.002102 -0.001820 0.011118 0.000000 -0.003615 0.000000
# 4 0.000000 0.000000 0.000000 0.082524 0.000000 -0.003246
# 5 -0.005467 -0.006106 -0.003615 0.000000 0.035669 0.000000
# 6 0.000000 0.000000 0.000000 -0.003246 0.000000 0.027649
#
#
# Mechanical properties :
#
#
# Convention : Reuss Voigt Hill
#
# Bulk Modulus (GPa) = 34.69715 46.69739 40.69727
# Shear Modulus (GPa) = 24.53329 31.28463 27.90896
#
# Velocity S-wave (km/s) = 3.47033 3.91885 3.70139
# Velocity P-wave (km/s) = 5.75241 6.58786 6.18426
#
# Compressibility (1/GPa) = 0.02882081
#
# Stress axis : x y z
#
# Youngs Moduli (GPa) = 62.53896 87.11178 89.94164
#
# Poissons Ratio (x) = 0.08378 0.18907
# Poissons Ratio (y) = 0.06014 0.16367
# Poissons Ratio (z) = 0.13146 0.15852
#
# Static dielectric constant tensor:
#      x y z
#    x 1.832620 0.000000 0.013040 
#    y 0.000000 1.997290 0.000000 
#    z 0.013040 0.000000 1.746470 
# 
# From -- ./inp_files/50366.got.cif
#   From: 2010.05.17/outbox.cif.g08.bks.cpg/sg15_26_cif.got.tgz:50366.got - 2010.06.03 18:47:42.
