data_PCOD9282401
_publ_section_title
;
Structure prediction by ZEFSAII (Michael W. Deem and Ramdas Pophale) SiO2 
 PCOD9282401
Probable space group: C 2/C
;
_chemical_formula_sum "Si O2"
_cell_formula_units_Z 52
_cell_length_a 17.280468
_cell_length_b 5.347565
_cell_length_c 30.439513
_cell_angle_alpha 90.000000
_cell_angle_beta 128.713555
_cell_angle_gamma 90.000000
_cell_volume 2194.831174
_symmetry_space_group_name_H-M "C 2/C"
_symmetry_group_IT_number 15
_symmetry_cell_setting 'monoclinic'
loop_
_space_group_symop_operation_xyz
x,y,z
-x,y,1/2-z
-x,-y,-z
x,-y,1/2+z
1/2+x,1/2+y,z
1/2-x,1/2+y,1/2-z
1/2-x,1/2-y,-z
1/2+x,1/2-y,1/2+z
loop_
_atom_site_type_symbol
_atom_site_label
_atom_site_fract_x
_atom_site_fract_y
_atom_site_fract_z
Si Si1 0.007675 0.063059 0.163222
Si Si2 0.626889 0.082355 0.845187
Si Si3 0.796703 0.586841 0.392474
Si Si4 0.066150 0.612398 0.983895
Si Si5 0.500000 0.269417 0.250000
Si Si6 0.894976 0.914523 0.890063
Si Si7 0.651576 0.797287 0.937029
O O1 0.973256 0.335763 0.165884
O O2 0.093814 0.079456 0.158287
O O3 0.914463 0.929998 0.105209
O O4 0.025037 0.920773 0.214861
O O5 0.683096 0.328690 0.848839
O O6 0.594318 0.902464 0.795193
O O7 0.684660 0.941842 0.904459
O O8 0.827923 0.612193 0.454726
O O9 0.829733 0.321822 0.384034
O O10 0.854623 0.819667 0.391052
O O11 0.080330 0.454950 0.944588
O O12 0.005094 0.859596 0.949209
O O13 0.000000 0.500000 0.000000
O O14 0.750000 0.750000 0.000000
#
# Coordination Sequence:
#
# PCOD9282401 Si02
#       7
#     8   8   8   8   4   8   8
#     4  11  23  45  75  97 140 188 244 298 363 438
#     4  11  25  45  72 103 138 184 245 304 362 435
#     4  11  26  41  71 105 150 186 234 288 357 431
#     4  10  21  39  62 101 148 194 227 270 349 433
#     4  10  26  46  80  98 128 188 254 310 376 424
#     4  11  24  44  69 104 147 191 233 284 355 436
#     4  11  24  38  67 109 147 186 238 295 356 427
#
# _framework density 23.692027
#
# number of rings (size 3 to 8) (size 9 to 14) (size 15 to 20)
#    0.000    1.231    1.538    3.692   12.923    1.231 
#    0.000    0.000    6.769    0.000    0.000    0.000 
#    0.000    0.000    0.000    0.000    0.000    0.000 
#
# Total GULP energy -145343.084544 kJ/mol
# GULP energy per Si atom -5590.118636 kJ/mol
# Density = 2.363810 g / cm^3
# Si number density = 23.692027 Si / 1000 Ang^3
#
#
#
# Elastic Constant Matrix: (Units=GPa)
#
#
# Indices 1 2 3 4 5 6 
#
# 1 82.0551 35.8995 43.9537 0.0001 -23.8938 -0.0004
# 2 35.8995 92.3872 44.6713 0.0001 -13.5355 -0.0015
# 3 43.9537 44.6713 150.3634 -0.0003 -25.1809 0.0000
# 4 0.0001 0.0001 -0.0003 42.9232 0.0001 -2.4271
# 5 -23.8938 -13.5355 -25.1809 0.0001 28.9739 0.0002
# 6 -0.0004 -0.0015 0.0000 -2.4271 0.0002 55.0483
#
#
#
# Elastic Compliance Matrix: (Units=1/GPa)
#
#
# Indices 1 2 3 4 5 6 
#
# 1 0.018652 -0.004516 -0.002210 0.000000 0.011351 0.000000
# 2 -0.004516 0.013974 -0.002764 0.000000 0.000402 0.000000
# 3 -0.002210 -0.002764 0.008890 0.000000 0.004613 0.000000
# 4 0.000000 0.000000 0.000000 0.023356 0.000000 0.001030
# 5 0.011351 0.000402 0.004613 0.000000 0.048071 0.000000
# 6 0.000000 0.000000 0.000000 0.001030 0.000000 0.018211
#
#
# Mechanical properties :
#
#
# Convention : Reuss Voigt Hill
#
# Bulk Modulus (GPa) = 44.37271 63.76162 54.06716
# Shear Modulus (GPa) = 31.71651 38.74118 35.22884
#
# Velocity S-wave (km/s) = 3.66279 4.04815 3.86028
# Velocity P-wave (km/s) = 6.05456 6.98721 6.53754
#
# Compressibility (1/GPa) = 0.02253638
#
# Stress axis : x y z
#
# Youngs Moduli (GPa) = 53.61414 71.56004 112.48411
#
# Poissons Ratio (x) = 0.32318 0.24854
# Poissons Ratio (y) = 0.24213 0.31093
# Poissons Ratio (z) = 0.11846 0.19781
#
# Static dielectric constant tensor:
#      x y z
#    x 1.959780 0.000000 0.073180 
#    y 0.000000 1.948640 0.000000 
#    z 0.073180 0.000000 1.931060 
# 
# From -- ./inp_files/297836.got.cif
#   From: 2010.05.17/outbox.cif.g08.bks.cpg/sg15_149_cif.got.tgz:297836.got - 2010.06.03 18:47:42.
