data_PCOD9282588
_publ_section_title
;
Structure prediction by ZEFSAII (Michael W. Deem and Ramdas Pophale) SiO2 
 PCOD9282588
Probable space group: C 2/C
;
_chemical_formula_sum "Si O2"
_cell_formula_units_Z 52
_cell_length_a 36.538407
_cell_length_b 8.344813
_cell_length_c 15.119767
_cell_angle_alpha 90.000000
_cell_angle_beta 145.320825
_cell_angle_gamma 90.000000
_cell_volume 2623.063628
_symmetry_space_group_name_H-M "C 2/C"
_symmetry_group_IT_number 15
_symmetry_cell_setting 'monoclinic'
loop_
_space_group_symop_operation_xyz
x,y,z
-x,y,1/2-z
-x,-y,-z
x,-y,1/2+z
1/2+x,1/2+y,z
1/2-x,1/2+y,1/2-z
1/2-x,1/2-y,-z
1/2+x,1/2-y,1/2+z
loop_
_atom_site_type_symbol
_atom_site_label
_atom_site_fract_x
_atom_site_fract_y
_atom_site_fract_z
Si Si1 0.701887 0.377587 0.947455
Si Si2 0.500000 0.664655 0.750000
Si Si3 0.246255 0.140582 0.168787
Si Si4 0.148800 0.198022 0.754084
Si Si5 0.150982 0.321696 0.484556
Si Si6 0.617144 0.824017 0.884114
Si Si7 0.940683 0.855805 0.575224
O O1 0.672676 0.519283 0.829377
O O2 0.750000 0.250000 0.000000
O O3 0.732623 0.471891 0.092775
O O4 0.650151 0.260388 0.887875
O O5 0.550287 0.754174 0.787402
O O6 0.457648 0.542511 0.606806
O O7 0.293674 0.228221 0.191503
O O8 0.281924 0.134319 0.333644
O O9 0.178885 0.231944 0.047902
O O10 0.132985 0.294998 0.811981
O O11 0.082955 0.198597 0.567009
O O12 0.116660 0.491088 0.409322
O O13 0.119327 0.188988 0.483742
O O14 0.000000 0.782798 0.750000
#
# Coordination Sequence:
#
# PCOD9282588 Si02
#       7
#     8   4   8   8   8   8   8
#     4  11  21  34  59  97 123 152 196 249 309 362
#     4  10  24  40  60  84 124 164 202 238 298 366
#     4  10  21  39  63  90 124 160 196 251 308 359
#     4  10  21  40  65  88 122 156 202 260 302 352
#     4  11  22  38  64  88 123 157 202 252 300 364
#     4  11  22  39  60  93 125 158 201 244 308 359
#     4   9  22  43  63  83 114 161 211 244 299 358
#
# _framework density 19.824147
#
# number of rings (size 3 to 8) (size 9 to 14) (size 15 to 20)
#    0.462    1.231    0.000    6.462    1.077    5.538 
#    0.000    0.769    0.000    0.000    0.000    0.000 
#    0.000    0.000    0.000    0.000    0.000    0.000 
#
# Total GULP energy -144740.151583 kJ/mol
# GULP energy per Si atom -5566.928907 kJ/mol
# Density = 1.977903 g / cm^3
# Si number density = 19.824147 Si / 1000 Ang^3
#
#
#
# Elastic Constant Matrix: (Units=GPa)
#
#
# Indices 1 2 3 4 5 6 
#
# 1 64.1325 23.4495 10.1752 0.0000 19.1957 0.0000
# 2 23.4495 96.1301 19.5916 0.0000 19.7060 0.0000
# 3 10.1752 19.5916 77.1796 0.0000 -0.9638 0.0000
# 4 0.0000 0.0000 0.0000 11.2121 0.0000 13.3987
# 5 19.1957 19.7060 -0.9638 0.0000 21.9247 0.0000
# 6 0.0000 0.0000 0.0000 13.3987 0.0000 24.2594
#
#
#
# Elastic Compliance Matrix: (Units=1/GPa)
#
#
# Indices 1 2 3 4 5 6 
#
# 1 0.021927 -0.000983 -0.002871 0.000000 -0.018440 0.000000
# 2 -0.000983 0.013744 -0.003505 0.000000 -0.011646 0.000000
# 3 -0.002871 -0.003505 0.014304 0.000000 0.006293 0.000000
# 4 0.000000 0.000000 0.000000 0.262340 0.000000 -0.144893
# 5 -0.018440 -0.011646 0.006293 0.000000 0.072500 0.000000
# 6 0.000000 0.000000 0.000000 -0.144893 0.000000 0.121247
#
#
# Mechanical properties :
#
#
# Convention : Reuss Voigt Hill
#
# Bulk Modulus (GPa) = 28.36411 38.20830 33.28621
# Shear Modulus (GPa) = 9.38909 23.76098 16.57503
#
# Velocity S-wave (km/s) = 2.17864 3.46582 2.89468
# Velocity P-wave (km/s) = 4.54616 5.94402 5.29145
#
# Compressibility (1/GPa) = 0.03525582
#
# Stress axis : x y z
#
# Youngs Moduli (GPa) = 45.60511 72.75836 69.91257
#
# Poissons Ratio (x) = 0.07156 0.20075
# Poissons Ratio (y) = 0.04485 0.24502
# Poissons Ratio (z) = 0.13095 0.25499
#
# Static dielectric constant tensor:
#      x y z
#    x 1.784960 0.000000 -0.008830 
#    y 0.000000 1.693260 0.000000 
#    z -0.008830 0.000000 1.762970 
# 
# From -- ./inp_files/166252.got.cif
#   From: 2010.05.17/outbox.cif.g08.bks.cpg/sg15_84_cif.got.tgz:166252.got - 2010.06.03 18:47:42.
