data_PCOD9282406
_publ_section_title
;
Structure prediction by ZEFSAII (Michael W. Deem and Ramdas Pophale) SiO2 
 PCOD9282406
Probable space group: C 2/C
;
_chemical_formula_sum "Si O2"
_cell_formula_units_Z 60
_cell_length_a 17.443959
_cell_length_b 5.272324
_cell_length_c 29.586388
_cell_angle_alpha 90.000000
_cell_angle_beta 103.059442
_cell_angle_gamma 90.000000
_cell_volume 2650.688920
_symmetry_space_group_name_H-M "C 2/C"
_symmetry_group_IT_number 15
_symmetry_cell_setting 'monoclinic'
loop_
_space_group_symop_operation_xyz
x,y,z
-x,y,1/2-z
-x,-y,-z
x,-y,1/2+z
1/2+x,1/2+y,z
1/2-x,1/2+y,1/2-z
1/2-x,1/2-y,-z
1/2+x,1/2-y,1/2+z
loop_
_atom_site_type_symbol
_atom_site_label
_atom_site_fract_x
_atom_site_fract_y
_atom_site_fract_z
Si Si1 0.183289 0.964713 0.630102
Si Si2 0.500000 0.448521 0.250000
Si Si3 0.041416 0.264669 0.061484
Si Si4 0.374138 0.768006 0.796853
Si Si5 0.628710 0.378988 0.835219
Si Si6 0.942161 0.765514 0.042528
Si Si7 0.837401 0.601750 0.105539
Si Si8 0.249028 0.398022 0.207052
O O1 0.116299 0.777611 0.602946
O O2 0.134198 0.167383 0.653269
O O3 0.246047 0.991534 0.597492
O O4 0.242954 0.838760 0.673719
O O5 0.546913 0.282426 0.219334
O O6 0.438660 0.604571 0.211561
O O7 0.005216 0.543190 0.061349
O O8 0.067586 0.230651 0.012752
O O9 0.977670 0.039199 0.061283
O O10 0.306383 0.641970 0.756189
O O11 0.341115 0.051657 0.792057
O O12 0.636243 0.641434 0.864236
O O13 0.711334 0.383021 0.818409
O O14 0.618625 0.137080 0.865615
O O15 0.865403 0.672734 0.059110
#
# Coordination Sequence:
#
# PCOD9282406 Si02
#       8
#     8   4   8   8   8   8   8   8
#     4  11  24  38  65  92 121 168 215 256 307 388
#     4  10  26  38  58  92 126 162 220 258 310 366
#     4  10  24  43  67  97 127 166 209 259 323 375
#     4  11  21  41  57  87 124 171 205 267 303 373
#     4  10  23  42  59  94 125 165 210 261 312 368
#     4  10  23  45  66  93 134 163 202 269 322 373
#     4  11  23  40  67  91 126 167 208 259 315 374
#     4  10  21  39  62  83 128 167 212 254 322 356
#
# _framework density 22.635625000000001
#
# number of rings (size 3 to 8) (size 9 to 14) (size 15 to 20)
#    0.000    1.600    2.667    0.800    5.600    1.067 
#    0.000    0.000    0.000    7.200    0.000    0.000 
#    0.000    0.000    0.000    0.000    0.000    0.000 
#
# Total GULP energy -167281.924585 kJ/mol
# GULP energy per Si atom -5576.064153 kJ/mol
# Density = 2.258411 g / cm^3
# Si number density = 22.635625 Si / 1000 Ang^3
#
#
#
# Elastic Constant Matrix: (Units=GPa)
#
#
# Indices 1 2 3 4 5 6 
#
# 1 86.2385 1.0167 15.8908 0.0000 -23.3324 0.0000
# 2 1.0167 97.9689 13.4962 0.0000 -7.0787 0.0001
# 3 15.8908 13.4962 40.7300 0.0000 -4.0776 0.0000
# 4 0.0000 0.0000 0.0000 23.2297 0.0000 -4.7727
# 5 -23.3324 -7.0787 -4.0776 0.0000 34.2401 0.0000
# 6 0.0000 0.0001 0.0000 -4.7727 0.0000 21.9947
#
#
#
# Elastic Compliance Matrix: (Units=1/GPa)
#
#
# Indices 1 2 3 4 5 6 
#
# 1 0.015294 0.001311 -0.005395 0.000000 0.010050 0.000000
# 2 0.001311 0.010920 -0.003860 0.000000 0.002691 0.000000
# 3 -0.005395 -0.003860 0.027820 0.000000 -0.001161 0.000000
# 4 0.000000 0.000000 0.000000 0.045057 0.000000 0.009777
# 5 0.010050 0.002691 -0.001161 0.000000 0.036472 0.000000
# 6 0.000000 0.000000 0.000000 0.009777 0.000000 0.047587
#
#
# Mechanical properties :
#
#
# Convention : Reuss Voigt Hill
#
# Bulk Modulus (GPa) = 26.21658 31.74943 28.98300
# Shear Modulus (GPa) = 23.61236 28.86178 26.23707
#
# Velocity S-wave (km/s) = 3.23329 3.57467 3.40826
# Velocity P-wave (km/s) = 5.05431 5.57624 5.32168
#
# Compressibility (1/GPa) = 0.03814380
#
# Stress axis : x y z
#
# Youngs Moduli (GPa) = 65.38725 91.57541 35.94580
#
# Poissons Ratio (x) = -0.12002 0.19393
# Poissons Ratio (y) = -0.08570 0.13876
# Poissons Ratio (z) = 0.35276 0.35352
#
# Static dielectric constant tensor:
#      x y z
#    x 1.937150 0.000000 -0.077930 
#    y 0.000000 1.931820 0.000000 
#    z -0.077930 0.000000 1.843530 
# 
# From -- ./inp_files/315107.got.cif
#   From: 2010.05.17/outbox.cif.g08.bks.cpg/sg15_158_cif.got.tgz:315107.got - 2010.06.03 18:47:42.
