data_PCOD9282201
_publ_section_title
;
Structure prediction by ZEFSAII (Michael W. Deem and Ramdas Pophale) SiO2 
 PCOD9282201
Probable space group: C 2/C
;
_chemical_formula_sum "Si O2"
_cell_formula_units_Z 60
_cell_length_a 23.077430
_cell_length_b 25.539750
_cell_length_c 15.139970
_cell_angle_alpha 90.000000
_cell_angle_beta 19.449181
_cell_angle_gamma 90.000000
_cell_volume 2971.221606
_symmetry_space_group_name_H-M "C 2/C"
_symmetry_group_IT_number 15
_symmetry_cell_setting 'monoclinic'
loop_
_space_group_symop_operation_xyz
x,y,z
-x,y,1/2-z
-x,-y,-z
x,-y,1/2+z
1/2+x,1/2+y,z
1/2-x,1/2+y,1/2-z
1/2-x,1/2-y,-z
1/2+x,1/2-y,1/2+z
loop_
_atom_site_type_symbol
_atom_site_label
_atom_site_fract_x
_atom_site_fract_y
_atom_site_fract_z
Si Si1 0.368855 0.857277 0.625441
Si Si2 0.000000 0.844600 0.750000
Si Si3 0.443106 0.302794 0.516066
Si Si4 0.659745 0.623186 0.589077
Si Si5 0.326046 0.051068 0.051173
Si Si6 0.192494 0.429831 0.456366
Si Si7 0.477085 0.606262 0.104678
Si Si8 0.175081 0.715993 0.691248
O O1 0.229201 0.814178 0.793115
O O2 0.328129 0.912257 0.634631
O O3 0.554419 0.832513 0.335813
O O4 0.327305 0.866803 0.787778
O O5 0.939989 0.881111 0.757761
O O6 0.158218 0.806913 0.497912
O O7 0.599046 0.324934 0.230836
O O8 0.430169 0.343209 0.615321
O O9 0.436833 0.248256 0.575814
O O10 0.500000 0.610681 0.750000
O O11 0.702560 0.579240 0.601628
O O12 0.148282 0.062220 0.253896
O O13 0.500000 0.068455 0.750000
O O14 0.334865 0.988411 0.041394
O O15 0.000000 0.407320 0.750000
O O16 0.319639 0.403510 0.203120
O O17 0.250000 0.750000 0.500000
#
# Coordination Sequence:
#
# PCOD9282201 Si02
#       8
#     8   4   8   8   8   8   8   8
#     4  10  22  38  66  86 122 162 208 261 308 378
#     4  12  24  36  54  90 124 152 208 258 312 362
#     4   9  20  39  59  85 119 161 206 251 311 370
#     4   9  20  42  65  90 123 167 213 259 311 380
#     4  10  21  41  63  93 121 170 208 253 332 383
#     4  10  22  41  66  91 128 167 209 260 332 380
#     4  10  21  39  59  86 128 159 200 264 315 370
#     4  12  23  37  60  88 120 164 208 255 311 377
#
# _framework density 20.193714
#
# number of rings (size 3 to 8) (size 9 to 14) (size 15 to 20)
#    0.000    1.867    1.333    2.800    3.733    0.533 
#    3.600    1.333    0.000    0.000    0.000    0.000 
#    0.000    0.000    0.000    0.000    0.000    0.000 
#
# Total GULP energy -167101.443245 kJ/mol
# GULP energy per Si atom -5570.048108 kJ/mol
# Density = 2.014775 g / cm^3
# Si number density = 20.193714 Si / 1000 Ang^3
#
#
#
# Elastic Constant Matrix: (Units=GPa)
#
#
# Indices 1 2 3 4 5 6 
#
# 1 54.8766 16.5219 10.6485 -0.0066 17.9166 0.0039
# 2 16.5219 46.9215 11.1342 -0.0058 4.3634 0.0194
# 3 10.6485 11.1342 85.4362 -0.0199 3.9339 0.0258
# 4 -0.0066 -0.0058 -0.0199 24.1519 0.0221 1.4339
# 5 17.9166 4.3634 3.9339 0.0221 35.0832 -0.0153
# 6 0.0039 0.0194 0.0258 1.4339 -0.0153 11.7770
#
#
#
# Elastic Compliance Matrix: (Units=1/GPa)
#
#
# Indices 1 2 3 4 5 6 
#
# 1 0.024406 -0.007158 -0.001584 0.000015 -0.011396 -0.000009
# 2 -0.007158 0.024299 -0.002316 0.000003 0.000893 -0.000032
# 3 -0.001584 -0.002316 0.012216 0.000011 -0.000273 -0.000024
# 4 0.000015 0.000003 0.000011 0.041706 -0.000038 -0.005078
# 5 -0.011396 0.000893 -0.000273 -0.000038 0.034243 0.000052
# 6 -0.000009 -0.000032 -0.000024 -0.005078 0.000052 0.085530
#
#
# Mechanical properties :
#
#
# Convention : Reuss Voigt Hill
#
# Bulk Modulus (GPa) = 25.76958 29.31596 27.54277
# Shear Modulus (GPa) = 19.42112 24.13106 21.77609
#
# Velocity S-wave (km/s) = 3.10456 3.46060 3.28740
# Velocity P-wave (km/s) = 5.06359 5.52418 5.29889
#
# Compressibility (1/GPa) = 0.03880545
#
# Stress axis : x y z
#
# Youngs Moduli (GPa) = 40.97375 41.15375 81.85687
#
# Poissons Ratio (x) = 0.29458 0.12968
# Poissons Ratio (y) = 0.29329 0.18955
# Poissons Ratio (z) = 0.06491 0.09530
#
# Static dielectric constant tensor:
#      x y z
#    x 1.744300 0.000010 -0.012100 
#    y 0.000010 1.761480 0.000020 
#    z -0.012100 0.000020 1.752610 
# 
# From -- ./inp_files/174910.got.cif
#   From: 2010.05.17/outbox.cif.g08.bks.cpg/sg15_88_cif.got.tgz:174910.got - 2010.06.03 18:47:42.
