data_PCOD9282598
_publ_section_title
;
Structure prediction by ZEFSAII (Michael W. Deem and Ramdas Pophale) SiO2 
 PCOD9282598
Probable space group: C 2/C
;
_chemical_formula_sum "Si O2"
_cell_formula_units_Z 56
_cell_length_a 9.053477
_cell_length_b 28.514587
_cell_length_c 12.155573
_cell_angle_alpha 90.000000
_cell_angle_beta 62.485968
_cell_angle_gamma 90.000000
_cell_volume 2783.116997
_symmetry_space_group_name_H-M "C 2/C"
_symmetry_group_IT_number 15
_symmetry_cell_setting 'monoclinic'
loop_
_space_group_symop_operation_xyz
x,y,z
-x,y,1/2-z
-x,-y,-z
x,-y,1/2+z
1/2+x,1/2+y,z
1/2-x,1/2+y,1/2-z
1/2-x,1/2-y,-z
1/2+x,1/2-y,1/2+z
loop_
_atom_site_type_symbol
_atom_site_label
_atom_site_fract_x
_atom_site_fract_y
_atom_site_fract_z
Si Si1 0.170606 0.948926 0.240331
Si Si2 0.680656 0.611147 0.141693
Si Si3 0.190836 0.594833 0.030163
Si Si4 0.062348 0.771450 0.099229
Si Si5 0.947692 0.323805 0.639998
Si Si6 0.912937 0.473204 0.630375
Si Si7 0.034036 0.126336 0.962009
O O1 0.119560 0.908612 0.344005
O O2 0.000000 0.971073 0.250000
O O3 0.301341 0.988614 0.233404
O O4 0.249698 0.923471 0.107893
O O5 0.500000 0.602088 0.250000
O O6 0.774231 0.651449 0.177542
O O7 0.789845 0.564865 0.119123
O O8 0.653001 0.627042 0.025905
O O9 0.089836 0.642468 0.042492
O O10 0.065057 0.557518 0.125331
O O11 0.353497 0.602880 0.047464
O O12 0.000000 0.775951 0.250000
O O13 0.950293 0.728576 0.094229
O O14 0.018061 0.821930 0.063209
O O15 0.250000 0.750000 0.000000
O O16 0.000000 0.322404 0.750000
O O17 0.000000 0.500000 0.500000
#
# Coordination Sequence:
#
# PCOD9282598 Si02
#       7
#     8   8   8   8   8   8   8
#     4   9  18  35  61  86 123 166 217 264 333 395
#     4  11  24  40  62  92 134 165 217 283 350 388
#     4   9  17  35  61  87 118 165 217 263 322 393
#     4  11  23  40  74 103 132 178 239 269 331 412
#     4  10  21  39  63  91 122 169 221 266 322 406
#     4   9  19  39  60  84 120 168 219 268 321 409
#     4  11  22  39  63  97 132 170 214 286 340 397
#
# _framework density 20.121324000000001
#
# number of rings (size 3 to 8) (size 9 to 14) (size 15 to 20)
#    0.000    2.000    1.429    2.571    2.000    0.571 
#    0.000   27.857    0.000    0.000    0.000    0.000 
#    0.000    0.000    0.000    0.000    0.000    0.000 
#
# Total GULP energy -155981.243528 kJ/mol
# GULP energy per Si atom -5570.758697 kJ/mol
# Density = 2.007553 g / cm^3
# Si number density = 20.121324 Si / 1000 Ang^3
#
#
#
# Elastic Constant Matrix: (Units=GPa)
#
#
# Indices 1 2 3 4 5 6 
#
# 1 89.1728 60.4144 42.8886 0.0000 -13.5865 0.0000
# 2 60.4144 157.5095 44.3360 0.0000 -16.2930 0.0000
# 3 42.8886 44.3360 92.8943 0.0000 -12.5362 0.0000
# 4 0.0000 0.0000 0.0000 23.1696 0.0000 -10.3380
# 5 -13.5865 -16.2930 -12.5362 0.0000 30.6336 0.0000
# 6 0.0000 0.0000 0.0000 -10.3380 0.0000 16.4541
#
#
#
# Elastic Compliance Matrix: (Units=1/GPa)
#
#
# Indices 1 2 3 4 5 6 
#
# 1 0.017587 -0.004927 -0.005366 0.000000 0.002984 0.000000
# 2 -0.004927 0.008917 -0.001732 0.000000 0.001849 0.000000
# 3 -0.005366 -0.001732 0.014420 0.000000 0.002600 0.000000
# 4 0.000000 0.000000 0.000000 0.059972 0.000000 0.037680
# 5 0.002984 0.001849 0.002600 0.000000 0.036015 0.000000
# 6 0.000000 0.000000 0.000000 0.037680 0.000000 0.084449
#
#
# Mechanical properties :
#
#
# Convention : Reuss Voigt Hill
#
# Bulk Modulus (GPa) = 59.25725 70.53940 64.89832
# Shear Modulus (GPa) = 19.91753 26.84729 23.38241
#
# Velocity S-wave (km/s) = 3.14964 3.65673 3.41261
# Velocity P-wave (km/s) = 6.53765 7.27750 6.91747
#
# Compressibility (1/GPa) = 0.01687557
#
# Stress axis : x y z
#
# Youngs Moduli (GPa) = 56.85857 112.14183 69.34946
#
# Poissons Ratio (x) = 0.55250 0.37212
# Poissons Ratio (y) = 0.28013 0.12010
# Poissons Ratio (z) = 0.30510 0.19421
#
# Static dielectric constant tensor:
#      x y z
#    x 1.674340 0.000000 -0.128100 
#    y 0.000000 1.737750 0.000000 
#    z -0.128100 0.000000 1.522640 
# 
# From -- ./inp_files/82446.got.cif
#   From: 2010.05.17/outbox.cif.g08.bks.cpg/sg15_42_cif.got.tgz:82446.got - 2010.06.03 18:47:42.
