data_PCOD9282429
_publ_section_title
;
Structure prediction by ZEFSAII (Michael W. Deem and Ramdas Pophale) SiO2 
 PCOD9282429
Probable space group: C 2/C
;
_chemical_formula_sum "Si O2"
_cell_formula_units_Z 52
_cell_length_a 8.373915
_cell_length_b 28.623689
_cell_length_c 15.970206
_cell_angle_alpha 90.000000
_cell_angle_beta 142.295762
_cell_angle_gamma 90.000000
_cell_volume 2341.110409
_symmetry_space_group_name_H-M "C 2/C"
_symmetry_group_IT_number 15
_symmetry_cell_setting 'monoclinic'
loop_
_space_group_symop_operation_xyz
x,y,z
-x,y,1/2-z
-x,-y,-z
x,-y,1/2+z
1/2+x,1/2+y,z
1/2-x,1/2+y,1/2-z
1/2-x,1/2-y,-z
1/2+x,1/2-y,1/2+z
loop_
_atom_site_type_symbol
_atom_site_label
_atom_site_fract_x
_atom_site_fract_y
_atom_site_fract_z
Si Si1 0.272552 0.963306 0.318325
Si Si2 0.000000 0.120999 0.250000
Si Si3 0.000000 0.687394 0.250000
Si Si4 0.556533 0.358890 0.950476
Si Si5 0.020048 0.053633 0.539823
Si Si6 0.750000 0.250000 0.500000
Si Si7 0.254459 0.267153 0.407268
Si Si8 0.994927 0.563937 0.075480
O O1 0.396977 0.929348 0.439117
O O2 0.000000 0.977768 0.250000
O O3 0.207379 0.945477 0.198943
O O4 0.448245 0.009193 0.386710
O O5 0.117875 0.147645 0.377931
O O6 0.767337 0.090510 0.194399
O O7 0.744697 0.656316 0.162413
O O8 0.068853 0.719327 0.357980
O O9 0.603513 0.411681 0.000903
O O10 0.719633 0.323485 0.075125
O O11 0.742289 0.073240 0.459821
O O12 0.000000 0.000000 0.500000
O O13 0.512662 0.249464 0.469384
O O14 0.250000 0.250000 0.500000
O O15 0.000000 0.254287 0.250000
#
# Coordination Sequence:
#
# PCOD9282429 Si02
#       8
#     8   4   4   8   8   4   8   8
#     4   9  19  36  61  86 118 167 236 283 345 400
#     4  12  24  40  62  96 135 181 222 294 360 410
#     4  10  22  46  74 106 145 179 236 292 372 440
#     4  11  26  41  66 103 141 181 239 291 355 438
#     4  11  24  42  64  93 132 187 236 293 348 408
#     4  10  22  44  80 112 142 190 232 298 368 462
#     4  11  25  47  78 109 148 189 237 296 378 446
#     4  10  21  39  62  88 123 180 232 295 344 415
#
# _framework density 22.211680999999999
#
# number of rings (size 3 to 8) (size 9 to 14) (size 15 to 20)
#    0.000    1.538    0.769    3.692    7.538    3.077 
#    0.000    0.000   20.308    0.000    0.000    0.000 
#    0.000    0.000    0.000    0.000    0.000    0.000 
#
# Total GULP energy -144812.451963 kJ/mol
# GULP energy per Si atom -5569.709691 kJ/mol
# Density = 2.216113 g / cm^3
# Si number density = 22.211681 Si / 1000 Ang^3
#
#
#
# Elastic Constant Matrix: (Units=GPa)
#
#
# Indices 1 2 3 4 5 6 
#
# 1 127.1140 22.8203 48.7256 0.0000 -17.6833 0.0000
# 2 22.8203 68.3976 31.6731 0.0000 -21.9961 0.0000
# 3 48.7256 31.6731 125.2466 0.0000 -17.1549 0.0000
# 4 0.0000 0.0000 0.0000 -0.5762 0.0000 9.6128
# 5 -17.6833 -21.9961 -17.1549 0.0000 45.1644 0.0000
# 6 0.0000 0.0000 0.0000 9.6128 0.0000 -1.4485
#
#
#
# Elastic Compliance Matrix: (Units=1/GPa)
#
#
# Indices 1 2 3 4 5 6 
#
# 1 0.009555 -0.001072 -0.003170 0.000000 0.002015 0.000000
# 2 -0.001072 0.018951 -0.003343 0.000000 0.007540 0.000000
# 3 -0.003170 -0.003343 0.010201 0.000000 0.001005 0.000000
# 4 0.000000 0.000000 0.000000 0.015818 0.000000 0.104976
# 5 0.002015 0.007540 0.001005 0.000000 0.026984 0.000000
# 6 0.000000 0.000000 0.000000 0.104976 0.000000 0.006292
#
#
# Mechanical properties :
#
#
# Convention : Reuss Voigt Hill
#
# Bulk Modulus (GPa) = 42.48662 58.57736 50.53199
# Shear Modulus (GPa) = 45.11978 23.13055 34.12517
#
# Velocity S-wave (km/s) = 4.51194 3.23053 3.92390
# Velocity P-wave (km/s) = 6.80537 6.35174 6.58247
#
# Compressibility (1/GPa) = 0.02353682
#
# Stress axis : x y z
#
# Youngs Moduli (GPa) = 104.65866 52.76836 98.03388
#
# Poissons Ratio (x) = 0.05656 0.31078
# Poissons Ratio (y) = 0.11219 0.32769
# Poissons Ratio (z) = 0.33178 0.17638
#
# Static dielectric constant tensor:
#      x y z
#    x 1.796350 0.000000 0.009790 
#    y 0.000000 1.840030 0.000000 
#    z 0.009790 0.000000 1.855890 
# 
# From -- ./inp_files/139909.got.cif
#   From: 2010.05.17/outbox.cif.g08.bks.cpg/sg15_70_cif.got.tgz:139909.got - 2010.06.03 18:47:42.
