data_PCOD9282238
_publ_section_title
;
Structure prediction by ZEFSAII (Michael W. Deem and Ramdas Pophale) SiO2 
 PCOD9282238
Probable space group: C 2/C
;
_chemical_formula_sum "Si O2"
_cell_formula_units_Z 40
_cell_length_a 12.135930
_cell_length_b 32.946309
_cell_length_c 8.234497
_cell_angle_alpha 90.000000
_cell_angle_beta 37.344327
_cell_angle_gamma 90.000000
_cell_volume 1997.201653
_symmetry_space_group_name_H-M "C 2/C"
_symmetry_group_IT_number 15
_symmetry_cell_setting 'monoclinic'
loop_
_space_group_symop_operation_xyz
x,y,z
-x,y,1/2-z
-x,-y,-z
x,-y,1/2+z
1/2+x,1/2+y,z
1/2-x,1/2+y,1/2-z
1/2-x,1/2-y,-z
1/2+x,1/2-y,1/2+z
loop_
_atom_site_type_symbol
_atom_site_label
_atom_site_fract_x
_atom_site_fract_y
_atom_site_fract_z
Si Si1 0.500000 0.627736 0.250000
Si Si2 0.114004 0.465296 0.276540
Si Si3 0.000000 0.264527 0.250000
Si Si4 0.500000 0.352518 0.250000
Si Si5 0.181398 0.192053 0.233983
Si Si6 0.500000 0.491569 0.250000
Si Si7 0.158600 0.919186 0.268623
O O1 0.658286 0.657896 0.121969
O O2 0.456633 0.600171 0.452175
O O3 0.153004 0.431311 0.367126
O O4 0.000000 0.453024 0.250000
O O5 0.000000 0.500000 0.500000
O O6 0.315183 0.482805 0.995346
O O7 0.906241 0.233159 0.235191
O O8 0.887460 0.294279 0.499086
O O9 0.416433 0.325175 0.491693
O O10 0.651957 0.384096 0.140528
O O11 0.559509 0.459763 0.320739
#
# Coordination Sequence:
#
# PCOD9282238 Si02
#       7
#     4   8   4   4   8   4   8
#     4   9  19  36  59  82 120 162 198 236 318 364
#     4  12  25  41  62  90 116 156 215 267 316 379
#     4   9  18  34  61  90 125 154 200 244 289 348
#     4   9  20  38  63  86 125 168 200 240 319 370
#     4   9  18  36  58  91 120 160 199 241 292 364
#     4  11  23  42  61  86 124 150 210 274 314 362
#     4  10  21  39  60  85 119 167 197 258 319 365
#
# _framework density 20.028023000000001
#
# number of rings (size 3 to 8) (size 9 to 14) (size 15 to 20)
#    0.000    2.000    2.000    1.200    2.800    0.800 
#    1.800    2.000    0.000    0.000    0.000    0.000 
#    0.000    0.000    0.000    0.000    0.000    0.000 
#
# Total GULP energy -111363.819532 kJ/mol
# GULP energy per Si atom -5568.190977 kJ/mol
# Density = 1.998244 g / cm^3
# Si number density = 20.028023 Si / 1000 Ang^3
#
#
#
# Elastic Constant Matrix: (Units=GPa)
#
#
# Indices 1 2 3 4 5 6 
#
# 1 127.7457 43.1810 24.9478 0.0000 7.2255 0.0000
# 2 43.1810 96.4167 38.5963 0.0000 2.2992 0.0000
# 3 24.9478 38.5963 70.2999 0.0000 -1.8332 0.0000
# 4 0.0000 0.0000 0.0000 22.3460 0.0000 24.1800
# 5 7.2255 2.2992 -1.8332 0.0000 22.7781 0.0000
# 6 0.0000 0.0000 0.0000 24.1800 0.0000 59.4678
#
#
#
# Elastic Compliance Matrix: (Units=1/GPa)
#
#
# Indices 1 2 3 4 5 6 
#
# 1 0.009486 -0.003596 -0.001464 0.000000 -0.002764 0.000000
# 2 -0.003596 0.014742 -0.006841 0.000000 -0.000898 0.000000
# 3 -0.001464 -0.006841 0.018569 0.000000 0.002649 0.000000
# 4 0.000000 0.000000 0.000000 0.079909 0.000000 -0.032491
# 5 -0.002764 -0.000898 0.002649 0.000000 0.045082 0.000000
# 6 0.000000 0.000000 0.000000 -0.032491 0.000000 0.030027
#
#
# Mechanical properties :
#
#
# Convention : Reuss Voigt Hill
#
# Bulk Modulus (GPa) = 52.64592 56.43472 54.54032
# Shear Modulus (GPa) = 21.93469 33.43421 27.68445
#
# Velocity S-wave (km/s) = 3.31297 4.09023 3.72194
# Velocity P-wave (km/s) = 6.40137 7.10955 6.76473
#
# Compressibility (1/GPa) = 0.01899482
#
# Stress axis : x y z
#
# Youngs Moduli (GPa) = 105.41912 67.83237 53.85272
#
# Poissons Ratio (x) = 0.24396 0.07883
# Poissons Ratio (y) = 0.37913 0.36840
# Poissons Ratio (z) = 0.15432 0.46404
#
# Static dielectric constant tensor:
#      x y z
#    x 1.784710 0.000000 -0.005150 
#    y 0.000000 1.722580 0.000000 
#    z -0.005150 0.000000 1.726020 
# 
# From -- ./inp_files/35028.got.cif
#   From: 2010.05.17/outbox.cif.g08.bks.cpg/sg15_18_cif.got.tgz:35028.got - 2010.06.03 18:47:42.
