data_PCOD9282928
_publ_section_title
;
Structure prediction by ZEFSAII (Michael W. Deem and Ramdas Pophale) SiO2 
 PCOD9282928
Probable space group: C 2/C
;
_chemical_formula_sum "Si O2"
_cell_formula_units_Z 60
_cell_length_a 13.516383
_cell_length_b 11.760691
_cell_length_c 17.166565
_cell_angle_alpha 90.000000
_cell_angle_beta 87.098665
_cell_angle_gamma 90.000000
_cell_volume 2725.333696
_symmetry_space_group_name_H-M "C 2/C"
_symmetry_group_IT_number 15
_symmetry_cell_setting 'monoclinic'
loop_
_space_group_symop_operation_xyz
x,y,z
-x,y,1/2-z
-x,-y,-z
x,-y,1/2+z
1/2+x,1/2+y,z
1/2-x,1/2+y,1/2-z
1/2-x,1/2-y,-z
1/2+x,1/2-y,1/2+z
loop_
_atom_site_type_symbol
_atom_site_label
_atom_site_fract_x
_atom_site_fract_y
_atom_site_fract_z
Si Si1 0.381989 0.012126 0.015129
Si Si2 0.878923 0.521331 0.338178
Si Si3 0.631490 0.364391 0.343019
Si Si4 0.643320 0.774557 0.160480
Si Si5 0.000000 0.301899 0.750000
Si Si6 0.564782 0.742621 0.995204
Si Si7 0.674931 0.388811 0.798637
Si Si8 0.160279 0.721218 0.945696
O O1 0.342919 0.984950 0.929515
O O2 0.374578 0.144207 0.035571
O O3 0.500000 0.000000 0.000000
O O4 0.339443 0.914656 0.072026
O O5 0.915027 0.392905 0.320676
O O6 0.962729 0.614439 0.319865
O O7 0.788677 0.567003 0.289427
O O8 0.745227 0.324393 0.345619
O O9 0.581581 0.280015 0.283484
O O10 0.584577 0.350780 0.430100
O O11 0.619228 0.493857 0.317051
O O12 0.607528 0.725291 0.079777
O O13 0.638191 0.679106 0.225583
O O14 0.446907 0.760251 0.009640
O O15 0.667883 0.300692 0.870443
O O16 0.250000 0.750000 0.000000
#
# Coordination Sequence:
#
# PCOD9282928 Si02
#       8
#     8   8   8   8   4   8   8   8
#     4   9  18  37  62  97 126 163 218 278 319 388
#     4  10  21  39  65  96 133 170 228 284 326 401
#     4  11  25  43  69  98 141 177 221 283 335 413
#     4  10  23  45  67  96 136 179 226 282 336 399
#     4  12  22  40  70 100 128 180 224 278 350 394
#     4  10  23  42  69  97 130 179 232 270 337 400
#     4  11  24  44  64  99 143 176 220 278 346 405
#     4  11  22  39  68  99 136 172 219 286 338 396
#
# _framework density 22.015651999999999
#
# number of rings (size 3 to 8) (size 9 to 14) (size 15 to 20)
#    0.000    1.600    2.667    2.000    0.000    6.400 
#    0.000    1.333    0.000    0.000    0.000    0.000 
#    0.000    0.000    0.000    0.000    0.000    0.000 
#
# Total GULP energy -167597.816337 kJ/mol
# GULP energy per Si atom -5586.593878 kJ/mol
# Density = 2.196554 g / cm^3
# Si number density = 22.015652 Si / 1000 Ang^3
#
#
#
# Elastic Constant Matrix: (Units=GPa)
#
#
# Indices 1 2 3 4 5 6 
#
# 1 59.3672 12.1937 25.4006 0.0000 19.1628 0.0000
# 2 12.1937 131.9867 74.4165 0.0000 11.3719 0.0000
# 3 25.4006 74.4165 88.6609 0.0000 13.1476 0.0000
# 4 0.0000 0.0000 0.0000 42.9639 0.0000 -1.5772
# 5 19.1628 11.3719 13.1476 0.0000 25.5879 0.0000
# 6 0.0000 0.0000 0.0000 -1.5772 0.0000 27.0646
#
#
#
# Elastic Compliance Matrix: (Units=1/GPa)
#
#
# Indices 1 2 3 4 5 6 
#
# 1 0.024506 0.003294 -0.007412 0.000000 -0.016008 0.000000
# 2 0.003294 0.014827 -0.013039 0.000000 -0.002357 0.000000
# 3 -0.007412 -0.013039 0.024533 0.000000 -0.001260 0.000000
# 4 0.000000 0.000000 0.000000 0.023325 0.000000 0.001359
# 5 -0.016008 -0.002357 -0.001260 0.000000 0.052765 0.000000
# 6 0.000000 0.000000 0.000000 0.001359 0.000000 0.037028
#
#
# Mechanical properties :
#
#
# Convention : Reuss Voigt Hill
#
# Bulk Modulus (GPa) = 33.83750 56.00406 44.92078
# Shear Modulus (GPa) = 22.60922 30.32354 26.46638
#
# Velocity S-wave (km/s) = 3.20810 3.71531 3.47098
# Velocity P-wave (km/s) = 5.39682 6.62557 6.04251
#
# Compressibility (1/GPa) = 0.02955301
#
# Stress axis : x y z
#
# Youngs Moduli (GPa) = 40.80607 67.44487 40.76064
#
# Poissons Ratio (x) = -0.22218 0.30211
# Poissons Ratio (y) = -0.13442 0.53148
# Poissons Ratio (z) = 0.30245 0.87942
#
# Static dielectric constant tensor:
#      x y z
#    x 1.834470 0.000000 0.004650 
#    y 0.000000 1.846270 0.000000 
#    z 0.004650 0.000000 1.802790 
# 
# From -- ./inp_files/203999.got.cif
#   From: 2010.05.17/outbox.cif.g08.bks.cpg/sg15_102_cif.got.tgz:203999.got - 2010.06.03 18:47:42.
