data_PCOD9282854
_publ_section_title
;
Structure prediction by ZEFSAII (Michael W. Deem and Ramdas Pophale) SiO2 
 PCOD9282854
Probable space group: C 2/C
;
_chemical_formula_sum "Si O2"
_cell_formula_units_Z 48
_cell_length_a 8.579278
_cell_length_b 17.621119
_cell_length_c 20.586094
_cell_angle_alpha 90.000000
_cell_angle_beta 51.930912
_cell_angle_gamma 90.000000
_cell_volume 2450.082282
_symmetry_space_group_name_H-M "C 2/C"
_symmetry_group_IT_number 15
_symmetry_cell_setting 'monoclinic'
loop_
_space_group_symop_operation_xyz
x,y,z
-x,y,1/2-z
-x,-y,-z
x,-y,1/2+z
1/2+x,1/2+y,z
1/2-x,1/2+y,1/2-z
1/2-x,1/2-y,-z
1/2+x,1/2-y,1/2+z
loop_
_atom_site_type_symbol
_atom_site_label
_atom_site_fract_x
_atom_site_fract_y
_atom_site_fract_z
Si Si1 0.504813 0.077264 0.039277
Si Si2 0.296510 0.163461 0.837467
Si Si3 0.556375 0.581546 0.515103
Si Si4 0.221798 0.815671 0.861737
Si Si5 0.340599 0.173781 0.189608
Si Si6 0.924902 0.309396 0.444830
O O1 0.726765 0.081104 0.009288
O O2 0.361850 0.101704 0.136054
O O3 0.452468 0.140397 0.000139
O O4 0.500000 0.000000 0.000000
O O5 0.500000 0.140855 0.750000
O O6 0.240175 0.249689 0.826604
O O7 0.361850 0.151875 0.895132
O O8 0.096853 0.113246 0.891306
O O9 0.500000 0.500000 0.500000
O O10 0.582253 0.637019 0.446139
O O11 0.437266 0.811646 0.839647
O O12 0.224909 0.844140 0.786331
O O13 0.130891 0.732693 0.880230
O O14 0.750000 0.250000 0.500000
#
# Coordination Sequence:
#
# PCOD9282854 Si02
#       6
#     8   8   8   8   8   8
#     4  11  24  42  66  94 134 176 222 273 340 406
#     4  12  23  39  66  97 126 166 217 271 323 397
#     4  11  24  44  64  90 135 180 218 269 342 403
#     4  10  21  39  65  91 126 165 216 271 328 386
#     4  10  21  40  63  97 124 163 216 275 325 389
#     4  12  21  37  67  93 127 167 217 266 326 393
#
# _framework density 19.591179
#
# number of rings (size 3 to 8) (size 9 to 14) (size 15 to 20)
#    0.000    1.000    5.000    2.000    0.000    2.667 
#    9.000    0.000    0.000    0.000    0.000    0.000 
#    0.000    0.000    0.000    0.000    0.000    0.000 
#
# Total GULP energy -133665.670755 kJ/mol
# GULP energy per Si atom -5569.402948 kJ/mol
# Density = 1.954659 g / cm^3
# Si number density = 19.591179 Si / 1000 Ang^3
#
#
#
# Elastic Constant Matrix: (Units=GPa)
#
#
# Indices 1 2 3 4 5 6 
#
# 1 78.5315 31.6030 32.1259 0.0002 19.5283 -0.0002
# 2 31.6030 60.7837 28.8553 0.0000 -3.6865 0.0000
# 3 32.1259 28.8553 130.9359 0.0002 1.0211 -0.0001
# 4 0.0002 0.0000 0.0002 9.6535 -0.0002 1.9398
# 5 19.5283 -3.6865 1.0211 -0.0002 27.6008 0.0002
# 6 -0.0002 0.0000 -0.0001 1.9398 0.0002 36.5480
#
#
#
# Elastic Compliance Matrix: (Units=1/GPa)
#
#
# Indices 1 2 3 4 5 6 
#
# 1 0.023047 -0.011661 -0.002946 -0.000001 -0.017754 0.000000
# 2 -0.011661 0.024463 -0.002621 0.000001 0.011614 0.000000
# 3 -0.002946 -0.002621 0.008927 0.000000 0.001404 0.000000
# 4 -0.000001 0.000001 0.000000 0.104706 0.000002 -0.005557
# 5 -0.017754 0.011614 0.001404 0.000002 0.050292 0.000000
# 6 0.000000 0.000000 0.000000 -0.005557 0.000000 0.027656
#
#
# Mechanical properties :
#
#
# Convention : Reuss Voigt Hill
#
# Bulk Modulus (GPa) = 45.49386 50.60218 48.04802
# Shear Modulus (GPa) = 17.80167 26.60492 22.20329
#
# Velocity S-wave (km/s) = 3.01766 3.68911 3.37015
# Velocity P-wave (km/s) = 5.95095 6.63560 6.30258
#
# Compressibility (1/GPa) = 0.02198099
#
# Stress axis : x y z
#
# Youngs Moduli (GPa) = 43.39051 40.87823 112.02184
#
# Poissons Ratio (x) = 0.47666 0.33006
# Poissons Ratio (y) = 0.50596 0.29357
# Poissons Ratio (z) = 0.12785 0.10713
#
# Static dielectric constant tensor:
#      x y z
#    x 1.669720 0.000000 -0.014130 
#    y 0.000000 1.732280 0.000000 
#    z -0.014130 0.000000 1.824140 
# 
# From -- ./inp_files/232515.got.cif
#   From: 2010.05.17/outbox.cif.g08.bks.cpg/sg15_117_cif.got.tgz:232515.got - 2010.06.03 18:47:42.
