data_PCOD9282066
_publ_section_title
;
Structure prediction by ZEFSAII (Michael W. Deem and Ramdas Pophale) SiO2 
 PCOD9282066
Probable space group: C 2/C
;
_chemical_formula_sum "Si O2"
_cell_formula_units_Z 40
_cell_length_a 12.034125
_cell_length_b 17.847754
_cell_length_c 8.994738
_cell_angle_alpha 90.000000
_cell_angle_beta 62.435038
_cell_angle_gamma 90.000000
_cell_volume 1712.611466
_symmetry_space_group_name_H-M "C 2/C"
_symmetry_group_IT_number 15
_symmetry_cell_setting 'monoclinic'
loop_
_space_group_symop_operation_xyz
x,y,z
-x,y,1/2-z
-x,-y,-z
x,-y,1/2+z
1/2+x,1/2+y,z
1/2-x,1/2+y,1/2-z
1/2-x,1/2-y,-z
1/2+x,1/2-y,1/2+z
loop_
_atom_site_type_symbol
_atom_site_label
_atom_site_fract_x
_atom_site_fract_y
_atom_site_fract_z
Si Si1 0.399220 0.746251 0.004357
Si Si2 0.335660 0.692392 0.722396
Si Si3 0.464321 0.910568 0.929986
Si Si4 0.208139 0.543324 0.364096
Si Si5 0.638164 0.531565 0.944760
O O1 0.364137 0.695858 0.882886
O O2 0.543859 0.724199 0.942908
O O3 0.405417 0.830736 0.938551
O O4 0.293068 0.757057 0.198444
O O5 0.332479 0.606799 0.667591
O O6 0.500000 0.945672 0.750000
O O7 0.594218 0.898754 0.938891
O O8 0.370796 0.966816 0.065811
O O9 0.317545 0.549441 0.416440
O O10 0.273402 0.536070 0.165614
O O11 0.500000 0.500000 0.000000
#
# Coordination Sequence:
#
# PCOD9282066 Si02
#       5
#     8   8   8   8   8
#     4  10  21  38  69  94 136 182 237 289 333 432
#     4  10  22  38  63 103 129 180 241 283 342 414
#     4  11  20  41  70 100 129 181 242 294 346 410
#     4  11  25  41  68 102 141 181 235 293 353 420
#     4  12  26  42  66 103 148 185 226 294 360 427
#
# _framework density 23.356145999999999
#
# number of rings (size 3 to 8) (size 9 to 14) (size 15 to 20)
#    0.000    1.200    6.000    0.600    5.600    1.600 
#    0.000    1.000    0.000    0.000    0.000    0.000 
#    0.000    0.000    0.000    0.000    0.000    0.000 
#
# Total GULP energy -111428.720207 kJ/mol
# GULP energy per Si atom -5571.436010 kJ/mol
# Density = 2.330299 g / cm^3
# Si number density = 23.356146 Si / 1000 Ang^3
#
#
#
# Elastic Constant Matrix: (Units=GPa)
#
#
# Indices 1 2 3 4 5 6 
#
# 1 141.7421 20.3449 41.0595 0.0000 -37.3937 0.0000
# 2 20.3449 57.5842 4.5457 0.0000 -3.2591 0.0000
# 3 41.0595 4.5457 46.9561 0.0000 -25.6127 0.0000
# 4 0.0000 0.0000 0.0000 32.0699 0.0000 -9.5029
# 5 -37.3937 -3.2591 -25.6127 0.0000 54.5739 0.0000
# 6 0.0000 0.0000 0.0000 -9.5029 0.0000 31.5922
#
#
#
# Elastic Compliance Matrix: (Units=1/GPa)
#
#
# Indices 1 2 3 4 5 6 
#
# 1 0.010441 -0.002939 -0.006773 0.000000 0.003800 0.000000
# 2 -0.002939 0.018332 0.000395 0.000000 -0.000734 0.000000
# 3 -0.006773 0.000395 0.033148 0.000000 0.010940 0.000000
# 4 0.000000 0.000000 0.000000 0.034233 0.000000 0.010297
# 5 0.003800 -0.000734 0.010940 0.000000 0.026018 0.000000
# 6 0.000000 0.000000 0.000000 0.010297 0.000000 0.034751
#
#
# Mechanical properties :
#
#
# Convention : Reuss Voigt Hill
#
# Bulk Modulus (GPa) = 23.10143 42.02029 32.56086
# Shear Modulus (GPa) = 26.31775 35.66934 30.99354
#
# Velocity S-wave (km/s) = 3.36043 3.91217 3.64675
# Velocity P-wave (km/s) = 4.99690 6.19975 5.63054
#
# Compressibility (1/GPa) = 0.04328737
#
# Stress axis : x y z
#
# Youngs Moduli (GPa) = 95.77203 54.55059 30.16789
#
# Poissons Ratio (x) = 0.16034 0.20432
# Poissons Ratio (y) = 0.28150 -0.01193
# Poissons Ratio (z) = 0.64865 -0.02157
#
# Static dielectric constant tensor:
#      x y z
#    x 2.009750 0.000000 -0.057270 
#    y 0.000000 1.877190 0.000000 
#    z -0.057270 0.000000 1.931280 
# 
# From -- ./inp_files/30153.got.cif
#   From: 2010.05.17/outbox.cif.g08.bks.cpg/sg15_16_cif.got.tgz:30153.got - 2010.06.03 18:47:42.
