data_PCOD9282037
_publ_section_title
;
Structure prediction by ZEFSAII (Michael W. Deem and Ramdas Pophale) SiO2 
 PCOD9282037
Probable space group: C 2/C
;
_chemical_formula_sum "Si O2"
_cell_formula_units_Z 32
_cell_length_a 12.157151
_cell_length_b 7.190572
_cell_length_c 29.606764
_cell_angle_alpha 90.000000
_cell_angle_beta 33.393311
_cell_angle_gamma 90.000000
_cell_volume 1424.463803
_symmetry_space_group_name_H-M "C 2/C"
_symmetry_group_IT_number 15
_symmetry_cell_setting 'monoclinic'
loop_
_space_group_symop_operation_xyz
x,y,z
-x,y,1/2-z
-x,-y,-z
x,-y,1/2+z
1/2+x,1/2+y,z
1/2-x,1/2+y,1/2-z
1/2-x,1/2-y,-z
1/2+x,1/2-y,1/2+z
loop_
_atom_site_type_symbol
_atom_site_label
_atom_site_fract_x
_atom_site_fract_y
_atom_site_fract_z
Si Si1 0.451331 0.803039 0.639553
Si Si2 0.611622 0.234895 0.993664
Si Si3 0.681301 0.038026 0.222410
Si Si4 0.055227 0.829543 0.542913
O O1 0.515917 0.876301 0.568264
O O2 0.651556 0.697095 0.588869
O O3 0.388617 0.928645 0.702645
O O4 0.268698 0.668233 0.691565
O O5 0.593628 0.454602 0.014415
O O6 0.502785 0.223774 0.983391
O O7 0.500000 0.062514 0.250000
O O8 0.865234 0.164214 0.141692
O O9 0.250000 0.750000 0.500000
#
# Coordination Sequence:
#
# PCOD9282037 Si02
#       4
#     8   8   8   8
#     4  10  22  40  66  89 125 166 206 261 316 367
#     4   9  20  42  60  90 127 161 207 259 311 375
#     4  11  23  41  62  93 128 166 208 262 316 368
#     4  10  21  38  68  91 122 170 208 253 317 374
#
# _framework density 22.464590999999999
#
# number of rings (size 3 to 8) (size 9 to 14) (size 15 to 20)
#    0.000    2.000    2.500    0.000    3.500    0.000 
#    0.000   20.000    0.000    0.000    0.000    0.000 
#    0.000    0.000    0.000    0.000    0.000    0.000 
#
# Total GULP energy -89407.299552 kJ/mol
# GULP energy per Si atom -5587.956222 kJ/mol
# Density = 2.241346 g / cm^3
# Si number density = 22.464591 Si / 1000 Ang^3
#
#
#
# Elastic Constant Matrix: (Units=GPa)
#
#
# Indices 1 2 3 4 5 6 
#
# 1 170.4531 41.6465 43.3790 0.0003 -6.3797 0.0006
# 2 41.6465 40.2921 31.8351 0.0008 3.2916 0.0015
# 3 43.3790 31.8351 115.6269 0.0006 -8.7716 0.0003
# 4 0.0003 0.0008 0.0006 26.9445 0.0002 -4.0497
# 5 -6.3797 3.2916 -8.7716 0.0002 43.0723 0.0004
# 6 0.0006 0.0015 0.0003 -4.0497 0.0004 36.8163
#
#
#
# Elastic Compliance Matrix: (Units=1/GPa)
#
#
# Indices 1 2 3 4 5 6 
#
# 1 0.008035 -0.007867 -0.000723 0.000000 0.001644 0.000000
# 2 -0.007867 0.040214 -0.008575 -0.000001 -0.005985 -0.000001
# 3 -0.000723 -0.008575 0.011500 0.000000 0.002890 0.000000
# 4 0.000000 -0.000001 0.000000 0.037737 0.000000 0.004151
# 5 0.001644 -0.005985 0.002890 0.000000 0.024506 0.000000
# 6 0.000000 -0.000001 0.000000 0.004151 0.000000 0.027618
#
#
# Mechanical properties :
#
#
# Convention : Reuss Voigt Hill
#
# Bulk Modulus (GPa) = 39.34196 62.23260 50.78728
# Shear Modulus (GPa) = 25.98562 35.33406 30.65984
#
# Velocity S-wave (km/s) = 3.40477 3.97026 3.69834
# Velocity P-wave (km/s) = 5.74522 6.98426 6.39482
#
# Compressibility (1/GPa) = 0.02541815
#
# Stress axis : x y z
#
# Youngs Moduli (GPa) = 124.46199 24.86677 86.95679
#
# Poissons Ratio (x) = 0.19564 0.06291
# Poissons Ratio (y) = 0.97919 0.74561
# Poissons Ratio (z) = 0.09005 0.21322
#
# Static dielectric constant tensor:
#      x y z
#    x 1.783810 0.000000 0.022860 
#    y 0.000000 1.940630 0.000000 
#    z 0.022860 0.000000 1.837270 
# 
# From -- ./inp_files/140558.got.cif
#   From: 2010.05.17/outbox.cif.g08.bks.cpg/sg15_71_cif.got.tgz:140558.got - 2010.06.03 18:47:42.
