data_PCOD9282817
_publ_section_title
;
Structure prediction by ZEFSAII (Michael W. Deem and Ramdas Pophale) SiO2 
 PCOD9282817
Probable space group: C 2/C
;
_chemical_formula_sum "Si O2"
_cell_formula_units_Z 56
_cell_length_a 13.247211
_cell_length_b 18.099057
_cell_length_c 12.426325
_cell_angle_alpha 90.000000
_cell_angle_beta 65.831720
_cell_angle_gamma 90.000000
_cell_volume 2718.210705
_symmetry_space_group_name_H-M "C 2/C"
_symmetry_group_IT_number 15
_symmetry_cell_setting 'monoclinic'
loop_
_space_group_symop_operation_xyz
x,y,z
-x,y,1/2-z
-x,-y,-z
x,-y,1/2+z
1/2+x,1/2+y,z
1/2-x,1/2+y,1/2-z
1/2-x,1/2-y,-z
1/2+x,1/2-y,1/2+z
loop_
_atom_site_type_symbol
_atom_site_label
_atom_site_fract_x
_atom_site_fract_y
_atom_site_fract_z
Si Si1 0.277127 0.213820 0.722227
Si Si2 0.142489 0.781742 0.605657
Si Si3 0.466068 0.279522 0.068230
Si Si4 0.272671 0.578649 0.311904
Si Si5 0.480296 0.883351 0.632880
Si Si6 0.688433 0.074033 0.937271
Si Si7 0.671412 0.360709 0.931286
O O1 0.359556 0.234830 0.784004
O O2 0.152375 0.208385 0.823816
O O3 0.306525 0.137375 0.654542
O O4 0.284942 0.282074 0.635065
O O5 0.250000 0.750000 0.500000
O O6 0.051347 0.775500 0.553435
O O7 0.166546 0.865475 0.632895
O O8 0.510137 0.201688 0.093235
O O9 0.556681 0.342961 0.041369
O O10 0.251910 0.498055 0.368128
O O11 0.335109 0.586539 0.170474
O O12 0.148009 0.608228 0.342617
O O13 0.500000 0.897688 0.750000
O O14 0.561098 0.934767 0.528211
O O15 0.746367 0.104985 0.018962
#
# Coordination Sequence:
#
# PCOD9282817 Si02
#       7
#     8   8   8   8   8   8   8
#     4  10  21  39  64  99 128 167 220 263 316 382
#     4   9  19  41  64  90 132 169 213 264 309 380
#     4  11  22  39  70 100 125 167 228 263 316 378
#     4  11  24  44  63  95 135 170 207 269 332 381
#     4  12  22  42  70  97 132 163 210 282 329 385
#     4  12  25  41  66  97 131 169 217 263 335 392
#     4  11  23  42  66  92 132 175 209 272 319 379
#
# _framework density 20.601787999999999
#
# number of rings (size 3 to 8) (size 9 to 14) (size 15 to 20)
#    0.000    1.143    7.143    0.857    2.000    4.571 
#    0.000    4.286    0.000    0.000    0.000    0.000 
#    0.000    0.000    0.000    0.000    0.000    0.000 
#
# Total GULP energy -156408.687479 kJ/mol
# GULP energy per Si atom -5586.024553 kJ/mol
# Density = 2.055490 g / cm^3
# Si number density = 20.601788 Si / 1000 Ang^3
#
#
#
# Elastic Constant Matrix: (Units=GPa)
#
#
# Indices 1 2 3 4 5 6 
#
# 1 29.9843 -0.6393 17.2939 0.0000 -10.7850 0.0000
# 2 -0.6393 93.9103 52.8861 0.0000 20.6791 0.0000
# 3 17.2939 52.8861 100.9461 0.0000 -3.7077 0.0000
# 4 0.0000 0.0000 0.0000 3.2106 0.0000 -0.0861
# 5 -10.7850 20.6791 -3.7077 0.0000 32.9439 0.0000
# 6 0.0000 0.0000 0.0000 -0.0861 0.0000 18.0924
#
#
#
# Elastic Compliance Matrix: (Units=1/GPa)
#
#
# Indices 1 2 3 4 5 6 
#
# 1 0.042128 0.002249 -0.007974 0.000000 0.011483 0.000000
# 2 0.002249 0.019881 -0.011279 0.000000 -0.013013 0.000000
# 3 -0.007974 -0.011279 0.017417 0.000000 0.006430 0.000000
# 4 0.000000 0.000000 0.000000 0.311505 0.000000 0.001482
# 5 0.011483 -0.013013 0.006430 0.000000 0.043005 0.000000
# 6 0.000000 0.000000 0.000000 0.001482 0.000000 0.055279
#
#
# Mechanical properties :
#
#
# Convention : Reuss Voigt Hill
#
# Bulk Modulus (GPa) = 22.01743 40.43581 31.22662
# Shear Modulus (GPa) = 9.28742 21.20272 15.24507
#
# Velocity S-wave (km/s) = 2.12552 3.21155 2.72322
# Velocity P-wave (km/s) = 4.09074 5.78117 5.00780
#
# Compressibility (1/GPa) = 0.04541857
#
# Stress axis : x y z
#
# Youngs Moduli (GPa) = 23.73731 50.29954 57.41355
#
# Poissons Ratio (x) = -0.11311 0.45779
# Poissons Ratio (y) = -0.05338 0.64756
# Poissons Ratio (z) = 0.18927 0.56732
#
# Static dielectric constant tensor:
#      x y z
#    x 2.296600 0.000000 -0.099870 
#    y 0.000000 1.706050 0.000000 
#    z -0.099870 0.000000 1.764660 
# 
# From -- ./inp_files/98652.got.cif
#   From: 2010.05.17/outbox.cif.g08.bks.cpg/sg15_50_cif.got.tgz:98652.got - 2010.06.03 18:47:42.
