data_PCOD9282469
_publ_section_title
;
Structure prediction by ZEFSAII (Michael W. Deem and Ramdas Pophale) SiO2 
 PCOD9282469
Probable space group: C 2/C
;
_chemical_formula_sum "Si O2"
_cell_formula_units_Z 40
_cell_length_a 31.464036
_cell_length_b 7.317039
_cell_length_c 23.305260
_cell_angle_alpha 90.000000
_cell_angle_beta 16.676801
_cell_angle_gamma 90.000000
_cell_volume 1539.729032
_symmetry_space_group_name_H-M "C 2/C"
_symmetry_group_IT_number 15
_symmetry_cell_setting 'monoclinic'
loop_
_space_group_symop_operation_xyz
x,y,z
-x,y,1/2-z
-x,-y,-z
x,-y,1/2+z
1/2+x,1/2+y,z
1/2-x,1/2+y,1/2-z
1/2-x,1/2-y,-z
1/2+x,1/2-y,1/2+z
loop_
_atom_site_type_symbol
_atom_site_label
_atom_site_fract_x
_atom_site_fract_y
_atom_site_fract_z
Si Si1 0.838716 0.622617 0.481808
Si Si2 0.868086 0.259223 0.162065
Si Si3 0.439890 0.618549 0.180938
Si Si4 0.375116 0.523355 0.455734
Si Si5 0.397005 0.028971 0.027247
O O1 0.715560 0.486911 0.616853
O O2 0.813252 0.838731 0.506900
O O3 0.852611 0.594103 0.531476
O O4 0.000000 0.579559 0.250000
O O5 0.974492 0.149412 0.068056
O O6 0.757620 0.348308 0.352448
O O7 0.754489 0.145396 0.269281
O O8 0.936521 0.409311 0.031424
O O9 0.539892 0.496118 0.093659
O O10 0.478400 0.823926 0.152771
O O11 0.500000 0.596952 0.250000
#
# Coordination Sequence:
#
# PCOD9282469 Si02
#       5
#     8   8   8   8   8
#     4  10  23  41  62  91 127 165 210 259 306 369
#     4  10  21  39  62  91 127 163 209 258 305 369
#     4  10  23  40  63  93 123 169 209 251 320 366
#     4  10  23  41  62  91 127 165 210 259 306 369
#     4  10  21  39  62  91 127 163 209 258 305 369
#
# _framework density 25.978597000000001
#
# number of rings (size 3 to 8) (size 9 to 14) (size 15 to 20)
#    0.000    2.000    0.000    1.800    0.000   15.200 
#    0.000   34.000    0.000    0.000    0.000    0.000 
#    0.000    0.000    0.000    0.000    0.000    0.000 
#
# Total GULP energy -111685.567120 kJ/mol
# GULP energy per Si atom -5584.278356 kJ/mol
# Density = 2.591947 g / cm^3
# Si number density = 25.978597 Si / 1000 Ang^3
#
#
#
# Elastic Constant Matrix: (Units=GPa)
#
#
# Indices 1 2 3 4 5 6 
#
# 1 83.3821 1.2816 35.0942 -0.0024 -19.6190 -0.0003
# 2 1.2816 57.5161 47.3841 -0.0118 7.8638 -0.0021
# 3 35.0942 47.3841 88.2898 -0.0091 19.7636 0.0011
# 4 -0.0024 -0.0118 -0.0091 34.8157 -0.0015 13.0558
# 5 -19.6190 7.8638 19.7636 -0.0015 36.8077 -0.0008
# 6 -0.0003 -0.0021 0.0011 13.0558 -0.0008 12.8483
#
#
#
# Elastic Compliance Matrix: (Units=1/GPa)
#
#
# Indices 1 2 3 4 5 6 
#
# 1 0.029661 0.018512 -0.027709 -0.000001 0.026733 0.000009
# 2 0.018512 0.042948 -0.034738 0.000005 0.019344 0.000006
# 3 -0.027709 -0.034738 0.048452 0.000003 -0.033364 -0.000016
# 4 -0.000001 0.000005 0.000003 0.046406 -0.000003 -0.047156
# 5 0.026733 0.019344 -0.033364 -0.000003 0.055199 0.000013
# 6 0.000009 0.000006 -0.000016 -0.047156 0.000013 0.125749
#
#
# Mechanical properties :
#
#
# Convention : Reuss Voigt Hill
#
# Bulk Modulus (GPa) = 30.12903 44.07866 37.10384
# Shear Modulus (GPa) = 11.17700 26.58955 18.88327
#
# Velocity S-wave (km/s) = 2.07647 3.20272 2.69899
# Velocity P-wave (km/s) = 4.16795 5.53901 4.90165
#
# Compressibility (1/GPa) = 0.03319058
#
# Stress axis : x y z
#
# Youngs Moduli (GPa) = 33.71476 23.28413 20.63891
#
# Poissons Ratio (x) = -0.43103 0.57188
# Poissons Ratio (y) = -0.62412 0.71695
# Poissons Ratio (z) = 0.93420 0.80884
#
# Static dielectric constant tensor:
#      x y z
#    x 2.057490 0.000000 -0.019770 
#    y 0.000000 2.119690 0.000000 
#    z -0.019770 0.000000 2.061210 
# 
# From -- ./inp_files/258909.got.cif
#   From: 2010.05.17/outbox.cif.g08.bks.cpg/sg15_130_cif.got.tgz:258909.got - 2010.06.03 18:47:42.
