data_PCOD9282947
_publ_section_title
;
Structure prediction by ZEFSAII (Michael W. Deem and Ramdas Pophale) SiO2 
 PCOD9282947
Probable space group: C 2/C
;
_chemical_formula_sum "Si O2"
_cell_formula_units_Z 60
_cell_length_a 11.595470
_cell_length_b 28.442543
_cell_length_c 16.838442
_cell_angle_alpha 90.000000
_cell_angle_beta 33.806624
_cell_angle_gamma 90.000000
_cell_volume 3089.863643
_symmetry_space_group_name_H-M "C 2/C"
_symmetry_group_IT_number 15
_symmetry_cell_setting 'monoclinic'
loop_
_space_group_symop_operation_xyz
x,y,z
-x,y,1/2-z
-x,-y,-z
x,-y,1/2+z
1/2+x,1/2+y,z
1/2-x,1/2+y,1/2-z
1/2-x,1/2-y,-z
1/2+x,1/2-y,1/2+z
loop_
_atom_site_type_symbol
_atom_site_label
_atom_site_fract_x
_atom_site_fract_y
_atom_site_fract_z
Si Si1 0.231600 0.547620 0.310899
Si Si2 0.817674 0.801653 0.288092
Si Si3 0.102466 0.523892 0.558532
Si Si4 0.347639 0.127690 0.271341
Si Si5 0.500000 0.098944 0.750000
Si Si6 0.463381 0.517071 0.931632
Si Si7 0.452928 0.778982 0.916699
Si Si8 0.404085 0.378320 0.109139
O O1 0.181955 0.547678 0.431764
O O2 0.189202 0.593738 0.283131
O O3 0.457062 0.526651 0.166942
O O4 0.101421 0.504301 0.349359
O O5 0.611045 0.793818 0.457908
O O6 0.841115 0.846683 0.219758
O O7 0.000000 0.804200 0.250000
O O8 0.864088 0.757813 0.203842
O O9 0.062346 0.564994 0.642725
O O10 0.233044 0.483419 0.529223
O O11 0.500000 0.105354 0.250000
O O12 0.472861 0.174470 0.172400
O O13 0.122220 0.136066 0.441806
O O14 0.289481 0.124070 0.841056
O O15 0.557523 0.569064 0.878713
O O16 0.500000 0.500000 0.000000
O O17 0.250000 0.750000 0.000000
#
# Coordination Sequence:
#
# PCOD9282947 Si02
#       8
#     8   8   8   8   4   8   8   8
#     4  11  24  36  59  92 127 171 225 275 332 389
#     4  10  21  39  65  99 132 167 213 279 345 416
#     4  11  23  39  58  85 127 174 224 279 325 394
#     4  12  23  38  66 101 134 171 219 274 349 416
#     4  12  24  44  64  82 142 182 232 266 340 396
#     4  12  21  40  60  87 129 182 229 277 327 382
#     4  10  21  40  66  97 141 167 205 276 359 410
#     4  12  25  39  68  97 131 185 230 270 340 403
#
# _framework density 19.418333000000001
#
# number of rings (size 3 to 8) (size 9 to 14) (size 15 to 20)
#    0.000    0.800    4.000    4.800    2.800    1.067 
#    0.000    0.000    0.000    3.200    0.000    0.000 
#    0.000    0.000    0.000    0.000    0.000    0.000 
#
# Total GULP energy -167217.804315 kJ/mol
# GULP energy per Si atom -5573.926810 kJ/mol
# Density = 1.937414 g / cm^3
# Si number density = 19.418333 Si / 1000 Ang^3
#
#
#
# Elastic Constant Matrix: (Units=GPa)
#
#
# Indices 1 2 3 4 5 6 
#
# 1 82.6479 33.1050 43.2828 0.0000 3.6971 0.0000
# 2 33.1050 113.8009 54.9067 0.0000 24.9215 0.0000
# 3 43.2828 54.9067 108.4495 0.0001 16.6860 0.0000
# 4 0.0000 0.0000 0.0001 30.8517 -0.0001 6.3641
# 5 3.6971 24.9215 16.6860 -0.0001 36.2784 0.0000
# 6 0.0000 0.0000 0.0000 6.3641 0.0000 23.6622
#
#
#
# Elastic Compliance Matrix: (Units=1/GPa)
#
#
# Indices 1 2 3 4 5 6 
#
# 1 0.015857 -0.002571 -0.005435 0.000000 0.002650 0.000000
# 2 -0.002571 0.013245 -0.004649 0.000000 -0.006698 0.000000
# 3 -0.005435 -0.004649 0.014170 0.000000 -0.002770 0.000000
# 4 0.000000 0.000000 0.000000 0.034317 0.000000 -0.009230
# 5 0.002650 -0.006698 -0.002770 0.000000 0.033170 0.000000
# 6 0.000000 0.000000 0.000000 -0.009230 0.000000 0.044744
#
#
# Mechanical properties :
#
#
# Convention : Reuss Voigt Hill
#
# Bulk Modulus (GPa) = 55.67189 63.05415 59.36302
# Shear Modulus (GPa) = 26.76658 29.73204 28.24931
#
# Velocity S-wave (km/s) = 3.71673 3.91721 3.81829
# Velocity P-wave (km/s) = 6.86664 7.28020 7.07645
#
# Compressibility (1/GPa) = 0.01796239
#
# Stress axis : x y z
#
# Youngs Moduli (GPa) = 63.06390 75.49889 70.57234
#
# Poissons Ratio (x) = 0.19411 0.38353
# Poissons Ratio (y) = 0.16214 0.32810
# Poissons Ratio (z) = 0.34273 0.35101
#
# Static dielectric constant tensor:
#      x y z
#    x 1.651160 0.000000 -0.025250 
#    y 0.000000 1.699450 0.000000 
#    z -0.025250 0.000000 1.753280 
# 
# From -- ./inp_files/201393.got.cif
#   From: 2010.05.17/outbox.cif.g08.bks.cpg/sg15_101_cif.got.tgz:201393.got - 2010.06.03 18:47:42.
