data_PCOD9282451
_publ_section_title
;
Structure prediction by ZEFSAII (Michael W. Deem and Ramdas Pophale) SiO2 
 PCOD9282451
Probable space group: C 2/C
;
_chemical_formula_sum "Si O2"
_cell_formula_units_Z 56
_cell_length_a 12.219421
_cell_length_b 9.441471
_cell_length_c 27.939839
_cell_angle_alpha 90.000000
_cell_angle_beta 128.396103
_cell_angle_gamma 90.000000
_cell_volume 2526.293602
_symmetry_space_group_name_H-M "C 2/C"
_symmetry_group_IT_number 15
_symmetry_cell_setting 'monoclinic'
loop_
_space_group_symop_operation_xyz
x,y,z
-x,y,1/2-z
-x,-y,-z
x,-y,1/2+z
1/2+x,1/2+y,z
1/2-x,1/2+y,1/2-z
1/2-x,1/2-y,-z
1/2+x,1/2-y,1/2+z
loop_
_atom_site_type_symbol
_atom_site_label
_atom_site_fract_x
_atom_site_fract_y
_atom_site_fract_z
Si Si1 0.780403 0.889727 0.565036
Si Si2 0.008923 0.567556 0.196514
Si Si3 0.180300 0.110951 0.252331
Si Si4 0.515198 0.614548 0.843501
Si Si5 0.472322 0.993138 0.048709
Si Si6 0.146817 0.741563 0.120171
Si Si7 0.022732 0.313328 0.139614
O O1 0.684444 0.934017 0.494447
O O2 0.698388 0.784618 0.579689
O O3 0.920251 0.805949 0.592207
O O4 0.841326 0.033812 0.605258
O O5 0.171027 0.559327 0.226110
O O6 0.963193 0.727537 0.171347
O O7 0.000000 0.541177 0.250000
O O8 0.945120 0.438097 0.148652
O O9 0.221177 0.177082 0.314539
O O10 0.127683 0.236017 0.203456
O O11 0.069975 0.984739 0.216819
O O12 0.412696 0.630528 0.863049
O O13 0.574965 0.890900 0.106165
O O14 0.507617 0.142702 0.081396
O O15 0.500000 0.000000 0.000000
#
# Coordination Sequence:
#
# PCOD9282451 Si02
#       7
#     8   8   8   8   8   8   8
#     4  10  24  38  67  85 123 166 218 250 310 381
#     4  11  23  34  58  93 128 157 198 258 320 377
#     4  10  22  38  62  85 129 157 205 255 321 378
#     4  10  22  39  59  92 121 167 206 256 314 379
#     4  10  21  41  64  88 119 171 207 251 312 367
#     4  10  21  39  62  90 124 162 203 263 315 368
#     4  11  22  40  61  92 119 163 204 261 313 367
#
# _framework density 22.16686
#
# number of rings (size 3 to 8) (size 9 to 14) (size 15 to 20)
#    0.000    1.714    2.857    2.143    6.000    2.857 
#    0.000    0.000    0.000    4.286    0.000    0.000 
#    0.000    0.000    0.000    0.000    0.000    0.000 
#
# Total GULP energy -155909.990905 kJ/mol
# GULP energy per Si atom -5568.213961 kJ/mol
# Density = 2.211641 g / cm^3
# Si number density = 22.166860 Si / 1000 Ang^3
#
#
#
# Elastic Constant Matrix: (Units=GPa)
#
#
# Indices 1 2 3 4 5 6 
#
# 1 22.5764 5.1645 0.3697 0.0000 -8.2643 0.0000
# 2 5.1645 104.1407 41.6076 0.0000 1.3950 0.0000
# 3 0.3697 41.6076 115.2674 0.0000 -2.5002 0.0000
# 4 0.0000 0.0000 0.0000 39.4484 0.0000 5.1275
# 5 -8.2643 1.3950 -2.5002 0.0000 28.9828 0.0000
# 6 0.0000 0.0000 0.0000 5.1275 0.0000 14.3485
#
#
#
# Elastic Compliance Matrix: (Units=1/GPa)
#
#
# Indices 1 2 3 4 5 6 
#
# 1 0.050364 -0.003220 0.001318 0.000000 0.014630 0.000000
# 2 -0.003220 0.011450 -0.004162 0.000000 -0.001828 0.000000
# 3 0.001318 -0.004162 0.010205 0.000000 0.001457 0.000000
# 4 0.000000 0.000000 0.000000 0.026584 0.000000 -0.009500
# 5 0.014630 -0.001828 0.001457 0.000000 0.038889 0.000000
# 6 0.000000 0.000000 0.000000 -0.009500 0.000000 0.073089
#
#
# Mechanical properties :
#
#
# Convention : Reuss Voigt Hill
#
# Bulk Modulus (GPa) = 16.69709 37.36314 27.03011
# Shear Modulus (GPa) = 20.60387 29.54544 25.07466
#
# Velocity S-wave (km/s) = 3.05206 3.65480 3.36695
# Velocity P-wave (km/s) = 4.46866 5.89085 5.22834
#
# Compressibility (1/GPa) = 0.05989068
#
# Stress axis : x y z
#
# Youngs Moduli (GPa) = 19.85526 87.33989 97.98867
#
# Poissons Ratio (x) = 0.28126 -0.12917
# Poissons Ratio (y) = 0.06394 0.40785
# Poissons Ratio (z) = -0.02617 0.36353
#
# Static dielectric constant tensor:
#      x y z
#    x 1.898300 0.000000 -0.001300 
#    y 0.000000 1.907470 0.000000 
#    z -0.001300 0.000000 1.837780 
# 
# From -- ./inp_files/272628.got.cif
#   From: 2010.05.17/outbox.cif.g08.bks.cpg/sg15_137_cif.got.tgz:272628.got - 2010.06.03 18:47:42.
