data_PCOD9282357
_publ_section_title
;
Structure prediction by ZEFSAII (Michael W. Deem and Ramdas Pophale) SiO2 
 PCOD9282357
Probable space group: C 2/C
;
_chemical_formula_sum "Si O2"
_cell_formula_units_Z 52
_cell_length_a 27.060356
_cell_length_b 5.694257
_cell_length_c 14.291170
_cell_angle_alpha 90.000000
_cell_angle_beta 85.396964
_cell_angle_gamma 90.000000
_cell_volume 2195.004072
_symmetry_space_group_name_H-M "C 2/C"
_symmetry_group_IT_number 15
_symmetry_cell_setting 'monoclinic'
loop_
_space_group_symop_operation_xyz
x,y,z
-x,y,1/2-z
-x,-y,-z
x,-y,1/2+z
1/2+x,1/2+y,z
1/2-x,1/2+y,1/2-z
1/2-x,1/2-y,-z
1/2+x,1/2-y,1/2+z
loop_
_atom_site_type_symbol
_atom_site_label
_atom_site_fract_x
_atom_site_fract_y
_atom_site_fract_z
Si Si1 0.115529 0.685712 0.512990
Si Si2 0.312116 0.449330 0.400218
Si Si3 0.206304 0.575097 0.941661
Si Si4 0.500000 0.657216 0.250000
Si Si5 0.093325 0.492239 0.204206
Si Si6 0.837807 0.854215 0.707248
Si Si7 0.066344 0.119249 0.857731
O O1 0.142513 0.904533 0.561183
O O2 0.158497 0.588177 0.439145
O O3 0.101191 0.492103 0.592352
O O4 0.069241 0.749416 0.455369
O O5 0.257645 0.562409 0.423602
O O6 0.301893 0.208168 0.458013
O O7 0.321409 0.457234 0.287733
O O8 0.202434 0.772161 0.861286
O O9 0.547956 0.810886 0.221690
O O10 0.484430 0.504183 0.162720
O O11 0.142620 0.371472 0.238063
O O12 0.078377 0.713879 0.267535
O O13 0.886803 0.942968 0.646033
#
# Coordination Sequence:
#
# PCOD9282357 Si02
#       7
#     8   8   8   4   8   8   8
#     4  11  22  39  67  90 123 169 203 250 314 363
#     4  10  23  39  58  92 130 165 213 256 296 354
#     4  11  21  40  61  91 129 164 213 259 297 359
#     4  10  24  42  64  92 124 152 200 258 310 382
#     4  10  22  42  63  91 122 156 206 251 308 381
#     4  10  21  39  61  90 124 170 206 251 308 358
#     4  11  21  41  66  88 125 160 201 256 314 369
#
# _framework density 23.690159999999999
#
# number of rings (size 3 to 8) (size 9 to 14) (size 15 to 20)
#    0.000    1.538    3.077    1.846    0.000    1.846 
#   11.077    3.077    0.000    0.000    0.000    0.000 
#    0.000    0.000    0.000    0.000    0.000    0.000 
#
# Total GULP energy -145210.085980 kJ/mol
# GULP energy per Si atom -5585.003307 kJ/mol
# Density = 2.363624 g / cm^3
# Si number density = 23.690160 Si / 1000 Ang^3
#
#
#
# Elastic Constant Matrix: (Units=GPa)
#
#
# Indices 1 2 3 4 5 6 
#
# 1 74.6507 9.2452 28.2466 0.0000 23.4331 0.0000
# 2 9.2452 26.4236 1.1701 0.0000 6.1549 0.0000
# 3 28.2466 1.1701 94.2319 0.0000 12.1060 0.0000
# 4 0.0000 0.0000 0.0000 16.3651 0.0000 1.9434
# 5 23.4331 6.1549 12.1060 0.0000 29.6685 0.0000
# 6 0.0000 0.0000 0.0000 1.9434 0.0000 17.1243
#
#
#
# Elastic Compliance Matrix: (Units=1/GPa)
#
#
# Indices 1 2 3 4 5 6 
#
# 1 0.019468 -0.003614 -0.004128 0.000000 -0.012942 0.000000
# 2 -0.003614 0.040469 0.001364 0.000000 -0.006098 0.000000
# 3 -0.004128 0.001364 0.012084 0.000000 -0.001953 0.000000
# 4 0.000000 0.000000 0.000000 0.061941 0.000000 -0.007029
# 5 -0.012942 -0.006098 -0.001953 0.000000 0.045990 0.000000
# 6 0.000000 0.000000 0.000000 -0.007029 0.000000 0.059194
#
#
# Mechanical properties :
#
#
# Convention : Reuss Voigt Hill
#
# Bulk Modulus (GPa) = 16.87334 30.29221 23.58277
# Shear Modulus (GPa) = 18.40561 23.07453 20.74007
#
# Velocity S-wave (km/s) = 2.79037 3.12430 2.96205
# Velocity P-wave (km/s) = 4.18563 5.08229 4.65560
#
# Compressibility (1/GPa) = 0.05926508
#
# Stress axis : x y z
#
# Youngs Moduli (GPa) = 51.36673 24.70997 82.75744
#
# Poissons Ratio (x) = 0.08930 0.34163
# Poissons Ratio (y) = 0.18564 -0.11290
# Poissons Ratio (z) = 0.21204 -0.03371
#
# Static dielectric constant tensor:
#      x y z
#    x 1.891060 0.000000 -0.000730 
#    y 0.000000 1.977380 0.000000 
#    z -0.000730 0.000000 1.917260 
# 
# From -- ./inp_files/180116.got.cif
#   From: 2010.05.17/outbox.cif.g08.bks.cpg/sg15_91_cif.got.tgz:180116.got - 2010.06.03 18:47:42.
