data_PCOD9282211
_publ_section_title
;
Structure prediction by ZEFSAII (Michael W. Deem and Ramdas Pophale) SiO2 
 PCOD9282211
Probable space group: C 2/C
;
_chemical_formula_sum "Si O2"
_cell_formula_units_Z 64
_cell_length_a 12.059137
_cell_length_b 23.165999
_cell_length_c 11.295001
_cell_angle_alpha 90.000000
_cell_angle_beta 83.326539
_cell_angle_gamma 90.000000
_cell_volume 3134.014465
_symmetry_space_group_name_H-M "C 2/C"
_symmetry_group_IT_number 15
_symmetry_cell_setting 'monoclinic'
loop_
_space_group_symop_operation_xyz
x,y,z
-x,y,1/2-z
-x,-y,-z
x,-y,1/2+z
1/2+x,1/2+y,z
1/2-x,1/2+y,1/2-z
1/2-x,1/2-y,-z
1/2+x,1/2-y,1/2+z
loop_
_atom_site_type_symbol
_atom_site_label
_atom_site_fract_x
_atom_site_fract_y
_atom_site_fract_z
Si Si1 0.832045 0.615616 0.986105
Si Si2 0.284872 0.563111 0.859985
Si Si3 0.852942 0.944166 0.848001
Si Si4 0.024601 0.538199 0.879726
Si Si5 0.952294 0.901985 0.509359
Si Si6 0.883438 0.175849 0.209520
Si Si7 0.637733 0.349292 0.329219
Si Si8 0.692703 0.229003 0.383335
O O1 0.741615 0.638472 0.903924
O O2 0.938847 0.591020 0.907095
O O3 0.760681 0.566276 0.062781
O O4 0.860465 0.667749 0.072573
O O5 0.338950 0.506487 0.791288
O O6 0.152875 0.557306 0.871036
O O7 0.322423 0.622897 0.797070
O O8 0.344989 0.562800 0.980121
O O9 0.857928 0.888018 0.765193
O O10 0.964807 0.936691 0.912672
O O11 0.000000 0.513079 0.750000
O O12 0.000000 0.500000 0.000000
O O13 0.910290 0.841687 0.572436
O O14 0.033667 0.884601 0.392366
O O15 0.785912 0.215620 0.271646
O O16 0.000000 0.196993 0.250000
O O17 0.618255 0.281020 0.343178
O O18 0.750000 0.250000 0.500000
#
# Coordination Sequence:
#
# PCOD9282211 Si02
#       8
#     8   8   8   8   8   8   8   8
#     4   9  18  39  62  88 121 163 218 269 312 383
#     4  12  23  38  62  90 131 171 210 265 328 394
#     4   9  19  35  61  91 125 160 209 258 323 387
#     4  12  25  44  66  98 137 175 223 273 324 401
#     4  10  22  37  58  89 129 164 210 260 335 389
#     4   9  18  35  59  92 122 156 212 269 316 392
#     4  10  21  39  59  90 123 163 213 272 324 379
#     4   9  18  37  64  88 117 163 216 268 329 376
#
# _framework density 20.421092999999999
#
# number of rings (size 3 to 8) (size 9 to 14) (size 15 to 20)
#    0.000    2.000    2.500    3.000    0.000    6.000 
#    6.750    0.625    2.750    0.000    0.000    0.000 
#    0.000    0.000    0.000    0.000    0.000    0.000 
#
# Total GULP energy -178268.910332 kJ/mol
# GULP energy per Si atom -5570.903448 kJ/mol
# Density = 2.037461 g / cm^3
# Si number density = 20.421093 Si / 1000 Ang^3
#
#
#
# Elastic Constant Matrix: (Units=GPa)
#
#
# Indices 1 2 3 4 5 6 
#
# 1 109.4518 20.5538 30.1442 0.0000 -4.6549 0.0000
# 2 20.5538 56.4254 11.4375 0.0000 8.4833 0.0000
# 3 30.1442 11.4375 66.8068 0.0000 -10.2627 0.0000
# 4 0.0000 0.0000 0.0000 26.9909 0.0000 -5.3541
# 5 -4.6549 8.4833 -10.2627 0.0000 19.1454 0.0000
# 6 0.0000 0.0000 0.0000 -5.3541 0.0000 12.5389
#
#
#
# Elastic Compliance Matrix: (Units=1/GPa)
#
#
# Indices 1 2 3 4 5 6 
#
# 1 0.010994 -0.003493 -0.004048 0.000000 0.002051 0.000000
# 2 -0.003493 0.021729 -0.004090 0.000000 -0.012670 0.000000
# 3 -0.004048 -0.004090 0.019204 0.000000 0.011122 0.000000
# 4 0.000000 0.000000 0.000000 0.040478 0.000000 0.017284
# 5 0.002051 -0.012670 0.011122 0.000000 0.064307 0.000000
# 6 0.000000 0.000000 0.000000 0.017284 0.000000 0.087132
#
#
# Mechanical properties :
#
#
# Convention : Reuss Voigt Hill
#
# Bulk Modulus (GPa) = 34.88550 39.66166 37.27358
# Shear Modulus (GPa) = 18.07272 23.10495 20.58883
#
# Velocity S-wave (km/s) = 2.97813 3.36732 3.17868
# Velocity P-wave (km/s) = 5.38013 5.88069 5.63597
#
# Compressibility (1/GPa) = 0.02866521
#
# Stress axis : x y z
#
# Youngs Moduli (GPa) = 90.95570 46.02197 52.07296
#
# Poissons Ratio (x) = 0.16074 0.21078
# Poissons Ratio (y) = 0.31768 0.21300
# Poissons Ratio (z) = 0.36817 0.18825
#
# Static dielectric constant tensor:
#      x y z
#    x 1.706780 0.000000 0.005850 
#    y 0.000000 1.769130 0.000000 
#    z 0.005850 0.000000 1.818830 
# 
# From -- ./inp_files/90783.got.cif
#   From: 2010.05.17/outbox.cif.g08.bks.cpg/sg15_46_cif.got.tgz:90783.got - 2010.06.03 18:47:42.
