data_PCOD9282787
_publ_section_title
;
Structure prediction by ZEFSAII (Michael W. Deem and Ramdas Pophale) SiO2 
 PCOD9282787
Probable space group: C 2/C
;
_chemical_formula_sum "Si O2"
_cell_formula_units_Z 64
_cell_length_a 9.680379
_cell_length_b 29.398318
_cell_length_c 14.368103
_cell_angle_alpha 90.000000
_cell_angle_beta 130.575893
_cell_angle_gamma 90.000000
_cell_volume 3105.759449
_symmetry_space_group_name_H-M "C 2/C"
_symmetry_group_IT_number 15
_symmetry_cell_setting 'monoclinic'
loop_
_space_group_symop_operation_xyz
x,y,z
-x,y,1/2-z
-x,-y,-z
x,-y,1/2+z
1/2+x,1/2+y,z
1/2-x,1/2+y,1/2-z
1/2-x,1/2-y,-z
1/2+x,1/2-y,1/2+z
loop_
_atom_site_type_symbol
_atom_site_label
_atom_site_fract_x
_atom_site_fract_y
_atom_site_fract_z
Si Si1 0.201606 0.742619 0.698491
Si Si2 0.416016 0.313169 0.623596
Si Si3 0.079149 0.602141 0.534955
Si Si4 0.006062 0.113149 0.010828
Si Si5 0.377092 0.346026 0.275499
Si Si6 0.957751 0.702702 0.441957
Si Si7 0.673186 0.047871 0.392647
Si Si8 0.646416 0.057970 0.897068
O O1 0.248859 0.693124 0.759942
O O2 0.368285 0.774589 0.810004
O O3 0.026775 0.766770 0.663693
O O4 0.127465 0.730998 0.560922
O O5 0.500000 0.338435 0.750000
O O6 0.483076 0.343643 0.567737
O O7 0.207446 0.301666 0.554426
O O8 0.252344 0.615935 0.673791
O O9 0.129817 0.569352 0.473536
O O10 0.015737 0.649983 0.460761
O O11 0.936864 0.578406 0.543658
O O12 0.007995 0.133026 0.908286
O O13 0.819754 0.086791 0.944772
O O14 0.169771 0.077450 0.088415
O O15 0.500000 0.323121 0.250000
O O16 0.500000 0.050533 0.250000
O O17 0.707581 0.994610 0.426506
O O18 0.500000 0.062295 0.750000
#
# Coordination Sequence:
#
# PCOD9282787 Si02
#       8
#     8   8   8   8   8   8   8   8
#     4  10  22  39  60  93 128 173 216 279 322 393
#     4  10  22  39  62  97 136 166 224 270 338 394
#     4  11  22  45  69  95 134 178 214 277 334 403
#     4  12  23  42  72  99 134 175 219 283 330 400
#     4  11  23  43  67  95 131 174 229 267 334 398
#     4  10  21  39  64  95 131 167 229 273 334 392
#     4  11  27  43  66  98 142 175 220 274 345 408
#     4  11  23  44  71 105 128 168 228 284 339 404
#
# _framework density 20.606877000000001
#
# number of rings (size 3 to 8) (size 9 to 14) (size 15 to 20)
#    0.000    1.250    3.750    1.875    3.500    2.000 
#    2.250    1.875    0.000    0.000    0.000    0.000 
#    0.000    0.000    0.000    0.000    0.000    0.000 
#
# Total GULP energy -178402.250475 kJ/mol
# GULP energy per Si atom -5575.070327 kJ/mol
# Density = 2.055997 g / cm^3
# Si number density = 20.606877 Si / 1000 Ang^3
#
#
#
# Elastic Constant Matrix: (Units=GPa)
#
#
# Indices 1 2 3 4 5 6 
#
# 1 69.1730 30.7678 9.9464 0.0000 -5.8909 0.0000
# 2 30.7678 89.3220 33.7965 0.0000 -10.2012 0.0000
# 3 9.9464 33.7965 73.6432 0.0000 -0.0047 0.0000
# 4 0.0000 0.0000 0.0000 46.6959 0.0000 -8.3650
# 5 -5.8909 -10.2012 -0.0047 0.0000 23.9967 0.0000
# 6 0.0000 0.0000 0.0000 -8.3650 0.0000 -5.2103
#
#
#
# Elastic Compliance Matrix: (Units=1/GPa)
#
#
# Indices 1 2 3 4 5 6 
#
# 1 0.017153 -0.005851 0.000369 0.000000 0.001724 0.000000
# 2 -0.005851 0.016389 -0.006731 0.000000 0.005529 0.000000
# 3 0.000369 -0.006731 0.016618 0.000000 -0.002768 0.000000
# 4 0.000000 0.000000 0.000000 0.016632 0.000000 -0.026702
# 5 0.001724 0.005529 -0.002768 0.000000 0.044446 0.000000
# 6 0.000000 0.000000 0.000000 -0.026702 0.000000 -0.149058
#
#
# Mechanical properties :
#
#
# Convention : Reuss Voigt Hill
#
# Bulk Modulus (GPa) = 38.85996 42.35109 40.60552
# Shear Modulus (GPa) = -1038.09715 23.60495 -507.24610
#
# Velocity S-wave (km/s) = -22.46900 3.38818 -15.70631
# Velocity P-wave (km/s) = 25.57817 5.99190 17.58323
#
# Compressibility (1/GPa) = 0.02573343
#
# Stress axis : x y z
#
# Youngs Moduli (GPa) = 58.29950 61.01623 60.17612
#
# Poissons Ratio (x) = 0.35701 -0.02218
# Poissons Ratio (y) = 0.34111 0.40503
# Poissons Ratio (z) = -0.02149 0.41068
#
# Static dielectric constant tensor:
#      x y z
#    x 1.792850 0.000000 -0.085920 
#    y 0.000000 1.735230 0.000000 
#    z -0.085920 0.000000 1.861680 
# 
# From -- ./inp_files/139833.got.cif
#   From: 2010.05.17/outbox.cif.g08.bks.cpg/sg15_70_cif.got.tgz:139833.got - 2010.06.03 18:47:42.
