data_PCOD9282617
_publ_section_title
;
Structure prediction by ZEFSAII (Michael W. Deem and Ramdas Pophale) SiO2 
 PCOD9282617
Probable space group: C 2/C
;
_chemical_formula_sum "Si O2"
_cell_formula_units_Z 60
_cell_length_a 8.105202
_cell_length_b 11.740441
_cell_length_c 32.273265
_cell_angle_alpha 90.000000
_cell_angle_beta 72.716936
_cell_angle_gamma 90.000000
_cell_volume 2932.416805
_symmetry_space_group_name_H-M "C 2/C"
_symmetry_group_IT_number 15
_symmetry_cell_setting 'monoclinic'
loop_
_space_group_symop_operation_xyz
x,y,z
-x,y,1/2-z
-x,-y,-z
x,-y,1/2+z
1/2+x,1/2+y,z
1/2-x,1/2+y,1/2-z
1/2-x,1/2-y,-z
1/2+x,1/2-y,1/2+z
loop_
_atom_site_type_symbol
_atom_site_label
_atom_site_fract_x
_atom_site_fract_y
_atom_site_fract_z
Si Si1 0.000000 0.340762 0.750000
Si Si2 0.040394 0.008141 0.571424
Si Si3 0.355559 0.092817 0.998315
Si Si4 0.120407 0.260773 0.281970
Si Si5 0.654600 0.019198 0.082967
Si Si6 0.564203 0.765858 0.933208
Si Si7 0.076174 0.508208 0.321135
Si Si8 0.144365 0.127593 0.142952
O O1 0.818063 0.275570 0.759893
O O2 0.009435 0.416239 0.708032
O O3 0.853539 0.956400 0.576341
O O4 0.019757 0.143666 0.567866
O O5 0.177654 0.957962 0.529061
O O6 0.098646 0.969671 0.612815
O O7 0.395153 0.206304 0.021544
O O8 0.356633 0.084867 0.948869
O O9 0.500000 0.000000 0.000000
O O10 0.126964 0.389638 0.297189
O O11 0.000000 0.253324 0.250000
O O12 0.022473 0.185108 0.324064
O O13 0.558215 0.987788 0.132008
O O14 0.561853 0.131580 0.071890
O O15 0.734321 0.784535 0.891978
O O16 0.237838 0.573139 0.329798
#
# Coordination Sequence:
#
# PCOD9282617 Si02
#       8
#     4   8   8   8   8   8   8   8
#     4  12  26  44  68 100 124 164 220 264 330 402
#     4  11  21  38  64  94 125 173 213 257 320 377
#     4   9  20  39  59  90 130 167 213 267 309 372
#     4  12  25  45  71  95 129 169 212 271 332 388
#     4  10  21  39  63  92 129 164 217 267 311 385
#     4   9  21  40  63  90 129 170 210 262 317 373
#     4  11  24  45  67  95 130 169 212 268 331 392
#     4  10  23  42  63  94 132 162 211 267 317 382
#
# _framework density 20.460937999999999
#
# number of rings (size 3 to 8) (size 9 to 14) (size 15 to 20)
#    0.000    1.600    2.000    2.800    0.000    6.933 
#    2.400    9.333    0.000    0.000    0.000    0.000 
#    0.000    0.000    0.000    0.000    0.000    0.000 
#
# Total GULP energy -167691.181171 kJ/mol
# GULP energy per Si atom -5589.706039 kJ/mol
# Density = 2.041437 g / cm^3
# Si number density = 20.460938 Si / 1000 Ang^3
#
#
#
# Elastic Constant Matrix: (Units=GPa)
#
#
# Indices 1 2 3 4 5 6 
#
# 1 98.3347 25.0531 36.9421 0.0000 4.0722 0.0000
# 2 25.0531 98.9424 39.5789 0.0000 4.2304 0.0000
# 3 36.9421 39.5789 109.7379 0.0000 16.8298 0.0000
# 4 0.0000 0.0000 0.0000 23.3839 0.0000 8.0978
# 5 4.0722 4.2304 16.8298 0.0000 38.6749 0.0000
# 6 0.0000 0.0000 0.0000 8.0978 0.0000 25.2883
#
#
#
# Elastic Compliance Matrix: (Units=1/GPa)
#
#
# Indices 1 2 3 4 5 6 
#
# 1 0.011873 -0.001635 -0.003475 0.000000 0.000441 0.000000
# 2 -0.001635 0.012049 -0.003878 0.000000 0.000542 0.000000
# 3 -0.003475 -0.003878 0.012387 0.000000 -0.004600 0.000000
# 4 0.000000 0.000000 0.000000 0.048098 0.000000 -0.015402
# 5 0.000441 0.000542 -0.004600 0.000000 0.027753 0.000000
# 6 0.000000 0.000000 0.000000 -0.015402 0.000000 0.044476
#
#
# Mechanical properties :
#
#
# Convention : Reuss Voigt Hill
#
# Bulk Modulus (GPa) = 54.54892 56.68480 55.61686
# Shear Modulus (GPa) = 27.66659 31.16548 29.41603
#
# Velocity S-wave (km/s) = 3.68117 3.90701 3.79577
# Velocity P-wave (km/s) = 6.69223 6.93665 6.81553
#
# Compressibility (1/GPa) = 0.01833217
#
# Stress axis : x y z
#
# Youngs Moduli (GPa) = 84.22390 82.99298 80.73194
#
# Poissons Ratio (x) = 0.13571 0.28053
# Poissons Ratio (y) = 0.13773 0.31311
# Poissons Ratio (z) = 0.29266 0.32188
#
# Static dielectric constant tensor:
#      x y z
#    x 1.723460 0.000000 -0.016670 
#    y 0.000000 1.687250 0.000000 
#    z -0.016670 0.000000 1.583000 
# 
# From -- ./inp_files/307470.got.cif
#   From: 2010.05.17/outbox.cif.g08.bks.cpg/sg15_154_cif.got.tgz:307470.got - 2010.06.03 18:47:42.
