data_PCOD9282484
_publ_section_title
;
Structure prediction by ZEFSAII (Michael W. Deem and Ramdas Pophale) SiO2 
 PCOD9282484
Probable space group: C 2/C
;
_chemical_formula_sum "Si O2"
_cell_formula_units_Z 52
_cell_length_a 21.022870
_cell_length_b 15.403744
_cell_length_c 8.991587
_cell_angle_alpha 90.000000
_cell_angle_beta 63.928594
_cell_angle_gamma 90.000000
_cell_volume 2615.474154
_symmetry_space_group_name_H-M "C 2/C"
_symmetry_group_IT_number 15
_symmetry_cell_setting 'monoclinic'
loop_
_space_group_symop_operation_xyz
x,y,z
-x,y,1/2-z
-x,-y,-z
x,-y,1/2+z
1/2+x,1/2+y,z
1/2-x,1/2+y,1/2-z
1/2-x,1/2-y,-z
1/2+x,1/2-y,1/2+z
loop_
_atom_site_type_symbol
_atom_site_label
_atom_site_fract_x
_atom_site_fract_y
_atom_site_fract_z
Si Si1 0.000000 0.305222 0.750000
Si Si2 0.725063 0.386304 0.953077
Si Si3 0.138109 0.592970 0.654486
Si Si4 0.149882 0.736438 0.199313
Si Si5 0.067772 0.459740 0.509427
Si Si6 0.329464 0.272905 0.974808
Si Si7 0.206384 0.059314 0.132956
O O1 0.065021 0.260720 0.768746
O O2 0.042575 0.368557 0.597761
O O3 0.682943 0.299820 0.041835
O O4 0.698910 0.459015 0.096289
O O5 0.808321 0.355974 0.867134
O O6 0.707458 0.420650 0.806637
O O7 0.089517 0.529447 0.608861
O O8 0.130220 0.561644 0.830735
O O9 0.123082 0.694811 0.641791
O O10 0.216009 0.577369 0.513382
O O11 0.168616 0.765423 0.348529
O O12 0.000000 0.500000 0.500000
O O13 0.343241 0.369450 0.898164
O O14 0.250000 0.250000 0.000000
#
# Coordination Sequence:
#
# PCOD9282484 Si02
#       7
#     4   8   8   8   8   8   8
#     4  12  26  40  64  90 138 170 222 256 330 394
#     4  11  23  40  70  95 132 168 221 269 334 375
#     4  11  22  36  58  88 132 167 209 259 315 376
#     4  11  24  43  64  99 129 176 212 272 321 394
#     4  12  23  37  56  88 128 182 210 247 306 399
#     4  10  21  39  62  92 130 162 219 268 318 374
#     4  11  22  39  65  99 123 171 213 282 320 384
#
# _framework density 19.881672999999999
#
# number of rings (size 3 to 8) (size 9 to 14) (size 15 to 20)
#    0.000    0.923    4.615    3.692    2.154    2.462 
#    0.000    0.000    0.000    3.692    0.000    0.000 
#    0.000    0.000    0.000    0.000    0.000    0.000 
#
# Total GULP energy -145070.840913 kJ/mol
# GULP energy per Si atom -5579.647727 kJ/mol
# Density = 1.983642 g / cm^3
# Si number density = 19.881673 Si / 1000 Ang^3
#
#
#
# Elastic Constant Matrix: (Units=GPa)
#
#
# Indices 1 2 3 4 5 6 
#
# 1 85.8890 15.2772 33.7191 0.0000 7.7013 0.0000
# 2 15.2772 96.0574 35.3123 0.0000 4.5691 0.0000
# 3 33.7191 35.3123 100.1037 0.0000 21.7203 0.0000
# 4 0.0000 0.0000 0.0000 37.0144 0.0000 2.0676
# 5 7.7013 4.5691 21.7203 0.0000 19.9416 0.0000
# 6 0.0000 0.0000 0.0000 2.0676 0.0000 4.3433
#
#
#
# Elastic Compliance Matrix: (Units=1/GPa)
#
#
# Indices 1 2 3 4 5 6 
#
# 1 0.013445 -0.000561 -0.004233 0.000000 -0.000454 0.000000
# 2 -0.000561 0.012076 -0.004606 0.000000 0.002467 0.000000
# 3 -0.004233 -0.004606 0.016311 0.000000 -0.015076 0.000000
# 4 0.000000 0.000000 0.000000 0.027755 0.000000 -0.013213
# 5 -0.000454 0.002467 -0.015076 0.000000 0.066178 0.000000
# 6 0.000000 0.000000 0.000000 -0.013213 0.000000 0.236532
#
#
# Mechanical properties :
#
#
# Convention : Reuss Voigt Hill
#
# Bulk Modulus (GPa) = 43.41559 50.07413 46.74486
# Shear Modulus (GPa) = 12.53848 25.44263 18.99055
#
# Velocity S-wave (km/s) = 2.51401 3.58117 3.09395
# Velocity P-wave (km/s) = 5.50558 6.50696 6.02710
#
# Compressibility (1/GPa) = 0.02303320
#
# Stress axis : x y z
#
# Youngs Moduli (GPa) = 74.37691 82.81192 61.30675
#
# Poissons Ratio (x) = 0.04644 0.25948
# Poissons Ratio (y) = 0.04171 0.28238
# Poissons Ratio (z) = 0.31481 0.38144
#
# Static dielectric constant tensor:
#      x y z
#    x 1.750210 0.000000 0.007590 
#    y 0.000000 1.964900 0.000000 
#    z 0.007590 0.000000 1.700580 
# 
# From -- ./inp_files/61435.got.cif
#   From: 2010.05.17/outbox.cif.g08.bks.cpg/sg15_31_cif.got.tgz:61435.got - 2010.06.03 18:47:42.
