data_PCOD9282596
_publ_section_title
;
Structure prediction by ZEFSAII (Michael W. Deem and Ramdas Pophale) SiO2 
 PCOD9282596
Probable space group: C 2/C
;
_chemical_formula_sum "Si O2"
_cell_formula_units_Z 56
_cell_length_a 7.628523
_cell_length_b 25.248462
_cell_length_c 13.517287
_cell_angle_alpha 90.000000
_cell_angle_beta 102.087431
_cell_angle_gamma 90.000000
_cell_volume 2545.821349
_symmetry_space_group_name_H-M "C 2/C"
_symmetry_group_IT_number 15
_symmetry_cell_setting 'monoclinic'
loop_
_space_group_symop_operation_xyz
x,y,z
-x,y,1/2-z
-x,-y,-z
x,-y,1/2+z
1/2+x,1/2+y,z
1/2-x,1/2+y,1/2-z
1/2-x,1/2-y,-z
1/2+x,1/2-y,1/2+z
loop_
_atom_site_type_symbol
_atom_site_label
_atom_site_fract_x
_atom_site_fract_y
_atom_site_fract_z
Si Si1 0.119046 0.624575 0.077803
Si Si2 0.207432 0.945136 0.747015
Si Si3 0.293606 0.062262 0.743578
Si Si4 0.301196 0.667824 0.273292
Si Si5 0.786122 0.782005 0.234996
Si Si6 0.245774 0.628360 0.579464
Si Si7 0.644674 0.350298 0.083212
O O1 0.181662 0.571151 0.141397
O O2 0.151340 0.667354 0.168266
O O3 0.257546 0.639100 0.007680
O O4 0.922457 0.622715 0.011344
O O5 0.224988 0.890984 0.684409
O O6 0.000000 0.951248 0.750000
O O7 0.271490 0.000754 0.714517
O O8 0.500000 0.076409 0.750000
O O9 0.237063 0.075724 0.849872
O O10 0.180917 0.099860 0.659218
O O11 0.500000 0.665186 0.250000
O O12 0.281874 0.725910 0.313358
O O13 0.701921 0.827182 0.156821
O O14 0.767954 0.800190 0.347744
O O15 0.000000 0.785052 0.250000
O O16 0.428644 0.648937 0.550180
#
# Coordination Sequence:
#
# PCOD9282596 Si02
#       7
#     8   8   8   8   8   8   8
#     4  10  21  41  59  90 122 151 206 245 300 346
#     4   9  21  42  56  82 124 160 201 237 295 372
#     4  11  20  38  64  87 117 161 197 243 299 357
#     4   9  21  40  58  82 121 164 194 240 299 364
#     4   9  20  38  60  87 118 157 200 240 297 358
#     4  10  21  39  63  91 120 152 201 251 292 351
#     4  10  21  39  63  91 120 153 199 252 294 345
#
# _framework density 21.996831
#
# number of rings (size 3 to 8) (size 9 to 14) (size 15 to 20)
#    0.857    1.429    1.429    2.143    2.000    1.714 
#    5.143    2.857    0.000    0.000    0.000    0.000 
#    0.000    0.000    0.000    0.000    0.000    0.000 
#
# Total GULP energy -156073.418498 kJ/mol
# GULP energy per Si atom -5574.050661 kJ/mol
# Density = 2.194676 g / cm^3
# Si number density = 21.996831 Si / 1000 Ang^3
#
#
#
# Elastic Constant Matrix: (Units=GPa)
#
#
# Indices 1 2 3 4 5 6 
#
# 1 73.2803 0.2769 13.8413 0.0000 11.3369 0.0000
# 2 0.2769 112.3790 -1.2605 0.0000 7.8971 0.0000
# 3 13.8413 -1.2605 32.9598 0.0000 8.3006 0.0000
# 4 0.0000 0.0000 0.0000 10.1290 0.0000 1.4067
# 5 11.3369 7.8971 8.3006 0.0000 36.7980 0.0000
# 6 0.0000 0.0000 0.0000 1.4067 0.0000 41.8364
#
#
#
# Elastic Compliance Matrix: (Units=1/GPa)
#
#
# Indices 1 2 3 4 5 6 
#
# 1 0.015225 0.000145 -0.005512 0.000000 -0.003478 0.000000
# 2 0.000145 0.009060 0.000834 0.000000 -0.002177 0.000000
# 3 -0.005512 0.000834 0.034250 0.000000 -0.006207 0.000000
# 4 0.000000 0.000000 0.000000 0.099190 0.000000 -0.003335
# 5 -0.003478 -0.002177 -0.006207 0.000000 0.030114 0.000000
# 6 0.000000 0.000000 0.000000 -0.003335 0.000000 0.024015
#
#
# Mechanical properties :
#
#
# Convention : Reuss Voigt Hill
#
# Bulk Modulus (GPa) = 20.21471 27.14827 23.68149
# Shear Modulus (GPa) = 21.06061 31.47011 26.26536
#
# Velocity S-wave (km/s) = 3.09761 3.78652 3.45925
# Velocity P-wave (km/s) = 4.69077 5.61121 5.17151
#
# Compressibility (1/GPa) = 0.04946892
#
# Stress axis : x y z
#
# Youngs Moduli (GPa) = 65.68170 110.36979 29.19726
#
# Poissons Ratio (x) = -0.01601 0.16094
# Poissons Ratio (y) = -0.00953 -0.02435
# Poissons Ratio (z) = 0.36204 -0.09204
#
# Static dielectric constant tensor:
#      x y z
#    x 1.830160 0.000000 -0.026280 
#    y 0.000000 1.820250 0.000000 
#    z -0.026280 0.000000 1.843180 
# 
# From -- ./inp_files/138279.got.cif
#   From: 2010.05.17/outbox.cif.g08.bks.cpg/sg15_70_cif.got.tgz:138279.got - 2010.06.03 18:47:42.
