data_PCOD9282321
_publ_section_title
;
Structure prediction by ZEFSAII (Michael W. Deem and Ramdas Pophale) SiO2 
 PCOD9282321
Probable space group: C 2/C
;
_chemical_formula_sum "Si O2"
_cell_formula_units_Z 48
_cell_length_a 9.135425
_cell_length_b 15.216830
_cell_length_c 20.295974
_cell_angle_alpha 90.000000
_cell_angle_beta 63.303042
_cell_angle_gamma 90.000000
_cell_volume 2520.614781
_symmetry_space_group_name_H-M "C 2/C"
_symmetry_group_IT_number 15
_symmetry_cell_setting 'monoclinic'
loop_
_space_group_symop_operation_xyz
x,y,z
-x,y,1/2-z
-x,-y,-z
x,-y,1/2+z
1/2+x,1/2+y,z
1/2-x,1/2+y,1/2-z
1/2-x,1/2-y,-z
1/2+x,1/2-y,1/2+z
loop_
_atom_site_type_symbol
_atom_site_label
_atom_site_fract_x
_atom_site_fract_y
_atom_site_fract_z
Si Si1 0.564334 0.579753 0.032125
Si Si2 0.694560 0.244323 0.208780
Si Si3 0.124154 0.422527 0.285548
Si Si4 0.719897 0.322109 0.952475
Si Si5 0.116686 0.074958 0.289870
Si Si6 0.406121 0.994971 0.449777
O O1 0.473969 0.660521 0.016023
O O2 0.491125 0.573669 0.120967
O O3 0.500000 0.500000 0.000000
O O4 0.758302 0.574251 0.989754
O O5 0.500000 0.256301 0.250000
O O6 0.789383 0.332323 0.210077
O O7 0.726647 0.216154 0.127699
O O8 0.769315 0.162018 0.234200
O O9 0.263226 0.491496 0.235280
O O10 0.000000 0.408334 0.250000
O O11 0.024297 0.464151 0.367081
O O12 0.819747 0.411715 0.948731
O O13 0.750000 0.250000 0.000000
O O14 0.000000 0.072830 0.250000
O O15 0.500000 0.000000 0.500000
#
# Coordination Sequence:
#
# PCOD9282321 Si02
#       6
#     8   8   8   8   8   8
#     4   9  20  38  60  84 117 156 195 243 301 359
#     4  11  24  41  61  88 122 162 207 257 311 367
#     4  12  24  40  62  91 125 164 207 257 310 371
#     4  10  21  39  61  87 120 158 204 256 306 366
#     4  11  22  41  64  91 121 159 205 258 311 368
#     4  11  22  39  62  91 123 161 205 255 312 373
#
# _framework density 19.042973
#
# number of rings (size 3 to 8) (size 9 to 14) (size 15 to 20)
#    0.000    1.333    0.000    7.500    0.000    5.333 
#    0.000    9.167    0.000    0.000    0.000    0.000 
#    0.000    0.000    0.000    0.000    0.000    0.000 
#
# Total GULP energy -134007.211822 kJ/mol
# GULP energy per Si atom -5583.633826 kJ/mol
# Density = 1.899963 g / cm^3
# Si number density = 19.042973 Si / 1000 Ang^3
#
#
#
# Elastic Constant Matrix: (Units=GPa)
#
#
# Indices 1 2 3 4 5 6 
#
# 1 135.3314 52.4504 28.9523 0.0000 21.7837 0.0000
# 2 52.4504 125.9018 21.1198 0.0000 7.7433 0.0000
# 3 28.9523 21.1198 48.3132 0.0000 16.4649 0.0000
# 4 0.0000 0.0000 0.0000 26.8889 0.0000 10.0090
# 5 21.7837 7.7433 16.4649 0.0000 36.7131 0.0000
# 6 0.0000 0.0000 0.0000 10.0090 0.0000 33.3650
#
#
#
# Elastic Compliance Matrix: (Units=1/GPa)
#
#
# Indices 1 2 3 4 5 6 
#
# 1 0.010002 -0.003394 -0.003224 0.000000 -0.003773 0.000000
# 2 -0.003394 0.009724 -0.002602 0.000000 0.001130 0.000000
# 3 -0.003224 -0.002602 0.027065 0.000000 -0.009676 0.000000
# 4 0.000000 0.000000 0.000000 0.041865 0.000000 -0.012559
# 5 -0.003773 0.001130 -0.009676 0.000000 0.033578 0.000000
# 6 0.000000 0.000000 0.000000 -0.012559 0.000000 0.033739
#
#
# Mechanical properties :
#
#
# Convention : Reuss Voigt Hill
#
# Bulk Modulus (GPa) = 35.27242 57.17683 46.22462
# Shear Modulus (GPa) = 27.19422 33.19502 30.19462
#
# Velocity S-wave (km/s) = 3.78305 4.17965 3.98628
# Velocity P-wave (km/s) = 6.13553 7.30637 6.74639
#
# Compressibility (1/GPa) = 0.02835076
#
# Stress axis : x y z
#
# Youngs Moduli (GPa) = 99.98339 102.84360 36.94744
#
# Poissons Ratio (x) = 0.34903 0.11913
# Poissons Ratio (y) = 0.33932 0.09613
# Poissons Ratio (z) = 0.32238 0.26758
#
# Static dielectric constant tensor:
#      x y z
#    x 1.679670 0.000000 -0.021760 
#    y 0.000000 1.625780 0.000000 
#    z -0.021760 0.000000 1.626340 
# 
# From -- ./inp_files/231052.got.cif
#   From: 2010.05.17/outbox.cif.g08.bks.cpg/sg15_116_cif.got.tgz:231052.got - 2010.06.03 18:47:42.
