data_PCOD9282072
_publ_section_title
;
Structure prediction by ZEFSAII (Michael W. Deem and Ramdas Pophale) SiO2 
 PCOD9282072
Probable space group: C 2/C
;
_chemical_formula_sum "Si O2"
_cell_formula_units_Z 48
_cell_length_a 14.543592
_cell_length_b 10.063547
_cell_length_c 23.748150
_cell_angle_alpha 90.000000
_cell_angle_beta 149.463068
_cell_angle_gamma 90.000000
_cell_volume 1766.022828
_symmetry_space_group_name_H-M "C 2/C"
_symmetry_group_IT_number 15
_symmetry_cell_setting 'monoclinic'
loop_
_space_group_symop_operation_xyz
x,y,z
-x,y,1/2-z
-x,-y,-z
x,-y,1/2+z
1/2+x,1/2+y,z
1/2-x,1/2+y,1/2-z
1/2-x,1/2-y,-z
1/2+x,1/2-y,1/2+z
loop_
_atom_site_type_symbol
_atom_site_label
_atom_site_fract_x
_atom_site_fract_y
_atom_site_fract_z
Si Si1 0.445334 0.625728 0.542519
Si Si2 0.482222 0.808711 0.064214
Si Si3 0.090861 0.581184 0.132296
Si Si4 0.118704 0.720261 0.861610
Si Si5 0.245452 0.905272 0.667323
Si Si6 0.493150 0.484131 0.306674
O O1 0.522021 0.775388 0.577095
O O2 0.604539 0.523199 0.608848
O O3 0.273806 0.604561 0.410516
O O4 0.419417 0.593889 0.594983
O O5 0.476092 0.961656 0.045487
O O6 0.330283 0.705246 0.963911
O O7 0.451910 0.814289 0.114907
O O8 0.667850 0.738175 0.146914
O O9 0.094554 0.577253 0.202886
O O10 0.295374 0.541912 0.220544
O O11 0.000000 0.659872 0.750000
O O12 0.102054 0.880108 0.852993
O O13 0.500000 0.410879 0.250000
#
# Coordination Sequence:
#
# PCOD9282072 Si02
#       6
#     8   8   8   8   8   8
#     4  10  22  40  64  97 136 172 227 278 343 402
#     4  11  23  43  70 103 133 185 240 281 341 413
#     4  11  23  43  70 102 135 181 236 282 342 420
#     4  10  23  42  68 100 138 181 236 289 335 404
#     4  10  21  38  69  97 132 178 229 284 334 406
#     4  10  22  42  69  97 140 185 222 287 345 407
#
# _framework density 27.179718000000001
#
# number of rings (size 3 to 8) (size 9 to 14) (size 15 to 20)
#    0.000    1.667    3.333    2.000    4.667    2.000 
#    6.000    1.667    0.000    0.000    0.000    0.000 
#    0.000    0.000    0.000    0.000    0.000    0.000 
#
# Total GULP energy -134300.421493 kJ/mol
# GULP energy per Si atom -5595.850896 kJ/mol
# Density = 2.711786 g / cm^3
# Si number density = 27.179718 Si / 1000 Ang^3
#
#
#
# Elastic Constant Matrix: (Units=GPa)
#
#
# Indices 1 2 3 4 5 6 
#
# 1 94.3607 18.3121 60.6059 0.0000 -41.5873 0.0000
# 2 18.3121 156.4513 22.4836 0.0000 -16.8188 0.0000
# 3 60.6059 22.4836 137.6773 0.0000 -51.3610 0.0000
# 4 0.0000 0.0000 0.0000 33.4270 0.0000 -7.2104
# 5 -41.5873 -16.8188 -51.3610 0.0000 56.4832 0.0000
# 6 0.0000 0.0000 0.0000 -7.2104 0.0000 10.6211
#
#
#
# Elastic Compliance Matrix: (Units=1/GPa)
#
#
# Indices 1 2 3 4 5 6 
#
# 1 0.017266 -0.000472 -0.004288 0.000000 0.008673 0.000000
# 2 -0.000472 0.006641 -0.000407 0.000000 0.001260 0.000000
# 3 -0.004288 -0.000407 0.012098 0.000000 0.007723 0.000000
# 4 0.000000 0.000000 0.000000 0.035048 0.000000 0.023793
# 5 0.008673 0.001260 0.007723 0.000000 0.031488 0.000000
# 6 0.000000 0.000000 0.000000 0.023793 0.000000 0.110305
#
#
# Mechanical properties :
#
#
# Convention : Reuss Voigt Hill
#
# Bulk Modulus (GPa) = 38.95388 65.69916 52.32652
# Shear Modulus (GPa) = 21.57627 39.24546 30.41086
#
# Velocity S-wave (km/s) = 2.82057 3.80402 3.34860
# Velocity P-wave (km/s) = 4.99705 6.59687 5.85189
#
# Compressibility (1/GPa) = 0.02567139
#
# Stress axis : x y z
#
# Youngs Moduli (GPa) = 57.91887 150.58145 82.65541
#
# Poissons Ratio (x) = 0.07113 0.35442
# Poissons Ratio (y) = 0.02736 0.03360
# Poissons Ratio (z) = 0.24835 0.06122
#
# Static dielectric constant tensor:
#      x y z
#    x 2.189830 0.000000 0.018290 
#    y 0.000000 2.043410 0.000000 
#    z 0.018290 0.000000 2.219870 
# 
# From -- ./inp_files/276975.got.cif
#   From: 2010.05.17/outbox.cif.g08.bks.cpg/sg15_139_cif.got.tgz:276975.got - 2010.06.03 18:47:42.
