data_PCOD9282377
_publ_section_title
;
Structure prediction by ZEFSAII (Michael W. Deem and Ramdas Pophale) SiO2 
 PCOD9282377
Probable space group: C 2/C
;
_chemical_formula_sum "Si O2"
_cell_formula_units_Z 56
_cell_length_a 18.631665
_cell_length_b 18.524751
_cell_length_c 16.172851
_cell_angle_alpha 90.000000
_cell_angle_beta 28.558161
_cell_angle_gamma 90.000000
_cell_volume 2668.483374
_symmetry_space_group_name_H-M "C 2/C"
_symmetry_group_IT_number 15
_symmetry_cell_setting 'monoclinic'
loop_
_space_group_symop_operation_xyz
x,y,z
-x,y,1/2-z
-x,-y,-z
x,-y,1/2+z
1/2+x,1/2+y,z
1/2-x,1/2+y,1/2-z
1/2-x,1/2-y,-z
1/2+x,1/2-y,1/2+z
loop_
_atom_site_type_symbol
_atom_site_label
_atom_site_fract_x
_atom_site_fract_y
_atom_site_fract_z
Si Si1 0.852761 0.521034 0.045764
Si Si2 0.678325 0.051815 0.238495
Si Si3 0.000000 0.684723 0.250000
Si Si4 0.719670 0.577361 0.541886
Si Si5 0.500000 0.714307 0.250000
Si Si6 0.720235 0.180335 0.428446
Si Si7 0.773911 0.794775 0.690662
Si Si8 0.073103 0.807949 0.302167
O O1 0.784013 0.517520 0.208927
O O2 0.759104 0.483440 0.068310
O O3 0.857636 0.604580 0.014790
O O4 0.016189 0.482809 0.881580
O O5 0.670737 0.137430 0.266781
O O6 0.783366 0.046711 0.049660
O O7 0.856942 0.633926 0.397329
O O8 0.985716 0.739870 0.189725
O O9 0.600502 0.626607 0.712114
O O10 0.397280 0.767146 0.408949
O O11 0.374361 0.671042 0.324819
O O12 0.763609 0.216172 0.297885
O O13 0.719917 0.722464 0.699403
O O14 0.940026 0.821716 0.500436
#
# Coordination Sequence:
#
# PCOD9282377 Si02
#       8
#     8   8   4   8   4   8   8   8
#     4  10  22  40  66  94 126 176 218 272 327 401
#     4  10  21  39  61  92 132 166 220 270 321 396
#     4  12  20  37  59  94 132 168 220 268 316 410
#     4  12  21  38  62  93 131 175 220 269 326 398
#     4  10  22  45  69 102 122 168 228 284 338 396
#     4  10  23  43  71  95 133 167 225 284 336 394
#     4  11  22  40  61  98 135 175 220 276 331 399
#     4  12  23  36  63  95 136 177 214 270 337 396
#
# _framework density 20.985703999999998
#
# number of rings (size 3 to 8) (size 9 to 14) (size 15 to 20)
#    0.000    1.143    4.286    2.143    2.000    0.000 
#    2.571    6.429    0.000    0.000    0.000    0.000 
#    0.000    0.000    0.000    0.000    0.000    0.000 
#
# Total GULP energy -156108.593712 kJ/mol
# GULP energy per Si atom -5575.306918 kJ/mol
# Density = 2.093794 g / cm^3
# Si number density = 20.985704 Si / 1000 Ang^3
#
#
#
# Elastic Constant Matrix: (Units=GPa)
#
#
# Indices 1 2 3 4 5 6 
#
# 1 95.8184 15.5390 43.7208 -0.0041 36.0903 0.0055
# 2 15.5390 43.8434 19.3369 -0.0011 14.8499 0.0029
# 3 43.7208 19.3369 137.1755 0.0008 27.0630 0.0005
# 4 -0.0041 -0.0011 0.0008 22.0982 0.0020 9.4898
# 5 36.0903 14.8499 27.0630 0.0020 39.5905 -0.0031
# 6 0.0055 0.0029 0.0005 9.4898 -0.0031 24.0770
#
#
#
# Elastic Compliance Matrix: (Units=1/GPa)
#
#
# Indices 1 2 3 4 5 6 
#
# 1 0.016708 -0.000235 -0.002664 0.000008 -0.013322 -0.000009
# 2 -0.000235 0.026626 -0.002023 0.000005 -0.008390 -0.000006
# 3 -0.002664 -0.002023 0.009011 -0.000001 -0.002972 0.000001
# 4 0.000008 0.000005 -0.000001 0.054473 -0.000013 -0.021470
# 5 -0.013322 -0.008390 -0.002972 -0.000013 0.042581 0.000015
# 6 -0.000009 -0.000006 0.000001 -0.021470 0.000015 0.049996
#
#
# Mechanical properties :
#
#
# Convention : Reuss Voigt Hill
#
# Bulk Modulus (GPa) = 23.52919 48.22563 35.87741
# Shear Modulus (GPa) = 22.38108 30.36919 26.37513
#
# Velocity S-wave (km/s) = 3.26926 3.80825 3.54900
# Velocity P-wave (km/s) = 5.04848 6.50901 5.82470
#
# Compressibility (1/GPa) = 0.04250040
#
# Stress axis : x y z
#
# Youngs Moduli (GPa) = 59.85335 37.55775 110.98146
#
# Poissons Ratio (x) = 0.00881 0.29563
# Poissons Ratio (y) = 0.01404 0.22454
# Poissons Ratio (z) = 0.15944 0.07599
#
# Static dielectric constant tensor:
#      x y z
#    x 1.817250 0.000000 -0.012090 
#    y 0.000000 1.716050 0.000000 
#    z -0.012090 0.000000 1.792430 
# 
# From -- ./inp_files/163796.got.cif
#   From: 2010.05.17/outbox.cif.g08.bks.cpg/sg15_82_cif.got.tgz:163796.got - 2010.06.03 18:47:42.
