data_PCOD9282453
_publ_section_title
;
Structure prediction by ZEFSAII (Michael W. Deem and Ramdas Pophale) SiO2 
 PCOD9282453
Probable space group: C 2/C
;
_chemical_formula_sum "Si O2"
_cell_formula_units_Z 60
_cell_length_a 17.020580
_cell_length_b 16.421784
_cell_length_c 22.868786
_cell_angle_alpha 90.000000
_cell_angle_beta 150.360148
_cell_angle_gamma 90.000000
_cell_volume 3161.148908
_symmetry_space_group_name_H-M "C 2/C"
_symmetry_group_IT_number 15
_symmetry_cell_setting 'monoclinic'
loop_
_space_group_symop_operation_xyz
x,y,z
-x,y,1/2-z
-x,-y,-z
x,-y,1/2+z
1/2+x,1/2+y,z
1/2-x,1/2+y,1/2-z
1/2-x,1/2-y,-z
1/2+x,1/2-y,1/2+z
loop_
_atom_site_type_symbol
_atom_site_label
_atom_site_fract_x
_atom_site_fract_y
_atom_site_fract_z
Si Si1 0.000000 0.051201 0.250000
Si Si2 0.561304 0.310538 0.008237
Si Si3 0.485163 0.033402 0.807897
Si Si4 0.126134 0.953021 0.122595
Si Si5 0.155917 0.478250 0.021642
Si Si6 0.643090 0.203307 0.882297
Si Si7 0.122886 0.909933 0.707447
Si Si8 0.964386 0.375709 0.979859
O O1 0.839739 0.999535 0.141317
O O2 0.977298 0.097381 0.297386
O O3 0.578678 0.359212 0.080537
O O4 0.729138 0.320937 0.084007
O O5 0.524021 0.215925 0.990997
O O6 0.440367 0.353376 0.885322
O O7 0.500000 0.010293 0.750000
O O8 0.304865 0.034372 0.714333
O O9 0.564707 0.123798 0.861265
O O10 0.587726 0.971861 0.913007
O O11 0.116286 0.997319 0.178844
O O12 0.000000 0.000000 0.000000
O O13 0.061228 0.557558 0.985930
O O14 0.108663 0.404941 0.033137
O O15 0.500000 0.241640 0.750000
O O16 0.750000 0.250000 0.000000
O O17 0.302053 0.885795 0.838176
#
# Coordination Sequence:
#
# PCOD9282453 Si02
#       8
#     4   8   8   8   8   8   8   8
#     4  10  22  40  66  88 122 172 208 260 310 382
#     4  11  22  38  60  92 123 168 205 255 319 372
#     4  11  20  38  62  88 126 166 207 253 310 378
#     4  10  21  39  62  90 125 162 215 257 309 376
#     4  10  21  40  60  90 125 165 208 253 315 376
#     4  11  23  36  54  90 134 169 199 253 321 397
#     4  10  22  41  61  91 124 161 212 258 312 382
#     4  10  22  39  61  91 127 163 206 254 316 381
#
# _framework density 18.980440999999999
#
# number of rings (size 3 to 8) (size 9 to 14) (size 15 to 20)
#    0.000    1.600    4.000    1.600    3.733    2.133 
#    2.400    0.000    0.000    0.800    8.667    0.000 
#    0.000    0.000    0.000    0.000    0.000    0.000 
#
# Total GULP energy -167357.188750 kJ/mol
# GULP energy per Si atom -5578.572958 kJ/mol
# Density = 1.893724 g / cm^3
# Si number density = 18.980441 Si / 1000 Ang^3
#
#
#
# Elastic Constant Matrix: (Units=GPa)
#
#
# Indices 1 2 3 4 5 6 
#
# 1 66.2980 28.3752 21.6197 0.0012 -8.9270 0.0001
# 2 28.3752 68.3065 5.6464 0.0030 -3.9356 0.0007
# 3 21.6197 5.6464 92.4794 0.0053 -5.8639 0.0013
# 4 0.0012 0.0030 0.0053 18.4095 0.0021 -5.5388
# 5 -8.9270 -3.9356 -5.8639 0.0021 33.9068 0.0002
# 6 0.0001 0.0007 0.0013 -5.5388 0.0002 23.1796
#
#
#
# Elastic Compliance Matrix: (Units=1/GPa)
#
#
# Indices 1 2 3 4 5 6 
#
# 1 0.020265 -0.007871 -0.004021 0.000001 0.003726 0.000001
# 2 -0.007871 0.017855 0.000758 -0.000003 0.000131 -0.000001
# 3 -0.004021 0.000758 0.011774 -0.000004 0.001066 -0.000002
# 4 0.000001 -0.000003 -0.000004 0.058528 -0.000004 0.013985
# 5 0.003726 0.000131 0.001066 -0.000004 0.030673 -0.000001
# 6 0.000001 -0.000001 -0.000002 0.013985 -0.000001 0.046483
#
#
# Mechanical properties :
#
#
# Convention : Reuss Voigt Hill
#
# Bulk Modulus (GPa) = 36.19660 37.59629 36.89645
# Shear Modulus (GPa) = 23.03568 26.52867 24.78217
#
# Velocity S-wave (km/s) = 3.48753 3.74262 3.61732
# Velocity P-wave (km/s) = 5.94382 6.20703 6.07685
#
# Compressibility (1/GPa) = 0.02762690
#
# Stress axis : x y z
#
# Youngs Moduli (GPa) = 49.34571 56.00799 84.92973
#
# Poissons Ratio (x) = 0.44086 0.34148
# Poissons Ratio (y) = 0.38842 -0.06440
# Poissons Ratio (z) = 0.19840 -0.04247
#
# Static dielectric constant tensor:
#      x y z
#    x 1.651720 0.000000 -0.036050 
#    y 0.000000 1.688650 0.000000 
#    z -0.036050 0.000000 1.696530 
# 
# From -- ./inp_files/277585.got.cif
#   From: 2010.05.17/outbox.cif.g08.bks.cpg/sg15_139_cif.got.tgz:277585.got - 2010.06.03 18:47:42.
