data_PCOD9282603
_publ_section_title
;
Structure prediction by ZEFSAII (Michael W. Deem and Ramdas Pophale) SiO2 
 PCOD9282603
Probable space group: C 2/C
;
_chemical_formula_sum "Si O2"
_cell_formula_units_Z 48
_cell_length_a 11.852631
_cell_length_b 19.924726
_cell_length_c 19.260551
_cell_angle_alpha 90.000000
_cell_angle_beta 148.299198
_cell_angle_gamma 90.000000
_cell_volume 2390.203966
_symmetry_space_group_name_H-M "C 2/C"
_symmetry_group_IT_number 15
_symmetry_cell_setting 'monoclinic'
loop_
_space_group_symop_operation_xyz
x,y,z
-x,y,1/2-z
-x,-y,-z
x,-y,1/2+z
1/2+x,1/2+y,z
1/2-x,1/2+y,1/2-z
1/2-x,1/2-y,-z
1/2+x,1/2-y,1/2+z
loop_
_atom_site_type_symbol
_atom_site_label
_atom_site_fract_x
_atom_site_fract_y
_atom_site_fract_z
Si Si1 0.819595 0.956067 0.713256
Si Si2 0.777989 0.792134 0.104225
Si Si3 0.914746 0.846409 0.031261
Si Si4 0.924948 0.406121 0.424160
Si Si5 0.390285 0.090706 0.760894
Si Si6 0.684123 0.545845 0.130641
O O1 0.599593 0.921477 0.573700
O O2 0.877076 0.934990 0.822058
O O3 0.000000 0.943396 0.750000
O O4 0.752868 0.034909 0.674594
O O5 0.616637 0.731777 0.003846
O O6 0.685902 0.837458 0.116114
O O7 0.000000 0.762802 0.250000
O O8 0.824012 0.842098 0.062714
O O9 0.787576 0.893370 0.908927
O O10 0.158388 0.874348 0.153070
O O11 0.028606 0.401491 0.402563
O O12 0.500000 0.118863 0.750000
O O13 0.365412 0.010301 0.737832
O O14 0.500000 0.500000 0.000000
#
# Coordination Sequence:
#
# PCOD9282603 Si02
#       6
#     8   8   8   8   8   8
#     4  10  22  37  62  91 126 163 207 260 314 373
#     4  11  22  41  65  88 125 161 213 258 308 376
#     4  10  23  39  65  92 120 167 208 256 309 370
#     4  10  22  38  62  91 121 166 206 256 316 371
#     4  10  21  39  63  91 126 161 204 254 322 375
#     4   9  21  37  58  93 123 160 204 256 309 365
#
# _framework density 20.081969000000001
#
# number of rings (size 3 to 8) (size 9 to 14) (size 15 to 20)
#    0.000    2.000    1.667    0.500    9.333    6.000 
#    0.000    1.667    0.000    0.000    0.000    0.000 
#    0.000    0.000    0.000    0.000    0.000    0.000 
#
# Total GULP energy -133677.907312 kJ/mol
# GULP energy per Si atom -5569.912805 kJ/mol
# Density = 2.003626 g / cm^3
# Si number density = 20.081969 Si / 1000 Ang^3
#
#
#
# Elastic Constant Matrix: (Units=GPa)
#
#
# Indices 1 2 3 4 5 6 
#
# 1 125.7498 33.6616 29.6081 0.0019 -27.6627 -0.0008
# 2 33.6616 58.0672 16.9277 0.0019 0.6022 0.0000
# 3 29.6081 16.9277 49.7735 0.0112 -24.6247 -0.0021
# 4 0.0019 0.0019 0.0112 19.7528 0.0000 -7.3129
# 5 -27.6627 0.6022 -24.6247 0.0000 36.9811 -0.0003
# 6 -0.0008 0.0000 -0.0021 -7.3129 -0.0003 24.8378
#
#
#
# Elastic Compliance Matrix: (Units=1/GPa)
#
#
# Indices 1 2 3 4 5 6 
#
# 1 0.011768 -0.006789 -0.000420 0.000000 0.008633 0.000000
# 2 -0.006789 0.024299 -0.010340 0.000004 -0.012359 0.000000
# 3 -0.000420 -0.010340 0.035470 -0.000020 0.023473 -0.000003
# 4 0.000000 0.000004 -0.000020 0.056819 -0.000013 0.016729
# 5 0.008633 -0.012359 0.023473 -0.000013 0.049330 -0.000001
# 6 0.000000 0.000000 -0.000003 0.016729 -0.000001 0.045187
#
#
# Mechanical properties :
#
#
# Convention : Reuss Voigt Hill
#
# Bulk Modulus (GPa) = 27.44286 43.77614 35.60950
# Shear Modulus (GPa) = 18.51042 26.54054 22.52548
#
# Velocity S-wave (km/s) = 3.03932 3.63934 3.35278
# Velocity P-wave (km/s) = 5.10016 6.28536 5.72352
#
# Compressibility (1/GPa) = 0.03643935
#
# Stress axis : x y z
#
# Youngs Moduli (GPa) = 84.97882 41.15319 28.19251
#
# Poissons Ratio (x) = 0.27938 0.01184
# Poissons Ratio (y) = 0.57690 0.29152
# Poissons Ratio (z) = 0.03569 0.42553
#
# Static dielectric constant tensor:
#      x y z
#    x 1.770780 0.000000 -0.047010 
#    y 0.000000 1.715900 -0.000010 
#    z -0.047010 -0.000010 1.763530 
# 
# From -- ./inp_files/119674.got.cif
#   From: 2010.05.17/outbox.cif.g08.bks.cpg/sg15_60_cif.got.tgz:119674.got - 2010.06.03 18:47:42.
