data_PCOD9282275
_publ_section_title
;
Structure prediction by ZEFSAII (Michael W. Deem and Ramdas Pophale) SiO2 
 PCOD9282275
Probable space group: C 2/C
;
_chemical_formula_sum "Si O2"
_cell_formula_units_Z 48
_cell_length_a 8.707739
_cell_length_b 22.721944
_cell_length_c 18.648135
_cell_angle_alpha 90.000000
_cell_angle_beta 140.652063
_cell_angle_gamma 90.000000
_cell_volume 2339.347789
_symmetry_space_group_name_H-M "C 2/C"
_symmetry_group_IT_number 15
_symmetry_cell_setting 'monoclinic'
loop_
_space_group_symop_operation_xyz
x,y,z
-x,y,1/2-z
-x,-y,-z
x,-y,1/2+z
1/2+x,1/2+y,z
1/2-x,1/2+y,1/2-z
1/2-x,1/2-y,-z
1/2+x,1/2-y,1/2+z
loop_
_atom_site_type_symbol
_atom_site_label
_atom_site_fract_x
_atom_site_fract_y
_atom_site_fract_z
Si Si1 0.345232 0.822011 0.764942
Si Si2 0.513266 0.518529 0.920965
Si Si3 0.132292 0.104975 0.424574
Si Si4 0.752910 0.374985 0.132530
Si Si5 0.409310 0.111029 0.013054
Si Si6 0.563695 0.292559 0.394191
O O1 0.500000 0.836999 0.750000
O O2 0.474357 0.856914 0.876027
O O3 0.378371 0.751530 0.788226
O O4 0.068164 0.844548 0.661462
O O5 0.495859 0.458026 0.871803
O O6 0.299370 0.566105 0.839800
O O7 0.500000 0.500000 0.000000
O O8 0.755024 0.554230 0.983859
O O9 0.232507 0.112569 0.541504
O O10 0.363466 0.101357 0.456612
O O11 0.552830 0.328906 0.083358
O O12 0.000000 0.349471 0.250000
O O13 0.218365 0.157582 0.908686
O O14 0.750000 0.250000 0.500000
#
# Coordination Sequence:
#
# PCOD9282275 Si02
#       6
#     8   8   8   8   8   8
#     4  11  22  39  62  87 118 161 202 247 304 365
#     4   9  19  38  62  87 121 161 198 242 298 364
#     4  11  22  37  61  94 121 154 200 252 301 357
#     4  10  22  40  60  85 119 161 202 242 300 364
#     4  10  21  39  60  91 124 154 199 251 304 359
#     4   9  20  39  58  80 115 155 197 244 292 355
#
# _framework density 20.518539000000001
#
# number of rings (size 3 to 8) (size 9 to 14) (size 15 to 20)
#    0.000    2.000    0.000    5.000    0.000    7.333 
#    0.000    9.167    0.000    0.000    0.000    0.000 
#    0.000    0.000    0.000    0.000    0.000    0.000 
#
# Total GULP energy -133738.808838 kJ/mol
# GULP energy per Si atom -5572.450368 kJ/mol
# Density = 2.047184 g / cm^3
# Si number density = 20.518539 Si / 1000 Ang^3
#
#
#
# Elastic Constant Matrix: (Units=GPa)
#
#
# Indices 1 2 3 4 5 6 
#
# 1 138.2523 43.8511 16.7809 0.0001 14.0290 -0.0001
# 2 43.8511 100.9514 13.5291 0.0000 0.9795 0.0000
# 3 16.7809 13.5291 51.5909 0.0001 5.0009 0.0000
# 4 0.0001 0.0000 0.0001 27.6747 0.0000 -1.6442
# 5 14.0290 0.9795 5.0009 0.0000 21.0162 0.0000
# 6 -0.0001 0.0000 0.0000 -1.6442 0.0000 14.7084
#
#
#
# Elastic Compliance Matrix: (Units=1/GPa)
#
#
# Indices 1 2 3 4 5 6 
#
# 1 0.009161 -0.003729 -0.001459 0.000000 -0.005594 0.000000
# 2 -0.003729 0.011785 -0.002114 0.000000 0.002443 0.000000
# 3 -0.001459 -0.002114 0.020788 0.000000 -0.003874 0.000000
# 4 0.000000 0.000000 0.000000 0.036376 0.000000 0.004066
# 5 -0.005594 0.002443 -0.003874 0.000000 0.052124 0.000000
# 6 0.000000 0.000000 0.000000 0.004066 0.000000 0.068443
#
#
# Mechanical properties :
#
#
# Convention : Reuss Voigt Hill
#
# Bulk Modulus (GPa) = 36.86270 48.79074 42.82672
# Shear Modulus (GPa) = 22.48946 27.12211 24.80578
#
# Velocity S-wave (km/s) = 3.31426 3.63965 3.48076
# Velocity P-wave (km/s) = 5.71405 6.44152 6.08866
#
# Compressibility (1/GPa) = 0.02712769
#
# Stress axis : x y z
#
# Youngs Moduli (GPa) = 109.16020 84.85088 48.10479
#
# Poissons Ratio (x) = 0.31644 0.07021
# Poissons Ratio (y) = 0.40710 0.10171
# Poissons Ratio (z) = 0.15932 0.17941
#
# Static dielectric constant tensor:
#      x y z
#    x 1.731670 0.000000 0.013630 
#    y 0.000000 1.754160 0.000000 
#    z 0.013630 0.000000 1.731280 
# 
# From -- ./inp_files/234338.got.cif
#   From: 2010.05.17/outbox.cif.g08.bks.cpg/sg15_118_cif.got.tgz:234338.got - 2010.06.03 18:47:42.
