data_PCOD9282691
_publ_section_title
;
Structure prediction by ZEFSAII (Michael W. Deem and Ramdas Pophale) SiO2 
 PCOD9282691
Probable space group: C 2/C
;
_chemical_formula_sum "Si O2"
_cell_formula_units_Z 40
_cell_length_a 11.857530
_cell_length_b 16.022413
_cell_length_c 17.935022
_cell_angle_alpha 90.000000
_cell_angle_beta 149.528201
_cell_angle_gamma 90.000000
_cell_volume 1727.944725
_symmetry_space_group_name_H-M "C 2/C"
_symmetry_group_IT_number 15
_symmetry_cell_setting 'monoclinic'
loop_
_space_group_symop_operation_xyz
x,y,z
-x,y,1/2-z
-x,-y,-z
x,-y,1/2+z
1/2+x,1/2+y,z
1/2-x,1/2+y,1/2-z
1/2-x,1/2-y,-z
1/2+x,1/2-y,1/2+z
loop_
_atom_site_type_symbol
_atom_site_label
_atom_site_fract_x
_atom_site_fract_y
_atom_site_fract_z
Si Si1 0.910870 0.160476 0.274388
Si Si2 0.169763 0.838804 0.489396
Si Si3 0.494978 0.053155 0.394727
Si Si4 0.198918 0.605023 0.663462
Si Si5 0.072618 0.775071 0.007923
O O1 0.718613 0.108286 0.204669
O O2 0.093492 0.178432 0.441271
O O3 0.000000 0.118140 0.250000
O O4 0.791958 0.244780 0.175887
O O5 0.250000 0.750000 0.500000
O O6 0.368354 0.904177 0.593120
O O7 0.083646 0.824524 0.523741
O O8 0.952940 0.872490 0.322822
O O9 0.656947 0.062301 0.559178
O O10 0.405876 0.959719 0.337394
O O11 0.059680 0.689774 0.583716
#
# Coordination Sequence:
#
# PCOD9282691 Si02
#       5
#     8   8   8   8   8
#     4  11  23  41  63  95 134 181 235 285 350 425
#     4  12  21  39  71 103 137 179 238 303 337 423
#     4  10  23  38  66 102 138 184 228 293 358 417
#     4  10  21  39  64 101 140 176 232 283 352 420
#     4  11  22  41  70  98 130 185 239 286 347 419
#
# _framework density 23.148889
#
# number of rings (size 3 to 8) (size 9 to 14) (size 15 to 20)
#    0.000    1.200    6.000    1.200    0.000    7.200 
#    0.000    1.000    4.400    4.800    0.000    0.000 
#    0.000    0.000    0.000    0.000    0.000    0.000 
#
# Total GULP energy -111859.898301 kJ/mol
# GULP energy per Si atom -5592.994915 kJ/mol
# Density = 2.309620 g / cm^3
# Si number density = 23.148889 Si / 1000 Ang^3
#
#
#
# Elastic Constant Matrix: (Units=GPa)
#
#
# Indices 1 2 3 4 5 6 
#
# 1 95.2218 26.0156 28.7945 0.0000 9.9939 -0.0005
# 2 26.0156 65.1899 31.2899 0.0026 10.8404 -0.0003
# 3 28.7945 31.2899 84.7403 0.0038 -3.3783 -0.0001
# 4 0.0000 0.0026 0.0038 21.3579 0.0000 22.0878
# 5 9.9939 10.8404 -3.3783 0.0000 38.1036 -0.0008
# 6 -0.0005 -0.0003 -0.0001 22.0878 -0.0008 14.6936
#
#
#
# Elastic Compliance Matrix: (Units=1/GPa)
#
#
# Indices 1 2 3 4 5 6 
#
# 1 0.012602 -0.002996 -0.003285 -0.000001 -0.002744 0.000002
# 2 -0.002996 0.020797 -0.006890 0.000002 -0.005742 -0.000003
# 3 -0.003285 -0.006890 0.015629 0.000004 0.004208 -0.000005
# 4 -0.000001 0.000002 0.000004 -0.084422 0.000003 0.126906
# 5 -0.002744 -0.005742 0.004208 0.000003 0.028971 -0.000003
# 6 0.000002 -0.000003 -0.000005 0.126906 -0.000003 -0.122712
#
#
# Mechanical properties :
#
#
# Convention : Reuss Voigt Hill
#
# Bulk Modulus (GPa) = 44.08113 46.37246 45.22679
# Shear Modulus (GPa) = -52.50421 25.43446 -13.53487
#
# Velocity S-wave (km/s) = -4.76763 3.31831 -2.42066
# Velocity P-wave (km/s) = 3.35012 5.89554 3.43031
#
# Compressibility (1/GPa) = 0.02268545
#
# Stress axis : x y z
#
# Youngs Moduli (GPa) = 79.35406 48.08293 63.98358
#
# Poissons Ratio (x) = 0.14405 0.21020
# Poissons Ratio (y) = 0.23773 0.44086
# Poissons Ratio (z) = 0.26070 0.33130
#
# Static dielectric constant tensor:
#      x y z
#    x 2.149370 0.000000 -0.181020 
#    y 0.000000 1.875340 0.000000 
#    z -0.181020 0.000000 1.971250 
# 
# From -- ./inp_files/199733.got.cif
#   From: 2010.05.17/outbox.cif.g08.bks.cpg/sg15_100_cif.got.tgz:199733.got - 2010.06.03 18:47:42.
