data_PCOD9282498
_publ_section_title
;
Structure prediction by ZEFSAII (Michael W. Deem and Ramdas Pophale) SiO2 
 PCOD9282498
Probable space group: C 2/C
;
_chemical_formula_sum "Si O2"
_cell_formula_units_Z 60
_cell_length_a 7.852590
_cell_length_b 11.557452
_cell_length_c 27.066723
_cell_angle_alpha 90.000000
_cell_angle_beta 79.465917
_cell_angle_gamma 90.000000
_cell_volume 2415.065208
_symmetry_space_group_name_H-M "C 2/C"
_symmetry_group_IT_number 15
_symmetry_cell_setting 'monoclinic'
loop_
_space_group_symop_operation_xyz
x,y,z
-x,y,1/2-z
-x,-y,-z
x,-y,1/2+z
1/2+x,1/2+y,z
1/2-x,1/2+y,1/2-z
1/2-x,1/2-y,-z
1/2+x,1/2-y,1/2+z
loop_
_atom_site_type_symbol
_atom_site_label
_atom_site_fract_x
_atom_site_fract_y
_atom_site_fract_z
Si Si1 0.593358 0.840148 0.122672
Si Si2 0.326956 0.483672 0.050381
Si Si3 0.554876 0.260278 0.970504
Si Si4 0.643218 0.082589 0.466845
Si Si5 0.000000 0.080156 0.750000
Si Si6 0.423970 0.252755 0.165833
Si Si7 0.615720 0.006712 0.794331
Si Si8 0.163486 0.103712 0.587092
O O1 0.540731 0.763930 0.077699
O O2 0.751048 0.778603 0.142916
O O3 0.665244 0.957588 0.093625
O O4 0.445255 0.885698 0.167544
O O5 0.364202 0.614385 0.036772
O O6 0.293019 0.418257 0.000611
O O7 0.487092 0.437652 0.072448
O O8 0.445360 0.207663 0.022768
O O9 0.718445 0.176117 0.955543
O O10 0.500000 0.000000 0.500000
O O11 0.722990 0.016564 0.415211
O O12 0.173330 0.010764 0.723415
O O13 0.082710 0.164415 0.786376
O O14 0.431443 0.118945 0.180466
O O15 0.597275 0.304801 0.130928
O O16 0.500000 0.016975 0.750000
#
# Coordination Sequence:
#
# PCOD9282498 Si02
#       8
#     8   8   8   8   4   8   8   8
#     4  10  23  42  63  94 131 163 217 272 323 395
#     4  10  21  39  64  91 129 174 216 267 329 387
#     4  10  21  39  62  93 129 175 216 269 327 384
#     4   9  20  38  60  94 132 170 221 275 321 383
#     4  12  26  44  68 100 128 166 220 270 338 408
#     4  11  24  44  67  97 131 172 219 271 339 400
#     4  12  25  45  71  96 130 171 215 276 339 396
#     4  10  21  39  63  91 129 168 218 268 315 389
#
# _framework density 24.844049999999999
#
# number of rings (size 3 to 8) (size 9 to 14) (size 15 to 20)
#    0.000    1.600    2.000    2.000    0.000    6.933 
#    2.400   10.667    0.000    0.000    0.000    0.000 
#    0.000    0.000    0.000    0.000    0.000    0.000 
#
# Total GULP energy -167594.510920 kJ/mol
# GULP energy per Si atom -5586.483697 kJ/mol
# Density = 2.478750 g / cm^3
# Si number density = 24.844050 Si / 1000 Ang^3
#
#
#
# Elastic Constant Matrix: (Units=GPa)
#
#
# Indices 1 2 3 4 5 6 
#
# 1 126.5532 14.9654 32.9775 0.0000 10.5436 0.0000
# 2 14.9654 132.3554 33.4317 0.0000 0.9795 0.0000
# 3 32.9775 33.4317 95.7385 0.0000 -5.4611 0.0000
# 4 0.0000 0.0000 0.0000 44.2818 0.0000 -0.6745
# 5 10.5436 0.9795 -5.4611 0.0000 45.6789 0.0000
# 6 0.0000 0.0000 0.0000 -0.6745 0.0000 34.3703
#
#
#
# Elastic Compliance Matrix: (Units=1/GPa)
#
#
# Indices 1 2 3 4 5 6 
#
# 1 0.008950 -0.000198 -0.003153 0.000000 -0.002439 0.000000
# 2 -0.000198 0.008303 -0.002859 0.000000 -0.000474 0.000000
# 3 -0.003153 -0.002859 0.012661 0.000000 0.002303 0.000000
# 4 0.000000 0.000000 0.000000 0.022589 0.000000 0.000443
# 5 -0.002439 -0.000474 0.002303 0.000000 0.022740 0.000000
# 6 0.000000 0.000000 0.000000 0.000443 0.000000 0.029104
#
#
# Mechanical properties :
#
#
# Convention : Reuss Voigt Hill
#
# Bulk Modulus (GPa) = 57.15606 57.48848 57.32227
# Shear Modulus (GPa) = 40.78400 43.08438 41.93419
#
# Velocity S-wave (km/s) = 4.05606 4.16888 4.11286
# Velocity P-wave (km/s) = 6.70756 6.80902 6.75848
#
# Compressibility (1/GPa) = 0.01749596
#
# Stress axis : x y z
#
# Youngs Moduli (GPa) = 111.73259 120.43419 78.98459
#
# Poissons Ratio (x) = 0.02379 0.24904
# Poissons Ratio (y) = 0.02207 0.22578
# Poissons Ratio (z) = 0.35229 0.34426
#
# Static dielectric constant tensor:
#      x y z
#    x 2.139590 0.000000 0.026760 
#    y 0.000000 2.011360 0.000000 
#    z 0.026760 0.000000 2.054000 
# 
# From -- ./inp_files/307469.got.cif
#   From: 2010.05.17/outbox.cif.g08.bks.cpg/sg15_154_cif.got.tgz:307469.got - 2010.06.03 18:47:42.
