data_PCOD9282304
_publ_section_title
;
Structure prediction by ZEFSAII (Michael W. Deem and Ramdas Pophale) SiO2 
 PCOD9282304
Probable space group: C 2/C
;
_chemical_formula_sum "Si O2"
_cell_formula_units_Z 52
_cell_length_a 9.134388
_cell_length_b 9.616988
_cell_length_c 25.212610
_cell_angle_alpha 90.000000
_cell_angle_beta 87.581499
_cell_angle_gamma 90.000000
_cell_volume 2212.836456
_symmetry_space_group_name_H-M "C 2/C"
_symmetry_group_IT_number 15
_symmetry_cell_setting 'monoclinic'
loop_
_space_group_symop_operation_xyz
x,y,z
-x,y,1/2-z
-x,-y,-z
x,-y,1/2+z
1/2+x,1/2+y,z
1/2-x,1/2+y,1/2-z
1/2-x,1/2-y,-z
1/2+x,1/2-y,1/2+z
loop_
_atom_site_type_symbol
_atom_site_label
_atom_site_fract_x
_atom_site_fract_y
_atom_site_fract_z
Si Si1 0.692607 0.655417 0.302793
Si Si2 0.774654 0.999056 0.044137
Si Si3 0.100791 0.286860 0.602793
Si Si4 0.500000 0.453592 0.250000
Si Si5 0.202699 0.395654 0.243129
Si Si6 0.603814 0.533366 0.069092
Si Si7 0.233084 0.754542 0.369937
O O1 0.776695 0.673085 0.355663
O O2 0.560104 0.544502 0.297906
O O3 0.803898 0.561585 0.262890
O O4 0.616523 0.798070 0.284242
O O5 0.754294 0.872581 0.085163
O O6 0.935201 0.063779 0.055867
O O7 0.644119 0.108926 0.054510
O O8 0.794590 0.945761 0.984149
O O9 0.114498 0.128024 0.584530
O O10 0.935482 0.298656 0.627608
O O11 0.361201 0.367872 0.268865
O O12 0.218714 0.325054 0.185791
O O13 0.662881 0.629982 0.114493
#
# Coordination Sequence:
#
# PCOD9282304 Si02
#       7
#     8   8   8   4   8   8   8
#     4  10  22  39  62  85 119 165 202 252 302 366
#     4  10  21  45  63  90 126 166 208 252 316 363
#     4  11  23  40  62  94 127 161 204 257 310 367
#     4   8  20  40  58  80 118 162 194 254 296 354
#     4  10  21  39  61  84 121 162 202 252 303 361
#     4  10  24  39  68  91 124 165 206 260 306 378
#     4  11  23  39  62  95 125 160 205 257 312 366
#
# _framework density 23.499251000000001
#
# number of rings (size 3 to 8) (size 9 to 14) (size 15 to 20)
#    0.923    0.923    1.538    1.846    2.154    4.308 
#    2.769    0.769    0.000    0.000    0.000    0.000 
#    0.000    0.000    0.000    0.000    0.000    0.000 
#
# Total GULP energy -144989.535651 kJ/mol
# GULP energy per Si atom -5576.520602 kJ/mol
# Density = 2.344577 g / cm^3
# Si number density = 23.499251 Si / 1000 Ang^3
#
#
#
# Elastic Constant Matrix: (Units=GPa)
#
#
# Indices 1 2 3 4 5 6 
#
# 1 69.3415 5.0472 13.6215 0.0000 -2.7261 0.0000
# 2 5.0472 76.5549 13.4325 0.0000 -5.8671 0.0000
# 3 13.6215 13.4325 50.2322 0.0000 0.3510 0.0000
# 4 0.0000 0.0000 0.0000 35.5911 0.0000 1.0826
# 5 -2.7261 -5.8671 0.3510 0.0000 34.1578 0.0000
# 6 0.0000 0.0000 0.0000 1.0826 0.0000 16.3723
#
#
#
# Elastic Compliance Matrix: (Units=1/GPa)
#
#
# Indices 1 2 3 4 5 6 
#
# 1 0.015290 -0.000194 -0.004103 0.000000 0.001229 0.000000
# 2 -0.000194 0.013906 -0.003683 0.000000 0.002411 0.000000
# 3 -0.004103 -0.003683 0.022013 0.000000 -0.001186 0.000000
# 4 0.000000 0.000000 0.000000 0.028154 0.000000 -0.001862
# 5 0.001229 0.002411 -0.001186 0.000000 0.029800 0.000000
# 6 0.000000 0.000000 0.000000 -0.001862 0.000000 0.061202
#
#
# Mechanical properties :
#
#
# Convention : Reuss Voigt Hill
#
# Bulk Modulus (GPa) = 28.36888 28.92566 28.64727
# Shear Modulus (GPa) = 25.24306 28.15942 26.70124
#
# Velocity S-wave (km/s) = 3.28107 3.46542 3.37450
# Velocity P-wave (km/s) = 5.14318 5.32429 5.23452
#
# Compressibility (1/GPa) = 0.03524989
#
# Stress axis : x y z
#
# Youngs Moduli (GPa) = 65.40317 71.90984 45.42720
#
# Poissons Ratio (x) = 0.01395 0.18638
# Poissons Ratio (y) = 0.01268 0.16730
# Poissons Ratio (z) = 0.26834 0.26484
#
# Static dielectric constant tensor:
#      x y z
#    x 2.043130 0.000000 -0.052040 
#    y 0.000000 1.906510 0.000000 
#    z -0.052040 0.000000 1.883410 
# 
# From -- ./inp_files/291219.got.cif
#   From: 2010.05.17/outbox.cif.g08.bks.cpg/sg15_146_cif.got.tgz:291219.got - 2010.06.03 18:47:42.
