data_PCOD9282667
_publ_section_title
;
Structure prediction by ZEFSAII (Michael W. Deem and Ramdas Pophale) SiO2 
 PCOD9282667
Probable space group: C 2/C
;
_chemical_formula_sum "Si O2"
_cell_formula_units_Z 52
_cell_length_a 17.299656
_cell_length_b 5.323159
_cell_length_c 30.011771
_cell_angle_alpha 90.000000
_cell_angle_beta 124.724220
_cell_angle_gamma 90.000000
_cell_volume 2271.534127
_symmetry_space_group_name_H-M "C 2/C"
_symmetry_group_IT_number 15
_symmetry_cell_setting 'monoclinic'
loop_
_space_group_symop_operation_xyz
x,y,z
-x,y,1/2-z
-x,-y,-z
x,-y,1/2+z
1/2+x,1/2+y,z
1/2-x,1/2+y,1/2-z
1/2-x,1/2-y,-z
1/2+x,1/2-y,1/2+z
loop_
_atom_site_type_symbol
_atom_site_label
_atom_site_fract_x
_atom_site_fract_y
_atom_site_fract_z
Si Si1 0.549958 0.334301 0.427639
Si Si2 0.345247 0.828470 0.007991
Si Si3 0.988575 0.398128 0.824964
Si Si4 0.146602 0.300509 0.160147
Si Si5 0.000000 0.701511 0.750000
Si Si6 0.909640 0.562722 0.439552
Si Si7 0.844148 0.978985 0.252290
O O1 0.584669 0.601066 0.456314
O O2 0.539133 0.314932 0.370626
O O3 0.450380 0.267708 0.418486
O O4 0.618745 0.102238 0.463690
O O5 0.250000 0.750000 0.000000
O O6 0.335923 0.842194 0.951486
O O7 0.947722 0.588517 0.847984
O O8 0.043865 0.533694 0.804106
O O9 0.895904 0.287361 0.771197
O O10 0.126219 0.327577 0.101114
O O11 0.164554 0.066735 0.198891
O O12 0.240614 0.465735 0.198296
O O13 0.917421 0.856456 0.747355
O O14 0.000000 0.500000 0.500000
#
# Coordination Sequence:
#
# PCOD9282667 Si02
#       7
#     8   8   8   8   4   8   8
#     4  10  23  41  69  88 130 173 221 267 330 400
#     4  11  23  43  64  98 130 169 217 279 331 389
#     4  10  22  40  61  93 123 174 212 268 332 399
#     4  10  21  39  63  96 123 167 220 274 327 386
#     4  10  24  38  60  92 130 168 220 262 344 402
#     4   9  21  41  64  93 126 170 223 266 329 396
#     4  11  21  40  64  89 132 165 217 278 327 405
#
# _framework density 22.892018
#
# number of rings (size 3 to 8) (size 9 to 14) (size 15 to 20)
#    0.000    1.846    1.538    1.385    8.615    1.231 
#    5.538    0.000    0.000    0.000    0.000    0.000 
#    0.000    0.000    0.000    0.000    0.000    0.000 
#
# Total GULP energy -145045.897627 kJ/mol
# GULP energy per Si atom -5578.688370 kJ/mol
# Density = 2.283991 g / cm^3
# Si number density = 22.892018 Si / 1000 Ang^3
#
#
#
# Elastic Constant Matrix: (Units=GPa)
#
#
# Indices 1 2 3 4 5 6 
#
# 1 116.1758 23.9733 37.7697 0.0000 -28.1639 0.0001
# 2 23.9733 80.9797 23.2422 -0.0003 -0.1154 0.0003
# 3 37.7697 23.2422 102.2552 0.0000 -11.0515 0.0000
# 4 0.0000 -0.0003 0.0000 22.2173 0.0000 1.2464
# 5 -28.1639 -0.1154 -11.0515 0.0000 30.8800 0.0000
# 6 0.0001 0.0003 0.0000 1.2464 0.0000 25.5438
#
#
#
# Elastic Compliance Matrix: (Units=1/GPa)
#
#
# Indices 1 2 3 4 5 6 
#
# 1 0.012705 -0.002917 -0.002890 0.000000 0.010542 0.000000
# 2 -0.002917 0.013914 -0.002462 0.000000 -0.003489 0.000000
# 3 -0.002890 -0.002462 0.011568 0.000000 0.001495 0.000000
# 4 0.000000 0.000000 0.000000 0.045134 0.000000 -0.002202
# 5 0.010542 -0.003489 0.001495 0.000000 0.042520 0.000000
# 6 0.000000 0.000000 0.000000 -0.002202 0.000000 0.039256
#
#
# Mechanical properties :
#
#
# Convention : Reuss Voigt Hill
#
# Bulk Modulus (GPa) = 46.19307 52.15344 49.17326
# Shear Modulus (GPa) = 26.47584 30.02327 28.24955
#
# Velocity S-wave (km/s) = 3.40450 3.62542 3.51669
# Velocity P-wave (km/s) = 5.97300 6.35269 6.16577
#
# Compressibility (1/GPa) = 0.02164827
#
# Stress axis : x y z
#
# Youngs Moduli (GPa) = 78.71025 71.87033 86.44280
#
# Poissons Ratio (x) = 0.20961 0.24986
# Poissons Ratio (y) = 0.22956 0.21286
# Poissons Ratio (z) = 0.22751 0.17698
#
# Static dielectric constant tensor:
#      x y z
#    x 1.865670 0.000000 0.003630 
#    y 0.000000 1.945060 0.000000 
#    z 0.003630 0.000000 1.917580 
# 
# From -- ./inp_files/297850.got.cif
#   From: 2010.05.17/outbox.cif.g08.bks.cpg/sg15_149_cif.got.tgz:297850.got - 2010.06.03 18:47:42.
