data_PCOD9282610
_publ_section_title
;
Structure prediction by ZEFSAII (Michael W. Deem and Ramdas Pophale) SiO2 
 PCOD9282610
Probable space group: C 2/C
;
_chemical_formula_sum "Si O2"
_cell_formula_units_Z 56
_cell_length_a 11.743401
_cell_length_b 15.876604
_cell_length_c 16.453040
_cell_angle_alpha 90.000000
_cell_angle_beta 121.185026
_cell_angle_gamma 90.000000
_cell_volume 2624.324141
_symmetry_space_group_name_H-M "C 2/C"
_symmetry_group_IT_number 15
_symmetry_cell_setting 'monoclinic'
loop_
_space_group_symop_operation_xyz
x,y,z
-x,y,1/2-z
-x,-y,-z
x,-y,1/2+z
1/2+x,1/2+y,z
1/2-x,1/2+y,1/2-z
1/2-x,1/2-y,-z
1/2+x,1/2-y,1/2+z
loop_
_atom_site_type_symbol
_atom_site_label
_atom_site_fract_x
_atom_site_fract_y
_atom_site_fract_z
Si Si1 0.871583 0.535278 0.500071
Si Si2 0.984188 0.228931 0.598889
Si Si3 0.889245 0.277660 0.015714
Si Si4 0.655034 0.541176 0.280615
Si Si5 0.208630 0.145952 0.781971
Si Si6 0.094895 0.782714 0.706645
Si Si7 0.236255 0.366210 0.001632
O O1 0.910838 0.625484 0.549608
O O2 0.750301 0.552540 0.393401
O O3 0.815628 0.459823 0.534042
O O4 0.000000 0.500000 0.500000
O O5 0.875048 0.302454 0.573912
O O6 0.884660 0.156316 0.528157
O O7 0.086382 0.266786 0.570816
O O8 0.070992 0.190129 0.703310
O O9 0.997326 0.217604 0.094887
O O10 0.750000 0.250000 0.000000
O O11 0.500000 0.532357 0.250000
O O12 0.697468 0.452851 0.256377
O O13 0.668631 0.627921 0.236985
O O14 0.315028 0.201069 0.772575
O O15 0.248856 0.146237 0.893343
O O16 0.000000 0.776114 0.750000
#
# Coordination Sequence:
#
# PCOD9282610 Si02
#       7
#     8   8   8   8   8   8   8
#     4  11  20  39  64  93 119 166 221 261 304 392
#     4  11  21  38  62  94 122 163 204 265 319 369
#     4  12  23  40  63  94 125 166 214 262 323 376
#     4  10  21  39  63  92 119 170 216 253 311 396
#     4  11  20  39  65  90 123 164 215 262 312 375
#     4  11  23  41  61  89 128 166 210 262 318 384
#     4  10  22  39  64  92 125 160 217 259 315 376
#
# _framework density 21.338829
#
# number of rings (size 3 to 8) (size 9 to 14) (size 15 to 20)
#    0.000    1.143    2.857    6.429    0.000    0.000 
#    0.000    4.286    0.000    0.857    0.000    0.000 
#    0.000    0.000    0.000    0.000    0.000    0.000 
#
# Total GULP energy -156227.152499 kJ/mol
# GULP energy per Si atom -5579.541161 kJ/mol
# Density = 2.129026 g / cm^3
# Si number density = 21.338829 Si / 1000 Ang^3
#
#
#
# Elastic Constant Matrix: (Units=GPa)
#
#
# Indices 1 2 3 4 5 6 
#
# 1 96.7318 41.1411 -0.5333 0.0000 10.4610 0.0000
# 2 41.1411 158.7362 11.9728 0.0000 -9.9081 0.0000
# 3 -0.5333 11.9728 60.8268 0.0000 15.4950 0.0000
# 4 0.0000 0.0000 0.0000 37.2849 0.0000 5.8832
# 5 10.4610 -9.9081 15.4950 0.0000 29.0302 0.0000
# 6 0.0000 0.0000 0.0000 5.8832 0.0000 40.0703
#
#
#
# Elastic Compliance Matrix: (Units=1/GPa)
#
#
# Indices 1 2 3 4 5 6 
#
# 1 0.012875 -0.004019 0.002818 0.000000 -0.007516 0.000000
# 2 -0.004019 0.007935 -0.003074 0.000000 0.005797 0.000000
# 3 0.002818 -0.003074 0.020365 0.000000 -0.012935 0.000000
# 4 0.000000 0.000000 0.000000 0.027457 0.000000 -0.004031
# 5 -0.007516 0.005797 -0.012935 0.000000 0.046038 0.000000
# 6 0.000000 0.000000 0.000000 -0.004031 0.000000 0.025548
#
#
# Mechanical properties :
#
#
# Convention : Reuss Voigt Hill
#
# Bulk Modulus (GPa) = 30.64957 46.82845 38.73901
# Shear Modulus (GPa) = 31.32019 38.85802 35.08910
#
# Velocity S-wave (km/s) = 3.83529 4.27195 4.05949
# Velocity P-wave (km/s) = 5.83155 6.80629 6.33769
#
# Compressibility (1/GPa) = 0.03262689
#
# Stress axis : x y z
#
# Youngs Moduli (GPa) = 77.66758 126.02344 49.10429
#
# Poissons Ratio (x) = 0.50645 -0.13840
# Poissons Ratio (y) = 0.31213 0.15094
# Poissons Ratio (z) = -0.21890 0.38738
#
# Static dielectric constant tensor:
#      x y z
#    x 1.875690 0.000000 -0.109330 
#    y 0.000000 1.796320 0.000000 
#    z -0.109330 0.000000 2.640710 
# 
# From -- ./inp_files/198414.got.cif
#   From: 2010.05.17/outbox.cif.g08.bks.cpg/sg15_100_cif.got.tgz:198414.got - 2010.06.03 18:47:42.
