data_PCOD9282765
_publ_section_title
;
Structure prediction by ZEFSAII (Michael W. Deem and Ramdas Pophale) SiO2 
 PCOD9282765
Probable space group: C 2/C
;
_chemical_formula_sum "Si O2"
_cell_formula_units_Z 56
_cell_length_a 17.360782
_cell_length_b 16.284367
_cell_length_c 21.695955
_cell_angle_alpha 90.000000
_cell_angle_beta 154.702061
_cell_angle_gamma 90.000000
_cell_volume 2621.063759
_symmetry_space_group_name_H-M "C 2/C"
_symmetry_group_IT_number 15
_symmetry_cell_setting 'monoclinic'
loop_
_space_group_symop_operation_xyz
x,y,z
-x,y,1/2-z
-x,-y,-z
x,-y,1/2+z
1/2+x,1/2+y,z
1/2-x,1/2+y,1/2-z
1/2-x,1/2-y,-z
1/2+x,1/2-y,1/2+z
loop_
_atom_site_type_symbol
_atom_site_label
_atom_site_fract_x
_atom_site_fract_y
_atom_site_fract_z
Si Si1 0.500000 0.348780 0.750000
Si Si2 0.254588 0.843032 0.527924
Si Si3 0.085834 0.722855 0.589896
Si Si4 0.310367 0.209635 0.695641
Si Si5 0.777410 0.001189 0.043601
Si Si6 0.161153 0.357172 0.773493
Si Si7 0.000000 0.424404 0.250000
Si Si8 0.524023 0.062891 0.463012
O O1 0.390280 0.289852 0.717428
O O2 0.381216 0.413457 0.625629
O O3 0.250000 0.750000 0.500000
O O4 0.457446 0.859206 0.650514
O O5 0.232043 0.856819 0.584633
O O6 0.130772 0.914860 0.409322
O O7 0.105159 0.697626 0.675434
O O8 0.263753 0.775217 0.703554
O O9 0.067153 0.649756 0.526911
O O10 0.903979 0.777487 0.454366
O O11 0.374019 0.133383 0.700636
O O12 0.627492 0.020817 0.884120
O O13 0.683957 0.977233 0.039595
O O14 0.145529 0.423329 0.706587
O O15 0.500000 0.000000 0.500000
#
# Coordination Sequence:
#
# PCOD9282765 Si02
#       8
#     4   8   8   8   8   8   4   8
#     4  11  24  44  63 102 132 170 233 280 326 405
#     4  10  22  40  66  95 130 178 220 276 336 401
#     4  12  23  41  66  98 133 176 218 274 333 401
#     4  11  24  41  69  94 133 178 224 277 332 401
#     4  11  23  40  68  92 132 168 223 282 333 392
#     4  10  21  39  64  93 131 167 224 267 325 405
#     4  11  22  44  67  94 124 180 229 272 336 389
#     4  11  22  39  62  93 131 173 213 274 340 397
#
# _framework density 21.365369999999999
#
# number of rings (size 3 to 8) (size 9 to 14) (size 15 to 20)
#    0.000    1.143    1.429    6.857    0.000    4.571 
#    0.000    0.000    0.000    6.000    0.000    0.000 
#    0.000    0.000    0.000    0.000    0.000    0.000 
#
# Total GULP energy -156053.856927 kJ/mol
# GULP energy per Si atom -5573.352033 kJ/mol
# Density = 2.131674 g / cm^3
# Si number density = 21.365370 Si / 1000 Ang^3
#
#
#
# Elastic Constant Matrix: (Units=GPa)
#
#
# Indices 1 2 3 4 5 6 
#
# 1 91.6113 37.4489 19.6758 -0.0426 -32.6288 0.0145
# 2 37.4489 127.4267 28.3505 -0.0381 -8.7908 0.0187
# 3 19.6758 28.3505 78.1271 -0.1064 -23.8996 0.0286
# 4 -0.0426 -0.0381 -0.1064 4.5163 -0.0427 -2.8645
# 5 -32.6288 -8.7908 -23.8996 -0.0427 32.0565 0.0154
# 6 0.0145 0.0187 0.0286 -2.8645 0.0154 23.5203
#
#
#
# Elastic Compliance Matrix: (Units=1/GPa)
#
#
# Indices 1 2 3 4 5 6 
#
# 1 0.019896 -0.005126 0.003388 0.000444 0.021371 0.000028
# 2 -0.005126 0.009858 -0.003958 -0.000117 -0.005466 -0.000011
# 3 0.003388 -0.003958 0.018275 0.000607 0.015988 0.000042
# 4 0.000444 -0.000117 0.000607 0.239985 0.001178 0.029226
# 5 0.021371 -0.005466 0.015988 0.001178 0.063370 0.000074
# 6 0.000028 -0.000011 0.000042 0.029226 0.000074 0.046076
#
#
# Mechanical properties :
#
#
# Convention : Reuss Voigt Hill
#
# Bulk Modulus (GPa) = 27.29675 52.01282 39.65479
# Shear Modulus (GPa) = 11.87468 26.13128 19.00298
#
# Velocity S-wave (km/s) = 2.36008 3.50103 2.98556
# Velocity P-wave (km/s) = 4.49784 6.38281 5.52136
#
# Compressibility (1/GPa) = 0.03663439
#
# Stress axis : x y z
#
# Youngs Moduli (GPa) = 50.26259 101.44294 54.72096
#
# Poissons Ratio (x) = 0.52003 -0.18539
# Poissons Ratio (y) = 0.25766 0.21660
# Poissons Ratio (z) = -0.17028 0.40154
#
# Static dielectric constant tensor:
#      x y z
#    x 2.049180 -0.000240 -0.539860 
#    y -0.000240 1.790520 0.000510 
#    z -0.539860 0.000510 2.792960 
# 
# From -- ./inp_files/249310.got.cif
#   From: 2010.05.17/outbox.cif.g08.bks.cpg/sg15_125_cif.got.tgz:249310.got - 2010.06.03 18:47:42.
