data_PCOD9282756
_publ_section_title
;
Structure prediction by ZEFSAII (Michael W. Deem and Ramdas Pophale) SiO2 
 PCOD9282756
Probable space group: C 2/C
;
_chemical_formula_sum "Si O2"
_cell_formula_units_Z 56
_cell_length_a 9.100122
_cell_length_b 27.317462
_cell_length_c 11.719505
_cell_angle_alpha 90.000000
_cell_angle_beta 94.322446
_cell_angle_gamma 90.000000
_cell_volume 2905.091395
_symmetry_space_group_name_H-M "C 2/C"
_symmetry_group_IT_number 15
_symmetry_cell_setting 'monoclinic'
loop_
_space_group_symop_operation_xyz
x,y,z
-x,y,1/2-z
-x,-y,-z
x,-y,1/2+z
1/2+x,1/2+y,z
1/2-x,1/2+y,1/2-z
1/2-x,1/2-y,-z
1/2+x,1/2-y,1/2+z
loop_
_atom_site_type_symbol
_atom_site_label
_atom_site_fract_x
_atom_site_fract_y
_atom_site_fract_z
Si Si1 0.263720 0.049648 0.355961
Si Si2 0.673510 0.351998 0.766221
Si Si3 0.301672 0.255371 0.871747
Si Si4 0.000000 0.486608 0.250000
Si Si5 0.857782 0.176041 0.803480
Si Si6 0.500000 0.481934 0.250000
Si Si7 0.111595 0.781348 0.960823
Si Si8 0.759778 0.925157 0.379948
O O1 0.260911 0.097828 0.275647
O O2 0.410742 0.019607 0.335558
O O3 0.247975 0.067266 0.484965
O O4 0.122985 0.015866 0.317495
O O5 0.500000 0.364821 0.750000
O O6 0.722106 0.310949 0.677279
O O7 0.674789 0.323975 0.886014
O O8 0.227128 0.216101 0.780797
O O9 0.250000 0.250000 0.000000
O O10 0.480273 0.253417 0.889013
O O11 0.878169 0.453492 0.181830
O O12 0.935302 0.199806 0.918826
O O13 0.757874 0.131553 0.841309
O O14 0.000000 0.154353 0.750000
O O15 0.407715 0.449841 0.335853
O O16 0.250000 0.750000 0.000000
#
# Coordination Sequence:
#
# PCOD9282756 Si02
#       8
#     8   8   8   4   8   4   8   8
#     4  11  21  43  67  92 127 167 210 267 325 384
#     4  10  21  39  64  93 122 163 219 256 311 385
#     4  11  24  41  61  96 135 165 213 267 310 382
#     4  10  26  44  60  96 136 162 210 268 328 392
#     4  12  23  41  67  96 128 169 219 265 322 383
#     4  10  22  40  68  98 120 156 216 272 320 384
#     4  11  22  40  64  89 129 171 208 261 319 380
#     4  11  23  42  68  95 125 168 213 266 325 383
#
# _framework density 19.276502000000001
#
# number of rings (size 3 to 8) (size 9 to 14) (size 15 to 20)
#    0.000    1.143    5.714    0.857    0.000    1.143 
#    3.857    1.429    0.000    0.000    0.000    0.000 
#    0.000    0.000    0.000    0.000    0.000    0.000 
#
# Total GULP energy -156106.527822 kJ/mol
# GULP energy per Si atom -5575.233136 kJ/mol
# Density = 1.923263 g / cm^3
# Si number density = 19.276502 Si / 1000 Ang^3
#
#
#
# Elastic Constant Matrix: (Units=GPa)
#
#
# Indices 1 2 3 4 5 6 
#
# 1 85.5226 46.0152 25.1906 0.0000 -1.7456 0.0000
# 2 46.0152 98.2364 43.5558 0.0000 6.7903 0.0000
# 3 25.1906 43.5558 104.7111 0.0000 -12.7567 0.0000
# 4 0.0000 0.0000 0.0000 24.2489 0.0000 -1.7465
# 5 -1.7456 6.7903 -12.7567 0.0000 29.4857 0.0000
# 6 0.0000 0.0000 0.0000 -1.7465 0.0000 33.0952
#
#
#
# Elastic Compliance Matrix: (Units=1/GPa)
#
#
# Indices 1 2 3 4 5 6 
#
# 1 0.015854 -0.007403 -0.000436 0.000000 0.002455 0.000000
# 2 -0.007403 0.016811 -0.006056 0.000000 -0.006930 0.000000
# 3 -0.000436 -0.006056 0.013027 0.000000 0.007005 0.000000
# 4 0.000000 0.000000 0.000000 0.041396 0.000000 0.002185
# 5 0.002455 -0.006930 0.007005 0.000000 0.038687 0.000000
# 6 0.000000 0.000000 0.000000 0.002185 0.000000 0.030331
#
#
# Mechanical properties :
#
#
# Convention : Reuss Voigt Hill
#
# Bulk Modulus (GPa) = 55.85486 57.55481 56.70484
# Shear Modulus (GPa) = 26.33454 28.94652 27.64053
#
# Velocity S-wave (km/s) = 3.70015 3.87931 3.79079
# Velocity P-wave (km/s) = 6.87702 7.07020 6.97428
#
# Compressibility (1/GPa) = 0.01790354
#
# Stress axis : x y z
#
# Youngs Moduli (GPa) = 63.07406 59.48372 76.76089
#
# Poissons Ratio (x) = 0.44035 0.03345
# Poissons Ratio (y) = 0.46693 0.46488
# Poissons Ratio (z) = 0.02748 0.36024
#
# Static dielectric constant tensor:
#      x y z
#    x 1.616020 0.000000 0.033850 
#    y 0.000000 1.757150 0.000000 
#    z 0.033850 0.000000 1.611600 
# 
# From -- ./inp_files/82306.got.cif
#   From: 2010.05.17/outbox.cif.g08.bks.cpg/sg15_42_cif.got.tgz:82306.got - 2010.06.03 18:47:42.
