data_PCOD9282227
_publ_section_title
;
Structure prediction by ZEFSAII (Michael W. Deem and Ramdas Pophale) SiO2 
 PCOD9282227
Probable space group: C 2/C
;
_chemical_formula_sum "Si O2"
_cell_formula_units_Z 52
_cell_length_a 9.564357
_cell_length_b 10.890005
_cell_length_c 25.794258
_cell_angle_alpha 90.000000
_cell_angle_beta 55.187175
_cell_angle_gamma 90.000000
_cell_volume 2205.775942
_symmetry_space_group_name_H-M "C 2/C"
_symmetry_group_IT_number 15
_symmetry_cell_setting 'monoclinic'
loop_
_space_group_symop_operation_xyz
x,y,z
-x,y,1/2-z
-x,-y,-z
x,-y,1/2+z
1/2+x,1/2+y,z
1/2-x,1/2+y,1/2-z
1/2-x,1/2-y,-z
1/2+x,1/2-y,1/2+z
loop_
_atom_site_type_symbol
_atom_site_label
_atom_site_fract_x
_atom_site_fract_y
_atom_site_fract_z
Si Si1 0.851295 0.948676 0.495209
Si Si2 0.000000 0.518810 0.250000
Si Si3 0.477280 0.164577 0.665004
Si Si4 0.221537 0.334277 0.771189
Si Si5 0.971570 0.299780 0.914608
Si Si6 0.785133 0.888446 0.914682
Si Si7 0.156110 0.940122 0.187131
O O1 0.919540 0.832463 0.447585
O O2 0.689692 0.888722 0.558213
O O3 0.787182 0.058924 0.471875
O O4 0.000000 0.000000 0.500000
O O5 0.044384 0.444731 0.187621
O O6 0.843938 0.604909 0.267378
O O7 0.355817 0.230901 0.732179
O O8 0.612401 0.261578 0.615328
O O9 0.339840 0.126088 0.650337
O O10 0.310769 0.443171 0.783133
O O11 0.070390 0.287757 0.839678
O O12 0.100633 0.362873 0.928572
O O13 0.872956 0.997207 0.861933
O O14 0.000000 0.873735 0.250000
#
# Coordination Sequence:
#
# PCOD9282227 Si02
#       7
#     8   4   8   8   8   8   8
#     4  11  27  47  70  97 130 174 239 288 337 389
#     4  10  22  38  58  96 138 166 216 260 318 402
#     4  11  23  36  63  98 131 176 211 265 331 409
#     4  10  22  38  64  93 133 172 214 265 334 397
#     4  10  25  46  68  97 131 178 225 287 337 395
#     4  11  24  44  70  95 137 175 221 275 339 400
#     4  10  21  39  59  94 135 169 211 257 327 407
#
# _framework density 23.574470999999999
#
# number of rings (size 3 to 8) (size 9 to 14) (size 15 to 20)
#    0.000    1.538    1.538    2.308    3.231   10.462 
#    0.000    0.000    0.000    0.000    0.000    0.000 
#    0.000    0.000    0.000    0.000    0.000    0.000 
#
# Total GULP energy -145419.542035 kJ/mol
# GULP energy per Si atom -5593.059309 kJ/mol
# Density = 2.352081 g / cm^3
# Si number density = 23.574471 Si / 1000 Ang^3
#
#
#
# Elastic Constant Matrix: (Units=GPa)
#
#
# Indices 1 2 3 4 5 6 
#
# 1 73.3625 25.3395 5.1761 0.0000 -7.8422 0.0000
# 2 25.3395 80.0953 25.7078 0.0000 -4.2345 0.0000
# 3 5.1761 25.7078 38.0534 0.0000 -14.7921 0.0000
# 4 0.0000 0.0000 0.0000 15.9536 0.0000 -14.8191
# 5 -7.8422 -4.2345 -14.7921 0.0000 32.4897 0.0000
# 6 0.0000 0.0000 0.0000 -14.8191 0.0000 35.5126
#
#
#
# Elastic Compliance Matrix: (Units=1/GPa)
#
#
# Indices 1 2 3 4 5 6 
#
# 1 0.015946 -0.005990 0.003731 0.000000 0.004767 0.000000
# 2 -0.005990 0.018514 -0.013750 0.000000 -0.005293 0.000000
# 3 0.003731 -0.013750 0.042179 0.000000 0.018312 0.000000
# 4 0.000000 0.000000 0.000000 0.102357 0.000000 0.042713
# 5 0.004767 -0.005293 0.018312 0.000000 0.039577 0.000000
# 6 0.000000 0.000000 0.000000 0.042713 0.000000 0.045983
#
#
# Mechanical properties :
#
#
# Convention : Reuss Voigt Hill
#
# Bulk Modulus (GPa) = 22.41165 33.77311 28.09238
# Shear Modulus (GPa) = 16.05402 25.81035 20.93219
#
# Velocity S-wave (km/s) = 2.61241 3.31243 2.98303
# Velocity P-wave (km/s) = 4.31590 5.38394 4.87923
#
# Compressibility (1/GPa) = 0.04461964
#
# Stress axis : x y z
#
# Youngs Moduli (GPa) = 62.71030 54.01391 23.70856
#
# Poissons Ratio (x) = 0.32356 -0.08845
# Poissons Ratio (y) = 0.37566 0.32600
# Poissons Ratio (z) = -0.23396 0.74270
#
# Static dielectric constant tensor:
#      x y z
#    x 1.955760 0.000000 -0.006790 
#    y 0.000000 1.893700 0.000000 
#    z -0.006790 0.000000 1.970520 
# 
# From -- ./inp_files/287900.got.cif
#   From: 2010.05.17/outbox.cif.g08.bks.cpg/sg15_144_cif.got.tgz:287900.got - 2010.06.03 18:47:42.
