data_PCOD9282544
_publ_section_title
;
Structure prediction by ZEFSAII (Michael W. Deem and Ramdas Pophale) SiO2 
 PCOD9282544
Probable space group: C 2/C
;
_chemical_formula_sum "Si O2"
_cell_formula_units_Z 32
_cell_length_a 15.557074
_cell_length_b 16.908043
_cell_length_c 8.425770
_cell_angle_alpha 90.000000
_cell_angle_beta 35.293189
_cell_angle_gamma 90.000000
_cell_volume 1280.497648
_symmetry_space_group_name_H-M "C 2/C"
_symmetry_group_IT_number 15
_symmetry_cell_setting 'monoclinic'
loop_
_space_group_symop_operation_xyz
x,y,z
-x,y,1/2-z
-x,-y,-z
x,-y,1/2+z
1/2+x,1/2+y,z
1/2-x,1/2+y,1/2-z
1/2-x,1/2-y,-z
1/2+x,1/2-y,1/2+z
loop_
_atom_site_type_symbol
_atom_site_label
_atom_site_fract_x
_atom_site_fract_y
_atom_site_fract_z
Si Si1 0.144549 0.971810 0.130506
Si Si2 0.633469 0.949413 0.453076
Si Si3 0.593637 0.352433 0.767239
Si Si4 0.432032 0.185271 0.674882
O O1 0.099803 0.053914 0.288400
O O2 0.000000 0.941717 0.250000
O O3 0.234899 0.920829 0.124521
O O4 0.273003 0.997753 0.811399
O O5 0.544365 0.881301 0.493301
O O6 0.500000 0.992576 0.750000
O O7 0.500000 0.350728 0.750000
O O8 0.539793 0.273452 0.938779
O O9 0.760037 0.330327 0.471151
O O10 0.500000 0.178932 0.750000
#
# Coordination Sequence:
#
# PCOD9282544 Si02
#       4
#     8   8   8   8
#     4  10  21  39  63  87 118 160 204 246 295 358
#     4  11  23  37  58  93 127 157 195 246 305 359
#     4   8  16  33  59  81 105 149 204 242 279 342
#     4   9  18  35  59  85 113 152 199 243 291 351
#
# _framework density 24.990283000000002
#
# number of rings (size 3 to 8) (size 9 to 14) (size 15 to 20)
#    0.000    2.500    0.000    1.500    0.000    8.000 
#    0.000    0.000    0.000   75.000    0.000    1.750 
#    0.000    0.000    0.000    0.000    0.000    0.000 
#
# Total GULP energy -89079.020738 kJ/mol
# GULP energy per Si atom -5567.438796 kJ/mol
# Density = 2.493340 g / cm^3
# Si number density = 24.990283 Si / 1000 Ang^3
#
#
#
# Elastic Constant Matrix: (Units=GPa)
#
#
# Indices 1 2 3 4 5 6 
#
# 1 158.2794 38.9025 55.0785 -0.0002 -19.5986 0.0002
# 2 38.9025 111.2510 26.6442 -0.0002 -3.9616 0.0002
# 3 55.0785 26.6442 87.1487 -0.0002 -4.1716 0.0005
# 4 -0.0002 -0.0002 -0.0002 22.5216 0.0002 3.1535
# 5 -19.5986 -3.9616 -4.1716 0.0002 41.1757 -0.0002
# 6 0.0002 0.0002 0.0005 3.1535 -0.0002 29.6467
#
#
#
# Elastic Compliance Matrix: (Units=1/GPa)
#
#
# Indices 1 2 3 4 5 6 
#
# 1 0.008914 -0.001814 -0.004908 0.000000 0.003571 0.000000
# 2 -0.001814 0.010085 -0.001941 0.000000 -0.000090 0.000000
# 3 -0.004908 -0.001941 0.015122 0.000000 -0.000991 0.000000
# 4 0.000000 0.000000 0.000000 0.045073 0.000000 -0.004794
# 5 0.003571 -0.000090 -0.000991 0.000000 0.025877 0.000000
# 6 0.000000 0.000000 0.000000 -0.004794 0.000000 0.034241
#
#
# Mechanical properties :
#
#
# Convention : Reuss Voigt Hill
#
# Bulk Modulus (GPa) = 59.54265 66.43662 62.98963
# Shear Modulus (GPa) = 30.81918 34.40570 32.61244
#
# Velocity S-wave (km/s) = 3.51557 3.71450 3.61640
# Velocity P-wave (km/s) = 6.35272 6.71114 6.53439
#
# Compressibility (1/GPa) = 0.01679469
#
# Stress axis : x y z
#
# Youngs Moduli (GPa) = 112.18319 99.15934 66.12663
#
# Poissons Ratio (x) = 0.17992 0.32455
# Poissons Ratio (y) = 0.20355 0.12834
# Poissons Ratio (z) = 0.55060 0.19245
#
# Static dielectric constant tensor:
#      x y z
#    x 1.958210 0.000000 0.032740 
#    y 0.000000 2.240400 0.000000 
#    z 0.032740 0.000000 2.027250 
# 
# From -- ./inp_files/40511.got.cif
#   From: 2010.05.17/outbox.cif.g08.bks.cpg/sg15_21_cif.got.tgz:40511.got - 2010.06.03 18:47:42.
