data_PCOD9282367
_publ_section_title
;
Structure prediction by ZEFSAII (Michael W. Deem and Ramdas Pophale) SiO2 
 PCOD9282367
Probable space group: C 2/C
;
_chemical_formula_sum "Si O2"
_cell_formula_units_Z 60
_cell_length_a 12.262955
_cell_length_b 24.681584
_cell_length_c 11.519202
_cell_angle_alpha 90.000000
_cell_angle_beta 127.529995
_cell_angle_gamma 90.000000
_cell_volume 2764.920566
_symmetry_space_group_name_H-M "C 2/C"
_symmetry_group_IT_number 15
_symmetry_cell_setting 'monoclinic'
loop_
_space_group_symop_operation_xyz
x,y,z
-x,y,1/2-z
-x,-y,-z
x,-y,1/2+z
1/2+x,1/2+y,z
1/2-x,1/2+y,1/2-z
1/2-x,1/2-y,-z
1/2+x,1/2-y,1/2+z
loop_
_atom_site_type_symbol
_atom_site_label
_atom_site_fract_x
_atom_site_fract_y
_atom_site_fract_z
Si Si1 0.744023 0.814917 0.386214
Si Si2 0.838473 0.502951 0.107200
Si Si3 0.546537 0.796104 0.910815
Si Si4 0.437912 0.681692 0.477648
Si Si5 0.258154 0.190453 0.351547
Si Si6 0.282029 0.612156 0.547072
Si Si7 0.691148 0.915290 0.219469
Si Si8 0.000000 0.500000 0.000000
O O1 0.733268 0.831502 0.513105
O O2 0.705879 0.752623 0.339408
O O3 0.661045 0.857564 0.256337
O O4 0.902805 0.818603 0.450797
O O5 0.781574 0.458801 0.160041
O O6 0.000000 0.512409 0.250000
O O7 0.762459 0.560098 0.057631
O O8 0.860058 0.486225 0.988237
O O9 0.500000 0.781651 0.750000
O O10 0.407453 0.810589 0.889434
O O11 0.605104 0.742465 0.010917
O O12 0.656156 0.844493 0.973727
O O13 0.348549 0.665246 0.307867
O O14 0.402154 0.643173 0.560792
O O15 0.304484 0.592596 0.693394
O O16 0.562213 0.940587 0.069086
#
# Coordination Sequence:
#
# PCOD9282367 Si02
#       8
#     8   8   8   8   8   8   8   4
#     4  10  23  40  64  90 129 180 217 262 333 398
#     4   9  19  36  56  87 121 155 208 269 324 378
#     4  11  22  35  61  97 126 168 215 268 336 386
#     4  11  23  38  61  91 132 171 219 265 319 405
#     4  10  22  41  60  93 135 170 218 269 319 410
#     4  11  22  37  62  95 127 165 210 275 330 394
#     4  10  21  39  61  91 125 165 213 269 338 386
#     4   8  18  36  60  86 122 154 206 276 320 380
#
# _framework density 21.700444000000001
#
# number of rings (size 3 to 8) (size 9 to 14) (size 15 to 20)
#    0.000    1.867    1.333    2.000    3.733    4.267 
#    4.800    6.000    0.000    0.000    0.000    0.000 
#    0.000    0.000    0.000    0.000    0.000    0.000 
#
# Total GULP energy -167018.183881 kJ/mol
# GULP energy per Si atom -5567.272796 kJ/mol
# Density = 2.165105 g / cm^3
# Si number density = 21.700444 Si / 1000 Ang^3
#
#
#
# Elastic Constant Matrix: (Units=GPa)
#
#
# Indices 1 2 3 4 5 6 
#
# 1 66.7278 11.0675 17.4706 0.0000 -25.9070 0.0000
# 2 11.0675 41.3260 9.8533 0.0000 -3.6052 0.0000
# 3 17.4706 9.8533 59.1872 0.0000 -21.0098 0.0000
# 4 0.0000 0.0000 0.0000 49.8825 0.0000 -10.1551
# 5 -25.9070 -3.6052 -21.0098 0.0000 35.5280 0.0000
# 6 0.0000 0.0000 0.0000 -10.1551 0.0000 33.2157
#
#
#
# Elastic Compliance Matrix: (Units=1/GPa)
#
#
# Indices 1 2 3 4 5 6 
#
# 1 0.021696 -0.004419 -0.000268 0.000000 0.015214 0.000000
# 2 -0.004419 0.026098 -0.004106 0.000000 -0.003002 0.000000
# 3 -0.000268 -0.004106 0.022075 0.000000 0.012442 0.000000
# 4 0.000000 0.000000 0.000000 0.021378 0.000000 0.006536
# 5 0.015214 -0.003002 0.012442 0.000000 0.046294 0.000000
# 6 0.000000 0.000000 0.000000 0.006536 0.000000 0.032105
#
#
# Mechanical properties :
#
#
# Convention : Reuss Voigt Hill
#
# Bulk Modulus (GPa) = 19.12679 27.11377 23.12028
# Shear Modulus (GPa) = 24.43080 32.31522 28.37301
#
# Velocity S-wave (km/s) = 3.35896 3.86314 3.61984
# Velocity P-wave (km/s) = 4.88638 5.69387 5.30551
#
# Compressibility (1/GPa) = 0.05228270
#
# Stress axis : x y z
#
# Youngs Moduli (GPa) = 46.09099 38.31644 45.30059
#
# Poissons Ratio (x) = 0.16933 0.01214
# Poissons Ratio (y) = 0.20369 0.18601
# Poissons Ratio (z) = 0.01235 0.15733
#
# Static dielectric constant tensor:
#      x y z
#    x 1.801960 0.000000 -0.062990 
#    y 0.000000 1.742400 0.000000 
#    z -0.062990 0.000000 1.892860 
# 
# From -- ./inp_files/92076.got.cif
#   From: 2010.05.17/outbox.cif.g08.bks.cpg/sg15_47_cif.got.tgz:92076.got - 2010.06.03 18:47:42.
