data_PCOD9282869
_publ_section_title
;
Structure prediction by ZEFSAII (Michael W. Deem and Ramdas Pophale) SiO2 
 PCOD9282869
Probable space group: C 2/C
;
_chemical_formula_sum "Si O2"
_cell_formula_units_Z 60
_cell_length_a 26.491618
_cell_length_b 21.086547
_cell_length_c 15.699065
_cell_angle_alpha 90.000000
_cell_angle_beta 159.350404
_cell_angle_gamma 90.000000
_cell_volume 3092.671719
_symmetry_space_group_name_H-M "C 2/C"
_symmetry_group_IT_number 15
_symmetry_cell_setting 'monoclinic'
loop_
_space_group_symop_operation_xyz
x,y,z
-x,y,1/2-z
-x,-y,-z
x,-y,1/2+z
1/2+x,1/2+y,z
1/2-x,1/2+y,1/2-z
1/2-x,1/2-y,-z
1/2+x,1/2-y,1/2+z
loop_
_atom_site_type_symbol
_atom_site_label
_atom_site_fract_x
_atom_site_fract_y
_atom_site_fract_z
Si Si1 0.871875 0.385086 0.981728
Si Si2 0.211429 0.230274 0.282514
Si Si3 0.440688 0.935157 0.368626
Si Si4 0.942255 0.651466 0.028874
Si Si5 0.022565 0.142837 0.096651
Si Si6 0.227034 0.381398 0.066770
Si Si7 0.000000 0.811939 0.750000
Si Si8 0.779556 0.029416 0.126083
O O1 0.762802 0.327443 0.804607
O O2 0.796027 0.444376 0.907623
O O3 0.000000 0.367360 0.250000
O O4 0.937912 0.402073 0.996287
O O5 0.102406 0.277165 0.063721
O O6 0.139480 0.194387 0.249355
O O7 0.355539 0.269957 0.528834
O O8 0.397668 0.889785 0.377150
O O9 0.500000 0.000000 0.500000
O O10 0.315139 0.949487 0.104269
O O11 0.856034 0.625698 0.974447
O O12 0.110486 0.642233 0.314400
O O13 0.994185 0.149284 0.152495
O O14 0.078950 0.072172 0.162451
O O15 0.875673 0.155407 0.813900
O O16 0.271257 0.453906 0.117264
#
# Coordination Sequence:
#
# PCOD9282869 Si02
#       8
#     8   8   8   8   8   8   4   8
#     4   9  20  36  61  92 124 162 202 268 327 365
#     4  11  23  41  63  94 128 164 211 263 321 386
#     4  11  20  36  63  97 123 159 215 268 313 381
#     4  11  24  38  65  94 126 174 217 254 317 383
#     4  11  25  41  66  92 128 168 211 268 329 374
#     4  11  23  43  62  90 131 174 212 263 316 385
#     4  12  22  42  64  98 122 158 210 270 316 382
#     4  10  21  39  65  92 125 162 210 263 328 380
#
# _framework density 19.400701000000002
#
# number of rings (size 3 to 8) (size 9 to 14) (size 15 to 20)
#    0.000    1.333    3.333    2.400    5.600    0.533 
#    0.000    1.333    0.000    2.400    0.000    0.000 
#    0.000    0.000    0.000    0.000    0.000    0.000 
#
# Total GULP energy -167452.730984 kJ/mol
# GULP energy per Si atom -5581.757699 kJ/mol
# Density = 1.935654 g / cm^3
# Si number density = 19.400701 Si / 1000 Ang^3
#
#
#
# Elastic Constant Matrix: (Units=GPa)
#
#
# Indices 1 2 3 4 5 6 
#
# 1 80.5262 32.0281 8.9661 0.0000 -2.6214 0.0000
# 2 32.0281 98.6393 32.2227 0.0000 1.1007 0.0000
# 3 8.9661 32.2227 83.8798 0.0000 15.8225 0.0000
# 4 0.0000 0.0000 0.0000 -31.1881 0.0000 -20.9626
# 5 -2.6214 1.1007 15.8225 0.0000 24.6605 0.0000
# 6 0.0000 0.0000 0.0000 -20.9626 0.0000 -2.5359
#
#
#
# Elastic Compliance Matrix: (Units=1/GPa)
#
#
# Indices 1 2 3 4 5 6 
#
# 1 0.014334 -0.004647 -0.000084 0.000000 0.001785 0.000000
# 2 -0.004647 0.013255 -0.004995 0.000000 0.002119 0.000000
# 3 -0.000084 -0.004995 0.015711 0.000000 -0.009866 0.000000
# 4 0.000000 0.000000 0.000000 0.007037 0.000000 -0.058174
# 5 0.001785 0.002119 -0.009866 0.000000 0.046976 0.000000
# 6 0.000000 0.000000 0.000000 -0.058174 0.000000 0.086552
#
#
# Mechanical properties :
#
#
# Convention : Reuss Voigt Hill
#
# Bulk Modulus (GPa) = 41.93149 45.49767 43.71458
# Shear Modulus (GPa) = 23.66694 10.84254 17.25474
#
# Velocity S-wave (km/s) = 3.49650 2.36662 2.98550
# Velocity P-wave (km/s) = 6.16125 5.56510 5.87074
#
# Compressibility (1/GPa) = 0.02384843
#
# Stress axis : x y z
#
# Youngs Moduli (GPa) = 69.76456 75.44444 63.65104
#
# Poissons Ratio (x) = 0.35057 0.00533
# Poissons Ratio (y) = 0.32418 0.31793
# Poissons Ratio (z) = 0.00585 0.37684
#
# Static dielectric constant tensor:
#      x y z
#    x 1.614790 0.000000 0.073420 
#    y 0.000000 1.675630 0.000000 
#    z 0.073420 0.000000 1.649210 
# 
# From -- ./inp_files/179135.got.cif
#   From: 2010.05.17/outbox.cif.g08.bks.cpg/sg15_90_cif.got.tgz:179135.got - 2010.06.03 18:47:42.
