data_PCOD9282207
_publ_section_title
;
Structure prediction by ZEFSAII (Michael W. Deem and Ramdas Pophale) SiO2 
 PCOD9282207
Probable space group: C 2/C
;
_chemical_formula_sum "Si O2"
_cell_formula_units_Z 40
_cell_length_a 21.815110
_cell_length_b 9.242437
_cell_length_c 27.217042
_cell_angle_alpha 90.000000
_cell_angle_beta 19.444713
_cell_angle_gamma 90.000000
_cell_volume 1826.816208
_symmetry_space_group_name_H-M "C 2/C"
_symmetry_group_IT_number 15
_symmetry_cell_setting 'monoclinic'
loop_
_space_group_symop_operation_xyz
x,y,z
-x,y,1/2-z
-x,-y,-z
x,-y,1/2+z
1/2+x,1/2+y,z
1/2-x,1/2+y,1/2-z
1/2-x,1/2-y,-z
1/2+x,1/2-y,1/2+z
loop_
_atom_site_type_symbol
_atom_site_label
_atom_site_fract_x
_atom_site_fract_y
_atom_site_fract_z
Si Si1 0.987256 0.744933 0.012418
Si Si2 0.693840 0.397171 0.475652
Si Si3 0.635713 0.496278 0.335236
Si Si4 0.451318 0.989922 0.972821
Si Si5 0.535287 0.900450 0.142742
O O1 0.091034 0.876606 0.907289
O O2 0.902992 0.645740 0.032355
O O3 0.126457 0.653322 0.942462
O O4 0.852589 0.839187 0.148439
O O5 0.525527 0.493336 0.582862
O O6 0.602180 0.251191 0.567690
O O7 0.815655 0.450738 0.429560
O O8 0.843126 0.383718 0.317928
O O9 0.840736 0.529117 0.164074
O O10 0.462558 0.994893 0.906051
#
# Coordination Sequence:
#
# PCOD9282207 Si02
#       5
#     8   8   8   8   8
#     4  10  22  35  55  88 120 155 194 249 299 352
#     4  10  22  37  61  86 120 157 202 242 300 351
#     4  11  21  36  59  86 119 156 199 245 294 356
#     4  11  22  36  60  86 123 154 200 246 299 352
#     4  10  21  39  59  88 119 158 197 249 294 359
#
# _framework density 21.896017000000001
#
# number of rings (size 3 to 8) (size 9 to 14) (size 15 to 20)
#    0.000    1.600    2.000    3.600    2.800    0.000 
#    0.000    1.000    0.000    2.400    0.000    0.000 
#    0.000    0.000    0.000    0.000    0.000    0.000 
#
# Total GULP energy -111377.419961 kJ/mol
# GULP energy per Si atom -5568.870998 kJ/mol
# Density = 2.184618 g / cm^3
# Si number density = 21.896017 Si / 1000 Ang^3
#
#
#
# Elastic Constant Matrix: (Units=GPa)
#
#
# Indices 1 2 3 4 5 6 
#
# 1 169.5189 39.3694 41.7333 -0.0030 11.4742 -0.0004
# 2 39.3694 81.5168 -9.8927 -0.0092 8.1384 0.0009
# 3 41.7333 -9.8927 36.8580 -0.0158 -13.7511 0.0003
# 4 -0.0030 -0.0092 -0.0158 26.4181 0.0002 4.9846
# 5 11.4742 8.1384 -13.7511 0.0002 37.7898 0.0013
# 6 -0.0004 0.0009 0.0003 4.9846 0.0013 30.6162
#
#
#
# Elastic Compliance Matrix: (Units=1/GPa)
#
#
# Indices 1 2 3 4 5 6 
#
# 1 0.013932 -0.008347 -0.021895 -0.000015 -0.010400 0.000003
# 2 -0.008347 0.017780 0.015899 0.000015 0.004491 -0.000003
# 3 -0.021895 0.015899 0.066408 0.000044 0.027389 -0.000010
# 4 -0.000015 0.000015 0.000044 0.039053 0.000017 -0.006358
# 5 -0.010400 0.004491 0.027389 0.000017 0.038619 -0.000005
# 6 0.000003 -0.000003 -0.000010 -0.006358 -0.000005 0.033698
#
#
# Mechanical properties :
#
#
# Convention : Reuss Voigt Hill
#
# Bulk Modulus (GPa) = 14.40230 47.81262 31.10746
# Shear Modulus (GPa) = 19.13361 33.41040 26.27200
#
# Velocity S-wave (km/s) = 2.95928 3.91047 3.46765
# Velocity P-wave (km/s) = 4.27415 6.50174 5.50186
#
# Compressibility (1/GPa) = 0.06943336
#
# Stress axis : x y z
#
# Youngs Moduli (GPa) = 71.77786 56.24289 15.05841
#
# Poissons Ratio (x) = 0.46948 0.32971
# Poissons Ratio (y) = 0.59916 -0.23942
# Poissons Ratio (z) = 1.57158 -0.89422
#
# Static dielectric constant tensor:
#      x y z
#    x 1.867580 0.000000 0.075970 
#    y 0.000000 1.950690 0.000010 
#    z 0.075970 0.000010 1.898680 
# 
# From -- ./inp_files/318464.got.cif
#   From: 2010.05.17/outbox.cif.g08.bks.cpg/sg15_160_cif.got.tgz:318464.got - 2010.06.03 18:47:42.
