data_PCOD9282599
_publ_section_title
;
Structure prediction by ZEFSAII (Michael W. Deem and Ramdas Pophale) SiO2 
 PCOD9282599
Probable space group: C 2/C
;
_chemical_formula_sum "Si O2"
_cell_formula_units_Z 56
_cell_length_a 14.374497
_cell_length_b 14.157107
_cell_length_c 21.042486
_cell_angle_alpha 90.000000
_cell_angle_beta 34.421469
_cell_angle_gamma 90.000000
_cell_volume 2420.610265
_symmetry_space_group_name_H-M "C 2/C"
_symmetry_group_IT_number 15
_symmetry_cell_setting 'monoclinic'
loop_
_space_group_symop_operation_xyz
x,y,z
-x,y,1/2-z
-x,-y,-z
x,-y,1/2+z
1/2+x,1/2+y,z
1/2-x,1/2+y,1/2-z
1/2-x,1/2-y,-z
1/2+x,1/2-y,1/2+z
loop_
_atom_site_type_symbol
_atom_site_label
_atom_site_fract_x
_atom_site_fract_y
_atom_site_fract_z
Si Si1 0.537229 0.157088 0.579297
Si Si2 0.889291 0.365758 0.602621
Si Si3 0.302790 0.855265 0.990765
Si Si4 0.158658 0.035610 0.692493
Si Si5 0.750578 0.838992 0.167818
Si Si6 0.660294 0.633054 0.018855
Si Si7 0.021770 0.059872 0.584682
O O1 0.506477 0.146721 0.521907
O O2 0.391238 0.122925 0.706415
O O3 0.573146 0.266458 0.575638
O O4 0.713354 0.109335 0.495676
O O5 0.787511 0.460852 0.647858
O O6 0.778103 0.271830 0.665788
O O7 0.005377 0.365238 0.599332
O O8 0.224328 0.896010 0.100365
O O9 0.213033 0.913978 0.985617
O O10 0.250000 0.750000 0.000000
O O11 0.000000 0.984022 0.750000
O O12 0.080798 0.092245 0.795458
O O13 0.924008 0.891099 0.083861
O O14 0.723910 0.854894 0.108443
O O15 0.526151 0.552713 0.083833
#
# Coordination Sequence:
#
# PCOD9282599 Si02
#       7
#     8   8   8   8   8   8   8
#     4  10  21  39  63  91 123 162 216 272 326 389
#     4  11  22  40  65  95 124 174 218 268 324 390
#     4  11  22  40  61  89 129 170 211 263 324 382
#     4  10  22  38  67  96 125 169 225 275 320 390
#     4  11  22  37  62  90 128 165 212 268 328 389
#     4  10  22  39  62  90 126 165 209 270 334 382
#     4  11  22  40  62  90 129 170 212 265 323 396
#
# _framework density 23.134663
#
# number of rings (size 3 to 8) (size 9 to 14) (size 15 to 20)
#    0.000    1.429    1.429    4.714    0.000    3.429 
#    0.000    0.000    0.000    6.857    0.000    0.000 
#    0.000    0.000    0.000    0.000    0.000    0.000 
#
# Total GULP energy -156349.026971 kJ/mol
# GULP energy per Si atom -5583.893820 kJ/mol
# Density = 2.308201 g / cm^3
# Si number density = 23.134663 Si / 1000 Ang^3
#
#
#
# Elastic Constant Matrix: (Units=GPa)
#
#
# Indices 1 2 3 4 5 6 
#
# 1 123.3192 21.3529 17.3028 0.0001 -31.0119 -0.0001
# 2 21.3529 102.7868 5.0365 0.0014 -19.6915 0.0000
# 3 17.3028 5.0365 66.4676 0.0030 -0.6503 0.0003
# 4 0.0001 0.0014 0.0030 18.4007 0.0002 -4.7229
# 5 -31.0119 -19.6915 -0.6503 0.0002 27.0460 -0.0002
# 6 -0.0001 0.0000 0.0003 -4.7229 -0.0002 36.7021
#
#
#
# Elastic Compliance Matrix: (Units=1/GPa)
#
#
# Indices 1 2 3 4 5 6 
#
# 1 0.011966 0.000321 -0.003003 0.000000 0.013882 0.000000
# 2 0.000321 0.011355 -0.000860 -0.000001 0.008614 0.000000
# 3 -0.003003 -0.000860 0.015856 -0.000003 -0.003688 0.000000
# 4 0.000000 -0.000001 -0.000003 0.056202 -0.000001 0.007232
# 5 0.013882 0.008614 -0.003688 -0.000001 0.059074 0.000000
# 6 0.000000 0.000000 0.000000 0.007232 0.000000 0.028177
#
#
# Mechanical properties :
#
#
# Convention : Reuss Voigt Hill
#
# Bulk Modulus (GPa) = 31.16059 42.21755 36.68907
# Shear Modulus (GPa) = 24.94866 33.02186 28.98526
#
# Velocity S-wave (km/s) = 3.28748 3.78216 3.54346
# Velocity P-wave (km/s) = 5.28285 6.11238 5.71269
#
# Compressibility (1/GPa) = 0.03209182
#
# Stress axis : x y z
#
# Youngs Moduli (GPa) = 83.57116 88.06993 63.06836
#
# Poissons Ratio (x) = -0.02825 0.18942
# Poissons Ratio (y) = -0.02681 0.05421
# Poissons Ratio (z) = 0.25100 0.07571
#
# Static dielectric constant tensor:
#      x y z
#    x 1.900870 0.000000 -0.034830 
#    y 0.000000 1.895630 0.000000 
#    z -0.034830 0.000000 1.920480 
# 
# From -- ./inp_files/274462.got.cif
#   From: 2010.05.17/outbox.cif.g08.bks.cpg/sg15_138_cif.got.tgz:274462.got - 2010.06.03 18:47:42.
