data_PCOD9282438
_publ_section_title
;
Structure prediction by ZEFSAII (Michael W. Deem and Ramdas Pophale) SiO2 
 PCOD9282438
Probable space group: C 2/C
;
_chemical_formula_sum "Si O2"
_cell_formula_units_Z 32
_cell_length_a 7.939578
_cell_length_b 17.603743
_cell_length_c 12.641272
_cell_angle_alpha 90.000000
_cell_angle_beta 138.948098
_cell_angle_gamma 90.000000
_cell_volume 1160.348073
_symmetry_space_group_name_H-M "C 2/C"
_symmetry_group_IT_number 15
_symmetry_cell_setting 'monoclinic'
loop_
_space_group_symop_operation_xyz
x,y,z
-x,y,1/2-z
-x,-y,-z
x,-y,1/2+z
1/2+x,1/2+y,z
1/2-x,1/2+y,1/2-z
1/2-x,1/2-y,-z
1/2+x,1/2-y,1/2+z
loop_
_atom_site_type_symbol
_atom_site_label
_atom_site_fract_x
_atom_site_fract_y
_atom_site_fract_z
Si Si1 0.586524 0.976442 0.422633
Si Si2 0.967410 0.915924 0.361724
Si Si3 0.316445 0.742185 0.750109
Si Si4 0.300593 0.180361 0.447169
O O1 0.780792 0.041778 0.475936
O O2 0.045179 0.173889 0.618917
O O3 0.312021 0.951947 0.240835
O O4 0.500000 0.000000 0.500000
O O5 0.000000 0.924040 0.250000
O O6 0.609780 0.808944 0.089673
O O7 0.748503 0.899574 0.521553
O O8 0.500000 0.777154 0.750000
O O9 0.214522 0.802804 0.786812
O O10 0.250000 0.250000 0.500000
#
# Coordination Sequence:
#
# PCOD9282438 Si02
#       4
#     8   8   8   8
#     4   9  18  34  58  85 117 158 201 249 303 362
#     4   8  16  32  56  84 116 157 199 247 302 359
#     4  10  21  39  62  89 123 161 203 253 308 366
#     4  11  23  39  62  92 123 158 205 257 307 363
#
# _framework density 27.577933999999999
#
# number of rings (size 3 to 8) (size 9 to 14) (size 15 to 20)
#    0.000    2.500    0.000    3.000    0.000    6.000 
#    0.000    1.250    0.000   18.000    0.000    3.500 
#    0.000    0.000    0.000    0.000    0.000    0.000 
#
# Total GULP energy -89444.395761 kJ/mol
# GULP energy per Si atom -5590.274735 kJ/mol
# Density = 2.751517 g / cm^3
# Si number density = 27.577934 Si / 1000 Ang^3
#
#
#
# Elastic Constant Matrix: (Units=GPa)
#
#
# Indices 1 2 3 4 5 6 
#
# 1 101.7292 14.1074 -9.0981 0.0000 10.6302 0.0000
# 2 14.1074 125.5672 20.5248 0.0001 4.7682 0.0001
# 3 -9.0981 20.5248 76.7330 0.0000 0.3659 0.0001
# 4 0.0000 0.0001 0.0000 50.2225 0.0001 4.3563
# 5 10.6302 4.7682 0.3659 0.0001 42.6092 0.0001
# 6 0.0000 0.0001 0.0001 4.3563 0.0001 52.8572
#
#
#
# Elastic Compliance Matrix: (Units=1/GPa)
#
#
# Indices 1 2 3 4 5 6 
#
# 1 0.010417 -0.001339 0.001605 0.000000 -0.002463 0.000000
# 2 -0.001339 0.008536 -0.002439 0.000000 -0.000600 0.000000
# 3 0.001605 -0.002439 0.013876 0.000000 -0.000247 0.000000
# 4 0.000000 0.000000 0.000000 0.020055 0.000000 -0.001653
# 5 -0.002463 -0.000600 -0.000247 0.000000 0.024153 0.000000
# 6 0.000000 0.000000 0.000000 -0.001653 0.000000 0.019055
#
#
# Mechanical properties :
#
#
# Convention : Reuss Voigt Hill
#
# Bulk Modulus (GPa) = 35.10978 39.45525 37.28252
# Shear Modulus (GPa) = 45.48283 47.70415 46.59349
#
# Velocity S-wave (km/s) = 4.06550 4.16359 4.11484
# Velocity P-wave (km/s) = 5.89885 6.11979 6.01034
#
# Compressibility (1/GPa) = 0.02848209
#
# Stress axis : x y z
#
# Youngs Moduli (GPa) = 96.00053 117.15375 72.06635
#
# Poissons Ratio (x) = 0.15688 -0.11567
# Poissons Ratio (y) = 0.12856 0.17578
# Poissons Ratio (z) = -0.15408 0.28575
#
# Static dielectric constant tensor:
#      x y z
#    x 2.292490 0.000000 0.045120 
#    y 0.000000 2.095420 0.000000 
#    z 0.045120 0.000000 1.907370 
# 
# From -- ./inp_files/76520.got.cif
#   From: 2010.05.17/outbox.cif.g08.bks.cpg/sg15_39_cif.got.tgz:76520.got - 2010.06.03 18:47:42.
