data_PCOD9282025
_publ_section_title
;
Structure prediction by ZEFSAII (Michael W. Deem and Ramdas Pophale) SiO2 
 PCOD9282025
Probable space group: C 2/C
;
_chemical_formula_sum "Si O2"
_cell_formula_units_Z 24
_cell_length_a 9.322190
_cell_length_b 24.794790
_cell_length_c 4.974178
_cell_angle_alpha 90.000000
_cell_angle_beta 51.168443
_cell_angle_gamma 90.000000
_cell_volume 895.639238
_symmetry_space_group_name_H-M "C 2/C"
_symmetry_group_IT_number 15
_symmetry_cell_setting 'monoclinic'
loop_
_space_group_symop_operation_xyz
x,y,z
-x,y,1/2-z
-x,-y,-z
x,-y,1/2+z
1/2+x,1/2+y,z
1/2-x,1/2+y,1/2-z
1/2-x,1/2-y,-z
1/2+x,1/2-y,1/2+z
loop_
_atom_site_type_symbol
_atom_site_label
_atom_site_fract_x
_atom_site_fract_y
_atom_site_fract_z
Si Si1 0.000000 0.800662 0.250000
Si Si2 0.500000 0.778785 0.250000
Si Si3 0.276272 0.969747 0.489819
Si Si4 0.691126 0.134629 0.871440
O O1 0.028845 0.760684 0.465761
O O2 0.825521 0.839830 0.433276
O O3 0.351289 0.819761 0.301688
O O4 0.500000 0.969035 0.250000
O O5 0.229350 0.915362 0.388563
O O6 0.215135 0.982080 0.862611
O O7 0.500000 0.120523 0.250000
#
# Coordination Sequence:
#
# PCOD9282025 Si02
#       4
#     4   4   8   8
#     4  12  30  44  66 102 140 170 230 278 322 396
#     4  12  26  46  68 100 134 182 224 272 330 398
#     4  10  21  38  67  99 128 169 222 270 327 397
#     4  12  26  45  72  99 134 181 221 273 338 394
#
# _framework density 26.796503000000001
#
# number of rings (size 3 to 8) (size 9 to 14) (size 15 to 20)
#    0.000    0.667    3.333    5.000    4.667    0.000 
#    0.000    1.667    0.000    0.000    0.000    2.333 
#    0.000    0.000    0.000    0.000    0.000    0.000 
#
# Total GULP energy -67245.317885 kJ/mol
# GULP energy per Si atom -5603.776490 kJ/mol
# Density = 2.673551 g / cm^3
# Si number density = 26.796503 Si / 1000 Ang^3
#
#
#
# Elastic Constant Matrix: (Units=GPa)
#
#
# Indices 1 2 3 4 5 6 
#
# 1 108.8930 40.7266 47.2426 0.0000 15.3024 0.0000
# 2 40.7266 143.8061 31.2596 0.0000 12.6302 0.0000
# 3 47.2426 31.2596 98.6346 0.0000 39.5344 0.0000
# 4 0.0000 0.0000 0.0000 35.0686 0.0000 150.7315
# 5 15.3024 12.6302 39.5344 0.0000 44.4408 0.0000
# 6 0.0000 0.0000 0.0000 150.7315 0.0000 330.6794
#
#
#
# Elastic Compliance Matrix: (Units=1/GPa)
#
#
# Indices 1 2 3 4 5 6 
#
# 1 0.012369 -0.002380 -0.005803 0.000000 0.001580 0.000000
# 2 -0.002380 0.007926 -0.001240 0.000000 -0.000330 0.000000
# 3 -0.005803 -0.001240 0.019223 0.000000 -0.014750 0.000000
# 4 0.000000 0.000000 0.000000 -0.029728 0.000000 0.013551
# 5 0.001580 -0.000330 -0.014750 0.000000 0.035173 0.000000
# 6 0.000000 0.000000 0.000000 0.013551 0.000000 -0.003153
#
#
# Mechanical properties :
#
#
# Convention : Reuss Voigt Hill
#
# Bulk Modulus (GPa) = 48.37412 65.53236 56.95324
# Shear Modulus (GPa) = 74.02053 97.51143 85.76598
#
# Velocity S-wave (km/s) = 5.26148 6.03892 5.66356
# Velocity P-wave (km/s) = 7.41637 8.55181 8.00425
#
# Compressibility (1/GPa) = 0.02067221
#
# Stress axis : x y z
#
# Youngs Moduli (GPa) = 80.84521 126.16089 52.02098
#
# Poissons Ratio (x) = 0.30030 0.30190
# Poissons Ratio (y) = 0.19244 0.06448
# Poissons Ratio (z) = 0.46918 0.15638
#
# Static dielectric constant tensor:
#      x y z
#    x 1.914510 0.000000 0.027840 
#    y 0.000000 2.072330 0.000000 
#    z 0.027840 0.000000 1.990040 
# 
# From -- ./inp_files/1608.got.cif
#   From: 2010.05.17/outbox.cif.g08.bks.cpg/sg15_1_cif.got.tgz:1608.got - 2010.06.03 18:47:42.
