data_PCOD9282880
_publ_section_title
;
Structure prediction by ZEFSAII (Michael W. Deem and Ramdas Pophale) SiO2 
 PCOD9282880
Probable space group: C 2/C
;
_chemical_formula_sum "Si O2"
_cell_formula_units_Z 60
_cell_length_a 16.729854
_cell_length_b 15.444036
_cell_length_c 10.424044
_cell_angle_alpha 90.000000
_cell_angle_beta 77.869327
_cell_angle_gamma 90.000000
_cell_volume 2633.188024
_symmetry_space_group_name_H-M "C 2/C"
_symmetry_group_IT_number 15
_symmetry_cell_setting 'monoclinic'
loop_
_space_group_symop_operation_xyz
x,y,z
-x,y,1/2-z
-x,-y,-z
x,-y,1/2+z
1/2+x,1/2+y,z
1/2-x,1/2+y,1/2-z
1/2-x,1/2-y,-z
1/2+x,1/2-y,1/2+z
loop_
_atom_site_type_symbol
_atom_site_label
_atom_site_fract_x
_atom_site_fract_y
_atom_site_fract_z
Si Si1 0.101045 0.760780 0.068309
Si Si2 0.334335 0.317247 0.705966
Si Si3 0.239349 0.513615 0.263579
Si Si4 0.587977 0.743510 0.868343
Si Si5 0.138814 0.559341 0.042601
Si Si6 0.760148 0.159566 0.629413
Si Si7 0.095263 0.384772 0.035861
Si Si8 0.000000 0.256363 0.250000
O O1 0.116115 0.773737 0.213854
O O2 0.112303 0.658187 0.034666
O O3 0.005418 0.784604 0.083717
O O4 0.159010 0.812707 0.951491
O O5 0.298529 0.406289 0.771497
O O6 0.281214 0.236010 0.773212
O O7 0.426020 0.299670 0.721703
O O8 0.186499 0.548454 0.160472
O O9 0.189288 0.476131 0.401712
O O10 0.282725 0.427699 0.196068
O O11 0.653209 0.699429 0.942180
O O12 0.592119 0.846501 0.894224
O O13 0.071322 0.483277 0.069838
O O14 0.687579 0.131669 0.557862
O O15 0.036303 0.320830 0.131921
#
# Coordination Sequence:
#
# PCOD9282880 Si02
#       8
#     8   8   8   8   8   8   8   4
#     4  11  24  40  66  96 141 173 210 272 341 393
#     4  11  22  45  69  93 134 175 220 271 329 395
#     4  11  25  41  71 100 127 178 228 272 329 389
#     4  11  23  40  63 103 130 175 211 265 340 395
#     4  11  23  42  64 104 131 170 224 274 337 392
#     4  10  22  41  68  95 130 169 226 271 320 393
#     4  10  21  39  65  92 133 171 222 272 325 393
#     4  10  22  40  64  94 128 184 214 264 334 388
#
# _framework density 22.786066999999999
#
# number of rings (size 3 to 8) (size 9 to 14) (size 15 to 20)
#    0.000    1.333    2.667    2.800    1.867    5.867 
#    0.000    2.000    0.000    0.000    0.000    0.000 
#    0.000    0.000    0.000    0.000    0.000    0.000 
#
# Total GULP energy -167614.068798 kJ/mol
# GULP energy per Si atom -5587.135627 kJ/mol
# Density = 2.273421 g / cm^3
# Si number density = 22.786067 Si / 1000 Ang^3
#
#
#
# Elastic Constant Matrix: (Units=GPa)
#
#
# Indices 1 2 3 4 5 6 
#
# 1 110.6682 26.3284 10.9919 0.0000 -1.7927 0.0000
# 2 26.3284 108.5138 12.8381 0.0000 -17.4425 0.0000
# 3 10.9919 12.8381 88.1284 0.0000 -21.1751 0.0000
# 4 0.0000 0.0000 0.0000 35.8963 0.0000 0.1867
# 5 -1.7927 -17.4425 -21.1751 0.0000 17.4608 0.0000
# 6 0.0000 0.0000 0.0000 0.1867 0.0000 23.0362
#
#
#
# Elastic Compliance Matrix: (Units=1/GPa)
#
#
# Indices 1 2 3 4 5 6 
#
# 1 0.009814 -0.002804 -0.001759 0.000000 -0.003927 0.000000
# 2 -0.002804 0.011915 0.001982 0.000000 0.014018 0.000000
# 3 -0.001759 0.001982 0.016525 0.000000 0.021841 0.000000
# 4 0.000000 0.000000 0.000000 0.027859 0.000000 -0.000226
# 5 -0.003927 0.014018 0.021841 0.000000 0.097359 0.000000
# 6 0.000000 0.000000 0.000000 -0.000226 0.000000 0.043412
#
#
# Mechanical properties :
#
#
# Convention : Reuss Voigt Hill
#
# Bulk Modulus (GPa) = 30.21870 45.29191 37.75530
# Shear Modulus (GPa) = 22.41379 32.42211 27.41795
#
# Velocity S-wave (km/s) = 3.13974 3.77622 3.47259
# Velocity P-wave (km/s) = 5.14147 6.23965 5.71699
#
# Compressibility (1/GPa) = 0.03309209
#
# Stress axis : x y z
#
# Youngs Moduli (GPa) = 101.89218 83.93052 60.51263
#
# Poissons Ratio (x) = 0.23537 0.10645
# Poissons Ratio (y) = 0.28574 -0.11996
# Poissons Ratio (z) = 0.17925 -0.16638
#
# Static dielectric constant tensor:
#      x y z
#    x 1.876580 0.000000 0.022870 
#    y 0.000000 1.868960 0.000000 
#    z 0.022870 0.000000 1.957980 
# 
# From -- ./inp_files/105342.got.cif
#   From: 2010.05.17/outbox.cif.g08.bks.cpg/sg15_53_cif.got.tgz:105342.got - 2010.06.03 18:47:42.
