data_PCOD9282423
_publ_section_title
;
Structure prediction by ZEFSAII (Michael W. Deem and Ramdas Pophale) SiO2 
 PCOD9282423
Probable space group: C 2/C
;
_chemical_formula_sum "Si O2"
_cell_formula_units_Z 56
_cell_length_a 24.512874
_cell_length_b 19.191497
_cell_length_c 8.627404
_cell_angle_alpha 90.000000
_cell_angle_beta 134.741601
_cell_angle_gamma 90.000000
_cell_volume 2882.823453
_symmetry_space_group_name_H-M "C 2/C"
_symmetry_group_IT_number 15
_symmetry_cell_setting 'monoclinic'
loop_
_space_group_symop_operation_xyz
x,y,z
-x,y,1/2-z
-x,-y,-z
x,-y,1/2+z
1/2+x,1/2+y,z
1/2-x,1/2+y,1/2-z
1/2-x,1/2-y,-z
1/2+x,1/2-y,1/2+z
loop_
_atom_site_type_symbol
_atom_site_label
_atom_site_fract_x
_atom_site_fract_y
_atom_site_fract_z
Si Si1 0.302408 0.922103 0.541470
Si Si2 0.147769 0.841417 0.231734
Si Si3 0.411281 0.199897 0.259939
Si Si4 0.499999 0.422057 0.435395
Si Si5 0.852232 0.841418 0.640658
Si Si6 0.088720 0.300103 0.114815
Si Si7 0.302407 0.922104 0.168162
O O1 0.225362 0.880845 0.436056
O O2 0.374340 0.873858 0.731474
O O3 0.301387 0.925818 0.352775
O O4 0.304529 1.000000 0.609058
O O5 0.139325 0.762753 0.274772
O O6 0.075051 0.882639 0.153411
O O7 0.144727 0.841523 0.039455
O O8 0.500001 0.207138 0.487101
O O9 0.409529 0.204684 0.069059
O O10 0.500000 0.422162 0.250000
O O11 0.500000 0.500000 0.500000
O O12 0.575048 0.382638 0.646790
O O13 0.860674 0.762753 0.717470
O O14 0.774640 0.880847 0.534610
O O15 0.125663 0.373858 0.234119
#
# Coordination Sequence:
#
# PCOD9282423 Si02
#       7
#     8   8   8   8   8   8   8
#     4  10  23  40  59  87 121 158 200 249 298 351
#     4  11  22  38  60  88 120 154 200 247 294 356
#     4  10  21  39  62  88 120 158 199 245 299 352
#     4  12  24  38  58  86 121 158 195 242 298 356
#     4  11  22  38  60  88 120 154 200 247 294 356
#     4  10  21  39  62  88 120 158 199 245 299 352
#     4  10  23  40  59  87 121 158 200 249 298 351
#
# _framework density 19.425401000000001
#
# number of rings (size 3 to 8) (size 9 to 14) (size 15 to 20)
#    0.000    1.429    1.429    3.857    0.000    6.286 
#    0.000    0.000    0.000    0.000    0.000    0.000 
#    0.000    0.000    0.000    0.000    0.000    0.000 
#
# Total GULP energy -156539.736752 kJ/mol
# GULP energy per Si atom -5590.704884 kJ/mol
# Density = 1.938119 g / cm^3
# Si number density = 19.425401 Si / 1000 Ang^3
#
#
#
# Elastic Constant Matrix: (Units=GPa)
#
#
# Indices 1 2 3 4 5 6 
#
# 1 40.8123 44.7293 20.0853 0.0000 5.6171 0.0000
# 2 44.7293 182.8137 45.4537 0.0000 15.3348 0.0000
# 3 20.0853 45.4537 41.3431 0.0000 5.6267 0.0000
# 4 0.0000 0.0000 0.0000 20.5318 0.0000 -11.2609
# 5 5.6171 15.3348 5.6267 0.0000 10.6964 0.0000
# 6 0.0000 0.0000 0.0000 -11.2609 0.0000 21.0678
#
#
#
# Elastic Compliance Matrix: (Units=1/GPa)
#
#
# Indices 1 2 3 4 5 6 
#
# 1 0.037030 -0.005950 -0.010731 0.000000 -0.005271 0.000000
# 2 -0.005950 0.008994 -0.006105 0.000000 -0.006558 0.000000
# 3 -0.010731 -0.006105 0.036789 0.000000 -0.004965 0.000000
# 4 0.000000 0.000000 0.000000 0.068905 0.000000 0.036830
# 5 -0.005271 -0.006558 -0.004965 0.000000 0.108271 0.000000
# 6 0.000000 0.000000 0.000000 0.036830 0.000000 0.067152
#
#
# Mechanical properties :
#
#
# Convention : Reuss Voigt Hill
#
# Bulk Modulus (GPa) = 26.85225 53.94507 40.39866
# Shear Modulus (GPa) = 12.98278 20.77258 16.87768
#
# Velocity S-wave (km/s) = 2.58803 3.27364 2.95082
# Velocity P-wave (km/s) = 4.77324 6.48996 5.69664
#
# Compressibility (1/GPa) = 0.03724083
#
# Stress axis : x y z
#
# Youngs Moduli (GPa) = 27.00506 111.18750 27.18218
#
# Poissons Ratio (x) = 0.66156 0.29169
# Poissons Ratio (y) = 0.16068 0.16595
# Poissons Ratio (z) = 0.28979 0.67879
#
# Static dielectric constant tensor:
#      x y z
#    x 1.664940 0.000000 0.006010 
#    y 0.000000 1.651230 0.000000 
#    z 0.006010 0.000000 1.665230 
# 
# From -- ./inp_files/67215.got.cif
#   From: 2010.05.17/outbox.cif.g08.bks.cpg/sg15_34_cif.got.tgz:67215.got - 2010.06.03 18:47:42.
