data_PCOD9282181
_publ_section_title
;
Structure prediction by ZEFSAII (Michael W. Deem and Ramdas Pophale) SiO2 
 PCOD9282181
Probable space group: C 2/C
;
_chemical_formula_sum "Si O2"
_cell_formula_units_Z 44
_cell_length_a 7.175692
_cell_length_b 11.963221
_cell_length_c 24.898137
_cell_angle_alpha 90.000000
_cell_angle_beta 125.918517
_cell_angle_gamma 90.000000
_cell_volume 1730.949813
_symmetry_space_group_name_H-M "C 2/C"
_symmetry_group_IT_number 15
_symmetry_cell_setting 'monoclinic'
loop_
_space_group_symop_operation_xyz
x,y,z
-x,y,1/2-z
-x,-y,-z
x,-y,1/2+z
1/2+x,1/2+y,z
1/2-x,1/2+y,1/2-z
1/2-x,1/2-y,-z
1/2+x,1/2-y,1/2+z
loop_
_atom_site_type_symbol
_atom_site_label
_atom_site_fract_x
_atom_site_fract_y
_atom_site_fract_z
Si Si1 0.000000 0.141230 0.750000
Si Si2 0.969048 0.292954 0.839992
Si Si3 0.650620 0.136542 0.534810
Si Si4 0.458984 0.647252 0.981514
Si Si5 0.160990 0.971545 0.614611
Si Si6 0.714218 0.470619 0.860865
O O1 0.114963 0.219983 0.724239
O O2 0.815540 0.059020 0.691916
O O3 0.158269 0.212197 0.900277
O O4 0.114306 0.398094 0.843177
O O5 0.789726 0.351647 0.849938
O O6 0.442147 0.220769 0.488666
O O7 0.617620 0.028301 0.566381
O O8 0.789158 0.123911 0.502972
O O9 0.297160 0.588359 0.910150
O O10 0.485566 0.589354 0.043294
O O11 0.027603 0.973907 0.647993
#
# Coordination Sequence:
#
# PCOD9282181 Si02
#       6
#     4   8   8   8   8   8
#     4  10  24  42  62  84 112 156 204 258 310 340
#     4  10  21  39  59  82 116 153 198 251 293 349
#     4   8  16  34  56  84 120 156 190 230 290 348
#     4   8  14  32  56  82 126 156 177 235 287 343
#     4   9  18  34  60  88 116 154 194 233 290 352
#     4  10  21  39  59  82 116 153 198 251 293 349
#
# _framework density 25.419568999999999
#
# number of rings (size 3 to 8) (size 9 to 14) (size 15 to 20)
#    0.000    2.909    0.000    0.000    2.545    0.000 
#    0.000   52.727    0.000    0.000    0.000    0.000 
#    0.000    0.000    0.000    0.000    0.000    0.000 
#
# Total GULP energy -122865.308656 kJ/mol
# GULP energy per Si atom -5584.786757 kJ/mol
# Density = 2.536171 g / cm^3
# Si number density = 25.419569 Si / 1000 Ang^3
#
#
#
# Elastic Constant Matrix: (Units=GPa)
#
#
# Indices 1 2 3 4 5 6 
#
# 1 58.6512 17.1205 17.0060 0.0000 -14.8645 0.0000
# 2 17.1205 76.4288 17.5303 0.0000 -17.3063 0.0000
# 3 17.0060 17.5303 100.7717 0.0000 -24.1654 0.0000
# 4 0.0000 0.0000 0.0000 56.3663 0.0000 -11.1563
# 5 -14.8645 -17.3063 -24.1654 0.0000 24.2124 0.0000
# 6 0.0000 0.0000 0.0000 -11.1563 0.0000 36.8512
#
#
#
# Elastic Compliance Matrix: (Units=1/GPa)
#
#
# Indices 1 2 3 4 5 6 
#
# 1 0.020489 -0.002075 -0.000573 0.000000 0.010523 0.000000
# 2 -0.002075 0.015821 0.000006 0.000000 0.010040 0.000000
# 3 -0.000573 0.000006 0.013062 0.000000 0.012689 0.000000
# 4 0.000000 0.000000 0.000000 0.018872 0.000000 0.005713
# 5 0.010523 0.010040 0.012689 0.000000 0.067602 0.000000
# 6 0.000000 0.000000 0.000000 0.005713 0.000000 0.028866
#
#
# Mechanical properties :
#
#
# Convention : Reuss Voigt Hill
#
# Bulk Modulus (GPa) = 22.68287 37.68504 30.18395
# Shear Modulus (GPa) = 27.07199 35.76563 31.41881
#
# Velocity S-wave (km/s) = 3.26698 3.75508 3.51951
# Velocity P-wave (km/s) = 4.81390 5.80158 5.33066
#
# Compressibility (1/GPa) = 0.04408614
#
# Stress axis : x y z
#
# Youngs Moduli (GPa) = 48.80686 63.20680 76.55815
#
# Poissons Ratio (x) = 0.13118 0.04388
# Poissons Ratio (y) = 0.10129 -0.00043
# Poissons Ratio (z) = 0.02797 -0.00035
#
# Static dielectric constant tensor:
#      x y z
#    x 2.001090 0.000000 0.015630 
#    y 0.000000 2.138160 0.000000 
#    z 0.015630 0.000000 2.074200 
# 
# From -- ./inp_files/260396.got.cif
#   From: 2010.05.17/outbox.cif.g08.bks.cpg/sg15_131_cif.got.tgz:260396.got - 2010.06.03 18:47:42.
