data_PCOD9282057
_publ_section_title
;
Structure prediction by ZEFSAII (Michael W. Deem and Ramdas Pophale) SiO2 
 PCOD9282057
Probable space group: C 2/C
;
_chemical_formula_sum "Si O2"
_cell_formula_units_Z 40
_cell_length_a 11.039242
_cell_length_b 15.721144
_cell_length_c 15.087779
_cell_angle_alpha 90.000000
_cell_angle_beta 44.857207
_cell_angle_gamma 90.000000
_cell_volume 1846.922456
_symmetry_space_group_name_H-M "C 2/C"
_symmetry_group_IT_number 15
_symmetry_cell_setting 'monoclinic'
loop_
_space_group_symop_operation_xyz
x,y,z
-x,y,1/2-z
-x,-y,-z
x,-y,1/2+z
1/2+x,1/2+y,z
1/2-x,1/2+y,1/2-z
1/2-x,1/2-y,-z
1/2+x,1/2-y,1/2+z
loop_
_atom_site_type_symbol
_atom_site_label
_atom_site_fract_x
_atom_site_fract_y
_atom_site_fract_z
Si Si1 0.838034 0.093459 0.667668
Si Si2 0.698698 0.270490 0.158957
Si Si3 0.005985 0.515513 0.892274
Si Si4 0.654871 0.179550 0.605738
Si Si5 0.724976 0.388432 0.974780
O O1 0.795134 0.171717 0.757245
O O2 0.703743 0.018579 0.758618
O O3 0.790826 0.130171 0.596718
O O4 0.036625 0.069430 0.577198
O O5 0.500000 0.248268 0.250000
O O6 0.748798 0.331019 0.051041
O O7 0.787120 0.179435 0.099496
O O8 0.932464 0.609105 0.910918
O O9 0.883867 0.452384 0.900031
O O10 0.000000 0.500000 0.000000
O O11 0.500000 0.211724 0.750000
O O12 0.750000 0.250000 0.500000
#
# Coordination Sequence:
#
# PCOD9282057 Si02
#       5
#     8   8   8   8   8
#     4  10  22  41  69  98 142 179 231 290 344 424
#     4   9  19  36  64 103 130 175 225 285 340 420
#     4  11  23  42  68  95 139 181 227 288 351 408
#     4  10  25  46  67  99 141 185 232 284 353 425
#     4  10  21  38  68  99 137 174 232 282 353 406
#
# _framework density 21.65765
#
# number of rings (size 3 to 8) (size 9 to 14) (size 15 to 20)
#    0.000    2.000    2.000    0.000    5.600    4.800 
#    3.600    0.000    0.000    0.000    0.000    0.000 
#    0.000    0.000    0.000    0.000    0.000    0.000 
#
# Total GULP energy -111691.925291 kJ/mol
# GULP energy per Si atom -5584.596265 kJ/mol
# Density = 2.160836 g / cm^3
# Si number density = 21.657650 Si / 1000 Ang^3
#
#
#
# Elastic Constant Matrix: (Units=GPa)
#
#
# Indices 1 2 3 4 5 6 
#
# 1 110.0727 23.9137 48.0275 0.0000 -14.1765 0.0000
# 2 23.9137 61.7531 68.5888 -0.0001 -22.1464 0.0000
# 3 48.0275 68.5888 113.4310 -0.0001 -21.2834 0.0000
# 4 0.0000 -0.0001 -0.0001 42.4453 0.0000 5.3632
# 5 -14.1765 -22.1464 -21.2834 0.0000 50.2580 0.0000
# 6 0.0000 0.0000 0.0000 5.3632 0.0000 18.1610
#
#
#
# Elastic Compliance Matrix: (Units=1/GPa)
#
#
# Indices 1 2 3 4 5 6 
#
# 1 0.011481 0.003842 -0.006799 0.000000 0.002052 0.000000
# 2 0.003842 0.055577 -0.033061 0.000000 0.011573 0.000000
# 3 -0.006799 -0.033061 0.031061 0.000000 -0.003333 0.000000
# 4 0.000000 0.000000 0.000000 0.024473 0.000000 -0.007227
# 5 0.002052 0.011573 -0.003333 0.000000 0.024164 0.000000
# 6 0.000000 0.000000 0.000000 -0.007227 0.000000 0.057197
#
#
# Mechanical properties :
#
#
# Convention : Reuss Voigt Hill
#
# Bulk Modulus (GPa) = 38.34112 62.92411 50.63261
# Shear Modulus (GPa) = 17.56326 31.82132 24.69229
#
# Velocity S-wave (km/s) = 2.85081 3.83729 3.38023
# Velocity P-wave (km/s) = 5.34582 6.98213 6.21804
#
# Compressibility (1/GPa) = 0.02608166
#
# Stress axis : x y z
#
# Youngs Moduli (GPa) = 87.09873 17.99298 32.19505
#
# Poissons Ratio (x) = -0.06912 0.21890
# Poissons Ratio (y) = -0.33460 1.06441
# Poissons Ratio (z) = 0.59219 0.59487
#
# Static dielectric constant tensor:
#      x y z
#    x 1.947610 0.000000 -0.074130 
#    y 0.000000 1.833030 0.000000 
#    z -0.074130 0.000000 1.893680 
# 
# From -- ./inp_files/197577.got.cif
#   From: 2010.05.17/outbox.cif.g08.bks.cpg/sg15_99_cif.got.tgz:197577.got - 2010.06.03 18:47:42.
