data_PCOD9282523
_publ_section_title
;
Structure prediction by ZEFSAII (Michael W. Deem and Ramdas Pophale) SiO2 
 PCOD9282523
Probable space group: C 2/C
;
_chemical_formula_sum "Si O2"
_cell_formula_units_Z 48
_cell_length_a 15.761277
_cell_length_b 18.614899
_cell_length_c 12.376798
_cell_angle_alpha 90.000000
_cell_angle_beta 145.131258
_cell_angle_gamma 90.000000
_cell_volume 2075.999898
_symmetry_space_group_name_H-M "C 2/C"
_symmetry_group_IT_number 15
_symmetry_cell_setting 'monoclinic'
loop_
_space_group_symop_operation_xyz
x,y,z
-x,y,1/2-z
-x,-y,-z
x,-y,1/2+z
1/2+x,1/2+y,z
1/2-x,1/2+y,1/2-z
1/2-x,1/2-y,-z
1/2+x,1/2-y,1/2+z
loop_
_atom_site_type_symbol
_atom_site_label
_atom_site_fract_x
_atom_site_fract_y
_atom_site_fract_z
Si Si1 0.300001 0.876374 0.767825
Si Si2 0.876065 0.593778 0.840380
Si Si3 0.000000 0.458970 0.250000
Si Si4 0.262288 0.286850 0.164649
Si Si5 0.000000 0.772813 0.250000
Si Si6 0.128195 0.996278 0.513287
Si Si7 0.699833 0.468507 0.855586
O O1 0.302035 0.792003 0.750916
O O2 0.233352 0.899636 0.815180
O O3 0.190517 0.915568 0.568894
O O4 0.466901 0.906883 0.933303
O O5 0.785921 0.661785 0.789082
O O6 0.756115 0.529608 0.725551
O O7 0.932999 0.589456 0.776206
O O8 0.136392 0.501896 0.447432
O O9 0.401683 0.312779 0.238199
O O10 0.121140 0.275566 0.938878
O O11 0.151443 0.042530 0.429672
O O12 0.952679 0.996745 0.348097
#
# Coordination Sequence:
#
# PCOD9282523 Si02
#       7
#     8   8   4   8   4   8   8
#     4  11  22  40  63  93 127 172 213 268 328 386
#     4  10  21  41  66  93 130 173 215 270 327 390
#     4   8  18  40  65  94 133 164 216 266 324 396
#     4  11  23  44  66  93 131 173 222 275 323 389
#     4  10  24  44  63  94 129 168 230 268 320 392
#     4  10  21  39  62  96 130 165 216 268 325 389
#     4   9  20  38  61  92 127 163 214 262 318 392
#
# _framework density 23.121389000000001
#
# number of rings (size 3 to 8) (size 9 to 14) (size 15 to 20)
#    0.000    2.000    1.667    1.000    2.333    1.333 
#    6.000   12.500    0.000    0.000    0.000    0.000 
#    0.000    0.000    0.000    0.000    0.000    0.000 
#
# Total GULP energy -133683.181420 kJ/mol
# GULP energy per Si atom -5570.132559 kJ/mol
# Density = 2.306876 g / cm^3
# Si number density = 23.121389 Si / 1000 Ang^3
#
#
#
# Elastic Constant Matrix: (Units=GPa)
#
#
# Indices 1 2 3 4 5 6 
#
# 1 174.8564 48.3446 52.0359 0.0000 42.2791 0.0000
# 2 48.3446 80.5596 45.1775 0.0000 22.3082 0.0000
# 3 52.0359 45.1775 178.4012 0.0000 26.1042 0.0000
# 4 0.0000 0.0000 0.0000 21.3854 0.0000 10.2804
# 5 42.2791 22.3082 26.1042 0.0000 46.2127 0.0000
# 6 0.0000 0.0000 0.0000 10.2804 0.0000 34.1287
#
#
#
# Elastic Compliance Matrix: (Units=1/GPa)
#
#
# Indices 1 2 3 4 5 6 
#
# 1 0.008100 -0.002857 -0.000825 0.000000 -0.005565 0.000000
# 2 -0.002857 0.016804 -0.002853 0.000000 -0.003886 0.000000
# 3 -0.000825 -0.002853 0.006820 0.000000 -0.001721 0.000000
# 4 0.000000 0.000000 0.000000 0.054678 0.000000 -0.016470
# 5 -0.005565 -0.003886 -0.001721 0.000000 0.029579 0.000000
# 6 0.000000 0.000000 0.000000 -0.016470 0.000000 0.034262
#
#
# Mechanical properties :
#
#
# Convention : Reuss Voigt Hill
#
# Bulk Modulus (GPa) = 53.60876 80.54814 67.07845
# Shear Modulus (GPa) = 29.49292 39.56265 34.52779
#
# Velocity S-wave (km/s) = 3.57539 4.14101 3.86855
# Velocity P-wave (km/s) = 6.34670 7.60110 7.00205
#
# Compressibility (1/GPa) = 0.01865367
#
# Stress axis : x y z
#
# Youngs Moduli (GPa) = 123.45548 59.50930 146.62241
#
# Poissons Ratio (x) = 0.17004 0.12092
# Poissons Ratio (y) = 0.35275 0.41837
# Poissons Ratio (z) = 0.10181 0.16980
#
# Static dielectric constant tensor:
#      x y z
#    x 2.012920 0.000000 -0.066140 
#    y 0.000000 1.840790 0.000000 
#    z -0.066140 0.000000 1.943680 
# 
# From -- ./inp_files/163362.got.cif
#   From: 2010.05.17/outbox.cif.g08.bks.cpg/sg15_82_cif.got.tgz:163362.got - 2010.06.03 18:47:42.
