data_PCOD9282581
_publ_section_title
;
Structure prediction by ZEFSAII (Michael W. Deem and Ramdas Pophale) SiO2 
 PCOD9282581
Probable space group: C 2/C
;
_chemical_formula_sum "Si O2"
_cell_formula_units_Z 56
_cell_length_a 17.625935
_cell_length_b 5.926332
_cell_length_c 22.836782
_cell_angle_alpha 90.000000
_cell_angle_beta 102.726400
_cell_angle_gamma 90.000000
_cell_volume 2326.861616
_symmetry_space_group_name_H-M "C 2/C"
_symmetry_group_IT_number 15
_symmetry_cell_setting 'monoclinic'
loop_
_space_group_symop_operation_xyz
x,y,z
-x,y,1/2-z
-x,-y,-z
x,-y,1/2+z
1/2+x,1/2+y,z
1/2-x,1/2+y,1/2-z
1/2-x,1/2-y,-z
1/2+x,1/2-y,1/2+z
loop_
_atom_site_type_symbol
_atom_site_label
_atom_site_fract_x
_atom_site_fract_y
_atom_site_fract_z
Si Si1 0.394001 0.158059 0.871539
Si Si2 0.694906 0.237846 0.107347
Si Si3 0.088871 0.926302 0.514230
Si Si4 0.959668 0.249339 0.179781
Si Si5 0.265273 0.878770 0.676901
Si Si6 0.081012 0.749705 0.299153
Si Si7 0.704869 0.370942 0.439530
O O1 0.400385 0.210524 0.942084
O O2 0.471801 0.246545 0.856009
O O3 0.319924 0.275871 0.827620
O O4 0.370146 0.899202 0.867986
O O5 0.645852 0.401269 0.057431
O O6 0.750387 0.359471 0.163877
O O7 0.750292 0.093040 0.074389
O O8 0.120833 0.902088 0.454328
O O9 0.000000 0.000000 0.500000
O O10 0.915608 0.005326 0.172530
O O11 0.000000 0.255059 0.250000
O O12 0.922776 0.502637 0.168235
O O13 0.288334 0.783891 0.616220
O O14 0.339457 0.790116 0.724658
O O15 0.000000 0.754697 0.250000
O O16 0.750000 0.250000 0.500000
#
# Coordination Sequence:
#
# PCOD9282581 Si02
#       7
#     8   8   8   8   8   8   8
#     4  10  23  41  63  95 132 173 227 279 333 408
#     4  10  21  39  63  89 132 178 229 272 328 402
#     4  11  24  36  57  95 133 175 223 275 330 392
#     4  10  24  46  69  97 134 171 217 285 355 409
#     4  10  23  38  69  95 128 181 226 276 337 413
#     4  10  24  46  70 101 132 170 223 286 349 411
#     4  11  20  40  58  91 133 179 226 266 328 403
#
# _framework density 24.066752999999999
#
# number of rings (size 3 to 8) (size 9 to 14) (size 15 to 20)
#    0.000    1.714    4.286    0.429   10.000    0.571 
#    0.000    5.714    0.000    0.000    0.000    0.000 
#    0.000    0.000    0.000    0.000    0.000    0.000 
#
# Total GULP energy -156116.387053 kJ/mol
# GULP energy per Si atom -5575.585252 kJ/mol
# Density = 2.401198 g / cm^3
# Si number density = 24.066753 Si / 1000 Ang^3
#
#
#
# Elastic Constant Matrix: (Units=GPa)
#
#
# Indices 1 2 3 4 5 6 
#
# 1 106.3490 36.5444 -9.6046 0.0000 -1.7516 0.0000
# 2 36.5444 140.2682 3.1067 0.0000 -9.2421 0.0000
# 3 -9.6046 3.1067 51.4270 0.0000 -13.1465 0.0000
# 4 0.0000 0.0000 0.0000 3.3352 0.0000 9.0779
# 5 -1.7516 -9.2421 -13.1465 0.0000 22.5986 0.0000
# 6 0.0000 0.0000 0.0000 9.0779 0.0000 40.9293
#
#
#
# Elastic Compliance Matrix: (Units=1/GPa)
#
#
# Indices 1 2 3 4 5 6 
#
# 1 0.010581 -0.002737 0.002426 0.000000 0.001112 0.000000
# 2 -0.002737 0.008041 -0.000247 0.000000 0.002932 0.000000
# 3 0.002426 -0.000247 0.023418 0.000000 0.013710 0.000000
# 4 0.000000 0.000000 0.000000 0.756574 0.000000 -0.167803
# 5 0.001112 0.002932 0.013710 0.000000 0.053512 0.000000
# 6 0.000000 0.000000 0.000000 -0.167803 0.000000 0.061650
#
#
# Mechanical properties :
#
#
# Convention : Reuss Voigt Hill
#
# Bulk Modulus (GPa) = 24.43669 39.79305 32.11487
# Shear Modulus (GPa) = 5.38483 31.23912 18.31198
#
# Velocity S-wave (km/s) = 1.49744 3.60671 2.76140
# Velocity P-wave (km/s) = 3.62843 5.82365 4.85182
#
# Compressibility (1/GPa) = 0.04092208
#
# Stress axis : x y z
#
# Youngs Moduli (GPa) = 94.50956 124.36246 42.70278
#
# Poissons Ratio (x) = 0.34040 -0.10358
# Poissons Ratio (y) = 0.25869 0.01056
# Poissons Ratio (z) = -0.22925 0.03076
#
# Static dielectric constant tensor:
#      x y z
#    x 2.052060 0.000000 0.065090 
#    y 0.000000 2.012550 0.000000 
#    z 0.065090 0.000000 1.943330 
# 
# From -- ./inp_files/299764.got.cif
#   From: 2010.05.17/outbox.cif.g08.bks.cpg/sg15_150_cif.got.tgz:299764.got - 2010.06.03 18:47:42.
