data_PCOD9282436
_publ_section_title
;
Structure prediction by ZEFSAII (Michael W. Deem and Ramdas Pophale) SiO2 
 PCOD9282436
Probable space group: C 2/C
;
_chemical_formula_sum "Si O2"
_cell_formula_units_Z 48
_cell_length_a 19.237713
_cell_length_b 16.988568
_cell_length_c 14.955266
_cell_angle_alpha 90.000000
_cell_angle_beta 150.285014
_cell_angle_gamma 90.000000
_cell_volume 2422.762677
_symmetry_space_group_name_H-M "C 2/C"
_symmetry_group_IT_number 15
_symmetry_cell_setting 'monoclinic'
loop_
_space_group_symop_operation_xyz
x,y,z
-x,y,1/2-z
-x,-y,-z
x,-y,1/2+z
1/2+x,1/2+y,z
1/2-x,1/2+y,1/2-z
1/2-x,1/2-y,-z
1/2+x,1/2-y,1/2+z
loop_
_atom_site_type_symbol
_atom_site_label
_atom_site_fract_x
_atom_site_fract_y
_atom_site_fract_z
Si Si1 0.706957 0.433192 0.868739
Si Si2 0.991716 0.309196 0.509773
Si Si3 0.674287 0.907778 0.306706
Si Si4 0.814846 0.159516 0.336914
Si Si5 0.043190 0.545258 0.399236
Si Si6 0.928196 0.001277 0.017507
O O1 0.685850 0.369990 0.766879
O O2 0.560626 0.476011 0.726070
O O3 0.775493 0.398754 0.034983
O O4 0.811388 0.498605 0.945041
O O5 0.910042 0.334856 0.328118
O O6 0.929576 0.227347 0.473751
O O7 0.954235 0.379028 0.536359
O O8 0.158756 0.310195 0.683635
O O9 0.568378 0.982014 0.188223
O O10 0.808856 0.933325 0.398828
O O11 0.855943 0.084124 0.443671
O O12 0.000000 0.566227 0.250000
O O13 0.000000 0.000000 0.000000
#
# Coordination Sequence:
#
# PCOD9282436 Si02
#       6
#     8   8   8   8   8   8
#     4  10  22  40  64  96 119 154 213 257 306 357
#     4  12  24  40  61  89 127 166 204 244 319 365
#     4  11  21  40  68  88 120 164 204 260 302 365
#     4  11  25  39  60  90 128 166 199 253 303 376
#     4  10  21  41  67  89 115 158 212 260 304 362
#     4  10  21  39  62  89 120 158 210 253 295 355
#
# _framework density 19.812093000000001
#
# number of rings (size 3 to 8) (size 9 to 14) (size 15 to 20)
#    0.000    1.333    3.333    3.000    7.000    0.667 
#    0.000    2.500    0.000    0.000    0.000    0.000 
#    0.000    0.000    0.000    0.000    0.000    0.000 
#
# Total GULP energy -134070.682914 kJ/mol
# GULP energy per Si atom -5586.278455 kJ/mol
# Density = 1.976700 g / cm^3
# Si number density = 19.812093 Si / 1000 Ang^3
#
#
#
# Elastic Constant Matrix: (Units=GPa)
#
#
# Indices 1 2 3 4 5 6 
#
# 1 61.7940 -6.7427 9.3444 0.0000 24.3885 0.0000
# 2 -6.7427 37.1266 12.0733 0.0000 11.6772 0.0000
# 3 9.3444 12.0733 93.7854 0.0000 35.3935 0.0000
# 4 0.0000 0.0000 0.0000 16.2622 0.0000 9.1021
# 5 24.3885 11.6772 35.3935 0.0000 43.2373 0.0000
# 6 0.0000 0.0000 0.0000 9.1021 0.0000 13.6560
#
#
#
# Elastic Compliance Matrix: (Units=1/GPa)
#
#
# Indices 1 2 3 4 5 6 
#
# 1 0.024171 0.009217 0.003603 0.000000 -0.019073 0.000000
# 2 0.009217 0.033035 0.000229 0.000000 -0.014308 0.000000
# 3 0.003603 0.000229 0.016011 0.000000 -0.015200 0.000000
# 4 0.000000 0.000000 0.000000 0.098083 0.000000 -0.065375
# 5 -0.019073 -0.014308 -0.015200 0.000000 0.050193 0.000000
# 6 0.000000 0.000000 0.000000 -0.065375 0.000000 0.116803
#
#
# Mechanical properties :
#
#
# Convention : Reuss Voigt Hill
#
# Bulk Modulus (GPa) = 10.06914 24.67289 17.37102
# Shear Modulus (GPa) = 14.48005 26.49983 20.48994
#
# Velocity S-wave (km/s) = 2.70639 3.66123 3.21941
# Velocity P-wave (km/s) = 3.85479 5.50938 4.75462
#
# Compressibility (1/GPa) = 0.09931332
#
# Stress axis : x y z
#
# Youngs Moduli (GPa) = 41.37167 30.27126 62.45884
#
# Poissons Ratio (x) = -0.27901 -0.22503
# Poissons Ratio (y) = -0.38132 -0.01428
# Poissons Ratio (z) = -0.14906 -0.00692
#
# Static dielectric constant tensor:
#      x y z
#    x 1.712460 0.000000 -0.016490 
#    y 0.000000 1.671910 0.000000 
#    z -0.016490 0.000000 1.741130 
# 
# From -- ./inp_files/47933.got.cif
#   From: 2010.05.17/outbox.cif.g08.bks.cpg/sg15_24_cif.got.tgz:47933.got - 2010.06.03 18:47:42.
