data_PCOD9282036
_publ_section_title
;
Structure prediction by ZEFSAII (Michael W. Deem and Ramdas Pophale) SiO2 
 PCOD9282036
Probable space group: C 2/C
;
_chemical_formula_sum "Si O2"
_cell_formula_units_Z 56
_cell_length_a 19.974791
_cell_length_b 8.497919
_cell_length_c 15.696382
_cell_angle_alpha 90.000000
_cell_angle_beta 77.075974
_cell_angle_gamma 90.000000
_cell_volume 2596.873963
_symmetry_space_group_name_H-M "C 2/C"
_symmetry_group_IT_number 15
_symmetry_cell_setting 'monoclinic'
loop_
_space_group_symop_operation_xyz
x,y,z
-x,y,1/2-z
-x,-y,-z
x,-y,1/2+z
1/2+x,1/2+y,z
1/2-x,1/2+y,1/2-z
1/2-x,1/2-y,-z
1/2+x,1/2-y,1/2+z
loop_
_atom_site_type_symbol
_atom_site_label
_atom_site_fract_x
_atom_site_fract_y
_atom_site_fract_z
Si Si1 0.538094 0.113013 0.380182
Si Si2 0.668545 0.756089 0.768425
Si Si3 0.301100 0.605619 0.243158
Si Si4 0.997022 0.833164 0.956549
Si Si5 0.571044 0.445894 0.676942
Si Si6 0.130573 0.684534 0.904054
Si Si7 0.609172 0.799945 0.609797
O O1 0.588829 0.233081 0.318503
O O2 0.519243 0.192667 0.475086
O O3 0.462149 0.099961 0.360314
O O4 0.588502 0.965494 0.380106
O O5 0.691193 0.577835 0.781892
O O6 0.724215 0.865120 0.799847
O O7 0.662350 0.819536 0.672251
O O8 0.363748 0.619765 0.291210
O O9 0.308086 0.741684 0.168553
O O10 0.944185 0.830057 0.895896
O O11 0.073988 0.817956 0.902755
O O12 0.000000 0.000000 0.000000
O O13 0.500000 0.458308 0.750000
O O14 0.587370 0.616840 0.630843
O O15 0.138049 0.674474 0.005202
#
# Coordination Sequence:
#
# PCOD9282036 Si02
#       7
#     8   8   8   8   8   8   8
#     4  11  22  40  64  94 128 160 208 258 315 379
#     4  11  24  44  64  88 125 171 213 255 319 376
#     4  11  24  43  63  88 127 166 212 263 312 378
#     4  11  19  36  64  94 123 157 200 265 312 365
#     4  11  20  37  66  96 118 160 213 254 318 371
#     4  11  22  40  61  97 128 159 209 261 318 373
#     4  10  21  38  68  91 122 164 205 255 316 379
#
# _framework density 21.564388999999998
#
# number of rings (size 3 to 8) (size 9 to 14) (size 15 to 20)
#    0.000    1.143    4.286    5.571    0.000    0.571 
#   12.857    0.714    0.000    0.000    0.000    0.000 
#    0.000    0.000    0.000    0.000    0.000    0.000 
#
# Total GULP energy -155960.450385 kJ/mol
# GULP energy per Si atom -5570.016085 kJ/mol
# Density = 2.151531 g / cm^3
# Si number density = 21.564389 Si / 1000 Ang^3
#
#
#
# Elastic Constant Matrix: (Units=GPa)
#
#
# Indices 1 2 3 4 5 6 
#
# 1 109.3458 10.4575 15.0119 0.0000 10.4475 0.0000
# 2 10.4575 62.1203 1.8328 0.0000 -0.2910 0.0000
# 3 15.0119 1.8328 39.5388 0.0000 8.6119 0.0000
# 4 0.0000 0.0000 0.0000 20.1600 0.0000 -3.9433
# 5 10.4475 -0.2910 8.6119 0.0000 27.8168 0.0000
# 6 0.0000 0.0000 0.0000 -3.9433 0.0000 36.7723
#
#
#
# Elastic Compliance Matrix: (Units=1/GPa)
#
#
# Indices 1 2 3 4 5 6 
#
# 1 0.009994 -0.001604 -0.003108 0.000000 -0.002808 0.000000
# 2 -0.001604 0.016382 -0.000342 0.000000 0.000880 0.000000
# 3 -0.003108 -0.000342 0.028131 0.000000 -0.007545 0.000000
# 4 0.000000 0.000000 0.000000 0.050666 0.000000 0.005433
# 5 -0.002808 0.000880 -0.007545 0.000000 0.039349 0.000000
# 6 0.000000 0.000000 0.000000 0.005433 0.000000 0.027777
#
#
# Mechanical properties :
#
#
# Convention : Reuss Voigt Hill
#
# Bulk Modulus (GPa) = 22.52342 29.51214 26.01778
# Shear Modulus (GPa) = 25.35407 29.19667 27.27537
#
# Velocity S-wave (km/s) = 3.43262 3.68357 3.56031
# Velocity P-wave (km/s) = 5.11644 5.63976 5.38446
#
# Compressibility (1/GPa) = 0.04439823
#
# Stress axis : x y z
#
# Youngs Moduli (GPa) = 100.06285 61.04265 35.54783
#
# Poissons Ratio (x) = 0.09790 0.11050
# Poissons Ratio (y) = 0.16048 0.01216
# Poissons Ratio (z) = 0.31104 0.02088
#
# Static dielectric constant tensor:
#      x y z
#    x 1.786640 0.000000 -0.048610 
#    y 0.000000 1.829420 0.000000 
#    z -0.048610 0.000000 1.791610 
# 
# From -- ./inp_files/213358.got.cif
#   From: 2010.05.17/outbox.cif.g08.bks.cpg/sg15_107_cif.got.tgz:213358.got - 2010.06.03 18:47:42.
