data_PCOD9282481
_publ_section_title
;
Structure prediction by ZEFSAII (Michael W. Deem and Ramdas Pophale) SiO2 
 PCOD9282481
Probable space group: C 2/C
;
_chemical_formula_sum "Si O2"
_cell_formula_units_Z 56
_cell_length_a 11.274931
_cell_length_b 8.825310
_cell_length_c 28.536034
_cell_angle_alpha 90.000000
_cell_angle_beta 124.919569
_cell_angle_gamma 90.000000
_cell_volume 2328.242669
_symmetry_space_group_name_H-M "C 2/C"
_symmetry_group_IT_number 15
_symmetry_cell_setting 'monoclinic'
loop_
_space_group_symop_operation_xyz
x,y,z
-x,y,1/2-z
-x,-y,-z
x,-y,1/2+z
1/2+x,1/2+y,z
1/2-x,1/2+y,1/2-z
1/2-x,1/2-y,-z
1/2+x,1/2-y,1/2+z
loop_
_atom_site_type_symbol
_atom_site_label
_atom_site_fract_x
_atom_site_fract_y
_atom_site_fract_z
Si Si1 0.002834 0.003066 0.695955
Si Si2 0.529880 0.966570 0.149772
Si Si3 0.486743 0.559877 0.445042
Si Si4 0.634132 0.742930 0.621422
Si Si5 0.665280 0.713067 0.411461
Si Si6 0.239718 0.753446 0.349676
Si Si7 0.186733 0.458145 0.277634
O O1 0.894707 0.145476 0.664709
O O2 0.000000 0.962847 0.750000
O O3 0.166945 0.039210 0.720513
O O4 0.947261 0.873211 0.648650
O O5 0.379719 0.889137 0.101194
O O6 0.654709 0.865768 0.154276
O O7 0.556977 0.955012 0.211416
O O8 0.553756 0.131933 0.133752
O O9 0.500000 0.500000 0.500000
O O10 0.454341 0.410643 0.406690
O O11 0.624661 0.643897 0.452760
O O12 0.348464 0.671834 0.410498
O O13 0.683625 0.805431 0.581536
O O14 0.777983 0.685004 0.681306
O O15 0.187200 0.616649 0.305109
#
# Coordination Sequence:
#
# PCOD9282481 Si02
#       7
#     8   8   8   8   8   8   8
#     4  12  21  36  67  91 134 178 203 248 325 388
#     4  11  21  36  63  93 135 171 212 254 314 390
#     4  10  24  49  70  89 126 168 222 290 337 376
#     4  11  23  40  65  94 127 166 218 269 319 389
#     4  11  24  42  65  94 132 170 213 269 320 389
#     4  10  21  39  62  92 126 168 216 260 316 390
#     4  11  22  38  58  94 138 174 210 251 313 390
#
# _framework density 24.052477
#
# number of rings (size 3 to 8) (size 9 to 14) (size 15 to 20)
#    0.000    1.143    7.143    0.857    2.000    2.857 
#    0.000    3.571    0.000    0.000    0.000    0.000 
#    0.000    0.000    0.000    0.000    0.000    0.000 
#
# Total GULP energy -156773.732675 kJ/mol
# GULP energy per Si atom -5599.061881 kJ/mol
# Density = 2.399773 g / cm^3
# Si number density = 24.052477 Si / 1000 Ang^3
#
#
#
# Elastic Constant Matrix: (Units=GPa)
#
#
# Indices 1 2 3 4 5 6 
#
# 1 73.2183 20.5924 8.6506 0.0000 -12.3368 0.0000
# 2 20.5924 125.3141 33.7702 0.0000 -0.6006 0.0000
# 3 8.6506 33.7702 67.6483 0.0000 -10.6307 0.0000
# 4 0.0000 0.0000 0.0000 19.7165 0.0000 -4.7596
# 5 -12.3368 -0.6006 -10.6307 0.0000 28.6887 0.0000
# 6 0.0000 0.0000 0.0000 -4.7596 0.0000 55.7575
#
#
#
# Elastic Compliance Matrix: (Units=1/GPa)
#
#
# Indices 1 2 3 4 5 6 
#
# 1 0.015485 -0.002616 0.000386 0.000000 0.006747 0.000000
# 2 -0.002616 0.009733 -0.004957 0.000000 -0.002758 0.000000
# 3 0.000386 -0.004957 0.018282 0.000000 0.006837 0.000000
# 4 0.000000 0.000000 0.000000 0.051786 0.000000 0.004421
# 5 0.006747 -0.002758 0.006837 0.000000 0.040234 0.000000
# 6 0.000000 0.000000 0.000000 0.004421 0.000000 0.018312
#
#
# Mechanical properties :
#
#
# Convention : Reuss Voigt Hill
#
# Bulk Modulus (GPa) = 34.33536 43.57855 38.95695
# Shear Modulus (GPa) = 28.10333 34.37704 31.24019
#
# Velocity S-wave (km/s) = 3.42192 3.78465 3.60784
# Velocity P-wave (km/s) = 5.46982 6.10373 5.79545
#
# Compressibility (1/GPa) = 0.02912449
#
# Stress axis : x y z
#
# Youngs Moduli (GPa) = 64.57927 102.74733 54.69836
#
# Poissons Ratio (x) = 0.26882 -0.02113
# Poissons Ratio (y) = 0.16896 0.27116
# Poissons Ratio (z) = -0.02494 0.50936
#
# Static dielectric constant tensor:
#      x y z
#    x 1.938350 0.000000 -0.009100 
#    y 0.000000 1.896680 0.000000 
#    z -0.009100 0.000000 1.965470 
# 
# From -- ./inp_files/291635.got.cif
#   From: 2010.05.17/outbox.cif.g08.bks.cpg/sg15_146_cif.got.tgz:291635.got - 2010.06.03 18:47:42.
