data_PCOD9282398
_publ_section_title
;
Structure prediction by ZEFSAII (Michael W. Deem and Ramdas Pophale) SiO2 
 PCOD9282398
Probable space group: C 2/C
;
_chemical_formula_sum "Si O2"
_cell_formula_units_Z 60
_cell_length_a 12.667986
_cell_length_b 17.619751
_cell_length_c 27.528913
_cell_angle_alpha 90.000000
_cell_angle_beta 27.817893
_cell_angle_gamma 90.000000
_cell_volume 2867.475049
_symmetry_space_group_name_H-M "C 2/C"
_symmetry_group_IT_number 15
_symmetry_cell_setting 'monoclinic'
loop_
_space_group_symop_operation_xyz
x,y,z
-x,y,1/2-z
-x,-y,-z
x,-y,1/2+z
1/2+x,1/2+y,z
1/2-x,1/2+y,1/2-z
1/2-x,1/2-y,-z
1/2+x,1/2-y,1/2+z
loop_
_atom_site_type_symbol
_atom_site_label
_atom_site_fract_x
_atom_site_fract_y
_atom_site_fract_z
Si Si1 0.250984 0.283288 0.237919
Si Si2 0.500000 0.036858 0.250000
Si Si3 0.977745 0.562283 0.552042
Si Si4 0.851934 0.812036 0.352121
Si Si5 0.659529 0.301694 0.581274
Si Si6 0.481700 0.580871 0.031684
Si Si7 0.035740 0.436663 0.135923
Si Si8 0.404650 0.272575 0.067732
O O1 0.470069 0.313332 0.177160
O O2 0.090661 0.357200 0.304911
O O3 0.329809 0.262243 0.152481
O O4 0.111148 0.210045 0.314854
O O5 0.730960 0.085367 0.154944
O O6 0.500213 0.986554 0.199641
O O7 0.192309 0.621535 0.469700
O O8 0.000000 0.500000 0.500000
O O9 0.757373 0.612616 0.627626
O O10 0.955757 0.530182 0.616223
O O11 0.633004 0.769706 0.460384
O O12 0.000000 0.772721 0.250000
O O13 0.750000 0.250000 0.500000
O O14 0.713975 0.256906 0.608923
O O15 0.500000 0.500000 0.000000
O O16 0.539078 0.641006 0.967111
O O17 0.696919 0.582170 0.979220
#
# Coordination Sequence:
#
# PCOD9282398 Si02
#       8
#     8   4   8   8   8   8   8   8
#     4  12  21  40  72  97 134 178 243 291 367 431
#     4  10  24  38  64 106 138 180 244 308 366 424
#     4  11  25  46  71 100 146 195 248 301 376 462
#     4  11  24  44  66  97 139 191 237 298 378 442
#     4  11  21  42  72 101 134 185 242 294 365 449
#     4  10  21  39  61  98 138 171 229 292 362 425
#     4  11  21  41  70  98 135 195 235 298 369 446
#     4  11  23  38  67  99 133 176 235 307 356 434
#
# _framework density 20.924330999999999
#
# number of rings (size 3 to 8) (size 9 to 14) (size 15 to 20)
#    0.000    1.067    4.000    3.200    0.933    3.200 
#    0.000    2.667    2.933    0.000    0.000    0.000 
#    0.000    0.000    0.000    0.000    0.000    0.000 
#
# Total GULP energy -167146.227722 kJ/mol
# GULP energy per Si atom -5571.540924 kJ/mol
# Density = 2.087671 g / cm^3
# Si number density = 20.924331 Si / 1000 Ang^3
#
#
#
# Elastic Constant Matrix: (Units=GPa)
#
#
# Indices 1 2 3 4 5 6 
#
# 1 132.3890 16.6887 31.2901 0.0157 15.0890 -0.0017
# 2 16.6887 52.5200 4.4396 -0.0079 5.8444 -0.0010
# 3 31.2901 4.4396 88.5715 0.0105 3.7326 -0.0005
# 4 0.0157 -0.0079 0.0105 26.0201 -0.0226 -3.7608
# 5 15.0890 5.8444 3.7326 -0.0226 52.4816 0.0017
# 6 -0.0017 -0.0010 -0.0005 -3.7608 0.0017 28.1402
#
#
#
# Elastic Compliance Matrix: (Units=1/GPa)
#
#
# Indices 1 2 3 4 5 6 
#
# 1 0.008763 -0.002311 -0.002893 -0.000007 -0.002056 0.000000
# 2 -0.002311 0.019957 -0.000119 0.000006 -0.001550 0.000001
# 3 -0.002893 -0.000119 0.012320 -0.000003 -0.000031 0.000000
# 4 -0.000007 0.000006 -0.000003 0.039189 0.000018 0.005237
# 5 -0.002056 -0.001550 -0.000031 0.000018 0.019820 0.000001
# 6 0.000000 0.000001 0.000000 0.005237 0.000001 0.036236
#
#
# Mechanical properties :
#
#
# Convention : Reuss Voigt Hill
#
# Bulk Modulus (GPa) = 32.90125 42.03527 37.46826
# Shear Modulus (GPa) = 31.83443 36.06584 33.95013
#
# Velocity S-wave (km/s) = 3.90475 4.15617 4.03242
# Velocity P-wave (km/s) = 6.00729 6.56996 6.29492
#
# Compressibility (1/GPa) = 0.03039398
#
# Stress axis : x y z
#
# Youngs Moduli (GPa) = 114.11583 50.10720 81.17086
#
# Poissons Ratio (x) = 0.11580 0.23485
# Poissons Ratio (y) = 0.26374 0.00963
# Poissons Ratio (z) = 0.33017 0.00594
#
# Static dielectric constant tensor:
#      x y z
#    x 1.856910 -0.000010 -0.021520 
#    y -0.000010 1.756240 0.000000 
#    z -0.021520 0.000000 1.809420 
# 
# From -- ./inp_files/293523.got.cif
#   From: 2010.05.17/outbox.cif.g08.bks.cpg/sg15_147_cif.got.tgz:293523.got - 2010.06.03 18:47:42.
