data_PCOD9282336
_publ_section_title
;
Structure prediction by ZEFSAII (Michael W. Deem and Ramdas Pophale) SiO2 
 PCOD9282336
Probable space group: C 2/C
;
_chemical_formula_sum "Si O2"
_cell_formula_units_Z 56
_cell_length_a 15.319609
_cell_length_b 11.132238
_cell_length_c 16.750977
_cell_angle_alpha 90.000000
_cell_angle_beta 129.258320
_cell_angle_gamma 90.000000
_cell_volume 2211.973866
_symmetry_space_group_name_H-M "C 2/C"
_symmetry_group_IT_number 15
_symmetry_cell_setting 'monoclinic'
loop_
_space_group_symop_operation_xyz
x,y,z
-x,y,1/2-z
-x,-y,-z
x,-y,1/2+z
1/2+x,1/2+y,z
1/2-x,1/2+y,1/2-z
1/2-x,1/2-y,-z
1/2+x,1/2-y,1/2+z
loop_
_atom_site_type_symbol
_atom_site_label
_atom_site_fract_x
_atom_site_fract_y
_atom_site_fract_z
Si Si1 0.380927 0.654698 0.889041
Si Si2 0.346137 0.563606 0.688487
Si Si3 0.894697 0.809986 0.050994
Si Si4 0.538489 0.886953 0.194964
Si Si5 0.762329 0.555176 0.142729
Si Si6 0.090750 0.458651 0.986642
Si Si7 0.807317 0.823085 0.734416
O O1 0.360069 0.632079 0.781131
O O2 0.515227 0.647296 0.964719
O O3 0.322455 0.557544 0.912083
O O4 0.310704 0.774026 0.870277
O O5 0.400615 0.625711 0.641289
O O6 0.212942 0.554800 0.594148
O O7 0.372886 0.423536 0.721465
O O8 0.927098 0.669459 0.067317
O O9 0.772103 0.849397 0.945105
O O10 0.500000 0.816621 0.250000
O O11 0.619523 0.793415 0.198978
O O12 0.614908 0.998380 0.270574
O O13 0.429424 0.936509 0.088369
O O14 0.730260 0.613472 0.207289
O O15 0.000000 0.500000 0.000000
#
# Coordination Sequence:
#
# PCOD9282336 Si02
#       7
#     8   8   8   8   8   8   8
#     4  10  21  39  61  88 125 176 220 265 331 403
#     4  11  24  41  63  98 131 168 223 282 332 385
#     4  12  23  38  64  97 130 168 218 281 330 383
#     4  11  24  42  65  97 130 171 218 273 331 387
#     4  10  21  40  62  90 128 169 217 266 327 402
#     4  12  24  41  66  95 129 174 221 265 328 401
#     4  10  22  43  66  87 130 176 217 268 328 399
#
# _framework density 25.316754
#
# number of rings (size 3 to 8) (size 9 to 14) (size 15 to 20)
#    0.000    1.143    0.000    8.143    0.000    4.571 
#    0.000    9.286    0.000    0.000    0.000    0.000 
#    0.000    0.000    0.000    0.000    0.000    0.000 
#
# Total GULP energy -156369.075480 kJ/mol
# GULP energy per Si atom -5584.609839 kJ/mol
# Density = 2.525913 g / cm^3
# Si number density = 25.316754 Si / 1000 Ang^3
#
#
#
# Elastic Constant Matrix: (Units=GPa)
#
#
# Indices 1 2 3 4 5 6 
#
# 1 86.8444 24.8682 -3.1659 0.0000 -2.2681 0.0000
# 2 24.8682 124.4245 22.8423 0.0000 -14.7100 0.0000
# 3 -3.1659 22.8423 51.0748 0.0000 3.8817 0.0000
# 4 0.0000 0.0000 0.0000 21.8605 0.0000 0.9543
# 5 -2.2681 -14.7100 3.8817 0.0000 40.8576 0.0000
# 6 0.0000 0.0000 0.0000 0.9543 0.0000 34.3165
#
#
#
# Elastic Compliance Matrix: (Units=1/GPa)
#
#
# Indices 1 2 3 4 5 6 
#
# 1 0.012420 -0.002941 0.002128 0.000000 -0.000571 0.000000
# 2 -0.002941 0.009995 -0.004949 0.000000 0.003905 0.000000
# 3 0.002128 -0.004949 0.022211 0.000000 -0.003774 0.000000
# 4 0.000000 0.000000 0.000000 0.045800 0.000000 -0.001274
# 5 -0.000571 0.003905 -0.003774 0.000000 0.026208 0.000000
# 6 0.000000 0.000000 0.000000 -0.001274 0.000000 0.029176
#
#
# Mechanical properties :
#
#
# Convention : Reuss Voigt Hill
#
# Bulk Modulus (GPa) = 30.20857 39.04810 34.62834
# Shear Modulus (GPa) = 29.69699 33.92686 31.81193
#
# Velocity S-wave (km/s) = 3.42865 3.66470 3.54864
# Velocity P-wave (km/s) = 5.25665 5.77616 5.52252
#
# Compressibility (1/GPa) = 0.03310319
#
# Stress axis : x y z
#
# Youngs Moduli (GPa) = 80.51825 100.04981 45.02209
#
# Poissons Ratio (x) = 0.29420 -0.09582
# Poissons Ratio (y) = 0.23677 0.22282
# Poissons Ratio (z) = -0.17137 0.49516
#
# Static dielectric constant tensor:
#      x y z
#    x 2.088490 0.000000 0.022810 
#    y 0.000000 2.048830 0.000000 
#    z 0.022810 0.000000 2.047260 
# 
# From -- ./inp_files/210699.got.cif
#   From: 2010.05.17/outbox.cif.g08.bks.cpg/sg15_106_cif.got.tgz:210699.got - 2010.06.03 18:47:42.
