data_PCOD9282779
_publ_section_title
;
Structure prediction by ZEFSAII (Michael W. Deem and Ramdas Pophale) SiO2 
 PCOD9282779
Probable space group: C 2/C
;
_chemical_formula_sum "Si O2"
_cell_formula_units_Z 52
_cell_length_a 19.518330
_cell_length_b 19.362611
_cell_length_c 8.026943
_cell_angle_alpha 90.000000
_cell_angle_beta 45.748564
_cell_angle_gamma 90.000000
_cell_volume 2172.912717
_symmetry_space_group_name_H-M "C 2/C"
_symmetry_group_IT_number 15
_symmetry_cell_setting 'monoclinic'
loop_
_space_group_symop_operation_xyz
x,y,z
-x,y,1/2-z
-x,-y,-z
x,-y,1/2+z
1/2+x,1/2+y,z
1/2-x,1/2+y,1/2-z
1/2-x,1/2-y,-z
1/2+x,1/2-y,1/2+z
loop_
_atom_site_type_symbol
_atom_site_label
_atom_site_fract_x
_atom_site_fract_y
_atom_site_fract_z
Si Si1 0.382748 0.139317 0.268866
Si Si2 0.203173 0.493127 0.164587
Si Si3 0.000000 0.117680 0.750000
Si Si4 0.423928 0.365900 0.027212
Si Si5 0.656990 0.518201 0.317531
Si Si6 0.382105 0.770961 0.460787
Si Si7 0.387861 0.152824 0.625979
O O1 0.349720 0.059549 0.322114
O O2 0.354138 0.169526 0.496617
O O3 0.346517 0.177639 0.165227
O O4 0.496974 0.148950 0.068504
O O5 0.236814 0.522142 0.286425
O O6 0.141728 0.425125 0.280072
O O7 0.310248 0.467294 0.926462
O O8 0.963125 0.156902 0.645428
O O9 0.082719 0.068943 0.529811
O O10 0.500000 0.377012 0.750000
O O11 0.359063 0.305755 0.061513
O O12 0.379629 0.440293 0.134782
O O13 0.500000 0.772447 0.250000
O O14 0.352006 0.795618 0.329530
#
# Coordination Sequence:
#
# PCOD9282779 Si02
#       7
#     8   8   4   8   8   8   8
#     4  10  21  39  64  94 131 171 213 255 316 388
#     4  12  22  38  65  95 133 165 213 270 323 374
#     4  12  24  44  70  96 126 162 224 280 326 384
#     4  11  23  42  67  94 125 171 216 267 332 383
#     4  12  23  40  65  94 129 163 216 276 325 381
#     4   9  21  39  62  91 128 168 217 256 311 390
#     4  10  21  39  64  94 133 168 211 260 312 385
#
# _framework density 23.931013
#
# number of rings (size 3 to 8) (size 9 to 14) (size 15 to 20)
#    0.000    1.231    3.846    2.769    0.000    3.692 
#    0.000    1.538    0.000    0.000    0.000    3.231 
#    0.000    0.000    0.000    0.000    0.000    0.000 
#
# Total GULP energy -145090.517362 kJ/mol
# GULP energy per Si atom -5580.404514 kJ/mol
# Density = 2.387654 g / cm^3
# Si number density = 23.931013 Si / 1000 Ang^3
#
#
#
# Elastic Constant Matrix: (Units=GPa)
#
#
# Indices 1 2 3 4 5 6 
#
# 1 64.0861 17.4366 35.9573 0.0000 20.3946 0.0000
# 2 17.4366 53.9597 44.2960 0.0000 9.6242 0.0000
# 3 35.9573 44.2960 123.3757 0.0000 25.8738 0.0000
# 4 0.0000 0.0000 0.0000 -2.7176 0.0000 41.2743
# 5 20.3946 9.6242 25.8738 0.0000 31.2423 0.0000
# 6 0.0000 0.0000 0.0000 41.2743 0.0000 -17.3316
#
#
#
# Elastic Compliance Matrix: (Units=1/GPa)
#
#
# Indices 1 2 3 4 5 6 
#
# 1 0.021410 -0.002453 -0.003130 0.000000 -0.010628 0.000000
# 2 -0.002453 0.026561 -0.009005 0.000000 0.000877 0.000000
# 3 -0.003130 -0.009005 0.013603 0.000000 -0.006448 0.000000
# 4 0.000000 0.000000 0.000000 0.010463 0.000000 0.024917
# 5 -0.010628 0.000877 -0.006448 0.000000 0.044016 0.000000
# 6 0.000000 0.000000 0.000000 0.024917 0.000000 0.001641
#
#
# Mechanical properties :
#
#
# Convention : Reuss Voigt Hill
#
# Bulk Modulus (GPa) = 30.86721 48.53349 39.70035
# Shear Modulus (GPa) = 31.71176 11.82073 21.76624
#
# Velocity S-wave (km/s) = 3.64419 2.22491 3.01913
# Velocity P-wave (km/s) = 5.53473 5.18892 5.36461
#
# Compressibility (1/GPa) = 0.03239684
#
# Stress axis : x y z
#
# Youngs Moduli (GPa) = 46.70703 37.64886 73.51259
#
# Poissons Ratio (x) = 0.09236 0.23011
# Poissons Ratio (y) = 0.11458 0.66201
# Poissons Ratio (z) = 0.14620 0.33904
#
# Static dielectric constant tensor:
#      x y z
#    x 2.050520 0.000000 0.080410 
#    y 0.000000 1.914220 0.000000 
#    z 0.080410 0.000000 1.966180 
# 
# From -- ./inp_files/56936.got.cif
#   From: 2010.05.17/outbox.cif.g08.bks.cpg/sg15_29_cif.got.tgz:56936.got - 2010.06.03 18:47:42.
