data_PCOD9282365
_publ_section_title
;
Structure prediction by ZEFSAII (Michael W. Deem and Ramdas Pophale) SiO2 
 PCOD9282365
Probable space group: C 2/C
;
_chemical_formula_sum "Si O2"
_cell_formula_units_Z 56
_cell_length_a 7.737922
_cell_length_b 24.172581
_cell_length_c 18.685259
_cell_angle_alpha 90.000000
_cell_angle_beta 41.744134
_cell_angle_gamma 90.000000
_cell_volume 2326.985778
_symmetry_space_group_name_H-M "C 2/C"
_symmetry_group_IT_number 15
_symmetry_cell_setting 'monoclinic'
loop_
_space_group_symop_operation_xyz
x,y,z
-x,y,1/2-z
-x,-y,-z
x,-y,1/2+z
1/2+x,1/2+y,z
1/2-x,1/2+y,1/2-z
1/2-x,1/2-y,-z
1/2+x,1/2-y,1/2+z
loop_
_atom_site_type_symbol
_atom_site_label
_atom_site_fract_x
_atom_site_fract_y
_atom_site_fract_z
Si Si1 0.806811 0.710296 0.640332
Si Si2 0.642552 0.582907 0.135829
Si Si3 0.318192 0.896155 0.235812
Si Si4 0.413587 0.412646 0.475781
Si Si5 0.161598 0.524636 0.558097
Si Si6 0.761991 0.180313 0.212694
Si Si7 0.047643 0.673588 0.058805
O O1 0.500000 0.716661 0.750000
O O2 0.869311 0.655603 0.667260
O O3 0.921792 0.768089 0.632487
O O4 0.861574 0.705473 0.539232
O O5 0.500000 0.561049 0.250000
O O6 0.434972 0.625735 0.165605
O O7 0.886642 0.621290 0.079151
O O8 0.746417 0.537600 0.049933
O O9 0.500000 0.888941 0.250000
O O10 0.392819 0.950627 0.167980
O O11 0.034574 0.904857 0.358623
O O12 0.197633 0.459703 0.556021
O O13 0.639645 0.438384 0.455081
O O14 0.290688 0.352603 0.526820
O O15 0.500000 0.167577 0.250000
O O16 0.653853 0.199934 0.323834
#
# Coordination Sequence:
#
# PCOD9282365 Si02
#       7
#     8   8   8   8   8   8   8
#     4  11  22  41  63  91 124 164 210 263 316 373
#     4  10  22  40  59  91 127 159 209 258 311 376
#     4  10  21  39  61  91 124 160 210 257 306 380
#     4  10  22  39  66  91 126 166 207 259 310 379
#     4  10  21  41  63  93 122 169 209 251 319 370
#     4  10  24  41  62  89 124 169 208 260 314 378
#     4  11  22  41  62  91 127 161 207 264 315 371
#
# _framework density 24.065467000000002
#
# number of rings (size 3 to 8) (size 9 to 14) (size 15 to 20)
#    0.000    1.714    2.857    0.857    0.000    7.429 
#    7.714    4.286    0.000    0.000    0.000    0.000 
#    0.000    0.000    0.000    0.000    0.000    0.000 
#
# Total GULP energy -156416.957157 kJ/mol
# GULP energy per Si atom -5586.319898 kJ/mol
# Density = 2.401069 g / cm^3
# Si number density = 24.065467 Si / 1000 Ang^3
#
#
#
# Elastic Constant Matrix: (Units=GPa)
#
#
# Indices 1 2 3 4 5 6 
#
# 1 44.5175 17.1006 -8.5153 0.0000 4.2361 0.0000
# 2 17.1006 68.0153 22.8960 0.0000 8.1042 0.0000
# 3 -8.5153 22.8960 108.6872 0.0001 18.1961 0.0000
# 4 0.0000 0.0000 0.0001 3.3389 0.0000 -19.2897
# 5 4.2361 8.1042 18.1961 0.0000 34.0040 0.0000
# 6 0.0000 0.0000 0.0000 -19.2897 0.0000 -14.3339
#
#
#
# Elastic Compliance Matrix: (Units=1/GPa)
#
#
# Indices 1 2 3 4 5 6 
#
# 1 0.026614 -0.007700 0.004344 0.000000 -0.003805 0.000000
# 2 -0.007700 0.018202 -0.004253 0.000000 -0.001103 0.000000
# 3 0.004344 -0.004253 0.011377 0.000000 -0.005616 0.000000
# 4 0.000000 0.000000 0.000000 0.034132 0.000000 -0.045933
# 5 -0.003805 -0.001103 -0.005616 0.000000 0.033150 0.000000
# 6 0.000000 0.000000 0.000000 -0.045933 0.000000 -0.007951
#
#
# Mechanical properties :
#
#
# Convention : Reuss Voigt Hill
#
# Bulk Modulus (GPa) = 24.40533 31.57586 27.99060
# Shear Modulus (GPa) = 34.62570 17.25105 25.93837
#
# Velocity S-wave (km/s) = 3.79728 2.68029 3.28659
# Velocity P-wave (km/s) = 5.42117 4.76738 5.10475
#
# Compressibility (1/GPa) = 0.04097465
#
# Stress axis : x y z
#
# Youngs Moduli (GPa) = 37.57408 54.93976 87.89522
#
# Poissons Ratio (x) = 0.42306 -0.38184
# Poissons Ratio (y) = 0.28934 0.37382
# Poissons Ratio (z) = -0.16323 0.23366
#
# Static dielectric constant tensor:
#      x y z
#    x 2.027320 0.000000 -0.002840 
#    y 0.000000 1.931470 0.000000 
#    z -0.002840 0.000000 1.924090 
# 
# From -- ./inp_files/138510.got.cif
#   From: 2010.05.17/outbox.cif.g08.bks.cpg/sg15_70_cif.got.tgz:138510.got - 2010.06.03 18:47:42.
