data_PCOD9282499
_publ_section_title
;
Structure prediction by ZEFSAII (Michael W. Deem and Ramdas Pophale) SiO2 
 PCOD9282499
Probable space group: C 2/C
;
_chemical_formula_sum "Si O2"
_cell_formula_units_Z 32
_cell_length_a 16.882472
_cell_length_b 9.064279
_cell_length_c 8.796350
_cell_angle_alpha 90.000000
_cell_angle_beta 81.161536
_cell_angle_gamma 90.000000
_cell_volume 1330.098770
_symmetry_space_group_name_H-M "C 2/C"
_symmetry_group_IT_number 15
_symmetry_cell_setting 'monoclinic'
loop_
_space_group_symop_operation_xyz
x,y,z
-x,y,1/2-z
-x,-y,-z
x,-y,1/2+z
1/2+x,1/2+y,z
1/2-x,1/2+y,1/2-z
1/2-x,1/2-y,-z
1/2+x,1/2-y,1/2+z
loop_
_atom_site_type_symbol
_atom_site_label
_atom_site_fract_x
_atom_site_fract_y
_atom_site_fract_z
Si Si1 0.163905 0.788562 0.714306
Si Si2 0.903123 0.698820 0.270424
Si Si3 0.813749 0.924925 0.117222
Si Si4 0.414352 0.935036 0.075946
O O1 0.156488 0.878654 0.559400
O O2 0.231524 0.663949 0.668455
O O3 0.088449 0.691688 0.795134
O O4 0.188739 0.903725 0.838886
O O5 0.874074 0.854610 0.222589
O O6 0.873259 0.580566 0.154454
O O7 0.875018 0.637816 0.440487
O O8 0.000000 0.698760 0.250000
O O9 0.500000 0.000000 0.000000
#
# Coordination Sequence:
#
# PCOD9282499 Si02
#       4
#     8   8   8   8
#     4  11  24  42  67  99 134 176 224 277 337 400
#     4  10  21  39  62  93 130 173 219 270 330 394
#     4  11  24  42  67  99 136 176 223 279 336 400
#     4  10  21  39  63  93 130 173 219 269 329 396
#
# _framework density 24.058364999999998
#
# number of rings (size 3 to 8) (size 9 to 14) (size 15 to 20)
#    0.000    1.500    0.000    4.500    0.000   10.000 
#    0.000   15.000    0.000    0.000    0.000    0.000 
#    0.000    0.000    0.000    0.000    0.000    0.000 
#
# Total GULP energy -89439.655231 kJ/mol
# GULP energy per Si atom -5589.978452 kJ/mol
# Density = 2.400361 g / cm^3
# Si number density = 24.058365 Si / 1000 Ang^3
#
#
#
# Elastic Constant Matrix: (Units=GPa)
#
#
# Indices 1 2 3 4 5 6 
#
# 1 61.6558 36.8111 44.4268 0.0000 0.3112 0.0000
# 2 36.8111 146.3148 66.1965 0.0000 -22.0492 0.0000
# 3 44.4268 66.1965 132.1536 0.0000 -16.8515 0.0000
# 4 0.0000 0.0000 0.0000 57.6178 0.0000 3.5572
# 5 0.3112 -22.0492 -16.8515 0.0000 22.8904 0.0000
# 6 0.0000 0.0000 0.0000 3.5572 0.0000 33.1021
#
#
#
# Elastic Compliance Matrix: (Units=1/GPa)
#
#
# Indices 1 2 3 4 5 6 
#
# 1 0.023968 -0.004249 -0.007165 0.000000 -0.009694 0.000000
# 2 -0.004249 0.010348 -0.002733 0.000000 0.008013 0.000000
# 3 -0.007165 -0.002733 0.012163 0.000000 0.006419 0.000000
# 4 0.000000 0.000000 0.000000 0.017472 0.000000 -0.001878
# 5 -0.009694 0.008013 0.006419 0.000000 0.056263 0.000000
# 6 0.000000 0.000000 0.000000 -0.001878 0.000000 0.030411
#
#
# Mechanical properties :
#
#
# Convention : Reuss Voigt Hill
#
# Bulk Modulus (GPa) = 54.99243 70.55477 62.77360
# Shear Modulus (GPa) = 27.02997 35.56803 31.29900
#
# Velocity S-wave (km/s) = 3.35553 3.84918 3.61080
# Velocity P-wave (km/s) = 6.15795 7.01035 6.59793
#
# Compressibility (1/GPa) = 0.01818432
#
# Stress axis : x y z
#
# Youngs Moduli (GPa) = 41.72267 96.64048 82.21559
#
# Poissons Ratio (x) = 0.41064 0.58908
# Poissons Ratio (y) = 0.17729 0.22469
# Poissons Ratio (z) = 0.29894 0.26411
#
# Static dielectric constant tensor:
#      x y z
#    x 1.966000 0.000000 -0.040120 
#    y 0.000000 1.866120 0.000000 
#    z -0.040120 0.000000 1.998820 
# 
# From -- ./inp_files/53404.got.cif
#   From: 2010.05.17/outbox.cif.g08.bks.cpg/sg15_27_cif.got.tgz:53404.got - 2010.06.03 18:47:42.
