data_PCOD9282270
_publ_section_title
;
Structure prediction by ZEFSAII (Michael W. Deem and Ramdas Pophale) SiO2 
 PCOD9282270
Probable space group: C 2/C
;
_chemical_formula_sum "Si O2"
_cell_formula_units_Z 60
_cell_length_a 30.387010
_cell_length_b 13.878617
_cell_length_c 19.749581
_cell_angle_alpha 90.000000
_cell_angle_beta 157.693051
_cell_angle_gamma 90.000000
_cell_volume 3161.419003
_symmetry_space_group_name_H-M "C 2/C"
_symmetry_group_IT_number 15
_symmetry_cell_setting 'monoclinic'
loop_
_space_group_symop_operation_xyz
x,y,z
-x,y,1/2-z
-x,-y,-z
x,-y,1/2+z
1/2+x,1/2+y,z
1/2-x,1/2+y,1/2-z
1/2-x,1/2-y,-z
1/2+x,1/2-y,1/2+z
loop_
_atom_site_type_symbol
_atom_site_label
_atom_site_fract_x
_atom_site_fract_y
_atom_site_fract_z
Si Si1 0.309098 0.505465 0.035874
Si Si2 0.493387 0.696728 0.885314
Si Si3 0.000000 0.108036 0.750000
Si Si4 0.420226 0.909949 0.808009
Si Si5 0.806019 0.292907 0.147173
Si Si6 0.113900 0.023216 0.706840
Si Si7 0.949928 0.607581 0.508647
Si Si8 0.268988 0.366660 0.708349
O O1 0.389656 0.461601 0.092834
O O2 0.378348 0.519973 0.205375
O O3 0.205152 0.430589 0.902448
O O4 0.252038 0.602685 0.927703
O O5 0.481860 0.669679 0.790812
O O6 0.478376 0.809797 0.871746
O O7 0.398654 0.637141 0.795169
O O8 0.617958 0.655938 0.085499
O O9 0.497196 0.002642 0.898738
O O10 0.406508 0.904386 0.869828
O O11 0.774574 0.218539 0.161170
O O12 0.943775 0.315550 0.338885
O O13 0.750000 0.250000 0.000000
O O14 0.213493 0.968771 0.806108
O O15 0.000000 0.000000 0.500000
O O16 0.846733 0.633781 0.412167
#
# Coordination Sequence:
#
# PCOD9282270 Si02
#       8
#     8   8   4   8   8   8   8   8
#     4  10  21  39  60  90 126 165 204 262 318 370
#     4  10  21  42  63  90 124 168 210 259 314 378
#     4  10  22  38  60  90 124 160 216 256 302 382
#     4  10  21  43  62  87 129 165 202 263 323 368
#     4  11  22  40  64  91 130 163 206 264 318 376
#     4   9  20  38  61  87 128 159 202 268 307 360
#     4  10  23  41  64  91 128 166 207 264 317 382
#     4  11  21  42  63  96 122 165 217 254 318 380
#
# _framework density 18.978819000000001
#
# number of rings (size 3 to 8) (size 9 to 14) (size 15 to 20)
#    0.000    1.867    2.667    0.800    0.000    3.733 
#    7.200    0.000    0.000    0.000    0.000    0.000 
#    0.000    0.000    0.000    0.000    0.000    0.000 
#
# Total GULP energy -167208.387903 kJ/mol
# GULP energy per Si atom -5573.612930 kJ/mol
# Density = 1.893562 g / cm^3
# Si number density = 18.978819 Si / 1000 Ang^3
#
#
#
# Elastic Constant Matrix: (Units=GPa)
#
#
# Indices 1 2 3 4 5 6 
#
# 1 99.9443 59.4010 44.4571 0.0000 23.7347 0.0000
# 2 59.4010 92.1588 37.8067 0.0000 19.4586 0.0000
# 3 44.4571 37.8067 79.3741 0.0000 5.6471 0.0000
# 4 0.0000 0.0000 0.0000 21.1797 0.0000 1.0256
# 5 23.7347 19.4586 5.6471 0.0000 33.6924 0.0000
# 6 0.0000 0.0000 0.0000 1.0256 0.0000 19.9208
#
#
#
# Elastic Compliance Matrix: (Units=1/GPa)
#
#
# Indices 1 2 3 4 5 6 
#
# 1 0.019796 -0.008395 -0.006520 0.000000 -0.008004 0.000000
# 2 -0.008395 0.018780 -0.003939 0.000000 -0.004272 0.000000
# 3 -0.006520 -0.003939 0.017851 0.000000 0.003876 0.000000
# 4 0.000000 0.000000 0.000000 0.047333 0.000000 -0.002437
# 5 -0.008004 -0.004272 0.003876 0.000000 0.037136 0.000000
# 6 0.000000 0.000000 0.000000 -0.002437 0.000000 0.050324
#
#
# Mechanical properties :
#
#
# Convention : Reuss Voigt Hill
#
# Bulk Modulus (GPa) = 53.42129 61.64522 57.53325
# Shear Modulus (GPa) = 21.26154 23.61275 22.43714
#
# Velocity S-wave (km/s) = 3.35069 3.53110 3.44207
# Velocity P-wave (km/s) = 6.57103 7.01259 6.79540
#
# Compressibility (1/GPa) = 0.01871913
#
# Stress axis : x y z
#
# Youngs Moduli (GPa) = 50.51577 53.24906 56.02042
#
# Poissons Ratio (x) = 0.44702 0.36523
# Poissons Ratio (y) = 0.42407 0.22067
# Poissons Ratio (z) = 0.32934 0.20975
#
# Static dielectric constant tensor:
#      x y z
#    x 1.579620 0.000000 0.047340 
#    y 0.000000 1.687200 0.000000 
#    z 0.047340 0.000000 1.638960 
# 
# From -- ./inp_files/222585.got.cif
#   From: 2010.05.17/outbox.cif.g08.bks.cpg/sg15_112_cif.got.tgz:222585.got - 2010.06.03 18:47:42.
