data_PCOD9282000
_publ_section_title
;
Structure prediction by ZEFSAII (Michael W. Deem and Ramdas Pophale) SiO2 
 PCOD9282000
Probable space group: C 2/C
;
_chemical_formula_sum "Si O2"
_cell_formula_units_Z 60
_cell_length_a 21.757746
_cell_length_b 8.543987
_cell_length_c 18.286296
_cell_angle_alpha 90.000000
_cell_angle_beta 123.493872
_cell_angle_gamma 90.000000
_cell_volume 2834.898782
_symmetry_space_group_name_H-M "C 2/C"
_symmetry_group_IT_number 15
_symmetry_cell_setting 'monoclinic'
loop_
_space_group_symop_operation_xyz
x,y,z
-x,y,1/2-z
-x,-y,-z
x,-y,1/2+z
1/2+x,1/2+y,z
1/2-x,1/2+y,1/2-z
1/2-x,1/2-y,-z
1/2+x,1/2-y,1/2+z
loop_
_atom_site_type_symbol
_atom_site_label
_atom_site_fract_x
_atom_site_fract_y
_atom_site_fract_z
Si Si1 0.500000 0.880675 0.750000
Si Si2 0.797488 0.731288 0.432758
Si Si3 0.933134 0.639482 0.603640
Si Si4 0.366841 0.651154 0.173514
Si Si5 0.112129 0.172802 0.738012
Si Si6 0.700550 0.922332 0.722591
Si Si7 0.141530 0.007745 0.614079
Si Si8 0.586633 0.201736 0.639907
O O1 0.545109 0.769893 0.726023
O O2 0.449801 0.996053 0.668545
O O3 0.855875 0.622766 0.511931
O O4 0.713285 0.716988 0.404248
O O5 0.788673 0.669729 0.344756
O O6 0.839984 0.898005 0.448058
O O7 0.923641 0.792474 0.649094
O O8 0.000809 0.660314 0.592120
O O9 0.366812 0.468403 0.193872
O O10 0.389932 0.730950 0.265063
O O11 0.176062 0.300170 0.768341
O O12 0.096595 0.106072 0.645974
O O13 0.777939 0.992392 0.796450
O O14 0.637794 0.050089 0.666621
O O15 0.105518 0.835319 0.592608
#
# Coordination Sequence:
#
# PCOD9282000 Si02
#       8
#     4   8   8   8   8   8   8   8
#     4  12  24  42  62  92 126 172 208 262 314 386
#     4  11  24  40  65  96 127 164 211 270 314 374
#     4  12  25  42  62  92 131 174 211 255 325 375
#     4  11  21  42  66  91 124 168 218 258 312 382
#     4  10  22  36  67  91 117 160 216 255 308 378
#     4  11  18  41  65  94 120 159 211 260 322 370
#     4  10  21  38  67  94 121 160 212 263 309 378
#     4  11  20  38  68  89 122 172 209 257 317 382
#
# _framework density 21.164776
#
# number of rings (size 3 to 8) (size 9 to 14) (size 15 to 20)
#    0.000    1.067    6.667    1.200    3.733    1.067 
#    0.000    2.000    0.000    0.000    0.000    0.000 
#    0.000    0.000    0.000    0.000    0.000    0.000 
#
# Total GULP energy -167476.693993 kJ/mol
# GULP energy per Si atom -5582.556466 kJ/mol
# Density = 2.111660 g / cm^3
# Si number density = 21.164776 Si / 1000 Ang^3
#
#
#
# Elastic Constant Matrix: (Units=GPa)
#
#
# Indices 1 2 3 4 5 6 
#
# 1 82.5611 32.4099 -12.1079 0.0000 20.2334 0.0000
# 2 32.4099 97.3021 -14.6612 0.0000 -3.8753 0.0000
# 3 -12.1079 -14.6612 34.8457 0.0000 9.4072 0.0000
# 4 0.0000 0.0000 0.0000 15.9825 0.0000 16.8241
# 5 20.2334 -3.8753 9.4072 0.0000 17.1076 0.0000
# 6 0.0000 0.0000 0.0000 16.8241 0.0000 35.7825
#
#
#
# Elastic Compliance Matrix: (Units=1/GPa)
#
#
# Indices 1 2 3 4 5 6 
#
# 1 0.030930 -0.009225 0.020323 0.000000 -0.049846 0.000000
# 2 -0.009225 0.013725 -0.001428 0.000000 0.014805 0.000000
# 3 0.020323 -0.001428 0.049010 0.000000 -0.051309 0.000000
# 4 0.000000 0.000000 0.000000 0.123882 0.000000 -0.058246
# 5 -0.049846 0.014805 -0.051309 0.000000 0.148976 0.000000
# 6 0.000000 0.000000 0.000000 -0.058246 0.000000 0.055333
#
#
# Mechanical properties :
#
#
# Convention : Reuss Voigt Hill
#
# Bulk Modulus (GPa) = 8.84929 25.11008 16.97968
# Shear Modulus (GPa) = 11.35887 27.71239 19.53563
#
# Velocity S-wave (km/s) = 2.31916 3.62244 3.04143
# Velocity P-wave (km/s) = 3.37069 5.42088 4.51373
#
# Compressibility (1/GPa) = 0.11300344
#
# Stress axis : x y z
#
# Youngs Moduli (GPa) = 32.33102 72.86171 20.40382
#
# Poissons Ratio (x) = 0.67218 -0.41466
# Poissons Ratio (y) = 0.29827 0.02914
# Poissons Ratio (z) = -0.65705 0.10404
#
# Static dielectric constant tensor:
#      x y z
#    x 1.840360 0.000000 0.006220 
#    y 0.000000 1.806940 0.000000 
#    z 0.006220 0.000000 1.745530 
# 
# From -- ./inp_files/213858.got.cif
#   From: 2010.05.17/outbox.cif.g08.bks.cpg/sg15_107_cif.got.tgz:213858.got - 2010.06.03 18:47:42.
