data_PCOD9282918
_publ_section_title
;
Structure prediction by ZEFSAII (Michael W. Deem and Ramdas Pophale) SiO2 
 PCOD9282918
Probable space group: C 2/C
;
_chemical_formula_sum "Si O2"
_cell_formula_units_Z 56
_cell_length_a 13.871181
_cell_length_b 19.264114
_cell_length_c 18.653555
_cell_angle_alpha 90.000000
_cell_angle_beta 149.104187
_cell_angle_gamma 90.000000
_cell_volume 2559.448487
_symmetry_space_group_name_H-M "C 2/C"
_symmetry_group_IT_number 15
_symmetry_cell_setting 'monoclinic'
loop_
_space_group_symop_operation_xyz
x,y,z
-x,y,1/2-z
-x,-y,-z
x,-y,1/2+z
1/2+x,1/2+y,z
1/2-x,1/2+y,1/2-z
1/2-x,1/2-y,-z
1/2+x,1/2-y,1/2+z
loop_
_atom_site_type_symbol
_atom_site_label
_atom_site_fract_x
_atom_site_fract_y
_atom_site_fract_z
Si Si1 0.349242 0.060265 0.904713
Si Si2 0.500000 0.910280 0.250000
Si Si3 0.806120 0.157244 0.492820
Si Si4 0.070284 0.333105 0.164512
Si Si5 0.000000 0.899508 0.250000
Si Si6 0.295993 0.526160 0.393346
Si Si7 0.925458 0.755274 0.436137
Si Si8 0.444088 0.141060 0.341089
O O1 0.355343 0.102768 0.835640
O O2 0.139884 0.048534 0.797202
O O3 0.417952 0.109666 0.011885
O O4 0.500000 0.000000 0.000000
O O5 0.437558 0.864162 0.141733
O O6 0.664008 0.961807 0.328203
O O7 0.927711 0.153373 0.642358
O O8 0.589929 0.171295 0.375871
O O9 0.898621 0.205329 0.490359
O O10 0.810831 0.077511 0.470067
O O11 0.247646 0.305816 0.323686
O O12 0.981337 0.281297 0.047235
O O13 0.500000 0.500000 0.500000
O O14 0.190071 0.579336 0.271039
O O15 0.851109 0.700825 0.328371
#
# Coordination Sequence:
#
# PCOD9282918 Si02
#       8
#     8   4   8   8   4   8   8   8
#     4  10  21  39  65  95 139 177 226 282 353 421
#     4  12  26  48  67 101 142 186 246 294 356 420
#     4  11  21  41  66 102 142 183 233 292 359 420
#     4  11  25  44  71  98 140 192 234 300 353 417
#     4  10  22  36  63 101 132 180 220 276 358 406
#     4  12  25  43  70  99 144 192 241 293 357 428
#     4  11  23  44  71 105 143 186 242 291 362 436
#     4  10  22  40  64 103 136 183 229 297 349 420
#
# _framework density 21.879712999999999
#
# number of rings (size 3 to 8) (size 9 to 14) (size 15 to 20)
#    0.000    1.143    2.857    3.000    4.000    0.571 
#    2.571    0.000    0.000    1.714    0.000    0.000 
#    0.000    0.000    0.000    0.000    0.000    0.000 
#
# Total GULP energy -156133.990098 kJ/mol
# GULP energy per Si atom -5576.213932 kJ/mol
# Density = 2.182991 g / cm^3
# Si number density = 21.879713 Si / 1000 Ang^3
#
#
#
# Elastic Constant Matrix: (Units=GPa)
#
#
# Indices 1 2 3 4 5 6 
#
# 1 111.5878 54.4742 62.8454 0.0000 -13.3278 -0.0009
# 2 54.4742 93.9531 28.7085 0.0005 -0.8662 -0.0017
# 3 62.8454 28.7085 69.5531 -0.0041 -12.0220 -0.0029
# 4 0.0000 0.0005 -0.0041 27.0382 -0.0016 -0.8831
# 5 -13.3278 -0.8662 -12.0220 -0.0016 46.7835 -0.0011
# 6 -0.0009 -0.0017 -0.0029 -0.8831 -0.0011 27.9111
#
#
#
# Elastic Compliance Matrix: (Units=1/GPa)
#
#
# Indices 1 2 3 4 5 6 
#
# 1 0.022448 -0.007900 -0.016684 -0.000002 0.001962 -0.000002
# 2 -0.007900 0.015016 0.000627 0.000000 -0.001811 0.000001
# 3 -0.016684 0.000627 0.029693 0.000005 0.002889 0.000003
# 4 -0.000002 0.000000 0.000005 0.037023 0.000002 0.001171
# 5 0.001962 -0.001811 0.002889 0.000002 0.022643 0.000001
# 6 -0.000002 0.000001 0.000003 0.001171 0.000001 0.035865
#
#
# Mechanical properties :
#
#
# Convention : Reuss Voigt Hill
#
# Bulk Modulus (GPa) = 51.96462 63.01668 57.49065
# Shear Modulus (GPa) = 23.03986 28.95097 25.99542
#
# Velocity S-wave (km/s) = 3.24855 3.64151 3.45063
# Velocity P-wave (km/s) = 6.15406 6.82237 6.49682
#
# Compressibility (1/GPa) = 0.01924386
#
# Stress axis : x y z
#
# Youngs Moduli (GPa) = 44.54656 66.59759 33.67815
#
# Poissons Ratio (x) = 0.52610 0.56188
# Poissons Ratio (y) = 0.35190 -0.02111
# Poissons Ratio (z) = 0.74321 -0.04175
#
# Static dielectric constant tensor:
#      x y z
#    x 1.862020 0.000010 0.002870 
#    y 0.000010 1.919510 0.000010 
#    z 0.002870 0.000010 1.869850 
# 
# From -- ./inp_files/245206.got.cif
#   From: 2010.05.17/outbox.cif.g08.bks.cpg/sg15_123_cif.got.tgz:245206.got - 2010.06.03 18:47:42.
