data_PCOD9282649
_publ_section_title
;
Structure prediction by ZEFSAII (Michael W. Deem and Ramdas Pophale) SiO2 
 PCOD9282649
Probable space group: C 2/C
;
_chemical_formula_sum "Si O2"
_cell_formula_units_Z 44
_cell_length_a 14.415610
_cell_length_b 10.107047
_cell_length_c 12.016390
_cell_angle_alpha 90.000000
_cell_angle_beta 97.521678
_cell_angle_gamma 90.000000
_cell_volume 1735.714241
_symmetry_space_group_name_H-M "C 2/C"
_symmetry_group_IT_number 15
_symmetry_cell_setting 'monoclinic'
loop_
_space_group_symop_operation_xyz
x,y,z
-x,y,1/2-z
-x,-y,-z
x,-y,1/2+z
1/2+x,1/2+y,z
1/2-x,1/2+y,1/2-z
1/2-x,1/2-y,-z
1/2+x,1/2-y,1/2+z
loop_
_atom_site_type_symbol
_atom_site_label
_atom_site_fract_x
_atom_site_fract_y
_atom_site_fract_z
Si Si1 0.848436 0.356999 0.594867
Si Si2 0.774948 0.270710 0.265082
Si Si3 0.781600 0.894357 0.456139
Si Si4 0.582519 0.592986 0.337173
Si Si5 0.958491 0.340868 0.395646
Si Si6 0.500000 0.939969 0.750000
O O1 0.768128 0.257900 0.622238
O O2 0.798526 0.494374 0.553157
O O3 0.919194 0.312956 0.510517
O O4 0.905147 0.361098 0.721488
O O5 0.709306 0.351467 0.171125
O O6 0.826508 0.139324 0.221532
O O7 0.867497 0.354665 0.303147
O O8 0.750000 0.750000 0.500000
O O9 0.868695 0.952758 0.540017
O O10 0.500000 0.523857 0.250000
O O11 0.526172 0.723641 0.369547
O O12 0.006011 0.476121 0.365358
#
# Coordination Sequence:
#
# PCOD9282649 Si02
#       6
#     8   8   8   8   8   4
#     4  12  26  36  68 101 127 168 226 268 320 394
#     4  10  21  40  60  93 135 170 208 266 329 384
#     4  10  21  39  63  94 129 174 207 262 330 381
#     4   9  19  39  67  86 128 172 209 256 323 380
#     4  11  21  43  62  94 132 169 212 273 326 377
#     4  12  22  38  60  98 130 160 216 276 328 372
#
# _framework density 25.349793999999999
#
# number of rings (size 3 to 8) (size 9 to 14) (size 15 to 20)
#    0.000    1.455    4.545    2.182    7.636    0.000 
#    0.000    3.636    0.000    2.182    0.000    0.000 
#    0.000    0.000    0.000    0.000    0.000    0.000 
#
# Total GULP energy -122596.353152 kJ/mol
# GULP energy per Si atom -5572.561507 kJ/mol
# Density = 2.529210 g / cm^3
# Si number density = 25.349794 Si / 1000 Ang^3
#
#
#
# Elastic Constant Matrix: (Units=GPa)
#
#
# Indices 1 2 3 4 5 6 
#
# 1 96.1657 18.2178 63.5706 0.0000 7.1783 0.0000
# 2 18.2178 38.0149 9.0767 0.0000 -7.9047 0.0000
# 3 63.5706 9.0767 132.1966 0.0000 6.1562 0.0000
# 4 0.0000 0.0000 0.0000 3.9640 0.0000 4.1742
# 5 7.1783 -7.9047 6.1562 0.0000 84.2797 0.0000
# 6 0.0000 0.0000 0.0000 4.1742 0.0000 11.3401
#
#
#
# Elastic Compliance Matrix: (Units=1/GPa)
#
#
# Indices 1 2 3 4 5 6 
#
# 1 0.016718 -0.006525 -0.007522 0.000000 -0.001486 0.000000
# 2 -0.006525 0.029894 0.000932 0.000000 0.003291 0.000000
# 3 -0.007522 0.000932 0.011122 0.000000 -0.000084 0.000000
# 4 0.000000 0.000000 0.000000 0.411956 0.000000 -0.151639
# 5 -0.001486 0.003291 -0.000084 0.000000 0.012307 0.000000
# 6 0.000000 0.000000 0.000000 -0.151639 0.000000 0.144000
#
#
# Mechanical properties :
#
#
# Convention : Reuss Voigt Hill
#
# Bulk Modulus (GPa) = 31.74228 49.78971 40.76599
# Shear Modulus (GPa) = 7.54456 31.61756 19.58106
#
# Velocity S-wave (km/s) = 1.72703 3.53548 2.78229
# Velocity P-wave (km/s) = 4.06519 6.02908 5.14177
#
# Compressibility (1/GPa) = 0.03150373
#
# Stress axis : x y z
#
# Youngs Moduli (GPa) = 59.81423 33.45117 89.91386
#
# Poissons Ratio (x) = 0.21827 0.67636
# Poissons Ratio (y) = 0.39029 -0.08379
# Poissons Ratio (z) = 0.44994 -0.03117
#
# Static dielectric constant tensor:
#      x y z
#    x 1.918890 0.000000 0.047260 
#    y 0.000000 1.993910 0.000000 
#    z 0.047260 0.000000 2.096370 
# 
# From -- ./inp_files/95062.got.cif
#   From: 2010.05.17/outbox.cif.g08.bks.cpg/sg15_48_cif.got.tgz:95062.got - 2010.06.03 18:47:42.
