data_PCOD9282846
_publ_section_title
;
Structure prediction by ZEFSAII (Michael W. Deem and Ramdas Pophale) SiO2 
 PCOD9282846
Probable space group: C 2/C
;
_chemical_formula_sum "Si O2"
_cell_formula_units_Z 48
_cell_length_a 13.346446
_cell_length_b 13.247099
_cell_length_c 13.008059
_cell_angle_alpha 90.000000
_cell_angle_beta 55.285290
_cell_angle_gamma 90.000000
_cell_volume 1890.469172
_symmetry_space_group_name_H-M "C 2/C"
_symmetry_group_IT_number 15
_symmetry_cell_setting 'monoclinic'
loop_
_space_group_symop_operation_xyz
x,y,z
-x,y,1/2-z
-x,-y,-z
x,-y,1/2+z
1/2+x,1/2+y,z
1/2-x,1/2+y,1/2-z
1/2-x,1/2-y,-z
1/2+x,1/2-y,1/2+z
loop_
_atom_site_type_symbol
_atom_site_label
_atom_site_fract_x
_atom_site_fract_y
_atom_site_fract_z
Si Si1 0.759885 0.570608 0.319539
Si Si2 0.078743 0.172168 0.111649
Si Si3 0.500000 0.476017 0.250000
Si Si4 0.317817 0.809833 0.600034
Si Si5 0.500000 0.160663 0.250000
Si Si6 0.867212 0.746642 0.507674
Si Si7 0.273040 0.378280 0.269119
O O1 0.811774 0.591199 0.173124
O O2 0.879693 0.593132 0.315088
O O3 0.652842 0.646597 0.419982
O O4 0.725389 0.455399 0.327189
O O5 0.216034 0.167463 0.073835
O O6 0.000000 0.219375 0.250000
O O7 0.074355 0.250176 0.020626
O O8 0.032712 0.056208 0.139353
O O9 0.384236 0.413085 0.278348
O O10 0.280362 0.728399 0.707383
O O11 0.478947 0.227973 0.364540
O O12 0.750000 0.750000 0.500000
O O13 0.842451 0.646972 0.591017
#
# Coordination Sequence:
#
# PCOD9282846 Si02
#       7
#     8   8   4   8   4   8   8
#     4  10  21  42  64  96 131 167 229 271 322 401
#     4   9  20  41  61  89 127 171 212 265 326 394
#     4  10  22  41  67  98 130 168 224 279 337 390
#     4  10  21  39  65  90 131 170 209 278 323 382
#     4  10  22  41  67  92 132 186 212 267 343 400
#     4   9  22  42  65  94 134 173 220 274 332 399
#     4  11  23  40  68  99 129 171 221 281 324 397
#
# _framework density 25.390523000000002
#
# number of rings (size 3 to 8) (size 9 to 14) (size 15 to 20)
#    0.500    1.667    1.667    0.000    0.000   14.000 
#    1.500    1.667    0.000    0.000    0.000    0.000 
#    0.000    0.000    0.000    0.000    0.000    0.000 
#
# Total GULP energy -133770.390538 kJ/mol
# GULP energy per Si atom -5573.766272 kJ/mol
# Density = 2.533273 g / cm^3
# Si number density = 25.390523 Si / 1000 Ang^3
#
#
#
# Elastic Constant Matrix: (Units=GPa)
#
#
# Indices 1 2 3 4 5 6 
#
# 1 65.6391 21.8466 -14.1663 0.0000 -6.0818 0.0000
# 2 21.8466 60.0818 16.7787 0.0000 -7.1576 0.0000
# 3 -14.1663 16.7787 109.2663 0.0000 9.9802 0.0000
# 4 0.0000 0.0000 0.0000 8.2227 0.0000 -8.5830
# 5 -6.0818 -7.1576 9.9802 0.0000 34.5837 0.0000
# 6 0.0000 0.0000 0.0000 -8.5830 0.0000 26.5364
#
#
#
# Elastic Compliance Matrix: (Units=1/GPa)
#
#
# Indices 1 2 3 4 5 6 
#
# 1 0.018613 -0.007675 0.003531 0.000000 0.000666 0.000000
# 2 -0.007675 0.021260 -0.004661 0.000000 0.004396 0.000000
# 3 0.003531 -0.004661 0.010637 0.000000 -0.003413 0.000000
# 4 0.000000 0.000000 0.000000 0.183601 0.000000 0.059384
# 5 0.000666 0.004396 -0.003413 0.000000 0.030927 0.000000
# 6 0.000000 0.000000 0.000000 0.059384 0.000000 0.056892
#
#
# Mechanical properties :
#
#
# Convention : Reuss Voigt Hill
#
# Bulk Modulus (GPa) = 30.39492 31.54502 30.96997
# Shear Modulus (GPa) = 14.26507 27.90377 21.08442
#
# Velocity S-wave (km/s) = 2.37286 3.31869 2.88480
# Velocity P-wave (km/s) = 4.41636 5.20921 4.82908
#
# Compressibility (1/GPa) = 0.03290024
#
# Stress axis : x y z
#
# Youngs Moduli (GPa) = 53.72621 47.03694 94.00931
#
# Poissons Ratio (x) = 0.36099 -0.33193
# Poissons Ratio (y) = 0.41233 0.43819
# Poissons Ratio (z) = -0.18970 0.21924
#
# Static dielectric constant tensor:
#      x y z
#    x 2.188390 0.000000 -0.012280 
#    y 0.000000 1.959970 0.000000 
#    z -0.012280 0.000000 2.120350 
# 
# From -- ./inp_files/153845.got.cif
#   From: 2010.05.17/outbox.cif.g08.bks.cpg/sg15_77_cif.got.tgz:153845.got - 2010.06.03 18:47:42.
