data_PCOD9282652
_publ_section_title
;
Structure prediction by ZEFSAII (Michael W. Deem and Ramdas Pophale) SiO2 
 PCOD9282652
Probable space group: C 2/C
;
_chemical_formula_sum "Si O2"
_cell_formula_units_Z 40
_cell_length_a 17.275889
_cell_length_b 6.921341
_cell_length_c 23.842410
_cell_angle_alpha 90.000000
_cell_angle_beta 145.170474
_cell_angle_gamma 90.000000
_cell_volume 1628.249053
_symmetry_space_group_name_H-M "C 2/C"
_symmetry_group_IT_number 15
_symmetry_cell_setting 'monoclinic'
loop_
_space_group_symop_operation_xyz
x,y,z
-x,y,1/2-z
-x,-y,-z
x,-y,1/2+z
1/2+x,1/2+y,z
1/2-x,1/2+y,1/2-z
1/2-x,1/2-y,-z
1/2+x,1/2-y,1/2+z
loop_
_atom_site_type_symbol
_atom_site_label
_atom_site_fract_x
_atom_site_fract_y
_atom_site_fract_z
Si Si1 0.442736 0.508704 0.154095
Si Si2 0.130859 0.720598 0.197585
Si Si3 0.521970 0.731032 0.009750
Si Si4 0.369710 0.805885 0.261993
Si Si5 0.199093 0.545087 0.073344
O O1 0.500000 0.462301 0.250000
O O2 0.537561 0.382521 0.170375
O O3 0.480657 0.724124 0.157612
O O4 0.281830 0.492300 0.066671
O O5 0.284830 0.754549 0.267834
O O6 0.130875 0.535044 0.237196
O O7 0.055506 0.701720 0.092996
O O8 0.439482 0.832834 0.010853
O O9 0.500000 0.500000 0.000000
O O10 0.664091 0.843244 0.084493
O O11 0.291386 0.693204 0.165152
#
# Coordination Sequence:
#
# PCOD9282652 Si02
#       5
#     8   8   8   8   8
#     4  10  22  38  63  98 134 164 220 278 329 380
#     4  11  22  38  67  95 126 175 223 267 331 394
#     4  10  23  43  67  93 135 182 217 268 338 405
#     4  10  21  39  63  94 130 169 219 275 321 389
#     4   9  22  42  62  95 135 172 218 269 332 393
#
# _framework density 24.566267
#
# number of rings (size 3 to 8) (size 9 to 14) (size 15 to 20)
#    0.000    2.000    2.000    0.000    0.000   16.000 
#    0.000    2.000    0.000    0.000    0.000    0.000 
#    0.000    0.000    0.000    0.000    0.000    0.000 
#
# Total GULP energy -111500.564782 kJ/mol
# GULP energy per Si atom -5575.028239 kJ/mol
# Density = 2.451035 g / cm^3
# Si number density = 24.566267 Si / 1000 Ang^3
#
#
#
# Elastic Constant Matrix: (Units=GPa)
#
#
# Indices 1 2 3 4 5 6 
#
# 1 120.4597 0.8795 29.4967 0.0000 48.8947 0.0000
# 2 0.8795 138.7311 22.8993 0.0000 33.2130 0.0001
# 3 29.4967 22.8993 46.1033 0.0000 10.2882 0.0000
# 4 0.0000 0.0000 0.0000 19.1962 0.0000 -2.3458
# 5 48.8947 33.2130 10.2882 0.0000 55.0143 0.0000
# 6 0.0000 0.0001 0.0000 -2.3458 0.0000 45.9773
#
#
#
# Elastic Compliance Matrix: (Units=1/GPa)
#
#
# Indices 1 2 3 4 5 6 
#
# 1 0.017894 0.005784 -0.010429 0.000000 -0.017446 0.000000
# 2 0.005784 0.010769 -0.006733 0.000000 -0.010383 0.000000
# 3 -0.010429 -0.006733 0.029983 0.000000 0.007726 0.000000
# 4 0.000000 0.000000 0.000000 0.052420 0.000000 0.002675
# 5 -0.017446 -0.010383 0.007726 0.000000 0.038506 0.000000
# 6 0.000000 0.000000 0.000000 0.002675 0.000000 0.021886
#
#
# Mechanical properties :
#
#
# Convention : Reuss Voigt Hill
#
# Bulk Modulus (GPa) = 27.86153 45.76059 36.81106
# Shear Modulus (GPa) = 24.25125 40.83882 32.54504
#
# Velocity S-wave (km/s) = 3.14535 4.08167 3.64371
# Velocity P-wave (km/s) = 4.95550 6.39384 5.72006
#
# Compressibility (1/GPa) = 0.03589178
#
# Stress axis : x y z
#
# Youngs Moduli (GPa) = 55.88435 92.86260 33.35277
#
# Poissons Ratio (x) = -0.53716 0.34782
# Poissons Ratio (y) = -0.32326 0.22455
# Poissons Ratio (z) = 0.58280 0.62520
#
# Static dielectric constant tensor:
#      x y z
#    x 2.010100 0.000000 0.066450 
#    y 0.000000 1.973730 0.000000 
#    z 0.066450 0.000000 2.257730 
# 
# From -- ./inp_files/314964.got.cif
#   From: 2010.05.17/outbox.cif.g08.bks.cpg/sg15_158_cif.got.tgz:314964.got - 2010.06.03 18:47:42.
