data_PCOD9282047
_publ_section_title
;
Structure prediction by ZEFSAII (Michael W. Deem and Ramdas Pophale) SiO2 
 PCOD9282047
Probable space group: C 2/C
;
_chemical_formula_sum "Si O2"
_cell_formula_units_Z 40
_cell_length_a 12.283080
_cell_length_b 8.893060
_cell_length_c 13.882281
_cell_angle_alpha 90.000000
_cell_angle_beta 95.617512
_cell_angle_gamma 90.000000
_cell_volume 1509.136845
_symmetry_space_group_name_H-M "C 2/C"
_symmetry_group_IT_number 15
_symmetry_cell_setting 'monoclinic'
loop_
_space_group_symop_operation_xyz
x,y,z
-x,y,1/2-z
-x,-y,-z
x,-y,1/2+z
1/2+x,1/2+y,z
1/2-x,1/2+y,1/2-z
1/2-x,1/2-y,-z
1/2+x,1/2-y,1/2+z
loop_
_atom_site_type_symbol
_atom_site_label
_atom_site_fract_x
_atom_site_fract_y
_atom_site_fract_z
Si Si1 0.309163 0.877304 0.889381
Si Si2 0.572344 0.680854 0.013565
Si Si3 0.755360 0.952728 0.397538
Si Si4 0.459828 0.911842 0.648046
Si Si5 0.070134 0.929228 0.850980
O O1 0.318215 0.698040 0.868687
O O2 0.421152 0.963197 0.878046
O O3 0.196096 0.926698 0.830442
O O4 0.278973 0.906774 0.997362
O O5 0.668941 0.601009 0.083016
O O6 0.473039 0.702624 0.080548
O O7 0.589918 0.823678 0.947730
O O8 0.550148 0.563985 0.924095
O O9 0.641934 0.982909 0.332462
O O10 0.500000 0.829891 0.750000
O O11 0.000000 0.933247 0.750000
#
# Coordination Sequence:
#
# PCOD9282047 Si02
#       5
#     8   8   8   8   8
#     4  10  22  42  65  93 132 171 220 277 331 396
#     4  10  21  40  65  94 131 171 221 275 329 399
#     4  10  22  43  68  90 128 178 219 274 339 393
#     4  12  25  41  64 101 135 170 224 278 329 402
#     4  10  21  38  68  95 126 178 223 269 334 402
#
# _framework density 26.505220000000001
#
# number of rings (size 3 to 8) (size 9 to 14) (size 15 to 20)
#    0.000    1.600    0.000    6.600    2.800    0.800 
#    3.600    0.000    0.000    0.000    0.000    0.000 
#    0.000    0.000    0.000    0.000    0.000    0.000 
#
# Total GULP energy -111648.712462 kJ/mol
# GULP energy per Si atom -5582.435623 kJ/mol
# Density = 2.644489 g / cm^3
# Si number density = 26.505220 Si / 1000 Ang^3
#
#
#
# Elastic Constant Matrix: (Units=GPa)
#
#
# Indices 1 2 3 4 5 6 
#
# 1 197.0104 33.4709 32.0798 0.0000 26.4381 0.0000
# 2 33.4709 57.4758 24.4657 0.0000 17.3459 0.0000
# 3 32.0798 24.4657 106.5022 0.0000 16.0485 0.0000
# 4 0.0000 0.0000 0.0000 9.5127 0.0000 -0.2427
# 5 26.4381 17.3459 16.0485 0.0000 51.7149 0.0000
# 6 0.0000 0.0000 0.0000 -0.2427 0.0000 40.0700
#
#
#
# Elastic Compliance Matrix: (Units=1/GPa)
#
#
# Indices 1 2 3 4 5 6 
#
# 1 0.005901 -0.002469 -0.000924 0.000000 -0.001902 0.000000
# 2 -0.002469 0.021836 -0.003524 0.000000 -0.004968 0.000000
# 3 -0.000924 -0.003524 0.010730 0.000000 -0.001676 0.000000
# 4 0.000000 0.000000 0.000000 0.105139 0.000000 0.000637
# 5 -0.001902 -0.004968 -0.001676 0.000000 0.022495 0.000000
# 6 0.000000 0.000000 0.000000 0.000637 0.000000 0.024960
#
#
# Mechanical properties :
#
#
# Convention : Reuss Voigt Hill
#
# Bulk Modulus (GPa) = 40.59546 60.11347 50.35447
# Shear Modulus (GPa) = 23.46250 38.32433 30.89341
#
# Velocity S-wave (km/s) = 2.97846 3.80665 3.41773
# Velocity P-wave (km/s) = 5.21321 6.48458 5.88334
#
# Compressibility (1/GPa) = 0.02463330
#
# Stress axis : x y z
#
# Youngs Moduli (GPa) = 169.46228 45.79606 93.19974
#
# Poissons Ratio (x) = 0.11308 0.08608
# Poissons Ratio (y) = 0.41845 0.32841
# Poissons Ratio (z) = 0.15652 0.16137
#
# Static dielectric constant tensor:
#      x y z
#    x 2.173880 0.000000 -0.002810 
#    y 0.000000 2.273990 0.000000 
#    z -0.002810 0.000000 2.070020 
# 
# From -- ./inp_files/141893.got.cif
#   From: 2010.05.17/outbox.cif.g08.bks.cpg/sg15_71_cif.got.tgz:141893.got - 2010.06.03 18:47:42.
