data_PCOD9282034
_publ_section_title
;
Structure prediction by ZEFSAII (Michael W. Deem and Ramdas Pophale) SiO2 
 PCOD9282034
Probable space group: C 2/C
;
_chemical_formula_sum "Si O2"
_cell_formula_units_Z 56
_cell_length_a 11.313595
_cell_length_b 13.682382
_cell_length_c 16.214143
_cell_angle_alpha 90.000000
_cell_angle_beta 97.222903
_cell_angle_gamma 90.000000
_cell_volume 2489.982284
_symmetry_space_group_name_H-M "C 2/C"
_symmetry_group_IT_number 15
_symmetry_cell_setting 'monoclinic'
loop_
_space_group_symop_operation_xyz
x,y,z
-x,y,1/2-z
-x,-y,-z
x,-y,1/2+z
1/2+x,1/2+y,z
1/2-x,1/2+y,1/2-z
1/2-x,1/2-y,-z
1/2+x,1/2-y,1/2+z
loop_
_atom_site_type_symbol
_atom_site_label
_atom_site_fract_x
_atom_site_fract_y
_atom_site_fract_z
Si Si1 0.859383 0.835679 0.725966
Si Si2 0.021797 0.127104 0.601489
Si Si3 0.635220 0.444696 0.938782
Si Si4 0.735178 0.121363 0.780576
Si Si5 0.366655 0.955770 0.056821
Si Si6 0.988652 0.345385 0.932922
Si Si7 0.633988 0.061250 0.222175
O O1 0.849490 0.863825 0.629089
O O2 0.821139 0.725787 0.739569
O O3 0.760030 0.896859 0.769916
O O4 0.000000 0.853019 0.750000
O O5 0.074035 0.100460 0.515225
O O6 0.124709 0.127552 0.681616
O O7 0.968660 0.236277 0.584428
O O8 0.932374 0.037314 0.606809
O O9 0.760619 0.477762 0.985129
O O10 0.677570 0.078456 0.859020
O O11 0.681224 0.047651 0.707503
O O12 0.429846 0.059548 0.072170
O O13 0.439242 0.867164 0.020118
O O14 0.887946 0.366465 0.855900
O O15 0.500000 0.058667 0.250000
#
# Coordination Sequence:
#
# PCOD9282034 Si02
#       7
#     8   8   8   8   8   8   8
#     4  12  25  43  67  97 130 176 226 265 330 398
#     4  10  21  40  67  96 133 168 211 277 340 378
#     4  10  21  41  64  96 130 166 217 274 323 400
#     4  11  22  41  67  93 129 178 219 270 326 389
#     4  10  21  38  68  90 123 169 225 272 312 399
#     4  11  21  40  64  94 128 171 218 273 331 389
#     4  12  24  44  62  95 138 171 219 273 330 392
#
# _framework density 22.490119
#
# number of rings (size 3 to 8) (size 9 to 14) (size 15 to 20)
#    0.000    1.143    4.286    2.143    0.000    2.857 
#    2.571    0.000    0.000    0.000    0.000    0.000 
#    0.000    0.000    0.000    0.000    0.000    0.000 
#
# Total GULP energy -155953.785400 kJ/mol
# GULP energy per Si atom -5569.778050 kJ/mol
# Density = 2.243893 g / cm^3
# Si number density = 22.490119 Si / 1000 Ang^3
#
#
#
# Elastic Constant Matrix: (Units=GPa)
#
#
# Indices 1 2 3 4 5 6 
#
# 1 83.8364 6.1153 -9.3444 0.0000 14.0154 0.0000
# 2 6.1153 120.5908 -17.0694 0.0000 0.0837 0.0000
# 3 -9.3444 -17.0694 27.3187 0.0000 5.0573 0.0000
# 4 0.0000 0.0000 0.0000 25.7368 0.0000 17.2019
# 5 14.0154 0.0837 5.0573 0.0000 25.3979 0.0000
# 6 0.0000 0.0000 0.0000 17.2019 0.0000 8.2885
#
#
#
# Elastic Compliance Matrix: (Units=1/GPa)
#
#
# Indices 1 2 3 4 5 6 
#
# 1 0.014189 0.000235 0.006697 0.000000 -0.009164 0.000000
# 2 0.000235 0.009137 0.006041 0.000000 -0.001363 0.000000
# 3 0.006697 0.006041 0.045018 0.000000 -0.012680 0.000000
# 4 0.000000 0.000000 0.000000 -0.100366 0.000000 0.208297
# 5 -0.009164 -0.001363 -0.012680 0.000000 0.046960 0.000000
# 6 0.000000 0.000000 0.000000 0.208297 0.000000 -0.311647
#
#
# Mechanical properties :
#
#
# Convention : Reuss Voigt Hill
#
# Bulk Modulus (GPa) = 10.60566 21.23875 15.92221
# Shear Modulus (GPa) = -17.16884 28.68760 5.75938
#
# Velocity S-wave (km/s) = -2.76596 3.57538 1.60200
# Velocity P-wave (km/s) = 2.33982 5.14865 3.24298
#
# Compressibility (1/GPa) = 0.09428928
#
# Stress axis : x y z
#
# Youngs Moduli (GPa) = 70.47532 109.44881 22.21352
#
# Poissons Ratio (x) = -0.02569 -0.14876
# Poissons Ratio (y) = -0.01654 -0.13420
# Poissons Ratio (z) = -0.47195 -0.66122
#
# Static dielectric constant tensor:
#      x y z
#    x 1.929730 0.000000 -0.008620 
#    y 0.000000 1.819980 0.000000 
#    z -0.008620 0.000000 1.893860 
# 
# From -- ./inp_files/197970.got.cif
#   From: 2010.05.17/outbox.cif.g08.bks.cpg/sg15_99_cif.got.tgz:197970.got - 2010.06.03 18:47:42.
