data_PCOD9282196
_publ_section_title
;
Structure prediction by ZEFSAII (Michael W. Deem and Ramdas Pophale) SiO2 
 PCOD9282196
Probable space group: C 2/C
;
_chemical_formula_sum "Si O2"
_cell_formula_units_Z 48
_cell_length_a 10.250513
_cell_length_b 25.225345
_cell_length_c 12.358666
_cell_angle_alpha 90.000000
_cell_angle_beta 130.145866
_cell_angle_gamma 90.000000
_cell_volume 2442.744978
_symmetry_space_group_name_H-M "C 2/C"
_symmetry_group_IT_number 15
_symmetry_cell_setting 'monoclinic'
loop_
_space_group_symop_operation_xyz
x,y,z
-x,y,1/2-z
-x,-y,-z
x,-y,1/2+z
1/2+x,1/2+y,z
1/2-x,1/2+y,1/2-z
1/2-x,1/2-y,-z
1/2+x,1/2-y,1/2+z
loop_
_atom_site_type_symbol
_atom_site_label
_atom_site_fract_x
_atom_site_fract_y
_atom_site_fract_z
Si Si1 0.645005 0.872116 0.737427
Si Si2 0.926495 0.440822 0.459444
Si Si3 0.193615 0.672833 0.886903
Si Si4 0.701441 0.714000 0.327719
Si Si5 0.829151 0.045665 0.490241
Si Si6 0.290470 0.436102 0.362521
O O1 0.500000 0.858721 0.750000
O O2 0.558243 0.901083 0.587612
O O3 0.746982 0.821601 0.746729
O O4 0.763081 0.915589 0.859827
O O5 0.761385 0.438123 0.448251
O O6 0.862248 0.430432 0.304566
O O7 0.000000 0.500000 0.500000
O O8 0.249491 0.723911 0.845856
O O9 0.302186 0.619968 0.928518
O O10 0.000000 0.662054 0.750000
O O11 0.203588 0.691562 0.015781
O O12 0.500000 0.711470 0.250000
O O13 0.032292 0.049799 0.602177
O O14 0.767470 0.986175 0.428867
#
# Coordination Sequence:
#
# PCOD9282196 Si02
#       6
#     8   8   8   8   8   8
#     4  10  21  39  59  85 119 157 193 235 296 357
#     4  11  22  37  56  82 117 151 191 240 285 356
#     4  10  22  36  62  90 116 150 201 250 289 342
#     4  10  21  40  61  90 119 151 202 249 292 345
#     4  10  23  37  54  85 117 152 189 239 290 358
#     4  11  22  37  58  83 116 151 193 237 300 344
#
# _framework density 19.650024999999999
#
# number of rings (size 3 to 8) (size 9 to 14) (size 15 to 20)
#    0.000    1.667    1.667    2.500    4.667    0.000 
#    0.000    1.667    0.000   13.000    0.000    0.000 
#    0.000    0.000    0.000    0.000    0.000    0.000 
#
# Total GULP energy -134013.192730 kJ/mol
# GULP energy per Si atom -5583.883030 kJ/mol
# Density = 1.960530 g / cm^3
# Si number density = 19.650025 Si / 1000 Ang^3
#
#
#
# Elastic Constant Matrix: (Units=GPa)
#
#
# Indices 1 2 3 4 5 6 
#
# 1 29.8819 32.4940 0.2920 0.0000 2.1921 0.0000
# 2 32.4940 152.6560 18.7342 0.0000 -18.1901 0.0000
# 3 0.2920 18.7342 73.4022 0.0000 6.2865 0.0000
# 4 0.0000 0.0000 0.0000 22.5762 0.0000 -4.5035
# 5 2.1921 -18.1901 6.2865 0.0000 11.7992 0.0000
# 6 0.0000 0.0000 0.0000 -4.5035 0.0000 29.0102
#
#
#
# Elastic Compliance Matrix: (Units=1/GPa)
#
#
# Indices 1 2 3 4 5 6 
#
# 1 0.056002 -0.017942 0.007981 0.000000 -0.042317 0.000000
# 2 -0.017942 0.014592 -0.006145 0.000000 0.029103 0.000000
# 3 0.007981 -0.006145 0.016868 0.000000 -0.019944 0.000000
# 4 0.000000 0.000000 0.000000 0.045710 0.000000 0.007096
# 5 -0.042317 0.029103 -0.019944 0.000000 0.148105 0.000000
# 6 0.000000 0.000000 0.000000 0.007096 0.000000 0.035572
#
#
# Mechanical properties :
#
#
# Convention : Reuss Voigt Hill
#
# Bulk Modulus (GPa) = 18.10005 39.88675 28.99340
# Shear Modulus (GPa) = 13.60620 26.30510 19.95565
#
# Velocity S-wave (km/s) = 2.63426 3.66277 3.19023
# Velocity P-wave (km/s) = 4.29926 6.18308 5.32513
#
# Compressibility (1/GPa) = 0.05524847
#
# Stress axis : x y z
#
# Youngs Moduli (GPa) = 17.85651 68.53170 59.28265
#
# Poissons Ratio (x) = 1.22961 -0.47312
# Poissons Ratio (y) = 0.32038 0.36431
# Poissons Ratio (z) = -0.14251 0.42115
#
# Static dielectric constant tensor:
#      x y z
#    x 1.686390 0.000000 0.010170 
#    y 0.000000 1.708050 0.000000 
#    z 0.010170 0.000000 1.695120 
# 
# From -- ./inp_files/31906.got.cif
#   From: 2010.05.17/outbox.cif.g08.bks.cpg/sg15_16_cif.got.tgz:31906.got - 2010.06.03 18:47:42.
