data_PCOD9282577
_publ_section_title
;
Structure prediction by ZEFSAII (Michael W. Deem and Ramdas Pophale) SiO2 
 PCOD9282577
Probable space group: C 2/C
;
_chemical_formula_sum "Si O2"
_cell_formula_units_Z 56
_cell_length_a 21.259655
_cell_length_b 9.964738
_cell_length_c 12.865028
_cell_angle_alpha 90.000000
_cell_angle_beta 112.083777
_cell_angle_gamma 90.000000
_cell_volume 2525.466365
_symmetry_space_group_name_H-M "C 2/C"
_symmetry_group_IT_number 15
_symmetry_cell_setting 'monoclinic'
loop_
_space_group_symop_operation_xyz
x,y,z
-x,y,1/2-z
-x,-y,-z
x,-y,1/2+z
1/2+x,1/2+y,z
1/2-x,1/2+y,1/2-z
1/2-x,1/2-y,-z
1/2+x,1/2-y,1/2+z
loop_
_atom_site_type_symbol
_atom_site_label
_atom_site_fract_x
_atom_site_fract_y
_atom_site_fract_z
Si Si1 0.779073 0.452804 0.017922
Si Si2 0.252388 0.326569 0.166060
Si Si3 0.133120 0.557020 0.731202
Si Si4 0.641809 0.202604 0.112311
Si Si5 0.172805 0.938729 0.585160
Si Si6 0.411911 0.646342 0.287683
Si Si7 0.562663 0.414133 0.931240
O O1 0.747150 0.568817 0.926572
O O2 0.843040 0.477444 0.136027
O O3 0.716482 0.440771 0.061379
O O4 0.807705 0.348640 0.949636
O O5 0.201174 0.394314 0.215562
O O6 0.317305 0.275888 0.269534
O O7 0.216649 0.193552 0.099788
O O8 0.110272 0.429246 0.649506
O O9 0.088063 0.691872 0.697423
O O10 0.587133 0.302991 0.029149
O O11 0.150665 0.924819 0.692257
O O12 0.100238 0.948169 0.484266
O O13 0.408845 0.625863 0.163465
O O14 0.482144 0.583405 0.371044
#
# Coordination Sequence:
#
# PCOD9282577 Si02
#       7
#     8   8   8   8   8   8   8
#     4  11  22  39  62  96 132 164 201 262 332 376
#     4  10  23  38  58  99 134 157 202 260 327 385
#     4  10  21  39  63  89 129 162 208 264 313 381
#     4  11  23  37  64  98 123 168 207 257 322 385
#     4  11  23  38  64  91 129 165 202 268 320 383
#     4  10  24  46  60  90 124 173 218 262 309 374
#     4  11  24  41  68  87 125 173 220 256 310 384
#
# _framework density 22.174123000000002
#
# number of rings (size 3 to 8) (size 9 to 14) (size 15 to 20)
#    0.000    1.429    2.857    1.714    6.000    1.714 
#    0.000    0.000    0.000    0.000    0.000    0.000 
#    0.000    0.000    0.000    0.000    0.000    0.000 
#
# Total GULP energy -156116.416417 kJ/mol
# GULP energy per Si atom -5575.586301 kJ/mol
# Density = 2.212365 g / cm^3
# Si number density = 22.174123 Si / 1000 Ang^3
#
#
#
# Elastic Constant Matrix: (Units=GPa)
#
#
# Indices 1 2 3 4 5 6 
#
# 1 38.6924 11.4456 18.7535 0.0000 -6.5689 0.0000
# 2 11.4456 72.8537 53.1619 0.0000 -8.3192 0.0000
# 3 18.7535 53.1619 125.5792 0.0000 10.0308 0.0000
# 4 0.0000 0.0000 0.0000 38.7467 0.0000 4.5071
# 5 -6.5689 -8.3192 10.0308 0.0000 31.4751 0.0000
# 6 0.0000 0.0000 0.0000 4.5071 0.0000 16.2709
#
#
#
# Elastic Compliance Matrix: (Units=1/GPa)
#
#
# Indices 1 2 3 4 5 6 
#
# 1 0.029613 -0.000132 -0.004984 0.000000 0.007734 0.000000
# 2 -0.000132 0.022124 -0.010067 0.000000 0.009028 0.000000
# 3 -0.004984 -0.010067 0.013611 0.000000 -0.008039 0.000000
# 4 0.000000 0.000000 0.000000 0.026668 0.000000 -0.007387
# 5 0.007734 0.009028 -0.008039 0.000000 0.038333 0.000000
# 6 0.000000 0.000000 0.000000 -0.007387 0.000000 0.063506
#
#
# Mechanical properties :
#
#
# Convention : Reuss Voigt Hill
#
# Bulk Modulus (GPa) = 28.58702 44.87193 36.72948
# Shear Modulus (GPa) = 21.19704 27.54951 24.37327
#
# Velocity S-wave (km/s) = 3.09518 3.52862 3.31898
# Velocity P-wave (km/s) = 5.06888 6.07302 5.59353
#
# Compressibility (1/GPa) = 0.03498091
#
# Stress axis : x y z
#
# Youngs Moduli (GPa) = 33.76941 45.19977 73.46837
#
# Poissons Ratio (x) = 0.00598 0.36616
# Poissons Ratio (y) = 0.00447 0.73962
# Poissons Ratio (z) = 0.16831 0.45504
#
# Static dielectric constant tensor:
#      x y z
#    x 1.829320 0.000000 -0.022340 
#    y 0.000000 1.902560 0.000000 
#    z -0.022340 0.000000 1.853500 
# 
# From -- ./inp_files/117658.got.cif
#   From: 2010.05.17/outbox.cif.g08.bks.cpg/sg15_59_cif.got.tgz:117658.got - 2010.06.03 18:47:42.
