data_PCOD9282322
_publ_section_title
;
Structure prediction by ZEFSAII (Michael W. Deem and Ramdas Pophale) SiO2 
 PCOD9282322
Probable space group: C 2/C
;
_chemical_formula_sum "Si O2"
_cell_formula_units_Z 40
_cell_length_a 16.468339
_cell_length_b 10.580615
_cell_length_c 13.512016
_cell_angle_alpha 90.000000
_cell_angle_beta 42.783951
_cell_angle_gamma 90.000000
_cell_volume 1599.194913
_symmetry_space_group_name_H-M "C 2/C"
_symmetry_group_IT_number 15
_symmetry_cell_setting 'monoclinic'
loop_
_space_group_symop_operation_xyz
x,y,z
-x,y,1/2-z
-x,-y,-z
x,-y,1/2+z
1/2+x,1/2+y,z
1/2-x,1/2+y,1/2-z
1/2-x,1/2-y,-z
1/2+x,1/2-y,1/2+z
loop_
_atom_site_type_symbol
_atom_site_label
_atom_site_fract_x
_atom_site_fract_y
_atom_site_fract_z
Si Si1 0.634574 0.503540 0.291846
Si Si2 0.104321 0.761512 0.214659
Si Si3 0.886502 0.590018 0.609224
Si Si4 0.843475 0.847884 0.544562
Si Si5 0.131214 0.262797 0.177258
O O1 0.566288 0.378977 0.317085
O O2 0.774599 0.472809 0.155064
O O3 0.623834 0.533495 0.417699
O O4 0.610736 0.627443 0.249375
O O5 0.199661 0.679695 0.187840
O O6 0.000000 0.687686 0.250000
O O7 0.154964 0.841905 0.075300
O O8 0.903813 0.722022 0.536146
O O9 0.850523 0.633986 0.752103
O O10 0.000000 0.500000 0.500000
O O11 0.000000 0.293693 0.250000
O O12 0.250000 0.250000 0.000000
#
# Coordination Sequence:
#
# PCOD9282322 Si02
#       5
#     8   8   8   8   8
#     4  10  22  41  62  91 130 173 225 284 351 412
#     4  10  21  39  61  87 120 168 212 271 340 398
#     4  10  22  42  66  98 135 186 234 289 360 428
#     4   9  22  40  59  93 128 164 226 277 334 421
#     4  11  24  44  68 104 142 185 244 299 357 437
#
# _framework density 25.012588000000001
#
# number of rings (size 3 to 8) (size 9 to 14) (size 15 to 20)
#    0.000    2.000    0.000    1.800    5.600    0.800 
#   14.400    0.000    0.000    0.000    0.000    0.000 
#    0.000    0.000    0.000    0.000    0.000    0.000 
#
# Total GULP energy -111689.132198 kJ/mol
# GULP energy per Si atom -5584.456610 kJ/mol
# Density = 2.495566 g / cm^3
# Si number density = 25.012588 Si / 1000 Ang^3
#
#
#
# Elastic Constant Matrix: (Units=GPa)
#
#
# Indices 1 2 3 4 5 6 
#
# 1 126.1665 49.9771 17.6013 0.0000 8.0941 0.0000
# 2 49.9771 69.7814 15.9759 0.0000 3.1602 0.0000
# 3 17.6013 15.9759 116.3324 0.0000 20.1965 0.0000
# 4 0.0000 0.0000 0.0000 36.7495 0.0000 -2.5786
# 5 8.0941 3.1602 20.1965 0.0000 36.7631 0.0000
# 6 0.0000 0.0000 0.0000 -2.5786 0.0000 38.3528
#
#
#
# Elastic Compliance Matrix: (Units=1/GPa)
#
#
# Indices 1 2 3 4 5 6 
#
# 1 0.011192 -0.007866 -0.000335 0.000000 -0.001604 0.000000
# 2 -0.007866 0.020325 -0.001767 0.000000 0.000955 0.000000
# 3 -0.000335 -0.001767 0.009783 0.000000 -0.005149 0.000000
# 4 0.000000 0.000000 0.000000 0.027340 0.000000 0.001838
# 5 -0.001604 0.000955 -0.005149 0.000000 0.030301 0.000000
# 6 0.000000 0.000000 0.000000 0.001838 0.000000 0.026197
#
#
# Mechanical properties :
#
#
# Convention : Reuss Voigt Hill
#
# Bulk Modulus (GPa) = 46.80577 53.26543 50.03560
# Shear Modulus (GPa) = 32.85246 37.62148 35.23697
#
# Velocity S-wave (km/s) = 3.62807 3.88248 3.75743
# Velocity P-wave (km/s) = 6.02528 6.43738 6.23474
#
# Compressibility (1/GPa) = 0.02136489
#
# Stress axis : x y z
#
# Youngs Moduli (GPa) = 89.35336 49.19957 102.21533
#
# Poissons Ratio (x) = 0.38701 0.03420
# Poissons Ratio (y) = 0.70286 0.18061
# Poissons Ratio (z) = 0.02989 0.08694
#
# Static dielectric constant tensor:
#      x y z
#    x 2.080770 0.000000 -0.315690 
#    y 0.000000 1.914130 0.000000 
#    z -0.315690 0.000000 2.643400 
# 
# From -- ./inp_files/160674.got.cif
#   From: 2010.05.17/outbox.cif.g08.bks.cpg/sg15_81_cif.got.tgz:160674.got - 2010.06.03 18:47:42.
