data_PCOD9282694
_publ_section_title
;
Structure prediction by ZEFSAII (Michael W. Deem and Ramdas Pophale) SiO2 
 PCOD9282694
Probable space group: C 2/C
;
_chemical_formula_sum "Si O2"
_cell_formula_units_Z 40
_cell_length_a 19.192980
_cell_length_b 19.871750
_cell_length_c 10.198000
_cell_angle_alpha 90.000000
_cell_angle_beta 32.072293
_cell_angle_gamma 90.000000
_cell_volume 2065.280047
_symmetry_space_group_name_H-M "C 2/C"
_symmetry_group_IT_number 15
_symmetry_cell_setting 'monoclinic'
loop_
_space_group_symop_operation_xyz
x,y,z
-x,y,1/2-z
-x,-y,-z
x,-y,1/2+z
1/2+x,1/2+y,z
1/2-x,1/2+y,1/2-z
1/2-x,1/2-y,-z
1/2+x,1/2-y,1/2+z
loop_
_atom_site_type_symbol
_atom_site_label
_atom_site_fract_x
_atom_site_fract_y
_atom_site_fract_z
Si Si1 0.909786 0.195601 0.650893
Si Si2 0.000000 0.872340 0.750000
Si Si3 0.786733 0.013939 0.621176
Si Si4 0.393675 0.171155 0.313316
Si Si5 0.620063 0.016544 0.144615
Si Si6 0.000000 0.895963 0.250000
O O1 0.913464 0.275783 0.665969
O O2 0.982985 0.172594 0.404719
O O3 0.971150 0.152228 0.672531
O O4 0.754594 0.178669 0.898040
O O5 0.122955 0.922619 0.555817
O O6 0.671346 0.015420 0.697058
O O7 0.875059 0.946209 0.465815
O O8 0.735889 0.018575 0.851264
O O9 0.500000 0.192722 0.250000
O O10 0.416362 0.092531 0.254780
O O11 0.500000 0.987241 0.250000
#
# Coordination Sequence:
#
# PCOD9282694 Si02
#       6
#     8   4   8   8   8   4
#     4  11  21  39  63  88 116 158 199 246 294 348
#     4  11  22  38  62  92 122 143 200 258 296 329
#     4  11  21  38  59  93 119 155 192 246 295 348
#     4  10  21  39  64  82 117 163 200 230 291 365
#     4  11  22  38  62  86 123 158 195 234 297 359
#     4  11  20  36  64  88 118 153 200 240 298 351
#
# _framework density 19.367833000000001
#
# number of rings (size 3 to 8) (size 9 to 14) (size 15 to 20)
#    0.000    1.200    5.000    1.800    0.000    3.200 
#    0.000    1.000   11.000    0.000    0.000    0.000 
#    0.000    0.000    0.000    0.000    0.000    0.000 
#
# Total GULP energy -111618.179473 kJ/mol
# GULP energy per Si atom -5580.908974 kJ/mol
# Density = 1.932375 g / cm^3
# Si number density = 19.367833 Si / 1000 Ang^3
#
#
#
# Elastic Constant Matrix: (Units=GPa)
#
#
# Indices 1 2 3 4 5 6 
#
# 1 89.2256 12.9171 27.1146 0.0003 4.8031 -0.0007
# 2 12.9171 60.9130 36.5571 0.0002 18.5281 -0.0004
# 3 27.1146 36.5571 83.8307 0.0003 24.8922 -0.0005
# 4 0.0003 0.0002 0.0003 13.3341 -0.0003 7.4969
# 5 4.8031 18.5281 24.8922 -0.0003 36.4003 0.0007
# 6 -0.0007 -0.0004 -0.0005 7.4969 0.0007 0.8533
#
#
#
# Elastic Compliance Matrix: (Units=1/GPa)
#
#
# Indices 1 2 3 4 5 6 
#
# 1 0.012500 -0.000568 -0.004255 0.000001 0.001550 -0.000002
# 2 -0.000568 0.023313 -0.008133 0.000002 -0.006230 -0.000004
# 3 -0.004255 -0.008133 0.019394 0.000002 -0.008561 -0.000004
# 4 0.000001 0.000002 0.000002 -0.019036 -0.000006 0.167247
# 5 0.001550 -0.006230 -0.008561 -0.000006 0.036294 0.000012
# 6 -0.000002 -0.000004 -0.000004 0.167247 0.000012 -0.297468
#
#
# Mechanical properties :
#
#
# Convention : Reuss Voigt Hill
#
# Bulk Modulus (GPa) = 34.13668 43.01635 38.57651
# Shear Modulus (GPa) = -26.40941 20.60958 -2.89992
#
# Velocity S-wave (km/s) = -3.69666 3.26561 -1.22496
# Velocity P-wave (km/s) = 0.74612 6.03965 4.23797
#
# Compressibility (1/GPa) = 0.02929400
#
# Stress axis : x y z
#
# Youngs Moduli (GPa) = 80.00310 42.89393 51.56272
#
# Poissons Ratio (x) = 0.02437 0.21942
# Poissons Ratio (y) = 0.04546 0.41935
# Poissons Ratio (z) = 0.34044 0.34885
#
# Static dielectric constant tensor:
#      x y z
#    x 1.699130 0.000000 -0.033910 
#    y 0.000000 1.671940 0.000000 
#    z -0.033910 0.000000 1.674370 
# 
# From -- ./inp_files/30202.got.cif
#   From: 2010.05.17/outbox.cif.g08.bks.cpg/sg15_16_cif.got.tgz:30202.got - 2010.06.03 18:47:42.
