data_PCOD9282678
_publ_section_title
;
Structure prediction by ZEFSAII (Michael W. Deem and Ramdas Pophale) SiO2 
 PCOD9282678
Probable space group: C 2/C
;
_chemical_formula_sum "Si O2"
_cell_formula_units_Z 60
_cell_length_a 18.235329
_cell_length_b 12.206514
_cell_length_c 19.040807
_cell_angle_alpha 90.000000
_cell_angle_beta 142.256463
_cell_angle_gamma 90.000000
_cell_volume 2594.375976
_symmetry_space_group_name_H-M "C 2/C"
_symmetry_group_IT_number 15
_symmetry_cell_setting 'monoclinic'
loop_
_space_group_symop_operation_xyz
x,y,z
-x,y,1/2-z
-x,-y,-z
x,-y,1/2+z
1/2+x,1/2+y,z
1/2-x,1/2+y,1/2-z
1/2-x,1/2-y,-z
1/2+x,1/2-y,1/2+z
loop_
_atom_site_type_symbol
_atom_site_label
_atom_site_fract_x
_atom_site_fract_y
_atom_site_fract_z
Si Si1 0.719412 0.883559 0.840369
Si Si2 0.045335 0.468381 0.455216
Si Si3 0.758723 0.797881 0.632957
Si Si4 0.880430 0.591232 0.703407
Si Si5 0.915643 0.164585 0.910950
Si Si6 0.382469 0.430626 0.835564
Si Si7 0.899518 0.710693 0.037820
Si Si8 0.500000 0.209980 0.250000
O O1 0.768648 0.904829 0.799909
O O2 0.584480 0.854596 0.759605
O O3 0.726262 0.001612 0.884059
O O4 0.794281 0.780337 0.923246
O O5 0.145038 0.372293 0.527090
O O6 0.108021 0.579366 0.472386
O O7 0.000000 0.500000 0.500000
O O8 0.933512 0.426063 0.323122
O O9 0.829606 0.708884 0.640905
O O10 0.704855 0.714301 0.650499
O O11 0.854964 0.877793 0.740835
O O12 0.000000 0.568078 0.750000
O O13 0.986240 0.256294 0.922397
O O14 0.896633 0.060684 0.846662
O O15 0.002026 0.121672 0.038846
O O16 0.912912 0.760772 0.126453
#
# Coordination Sequence:
#
# PCOD9282678 Si02
#       8
#     8   8   8   8   8   8   8   4
#     4  11  21  40  69  96 130 183 223 274 346 406
#     4  12  25  45  70 106 138 175 232 288 337 413
#     4  12  24  39  71 100 132 182 227 284 339 414
#     4  12  26  48  71  95 143 191 228 279 351 420
#     4  10  21  39  63  98 133 171 218 287 347 396
#     4  10  22  39  63 100 133 168 223 283 343 396
#     4  11  24  40  70 100 135 176 226 285 345 411
#     4  12  22  42  62  96 138 178 218 270 344 412
#
# _framework density 23.126947999999999
#
# number of rings (size 3 to 8) (size 9 to 14) (size 15 to 20)
#    0.000    0.800    4.667    2.800    1.867    1.600 
#    0.000    0.000    5.867    0.000    0.000    0.000 
#    0.000    0.000    0.000    0.000    0.000    0.000 
#
# Total GULP energy -167345.470124 kJ/mol
# GULP energy per Si atom -5578.182337 kJ/mol
# Density = 2.307431 g / cm^3
# Si number density = 23.126948 Si / 1000 Ang^3
#
#
#
# Elastic Constant Matrix: (Units=GPa)
#
#
# Indices 1 2 3 4 5 6 
#
# 1 47.8504 -8.7864 1.6671 0.0000 11.7412 0.0000
# 2 -8.7864 134.8465 42.6268 0.0000 6.3770 0.0000
# 3 1.6671 42.6268 51.7026 0.0000 4.0099 0.0000
# 4 0.0000 0.0000 0.0000 34.9911 0.0000 16.0114
# 5 11.7412 6.3770 4.0099 0.0000 22.3389 0.0000
# 6 0.0000 0.0000 0.0000 16.0114 0.0000 16.8131
#
#
#
# Elastic Compliance Matrix: (Units=1/GPa)
#
#
# Indices 1 2 3 4 5 6 
#
# 1 0.024828 0.002946 -0.002183 0.000000 -0.013498 0.000000
# 2 0.002946 0.010423 -0.008455 0.000000 -0.003006 0.000000
# 3 -0.002183 -0.008455 0.026475 0.000000 -0.001192 0.000000
# 4 0.000000 0.000000 0.000000 0.050651 0.000000 -0.048235
# 5 -0.013498 -0.003006 -0.001192 0.000000 0.052932 0.000000
# 6 0.000000 0.000000 0.000000 -0.048235 0.000000 0.105413
#
#
# Mechanical properties :
#
#
# Convention : Reuss Voigt Hill
#
# Bulk Modulus (GPa) = 21.57854 33.93495 27.75674
# Shear Modulus (GPa) = 16.58098 28.08810 22.33454
#
# Velocity S-wave (km/s) = 2.68051 3.48877 3.11100
# Velocity P-wave (km/s) = 4.35096 5.56183 4.99324
#
# Compressibility (1/GPa) = 0.04634235
#
# Stress axis : x y z
#
# Youngs Moduli (GPa) = 40.27772 95.94471 37.77156
#
# Poissons Ratio (x) = -0.28265 0.08244
# Poissons Ratio (y) = -0.11866 0.31936
# Poissons Ratio (z) = 0.08791 0.81121
#
# Static dielectric constant tensor:
#      x y z
#    x 1.884690 0.000000 -0.019440 
#    y 0.000000 1.922840 0.000000 
#    z -0.019440 0.000000 1.982520 
# 
# From -- ./inp_files/248782.got.cif
#   From: 2010.05.17/outbox.cif.g08.bks.cpg/sg15_125_cif.got.tgz:248782.got - 2010.06.03 18:47:42.
