data_PCOD9282812
_publ_section_title
;
Structure prediction by ZEFSAII (Michael W. Deem and Ramdas Pophale) SiO2 
 PCOD9282812
Probable space group: C 2/C
;
_chemical_formula_sum "Si O2"
_cell_formula_units_Z 64
_cell_length_a 26.647865
_cell_length_b 18.317710
_cell_length_c 13.349186
_cell_angle_alpha 90.000000
_cell_angle_beta 156.224605
_cell_angle_gamma 90.000000
_cell_volume 2626.984851
_symmetry_space_group_name_H-M "C 2/C"
_symmetry_group_IT_number 15
_symmetry_cell_setting 'monoclinic'
loop_
_space_group_symop_operation_xyz
x,y,z
-x,y,1/2-z
-x,-y,-z
x,-y,1/2+z
1/2+x,1/2+y,z
1/2-x,1/2+y,1/2-z
1/2-x,1/2-y,-z
1/2+x,1/2-y,1/2+z
loop_
_atom_site_type_symbol
_atom_site_label
_atom_site_fract_x
_atom_site_fract_y
_atom_site_fract_z
Si Si1 0.904334 0.734514 0.166625
Si Si2 0.621323 0.531562 0.026693
Si Si3 0.222950 0.632971 0.307113
Si Si4 0.373727 0.212152 0.566817
Si Si5 0.291433 0.392317 0.233851
Si Si6 0.775787 0.138853 0.930813
Si Si7 0.523932 0.852771 0.045644
Si Si8 0.529012 0.413129 0.548373
O O1 0.982212 0.719253 0.408851
O O2 0.000000 0.746376 0.250000
O O3 0.806622 0.800019 0.998527
O O4 0.825420 0.659670 0.001497
O O5 0.697121 0.563197 0.072793
O O6 0.709938 0.480546 0.257531
O O7 0.570798 0.595130 0.009413
O O8 0.500000 0.498240 0.750000
O O9 0.176583 0.663342 0.115084
O O10 0.107728 0.611766 0.166739
O O11 0.500000 0.246418 0.750000
O O12 0.279922 0.273136 0.435266
O O13 0.413452 0.165794 0.734695
O O14 0.325407 0.377431 0.411200
O O15 0.403101 0.376820 0.360696
O O16 0.633900 0.111175 0.682651
O O17 0.862383 0.109543 0.177219
O O18 0.500000 0.500000 0.500000
#
# Coordination Sequence:
#
# PCOD9282812 Si02
#       8
#     8   8   8   8   8   8   8   8
#     4  12  24  46  68 103 142 182 233 286 349 416
#     4  11  25  45  68  99 135 179 230 286 346 405
#     4  11  24  45  69 100 145 181 228 286 345 413
#     4  10  21  39  64  98 134 178 226 277 337 402
#     4  11  23  44  70  98 135 176 233 283 341 413
#     4  12  21  41  70  98 138 176 230 283 335 415
#     4  11  25  40  65 103 138 180 228 276 356 406
#     4  10  23  41  68 100 127 173 231 288 342 402
#
# _framework density 24.362531000000001
#
# number of rings (size 3 to 8) (size 9 to 14) (size 15 to 20)
#    0.000    1.000    2.500    4.500    3.500    2.000 
#    0.000    5.000    0.000    0.000    0.000    0.000 
#    0.000    0.000    0.000    0.000    0.000    0.000 
#
# Total GULP energy -178834.868173 kJ/mol
# GULP energy per Si atom -5588.589630 kJ/mol
# Density = 2.430708 g / cm^3
# Si number density = 24.362531 Si / 1000 Ang^3
#
#
#
# Elastic Constant Matrix: (Units=GPa)
#
#
# Indices 1 2 3 4 5 6 
#
# 1 96.0592 8.6691 19.1437 0.0000 14.4359 0.0000
# 2 8.6691 50.0047 28.1594 0.0000 15.2566 0.0000
# 3 19.1437 28.1594 94.8354 0.0000 10.5141 0.0000
# 4 0.0000 0.0000 0.0000 21.1514 0.0000 -5.7698
# 5 14.4359 15.2566 10.5141 0.0000 60.7385 0.0000
# 6 0.0000 0.0000 0.0000 -5.7698 0.0000 26.4667
#
#
#
# Elastic Compliance Matrix: (Units=1/GPa)
#
#
# Indices 1 2 3 4 5 6 
#
# 1 0.011155 -0.000136 -0.001959 0.000000 -0.002278 0.000000
# 2 -0.000136 0.025530 -0.006980 0.000000 -0.005172 0.000000
# 3 -0.001959 -0.006980 0.013016 0.000000 -0.000034 0.000000
# 4 0.000000 0.000000 0.000000 0.050267 0.000000 0.010958
# 5 -0.002278 -0.005172 -0.000034 0.000000 0.018311 0.000000
# 6 0.000000 0.000000 0.000000 0.010958 0.000000 0.040172
#
#
# Mechanical properties :
#
#
# Convention : Reuss Voigt Hill
#
# Bulk Modulus (GPa) = 31.69285 39.20487 35.44886
# Shear Modulus (GPa) = 26.72098 33.99980 30.36039
#
# Velocity S-wave (km/s) = 3.31540 3.73980 3.53397
# Velocity P-wave (km/s) = 5.26241 5.89706 5.58875
#
# Compressibility (1/GPa) = 0.03155286
#
# Stress axis : x y z
#
# Youngs Moduli (GPa) = 89.64384 39.16907 76.82638
#
# Poissons Ratio (x) = 0.00532 0.15050
# Poissons Ratio (y) = 0.01217 0.53624
# Poissons Ratio (z) = 0.17561 0.27339
#
# Static dielectric constant tensor:
#      x y z
#    x 2.028380 0.000000 -0.033650 
#    y 0.000000 2.089660 0.000000 
#    z -0.033650 0.000000 2.107290 
# 
# From -- ./inp_files/183161.got.cif
#   From: 2010.05.17/outbox.cif.g08.bks.cpg/sg15_92_cif.got.tgz:183161.got - 2010.06.03 18:47:42.
