data_PCOD9282144
_publ_section_title
;
Structure prediction by ZEFSAII (Michael W. Deem and Ramdas Pophale) SiO2 
 PCOD9282144
Probable space group: C 2/C
;
_chemical_formula_sum "Si O2"
_cell_formula_units_Z 60
_cell_length_a 19.810838
_cell_length_b 29.045457
_cell_length_c 14.199268
_cell_angle_alpha 90.000000
_cell_angle_beta 157.752382
_cell_angle_gamma 90.000000
_cell_volume 3093.422619
_symmetry_space_group_name_H-M "C 2/C"
_symmetry_group_IT_number 15
_symmetry_cell_setting 'monoclinic'
loop_
_space_group_symop_operation_xyz
x,y,z
-x,y,1/2-z
-x,-y,-z
x,-y,1/2+z
1/2+x,1/2+y,z
1/2-x,1/2+y,1/2-z
1/2-x,1/2-y,-z
1/2+x,1/2-y,1/2+z
loop_
_atom_site_type_symbol
_atom_site_label
_atom_site_fract_x
_atom_site_fract_y
_atom_site_fract_z
Si Si1 0.595201 0.549468 0.128452
Si Si2 0.685453 0.697965 0.934341
Si Si3 0.671439 0.314355 0.840747
Si Si4 0.323535 0.906947 0.087438
Si Si5 0.516351 0.125822 0.156757
Si Si6 0.123089 0.139645 0.666351
Si Si7 0.553341 0.051973 0.047675
Si Si8 0.500000 0.761124 0.250000
O O1 0.681939 0.562880 0.342938
O O2 0.761480 0.552716 0.271210
O O3 0.500000 0.500000 0.000000
O O4 0.448815 0.587947 0.912053
O O5 0.500000 0.699138 0.750000
O O6 0.645656 0.669892 0.788209
O O7 0.750000 0.750000 0.000000
O O8 0.845638 0.667249 0.184716
O O9 0.528333 0.336416 0.588980
O O10 0.580462 0.272496 0.776726
O O11 0.741061 0.356241 0.995297
O O12 0.843010 0.293603 0.009959
O O13 0.500000 0.902304 0.250000
O O14 0.396917 0.927961 0.278562
O O15 0.500000 0.117673 0.250000
O O16 0.316279 0.138704 0.868318
O O17 0.570467 0.081729 0.165158
O O18 0.500000 0.000000 0.000000
#
# Coordination Sequence:
#
# PCOD9282144 Si02
#       8
#     8   8   8   8   8   8   8   4
#     4  10  21  41  64  93 126 163 206 259 318 383
#     4  11  23  42  63  91 123 165 215 263 315 374
#     4  10  21  39  57  89 120 157 199 247 307 362
#     4   9  20  39  62  84 125 157 197 255 306 370
#     4  10  23  42  63  90 127 165 212 268 309 375
#     4  10  22  40  62  88 124 164 203 259 315 368
#     4  11  23  39  64  94 119 167 212 255 324 375
#     4  10  22  36  58  86 122 154 202 246 292 374
#
# _framework density 19.395993000000001
#
# number of rings (size 3 to 8) (size 9 to 14) (size 15 to 20)
#    0.000    1.867    0.667    2.800    1.867    5.867 
#    2.400    2.667    0.000    0.000    0.000    0.000 
#    0.000    0.000    0.000    0.000    0.000    0.000 
#
# Total GULP energy -167375.609705 kJ/mol
# GULP energy per Si atom -5579.186990 kJ/mol
# Density = 1.935185 g / cm^3
# Si number density = 19.395993 Si / 1000 Ang^3
#
#
#
# Elastic Constant Matrix: (Units=GPa)
#
#
# Indices 1 2 3 4 5 6 
#
# 1 67.5960 50.6233 37.3238 -0.0001 15.9145 -0.0001
# 2 50.6233 179.8165 88.3716 0.0000 7.7811 0.0000
# 3 37.3238 88.3716 131.7055 -0.0002 21.6380 -0.0004
# 4 -0.0001 0.0000 -0.0002 34.2906 -0.0001 0.9922
# 5 15.9145 7.7811 21.6380 -0.0001 30.0351 -0.0001
# 6 -0.0001 0.0000 -0.0004 0.9922 -0.0001 -5.5538
#
#
#
# Elastic Compliance Matrix: (Units=1/GPa)
#
#
# Indices 1 2 3 4 5 6 
#
# 1 0.021380 -0.005051 -0.001161 0.000000 -0.009183 0.000000
# 2 -0.005051 0.009610 -0.005725 0.000000 0.004311 0.000000
# 3 -0.001161 -0.005725 0.012951 0.000000 -0.007232 -0.000001
# 4 0.000000 0.000000 0.000000 0.029013 0.000000 0.005183
# 5 -0.009183 0.004311 -0.007232 0.000000 0.042254 0.000000
# 6 0.000000 0.000000 -0.000001 0.005183 0.000000 -0.179130
#
#
# Mechanical properties :
#
#
# Convention : Reuss Voigt Hill
#
# Bulk Modulus (GPa) = 49.83282 81.30613 65.56947
# Shear Modulus (GPa) = -149.88563 25.27433 -62.30565
#
# Velocity S-wave (km/s) = -8.80025 3.61372 -5.67386
# Velocity P-wave (km/s) = 8.80404 7.70857 3.00741
#
# Compressibility (1/GPa) = 0.02006710
#
# Stress axis : x y z
#
# Youngs Moduli (GPa) = 46.77344 104.05418 77.21209
#
# Poissons Ratio (x) = 0.52559 0.08963
# Poissons Ratio (y) = 0.23626 0.44206
# Poissons Ratio (z) = 0.05430 0.59573
#
# Static dielectric constant tensor:
#      x y z
#    x 1.674170 0.000000 0.016120 
#    y 0.000000 1.667220 0.000000 
#    z 0.016120 0.000000 1.703490 
# 
# From -- ./inp_files/169959.got.cif
#   From: 2010.05.17/outbox.cif.g08.bks.cpg/sg15_85_cif.got.tgz:169959.got - 2010.06.03 18:47:42.
