data_PCOD9282439
_publ_section_title
;
Structure prediction by ZEFSAII (Michael W. Deem and Ramdas Pophale) SiO2 
 PCOD9282439
Probable space group: C 2/C
;
_chemical_formula_sum "Si O2"
_cell_formula_units_Z 48
_cell_length_a 8.362505
_cell_length_b 21.847061
_cell_length_c 13.138190
_cell_angle_alpha 90.000000
_cell_angle_beta 113.132586
_cell_angle_gamma 90.000000
_cell_volume 2207.308668
_symmetry_space_group_name_H-M "C 2/C"
_symmetry_group_IT_number 15
_symmetry_cell_setting 'monoclinic'
loop_
_space_group_symop_operation_xyz
x,y,z
-x,y,1/2-z
-x,-y,-z
x,-y,1/2+z
1/2+x,1/2+y,z
1/2-x,1/2+y,1/2-z
1/2-x,1/2-y,-z
1/2+x,1/2-y,1/2+z
loop_
_atom_site_type_symbol
_atom_site_label
_atom_site_fract_x
_atom_site_fract_y
_atom_site_fract_z
Si Si1 0.876502 0.390284 0.808452
Si Si2 0.991287 0.704004 0.628530
Si Si3 0.153033 0.167176 0.415611
Si Si4 0.525301 0.429465 0.031513
Si Si5 0.825236 0.604727 0.952064
Si Si6 0.312094 0.973331 0.252495
O O1 0.739330 0.345449 0.827466
O O2 0.788153 0.453064 0.747135
O O3 0.000000 0.364400 0.750000
O O4 0.013913 0.406812 0.932090
O O5 0.982957 0.777373 0.616999
O O6 0.809014 0.683714 0.532615
O O7 0.000000 0.688411 0.750000
O O8 0.134996 0.667143 0.600163
O O9 0.079233 0.105245 0.443202
O O10 0.354110 0.396923 0.031994
O O11 0.673859 0.433793 0.154844
O O12 0.500000 0.500000 0.000000
O O13 0.814431 0.550731 0.867435
O O14 0.500000 0.963329 0.250000
#
# Coordination Sequence:
#
# PCOD9282439 Si02
#       6
#     8   8   8   8   8   8
#     4  10  21  39  62  89 123 167 211 255 318 382
#     4  10  22  42  66  86 117 167 211 257 314 371
#     4  10  23  42  62  89 124 162 212 262 310 377
#     4  12  24  38  61  96 131 163 207 263 320 377
#     4  11  22  38  60  90 125 164 214 261 309 373
#     4  11  21  37  62  90 127 169 207 255 317 382
#
# _framework density 21.745937999999999
#
# number of rings (size 3 to 8) (size 9 to 14) (size 15 to 20)
#    0.000    1.333    0.000    7.500    0.000    3.333 
#    0.000    3.333    0.000    0.000    0.000    0.000 
#    0.000    0.000    0.000    0.000    0.000    0.000 
#
# Total GULP energy -134221.117571 kJ/mol
# GULP energy per Si atom -5592.546565 kJ/mol
# Density = 2.169644 g / cm^3
# Si number density = 21.745938 Si / 1000 Ang^3
#
#
#
# Elastic Constant Matrix: (Units=GPa)
#
#
# Indices 1 2 3 4 5 6 
#
# 1 94.0172 52.3694 34.0174 0.0000 -10.0261 0.0000
# 2 52.3694 124.2601 27.9125 0.0000 -11.3018 0.0000
# 3 34.0174 27.9125 81.1355 0.0000 -14.0543 0.0000
# 4 0.0000 0.0000 0.0000 30.8801 0.0000 -11.2031
# 5 -10.0261 -11.3018 -14.0543 0.0000 40.3173 0.0000
# 6 0.0000 0.0000 0.0000 -11.2031 0.0000 6.3776
#
#
#
# Elastic Compliance Matrix: (Units=1/GPa)
#
#
# Indices 1 2 3 4 5 6 
#
# 1 0.015328 -0.005394 -0.004441 0.000000 0.000752 0.000000
# 2 -0.005394 0.010705 -0.001207 0.000000 0.001239 0.000000
# 3 -0.004441 -0.001207 0.015274 0.000000 0.003882 0.000000
# 4 0.000000 0.000000 0.000000 0.089281 0.000000 0.156833
# 5 0.000752 0.001239 0.003882 0.000000 0.026691 0.000000
# 6 0.000000 0.000000 0.000000 0.156833 0.000000 0.432295
#
#
# Mechanical properties :
#
#
# Convention : Reuss Voigt Hill
#
# Bulk Modulus (GPa) = 52.01680 58.66794 55.34237
# Shear Modulus (GPa) = 8.08978 27.85592 17.97285
#
# Velocity S-wave (km/s) = 1.93086 3.58295 2.87800
# Velocity P-wave (km/s) = 5.37988 6.64485 6.04554
#
# Compressibility (1/GPa) = 0.01922456
#
# Stress axis : x y z
#
# Youngs Moduli (GPa) = 65.24102 93.41733 65.46928
#
# Poissons Ratio (x) = 0.50390 0.29072
# Poissons Ratio (y) = 0.35191 0.07899
# Poissons Ratio (z) = 0.28970 0.11271
#
# Static dielectric constant tensor:
#      x y z
#    x 1.685680 0.000000 0.086870 
#    y 0.000000 1.794740 0.000000 
#    z 0.086870 0.000000 1.786330 
# 
# From -- ./inp_files/79897.got.cif
#   From: 2010.05.17/outbox.cif.g08.bks.cpg/sg15_40_cif.got.tgz:79897.got - 2010.06.03 18:47:42.
