data_PCOD9282250
_publ_section_title
;
Structure prediction by ZEFSAII (Michael W. Deem and Ramdas Pophale) SiO2 
 PCOD9282250
Probable space group: C 2/C
;
_chemical_formula_sum "Si O2"
_cell_formula_units_Z 48
_cell_length_a 18.290735
_cell_length_b 8.589736
_cell_length_c 31.812994
_cell_angle_alpha 90.000000
_cell_angle_beta 29.127476
_cell_angle_gamma 90.000000
_cell_volume 2432.906110
_symmetry_space_group_name_H-M "C 2/C"
_symmetry_group_IT_number 15
_symmetry_cell_setting 'monoclinic'
loop_
_space_group_symop_operation_xyz
x,y,z
-x,y,1/2-z
-x,-y,-z
x,-y,1/2+z
1/2+x,1/2+y,z
1/2-x,1/2+y,1/2-z
1/2-x,1/2-y,-z
1/2+x,1/2-y,1/2+z
loop_
_atom_site_type_symbol
_atom_site_label
_atom_site_fract_x
_atom_site_fract_y
_atom_site_fract_z
Si Si1 0.910288 0.948511 0.004354
Si Si2 0.933977 0.494802 0.825023
Si Si3 0.410035 0.343635 0.254884
Si Si4 0.585803 0.115971 0.827211
Si Si5 0.051798 0.613951 0.936909
Si Si6 0.905563 0.985622 0.668330
O O1 0.940887 0.762421 0.989393
O O2 0.975732 0.015915 0.928000
O O3 0.742491 0.009083 0.092774
O O4 0.000000 0.000000 0.000000
O O5 0.000000 0.573844 0.750000
O O6 0.018502 0.328520 0.786138
O O7 0.965808 0.583451 0.851938
O O8 0.500000 0.411486 0.250000
O O9 0.229066 0.339216 0.353499
O O10 0.434883 0.436823 0.198941
O O11 0.547701 0.043123 0.891823
O O12 0.604101 0.300040 0.822981
O O13 0.744931 0.046959 0.733554
O O14 0.000000 0.500000 0.000000
#
# Coordination Sequence:
#
# PCOD9282250 Si02
#       6
#     8   8   8   8   8   8
#     4  11  23  39  61  88 119 158 204 250 300 361
#     4  11  23  39  60  86 120 157 200 253 302 359
#     4  10  22  41  61  87 124 159 198 250 302 357
#     4  10  21  39  60  87 121 156 197 246 301 357
#     4  10  23  40  61  89 123 160 200 251 303 362
#     4  10  22  39  61  87 120 157 197 246 299 360
#
# _framework density 19.729490999999999
#
# number of rings (size 3 to 8) (size 9 to 14) (size 15 to 20)
#    0.000    1.667    0.000    6.000    0.000   13.333 
#    0.000    0.000    0.000    0.000    0.000    0.000 
#    0.000    0.000    0.000    0.000    0.000    0.000 
#
# Total GULP energy -133930.610008 kJ/mol
# GULP energy per Si atom -5580.442084 kJ/mol
# Density = 1.968459 g / cm^3
# Si number density = 19.729491 Si / 1000 Ang^3
#
#
#
# Elastic Constant Matrix: (Units=GPa)
#
#
# Indices 1 2 3 4 5 6 
#
# 1 124.1657 11.4369 45.1969 0.0004 -12.7552 -0.0019
# 2 11.4369 42.1434 32.7666 0.0010 0.0265 -0.0058
# 3 45.1969 32.7666 138.8775 -0.0003 -0.6414 -0.0002
# 4 0.0004 0.0010 -0.0003 19.8944 -0.0004 0.1856
# 5 -12.7552 0.0265 -0.6414 -0.0004 29.0587 -0.0008
# 6 -0.0019 -0.0058 -0.0002 0.1856 -0.0008 23.6647
#
#
#
# Elastic Compliance Matrix: (Units=1/GPa)
#
#
# Indices 1 2 3 4 5 6 
#
# 1 0.009614 -0.000237 -0.003054 0.000000 0.004153 0.000001
# 2 -0.000237 0.029066 -0.006782 -0.000002 -0.000280 0.000007
# 3 -0.003054 -0.006782 0.009789 0.000001 -0.001118 -0.000002
# 4 0.000000 -0.000002 0.000001 0.050269 0.000001 -0.000394
# 5 0.004153 -0.000280 -0.001118 0.000001 0.036212 0.000001
# 6 0.000001 0.000007 -0.000002 -0.000394 0.000001 0.042260
#
#
# Mechanical properties :
#
#
# Convention : Reuss Voigt Hill
#
# Bulk Modulus (GPa) = 35.30653 53.77639 44.54146
# Shear Modulus (GPa) = 24.17836 28.90930 26.54383
#
# Velocity S-wave (km/s) = 3.50450 3.83206 3.67193
# Velocity P-wave (km/s) = 5.85743 6.84803 6.37201
#
# Compressibility (1/GPa) = 0.02832338
#
# Stress axis : x y z
#
# Youngs Moduli (GPa) = 104.01796 34.40449 102.15264
#
# Poissons Ratio (x) = 0.00817 0.31193
# Poissons Ratio (y) = 0.02470 0.69278
# Poissons Ratio (z) = 0.31762 0.23332
#
# Static dielectric constant tensor:
#      x y z
#    x 1.901930 0.000000 -0.323730 
#    y 0.000000 1.709520 0.000000 
#    z -0.323730 0.000000 2.336580 
# 
# From -- ./inp_files/247636.got.cif
#   From: 2010.05.17/outbox.cif.g08.bks.cpg/sg15_124_cif.got.tgz:247636.got - 2010.06.03 18:47:42.
