data_PCOD9282393
_publ_section_title
;
Structure prediction by ZEFSAII (Michael W. Deem and Ramdas Pophale) SiO2 
 PCOD9282393
Probable space group: C 2/C
;
_chemical_formula_sum "Si O2"
_cell_formula_units_Z 56
_cell_length_a 24.716826
_cell_length_b 5.038900
_cell_length_c 21.339649
_cell_angle_alpha 90.000000
_cell_angle_beta 85.214340
_cell_angle_gamma 90.000000
_cell_volume 2648.494140
_symmetry_space_group_name_H-M "C 2/C"
_symmetry_group_IT_number 15
_symmetry_cell_setting 'monoclinic'
loop_
_space_group_symop_operation_xyz
x,y,z
-x,y,1/2-z
-x,-y,-z
x,-y,1/2+z
1/2+x,1/2+y,z
1/2-x,1/2+y,1/2-z
1/2-x,1/2-y,-z
1/2+x,1/2-y,1/2+z
loop_
_atom_site_type_symbol
_atom_site_label
_atom_site_fract_x
_atom_site_fract_y
_atom_site_fract_z
Si Si1 0.930979 0.538296 0.213835
Si Si2 0.978635 0.957138 0.648287
Si Si3 0.883302 0.978701 0.556254
Si Si4 0.258312 0.249179 0.790375
Si Si5 0.336292 0.984162 0.620723
Si Si6 0.399491 0.512917 0.909175
Si Si7 0.865197 0.510161 0.843312
O O1 0.954966 0.826688 0.198495
O O2 0.877104 0.511667 0.176056
O O3 0.911493 0.491299 0.285686
O O4 0.972682 0.324149 0.182717
O O5 0.038435 0.031154 0.620154
O O6 0.937978 0.951553 0.592467
O O7 0.839931 0.771228 0.588942
O O8 0.894922 0.927207 0.482839
O O9 0.860773 0.272403 0.569976
O O10 0.270172 0.500341 0.743162
O O11 0.219959 0.377260 0.846890
O O12 0.311247 0.117141 0.815250
O O13 0.380691 0.215901 0.895905
O O14 0.363423 0.717529 0.872464
#
# Coordination Sequence:
#
# PCOD9282393 Si02
#       7
#     8   8   8   8   8   8   8
#     4  10  21  39  61  96 124 158 213 269 315 373
#     4  10  22  39  67  89 123 171 220 256 308 369
#     4  10  22  42  65  91 126 170 220 258 300 377
#     4  12  24  42  70  96 125 163 213 266 331 390
#     4  10  21  40  67  94 119 160 219 272 308 361
#     4  12  25  42  60  92 135 175 206 258 316 381
#     4  12  26  40  62  96 134 162 208 262 331 389
#
# _framework density 21.144089000000001
#
# number of rings (size 3 to 8) (size 9 to 14) (size 15 to 20)
#    0.000    1.143    1.429    4.714    4.000    3.429 
#    0.000   10.000    0.000    0.000    0.000    0.000 
#    0.000    0.000    0.000    0.000    0.000    0.000 
#
# Total GULP energy -156693.618339 kJ/mol
# GULP energy per Si atom -5596.200655 kJ/mol
# Density = 2.109596 g / cm^3
# Si number density = 21.144089 Si / 1000 Ang^3
#
#
#
# Elastic Constant Matrix: (Units=GPa)
#
#
# Indices 1 2 3 4 5 6 
#
# 1 75.7942 7.2505 43.1914 0.0000 -6.2787 0.0000
# 2 7.2505 89.8116 15.2493 0.0000 5.3542 0.0000
# 3 43.1914 15.2493 80.5698 0.0000 5.3600 0.0000
# 4 0.0000 0.0000 0.0000 35.8133 0.0000 -17.1697
# 5 -6.2787 5.3542 5.3600 0.0000 17.0882 0.0000
# 6 0.0000 0.0000 0.0000 -17.1697 0.0000 50.5331
#
#
#
# Elastic Compliance Matrix: (Units=1/GPa)
#
#
# Indices 1 2 3 4 5 6 
#
# 1 0.021004 -0.000355 -0.011963 0.000000 0.011581 0.000000
# 2 -0.000355 0.011661 -0.001803 0.000000 -0.003219 0.000000
# 3 -0.011963 -0.001803 0.019835 0.000000 -0.010052 0.000000
# 4 0.000000 0.000000 0.000000 0.033356 0.000000 0.011333
# 5 0.011581 -0.003219 -0.010052 0.000000 0.066937 0.000000
# 6 0.000000 0.000000 0.000000 0.011333 0.000000 0.023640
#
#
# Mechanical properties :
#
#
# Convention : Reuss Voigt Hill
#
# Bulk Modulus (GPa) = 41.22261 41.95088 41.58674
# Shear Modulus (GPa) = 23.50069 32.71922 28.10996
#
# Velocity S-wave (km/s) = 3.33747 3.93802 3.65011
# Velocity P-wave (km/s) = 5.86429 6.36874 6.12172
#
# Compressibility (1/GPa) = 0.02425853
#
# Stress axis : x y z
#
# Youngs Moduli (GPa) = 47.60978 85.75567 50.41693
#
# Poissons Ratio (x) = 0.03043 0.60314
# Poissons Ratio (y) = 0.01689 0.09089
# Poissons Ratio (z) = 0.56956 0.15459
#
# Static dielectric constant tensor:
#      x y z
#    x 1.768750 0.000000 0.021370 
#    y 0.000000 1.730690 0.000000 
#    z 0.021370 0.000000 1.719740 
# 
# From -- ./inp_files/254323.got.cif
#   From: 2010.05.17/outbox.cif.g08.bks.cpg/sg15_128_cif.got.tgz:254323.got - 2010.06.03 18:47:42.
