data_PCOD9282506
_publ_section_title
;
Structure prediction by ZEFSAII (Michael W. Deem and Ramdas Pophale) SiO2 
 PCOD9282506
Probable space group: C 2/C
;
_chemical_formula_sum "Si O2"
_cell_formula_units_Z 60
_cell_length_a 10.826103
_cell_length_b 28.154506
_cell_length_c 15.828112
_cell_angle_alpha 90.000000
_cell_angle_beta 143.563695
_cell_angle_gamma 90.000000
_cell_volume 2865.388758
_symmetry_space_group_name_H-M "C 2/C"
_symmetry_group_IT_number 15
_symmetry_cell_setting 'monoclinic'
loop_
_space_group_symop_operation_xyz
x,y,z
-x,y,1/2-z
-x,-y,-z
x,-y,1/2+z
1/2+x,1/2+y,z
1/2-x,1/2+y,1/2-z
1/2-x,1/2-y,-z
1/2+x,1/2-y,1/2+z
loop_
_atom_site_type_symbol
_atom_site_label
_atom_site_fract_x
_atom_site_fract_y
_atom_site_fract_z
Si Si1 0.542659 0.444524 0.536280
Si Si2 0.500000 0.248035 0.250000
Si Si3 0.754190 0.731311 0.596696
Si Si4 0.055361 0.295112 0.964341
Si Si5 0.407680 0.427387 0.288035
Si Si6 0.804934 0.961524 0.704756
Si Si7 0.781081 0.370719 0.083572
Si Si8 0.484706 0.112762 0.526735
O O1 0.500000 0.500000 0.500000
O O2 0.567260 0.425462 0.454302
O O3 0.694329 0.440445 0.699455
O O4 0.342142 0.417712 0.461843
O O5 0.713427 0.279251 0.375606
O O6 0.482515 0.216452 0.155140
O O7 0.750000 0.750000 0.500000
O O8 0.615556 0.763569 0.580417
O O9 0.670910 0.677257 0.553567
O O10 0.000000 0.730177 0.750000
O O11 0.015904 0.349404 0.969719
O O12 0.500000 0.411548 0.250000
O O13 0.330811 0.481913 0.231545
O O14 0.204932 0.396135 0.192910
O O15 0.605289 0.937946 0.552219
O O16 0.000000 0.948496 0.750000
O O17 0.825952 0.367002 0.008724
O O18 0.000000 0.373376 0.250000
#
# Coordination Sequence:
#
# PCOD9282506 Si02
#       8
#     8   4   8   8   8   8   8   8
#     4  10  21  40  62  92 128 170 216 264 324 384
#     4  10  26  50  66  88 132 180 224 262 326 410
#     4  11  23  40  66 103 134 160 211 275 343 395
#     4  11  25  46  70  94 129 178 220 274 329 402
#     4  10  23  42  62  87 128 178 219 260 315 390
#     4  10  21  39  62  94 130 162 206 270 329 377
#     4  11  22  39  66 100 126 168 212 267 333 396
#     4  12  23  40  66  97 126 165 218 267 330 392
#
# _framework density 20.939567
#
# number of rings (size 3 to 8) (size 9 to 14) (size 15 to 20)
#    0.000    1.333    4.000    1.200    2.800    2.667 
#    4.800    0.000    0.000    0.000    1.733    0.000 
#    0.000    0.000    0.000    0.000    0.000    0.000 
#
# Total GULP energy -167280.326614 kJ/mol
# GULP energy per Si atom -5576.010887 kJ/mol
# Density = 2.089191 g / cm^3
# Si number density = 20.939567 Si / 1000 Ang^3
#
#
#
# Elastic Constant Matrix: (Units=GPa)
#
#
# Indices 1 2 3 4 5 6 
#
# 1 107.2357 18.5551 27.2150 0.0000 -18.1259 0.0000
# 2 18.5551 71.4481 7.0360 0.0000 11.0927 0.0000
# 3 27.2150 7.0360 70.9320 0.0000 -14.0013 0.0000
# 4 0.0000 0.0000 0.0000 15.6582 0.0000 -6.6543
# 5 -18.1259 11.0927 -14.0013 0.0000 34.5564 0.0000
# 6 0.0000 0.0000 0.0000 -6.6543 0.0000 7.2502
#
#
#
# Elastic Compliance Matrix: (Units=1/GPa)
#
#
# Indices 1 2 3 4 5 6 
#
# 1 0.011755 -0.003724 -0.002921 0.000000 0.006178 0.000000
# 2 -0.003724 0.016366 -0.001758 0.000000 -0.007919 0.000000
# 3 -0.002921 -0.001758 0.016524 0.000000 0.005727 0.000000
# 4 0.000000 0.000000 0.000000 0.104704 0.000000 0.096099
# 5 0.006178 -0.007919 0.005727 0.000000 0.037041 0.000000
# 6 0.000000 0.000000 0.000000 0.096099 0.000000 0.226128
#
#
# Mechanical properties :
#
#
# Convention : Reuss Voigt Hill
#
# Bulk Modulus (GPa) = 35.92177 39.46977 37.69577
# Shear Modulus (GPa) = 11.39981 24.61360 18.00671
#
# Velocity S-wave (km/s) = 2.33580 3.43222 2.93565
# Velocity P-wave (km/s) = 4.94640 5.88193 5.43433
#
# Compressibility (1/GPa) = 0.02783827
#
# Stress axis : x y z
#
# Youngs Moduli (GPa) = 85.06792 61.10244 60.51946
#
# Poissons Ratio (x) = 0.22756 0.17680
# Poissons Ratio (y) = 0.31682 0.10637
# Poissons Ratio (z) = 0.24851 0.10740
#
# Static dielectric constant tensor:
#      x y z
#    x 1.762860 0.000000 -0.028710 
#    y 0.000000 1.800930 0.000000 
#    z -0.028710 0.000000 1.729910 
# 
# From -- ./inp_files/201409.got.cif
#   From: 2010.05.17/outbox.cif.g08.bks.cpg/sg15_101_cif.got.tgz:201409.got - 2010.06.03 18:47:42.
