data_PCOD9282722
_publ_section_title
;
Structure prediction by ZEFSAII (Michael W. Deem and Ramdas Pophale) SiO2 
 PCOD9282722
Probable space group: C 2/C
;
_chemical_formula_sum "Si O2"
_cell_formula_units_Z 40
_cell_length_a 17.520136
_cell_length_b 6.618736
_cell_length_c 15.062586
_cell_angle_alpha 90.000000
_cell_angle_beta 73.131065
_cell_angle_gamma 90.000000
_cell_volume 1671.517297
_symmetry_space_group_name_H-M "C 2/C"
_symmetry_group_IT_number 15
_symmetry_cell_setting 'monoclinic'
loop_
_space_group_symop_operation_xyz
x,y,z
-x,y,1/2-z
-x,-y,-z
x,-y,1/2+z
1/2+x,1/2+y,z
1/2-x,1/2+y,1/2-z
1/2-x,1/2-y,-z
1/2+x,1/2-y,1/2+z
loop_
_atom_site_type_symbol
_atom_site_label
_atom_site_fract_x
_atom_site_fract_y
_atom_site_fract_z
Si Si1 0.690270 0.473934 0.923624
Si Si2 0.577872 0.004754 0.092672
Si Si3 0.314424 0.768169 0.308731
Si Si4 0.901943 0.359945 0.108831
Si Si5 0.330153 0.356497 0.370755
O O1 0.725160 0.673797 0.867880
O O2 0.609198 0.376991 0.913849
O O3 0.759235 0.304937 0.880962
O O4 0.686274 0.473354 0.031044
O O5 0.592058 0.219532 0.137197
O O6 0.628264 0.848678 0.132687
O O7 0.488112 0.929584 0.112892
O O8 0.611872 0.031631 0.981164
O O9 0.342510 0.884157 0.211150
O O10 0.329849 0.529438 0.297595
#
# Coordination Sequence:
#
# PCOD9282722 Si02
#       5
#     8   8   8   8   8
#     4   9  20  37  57  91 125 159 205 267 317 385
#     4   9  21  44  60  86 129 174 210 274 314 387
#     4  11  21  37  64  92 127 166 217 261 331 388
#     4  10  21  39  64  89 129 167 218 262 325 386
#     4   9  19  39  62  83 122 168 209 255 329 379
#
# _framework density 23.930354999999999
#
# number of rings (size 3 to 8) (size 9 to 14) (size 15 to 20)
#    0.000    2.400    0.000    2.400    2.800    0.000 
#    0.000   21.000    0.000    0.000    0.000    0.000 
#    0.000    0.000    0.000    0.000    0.000    0.000 
#
# Total GULP energy -111715.019674 kJ/mol
# GULP energy per Si atom -5585.750984 kJ/mol
# Density = 2.387589 g / cm^3
# Si number density = 23.930355 Si / 1000 Ang^3
#
#
#
# Elastic Constant Matrix: (Units=GPa)
#
#
# Indices 1 2 3 4 5 6 
#
# 1 98.8890 32.7741 31.5244 0.0000 15.0779 0.0000
# 2 32.7741 80.6113 35.7871 0.0000 4.2592 0.0000
# 3 31.5244 35.7871 72.0362 0.0000 2.1265 0.0000
# 4 0.0000 0.0000 0.0000 30.8651 0.0000 7.7541
# 5 15.0779 4.2592 2.1265 0.0000 25.7498 0.0000
# 6 0.0000 0.0000 0.0000 7.7541 0.0000 39.5555
#
#
#
# Elastic Compliance Matrix: (Units=1/GPa)
#
#
# Indices 1 2 3 4 5 6 
#
# 1 0.013600 -0.003344 -0.004082 0.000000 -0.007074 0.000000
# 2 -0.003344 0.016839 -0.006895 0.000000 -0.000258 0.000000
# 3 -0.004082 -0.006895 0.019036 0.000000 0.001959 0.000000
# 4 0.000000 0.000000 0.000000 0.034077 0.000000 -0.006680
# 5 -0.007074 -0.000258 0.001959 0.000000 0.042858 0.000000
# 6 0.000000 0.000000 0.000000 -0.006680 0.000000 0.026590
#
#
# Mechanical properties :
#
#
# Convention : Reuss Voigt Hill
#
# Bulk Modulus (GPa) = 47.99685 50.18973 49.09329
# Shear Modulus (GPa) = 26.51308 29.33081 27.92194
#
# Velocity S-wave (km/s) = 3.33216 3.50476 3.41955
# Velocity P-wave (km/s) = 5.90803 6.11527 6.01255
#
# Compressibility (1/GPa) = 0.02083470
#
# Stress axis : x y z
#
# Youngs Moduli (GPa) = 73.52807 59.38548 52.53301
#
# Poissons Ratio (x) = 0.19856 0.21443
# Poissons Ratio (y) = 0.24585 0.36220
# Poissons Ratio (z) = 0.30013 0.40945
#
# Static dielectric constant tensor:
#      x y z
#    x 1.913720 0.000000 0.011010 
#    y 0.000000 1.943940 0.000000 
#    z 0.011010 0.000000 1.945410 
# 
# From -- ./inp_files/212605.got.cif
#   From: 2010.05.17/outbox.cif.g08.bks.cpg/sg15_107_cif.got.tgz:212605.got - 2010.06.03 18:47:42.
