data_PCOD9282204
_publ_section_title
;
Structure prediction by ZEFSAII (Michael W. Deem and Ramdas Pophale) SiO2 
 PCOD9282204
Probable space group: C 2/C
;
_chemical_formula_sum "Si O2"
_cell_formula_units_Z 36
_cell_length_a 5.087751
_cell_length_b 30.462510
_cell_length_c 12.266911
_cell_angle_alpha 90.000000
_cell_angle_beta 97.180540
_cell_angle_gamma 90.000000
_cell_volume 1886.284696
_symmetry_space_group_name_H-M "C 2/C"
_symmetry_group_IT_number 15
_symmetry_cell_setting 'monoclinic'
loop_
_space_group_symop_operation_xyz
x,y,z
-x,y,1/2-z
-x,-y,-z
x,-y,1/2+z
1/2+x,1/2+y,z
1/2-x,1/2+y,1/2-z
1/2-x,1/2-y,-z
1/2+x,1/2-y,1/2+z
loop_
_atom_site_type_symbol
_atom_site_label
_atom_site_fract_x
_atom_site_fract_y
_atom_site_fract_z
Si Si1 0.767069 0.520323 0.561721
Si Si2 0.928794 0.396790 0.370539
Si Si3 0.500000 0.458554 0.250000
Si Si4 0.491394 0.809253 0.998546
Si Si5 0.452014 0.282133 0.875427
O O1 0.500000 0.500000 0.500000
O O2 0.709137 0.514000 0.688903
O O3 0.000000 0.500000 0.500000
O O4 0.845389 0.571808 0.566916
O O5 0.671152 0.427534 0.339384
O O6 0.908200 0.353591 0.440719
O O7 0.000000 0.384052 0.250000
O O8 0.669581 0.799102 0.902195
O O9 0.184239 0.808855 0.949016
O O10 0.527213 0.768237 0.082592
O O11 0.500000 0.284877 0.750000
#
# Coordination Sequence:
#
# PCOD9282204 Si02
#       5
#     8   8   4   8   8
#     4  11  22  39  64  87 120 157 193 253 307 367
#     4  10  22  38  64  94 120 154 204 262 301 352
#     4  10  22  40  64  96 118 158 200 264 302 360
#     4  10  22  37  63  88 119 161 204 247 300 352
#     4  10  21  39  59  87 122 165 200 245 297 358
#
# _framework density 19.085137
#
# number of rings (size 3 to 8) (size 9 to 14) (size 15 to 20)
#    0.000    1.778    2.222    1.333    6.222    0.000 
#    4.000    0.000   14.667    0.000    0.000    0.000 
#    0.000    0.000    0.000    0.000    0.000    0.000 
#
# Total GULP energy -100233.466836 kJ/mol
# GULP energy per Si atom -5568.525935 kJ/mol
# Density = 1.904170 g / cm^3
# Si number density = 19.085137 Si / 1000 Ang^3
#
#
#
# Elastic Constant Matrix: (Units=GPa)
#
#
# Indices 1 2 3 4 5 6 
#
# 1 120.4206 27.5856 26.5627 0.0000 -6.3243 0.0000
# 2 27.5856 68.6775 58.5349 0.0000 -0.6606 0.0000
# 3 26.5627 58.5349 87.0166 0.0000 -20.6112 0.0000
# 4 0.0000 0.0000 0.0000 20.1225 0.0000 3.2893
# 5 -6.3243 -0.6606 -20.6112 0.0000 44.2731 0.0000
# 6 0.0000 0.0000 0.0000 3.2893 0.0000 18.0444
#
#
#
# Elastic Compliance Matrix: (Units=1/GPa)
#
#
# Indices 1 2 3 4 5 6 
#
# 1 0.009216 -0.003604 -0.000101 0.000000 0.001216 0.000000
# 2 -0.003604 0.041609 -0.030194 0.000000 -0.013951 0.000000
# 3 -0.000101 -0.030194 0.035656 0.000000 0.016135 0.000000
# 4 0.000000 0.000000 0.000000 0.051222 0.000000 -0.009337
# 5 0.001216 -0.013951 0.016135 0.000000 0.030064 0.000000
# 6 0.000000 0.000000 0.000000 -0.009337 0.000000 0.057121
#
#
# Mechanical properties :
#
#
# Convention : Reuss Voigt Hill
#
# Bulk Modulus (GPa) = 53.52575 55.72011 54.62293
# Shear Modulus (GPa) = 16.72720 27.38344 22.05532
#
# Velocity S-wave (km/s) = 2.96370 3.79199 3.40314
# Velocity P-wave (km/s) = 6.31016 6.95925 6.64264
#
# Compressibility (1/GPa) = 0.01868260
#
# Stress axis : x y z
#
# Youngs Moduli (GPa) = 108.50770 24.03302 28.04583
#
# Poissons Ratio (x) = 0.08662 0.00283
# Poissons Ratio (y) = 0.39107 0.84683
# Poissons Ratio (z) = 0.01095 0.72566
#
# Static dielectric constant tensor:
#      x y z
#    x 1.735340 0.000000 -0.006910 
#    y 0.000000 1.635760 0.000000 
#    z -0.006910 0.000000 1.684630 
# 
# From -- ./inp_files/72937.got.cif
#   From: 2010.05.17/outbox.cif.g08.bks.cpg/sg15_37_cif.got.tgz:72937.got - 2010.06.03 18:47:42.
