data_PCOD9282768
_publ_section_title
;
Structure prediction by ZEFSAII (Michael W. Deem and Ramdas Pophale) SiO2 
 PCOD9282768
Probable space group: C 2/C
;
_chemical_formula_sum "Si O2"
_cell_formula_units_Z 52
_cell_length_a 8.503915
_cell_length_b 31.463967
_cell_length_c 15.187092
_cell_angle_alpha 90.000000
_cell_angle_beta 145.512571
_cell_angle_gamma 90.000000
_cell_volume 2300.892687
_symmetry_space_group_name_H-M "C 2/C"
_symmetry_group_IT_number 15
_symmetry_cell_setting 'monoclinic'
loop_
_space_group_symop_operation_xyz
x,y,z
-x,y,1/2-z
-x,-y,-z
x,-y,1/2+z
1/2+x,1/2+y,z
1/2-x,1/2+y,1/2-z
1/2-x,1/2-y,-z
1/2+x,1/2-y,1/2+z
loop_
_atom_site_type_symbol
_atom_site_label
_atom_site_fract_x
_atom_site_fract_y
_atom_site_fract_z
Si Si1 0.009461 0.228249 0.571084
Si Si2 0.844927 0.046264 0.772066
Si Si3 0.000000 0.857259 0.750000
Si Si4 0.964761 0.395132 0.840186
Si Si5 0.978436 0.140874 0.843967
Si Si6 0.873088 0.510576 0.093119
Si Si7 0.004031 0.217562 0.371051
O O1 0.750000 0.250000 0.500000
O O2 0.131951 0.184905 0.669715
O O3 0.905886 0.213413 0.426824
O O4 0.257355 0.262393 0.698729
O O5 0.841081 0.095162 0.804342
O O6 0.000000 0.046826 0.750000
O O7 0.042936 0.015731 0.923985
O O8 0.537074 0.027291 0.621150
O O9 0.203789 0.883195 0.780403
O O10 0.879215 0.824898 0.620424
O O11 0.028064 0.443547 0.894598
O O12 0.000000 0.394506 0.750000
O O13 0.205193 0.363249 0.979331
O O14 0.000000 0.143967 0.750000
O O15 0.000000 0.506696 0.250000
O O16 0.250000 0.250000 0.500000
#
# Coordination Sequence:
#
# PCOD9282768 Si02
#       7
#     8   8   4   8   8   8   8
#     4  12  24  43  71  93 126 179 226 268 339 401
#     4  10  21  39  64  93 134 170 214 273 328 400
#     4  12  24  42  70  94 138 172 226 276 342 388
#     4  10  23  43  67  98 132 177 223 276 326 405
#     4  10  22  40  65  95 131 168 222 277 330 395
#     4  10  21  40  65  95 131 169 222 266 330 396
#     4  12  25  44  61  96 133 165 215 283 331 396
#
# _framework density 22.599924999999999
#
# number of rings (size 3 to 8) (size 9 to 14) (size 15 to 20)
#    0.000    1.231    1.538    4.154    3.231    0.000 
#    0.000    1.538    0.000    0.000    0.000    0.000 
#    0.000    0.000    0.000    0.000    0.000    0.000 
#
# Total GULP energy -144912.558262 kJ/mol
# GULP energy per Si atom -5573.559933 kJ/mol
# Density = 2.254849 g / cm^3
# Si number density = 22.599925 Si / 1000 Ang^3
#
#
#
# Elastic Constant Matrix: (Units=GPa)
#
#
# Indices 1 2 3 4 5 6 
#
# 1 102.7734 44.3947 24.8078 0.0000 -9.7853 0.0000
# 2 44.3947 69.6278 6.6167 0.0000 13.8084 0.0000
# 3 24.8078 6.6167 73.0728 0.0000 -13.4398 0.0000
# 4 0.0000 0.0000 0.0000 26.8372 0.0000 3.6481
# 5 -9.7853 13.8084 -13.4398 0.0000 43.8603 0.0000
# 6 0.0000 0.0000 0.0000 3.6481 0.0000 19.1487
#
#
#
# Elastic Compliance Matrix: (Units=1/GPa)
#
#
# Indices 1 2 3 4 5 6 
#
# 1 0.015828 -0.010966 -0.003281 0.000000 0.005978 0.000000
# 2 -0.010966 0.023327 -0.000201 0.000000 -0.009852 0.000000
# 3 -0.003281 -0.000201 0.015572 0.000000 0.004103 0.000000
# 4 0.000000 0.000000 0.000000 0.038252 0.000000 -0.007288
# 5 0.005978 -0.009852 0.004103 0.000000 0.028492 0.000000
# 6 0.000000 0.000000 0.000000 -0.007288 0.000000 0.053611
#
#
# Mechanical properties :
#
#
# Convention : Reuss Voigt Hill
#
# Bulk Modulus (GPa) = 38.71448 44.12356 41.41902
# Shear Modulus (GPa) = 23.51948 29.27956 26.39952
#
# Velocity S-wave (km/s) = 3.22947 3.60329 3.42149
# Velocity P-wave (km/s) = 5.57436 6.07271 5.82886
#
# Compressibility (1/GPa) = 0.02583013
#
# Stress axis : x y z
#
# Youngs Moduli (GPa) = 63.17825 42.86894 64.21879
#
# Poissons Ratio (x) = 0.47010 0.21071
# Poissons Ratio (y) = 0.69280 0.01293
# Poissons Ratio (z) = 0.20729 0.00863
#
# Static dielectric constant tensor:
#      x y z
#    x 1.842650 0.000000 0.020270 
#    y 0.000000 1.843060 0.000000 
#    z 0.020270 0.000000 1.869890 
# 
# From -- ./inp_files/139903.got.cif
#   From: 2010.05.17/outbox.cif.g08.bks.cpg/sg15_70_cif.got.tgz:139903.got - 2010.06.03 18:47:42.
