data_PCOD9282251
_publ_section_title
;
Structure prediction by ZEFSAII (Michael W. Deem and Ramdas Pophale) SiO2 
 PCOD9282251
Probable space group: C 2/C
;
_chemical_formula_sum "Si O2"
_cell_formula_units_Z 48
_cell_length_a 15.859155
_cell_length_b 24.196606
_cell_length_c 6.311045
_cell_angle_alpha 90.000000
_cell_angle_beta 85.604208
_cell_angle_gamma 90.000000
_cell_volume 2414.662086
_symmetry_space_group_name_H-M "C 2/C"
_symmetry_group_IT_number 15
_symmetry_cell_setting 'monoclinic'
loop_
_space_group_symop_operation_xyz
x,y,z
-x,y,1/2-z
-x,-y,-z
x,-y,1/2+z
1/2+x,1/2+y,z
1/2-x,1/2+y,1/2-z
1/2-x,1/2-y,-z
1/2+x,1/2-y,1/2+z
loop_
_atom_site_type_symbol
_atom_site_label
_atom_site_fract_x
_atom_site_fract_y
_atom_site_fract_z
Si Si1 0.418070 0.738696 0.405648
Si Si2 0.445285 0.054173 0.949855
Si Si3 0.749842 0.977588 0.071652
Si Si4 0.619808 0.160118 0.317469
Si Si5 0.294600 0.357254 0.044497
Si Si6 0.800724 0.700523 0.596816
O O1 0.500000 0.728544 0.250000
O O2 0.426239 0.784641 0.588279
O O3 0.373333 0.682105 0.482692
O O4 0.352854 0.769854 0.267255
O O5 0.500000 0.080293 0.750000
O O6 0.351322 0.034494 0.904399
O O7 0.426904 0.103510 0.116894
O O8 0.500000 0.000000 0.000000
O O9 0.763274 0.002826 0.822107
O O10 0.805186 0.922253 0.038180
O O11 0.714605 0.156249 0.404208
O O12 0.637294 0.168371 0.069057
O O13 0.263124 0.341627 0.284307
O O14 0.750000 0.750000 0.500000
#
# Coordination Sequence:
#
# PCOD9282251 Si02
#       6
#     8   8   8   8   8   8
#     4  11  22  39  57  94 127 154 211 273 338 392
#     4  11  22  39  57  86 132 174 218 268 322 386
#     4  11  25  42  65  93 123 171 228 271 323 400
#     4  10  21  39  60  87 121 174 211 262 326 393
#     4  10  22  38  64  88 122 167 211 271 328 392
#     4  11  19  38  66  87 124 167 218 266 325 405
#
# _framework density 19.878558999999999
#
# number of rings (size 3 to 8) (size 9 to 14) (size 15 to 20)
#    0.000    1.333    5.000    1.500    4.667    0.667 
#    6.000    0.000    0.000    1.000    0.000    0.000 
#    0.000    0.000    0.000    0.000    0.000    0.000 
#
# Total GULP energy -133673.283594 kJ/mol
# GULP energy per Si atom -5569.720150 kJ/mol
# Density = 1.983331 g / cm^3
# Si number density = 19.878559 Si / 1000 Ang^3
#
#
#
# Elastic Constant Matrix: (Units=GPa)
#
#
# Indices 1 2 3 4 5 6 
#
# 1 30.8727 28.4868 4.1606 0.0000 -12.1205 0.0000
# 2 28.4868 136.7217 53.5495 0.0000 -19.3353 0.0000
# 3 4.1606 53.5495 107.0166 0.0000 -16.0845 0.0000
# 4 0.0000 0.0000 0.0000 36.4583 0.0000 -10.9619
# 5 -12.1205 -19.3353 -16.0845 0.0000 35.2135 0.0000
# 6 0.0000 0.0000 0.0000 -10.9619 0.0000 23.6489
#
#
#
# Elastic Compliance Matrix: (Units=1/GPa)
#
#
# Indices 1 2 3 4 5 6 
#
# 1 0.045601 -0.009654 0.004961 0.000000 0.012661 0.000000
# 2 -0.009654 0.011474 -0.005281 0.000000 0.000565 0.000000
# 3 0.004961 -0.005281 0.012471 0.000000 0.004504 0.000000
# 4 0.000000 0.000000 0.000000 0.031870 0.000000 0.014773
# 5 0.012661 0.000565 0.004504 0.000000 0.035124 0.000000
# 6 0.000000 0.000000 0.000000 0.014773 0.000000 0.049133
#
#
# Mechanical properties :
#
#
# Convention : Reuss Voigt Hill
#
# Bulk Modulus (GPa) = 20.16238 49.66722 34.91480
# Shear Modulus (GPa) = 22.50701 31.62508 27.06605
#
# Velocity S-wave (km/s) = 3.36851 3.99295 3.69395
# Velocity P-wave (km/s) = 5.02931 6.80425 5.98296
#
# Compressibility (1/GPa) = 0.04959733
#
# Stress axis : x y z
#
# Youngs Moduli (GPa) = 21.92952 87.15462 80.18596
#
# Poissons Ratio (x) = 0.84135 -0.39777
# Poissons Ratio (y) = 0.21170 0.42347
# Poissons Ratio (z) = -0.10878 0.46027
#
# Static dielectric constant tensor:
#      x y z
#    x 0.051690 0.000000 -0.625730 
#    y 0.000000 1.741400 0.000000 
#    z -0.625730 0.000000 1.541830 
# 
# From -- ./inp_files/10876.got.cif
#   From: 2010.05.17/outbox.cif.g08.bks.cpg/sg15_6_cif.got.tgz:10876.got - 2010.06.03 18:47:42.
