data_PCOD9282288
_publ_section_title
;
Structure prediction by ZEFSAII (Michael W. Deem and Ramdas Pophale) SiO2 
 PCOD9282288
Probable space group: C 2/C
;
_chemical_formula_sum "Si O2"
_cell_formula_units_Z 52
_cell_length_a 5.455695
_cell_length_b 22.186886
_cell_length_c 20.199826
_cell_angle_alpha 90.000000
_cell_angle_beta 75.332004
_cell_angle_gamma 90.000000
_cell_volume 2365.398634
_symmetry_space_group_name_H-M "C 2/C"
_symmetry_group_IT_number 15
_symmetry_cell_setting 'monoclinic'
loop_
_space_group_symop_operation_xyz
x,y,z
-x,y,1/2-z
-x,-y,-z
x,-y,1/2+z
1/2+x,1/2+y,z
1/2-x,1/2+y,1/2-z
1/2-x,1/2-y,-z
1/2+x,1/2-y,1/2+z
loop_
_atom_site_type_symbol
_atom_site_label
_atom_site_fract_x
_atom_site_fract_y
_atom_site_fract_z
Si Si1 0.500000 0.442975 0.750000
Si Si2 0.918036 0.997605 0.118306
Si Si3 0.974132 0.452163 0.061049
Si Si4 0.068437 0.320534 0.473763
Si Si5 0.131662 0.125168 0.438137
Si Si6 0.183370 0.768633 0.597423
Si Si7 0.606709 0.157741 0.315088
O O1 0.609846 0.479960 0.804276
O O2 0.705480 0.398107 0.705329
O O3 0.663611 0.967580 0.107771
O O4 0.175685 0.958286 0.099300
O O5 0.946637 0.056224 0.067554
O O6 0.053361 0.385969 0.030634
O O7 0.000000 0.500000 0.000000
O O8 0.011756 0.283486 0.410189
O O9 0.935479 0.274122 0.534500
O O10 0.322066 0.345399 0.492664
O O11 0.397125 0.134674 0.381375
O O12 0.946785 0.168482 0.411968
O O13 0.270509 0.780573 0.665764
O O14 0.500000 0.169077 0.250000
#
# Coordination Sequence:
#
# PCOD9282288 Si02
#       7
#     4   8   8   8   8   8   8
#     4  12  24  40  66  90 132 162 224 278 318 384
#     4  12  25  40  66  95 131 172 217 271 327 385
#     4  12  25  41  64  99 136 172 214 266 325 401
#     4  10  23  38  61  89 134 169 209 260 332 398
#     4  11  20  35  62  95 125 161 208 267 338 381
#     4  10  21  39  60  94 127 167 211 267 331 389
#     4  11  20  35  61  95 123 158 215 277 327 376
#
# _framework density 21.983608
#
# number of rings (size 3 to 8) (size 9 to 14) (size 15 to 20)
#    0.000    0.923    4.615    2.769    2.154    0.000 
#    0.000    0.000    1.692    1.846    0.000    0.000 
#    0.000    0.000    0.000    0.000    0.000    0.000 
#
# Total GULP energy -145042.630454 kJ/mol
# GULP energy per Si atom -5578.562710 kJ/mol
# Density = 2.193357 g / cm^3
# Si number density = 21.983608 Si / 1000 Ang^3
#
#
#
# Elastic Constant Matrix: (Units=GPa)
#
#
# Indices 1 2 3 4 5 6 
#
# 1 96.0618 22.7644 39.3302 0.0000 23.1974 0.0000
# 2 22.7644 106.5114 41.0479 0.0000 18.0365 0.0000
# 3 39.3302 41.0479 94.7563 0.0000 39.3048 0.0000
# 4 0.0000 0.0000 0.0000 36.6653 0.0000 8.4807
# 5 23.1974 18.0365 39.3048 0.0000 53.4363 0.0000
# 6 0.0000 0.0000 0.0000 8.4807 0.0000 22.2399
#
#
#
# Elastic Compliance Matrix: (Units=1/GPa)
#
#
# Indices 1 2 3 4 5 6 
#
# 1 0.012802 -0.000799 -0.003992 0.000000 -0.002351 0.000000
# 2 -0.000799 0.011324 -0.004507 0.000000 -0.000160 0.000000
# 3 -0.003992 -0.004507 0.018439 0.000000 -0.010308 0.000000
# 4 0.000000 0.000000 0.000000 0.029912 0.000000 -0.011406
# 5 -0.002351 -0.000160 -0.010308 0.000000 0.027371 0.000000
# 6 0.000000 0.000000 0.000000 -0.011406 0.000000 0.049314
#
#
# Mechanical properties :
#
#
# Convention : Reuss Voigt Hill
#
# Bulk Modulus (GPa) = 41.72460 55.95717 48.84089
# Shear Modulus (GPa) = 28.45010 35.41409 31.93210
#
# Velocity S-wave (km/s) = 3.60133 4.01800 3.81536
# Velocity P-wave (km/s) = 6.02610 6.85821 6.45558
#
# Compressibility (1/GPa) = 0.02396668
#
# Stress axis : x y z
#
# Youngs Moduli (GPa) = 78.11520 88.31112 54.23401
#
# Poissons Ratio (x) = 0.07060 0.21650
# Poissons Ratio (y) = 0.06245 0.24444
# Poissons Ratio (z) = 0.31183 0.39804
#
# Static dielectric constant tensor:
#      x y z
#    x 2.041820 0.000000 -0.042550 
#    y 0.000000 1.820310 0.000000 
#    z -0.042550 0.000000 1.849160 
# 
# From -- ./inp_files/227521.got.cif
#   From: 2010.05.17/outbox.cif.g08.bks.cpg/sg15_114_cif.got.tgz:227521.got - 2010.06.03 18:47:42.
