data_PCOD9282848
_publ_section_title
;
Structure prediction by ZEFSAII (Michael W. Deem and Ramdas Pophale) SiO2 
 PCOD9282848
Probable space group: C 2/C
;
_chemical_formula_sum "Si O2"
_cell_formula_units_Z 56
_cell_length_a 13.418773
_cell_length_b 21.159761
_cell_length_c 13.746622
_cell_angle_alpha 90.000000
_cell_angle_beta 138.711491
_cell_angle_gamma 90.000000
_cell_volume 2575.522948
_symmetry_space_group_name_H-M "C 2/C"
_symmetry_group_IT_number 15
_symmetry_cell_setting 'monoclinic'
loop_
_space_group_symop_operation_xyz
x,y,z
-x,y,1/2-z
-x,-y,-z
x,-y,1/2+z
1/2+x,1/2+y,z
1/2-x,1/2+y,1/2-z
1/2-x,1/2-y,-z
1/2+x,1/2-y,1/2+z
loop_
_atom_site_type_symbol
_atom_site_label
_atom_site_fract_x
_atom_site_fract_y
_atom_site_fract_z
Si Si1 0.352523 0.303619 0.615468
Si Si2 0.808075 0.601713 0.759075
Si Si3 0.793377 0.991247 0.485299
Si Si4 0.913168 0.331521 0.944404
Si Si5 0.747081 0.892387 0.834279
Si Si6 0.955946 0.816652 0.490458
Si Si7 0.843848 0.992201 0.744667
O O1 0.500000 0.264645 0.750000
O O2 0.250000 0.250000 0.500000
O O3 0.252060 0.333958 0.624896
O O4 0.426574 0.342251 0.580557
O O5 0.789388 0.559428 0.646392
O O6 0.701919 0.663023 0.672461
O O7 0.729475 0.559075 0.783178
O O8 0.972828 0.623280 0.913577
O O9 0.728896 0.061612 0.413710
O O10 0.792250 0.975511 0.598260
O O11 0.975902 0.994542 0.603120
O O12 0.886269 0.351120 0.812101
O O13 0.968990 0.258944 0.995004
O O14 0.777265 0.944059 0.772904
O O15 0.899155 0.850131 0.949810
#
# Coordination Sequence:
#
# PCOD9282848 Si02
#       7
#     8   8   8   8   8   8   8
#     4  10  22  35  52  85 123 164 201 236 292 366
#     4  11  22  40  61  93 122 158 206 253 308 371
#     4  10  21  39  67  89 115 160 212 258 311 354
#     4  11  25  36  58  91 132 161 195 250 311 369
#     4  11  20  40  62  90 120 162 202 251 308 368
#     4  11  21  38  61  84 126 165 199 242 301 374
#     4  10  21  39  65  91 113 159 213 263 300 362
#
# _framework density 21.743157
#
# number of rings (size 3 to 8) (size 9 to 14) (size 15 to 20)
#    0.000    1.429    4.286    1.714    8.000    2.286 
#    0.000    2.143    0.000    5.143    0.000    0.000 
#    0.000    0.000    0.000    0.000    0.000    0.000 
#
# Total GULP energy -156059.834278 kJ/mol
# GULP energy per Si atom -5573.565510 kJ/mol
# Density = 2.169367 g / cm^3
# Si number density = 21.743157 Si / 1000 Ang^3
#
#
#
# Elastic Constant Matrix: (Units=GPa)
#
#
# Indices 1 2 3 4 5 6 
#
# 1 13.8142 5.5192 14.8719 0.0000 4.4281 0.0000
# 2 5.5192 83.4069 23.0826 0.0000 6.8309 0.0000
# 3 14.8719 23.0826 131.0889 0.0000 22.0875 0.0000
# 4 0.0000 0.0000 0.0000 45.0197 0.0000 -3.8214
# 5 4.4281 6.8309 22.0875 0.0000 34.0287 0.0000
# 6 0.0000 0.0000 0.0000 -3.8214 0.0000 12.1799
#
#
#
# Elastic Compliance Matrix: (Units=1/GPa)
#
#
# Indices 1 2 3 4 5 6 
#
# 1 0.083950 -0.002882 -0.008167 0.000000 -0.005045 0.000000
# 2 -0.002882 0.012748 -0.001740 0.000000 -0.001055 0.000000
# 3 -0.008167 -0.001740 0.009682 0.000000 -0.004873 0.000000
# 4 0.000000 0.000000 0.000000 0.022820 0.000000 0.007160
# 5 -0.005045 -0.001055 -0.004873 0.000000 0.033418 0.000000
# 6 0.000000 0.000000 0.000000 0.007160 0.000000 0.084349
#
#
# Mechanical properties :
#
#
# Convention : Reuss Voigt Hill
#
# Bulk Modulus (GPa) = 12.37575 35.02862 23.70218
# Shear Modulus (GPa) = 16.69566 30.56807 23.63187
#
# Velocity S-wave (km/s) = 2.77403 3.75356 3.30034
# Velocity P-wave (km/s) = 3.99556 5.91023 5.04457
#
# Compressibility (1/GPa) = 0.08080320
#
# Stress axis : x y z
#
# Youngs Moduli (GPa) = 11.91186 78.44336 103.28121
#
# Poissons Ratio (x) = 0.22607 0.84345
# Poissons Ratio (y) = 0.03433 0.17972
# Poissons Ratio (z) = 0.09728 0.13650
#
# Static dielectric constant tensor:
#      x y z
#    x 1.846460 0.000000 -0.053370 
#    y 0.000000 1.850460 0.000000 
#    z -0.053370 0.000000 1.959310 
# 
# From -- ./inp_files/156212.got.cif
#   From: 2010.05.17/outbox.cif.g08.bks.cpg/sg15_79_cif.got.tgz:156212.got - 2010.06.03 18:47:42.
