data_PCOD9282415
_publ_section_title
;
Structure prediction by ZEFSAII (Michael W. Deem and Ramdas Pophale) SiO2 
 PCOD9282415
Probable space group: C 2/C
;
_chemical_formula_sum "Si O2"
_cell_formula_units_Z 56
_cell_length_a 17.890460
_cell_length_b 9.776881
_cell_length_c 24.056419
_cell_angle_alpha 90.000000
_cell_angle_beta 39.491933
_cell_angle_gamma 90.000000
_cell_volume 2676.018759
_symmetry_space_group_name_H-M "C 2/C"
_symmetry_group_IT_number 15
_symmetry_cell_setting 'monoclinic'
loop_
_space_group_symop_operation_xyz
x,y,z
-x,y,1/2-z
-x,-y,-z
x,-y,1/2+z
1/2+x,1/2+y,z
1/2-x,1/2+y,1/2-z
1/2-x,1/2-y,-z
1/2+x,1/2-y,1/2+z
loop_
_atom_site_type_symbol
_atom_site_label
_atom_site_fract_x
_atom_site_fract_y
_atom_site_fract_z
Si Si1 0.244243 0.018083 0.312357
Si Si2 0.069793 0.986153 0.814616
Si Si3 0.659835 0.831755 0.012246
Si Si4 0.952371 0.713349 0.215671
Si Si5 0.813012 0.397420 0.962029
Si Si6 0.551787 0.193119 0.780909
Si Si7 0.145241 0.054680 0.976539
O O1 0.185874 0.013772 0.285910
O O2 0.330821 0.891080 0.274596
O O3 0.143251 0.010396 0.417071
O O4 0.326516 0.148349 0.275434
O O5 0.053483 0.126400 0.791832
O O6 0.071217 0.855053 0.774219
O O7 0.960209 0.973718 0.920346
O O8 0.540833 0.839296 0.116720
O O9 0.701773 0.988252 0.980727
O O10 0.750000 0.750000 0.000000
O O11 0.649867 0.720742 0.969124
O O12 0.000000 0.687003 0.250000
O O13 0.050842 0.641613 0.121203
O O14 0.758566 0.482048 0.941070
O O15 0.750000 0.250000 0.000000
O O16 0.500000 0.158238 0.750000
#
# Coordination Sequence:
#
# PCOD9282415 Si02
#       7
#     8   8   8   8   8   8   8
#     4  12  23  41  64  90 126 163 207 250 312 369
#     4  11  25  41  60  92 129 164 197 257 314 369
#     4   9  19  34  58  91 119 153 202 255 295 353
#     4  12  23  40  65  94 122 159 210 257 309 359
#     4  11  19  36  62  92 121 156 203 262 303 354
#     4  11  21  39  64  89 119 160 211 250 298 364
#     4  10  21  39  62  87 120 167 210 242 302 376
#
# _framework density 20.92661
#
# number of rings (size 3 to 8) (size 9 to 14) (size 15 to 20)
#    0.000    1.143    4.286    3.857    0.000    0.000 
#    2.571    0.000    0.000    0.857    0.000    0.000 
#    0.000    0.000    0.000    0.000    0.000    0.000 
#
# Total GULP energy -156300.929089 kJ/mol
# GULP energy per Si atom -5582.176039 kJ/mol
# Density = 2.087898 g / cm^3
# Si number density = 20.926610 Si / 1000 Ang^3
#
#
#
# Elastic Constant Matrix: (Units=GPa)
#
#
# Indices 1 2 3 4 5 6 
#
# 1 63.9263 4.2955 -2.4283 0.0000 -12.6590 0.0000
# 2 4.2955 178.7452 17.1709 0.0000 -6.3771 0.0000
# 3 -2.4283 17.1709 53.0195 0.0000 -13.8346 0.0000
# 4 0.0000 0.0000 0.0000 2.8943 0.0000 13.4337
# 5 -12.6590 -6.3771 -13.8346 0.0000 22.0292 0.0000
# 6 0.0000 0.0000 0.0000 13.4337 0.0000 2.2499
#
#
#
# Elastic Compliance Matrix: (Units=1/GPa)
#
#
# Indices 1 2 3 4 5 6 
#
# 1 0.018470 -0.000396 0.004442 0.000000 0.013288 0.000000
# 2 -0.000396 0.005789 -0.001812 0.000000 0.000310 0.000000
# 3 0.004442 -0.001812 0.024136 0.000000 0.017185 0.000000
# 4 0.000000 0.000000 0.000000 -0.012934 0.000000 0.077226
# 5 0.013288 0.000310 0.017185 0.000000 0.063913 0.000000
# 6 0.000000 0.000000 0.000000 0.077226 0.000000 -0.016638
#
#
# Mechanical properties :
#
#
# Convention : Reuss Voigt Hill
#
# Bulk Modulus (GPa) = 18.91768 37.08524 28.00146
# Shear Modulus (GPa) = 52.14359 23.87821 38.01090
#
# Velocity S-wave (km/s) = 4.99714 3.38160 4.26654
# Velocity P-wave (km/s) = 6.50807 5.74517 6.13848
#
# Compressibility (1/GPa) = 0.05286061
#
# Stress axis : x y z
#
# Youngs Moduli (GPa) = 54.14252 172.73472 41.43272
#
# Poissons Ratio (x) = 0.06848 -0.18403
# Poissons Ratio (y) = 0.02146 0.07508
# Poissons Ratio (z) = -0.24048 0.31302
#
# Static dielectric constant tensor:
#      x y z
#    x 1.746310 0.000000 -0.013050 
#    y 0.000000 1.786360 0.000000 
#    z -0.013050 0.000000 1.795970 
# 
# From -- ./inp_files/298507.got.cif
#   From: 2010.05.17/outbox.cif.g08.bks.cpg/sg15_150_cif.got.tgz:298507.got - 2010.06.03 18:47:42.
