data_PCOD9282646
_publ_section_title
;
Structure prediction by ZEFSAII (Michael W. Deem and Ramdas Pophale) SiO2 
 PCOD9282646
Probable space group: C 2/C
;
_chemical_formula_sum "Si O2"
_cell_formula_units_Z 56
_cell_length_a 16.884209
_cell_length_b 14.689071
_cell_length_c 11.419706
_cell_angle_alpha 90.000000
_cell_angle_beta 65.673395
_cell_angle_gamma 90.000000
_cell_volume 2580.770868
_symmetry_space_group_name_H-M "C 2/C"
_symmetry_group_IT_number 15
_symmetry_cell_setting 'monoclinic'
loop_
_space_group_symop_operation_xyz
x,y,z
-x,y,1/2-z
-x,-y,-z
x,-y,1/2+z
1/2+x,1/2+y,z
1/2-x,1/2+y,1/2-z
1/2-x,1/2-y,-z
1/2+x,1/2-y,1/2+z
loop_
_atom_site_type_symbol
_atom_site_label
_atom_site_fract_x
_atom_site_fract_y
_atom_site_fract_z
Si Si1 0.013086 0.059179 0.611120
Si Si2 0.925134 0.424072 0.152092
Si Si3 0.702954 0.617825 0.440336
Si Si4 0.769189 0.576433 0.915838
Si Si5 0.198505 0.309838 0.404192
Si Si6 0.610507 0.103634 0.453340
Si Si7 0.358446 0.310916 0.137497
O O1 0.111651 0.093467 0.554049
O O2 0.000000 0.017458 0.750000
O O3 0.945362 0.141015 0.630042
O O4 0.000000 0.000000 0.500000
O O5 0.855401 0.394459 0.292181
O O6 0.886302 0.368896 0.066513
O O7 0.913077 0.530957 0.132818
O O8 0.026489 0.401171 0.090981
O O9 0.740381 0.520976 0.380389
O O10 0.774341 0.663473 0.481161
O O11 0.680798 0.705540 0.376193
O O12 0.686955 0.642753 0.948827
O O13 0.803819 0.571474 0.027476
O O14 0.284123 0.333197 0.277882
O O15 0.626129 0.204617 0.395353
#
# Coordination Sequence:
#
# PCOD9282646 Si02
#       7
#     8   8   8   8   8   8   8
#     4  12  25  46  69 102 138 179 226 284 337 402
#     4  10  22  39  61  89 128 165 214 274 327 395
#     4  11  21  39  67  95 129 170 224 270 338 393
#     4  11  22  40  64  90 129 170 216 270 332 400
#     4  10  21  39  63  94 126 169 217 278 326 400
#     4  11  22  40  61  92 126 170 219 266 335 394
#     4  11  23  41  64  94 132 171 219 276 334 399
#
# _framework density 21.698944000000001
#
# number of rings (size 3 to 8) (size 9 to 14) (size 15 to 20)
#    0.000    1.143    4.286    2.571    0.000    0.000 
#    2.571    2.857    0.000    0.000    0.000    0.000 
#    0.000    0.000    0.000    0.000    0.000    0.000 
#
# Total GULP energy -155949.866409 kJ/mol
# GULP energy per Si atom -5569.638086 kJ/mol
# Density = 2.164956 g / cm^3
# Si number density = 21.698944 Si / 1000 Ang^3
#
#
#
# Elastic Constant Matrix: (Units=GPa)
#
#
# Indices 1 2 3 4 5 6 
#
# 1 90.8486 29.5404 12.6654 0.0000 -3.8547 0.0000
# 2 29.5404 115.3894 -6.6239 0.0000 7.2584 0.0000
# 3 12.6654 -6.6239 32.2879 0.0000 -2.8211 0.0000
# 4 0.0000 0.0000 0.0000 8.5439 0.0000 -10.5758
# 5 -3.8547 7.2584 -2.8211 0.0000 31.4765 0.0000
# 6 0.0000 0.0000 0.0000 -10.5758 0.0000 13.8895
#
#
#
# Elastic Compliance Matrix: (Units=1/GPa)
#
#
# Indices 1 2 3 4 5 6 
#
# 1 0.013136 -0.003818 -0.005764 0.000000 0.001972 0.000000
# 2 -0.003818 0.009990 0.003331 0.000000 -0.002473 0.000000
# 3 -0.005764 0.003331 0.034054 0.000000 0.001578 0.000000
# 4 0.000000 0.000000 0.000000 2.035856 0.000000 1.550149
# 5 0.001972 -0.002473 0.001578 0.000000 0.032723 0.000000
# 6 0.000000 0.000000 0.000000 1.550149 0.000000 1.252316
#
#
# Mechanical properties :
#
#
# Convention : Reuss Voigt Hill
#
# Bulk Modulus (GPa) = 22.38177 34.40995 28.39586
# Shear Modulus (GPa) = 1.46823 24.31157 12.88990
#
# Velocity S-wave (km/s) = 0.82347 3.35087 2.43992
# Velocity P-wave (km/s) = 3.35279 5.55549 4.58828
#
# Compressibility (1/GPa) = 0.04467921
#
# Stress axis : x y z
#
# Youngs Moduli (GPa) = 76.12704 100.09546 29.36553
#
# Poissons Ratio (x) = 0.38215 0.16925
# Poissons Ratio (y) = 0.29064 -0.09782
# Poissons Ratio (z) = 0.43877 -0.33343
#
# Static dielectric constant tensor:
#      x y z
#    x 1.830840 0.000000 0.089920 
#    y 0.000000 1.838930 0.000000 
#    z 0.089920 0.000000 1.910980 
# 
# From -- ./inp_files/105297.got.cif
#   From: 2010.05.17/outbox.cif.g08.bks.cpg/sg15_53_cif.got.tgz:105297.got - 2010.06.03 18:47:42.
