data_PCOD9282621
_publ_section_title
;
Structure prediction by ZEFSAII (Michael W. Deem and Ramdas Pophale) SiO2 
 PCOD9282621
Probable space group: C 2/C
;
_chemical_formula_sum "Si O2"
_cell_formula_units_Z 40
_cell_length_a 8.268452
_cell_length_b 25.266342
_cell_length_c 8.710697
_cell_angle_alpha 90.000000
_cell_angle_beta 94.535891
_cell_angle_gamma 90.000000
_cell_volume 1814.082935
_symmetry_space_group_name_H-M "C 2/C"
_symmetry_group_IT_number 15
_symmetry_cell_setting 'monoclinic'
loop_
_space_group_symop_operation_xyz
x,y,z
-x,y,1/2-z
-x,-y,-z
x,-y,1/2+z
1/2+x,1/2+y,z
1/2-x,1/2+y,1/2-z
1/2-x,1/2-y,-z
1/2+x,1/2-y,1/2+z
loop_
_atom_site_type_symbol
_atom_site_label
_atom_site_fract_x
_atom_site_fract_y
_atom_site_fract_z
Si Si1 0.318865 0.057133 0.417723
Si Si2 0.501573 0.267136 0.565743
Si Si3 0.288017 0.051760 0.065250
Si Si4 0.164471 0.847951 0.365186
Si Si5 0.184864 0.670431 0.933344
O O1 0.248678 0.058573 0.241043
O O2 0.515199 0.052783 0.427179
O O3 0.295958 0.112111 0.500738
O O4 0.246335 0.006506 0.499555
O O5 0.500000 0.271510 0.750000
O O6 0.637107 0.299584 0.482387
O O7 0.340863 0.297753 0.500763
O O8 0.466137 0.205812 0.521055
O O9 0.212035 0.098785 0.958881
O O10 0.299797 0.834011 0.248834
O O11 0.000000 0.855047 0.250000
#
# Coordination Sequence:
#
# PCOD9282621 Si02
#       5
#     8   8   8   8   8
#     4  10  21  39  63  93 120 160 203 253 313 359
#     4  10  22  40  59  86 123 165 204 254 302 366
#     4  10  21  39  64  91 124 157 205 257 303 370
#     4  10  22  41  62  90 126 165 207 251 309 367
#     4  10  22  40  59  89 125 159 206 255 304 368
#
# _framework density 22.049707999999999
#
# number of rings (size 3 to 8) (size 9 to 14) (size 15 to 20)
#    0.000    2.000    0.000    2.400    2.800    2.400 
#   18.000   10.000    0.000    0.000    0.000    0.000 
#    0.000    0.000    0.000    0.000    0.000    0.000 
#
# Total GULP energy -111708.431858 kJ/mol
# GULP energy per Si atom -5585.421593 kJ/mol
# Density = 2.199952 g / cm^3
# Si number density = 22.049708 Si / 1000 Ang^3
#
#
#
# Elastic Constant Matrix: (Units=GPa)
#
#
# Indices 1 2 3 4 5 6 
#
# 1 36.4156 47.5625 27.3270 0.0000 -2.6675 0.0000
# 2 47.5625 211.0663 93.7263 0.0000 -11.0748 0.0000
# 3 27.3270 93.7263 154.3561 0.0000 -5.3308 0.0000
# 4 0.0000 0.0000 0.0000 42.9768 0.0000 3.1718
# 5 -2.6675 -11.0748 -5.3308 0.0000 36.0721 0.0000
# 6 0.0000 0.0000 0.0000 3.1718 0.0000 32.5043
#
#
#
# Elastic Compliance Matrix: (Units=1/GPa)
#
#
# Indices 1 2 3 4 5 6 
#
# 1 0.039439 -0.007915 -0.002171 0.000000 0.000166 0.000000
# 2 -0.007915 0.008148 -0.003498 0.000000 0.001399 0.000000
# 3 -0.002171 -0.003498 0.008990 0.000000 0.000094 0.000000
# 4 0.000000 0.000000 0.000000 0.023437 0.000000 -0.002287
# 5 0.000166 0.001399 0.000094 0.000000 0.028178 0.000000
# 6 0.000000 0.000000 0.000000 -0.002287 0.000000 0.030988
#
#
# Mechanical properties :
#
#
# Convention : Reuss Voigt Hill
#
# Bulk Modulus (GPa) = 34.00132 82.11882 58.06007
# Shear Modulus (GPa) = 28.38458 37.85877 33.12167
#
# Velocity S-wave (km/s) = 3.59179 4.14813 3.87995
# Velocity P-wave (km/s) = 5.71446 7.76313 6.81620
#
# Compressibility (1/GPa) = 0.02941062
#
# Stress axis : x y z
#
# Youngs Moduli (GPa) = 25.35535 122.72653 111.23309
#
# Poissons Ratio (x) = 0.97136 0.24145
# Poissons Ratio (y) = 0.20068 0.38910
# Poissons Ratio (z) = 0.05504 0.42931
#
# Static dielectric constant tensor:
#      x y z
#    x 1.755460 0.000000 0.058240 
#    y 0.000000 1.795960 0.000000 
#    z 0.058240 0.000000 1.761460 
# 
# From -- ./inp_files/23635.got.cif
#   From: 2010.05.17/outbox.cif.g08.bks.cpg/sg15_12_cif.got.tgz:23635.got - 2010.06.03 18:47:42.
