data_PCOD9282529
_publ_section_title
;
Structure prediction by ZEFSAII (Michael W. Deem and Ramdas Pophale) SiO2 
 PCOD9282529
Probable space group: C 2/C
;
_chemical_formula_sum "Si O2"
_cell_formula_units_Z 48
_cell_length_a 22.819994
_cell_length_b 9.286422
_cell_length_c 11.384992
_cell_angle_alpha 90.000000
_cell_angle_beta 117.030255
_cell_angle_gamma 90.000000
_cell_volume 2149.119822
_symmetry_space_group_name_H-M "C 2/C"
_symmetry_group_IT_number 15
_symmetry_cell_setting 'monoclinic'
loop_
_space_group_symop_operation_xyz
x,y,z
-x,y,1/2-z
-x,-y,-z
x,-y,1/2+z
1/2+x,1/2+y,z
1/2-x,1/2+y,1/2-z
1/2-x,1/2-y,-z
1/2+x,1/2-y,1/2+z
loop_
_atom_site_type_symbol
_atom_site_label
_atom_site_fract_x
_atom_site_fract_y
_atom_site_fract_z
Si Si1 0.119061 0.185451 0.283007
Si Si2 0.944138 0.108569 0.791276
Si Si3 0.390411 0.740009 0.949174
Si Si4 0.358057 0.943923 0.367388
Si Si5 0.674637 0.275409 0.469899
Si Si6 0.706505 0.504487 0.201422
O O1 0.114417 0.223841 0.415487
O O2 0.114335 0.328532 0.200179
O O3 0.064985 0.062843 0.211989
O O4 0.184449 0.097030 0.296517
O O5 0.948459 0.163860 0.928265
O O6 0.878136 0.178240 0.674357
O O7 0.000000 0.146695 0.750000
O O8 0.326293 0.651954 0.844004
O O9 0.393762 0.905590 0.915428
O O10 0.351015 0.864676 0.485750
O O11 0.283761 0.985149 0.263167
O O12 0.750000 0.250000 0.500000
O O13 0.677752 0.402068 0.568776
#
# Coordination Sequence:
#
# PCOD9282529 Si02
#       6
#     8   8   8   8   8   8
#     4  10  23  44  61  96 133 179 234 277 338 409
#     4  11  25  48  72  96 131 183 240 280 335 420
#     4  11  23  41  66  94 134 179 227 281 348 401
#     4  11  24  37  64 100 142 174 219 290 349 403
#     4  11  22  41  68 102 141 177 224 282 340 406
#     4  10  21  39  62  99 136 183 228 271 338 411
#
# _framework density 22.334726
#
# number of rings (size 3 to 8) (size 9 to 14) (size 15 to 20)
#    0.000    1.333    1.667    5.000    4.667    2.000 
#    0.000    1.667    0.000    0.000    0.000    0.000 
#    0.000    0.000    0.000    0.000    0.000    0.000 
#
# Total GULP energy -134101.432749 kJ/mol
# GULP energy per Si atom -5587.559698 kJ/mol
# Density = 2.228389 g / cm^3
# Si number density = 22.334726 Si / 1000 Ang^3
#
#
#
# Elastic Constant Matrix: (Units=GPa)
#
#
# Indices 1 2 3 4 5 6 
#
# 1 102.7736 37.3044 56.4304 0.0000 -36.8891 0.0000
# 2 37.3044 164.5788 58.7747 0.0000 -22.0846 0.0000
# 3 56.4304 58.7747 106.6560 0.0000 -33.8463 0.0000
# 4 0.0000 0.0000 0.0000 13.4299 0.0000 -27.9923
# 5 -36.8891 -22.0846 -33.8463 0.0000 40.9444 0.0000
# 6 0.0000 0.0000 0.0000 -27.9923 0.0000 3.9689
#
#
#
# Elastic Compliance Matrix: (Units=1/GPa)
#
#
# Indices 1 2 3 4 5 6 
#
# 1 0.016430 -0.000505 -0.005156 0.000000 0.010268 0.000000
# 2 -0.000505 0.007603 -0.003749 0.000000 0.000547 0.000000
# 3 -0.005156 -0.003749 0.016341 0.000000 0.006840 0.000000
# 4 0.000000 0.000000 0.000000 -0.005435 0.000000 -0.038332
# 5 0.010268 0.000547 0.006840 0.000000 0.039624 0.000000
# 6 0.000000 0.000000 0.000000 -0.038332 0.000000 -0.018390
#
#
# Mechanical properties :
#
#
# Convention : Reuss Voigt Hill
#
# Bulk Modulus (GPa) = 46.39656 75.44751 60.92204
# Shear Modulus (GPa) = 60.84435 26.43523 43.63979
#
# Velocity S-wave (km/s) = 5.22505 3.44407 4.42509
# Velocity P-wave (km/s) = 7.56439 7.04764 7.31058
#
# Compressibility (1/GPa) = 0.02155332
#
# Stress axis : x y z
#
# Youngs Moduli (GPa) = 60.86362 131.53076 61.19705
#
# Poissons Ratio (x) = 0.06641 0.31555
# Poissons Ratio (y) = 0.03073 0.22943
# Poissons Ratio (z) = 0.31383 0.49311
#
# Static dielectric constant tensor:
#      x y z
#    x 1.844140 0.000000 -0.030030 
#    y 0.000000 1.815240 0.000000 
#    z -0.030030 0.000000 1.837460 
# 
# From -- ./inp_files/116458.got.cif
#   From: 2010.05.17/outbox.cif.g08.bks.cpg/sg15_59_cif.got.tgz:116458.got - 2010.06.03 18:47:42.
