data_PCOD9282381
_publ_section_title
;
Structure prediction by ZEFSAII (Michael W. Deem and Ramdas Pophale) SiO2 
 PCOD9282381
Probable space group: C 2/C
;
_chemical_formula_sum "Si O2"
_cell_formula_units_Z 44
_cell_length_a 13.800170
_cell_length_b 19.871367
_cell_length_c 9.364222
_cell_angle_alpha 90.000000
_cell_angle_beta 45.475361
_cell_angle_gamma 90.000000
_cell_volume 1830.806003
_symmetry_space_group_name_H-M "C 2/C"
_symmetry_group_IT_number 15
_symmetry_cell_setting 'monoclinic'
loop_
_space_group_symop_operation_xyz
x,y,z
-x,y,1/2-z
-x,-y,-z
x,-y,1/2+z
1/2+x,1/2+y,z
1/2-x,1/2+y,1/2-z
1/2-x,1/2-y,-z
1/2+x,1/2-y,1/2+z
loop_
_atom_site_type_symbol
_atom_site_label
_atom_site_fract_x
_atom_site_fract_y
_atom_site_fract_z
Si Si1 0.087205 0.833441 0.451819
Si Si2 0.285373 0.561209 0.993662
Si Si3 0.500000 0.229704 0.750000
Si Si4 0.345966 0.111131 0.787822
Si Si5 0.000000 0.505221 0.250000
Si Si6 0.657650 0.563102 0.238768
Si Si7 0.000000 0.822914 0.250000
O O1 0.226419 0.875527 0.298815
O O2 0.033816 0.792656 0.368494
O O3 0.100722 0.779346 0.563160
O O4 0.971481 0.888358 0.609147
O O5 0.287017 0.545807 0.161612
O O6 0.131911 0.551824 0.095933
O O7 0.368882 0.506309 0.816236
O O8 0.366412 0.630531 0.904461
O O9 0.428801 0.179583 0.714083
O O10 0.448747 0.047909 0.680336
O O11 0.266046 0.098793 0.021526
#
# Coordination Sequence:
#
# PCOD9282381 Si02
#       7
#     8   8   4   8   4   8   4
#     4  11  22  40  63  89 118 159 204 260 287 363
#     4  10  23  38  59  88 128 167 192 242 292 360
#     4  11  22  39  72  84 114 155 210 251 314 342
#     4  10  21  39  61  94 114 155 202 259 291 365
#     4   9  22  38  58  90 128 156 198 235 304 352
#     4  10  22  37  61  89 125 156 209 234 297 355
#     4  10  26  39  60  90 126 157 208 238 304 352
#
# _framework density 24.033131000000001
#
# number of rings (size 3 to 8) (size 9 to 14) (size 15 to 20)
#    0.000    1.818    1.818    0.545   10.182    4.364 
#    3.273    0.909    0.000    0.000    0.000    0.000 
#    0.000    0.000    0.000    0.000    0.000    0.000 
#
# Total GULP energy -122807.456538 kJ/mol
# GULP energy per Si atom -5582.157115 kJ/mol
# Density = 2.397843 g / cm^3
# Si number density = 24.033131 Si / 1000 Ang^3
#
#
#
# Elastic Constant Matrix: (Units=GPa)
#
#
# Indices 1 2 3 4 5 6 
#
# 1 140.8696 12.5949 38.0007 0.0000 -18.3260 0.0000
# 2 12.5949 56.4178 10.3135 0.0000 -7.4987 0.0000
# 3 38.0007 10.3135 50.2520 0.0000 7.5490 0.0000
# 4 0.0000 0.0000 0.0000 33.0926 0.0000 -14.0372
# 5 -18.3260 -7.4987 7.5490 0.0000 48.7322 0.0000
# 6 0.0000 0.0000 0.0000 -14.0372 0.0000 42.5679
#
#
#
# Elastic Compliance Matrix: (Units=1/GPa)
#
#
# Indices 1 2 3 4 5 6 
#
# 1 0.010000 -0.000043 -0.008311 0.000000 0.005041 0.000000
# 2 -0.000043 0.019018 -0.004410 0.000000 0.003593 0.000000
# 3 -0.008311 -0.004410 0.028320 0.000000 -0.008191 0.000000
# 4 0.000000 0.000000 0.000000 0.035133 0.000000 0.011585
# 5 0.005041 0.003593 -0.008191 0.000000 0.024238 0.000000
# 6 0.000000 0.000000 0.000000 0.011585 0.000000 0.027312
#
#
# Mechanical properties :
#
#
# Convention : Reuss Voigt Hill
#
# Bulk Modulus (GPa) = 31.43663 41.03970 36.23817
# Shear Modulus (GPa) = 27.75408 37.32055 32.53731
#
# Velocity S-wave (km/s) = 3.40196 3.94493 3.68347
# Velocity P-wave (km/s) = 5.34229 6.15332 5.76209
#
# Compressibility (1/GPa) = 0.03181002
#
# Stress axis : x y z
#
# Youngs Moduli (GPa) = 99.99617 52.58066 35.31072
#
# Poissons Ratio (x) = 0.00227 0.29346
# Poissons Ratio (y) = 0.00432 0.15573
# Poissons Ratio (z) = 0.83105 0.23190
#
# Static dielectric constant tensor:
#      x y z
#    x 1.957620 0.000000 0.028830 
#    y 0.000000 1.894560 0.000000 
#    z 0.028830 0.000000 1.969130 
# 
# From -- ./inp_files/32477.got.cif
#   From: 2010.05.17/outbox.cif.g08.bks.cpg/sg15_17_cif.got.tgz:32477.got - 2010.06.03 18:47:42.
