data_PCOD9282682
_publ_section_title
;
Structure prediction by ZEFSAII (Michael W. Deem and Ramdas Pophale) SiO2 
 PCOD9282682
Probable space group: C 2/C
;
_chemical_formula_sum "Si O2"
_cell_formula_units_Z 44
_cell_length_a 14.225185
_cell_length_b 16.257899
_cell_length_c 10.208332
_cell_angle_alpha 90.000000
_cell_angle_beta 72.591263
_cell_angle_gamma 90.000000
_cell_volume 2252.755911
_symmetry_space_group_name_H-M "C 2/C"
_symmetry_group_IT_number 15
_symmetry_cell_setting 'monoclinic'
loop_
_space_group_symop_operation_xyz
x,y,z
-x,y,1/2-z
-x,-y,-z
x,-y,1/2+z
1/2+x,1/2+y,z
1/2-x,1/2+y,1/2-z
1/2-x,1/2-y,-z
1/2+x,1/2-y,1/2+z
loop_
_atom_site_type_symbol
_atom_site_label
_atom_site_fract_x
_atom_site_fract_y
_atom_site_fract_z
Si Si1 0.323327 0.807347 0.385232
Si Si2 0.500000 0.689372 0.250000
Si Si3 0.674295 0.590955 0.818344
Si Si4 0.718759 0.532231 0.526531
Si Si5 0.473312 0.404176 0.492015
Si Si6 0.430470 0.977191 0.407178
O O1 0.250000 0.750000 0.500000
O O2 0.407077 0.747144 0.304007
O O3 0.259459 0.841755 0.290197
O O4 0.379444 0.885720 0.430061
O O5 0.515386 0.636407 0.372725
O O6 0.697802 0.528456 0.690667
O O7 0.688480 0.547059 0.953614
O O8 0.563286 0.624790 0.861746
O O9 0.638449 0.599880 0.513426
O O10 0.835212 0.538269 0.449664
O O11 0.500000 0.500000 0.500000
O O12 0.500000 0.981825 0.250000
O O13 0.500000 0.000000 0.500000
#
# Coordination Sequence:
#
# PCOD9282682 Si02
#       6
#     8   4   8   8   8   8
#     4  11  23  41  68  96 133 184 226 272 345 412
#     4  12  24  42  66  98 134 180 224 282 342 420
#     4  10  21  39  63  99 131 174 215 277 336 403
#     4  10  22  36  65  96 130 165 224 277 320 394
#     4  10  23  36  65  96 132 164 223 274 343 393
#     4  11  23  42  69 100 134 179 230 276 333 410
#
# _framework density 19.531631999999998
#
# number of rings (size 3 to 8) (size 9 to 14) (size 15 to 20)
#    0.000    1.455    2.727    2.727   10.182    1.455 
#    0.000    0.909    4.000    0.000    0.000    0.000 
#    0.000    0.000    0.000    0.000    0.000    0.000 
#
# Total GULP energy -122470.313366 kJ/mol
# GULP energy per Si atom -5566.832426 kJ/mol
# Density = 1.948718 g / cm^3
# Si number density = 19.531632 Si / 1000 Ang^3
#
#
#
# Elastic Constant Matrix: (Units=GPa)
#
#
# Indices 1 2 3 4 5 6 
#
# 1 198.2845 48.2011 70.7863 0.0000 -23.0364 0.0000
# 2 48.2011 63.1417 55.5457 0.0000 -1.8789 0.0000
# 3 70.7863 55.5457 124.6135 0.0000 -15.8116 0.0000
# 4 0.0000 0.0000 0.0000 14.1818 0.0000 -4.8311
# 5 -23.0364 -1.8789 -15.8116 0.0000 38.7657 0.0000
# 6 0.0000 0.0000 0.0000 -4.8311 0.0000 37.1246
#
#
#
# Elastic Compliance Matrix: (Units=1/GPa)
#
#
# Indices 1 2 3 4 5 6 
#
# 1 0.006969 -0.003447 -0.002023 0.000000 0.003149 0.000000
# 2 -0.003447 0.028261 -0.011311 0.000000 -0.005292 0.000000
# 3 -0.002023 -0.011311 0.014757 0.000000 0.004269 0.000000
# 4 0.000000 0.000000 0.000000 0.073784 0.000000 0.009602
# 5 0.003149 -0.005292 0.004269 0.000000 0.029152 0.000000
# 6 0.000000 0.000000 0.000000 0.009602 0.000000 0.028186
#
#
# Mechanical properties :
#
#
# Convention : Reuss Voigt Hill
#
# Bulk Modulus (GPa) = 60.87639 81.67844 71.27742
# Shear Modulus (GPa) = 22.71223 32.11487 27.41355
#
# Velocity S-wave (km/s) = 3.41375 4.05933 3.75046
# Velocity P-wave (km/s) = 6.83915 7.99251 7.43822
#
# Compressibility (1/GPa) = 0.01642673
#
# Stress axis : x y z
#
# Youngs Moduli (GPa) = 143.48882 35.38399 67.76366
#
# Poissons Ratio (x) = 0.12197 0.13707
# Poissons Ratio (y) = 0.49461 0.76646
# Poissons Ratio (z) = 0.29024 0.40022
#
# Static dielectric constant tensor:
#      x y z
#    x 1.799500 0.000000 -0.027320 
#    y 0.000000 1.694810 0.000000 
#    z -0.027320 0.000000 1.675760 
# 
# From -- ./inp_files/39097.got.cif
#   From: 2010.05.17/outbox.cif.g08.bks.cpg/sg15_20_cif.got.tgz:39097.got - 2010.06.03 18:47:42.
