data_PCOD9282223
_publ_section_title
;
Structure prediction by ZEFSAII (Michael W. Deem and Ramdas Pophale) SiO2 
 PCOD9282223
Probable space group: C 2/C
;
_chemical_formula_sum "Si O2"
_cell_formula_units_Z 44
_cell_length_a 6.654989
_cell_length_b 18.368653
_cell_length_c 18.808328
_cell_angle_alpha 90.000000
_cell_angle_beta 87.787236
_cell_angle_gamma 90.000000
_cell_volume 2297.475480
_symmetry_space_group_name_H-M "C 2/C"
_symmetry_group_IT_number 15
_symmetry_cell_setting 'monoclinic'
loop_
_space_group_symop_operation_xyz
x,y,z
-x,y,1/2-z
-x,-y,-z
x,-y,1/2+z
1/2+x,1/2+y,z
1/2-x,1/2+y,1/2-z
1/2-x,1/2-y,-z
1/2+x,1/2-y,1/2+z
loop_
_atom_site_type_symbol
_atom_site_label
_atom_site_fract_x
_atom_site_fract_y
_atom_site_fract_z
Si Si1 0.265091 0.162798 0.574464
Si Si2 0.559269 0.785946 0.960472
Si Si3 0.000000 0.061838 0.250000
Si Si4 0.404927 0.170063 0.818432
Si Si5 0.815562 0.680594 0.198591
Si Si6 0.536553 0.578216 0.830704
O O1 0.421785 0.157448 0.507131
O O2 0.415692 0.192357 0.632562
O O3 0.093019 0.219948 0.555877
O O4 0.146348 0.096697 0.613975
O O5 0.625929 0.820678 0.885233
O O6 0.750000 0.750000 0.000000
O O7 0.177029 0.113324 0.221562
O O8 0.060955 0.006746 0.312909
O O9 0.500000 0.128897 0.750000
O O10 0.299785 0.242880 0.792748
O O11 0.236645 0.118406 0.854875
O O12 0.000000 0.681950 0.250000
O O13 0.500000 0.609124 0.750000
#
# Coordination Sequence:
#
# PCOD9282223 Si02
#       6
#     8   8   4   8   8   8
#     4  11  21  36  65  95 127 166 213 273 321 385
#     4  11  23  39  62 101 136 167 215 277 333 387
#     4  10  26  40  62  92 146 166 216 274 334 378
#     4  12  19  34  67  95 123 161 223 270 319 374
#     4  12  24  39  63  99 127 169 218 278 324 386
#     4  10  21  39  59  93 126 174 215 264 316 397
#
# _framework density 19.151457000000001
#
# number of rings (size 3 to 8) (size 9 to 14) (size 15 to 20)
#    0.545    0.364    6.364    1.636    0.000    2.182 
#    0.000    0.909    0.000    5.455    0.000    0.000 
#    0.000    0.000    0.000    0.000    0.000    0.000 
#
# Total GULP energy -122591.858624 kJ/mol
# GULP energy per Si atom -5572.357210 kJ/mol
# Density = 1.910787 g / cm^3
# Si number density = 19.151457 Si / 1000 Ang^3
#
#
#
# Elastic Constant Matrix: (Units=GPa)
#
#
# Indices 1 2 3 4 5 6 
#
# 1 153.2738 62.3341 75.4256 0.0000 -3.1008 0.0000
# 2 62.3341 102.2616 30.4796 0.0000 -3.0609 0.0000
# 3 75.4256 30.4796 119.4195 0.0000 -13.0390 0.0000
# 4 0.0000 0.0000 0.0000 4.8086 0.0000 -8.6848
# 5 -3.1008 -3.0609 -13.0390 0.0000 54.8437 0.0000
# 6 0.0000 0.0000 0.0000 -8.6848 0.0000 26.1370
#
#
#
# Elastic Compliance Matrix: (Units=1/GPa)
#
#
# Indices 1 2 3 4 5 6 
#
# 1 0.011693 -0.005329 -0.006145 0.000000 -0.001097 0.000000
# 2 -0.005329 0.013013 0.000093 0.000000 0.000447 0.000000
# 3 -0.006145 0.000093 0.012519 0.000000 0.002634 0.000000
# 4 0.000000 0.000000 0.000000 0.520057 0.000000 0.172804
# 5 -0.001097 0.000447 0.002634 0.000000 0.018823 0.000000
# 6 0.000000 0.000000 0.000000 0.172804 0.000000 0.095679
#
#
# Mechanical properties :
#
#
# Convention : Reuss Voigt Hill
#
# Bulk Modulus (GPa) = 69.14035 79.04817 74.09426
# Shear Modulus (GPa) = 7.14933 30.93891 19.04412
#
# Velocity S-wave (km/s) = 1.93421 4.02367 3.15682
# Velocity P-wave (km/s) = 6.41626 7.93420 7.21526
#
# Compressibility (1/GPa) = 0.01446333
#
# Stress axis : x y z
#
# Youngs Moduli (GPa) = 85.51891 76.84803 79.87886
#
# Poissons Ratio (x) = 0.40952 0.49087
# Poissons Ratio (y) = 0.45573 -0.00746
# Poissons Ratio (z) = 0.52553 -0.00717
#
# Static dielectric constant tensor:
#      x y z
#    x 1.703670 0.000000 -0.032940 
#    y 0.000000 1.643030 0.000000 
#    z -0.032940 0.000000 1.735650 
# 
# From -- ./inp_files/184946.got.cif
#   From: 2010.05.17/outbox.cif.g08.bks.cpg/sg15_93_cif.got.tgz:184946.got - 2010.06.03 18:47:42.
