data_PCOD9282662
_publ_section_title
;
Structure prediction by ZEFSAII (Michael W. Deem and Ramdas Pophale) SiO2 
 PCOD9282662
Probable space group: C 2/C
;
_chemical_formula_sum "Si O2"
_cell_formula_units_Z 60
_cell_length_a 12.211123
_cell_length_b 13.735622
_cell_length_c 24.806321
_cell_angle_alpha 90.000000
_cell_angle_beta 136.350906
_cell_angle_gamma 90.000000
_cell_volume 2871.880022
_symmetry_space_group_name_H-M "C 2/C"
_symmetry_group_IT_number 15
_symmetry_cell_setting 'monoclinic'
loop_
_space_group_symop_operation_xyz
x,y,z
-x,y,1/2-z
-x,-y,-z
x,-y,1/2+z
1/2+x,1/2+y,z
1/2-x,1/2+y,1/2-z
1/2-x,1/2-y,-z
1/2+x,1/2-y,1/2+z
loop_
_atom_site_type_symbol
_atom_site_label
_atom_site_fract_x
_atom_site_fract_y
_atom_site_fract_z
Si Si1 0.099121 0.357973 0.923565
Si Si2 0.133714 0.560241 0.080380
Si Si3 0.597466 0.406800 0.057753
Si Si4 0.916931 0.867060 0.100300
Si Si5 0.541152 0.035685 0.825454
Si Si6 0.129360 0.283198 0.502719
Si Si7 0.500000 0.635440 0.750000
Si Si8 0.670899 0.122445 0.662352
O O1 0.109241 0.249668 0.904257
O O2 0.061033 0.436447 0.865165
O O3 0.956568 0.362218 0.914698
O O4 0.252685 0.394956 0.011871
O O5 0.209187 0.482460 0.147985
O O6 0.217942 0.630758 0.067989
O O7 0.000000 0.500000 0.000000
O O8 0.550444 0.393381 0.103790
O O9 0.784394 0.417822 0.113495
O O10 0.500000 0.500000 0.000000
O O11 0.562682 0.307247 0.013440
O O12 0.951981 0.907156 0.172693
O O13 0.500000 0.015496 0.750000
O O14 0.404659 0.099374 0.806352
O O15 0.250000 0.250000 0.500000
O O16 0.974336 0.330688 0.421085
O O17 0.332483 0.682300 0.710158
#
# Coordination Sequence:
#
# PCOD9282662 Si02
#       8
#     8   8   8   8   8   8   4   8
#     4  10  21  39  63  95 126 174 225 270 332 409
#     4   9  18  35  65  90 122 167 219 272 325 393
#     4  12  24  41  69 105 141 179 230 285 346 414
#     4  11  23  40  64  95 134 174 225 277 341 406
#     4  11  23  42  68  98 139 182 226 284 348 405
#     4  11  21  40  69 102 130 179 236 277 340 418
#     4  12  26  40  68  96 136 176 226 290 350 404
#     4  10  23  42  65  96 133 178 225 285 345 409
#
# _framework density 20.892237999999999
#
# number of rings (size 3 to 8) (size 9 to 14) (size 15 to 20)
#    0.000    1.333    4.000    2.400    2.800    1.067 
#    0.000    0.000    4.400    0.000    0.000    0.000 
#    0.000    0.000    0.000    0.000    0.000    0.000 
#
# Total GULP energy -167076.531114 kJ/mol
# GULP energy per Si atom -5569.217704 kJ/mol
# Density = 2.084469 g / cm^3
# Si number density = 20.892238 Si / 1000 Ang^3
#
#
#
# Elastic Constant Matrix: (Units=GPa)
#
#
# Indices 1 2 3 4 5 6 
#
# 1 166.4336 29.1022 43.7486 0.0000 -13.3494 0.0000
# 2 29.1022 68.5014 23.9162 0.0000 -17.4160 0.0000
# 3 43.7486 23.9162 93.9057 0.0000 -21.2190 0.0000
# 4 0.0000 0.0000 0.0000 9.3937 0.0000 -5.7997
# 5 -13.3494 -17.4160 -21.2190 0.0000 44.0695 0.0000
# 6 0.0000 0.0000 0.0000 -5.7997 0.0000 34.8572
#
#
#
# Elastic Compliance Matrix: (Units=1/GPa)
#
#
# Indices 1 2 3 4 5 6 
#
# 1 0.007098 -0.002042 -0.002786 0.000000 0.000001 0.000000
# 2 -0.002042 0.017613 -0.002358 0.000000 0.005207 0.000000
# 3 -0.002786 -0.002358 0.013629 0.000000 0.004786 0.000000
# 4 0.000000 0.000000 0.000000 0.118643 0.000000 0.019740
# 5 0.000001 0.005207 0.004786 0.000000 0.027054 0.000000
# 6 0.000000 0.000000 0.000000 0.019740 0.000000 0.031973
#
#
# Mechanical properties :
#
#
# Convention : Reuss Voigt Hill
#
# Bulk Modulus (GPa) = 41.72382 58.04161 49.88272
# Shear Modulus (GPa) = 20.97565 33.13564 27.05565
#
# Velocity S-wave (km/s) = 3.17202 3.98682 3.60253
# Velocity P-wave (km/s) = 5.78186 7.00248 6.42124
#
# Compressibility (1/GPa) = 0.02396712
#
# Stress axis : x y z
#
# Youngs Moduli (GPa) = 140.88357 56.77681 73.37236
#
# Poissons Ratio (x) = 0.11596 0.20444
# Poissons Ratio (y) = 0.28774 0.17299
# Poissons Ratio (z) = 0.39255 0.13386
#
# Static dielectric constant tensor:
#      x y z
#    x 1.772420 0.000000 0.004350 
#    y 0.000000 1.773490 0.000000 
#    z 0.004350 0.000000 1.793250 
# 
# From -- ./inp_files/269979.got.cif
#   From: 2010.05.17/outbox.cif.g08.bks.cpg/sg15_135_cif.got.tgz:269979.got - 2010.06.03 18:47:42.
