data_PCOD9282220
_publ_section_title
;
Structure prediction by ZEFSAII (Michael W. Deem and Ramdas Pophale) SiO2 
 PCOD9282220
Probable space group: C 2/C
;
_chemical_formula_sum "Si O2"
_cell_formula_units_Z 60
_cell_length_a 29.216725
_cell_length_b 8.533778
_cell_length_c 22.345342
_cell_angle_alpha 90.000000
_cell_angle_beta 148.057713
_cell_angle_gamma 90.000000
_cell_volume 2947.601199
_symmetry_space_group_name_H-M "C 2/C"
_symmetry_group_IT_number 15
_symmetry_cell_setting 'monoclinic'
loop_
_space_group_symop_operation_xyz
x,y,z
-x,y,1/2-z
-x,-y,-z
x,-y,1/2+z
1/2+x,1/2+y,z
1/2-x,1/2+y,1/2-z
1/2-x,1/2-y,-z
1/2+x,1/2-y,1/2+z
loop_
_atom_site_type_symbol
_atom_site_label
_atom_site_fract_x
_atom_site_fract_y
_atom_site_fract_z
Si Si1 0.354076 0.899101 0.700853
Si Si2 0.909982 0.567928 0.884551
Si Si3 0.500000 0.594500 0.250000
Si Si4 0.698048 0.364191 0.607282
Si Si5 0.258057 0.572055 0.742285
Si Si6 0.154854 0.279725 0.369609
Si Si7 0.613099 0.391674 0.697263
Si Si8 0.999893 0.869332 0.364122
O O1 0.254258 0.856832 0.608139
O O2 0.424620 0.761327 0.769831
O O3 0.381344 0.986189 0.791832
O O4 0.356958 0.034301 0.654132
O O5 0.841620 0.528322 0.859622
O O6 0.914233 0.752190 0.876751
O O7 0.000000 0.500000 0.000000
O O8 0.583221 0.704590 0.333326
O O9 0.508216 0.481320 0.315880
O O10 0.700726 0.530493 0.646735
O O11 0.749360 0.249482 0.709772
O O12 0.598007 0.315932 0.487181
O O13 0.308351 0.479376 0.747434
O O14 0.250000 0.250000 0.500000
O O15 0.141458 0.188886 0.291292
O O16 0.538541 0.517791 0.627049
#
# Coordination Sequence:
#
# PCOD9282220 Si02
#       8
#     8   8   4   8   8   8   8   8
#     4  10  22  39  62  95 128 156 219 265 304 400
#     4  10  21  39  59  92 130 171 212 255 313 379
#     4  10  24  46  64  94 124 162 224 268 326 404
#     4  11  23  39  63  94 130 173 206 257 321 377
#     4  11  21  39  59  92 132 164 213 250 306 392
#     4  10  22  46  66  88 125 166 212 272 330 377
#     4  10  22  41  62  91 126 169 213 265 318 389
#     4  11  23  43  66  93 128 166 216 275 331 368
#
# _framework density 20.355535
#
# number of rings (size 3 to 8) (size 9 to 14) (size 15 to 20)
#    0.000    1.600    2.667    1.600    0.000    3.200 
#   12.000    2.000    0.000    0.000    0.000    0.000 
#    0.000    0.000    0.000    0.000    0.000    0.000 
#
# Total GULP energy -167323.545239 kJ/mol
# GULP energy per Si atom -5577.451508 kJ/mol
# Density = 2.030920 g / cm^3
# Si number density = 20.355535 Si / 1000 Ang^3
#
#
#
# Elastic Constant Matrix: (Units=GPa)
#
#
# Indices 1 2 3 4 5 6 
#
# 1 121.8127 67.1507 36.0086 0.0000 35.2074 0.0000
# 2 67.1507 122.0895 62.3582 0.0000 33.0033 0.0000
# 3 36.0086 62.3582 89.3031 0.0000 33.6230 0.0000
# 4 0.0000 0.0000 0.0000 22.8991 0.0000 4.8306
# 5 35.2074 33.0033 33.6230 0.0000 27.5355 0.0000
# 6 0.0000 0.0000 0.0000 4.8306 0.0000 38.3592
#
#
#
# Elastic Compliance Matrix: (Units=1/GPa)
#
#
# Indices 1 2 3 4 5 6 
#
# 1 0.015420 -0.005990 0.004970 0.000000 -0.018606 0.000000
# 2 -0.005990 0.016130 -0.008242 0.000000 -0.001610 0.000000
# 3 0.004970 -0.008242 0.025214 0.000000 -0.027266 0.000000
# 4 0.000000 0.000000 0.000000 0.044862 0.000000 -0.005649
# 5 -0.018606 -0.001610 -0.027266 0.000000 0.095330 0.000000
# 6 0.000000 0.000000 0.000000 -0.005649 0.000000 0.026781
#
#
# Mechanical properties :
#
#
# Convention : Reuss Voigt Hill
#
# Bulk Modulus (GPa) = 26.14985 73.80447 49.97716
# Shear Modulus (GPa) = 19.60732 28.93794 24.27263
#
# Velocity S-wave (km/s) = 3.10698 3.77454 3.45691
# Velocity P-wave (km/s) = 5.07401 7.43859 6.36703
#
# Compressibility (1/GPa) = 0.03824113
#
# Stress axis : x y z
#
# Youngs Moduli (GPa) = 64.85171 61.99534 39.65996
#
# Poissons Ratio (x) = 0.37137 -0.19713
# Poissons Ratio (y) = 0.38848 0.32687
# Poissons Ratio (z) = -0.32234 0.51095
#
# Static dielectric constant tensor:
#      x y z
#    x 1.741370 0.000000 0.015280 
#    y 0.000000 1.739240 0.000000 
#    z 0.015280 0.000000 1.697450 
# 
# From -- ./inp_files/284334.got.cif
#   From: 2010.05.17/outbox.cif.g08.bks.cpg/sg15_143_cif.got.tgz:284334.got - 2010.06.03 18:47:42.
