data_PCOD9282087
_publ_section_title
;
Structure prediction by ZEFSAII (Michael W. Deem and Ramdas Pophale) SiO2 
 PCOD9282087
Probable space group: C 2/C
;
_chemical_formula_sum "Si O2"
_cell_formula_units_Z 40
_cell_length_a 22.197525
_cell_length_b 8.412578
_cell_length_c 8.561591
_cell_angle_alpha 90.000000
_cell_angle_beta 87.795561
_cell_angle_gamma 90.000000
_cell_volume 1597.594702
_symmetry_space_group_name_H-M "C 2/C"
_symmetry_group_IT_number 15
_symmetry_cell_setting 'monoclinic'
loop_
_space_group_symop_operation_xyz
x,y,z
-x,y,1/2-z
-x,-y,-z
x,-y,1/2+z
1/2+x,1/2+y,z
1/2-x,1/2+y,1/2-z
1/2-x,1/2-y,-z
1/2+x,1/2-y,1/2+z
loop_
_atom_site_type_symbol
_atom_site_label
_atom_site_fract_x
_atom_site_fract_y
_atom_site_fract_z
Si Si1 0.774560 0.119190 0.120462
Si Si2 0.922421 0.389246 0.926494
Si Si3 0.161478 0.436199 0.835834
Si Si4 0.339061 0.340842 0.933770
Si Si5 0.472270 0.249580 0.914492
O O1 0.718644 0.038073 0.219365
O O2 0.817652 0.173624 0.257837
O O3 0.750000 0.250000 0.000000
O O4 0.810089 0.994045 0.013380
O O5 0.886917 0.351656 0.773012
O O6 0.951476 0.564197 0.897056
O O7 0.874687 0.424377 0.071027
O O8 0.973978 0.265427 0.966322
O O9 0.181121 0.312538 0.965635
O O10 0.411158 0.343582 0.948303
O O11 0.500000 0.305264 0.750000
#
# Coordination Sequence:
#
# PCOD9282087 Si02
#       5
#     8   8   8   8   8
#     4  12  27  50  75 103 151 190 241 313 378 444
#     4  10  21  38  71 111 148 200 243 299 363 418
#     4  11  23  41  74 110 149 192 254 301 360 440
#     4  11  27  47  75 112 137 195 249 301 375 438
#     4  10  21  41  70 107 154 191 250 299 351 438
#
# _framework density 25.03764
#
# number of rings (size 3 to 8) (size 9 to 14) (size 15 to 20)
#    0.000    1.200    2.000    3.000    2.800    4.800 
#    0.000    1.000    0.000    0.000    0.000    0.000 
#    0.000    0.000    0.000    0.000    0.000    0.000 
#
# Total GULP energy -112079.690153 kJ/mol
# GULP energy per Si atom -5603.984508 kJ/mol
# Density = 2.498065 g / cm^3
# Si number density = 25.037640 Si / 1000 Ang^3
#
#
#
# Elastic Constant Matrix: (Units=GPa)
#
#
# Indices 1 2 3 4 5 6 
#
# 1 173.1023 74.1281 96.7645 0.0000 3.9038 0.0000
# 2 74.1281 86.1111 73.7911 0.0000 -3.3986 0.0000
# 3 96.7645 73.7911 203.5083 0.0000 24.3110 0.0000
# 4 0.0000 0.0000 0.0000 40.0916 0.0000 -8.8047
# 5 3.9038 -3.3986 24.3110 0.0000 75.2546 0.0000
# 6 0.0000 0.0000 0.0000 -8.8047 0.0000 44.3240
#
#
#
# Elastic Compliance Matrix: (Units=1/GPa)
#
#
# Indices 1 2 3 4 5 6 
#
# 1 0.009861 -0.006497 -0.002326 0.000000 -0.000053 0.000000
# 2 -0.006497 0.021735 -0.005148 0.000000 0.002982 0.000000
# 3 -0.002326 -0.005148 0.008217 0.000000 -0.002766 0.000000
# 4 0.000000 0.000000 0.000000 0.026081 0.000000 0.005181
# 5 -0.000053 0.002982 -0.002766 0.000000 0.014319 0.000000
# 6 0.000000 0.000000 0.000000 0.005181 0.000000 0.023590
#
#
# Mechanical properties :
#
#
# Convention : Reuss Voigt Hill
#
# Bulk Modulus (GPa) = 84.24668 105.78765 95.01716
# Shear Modulus (GPa) = 36.84514 46.46991 41.65752
#
# Velocity S-wave (km/s) = 3.84029 4.31281 4.08339
# Velocity P-wave (km/s) = 7.30649 8.19412 7.76300
#
# Compressibility (1/GPa) = 0.01186990
#
# Stress axis : x y z
#
# Youngs Moduli (GPa) = 101.41001 46.00861 121.69798
#
# Poissons Ratio (x) = 0.29893 0.28313
# Poissons Ratio (y) = 0.65888 0.62649
# Poissons Ratio (z) = 0.23593 0.23685
#
# Static dielectric constant tensor:
#      x y z
#    x 2.037260 0.000000 0.004040 
#    y 0.000000 1.990220 0.000000 
#    z 0.004040 0.000000 1.939700 
# 
# From -- ./inp_files/60031.got.cif
#   From: 2010.05.17/outbox.cif.g08.bks.cpg/sg15_31_cif.got.tgz:60031.got - 2010.06.03 18:47:42.
