data_PCOD9282276
_publ_section_title
;
Structure prediction by ZEFSAII (Michael W. Deem and Ramdas Pophale) SiO2 
 PCOD9282276
Probable space group: C 2/C
;
_chemical_formula_sum "Si O2"
_cell_formula_units_Z 48
_cell_length_a 14.119222
_cell_length_b 14.316701
_cell_length_c 14.143701
_cell_angle_alpha 90.000000
_cell_angle_beta 113.654435
_cell_angle_gamma 90.000000
_cell_volume 2618.808291
_symmetry_space_group_name_H-M "C 2/C"
_symmetry_group_IT_number 15
_symmetry_cell_setting 'monoclinic'
loop_
_space_group_symop_operation_xyz
x,y,z
-x,y,1/2-z
-x,-y,-z
x,-y,1/2+z
1/2+x,1/2+y,z
1/2-x,1/2+y,1/2-z
1/2-x,1/2-y,-z
1/2+x,1/2-y,1/2+z
loop_
_atom_site_type_symbol
_atom_site_label
_atom_site_fract_x
_atom_site_fract_y
_atom_site_fract_z
Si Si1 0.967283 0.025966 0.592730
Si Si2 0.126135 0.766237 0.450112
Si Si3 0.876589 0.545196 0.363037
Si Si4 0.000000 0.242691 0.250000
Si Si5 0.516407 0.148509 0.567098
Si Si6 0.362357 0.567306 0.211546
Si Si7 0.000000 0.647928 0.250000
O O1 0.915836 0.127982 0.574144
O O2 0.883398 0.959661 0.610635
O O3 0.000000 0.000000 0.500000
O O4 0.069013 0.004594 0.697836
O O5 0.250000 0.750000 0.500000
O O6 0.074504 0.722463 0.523431
O O7 0.077358 0.710746 0.342404
O O8 0.905017 0.436805 0.384085
O O9 0.755386 0.560119 0.308443
O O10 0.935140 0.585087 0.295720
O O11 0.922897 0.601961 0.470821
O O12 0.980389 0.305369 0.150239
O O13 0.092023 0.171158 0.259425
#
# Coordination Sequence:
#
# PCOD9282276 Si02
#       7
#     8   8   8   4   8   8   4
#     4  10  21  39  60  91 125 158 203 251 310 376
#     4  11  22  37  64  91 123 160 209 256 314 364
#     4  10  22  42  60  88 124 167 202 254 316 366
#     4  10  21  39  62  90 124 160 202 259 297 368
#     4  10  22  40  59  87 126 155 208 255 295 378
#     4  10  22  40  62  88 130 159 204 254 314 368
#     4  10  23  37  62  90 122 158 216 257 297 384
#
# _framework density 18.328948
#
# number of rings (size 3 to 8) (size 9 to 14) (size 15 to 20)
#    0.000    2.000    0.000    4.500    4.667    0.667 
#    6.000    0.000    0.000    0.000    0.000    0.000 
#    0.000    0.000    0.000    0.000    0.000    0.000 
#
# Total GULP energy -133905.143337 kJ/mol
# GULP energy per Si atom -5579.380972 kJ/mol
# Density = 1.828723 g / cm^3
# Si number density = 18.328948 Si / 1000 Ang^3
#
#
#
# Elastic Constant Matrix: (Units=GPa)
#
#
# Indices 1 2 3 4 5 6 
#
# 1 104.7267 41.4476 60.8395 0.0000 26.2170 0.0000
# 2 41.4476 97.1013 42.7447 0.0000 -1.5161 0.0000
# 3 60.8395 42.7447 105.9566 0.0000 -11.7692 0.0000
# 4 0.0000 0.0000 0.0000 17.3675 0.0000 -0.0515
# 5 26.2170 -1.5161 -11.7692 0.0000 38.2889 0.0000
# 6 0.0000 0.0000 0.0000 -0.0515 0.0000 -2.5938
#
#
#
# Elastic Compliance Matrix: (Units=1/GPa)
#
#
# Indices 1 2 3 4 5 6 
#
# 1 0.026371 -0.004647 -0.015834 0.000000 -0.023108 0.000000
# 2 -0.004647 0.013386 -0.002401 0.000000 0.002974 0.000000
# 3 -0.015834 -0.002401 0.021424 0.000000 0.017332 0.000000
# 4 0.000000 0.000000 0.000000 0.057576 0.000000 -0.001143
# 5 -0.023108 0.002974 0.017332 0.000000 0.047385 0.000000
# 6 0.000000 0.000000 0.000000 -0.001143 0.000000 -0.385516
#
#
# Mechanical properties :
#
#
# Convention : Reuss Voigt Hill
#
# Bulk Modulus (GPa) = 64.87070 66.42758 65.64914
# Shear Modulus (GPa) = -29.67865 21.46272 -4.10797
#
# Velocity S-wave (km/s) = -4.02832 3.42566 -1.49870
# Velocity P-wave (km/s) = 3.71925 7.20885 5.73586
#
# Compressibility (1/GPa) = 0.01541528
#
# Stress axis : x y z
#
# Youngs Moduli (GPa) = 37.92015 74.70700 46.67742
#
# Poissons Ratio (x) = 0.34716 0.73910
# Poissons Ratio (y) = 0.17621 0.11209
# Poissons Ratio (z) = 0.60044 0.17940
#
# Static dielectric constant tensor:
#      x y z
#    x 1.594860 0.000000 -0.010030 
#    y 0.000000 1.637300 0.000000 
#    z -0.010030 0.000000 1.644500 
# 
# From -- ./inp_files/97237.got.cif
#   From: 2010.05.17/outbox.cif.g08.bks.cpg/sg15_49_cif.got.tgz:97237.got - 2010.06.03 18:47:42.
