data_PCOD9282871
_publ_section_title
;
Structure prediction by ZEFSAII (Michael W. Deem and Ramdas Pophale) SiO2 
 PCOD9282871
Probable space group: C 2/C
;
_chemical_formula_sum "Si O2"
_cell_formula_units_Z 52
_cell_length_a 19.820493
_cell_length_b 19.683667
_cell_length_c 7.947695
_cell_angle_alpha 90.000000
_cell_angle_beta 53.158095
_cell_angle_gamma 90.000000
_cell_volume 2481.479522
_symmetry_space_group_name_H-M "C 2/C"
_symmetry_group_IT_number 15
_symmetry_cell_setting 'monoclinic'
loop_
_space_group_symop_operation_xyz
x,y,z
-x,y,1/2-z
-x,-y,-z
x,-y,1/2+z
1/2+x,1/2+y,z
1/2-x,1/2+y,1/2-z
1/2-x,1/2-y,-z
1/2+x,1/2-y,1/2+z
loop_
_atom_site_type_symbol
_atom_site_label
_atom_site_fract_x
_atom_site_fract_y
_atom_site_fract_z
Si Si1 0.672452 0.725696 0.230020
Si Si2 0.824493 0.993696 0.690770
Si Si3 0.592016 0.593050 0.181919
Si Si4 0.160428 0.563126 0.012562
Si Si5 0.778152 0.366857 0.762171
Si Si6 0.885847 0.633320 0.751667
Si Si7 0.500000 0.963323 0.250000
O O1 0.631463 0.660459 0.202546
O O2 0.719372 0.700162 0.330058
O O3 0.608102 0.788757 0.319406
O O4 0.750000 0.750000 0.000000
O O5 0.853274 0.059445 0.547275
O O6 0.900776 0.965649 0.688197
O O7 0.789796 0.927872 0.645358
O O8 0.740917 0.015102 0.915291
O O9 0.500000 0.606038 0.250000
O O10 0.166342 0.617465 0.155613
O O11 0.079646 0.513773 0.125135
O O12 0.164682 0.597771 0.823639
O O13 0.837387 0.368834 0.505068
O O14 0.971540 0.589819 0.647121
#
# Coordination Sequence:
#
# PCOD9282871 Si02
#       7
#     8   8   8   8   8   8   4
#     4   9  21  42  63  90 123 173 218 251 320 395
#     4  11  19  39  61  91 126 158 209 264 326 374
#     4  11  23  38  64  94 123 160 212 267 319 377
#     4  12  23  39  65  99 127 171 211 269 326 378
#     4  10  21  39  65  92 126 165 220 262 308 395
#     4  11  24  40  62  92 134 172 209 263 320 385
#     4  12  26  38  64 104 140 164 222 274 326 388
#
# _framework density 20.955241000000001
#
# number of rings (size 3 to 8) (size 9 to 14) (size 15 to 20)
#    0.000    1.231    3.077    4.615    3.231    0.615 
#    0.000    0.000    0.000    0.000    0.000    0.000 
#    0.000    0.000    0.000    0.000    0.000    0.000 
#
# Total GULP energy -144831.728156 kJ/mol
# GULP energy per Si atom -5570.451083 kJ/mol
# Density = 2.090755 g / cm^3
# Si number density = 20.955241 Si / 1000 Ang^3
#
#
#
# Elastic Constant Matrix: (Units=GPa)
#
#
# Indices 1 2 3 4 5 6 
#
# 1 148.0657 58.0886 34.4406 0.0000 9.9756 0.0000
# 2 58.0886 122.8948 19.0585 0.0000 1.0889 0.0000
# 3 34.4406 19.0585 33.3558 0.0000 -0.8235 0.0000
# 4 0.0000 0.0000 0.0000 139.1413 0.0000 155.6419
# 5 9.9756 1.0889 -0.8235 0.0000 31.7203 0.0000
# 6 0.0000 0.0000 0.0000 155.6419 0.0000 243.5647
#
#
#
# Elastic Compliance Matrix: (Units=1/GPa)
#
#
# Indices 1 2 3 4 5 6 
#
# 1 0.010418 -0.003525 -0.008826 0.000000 -0.003384 0.000000
# 2 -0.003525 0.010127 -0.002129 0.000000 0.000706 0.000000
# 3 -0.008826 -0.002129 0.040405 0.000000 0.003898 0.000000
# 4 0.000000 0.000000 0.000000 0.025199 0.000000 -0.016103
# 5 -0.003384 0.000706 0.003898 0.000000 0.032667 0.000000
# 6 0.000000 0.000000 0.000000 -0.016103 0.000000 0.014396
#
#
# Mechanical properties :
#
#
# Convention : Reuss Voigt Hill
#
# Bulk Modulus (GPa) = 31.25972 58.61020 44.93496
# Shear Modulus (GPa) = 28.92916 95.73384 62.33150
#
# Velocity S-wave (km/s) = 3.71957 6.76639 5.45982
# Velocity P-wave (km/s) = 5.77899 9.43798 7.82535
#
# Compressibility (1/GPa) = 0.03199005
#
# Stress axis : x y z
#
# Youngs Moduli (GPa) = 95.98965 98.74279 24.74923
#
# Poissons Ratio (x) = 0.34812 0.21843
# Poissons Ratio (y) = 0.33841 0.05269
# Poissons Ratio (z) = 0.84719 0.21021
#
# Static dielectric constant tensor:
#      x y z
#    x 1.796360 0.000000 0.025630 
#    y 0.000000 1.795380 0.000000 
#    z 0.025630 0.000000 1.815580 
# 
# From -- ./inp_files/56930.got.cif
#   From: 2010.05.17/outbox.cif.g08.bks.cpg/sg15_29_cif.got.tgz:56930.got - 2010.06.03 18:47:42.
