data_PCOD9282887
_publ_section_title
;
Structure prediction by ZEFSAII (Michael W. Deem and Ramdas Pophale) SiO2 
 PCOD9282887
Probable space group: C 2/C
;
_chemical_formula_sum "Si O2"
_cell_formula_units_Z 60
_cell_length_a 9.502718
_cell_length_b 16.231965
_cell_length_c 23.133479
_cell_angle_alpha 90.000000
_cell_angle_beta 58.809436
_cell_angle_gamma 90.000000
_cell_volume 3052.490337
_symmetry_space_group_name_H-M "C 2/C"
_symmetry_group_IT_number 15
_symmetry_cell_setting 'monoclinic'
loop_
_space_group_symop_operation_xyz
x,y,z
-x,y,1/2-z
-x,-y,-z
x,-y,1/2+z
1/2+x,1/2+y,z
1/2-x,1/2+y,1/2-z
1/2-x,1/2-y,-z
1/2+x,1/2-y,1/2+z
loop_
_atom_site_type_symbol
_atom_site_label
_atom_site_fract_x
_atom_site_fract_y
_atom_site_fract_z
Si Si1 0.855129 0.087235 0.326557
Si Si2 0.500000 0.111685 0.750000
Si Si3 0.385183 0.485600 0.940337
Si Si4 0.577348 0.255011 0.003232
Si Si5 0.220540 0.274060 0.124497
Si Si6 0.907407 0.628926 0.958230
Si Si7 0.691983 0.584638 0.435816
Si Si8 0.963317 0.507530 0.152441
O O1 0.885364 0.021190 0.371526
O O2 0.832891 0.180003 0.354707
O O3 0.000000 0.085348 0.250000
O O4 0.689168 0.063628 0.329337
O O5 0.358860 0.169025 0.808543
O O6 0.561635 0.051300 0.787413
O O7 0.567583 0.472173 0.926351
O O8 0.261570 0.411552 0.983972
O O9 0.319479 0.561060 0.993333
O O10 0.512755 0.173031 0.985156
O O11 0.619701 0.324302 0.946557
O O12 0.750000 0.250000 0.000000
O O13 0.418741 0.280626 0.075654
O O14 0.144015 0.307197 0.080746
O O15 0.004824 0.554331 0.907816
O O16 0.874105 0.563870 0.376475
#
# Coordination Sequence:
#
# PCOD9282887 Si02
#       8
#     8   4   8   8   8   8   8   8
#     4  12  25  39  63  94 125 171 214 258 312 385
#     4  10  24  46  66  84 124 182 218 244 304 406
#     4  10  21  39  65  93 125 160 216 257 315 388
#     4  12  23  35  64 101 128 153 204 277 330 364
#     4  11  21  43  68  89 122 168 223 253 311 389
#     4  10  21  42  66  89 125 170 205 264 323 376
#     4  10  22  38  64  99 121 163 205 269 324 363
#     4  10  25  43  62  91 130 167 209 265 327 371
#
# _framework density 19.656081
#
# number of rings (size 3 to 8) (size 9 to 14) (size 15 to 20)
#    0.000    1.333    3.333    2.000    5.600    1.067 
#    0.000    0.000    0.000    0.000    0.000    0.000 
#    0.000    0.000    0.000    0.000    0.000    0.000 
#
# Total GULP energy -167494.962042 kJ/mol
# GULP energy per Si atom -5583.165401 kJ/mol
# Density = 1.961134 g / cm^3
# Si number density = 19.656081 Si / 1000 Ang^3
#
#
#
# Elastic Constant Matrix: (Units=GPa)
#
#
# Indices 1 2 3 4 5 6 
#
# 1 84.7295 9.4417 47.4968 0.0000 -31.6209 0.0000
# 2 9.4417 45.7909 14.6699 0.0000 -6.8264 0.0000
# 3 47.4968 14.6699 101.7555 0.0000 -13.7285 0.0000
# 4 0.0000 0.0000 0.0000 -5.9300 0.0000 -8.3498
# 5 -31.6209 -6.8264 -13.7285 0.0000 28.4155 0.0000
# 6 0.0000 0.0000 0.0000 -8.3498 0.0000 26.5715
#
#
#
# Elastic Compliance Matrix: (Units=1/GPa)
#
#
# Indices 1 2 3 4 5 6 
#
# 1 0.025951 0.001217 -0.008935 0.000000 0.024854 0.000000
# 2 0.001217 0.023426 -0.003213 0.000000 0.005430 0.000000
# 3 -0.008935 -0.003213 0.013923 0.000000 -0.003988 0.000000
# 4 0.000000 0.000000 0.000000 -0.116907 0.000000 -0.036737
# 5 0.024854 0.005430 -0.003988 0.000000 0.062227 0.000000
# 6 0.000000 0.000000 0.000000 -0.036737 0.000000 0.026090
#
#
# Mechanical properties :
#
#
# Convention : Reuss Voigt Hill
#
# Bulk Modulus (GPa) = 24.13255 41.72140 32.92698
# Shear Modulus (GPa) = 71.03663 20.52257 45.77960
#
# Velocity S-wave (km/s) = 6.01816 3.23473 4.83124
# Velocity P-wave (km/s) = 7.78428 5.93491 6.92164
#
# Compressibility (1/GPa) = 0.04143780
#
# Stress axis : x y z
#
# Youngs Moduli (GPa) = 38.53424 42.68721 71.82152
#
# Poissons Ratio (x) = -0.05194 0.64176
# Poissons Ratio (y) = -0.04689 0.23074
# Poissons Ratio (z) = 0.34432 0.13714
#
# Static dielectric constant tensor:
#      x y z
#    x 1.671110 0.000000 0.019170 
#    y 0.000000 1.726110 0.000000 
#    z 0.019170 0.000000 1.692400 
# 
# From -- ./inp_files/289586.got.cif
#   From: 2010.05.17/outbox.cif.g08.bks.cpg/sg15_145_cif.got.tgz:289586.got - 2010.06.03 18:47:42.
