data_PCOD9282836
_publ_section_title
;
Structure prediction by ZEFSAII (Michael W. Deem and Ramdas Pophale) SiO2 
 PCOD9282836
Probable space group: C 2/C
;
_chemical_formula_sum "Si O2"
_cell_formula_units_Z 44
_cell_length_a 24.744743
_cell_length_b 6.021499
_cell_length_c 13.000076
_cell_angle_alpha 90.000000
_cell_angle_beta 73.067593
_cell_angle_gamma 90.000000
_cell_volume 1853.045497
_symmetry_space_group_name_H-M "C 2/C"
_symmetry_group_IT_number 15
_symmetry_cell_setting 'monoclinic'
loop_
_space_group_symop_operation_xyz
x,y,z
-x,y,1/2-z
-x,-y,-z
x,-y,1/2+z
1/2+x,1/2+y,z
1/2-x,1/2+y,1/2-z
1/2-x,1/2-y,-z
1/2+x,1/2-y,1/2+z
loop_
_atom_site_type_symbol
_atom_site_label
_atom_site_fract_x
_atom_site_fract_y
_atom_site_fract_z
Si Si1 0.500000 0.894579 0.750000
Si Si2 0.805183 0.348394 0.818391
Si Si3 0.474160 0.253012 0.484930
Si Si4 0.668639 0.446045 0.601547
Si Si5 0.718797 0.695118 0.888826
Si Si6 0.599600 0.810399 0.289709
O O1 0.523523 0.756175 0.639906
O O2 0.450985 0.053221 0.733736
O O3 0.747779 0.456964 0.887177
O O4 0.795905 0.206353 0.721464
O O5 0.845548 0.537507 0.752193
O O6 0.830713 0.210086 0.897071
O O7 0.500000 0.500000 0.500000
O O8 0.417296 0.249643 0.585160
O O9 0.500000 0.000000 0.500000
O O10 0.666732 0.308675 0.496653
O O11 0.731207 0.367936 0.609465
O O12 0.617912 0.390035 0.706556
#
# Coordination Sequence:
#
# PCOD9282836 Si02
#       6
#     4   8   8   8   8   8
#     4  10  24  50  70  98 144 186 222 304 358 412
#     4  11  21  41  62 100 130 176 223 281 346 416
#     4  10  24  47  74 101 140 183 239 296 357 423
#     4  10  22  40  64  95 128 176 228 275 337 427
#     4  10  21  39  65  88 138 173 216 280 346 405
#     4  10  25  43  67 102 132 176 240 280 351 424
#
# _framework density 23.744695
#
# number of rings (size 3 to 8) (size 9 to 14) (size 15 to 20)
#    0.000    1.818    1.818    0.545    7.636    2.909 
#    3.273    0.000    0.000    0.000    0.000    0.000 
#    0.000    0.000    0.000    0.000    0.000    0.000 
#
# Total GULP energy -122581.033819 kJ/mol
# GULP energy per Si atom -5571.865174 kJ/mol
# Density = 2.369065 g / cm^3
# Si number density = 23.744695 Si / 1000 Ang^3
#
#
#
# Elastic Constant Matrix: (Units=GPa)
#
#
# Indices 1 2 3 4 5 6 
#
# 1 23.4998 3.2070 24.0689 0.0000 0.2226 0.0000
# 2 3.2070 82.5385 14.5723 0.0000 3.6984 0.0000
# 3 24.0689 14.5723 167.6748 0.0000 -7.0234 0.0000
# 4 0.0000 0.0000 0.0000 15.8513 0.0000 -0.9538
# 5 0.2226 3.6984 -7.0234 0.0000 34.1912 0.0000
# 6 0.0000 0.0000 0.0000 -0.9538 0.0000 29.1992
#
#
#
# Elastic Compliance Matrix: (Units=1/GPa)
#
#
# Indices 1 2 3 4 5 6 
#
# 1 0.050028 -0.000594 -0.007203 0.000000 -0.001741 0.000000
# 2 -0.000594 0.012395 -0.001057 0.000000 -0.001554 0.000000
# 3 -0.007203 -0.001057 0.007158 0.000000 0.001632 0.000000
# 4 0.000000 0.000000 0.000000 0.063211 0.000000 0.002065
# 5 -0.001741 -0.001554 0.001632 0.000000 0.029762 0.000000
# 6 0.000000 0.000000 0.000000 0.002065 0.000000 0.034315
#
#
# Mechanical properties :
#
#
# Convention : Reuss Voigt Hill
#
# Bulk Modulus (GPa) = 19.27768 39.71216 29.49492
# Shear Modulus (GPa) = 21.56409 31.30602 26.43505
#
# Velocity S-wave (km/s) = 3.01685 3.63498 3.34024
# Velocity P-wave (km/s) = 4.50239 5.86331 5.22733
#
# Compressibility (1/GPa) = 0.05187346
#
# Stress axis : x y z
#
# Youngs Moduli (GPa) = 19.98879 80.67842 139.70346
#
# Poissons Ratio (x) = 0.04794 1.00622
# Poissons Ratio (y) = 0.01188 0.14767
# Poissons Ratio (z) = 0.14397 0.08528
#
# Static dielectric constant tensor:
#      x y z
#    x 1.834440 0.000000 0.032610 
#    y 0.000000 2.036910 0.000000 
#    z 0.032610 0.000000 1.952690 
# 
# From -- ./inp_files/179622.got.cif
#   From: 2010.05.17/outbox.cif.g08.bks.cpg/sg15_90_cif.got.tgz:179622.got - 2010.06.03 18:47:42.
