data_PCOD9282070
_publ_section_title
;
Structure prediction by ZEFSAII (Michael W. Deem and Ramdas Pophale) SiO2 
 PCOD9282070
Probable space group: C 2/C
;
_chemical_formula_sum "Si O2"
_cell_formula_units_Z 44
_cell_length_a 12.602827
_cell_length_b 32.327509
_cell_length_c 5.521402
_cell_angle_alpha 90.000000
_cell_angle_beta 79.007833
_cell_angle_gamma 90.000000
_cell_volume 2208.247246
_symmetry_space_group_name_H-M "C 2/C"
_symmetry_group_IT_number 15
_symmetry_cell_setting 'monoclinic'
loop_
_space_group_symop_operation_xyz
x,y,z
-x,y,1/2-z
-x,-y,-z
x,-y,1/2+z
1/2+x,1/2+y,z
1/2-x,1/2+y,1/2-z
1/2-x,1/2-y,-z
1/2+x,1/2-y,1/2+z
loop_
_atom_site_type_symbol
_atom_site_label
_atom_site_fract_x
_atom_site_fract_y
_atom_site_fract_z
Si Si1 0.430528 0.748164 0.031257
Si Si2 0.870878 0.524300 0.303654
Si Si3 0.891351 0.842898 0.913274
Si Si4 0.262194 0.688187 0.872720
Si Si5 0.000000 0.904003 0.250000
Si Si6 0.784769 0.100110 0.065657
O O1 0.500000 0.753195 0.250000
O O2 0.347599 0.786816 0.064149
O O3 0.500000 0.748524 0.750000
O O4 0.347539 0.708794 0.024980
O O5 0.844334 0.498577 0.560906
O O6 0.806706 0.567098 0.345999
O O7 0.000000 0.530941 0.250000
O O8 0.822156 0.873775 0.781469
O O9 0.000000 0.825041 0.750000
O O10 0.819984 0.809617 0.085923
O O11 0.947792 0.873588 0.079247
O O12 0.247781 0.638880 0.915954
O O13 0.893001 0.923342 0.417238
#
# Coordination Sequence:
#
# PCOD9282070 Si02
#       6
#     8   8   8   8   4   8
#     4  11  28  45  64  93 137 180 220 283 340 395
#     4  10  24  46  69  98 136 175 213 260 327 396
#     4   9  19  35  65  95 127 166 222 274 324 387
#     4  10  25  41  65  97 129 176 232 274 336 395
#     4   8  18  34  56 100 124 164 216 266 328 382
#     4  10  21  38  69  96 129 172 223 275 320 398
#
# _framework density 19.925303
#
# number of rings (size 3 to 8) (size 9 to 14) (size 15 to 20)
#    0.000    2.182    0.000    0.000   17.818    2.182 
#    0.000    0.909    0.000    0.000    0.000    0.000 
#    0.000    0.000    0.000    0.000    0.000    0.000 
#
# Total GULP energy -122517.732916 kJ/mol
# GULP energy per Si atom -5568.987860 kJ/mol
# Density = 1.987995 g / cm^3
# Si number density = 19.925303 Si / 1000 Ang^3
#
#
#
# Elastic Constant Matrix: (Units=GPa)
#
#
# Indices 1 2 3 4 5 6 
#
# 1 107.9054 70.4575 60.7071 0.0000 0.7572 0.0000
# 2 70.4575 114.6754 44.5292 0.0000 -18.1767 0.0000
# 3 60.7071 44.5292 113.6519 0.0000 -0.6931 0.0000
# 4 0.0000 0.0000 0.0000 16.2293 0.0000 10.5087
# 5 0.7572 -18.1767 -0.6931 0.0000 27.5393 0.0000
# 6 0.0000 0.0000 0.0000 10.5087 0.0000 18.2852
#
#
#
# Elastic Compliance Matrix: (Units=1/GPa)
#
#
# Indices 1 2 3 4 5 6 
#
# 1 0.020336 -0.011264 -0.006499 0.000000 -0.008157 0.000000
# 2 -0.011264 0.017923 -0.000932 0.000000 0.012116 0.000000
# 3 -0.006499 -0.000932 0.012635 0.000000 -0.000118 0.000000
# 4 0.000000 0.000000 0.000000 0.098138 0.000000 -0.056401
# 5 -0.008157 0.012116 -0.000118 0.000000 0.044530 0.000000
# 6 0.000000 0.000000 0.000000 -0.056401 0.000000 0.087104
#
#
# Mechanical properties :
#
#
# Convention : Reuss Voigt Hill
#
# Bulk Modulus (GPa) = 74.05063 76.40226 75.22645
# Shear Modulus (GPa) = 15.50121 23.11334 19.30728
#
# Velocity S-wave (km/s) = 2.79223 3.40957 3.11623
# Velocity P-wave (km/s) = 6.90219 7.34356 7.12629
#
# Compressibility (1/GPa) = 0.01350427
#
# Stress axis : x y z
#
# Youngs Moduli (GPa) = 49.17493 55.79374 79.14822
#
# Poissons Ratio (x) = 0.62845 0.51437
# Poissons Ratio (y) = 0.55390 0.07376
# Poissons Ratio (z) = 0.31958 0.05200
#
# Static dielectric constant tensor:
#      x y z
#    x 1.701170 0.000000 -0.000490 
#    y 0.000000 1.675040 0.000000 
#    z -0.000490 0.000000 1.680480 
# 
# From -- ./inp_files/5813.got.cif
#   From: 2010.05.17/outbox.cif.g08.bks.cpg/sg15_3_cif.got.tgz:5813.got - 2010.06.03 18:47:42.
