data_PCOD9282898
_publ_section_title
;
Structure prediction by ZEFSAII (Michael W. Deem and Ramdas Pophale) SiO2 
 PCOD9282898
Probable space group: C 2/C
;
_chemical_formula_sum "Si O2"
_cell_formula_units_Z 64
_cell_length_a 21.276558
_cell_length_b 5.327076
_cell_length_c 27.714336
_cell_angle_alpha 90.000000
_cell_angle_beta 99.963600
_cell_angle_gamma 90.000000
_cell_volume 3093.817993
_symmetry_space_group_name_H-M "C 2/C"
_symmetry_group_IT_number 15
_symmetry_cell_setting 'monoclinic'
loop_
_space_group_symop_operation_xyz
x,y,z
-x,y,1/2-z
-x,-y,-z
x,-y,1/2+z
1/2+x,1/2+y,z
1/2-x,1/2+y,1/2-z
1/2-x,1/2-y,-z
1/2+x,1/2-y,1/2+z
loop_
_atom_site_type_symbol
_atom_site_label
_atom_site_fract_x
_atom_site_fract_y
_atom_site_fract_z
Si Si1 0.135053 0.904196 0.512674
Si Si2 0.218410 0.767571 0.686532
Si Si3 0.749515 0.681744 0.556473
Si Si4 0.116660 0.367061 0.370903
Si Si5 0.352199 0.038988 0.908270
Si Si6 0.199713 0.235161 0.295299
Si Si7 0.460461 0.815401 0.958590
Si Si8 0.424162 0.629730 0.589227
O O1 0.115355 0.661533 0.539754
O O2 0.136379 0.866698 0.455986
O O3 0.203512 0.942433 0.547134
O O4 0.088044 0.134876 0.517886
O O5 0.168029 0.714054 0.637964
O O6 0.189779 0.750496 0.736517
O O7 0.270565 0.540354 0.690091
O O8 0.250150 0.041073 0.685753
O O9 0.750000 0.750000 0.500000
O O10 0.817538 0.639055 0.589026
O O11 0.708634 0.881267 0.581897
O O12 0.139164 0.299738 0.320046
O O13 0.084985 0.636020 0.376255
O O14 0.074775 0.137970 0.385246
O O15 0.414989 0.878050 0.905741
O O16 0.517558 0.667546 0.939383
O O17 0.500000 0.000000 0.000000
#
# Coordination Sequence:
#
# PCOD9282898 Si02
#       8
#     8   8   8   8   8   8   8   8
#     4  11  23  37  60  84 121 164 206 258 294 360
#     4  10  21  39  65  94 122 160 197 254 314 365
#     4  11  22  34  53  88 128 157 190 239 309 376
#     4  12  24  38  61  89 127 161 198 247 311 382
#     4  11  23  37  62  88 121 162 205 261 299 358
#     4  10  21  40  63  93 128 154 198 250 312 388
#     4  11  24  42  58  85 121 168 223 258 289 352
#     4  12  25  39  59  86 121 172 206 243 303 358
#
# _framework density 20.686412000000001
#
# number of rings (size 3 to 8) (size 9 to 14) (size 15 to 20)
#    0.000    1.000    3.750    3.375    5.250    1.000 
#    0.000    0.000    0.000    0.750    0.000    0.000 
#    0.000    0.000    0.000    0.000    0.000    0.000 
#
# Total GULP energy -178448.895413 kJ/mol
# GULP energy per Si atom -5576.527982 kJ/mol
# Density = 2.063933 g / cm^3
# Si number density = 20.686412 Si / 1000 Ang^3
#
#
#
# Elastic Constant Matrix: (Units=GPa)
#
#
# Indices 1 2 3 4 5 6 
#
# 1 48.9220 7.3737 -4.1041 0.0000 -2.7222 0.0000
# 2 7.3737 59.9544 -3.7790 0.0000 -4.9555 0.0000
# 3 -4.1041 -3.7790 58.8653 0.0000 -14.7999 0.0000
# 4 0.0000 0.0000 0.0000 25.0860 0.0000 2.7046
# 5 -2.7222 -4.9555 -14.7999 0.0000 22.0644 0.0000
# 6 0.0000 0.0000 0.0000 2.7046 0.0000 5.4403
#
#
#
# Elastic Compliance Matrix: (Units=1/GPa)
#
#
# Indices 1 2 3 4 5 6 
#
# 1 0.021157 -0.002160 0.002250 0.000000 0.003635 0.000000
# 2 -0.002160 0.017518 0.002281 0.000000 0.005198 0.000000
# 3 0.002250 0.002281 0.021038 0.000000 0.014901 0.000000
# 4 0.000000 0.000000 0.000000 0.042120 0.000000 -0.020940
# 5 0.003635 0.005198 0.014901 0.000000 0.056933 0.000000
# 6 0.000000 0.000000 0.000000 -0.020940 0.000000 0.194223
#
#
# Mechanical properties :
#
#
# Convention : Reuss Voigt Hill
#
# Bulk Modulus (GPa) = 15.51449 18.52476 17.01963
# Shear Modulus (GPa) = 13.52331 21.73488 17.62910
#
# Velocity S-wave (km/s) = 2.55959 3.24494 2.92242
# Velocity P-wave (km/s) = 4.03131 4.79729 4.43088
#
# Compressibility (1/GPa) = 0.06445587
#
# Stress axis : x y z
#
# Youngs Moduli (GPa) = 47.26508 57.08287 47.53380
#
# Poissons Ratio (x) = 0.12329 -0.10696
# Poissons Ratio (y) = 0.10209 -0.10842
# Poissons Ratio (z) = -0.10636 -0.13020
#
# Static dielectric constant tensor:
#      x y z
#    x 1.894400 0.000000 -0.026290 
#    y 0.000000 1.961500 0.000000 
#    z -0.026290 0.000000 1.767650 
# 
# From -- ./inp_files/299931.got.cif
#   From: 2010.05.17/outbox.cif.g08.bks.cpg/sg15_150_cif.got.tgz:299931.got - 2010.06.03 18:47:42.
