data_PCOD9282526
_publ_section_title
;
Structure prediction by ZEFSAII (Michael W. Deem and Ramdas Pophale) SiO2 
 PCOD9282526
Probable space group: C 2/C
;
_chemical_formula_sum "Si O2"
_cell_formula_units_Z 32
_cell_length_a 23.105786
_cell_length_b 5.116980
_cell_length_c 12.199355
_cell_angle_alpha 90.000000
_cell_angle_beta 73.808194
_cell_angle_gamma 90.000000
_cell_volume 1385.139290
_symmetry_space_group_name_H-M "C 2/C"
_symmetry_group_IT_number 15
_symmetry_cell_setting 'monoclinic'
loop_
_space_group_symop_operation_xyz
x,y,z
-x,y,1/2-z
-x,-y,-z
x,-y,1/2+z
1/2+x,1/2+y,z
1/2-x,1/2+y,1/2-z
1/2-x,1/2-y,-z
1/2+x,1/2-y,1/2+z
loop_
_atom_site_type_symbol
_atom_site_label
_atom_site_fract_x
_atom_site_fract_y
_atom_site_fract_z
Si Si1 0.353318 0.211782 0.385593
Si Si2 0.871722 0.013695 0.171632
Si Si3 0.071484 0.484456 0.967485
Si Si4 0.261903 0.530269 0.586935
O O1 0.379531 0.432855 0.293588
O O2 0.402803 0.053163 0.425895
O O3 0.306510 0.331204 0.498743
O O4 0.306033 0.037435 0.343160
O O5 0.907783 0.801518 0.080010
O O6 0.802257 0.952124 0.174702
O O7 0.897659 0.296425 0.126958
O O8 0.000000 0.500000 0.000000
O O9 0.250000 0.750000 0.500000
#
# Coordination Sequence:
#
# PCOD9282526 Si02
#       4
#     8   8   8   8
#     4  10  24  40  65  99 134 173 222 269 338 400
#     4  11  25  41  71  97 130 180 221 269 344 397
#     4  11  25  47  66  96 133 175 228 285 321 390
#     4  10  21  39  62  97 138 169 210 278 326 401
#
# _framework density 23.102371000000002
#
# number of rings (size 3 to 8) (size 9 to 14) (size 15 to 20)
#    0.000    1.500    2.500    0.750    7.000    1.000 
#    0.000    2.500    0.000    0.000    0.000    0.000 
#    0.000    0.000    0.000    0.000    0.000    0.000 
#
# Total GULP energy -89320.760531 kJ/mol
# GULP energy per Si atom -5582.547533 kJ/mol
# Density = 2.304979 g / cm^3
# Si number density = 23.102371 Si / 1000 Ang^3
#
#
#
# Elastic Constant Matrix: (Units=GPa)
#
#
# Indices 1 2 3 4 5 6 
#
# 1 174.9275 10.5869 17.5783 0.0000 -7.3881 0.0000
# 2 10.5869 55.0425 -4.3354 0.0000 -10.2217 0.0000
# 3 17.5783 -4.3354 66.1522 0.0000 8.4507 0.0000
# 4 0.0000 0.0000 0.0000 44.1602 0.0000 0.4351
# 5 -7.3881 -10.2217 8.4507 0.0000 14.4901 0.0000
# 6 0.0000 0.0000 0.0000 0.4351 0.0000 23.3828
#
#
#
# Elastic Compliance Matrix: (Units=1/GPa)
#
#
# Indices 1 2 3 4 5 6 
#
# 1 0.006140 -0.000616 -0.002179 0.000000 0.003967 0.000000
# 2 -0.000616 0.020987 -0.000337 0.000000 0.014688 0.000000
# 3 -0.002179 -0.000337 0.017121 0.000000 -0.011334 0.000000
# 4 0.000000 0.000000 0.000000 0.022649 0.000000 -0.000421
# 5 0.003967 0.014688 -0.011334 0.000000 0.088006 0.000000
# 6 0.000000 0.000000 0.000000 -0.000421 0.000000 0.042774
#
#
# Mechanical properties :
#
#
# Convention : Reuss Voigt Hill
#
# Bulk Modulus (GPa) = 26.32603 38.19798 32.26200
# Shear Modulus (GPa) = 23.08356 34.55943 28.82150
#
# Velocity S-wave (km/s) = 3.16442 3.87192 3.53591
# Velocity P-wave (km/s) = 4.97710 6.04641 5.53763
#
# Compressibility (1/GPa) = 0.03798522
#
# Stress axis : x y z
#
# Youngs Moduli (GPa) = 162.85515 47.64793 58.40644
#
# Poissons Ratio (x) = 0.02935 0.12726
# Poissons Ratio (y) = 0.10031 0.01969
# Poissons Ratio (z) = 0.35483 0.01606
#
# Static dielectric constant tensor:
#      x y z
#    x 1.910670 0.000000 0.128510 
#    y 0.000000 1.972450 0.000000 
#    z 0.128510 0.000000 1.970430 
# 
# From -- ./inp_files/109025.got.cif
#   From: 2010.05.17/outbox.cif.g08.bks.cpg/sg15_55_cif.got.tgz:109025.got - 2010.06.03 18:47:42.
