data_PCOD9282279
_publ_section_title
;
Structure prediction by ZEFSAII (Michael W. Deem and Ramdas Pophale) SiO2 
 PCOD9282279
Probable space group: C 2/C
;
_chemical_formula_sum "Si O2"
_cell_formula_units_Z 40
_cell_length_a 24.247001
_cell_length_b 13.964971
_cell_length_c 8.543566
_cell_angle_alpha 90.000000
_cell_angle_beta 38.590905
_cell_angle_gamma 90.000000
_cell_volume 1804.478275
_symmetry_space_group_name_H-M "C 2/C"
_symmetry_group_IT_number 15
_symmetry_cell_setting 'monoclinic'
loop_
_space_group_symop_operation_xyz
x,y,z
-x,y,1/2-z
-x,-y,-z
x,-y,1/2+z
1/2+x,1/2+y,z
1/2-x,1/2+y,1/2-z
1/2-x,1/2-y,-z
1/2+x,1/2-y,1/2+z
loop_
_atom_site_type_symbol
_atom_site_label
_atom_site_fract_x
_atom_site_fract_y
_atom_site_fract_z
Si Si1 0.849798 0.770851 0.730692
Si Si2 0.809543 0.691136 0.496512
Si Si3 0.016563 0.707907 0.530146
Si Si4 0.828855 0.939214 0.009350
Si Si5 0.076701 0.072357 0.881640
O O1 0.847461 0.759797 0.550501
O O2 0.925271 0.701977 0.635827
O O3 0.750000 0.750000 0.000000
O O4 0.859107 0.871685 0.798311
O O5 0.750000 0.750000 0.500000
O O6 0.754122 0.610743 0.717515
O O7 0.897429 0.650255 0.218394
O O8 0.047200 0.818137 0.437957
O O9 0.000000 0.691837 0.750000
O O10 0.898646 0.941455 0.993518
O O11 0.835708 0.043163 0.914283
O O12 0.000000 0.000000 0.000000
#
# Coordination Sequence:
#
# PCOD9282279 Si02
#       5
#     8   8   8   8   8
#     4  10  21  39  60  91 130 169 219 270 326 396
#     4  11  23  40  61  89 134 178 225 271 322 404
#     4  12  21  40  64  96 135 173 221 272 337 400
#     4  11  24  39  57  94 136 176 212 265 339 404
#     4  12  22  36  61  94 141 171 209 266 343 410
#
# _framework density 22.167072999999998
#
# number of rings (size 3 to 8) (size 9 to 14) (size 15 to 20)
#    0.000    0.800    6.000    2.400    2.800    1.600 
#    0.000    0.000    0.000    0.000    0.000   29.400 
#    0.000    0.000    0.000    0.000    0.000    0.000 
#
# Total GULP energy -111436.250443 kJ/mol
# GULP energy per Si atom -5571.812522 kJ/mol
# Density = 2.211662 g / cm^3
# Si number density = 22.167073 Si / 1000 Ang^3
#
#
#
# Elastic Constant Matrix: (Units=GPa)
#
#
# Indices 1 2 3 4 5 6 
#
# 1 176.1901 11.6346 55.5968 0.0000 9.6406 0.0000
# 2 11.6346 29.0991 17.3222 0.0000 8.4476 0.0000
# 3 55.5968 17.3222 174.9825 0.0000 9.5369 0.0000
# 4 0.0000 0.0000 0.0000 43.8626 0.0000 2.3488
# 5 9.6406 8.4476 9.5369 0.0000 38.6417 0.0000
# 6 0.0000 0.0000 0.0000 2.3488 0.0000 27.0759
#
#
#
# Elastic Compliance Matrix: (Units=1/GPa)
#
#
# Indices 1 2 3 4 5 6 
#
# 1 0.006391 -0.001191 -0.001865 0.000000 -0.000874 0.000000
# 2 -0.001191 0.038821 -0.003059 0.000000 -0.007435 0.000000
# 3 -0.001865 -0.003059 0.006638 0.000000 -0.000504 0.000000
# 4 0.000000 0.000000 0.000000 0.022905 0.000000 -0.001987
# 5 -0.000874 -0.007435 -0.000504 0.000000 0.027846 0.000000
# 6 0.000000 0.000000 0.000000 -0.001987 0.000000 0.037106
#
#
# Mechanical properties :
#
#
# Convention : Reuss Voigt Hill
#
# Bulk Modulus (GPa) = 25.24088 61.04211 43.14150
# Shear Modulus (GPa) = 30.27666 41.63058 35.95362
#
# Velocity S-wave (km/s) = 3.69974 4.33833 4.03170
# Velocity P-wave (km/s) = 5.44629 7.25892 6.41693
#
# Compressibility (1/GPa) = 0.03961826
#
# Stress axis : x y z
#
# Youngs Moduli (GPa) = 156.47884 25.75915 150.65397
#
# Poissons Ratio (x) = 0.03069 0.28096
# Poissons Ratio (y) = 0.18642 0.46090
# Poissons Ratio (z) = 0.29182 0.07881
#
# Static dielectric constant tensor:
#      x y z
#    x 1.896940 0.000000 0.083550 
#    y 0.000000 1.914260 0.000000 
#    z 0.083550 0.000000 2.327580 
# 
# From -- ./inp_files/61366.got.cif
#   From: 2010.05.17/outbox.cif.g08.bks.cpg/sg15_31_cif.got.tgz:61366.got - 2010.06.03 18:47:42.
