data_PCOD9282726
_publ_section_title
;
Structure prediction by ZEFSAII (Michael W. Deem and Ramdas Pophale) SiO2 
 PCOD9282726
Probable space group: C 2/C
;
_chemical_formula_sum "Si O2"
_cell_formula_units_Z 44
_cell_length_a 13.618629
_cell_length_b 19.037249
_cell_length_c 8.557352
_cell_angle_alpha 90.000000
_cell_angle_beta 105.694597
_cell_angle_gamma 90.000000
_cell_volume 2135.874516
_symmetry_space_group_name_H-M "C 2/C"
_symmetry_group_IT_number 15
_symmetry_cell_setting 'monoclinic'
loop_
_space_group_symop_operation_xyz
x,y,z
-x,y,1/2-z
-x,-y,-z
x,-y,1/2+z
1/2+x,1/2+y,z
1/2-x,1/2+y,1/2-z
1/2-x,1/2-y,-z
1/2+x,1/2-y,1/2+z
loop_
_atom_site_type_symbol
_atom_site_label
_atom_site_fract_x
_atom_site_fract_y
_atom_site_fract_z
Si Si1 0.281699 0.449080 0.595178
Si Si2 0.832793 0.094230 0.472895
Si Si3 0.955236 0.430264 0.058479
Si Si4 0.482955 0.783343 0.558681
Si Si5 0.042291 0.855280 0.944631
Si Si6 0.250000 0.750000 0.500000
O O1 0.311181 0.529745 0.578240
O O2 0.296348 0.428050 0.782815
O O3 0.166238 0.436641 0.495354
O O4 0.356190 0.400783 0.522538
O O5 0.774822 0.164895 0.497021
O O6 0.953933 0.109501 0.511259
O O7 0.000000 0.424339 0.250000
O O8 0.987189 0.360707 0.979828
O O9 0.000000 0.500000 0.000000
O O10 0.500000 0.775877 0.750000
O O11 0.553301 0.724337 0.507674
O O12 0.364885 0.766378 0.476312
O O13 0.000000 0.852764 0.750000
#
# Coordination Sequence:
#
# PCOD9282726 Si02
#       6
#     8   8   8   8   8   4
#     4  11  22  39  62  89 121 155 196 249 300 350
#     4  10  21  39  64  90 121 157 199 245 298 360
#     4  12  25  40  59  84 117 157 203 248 296 357
#     4  11  23  39  61  88 117 154 200 245 298 358
#     4   9  21  39  60  89 121 154 193 241 298 360
#     4  10  22  42  62  84 122 162 196 244 298 354
#
# _framework density 20.600463000000001
#
# number of rings (size 3 to 8) (size 9 to 14) (size 15 to 20)
#    0.000    1.455    0.000    4.909    0.000    5.091 
#    0.000    0.909    0.000    0.000    0.000    0.000 
#    0.000    0.000    0.000    0.000    0.000    0.000 
#
# Total GULP energy -122549.623871 kJ/mol
# GULP energy per Si atom -5570.437449 kJ/mol
# Density = 2.055357 g / cm^3
# Si number density = 20.600463 Si / 1000 Ang^3
#
#
#
# Elastic Constant Matrix: (Units=GPa)
#
#
# Indices 1 2 3 4 5 6 
#
# 1 108.4482 85.6940 24.5357 0.0000 6.4599 0.0000
# 2 85.6940 217.1450 14.0777 0.0000 -4.8569 0.0000
# 3 24.5357 14.0777 21.9194 0.0000 6.7366 0.0000
# 4 0.0000 0.0000 0.0000 31.8426 0.0000 -25.8965
# 5 6.4599 -4.8569 6.7366 0.0000 16.8439 0.0000
# 6 0.0000 0.0000 0.0000 -25.8965 0.0000 57.1705
#
#
#
# Elastic Compliance Matrix: (Units=1/GPa)
#
#
# Indices 1 2 3 4 5 6 
#
# 1 0.017482 -0.005983 -0.014976 0.000000 -0.002440 0.000000
# 2 -0.005983 0.006988 0.001008 0.000000 0.003906 0.000000
# 3 -0.014976 0.001008 0.068276 0.000000 -0.021272 0.000000
# 4 0.000000 0.000000 0.000000 0.049721 0.000000 0.022522
# 5 -0.002440 0.003906 -0.021272 0.000000 0.069939 0.000000
# 6 0.000000 0.000000 0.000000 0.022522 0.000000 0.027693
#
#
# Mechanical properties :
#
#
# Convention : Reuss Voigt Hill
#
# Bulk Modulus (GPa) = 18.92356 66.23638 42.57997
# Shear Modulus (GPa) = 16.80014 36.05175 26.42595
#
# Velocity S-wave (km/s) = 2.85883 4.18789 3.58548
# Velocity P-wave (km/s) = 4.48366 7.45703 6.15266
#
# Compressibility (1/GPa) = 0.05284417
#
# Stress axis : x y z
#
# Youngs Moduli (GPa) = 57.20122 143.09677 14.64643
#
# Poissons Ratio (x) = 0.85612 0.21935
# Poissons Ratio (y) = 0.34222 -0.01476
# Poissons Ratio (z) = 0.85667 -0.14425
#
# Static dielectric constant tensor:
#      x y z
#    x 1.723750 0.000000 0.001300 
#    y 0.000000 1.696820 0.000000 
#    z 0.001300 0.000000 1.756560 
# 
# From -- ./inp_files/31040.got.cif
#   From: 2010.05.17/outbox.cif.g08.bks.cpg/sg15_16_cif.got.tgz:31040.got - 2010.06.03 18:47:42.
