data_PCOD9282966
_publ_section_title
;
Structure prediction by ZEFSAII (Michael W. Deem and Ramdas Pophale) SiO2 
 PCOD9282966
Probable space group: C 2/C
;
_chemical_formula_sum "Si O2"
_cell_formula_units_Z 44
_cell_length_a 9.984411
_cell_length_b 21.246441
_cell_length_c 11.382784
_cell_angle_alpha 90.000000
_cell_angle_beta 83.570336
_cell_angle_gamma 90.000000
_cell_volume 2399.478315
_symmetry_space_group_name_H-M "C 2/C"
_symmetry_group_IT_number 15
_symmetry_cell_setting 'monoclinic'
loop_
_space_group_symop_operation_xyz
x,y,z
-x,y,1/2-z
-x,-y,-z
x,-y,1/2+z
1/2+x,1/2+y,z
1/2-x,1/2+y,1/2-z
1/2-x,1/2-y,-z
1/2+x,1/2-y,1/2+z
loop_
_atom_site_type_symbol
_atom_site_label
_atom_site_fract_x
_atom_site_fract_y
_atom_site_fract_z
Si Si1 0.399960 0.945681 0.967398
Si Si2 0.000000 0.087757 0.750000
Si Si3 0.500000 0.631624 0.250000
Si Si4 0.771530 0.209642 0.180921
Si Si5 0.773577 0.843075 0.413177
Si Si6 0.890088 0.982131 0.607518
Si Si7 0.000000 0.640565 0.250000
O O1 0.260945 0.972245 0.924030
O O2 0.479541 0.904271 0.863865
O O3 0.340122 0.897305 0.069714
O O4 0.500000 0.000000 0.000000
O O5 0.912804 0.128935 0.848980
O O6 0.896269 0.039760 0.697890
O O7 0.375873 0.680007 0.262829
O O8 0.551047 0.581960 0.342511
O O9 0.771823 0.284206 0.161348
O O10 0.628466 0.185216 0.239181
O O11 0.791867 0.181418 0.046102
O O12 0.000000 0.000000 0.500000
#
# Coordination Sequence:
#
# PCOD9282966 Si02
#       7
#     8   4   4   8   8   8   4
#     4  11  24  39  60  91 129 159 198 256 312 367
#     4  11  21  36  66  86 121 155 208 254 298 365
#     4  11  20  38  62  90 116 161 208 252 302 367
#     4  10  21  39  66  83 123 157 207 248 303 367
#     4  10  21  41  60  90 117 162 200 252 302 363
#     4  11  22  38  62  90 118 161 206 255 304 362
#     4  10  21  40  60  90 115 166 198 248 312 360
#
# _framework density 18.337319999999998
#
# number of rings (size 3 to 8) (size 9 to 14) (size 15 to 20)
#    0.000    1.455    5.455    0.545    5.091    0.000 
#    3.273    0.000    0.000    5.455    0.000    0.000 
#    0.000    0.000    0.000    0.000    0.000    0.000 
#
# Total GULP energy -122557.076208 kJ/mol
# GULP energy per Si atom -5570.776191 kJ/mol
# Density = 1.829558 g / cm^3
# Si number density = 18.337320 Si / 1000 Ang^3
#
#
#
# Elastic Constant Matrix: (Units=GPa)
#
#
# Indices 1 2 3 4 5 6 
#
# 1 154.9443 88.2190 52.7611 0.0000 -2.5701 0.0000
# 2 88.2190 145.5586 34.8028 0.0000 -3.0428 0.0000
# 3 52.7611 34.8028 46.3864 0.0000 -20.5321 0.0000
# 4 0.0000 0.0000 0.0000 7.2702 0.0000 -53.4018
# 5 -2.5701 -3.0428 -20.5321 0.0000 32.0957 0.0000
# 6 0.0000 0.0000 0.0000 -53.4018 0.0000 -121.7844
#
#
#
# Elastic Compliance Matrix: (Units=1/GPa)
#
#
# Indices 1 2 3 4 5 6 
#
# 1 0.015695 -0.005213 -0.018977 0.000000 -0.011377 0.000000
# 2 -0.005213 0.010596 -0.002457 0.000000 -0.000984 0.000000
# 3 -0.018977 -0.002457 0.061674 0.000000 0.037701 0.000000
# 4 0.000000 0.000000 0.000000 0.032587 0.000000 -0.014289
# 5 -0.011377 -0.000984 0.037701 0.000000 0.054270 0.000000
# 6 0.000000 0.000000 0.000000 -0.014289 0.000000 -0.001945
#
#
# Mechanical properties :
#
#
# Convention : Reuss Voigt Hill
#
# Bulk Modulus (GPa) = 28.84136 77.60614 53.22375
# Shear Modulus (GPa) = 21.03242 -5.07660 7.97791
#
# Velocity S-wave (km/s) = 3.39037 -1.66567 2.08808
# Velocity P-wave (km/s) = 5.57571 6.22206 5.90773
#
# Compressibility (1/GPa) = 0.03467243
#
# Stress axis : x y z
#
# Youngs Moduli (GPa) = 63.71376 94.37286 16.21433
#
# Poissons Ratio (x) = 0.49196 0.30770
# Poissons Ratio (y) = 0.33213 0.03983
# Poissons Ratio (z) = 1.20909 0.23184
#
# Static dielectric constant tensor:
#      x y z
#    x 1.724280 0.000000 0.200220 
#    y 0.000000 1.667130 0.000000 
#    z 0.200220 0.000000 1.851900 
# 
# From -- ./inp_files/78167.got.cif
#   From: 2010.05.17/outbox.cif.g08.bks.cpg/sg15_40_cif.got.tgz:78167.got - 2010.06.03 18:47:42.
