data_PCOD9282060
_publ_section_title
;
Structure prediction by ZEFSAII (Michael W. Deem and Ramdas Pophale) SiO2 
 PCOD9282060
Probable space group: C 2/C
;
_chemical_formula_sum "Si O2"
_cell_formula_units_Z 40
_cell_length_a 14.135800
_cell_length_b 13.570243
_cell_length_c 9.118746
_cell_angle_alpha 90.000000
_cell_angle_beta 67.530151
_cell_angle_gamma 90.000000
_cell_volume 1616.415757
_symmetry_space_group_name_H-M "C 2/C"
_symmetry_group_IT_number 15
_symmetry_cell_setting 'monoclinic'
loop_
_space_group_symop_operation_xyz
x,y,z
-x,y,1/2-z
-x,-y,-z
x,-y,1/2+z
1/2+x,1/2+y,z
1/2-x,1/2+y,1/2-z
1/2-x,1/2-y,-z
1/2+x,1/2-y,1/2+z
loop_
_atom_site_type_symbol
_atom_site_label
_atom_site_fract_x
_atom_site_fract_y
_atom_site_fract_z
Si Si1 0.780365 0.583318 0.295945
Si Si2 0.000000 0.807635 0.750000
Si Si3 0.613833 0.014888 0.994073
Si Si4 0.856429 0.272741 0.088480
Si Si5 0.000000 0.196300 0.750000
Si Si6 0.402832 0.430165 0.059786
O O1 0.871314 0.540615 0.344605
O O2 0.821249 0.576831 0.105946
O O3 0.733145 0.690775 0.358807
O O4 0.690680 0.504777 0.378206
O O5 0.071815 0.747362 0.815157
O O6 0.078636 0.868534 0.599756
O O7 0.668943 0.112552 0.894261
O O8 0.500000 0.000000 0.000000
O O9 0.930774 0.255343 0.905278
O O10 0.078190 0.134195 0.805472
O O11 0.500000 0.500000 0.000000
#
# Coordination Sequence:
#
# PCOD9282060 Si02
#       6
#     8   4   8   8   4   8
#     4  12  25  46  74 107 141 192 251 300 358 442
#     4  10  21  38  69 106 148 180 231 292 383 418
#     4  12  30  51  70 100 154 200 248 298 370 438
#     4  11  25  45  75 105 143 192 246 296 364 450
#     4  10  21  38  75 106 146 182 227 294 381 432
#     4  11  20  37  70 109 152 176 232 311 378 422
#
# _framework density 24.746110999999999
#
# number of rings (size 3 to 8) (size 9 to 14) (size 15 to 20)
#    0.000    0.800    4.000    4.200    5.600    0.000 
#    3.600    2.000    0.000    0.000    0.000    0.000 
#    0.000    0.000    0.000    0.000    0.000    0.000 
#
# Total GULP energy -111892.022718 kJ/mol
# GULP energy per Si atom -5594.601136 kJ/mol
# Density = 2.468979 g / cm^3
# Si number density = 24.746111 Si / 1000 Ang^3
#
#
#
# Elastic Constant Matrix: (Units=GPa)
#
#
# Indices 1 2 3 4 5 6 
#
# 1 122.1582 14.9508 13.5071 0.0000 6.4637 0.0000
# 2 14.9508 82.0691 28.7447 0.0000 -6.4001 0.0000
# 3 13.5071 28.7447 101.9908 0.0000 15.1187 0.0000
# 4 0.0000 0.0000 0.0000 -11.3272 0.0000 -20.6734
# 5 6.4637 -6.4001 15.1187 0.0000 37.4033 0.0000
# 6 0.0000 0.0000 0.0000 -20.6734 0.0000 22.6696
#
#
#
# Elastic Compliance Matrix: (Units=1/GPa)
#
#
# Indices 1 2 3 4 5 6 
#
# 1 0.008504 -0.001502 -0.000475 0.000000 -0.001534 0.000000
# 2 -0.001502 0.014403 -0.004536 0.000000 0.004557 0.000000
# 3 -0.000475 -0.004536 0.011966 0.000000 -0.005531 0.000000
# 4 0.000000 0.000000 0.000000 -0.033134 0.000000 -0.030217
# 5 -0.001534 0.004557 -0.005531 0.000000 0.030016 0.000000
# 6 0.000000 0.000000 0.000000 -0.030217 0.000000 0.016556
#
#
# Mechanical properties :
#
#
# Convention : Reuss Voigt Hill
#
# Bulk Modulus (GPa) = 45.77622 46.73593 46.25608
# Shear Modulus (GPa) = 72.86617 26.35016 49.60816
#
# Velocity S-wave (km/s) = 5.43226 3.26670 4.48223
# Velocity P-wave (km/s) = 7.60818 5.75809 6.74685
#
# Compressibility (1/GPa) = 0.02184540
#
# Stress axis : x y z
#
# Youngs Moduli (GPa) = 117.59558 69.43180 83.57035
#
# Poissons Ratio (x) = 0.10431 0.03972
# Poissons Ratio (y) = 0.17667 0.37906
# Poissons Ratio (z) = 0.05589 0.31493
#
# Static dielectric constant tensor:
#      x y z
#    x 1.929400 0.000000 0.044320 
#    y 0.000000 2.066860 0.000000 
#    z 0.044320 0.000000 1.905310 
# 
# From -- ./inp_files/37909.got.cif
#   From: 2010.05.17/outbox.cif.g08.bks.cpg/sg15_19_cif.got.tgz:37909.got - 2010.06.03 18:47:42.
