data_PCOD9282219
_publ_section_title
;
Structure prediction by ZEFSAII (Michael W. Deem and Ramdas Pophale) SiO2 
 PCOD9282219
Probable space group: C 2/C
;
_chemical_formula_sum "Si O2"
_cell_formula_units_Z 52
_cell_length_a 19.208999
_cell_length_b 13.127909
_cell_length_c 9.149900
_cell_angle_alpha 90.000000
_cell_angle_beta 65.043679
_cell_angle_gamma 90.000000
_cell_volume 2091.927277
_symmetry_space_group_name_H-M "C 2/C"
_symmetry_group_IT_number 15
_symmetry_cell_setting 'monoclinic'
loop_
_space_group_symop_operation_xyz
x,y,z
-x,y,1/2-z
-x,-y,-z
x,-y,1/2+z
1/2+x,1/2+y,z
1/2-x,1/2+y,1/2-z
1/2-x,1/2-y,-z
1/2+x,1/2-y,1/2+z
loop_
_atom_site_type_symbol
_atom_site_label
_atom_site_fract_x
_atom_site_fract_y
_atom_site_fract_z
Si Si1 0.824777 0.485066 0.593681
Si Si2 0.600725 0.485568 0.610176
Si Si3 0.930850 0.850061 0.116200
Si Si4 0.255606 0.697665 0.836737
Si Si5 0.000000 0.689144 0.250000
Si Si6 0.421298 0.988794 0.265295
Si Si7 0.184947 0.877249 0.790466
O O1 0.770991 0.581954 0.626447
O O2 0.850003 0.443934 0.415348
O O3 0.902093 0.510783 0.613400
O O4 0.774556 0.406212 0.727925
O O5 0.553525 0.405667 0.551334
O O6 0.567709 0.561549 0.761976
O O7 0.657066 0.415562 0.657882
O O8 0.640131 0.561206 0.456275
O O9 0.843065 0.807953 0.199398
O O10 0.988395 0.762374 0.120811
O O11 0.190532 0.756805 0.801855
O O12 0.250000 0.750000 0.000000
O O13 0.930377 0.608091 0.306038
O O14 0.500000 0.939386 0.250000
#
# Coordination Sequence:
#
# PCOD9282219 Si02
#       7
#     8   8   8   8   4   8   8
#     4  12  21  42  67  92 129 168 212 267 323 374
#     4  10  21  39  59  92 127 162 204 279 323 374
#     4  11  22  41  63  91 128 166 221 260 322 387
#     4  12  22  36  66  97 124 173 210 268 328 374
#     4  10  24  44  66  90 126 180 220 246 316 404
#     4  10  25  42  63  91 125 174 210 256 311 386
#     4  11  21  37  60  95 131 158 210 265 335 380
#
# _framework density 24.85746
#
# number of rings (size 3 to 8) (size 9 to 14) (size 15 to 20)
#    0.462    0.615    4.615    4.154    0.000    1.231 
#    2.769    0.000    0.000    1.846    0.000    0.000 
#    0.000    0.000    0.000    0.000    0.000    0.000 
#
# Total GULP energy -145290.578733 kJ/mol
# GULP energy per Si atom -5588.099182 kJ/mol
# Density = 2.480088 g / cm^3
# Si number density = 24.857460 Si / 1000 Ang^3
#
#
#
# Elastic Constant Matrix: (Units=GPa)
#
#
# Indices 1 2 3 4 5 6 
#
# 1 65.3089 13.1804 12.2131 0.0000 21.4188 0.0000
# 2 13.1804 65.4961 21.8194 0.0000 12.0723 0.0000
# 3 12.2131 21.8194 98.7739 0.0000 25.9338 0.0000
# 4 0.0000 0.0000 0.0000 29.7487 0.0000 16.4826
# 5 21.4188 12.0723 25.9338 0.0000 32.6290 0.0000
# 6 0.0000 0.0000 0.0000 16.4826 0.0000 43.2723
#
#
#
# Elastic Compliance Matrix: (Units=1/GPa)
#
#
# Indices 1 2 3 4 5 6 
#
# 1 0.019864 -0.002019 0.001538 0.000000 -0.013515 0.000000
# 2 -0.002019 0.017121 -0.002802 0.000000 -0.002782 0.000000
# 3 0.001538 -0.002802 0.013327 0.000000 -0.010566 0.000000
# 4 0.000000 0.000000 0.000000 0.042607 0.000000 -0.016229
# 5 -0.013515 -0.002782 -0.010566 0.000000 0.048946 0.000000
# 6 0.000000 0.000000 0.000000 -0.016229 0.000000 0.029291
#
#
# Mechanical properties :
#
#
# Convention : Reuss Voigt Hill
#
# Bulk Modulus (GPa) = 22.85870 36.00051 29.42960
# Shear Modulus (GPa) = 26.00063 33.28773 29.64418
#
# Velocity S-wave (km/s) = 3.23768 3.66340 3.45710
# Velocity P-wave (km/s) = 4.81588 5.69282 5.27261
#
# Compressibility (1/GPa) = 0.04374701
#
# Stress axis : x y z
#
# Youngs Moduli (GPa) = 50.34211 58.40923 75.03611
#
# Poissons Ratio (x) = 0.11792 -0.11543
# Poissons Ratio (y) = 0.10163 0.21024
# Poissons Ratio (z) = -0.07744 0.16365
#
# Static dielectric constant tensor:
#      x y z
#    x 2.080600 0.000000 -0.050980 
#    y 0.000000 1.946090 0.000000 
#    z -0.050980 0.000000 1.925190 
# 
# From -- ./inp_files/55309.got.cif
#   From: 2010.05.17/outbox.cif.g08.bks.cpg/sg15_28_cif.got.tgz:55309.got - 2010.06.03 18:47:42.
