data_PCOD9282962
_publ_section_title
;
Structure prediction by ZEFSAII (Michael W. Deem and Ramdas Pophale) SiO2 
 PCOD9282962
Probable space group: C 2/C
;
_chemical_formula_sum "Si O2"
_cell_formula_units_Z 44
_cell_length_a 7.795934
_cell_length_b 17.280406
_cell_length_c 14.098985
_cell_angle_alpha 90.000000
_cell_angle_beta 101.500914
_cell_angle_gamma 90.000000
_cell_volume 1861.235131
_symmetry_space_group_name_H-M "C 2/C"
_symmetry_group_IT_number 15
_symmetry_cell_setting 'monoclinic'
loop_
_space_group_symop_operation_xyz
x,y,z
-x,y,1/2-z
-x,-y,-z
x,-y,1/2+z
1/2+x,1/2+y,z
1/2-x,1/2+y,1/2-z
1/2-x,1/2-y,-z
1/2+x,1/2-y,1/2+z
loop_
_atom_site_type_symbol
_atom_site_label
_atom_site_fract_x
_atom_site_fract_y
_atom_site_fract_z
Si Si1 0.680056 0.258396 0.101956
Si Si2 0.975252 0.384483 0.520282
Si Si3 0.545361 0.450975 0.623422
Si Si4 0.583844 0.029668 0.859233
Si Si5 0.500000 0.307699 0.750000
Si Si6 0.425580 0.602454 0.579987
O O1 0.562195 0.331212 0.123093
O O2 0.843235 0.241938 0.188865
O O3 0.750000 0.250000 0.000000
O O4 0.544926 0.186911 0.087143
O O5 0.002088 0.458990 0.590858
O O6 0.773558 0.373357 0.465174
O O7 0.078854 0.400718 0.433824
O O8 0.728020 0.494993 0.642403
O O9 0.562309 0.370787 0.679795
O O10 0.416669 0.521669 0.638170
O O11 0.497923 0.423370 0.513390
O O12 0.500000 0.049899 0.750000
#
# Coordination Sequence:
#
# PCOD9282962 Si02
#       6
#     8   8   8   8   4   8
#     4  12  24  46  69 102 143 191 232 301 359 434
#     4  10  23  40  71  99 140 190 232 302 363 425
#     4  10  22  41  69 102 132 184 234 292 350 432
#     4  10  21  39  66 104 140 181 241 292 355 438
#     4  12  26  42  78 102 146 190 250 296 366 420
#     4  10  22  44  70  97 141 184 231 293 363 420
#
# _framework density 23.640217
#
# number of rings (size 3 to 8) (size 9 to 14) (size 15 to 20)
#    0.000    1.455    1.818    2.727   10.182    0.000 
#    6.545    0.000    2.000    0.000    0.000    0.000 
#    0.000    0.000    0.000    0.000    0.000    0.000 
#
# Total GULP energy -122827.586300 kJ/mol
# GULP energy per Si atom -5583.072105 kJ/mol
# Density = 2.358641 g / cm^3
# Si number density = 23.640217 Si / 1000 Ang^3
#
#
#
# Elastic Constant Matrix: (Units=GPa)
#
#
# Indices 1 2 3 4 5 6 
#
# 1 98.4999 35.8948 30.1977 0.0000 38.1076 0.0000
# 2 35.8948 104.6458 19.9681 0.0000 26.1832 0.0000
# 3 30.1977 19.9681 101.2191 0.0000 27.5309 0.0000
# 4 0.0000 0.0000 0.0000 34.3588 0.0000 4.3101
# 5 38.1076 26.1832 27.5309 0.0000 42.7055 0.0000
# 6 0.0000 0.0000 0.0000 4.3101 0.0000 31.4682
#
#
#
# Elastic Compliance Matrix: (Units=1/GPa)
#
#
# Indices 1 2 3 4 5 6 
#
# 1 0.016026 -0.002232 -0.000999 0.000000 -0.012288 0.000000
# 2 -0.002232 0.011613 -0.000279 0.000000 -0.004949 0.000000
# 3 -0.000999 -0.000279 0.012058 0.000000 -0.006711 0.000000
# 4 0.000000 0.000000 0.000000 0.029613 0.000000 -0.004056
# 5 -0.012288 -0.004949 -0.006711 0.000000 0.041742 0.000000
# 6 0.000000 0.000000 0.000000 -0.004056 0.000000 0.032334
#
#
# Mechanical properties :
#
#
# Convention : Reuss Voigt Hill
#
# Bulk Modulus (GPa) = 30.60195 52.94290 41.77243
# Shear Modulus (GPa) = 30.99862 36.26012 33.62937
#
# Velocity S-wave (km/s) = 3.62507 3.92067 3.77576
# Velocity P-wave (km/s) = 5.52218 6.55281 6.05945
#
# Compressibility (1/GPa) = 0.03267765
#
# Stress axis : x y z
#
# Youngs Moduli (GPa) = 62.39922 86.11016 82.93301
#
# Poissons Ratio (x) = 0.19219 0.08281
# Poissons Ratio (y) = 0.13927 0.02315
# Poissons Ratio (z) = 0.06231 0.02404
#
# Static dielectric constant tensor:
#      x y z
#    x 1.964580 0.000000 -0.034710 
#    y 0.000000 2.006020 0.000000 
#    z -0.034710 0.000000 2.073850 
# 
# From -- ./inp_files/134567.got.cif
#   From: 2010.05.17/outbox.cif.g08.bks.cpg/sg15_68_cif.got.tgz:134567.got - 2010.06.03 18:47:42.
