data_PCOD9282101
_publ_section_title
;
Structure prediction by ZEFSAII (Michael W. Deem and Ramdas Pophale) SiO2 
 PCOD9282101
Probable space group: C 2/C
;
_chemical_formula_sum "Si O2"
_cell_formula_units_Z 56
_cell_length_a 5.962138
_cell_length_b 29.532928
_cell_length_c 17.223667
_cell_angle_alpha 90.000000
_cell_angle_beta 57.378236
_cell_angle_gamma 90.000000
_cell_volume 2554.312187
_symmetry_space_group_name_H-M "C 2/C"
_symmetry_group_IT_number 15
_symmetry_cell_setting 'monoclinic'
loop_
_space_group_symop_operation_xyz
x,y,z
-x,y,1/2-z
-x,-y,-z
x,-y,1/2+z
1/2+x,1/2+y,z
1/2-x,1/2+y,1/2-z
1/2-x,1/2-y,-z
1/2+x,1/2-y,1/2+z
loop_
_atom_site_type_symbol
_atom_site_label
_atom_site_fract_x
_atom_site_fract_y
_atom_site_fract_z
Si Si1 0.679737 0.055608 0.900030
Si Si2 0.034409 0.374747 0.154995
Si Si3 0.833135 0.794810 0.700363
Si Si4 0.901290 0.975781 0.939770
Si Si5 0.263228 0.386079 0.651751
Si Si6 0.232739 0.792536 0.140702
Si Si7 0.363816 0.360169 0.468372
O O1 0.621122 0.077976 0.827978
O O2 0.767936 0.099639 0.930863
O O3 0.876338 0.014011 0.877563
O O4 0.395742 0.041175 0.987321
O O5 0.336431 0.376345 0.071705
O O6 0.000000 0.362229 0.250000
O O7 0.922955 0.332734 0.129163
O O8 0.500000 0.798797 0.750000
O O9 0.925546 0.845317 0.662195
O O10 0.878479 0.755207 0.628346
O O11 0.000000 0.782900 0.750000
O O12 0.080969 0.932947 0.885985
O O13 0.000000 0.000000 0.000000
O O14 0.203056 0.364830 0.577985
O O15 0.000000 0.395346 0.750000
O O16 0.135659 0.811147 0.074807
O O17 0.000000 0.793751 0.250000
#
# Coordination Sequence:
#
# PCOD9282101 Si02
#       7
#     8   8   8   8   8   8   8
#     4  10  22  38  71  97 133 178 225 301 362 432
#     4  11  20  37  66 102 144 176 225 301 374 431
#     4  10  24  46  72 105 150 196 249 303 363 446
#     4  11  21  44  71  92 131 182 237 300 358 425
#     4  11  25  47  73  97 143 197 241 303 364 443
#     4  10  21  38  72 104 140 189 236 297 369 437
#     4  11  22  42  68 105 142 181 239 298 363 435
#
# _framework density 21.923707
#
# number of rings (size 3 to 8) (size 9 to 14) (size 15 to 20)
#    0.000    1.429    4.286    0.429    2.000    2.857 
#    0.000    5.000    3.143    0.000    0.000    0.000 
#    0.000    0.000    0.000    0.000    0.000    0.000 
#
# Total GULP energy -155896.565173 kJ/mol
# GULP energy per Si atom -5567.734470 kJ/mol
# Density = 2.187381 g / cm^3
# Si number density = 21.923707 Si / 1000 Ang^3
#
#
#
# Elastic Constant Matrix: (Units=GPa)
#
#
# Indices 1 2 3 4 5 6 
#
# 1 77.4408 53.6307 18.8993 0.0000 5.4554 0.0000
# 2 53.6307 181.7681 31.3286 0.0000 5.1086 0.0000
# 3 18.8993 31.3286 67.4538 0.0000 -1.7733 0.0000
# 4 0.0000 0.0000 0.0000 34.0719 0.0000 5.2193
# 5 5.4554 5.1086 -1.7733 0.0000 22.8363 0.0000
# 6 0.0000 0.0000 0.0000 5.2193 0.0000 -10.8589
#
#
#
# Elastic Compliance Matrix: (Units=1/GPa)
#
#
# Indices 1 2 3 4 5 6 
#
# 1 0.016871 -0.004410 -0.002765 0.000000 -0.003259 0.000000
# 2 -0.004410 0.007189 -0.002122 0.000000 -0.000719 0.000000
# 3 -0.002765 -0.002122 0.016649 0.000000 0.002428 0.000000
# 4 0.000000 0.000000 0.000000 0.027337 0.000000 0.013139
# 5 -0.003259 -0.000719 0.002428 0.000000 0.044918 0.000000
# 6 0.000000 0.000000 0.000000 0.013139 0.000000 -0.085775
#
#
# Mechanical properties :
#
#
# Convention : Reuss Voigt Hill
#
# Bulk Modulus (GPa) = 45.21626 59.37555 52.29590
# Shear Modulus (GPa) = 94.06676 24.06346 59.06511
#
# Velocity S-wave (km/s) = 6.55740 3.31660 5.19612
# Velocity P-wave (km/s) = 8.83187 6.46591 7.73983
#
# Compressibility (1/GPa) = 0.02211594
#
# Stress axis : x y z
#
# Youngs Moduli (GPa) = 59.27227 139.10910 60.06382
#
# Poissons Ratio (x) = 0.61344 0.16605
# Poissons Ratio (y) = 0.26138 0.12746
# Poissons Ratio (z) = 0.16386 0.29520
#
# Static dielectric constant tensor:
#      x y z
#    x 1.973470 0.000000 0.040820 
#    y 0.000000 1.803310 0.000000 
#    z 0.040820 0.000000 1.852450 
# 
# From -- ./inp_files/186490.got.cif
#   From: 2010.05.17/outbox.cif.g08.bks.cpg/sg15_94_cif.got.tgz:186490.got - 2010.06.03 18:47:42.
