data_PCOD9282222
_publ_section_title
;
Structure prediction by ZEFSAII (Michael W. Deem and Ramdas Pophale) SiO2 
 PCOD9282222
Probable space group: C 2/C
;
_chemical_formula_sum "Si O2"
_cell_formula_units_Z 64
_cell_length_a 15.620631
_cell_length_b 14.956522
_cell_length_c 14.462721
_cell_angle_alpha 90.000000
_cell_angle_beta 133.955752
_cell_angle_gamma 90.000000
_cell_volume 2432.410794
_symmetry_space_group_name_H-M "C 2/C"
_symmetry_group_IT_number 15
_symmetry_cell_setting 'monoclinic'
loop_
_space_group_symop_operation_xyz
x,y,z
-x,y,1/2-z
-x,-y,-z
x,-y,1/2+z
1/2+x,1/2+y,z
1/2-x,1/2+y,1/2-z
1/2-x,1/2-y,-z
1/2+x,1/2-y,1/2+z
loop_
_atom_site_type_symbol
_atom_site_label
_atom_site_fract_x
_atom_site_fract_y
_atom_site_fract_z
Si Si1 0.720065 0.384879 0.549793
Si Si2 0.818452 0.224829 0.144320
Si Si3 0.421623 0.208254 0.455090
Si Si4 0.888627 0.300392 0.551404
Si Si5 0.446913 0.901559 0.301766
Si Si6 0.494582 0.607806 0.500569
Si Si7 0.865910 0.025478 0.146666
Si Si8 0.258613 0.593225 0.713456
O O1 0.850075 0.357851 0.611687
O O2 0.641743 0.302431 0.445660
O O3 0.647650 0.382137 0.590066
O O4 0.691156 0.482268 0.486899
O O5 0.898979 0.307680 0.227904
O O6 0.872780 0.129928 0.162920
O O7 0.750000 0.250000 0.000000
O O8 0.718620 0.217251 0.148438
O O9 0.484086 0.193323 0.402717
O O10 0.456335 0.125991 0.548632
O O11 0.476562 0.302451 0.537070
O O12 0.804721 0.335020 0.402644
O O13 0.500000 0.948934 0.250000
O O14 0.332037 0.935495 0.272989
O O15 0.500000 0.500000 0.500000
O O16 0.610193 0.622303 0.654685
O O17 0.000000 0.989023 0.250000
O O18 0.785809 0.989836 0.168718
#
# Coordination Sequence:
#
# PCOD9282222 Si02
#       8
#     8   8   8   8   8   8   8   8
#     4   9  18  37  60  92 122 160 201 262 322 377
#     4  12  25  38  63  91 127 171 212 252 318 394
#     4  10  22  40  59  91 120 168 213 255 309 381
#     4   8  18  37  63  85 120 165 206 250 322 383
#     4  11  22  40  63  84 124 171 212 257 310 384
#     4  11  22  33  61  95 131 156 205 271 318 362
#     4  11  23  38  65  98 128 158 209 272 323 370
#     4  10  21  39  59  93 126 163 211 262 321 375
#
# _framework density 26.311346
#
# number of rings (size 3 to 8) (size 9 to 14) (size 15 to 20)
#    0.000    1.750    3.750    0.375    3.500    0.000 
#    0.000    5.625    0.000    0.000    0.000    0.875 
#    0.000    0.000    0.000    0.000    0.000    0.000 
#
# Total GULP energy -178420.389562 kJ/mol
# GULP energy per Si atom -5575.637174 kJ/mol
# Density = 2.625146 g / cm^3
# Si number density = 26.311346 Si / 1000 Ang^3
#
#
#
# Elastic Constant Matrix: (Units=GPa)
#
#
# Indices 1 2 3 4 5 6 
#
# 1 225.8157 24.2736 32.6247 0.0000 26.4641 0.0000
# 2 24.2736 79.1184 8.4614 0.0000 6.5445 0.0000
# 3 32.6247 8.4614 70.0662 0.0000 2.6710 0.0000
# 4 0.0000 0.0000 0.0000 24.4321 0.0000 3.8437
# 5 26.4641 6.5445 2.6710 0.0000 30.1446 0.0000
# 6 0.0000 0.0000 0.0000 3.8437 0.0000 25.8594
#
#
#
# Elastic Compliance Matrix: (Units=1/GPa)
#
#
# Indices 1 2 3 4 5 6 
#
# 1 0.005363 -0.001055 -0.002206 0.000000 -0.004283 0.000000
# 2 -0.001055 0.013227 -0.001035 0.000000 -0.001854 0.000000
# 3 -0.002206 -0.001035 0.015394 0.000000 0.000798 0.000000
# 4 0.000000 0.000000 0.000000 0.041910 0.000000 -0.006229
# 5 -0.004283 -0.001854 0.000798 0.000000 0.037265 0.000000
# 6 0.000000 0.000000 0.000000 -0.006229 0.000000 0.039597
#
#
# Mechanical properties :
#
#
# Convention : Reuss Voigt Hill
#
# Bulk Modulus (GPa) = 39.38504 56.19108 47.78806
# Shear Modulus (GPa) = 29.44431 36.72995 33.08713
#
# Velocity S-wave (km/s) = 3.34888 3.74033 3.55000
# Velocity P-wave (km/s) = 5.47309 6.32898 5.91653
#
# Compressibility (1/GPa) = 0.02539035
#
# Stress axis : x y z
#
# Youngs Moduli (GPa) = 186.48000 75.60280 64.95984
#
# Poissons Ratio (x) = 0.07976 0.14332
# Poissons Ratio (y) = 0.19673 0.06726
# Poissons Ratio (z) = 0.41142 0.07828
#
# Static dielectric constant tensor:
#      x y z
#    x 2.262300 0.000000 -0.056850 
#    y 0.000000 2.095010 0.000000 
#    z -0.056850 0.000000 2.115450 
# 
# From -- ./inp_files/205735.got.cif
#   From: 2010.05.17/outbox.cif.g08.bks.cpg/sg15_103_cif.got.tgz:205735.got - 2010.06.03 18:47:42.
