data_PCOD9282856
_publ_section_title
;
Structure prediction by ZEFSAII (Michael W. Deem and Ramdas Pophale) SiO2 
 PCOD9282856
Probable space group: C 2/C
;
_chemical_formula_sum "Si O2"
_cell_formula_units_Z 60
_cell_length_a 8.799526
_cell_length_b 17.845209
_cell_length_c 19.715645
_cell_angle_alpha 90.000000
_cell_angle_beta 118.759452
_cell_angle_gamma 90.000000
_cell_volume 2714.043813
_symmetry_space_group_name_H-M "C 2/C"
_symmetry_group_IT_number 15
_symmetry_cell_setting 'monoclinic'
loop_
_space_group_symop_operation_xyz
x,y,z
-x,y,1/2-z
-x,-y,-z
x,-y,1/2+z
1/2+x,1/2+y,z
1/2-x,1/2+y,1/2-z
1/2-x,1/2-y,-z
1/2+x,1/2-y,1/2+z
loop_
_atom_site_type_symbol
_atom_site_label
_atom_site_fract_x
_atom_site_fract_y
_atom_site_fract_z
Si Si1 0.698789 0.878521 0.165045
Si Si2 0.673853 0.535814 0.070946
Si Si3 0.703336 0.237011 0.776422
Si Si4 0.500000 0.504536 0.750000
Si Si5 0.243544 0.828336 0.959762
Si Si6 0.705613 0.883846 0.385207
Si Si7 0.428230 0.917533 0.505049
Si Si8 0.406829 0.371137 0.822486
O O1 0.758581 0.805519 0.219048
O O2 0.830169 0.944819 0.209455
O O3 0.502116 0.886773 0.150075
O O4 0.679352 0.880073 0.079814
O O5 0.743607 0.465382 0.129966
O O6 0.805823 0.564065 0.041648
O O7 0.662260 0.605770 0.119286
O O8 0.500000 0.500000 0.000000
O O9 0.500000 0.227771 0.750000
O O10 0.776114 0.185027 0.854167
O O11 0.712496 0.324514 0.755377
O O12 0.478718 0.447964 0.807442
O O13 0.407247 0.861127 0.953720
O O14 0.078669 0.823752 0.876367
O O15 0.250000 0.750000 0.000000
O O16 0.226731 0.880769 0.022529
O O17 0.500000 0.000000 0.500000
#
# Coordination Sequence:
#
# PCOD9282856 Si02
#       8
#     8   8   8   4   8   8   8   8
#     4  10  21  39  65  91 130 184 224 266 350 424
#     4  12  22  40  69 111 140 172 237 305 362 411
#     4  10  21  42  64  90 133 180 226 270 338 431
#     4  12  24  38  66 100 142 176 230 292 360 404
#     4  11  22  40  70 102 128 184 237 280 358 422
#     4  10  21  41  70  95 134 182 229 280 347 429
#     4  11  20  40  66  97 134 171 231 289 338 422
#     4  12  24  40  68 103 137 172 237 299 337 423
#
# _framework density 22.107233000000001
#
# number of rings (size 3 to 8) (size 9 to 14) (size 15 to 20)
#    0.000    1.067    4.667    4.800    0.000    0.000 
#    0.000    2.667    8.800    0.000    0.000    0.000 
#    0.000    0.000    0.000    0.000    0.000    0.000 
#
# Total GULP energy -167116.200883 kJ/mol
# GULP energy per Si atom -5570.540029 kJ/mol
# Density = 2.205692 g / cm^3
# Si number density = 22.107233 Si / 1000 Ang^3
#
#
#
# Elastic Constant Matrix: (Units=GPa)
#
#
# Indices 1 2 3 4 5 6 
#
# 1 101.7132 53.7372 38.8617 0.0000 -35.7888 0.0000
# 2 53.7372 106.4138 21.8486 0.0000 -9.7190 0.0000
# 3 38.8617 21.8486 88.0826 0.0000 -19.6419 0.0000
# 4 0.0000 0.0000 0.0000 42.0879 0.0000 -2.8795
# 5 -35.7888 -9.7190 -19.6419 0.0000 28.5905 0.0000
# 6 0.0000 0.0000 0.0000 -2.8795 0.0000 8.2467
#
#
#
# Elastic Compliance Matrix: (Units=1/GPa)
#
#
# Indices 1 2 3 4 5 6 
#
# 1 0.025488 -0.009853 -0.002874 0.000000 0.026582 0.000000
# 2 -0.009853 0.013807 -0.000923 0.000000 -0.008275 0.000000
# 3 -0.002874 -0.000923 0.014145 0.000000 0.005807 0.000000
# 4 0.000000 0.000000 0.000000 0.024341 0.000000 0.008499
# 5 0.026582 -0.008275 0.005807 0.000000 0.069427 0.000000
# 6 0.000000 0.000000 0.000000 0.008499 0.000000 0.124228
#
#
# Mechanical properties :
#
#
# Convention : Reuss Voigt Hill
#
# Bulk Modulus (GPa) = 38.25517 58.34494 48.30006
# Shear Modulus (GPa) = 16.26287 27.90250 22.08268
#
# Velocity S-wave (km/s) = 2.71520 3.55652 3.16395
# Velocity P-wave (km/s) = 5.21265 6.58135 5.93658
#
# Compressibility (1/GPa) = 0.02614026
#
# Stress axis : x y z
#
# Youngs Moduli (GPa) = 39.23366 72.42824 70.69869
#
# Poissons Ratio (x) = 0.71366 0.20316
# Poissons Ratio (y) = 0.38658 0.06523
# Poissons Ratio (z) = 0.11274 0.06683
#
# Static dielectric constant tensor:
#      x y z
#    x 1.860660 0.000000 -0.056100 
#    y 0.000000 1.778460 0.000000 
#    z -0.056100 0.000000 1.941910 
# 
# From -- ./inp_files/233071.got.cif
#   From: 2010.05.17/outbox.cif.g08.bks.cpg/sg15_117_cif.got.tgz:233071.got - 2010.06.03 18:47:42.
