data_PCOD9282016
_publ_section_title
;
Structure prediction by ZEFSAII (Michael W. Deem and Ramdas Pophale) SiO2 
 PCOD9282016
Probable space group: C 2/C
;
_chemical_formula_sum "Si O2"
_cell_formula_units_Z 64
_cell_length_a 8.715344
_cell_length_b 18.362627
_cell_length_c 20.124975
_cell_angle_alpha 90.000000
_cell_angle_beta 115.205551
_cell_angle_gamma 90.000000
_cell_volume 2914.073291
_symmetry_space_group_name_H-M "C 2/C"
_symmetry_group_IT_number 15
_symmetry_cell_setting 'monoclinic'
loop_
_space_group_symop_operation_xyz
x,y,z
-x,y,1/2-z
-x,-y,-z
x,-y,1/2+z
1/2+x,1/2+y,z
1/2-x,1/2+y,1/2-z
1/2-x,1/2-y,-z
1/2+x,1/2-y,1/2+z
loop_
_atom_site_type_symbol
_atom_site_label
_atom_site_fract_x
_atom_site_fract_y
_atom_site_fract_z
Si Si1 0.553515 0.986062 0.903932
Si Si2 0.103638 0.004905 0.201962
Si Si3 0.835654 0.399124 0.187402
Si Si4 0.519398 0.816038 0.862435
Si Si5 0.773981 0.986459 0.571671
Si Si6 0.399921 0.707675 0.940155
Si Si7 0.229126 0.167802 0.211072
Si Si8 0.109375 0.822562 0.915083
O O1 0.541460 0.899858 0.888358
O O2 0.373578 0.008537 0.903942
O O3 0.599349 0.036271 0.849800
O O4 0.699143 0.997521 0.985841
O O5 0.234002 0.939343 0.227237
O O6 0.000000 0.017041 0.250000
O O7 0.202378 0.079865 0.204578
O O8 0.959983 0.983211 0.121594
O O9 0.704427 0.350131 0.122557
O O10 0.000000 0.361830 0.250000
O O11 0.531922 0.754253 0.920818
O O12 0.653314 0.806647 0.827953
O O13 0.330398 0.810990 0.795644
O O14 0.809629 0.900613 0.584987
O O15 0.258651 0.766139 0.934926
O O16 0.462014 0.675957 0.022269
O O17 0.041120 0.195806 0.163176
#
# Coordination Sequence:
#
# PCOD9282016 Si02
#       8
#     8   8   8   8   8   8   8   8
#     4  11  21  40  67  97 129 168 219 270 331 387
#     4  11  23  41  65  97 127 165 216 283 326 387
#     4  12  25  41  64  94 133 172 215 271 341 394
#     4  11  22  41  63  97 126 169 213 269 320 388
#     4  10  21  38  67  97 125 168 219 275 322 385
#     4  11  25  42  63  90 134 170 215 263 326 396
#     4  10  23  39  69  92 124 162 222 264 318 386
#     4  10  22  42  62  96 127 171 220 262 320 393
#
# _framework density 21.962385000000001
#
# number of rings (size 3 to 8) (size 9 to 14) (size 15 to 20)
#    0.000    1.250    3.750    2.250    3.500    2.000 
#    2.250    1.250    0.000    0.000    0.000    0.000 
#    0.000    0.000    0.000    0.000    0.000    0.000 
#
# Total GULP energy -178801.517776 kJ/mol
# GULP energy per Si atom -5587.547431 kJ/mol
# Density = 2.191240 g / cm^3
# Si number density = 21.962385 Si / 1000 Ang^3
#
#
#
# Elastic Constant Matrix: (Units=GPa)
#
#
# Indices 1 2 3 4 5 6 
#
# 1 59.5154 25.2603 22.4545 0.0000 -10.5218 0.0000
# 2 25.2603 32.3219 9.2993 0.0000 -4.0116 0.0000
# 3 22.4545 9.2993 70.8068 0.0000 6.1152 0.0000
# 4 0.0000 0.0000 0.0000 14.5988 0.0000 8.4145
# 5 -10.5218 -4.0116 6.1152 0.0000 39.0588 0.0000
# 6 0.0000 0.0000 0.0000 8.4145 0.0000 -15.8146
#
#
#
# Elastic Compliance Matrix: (Units=1/GPa)
#
#
# Indices 1 2 3 4 5 6 
#
# 1 0.029204 -0.019873 -0.007253 0.000000 0.006962 0.000000
# 2 -0.019873 0.046311 0.000275 0.000000 -0.000640 0.000000
# 3 -0.007253 0.000275 0.016780 0.000000 -0.004553 0.000000
# 4 0.000000 0.000000 0.000000 0.052422 0.000000 0.027892
# 5 0.006962 -0.000640 -0.004553 0.000000 0.028125 0.000000
# 6 0.000000 0.000000 0.000000 0.027892 0.000000 -0.048392
#
#
# Mechanical properties :
#
#
# Convention : Reuss Voigt Hill
#
# Bulk Modulus (GPa) = 25.91029 30.74138 28.32583
# Shear Modulus (GPa) = 26.17583 14.61060 20.39322
#
# Velocity S-wave (km/s) = 3.45606 2.58205 3.05052
# Velocity P-wave (km/s) = 5.26773 4.78717 5.03319
#
# Compressibility (1/GPa) = 0.03859471
#
# Stress axis : x y z
#
# Youngs Moduli (GPa) = 34.24164 21.59300 59.59501
#
# Poissons Ratio (x) = 0.42912 0.43222
# Poissons Ratio (y) = 0.68049 -0.01640
# Poissons Ratio (z) = 0.24834 -0.00594
#
# Static dielectric constant tensor:
#      x y z
#    x 1.807120 0.000000 -0.014090 
#    y 0.000000 1.805070 0.000000 
#    z -0.014090 0.000000 1.851400 
# 
# From -- ./inp_files/233871.got.cif
#   From: 2010.05.17/outbox.cif.g08.bks.cpg/sg15_117_cif.got.tgz:233871.got - 2010.06.03 18:47:42.
