data_PCOD9282929
_publ_section_title
;
Structure prediction by ZEFSAII (Michael W. Deem and Ramdas Pophale) SiO2 
 PCOD9282929
Probable space group: C 2/C
;
_chemical_formula_sum "Si O2"
_cell_formula_units_Z 60
_cell_length_a 21.267484
_cell_length_b 15.683341
_cell_length_c 7.394758
_cell_angle_alpha 90.000000
_cell_angle_beta 77.269081
_cell_angle_gamma 90.000000
_cell_volume 2405.849390
_symmetry_space_group_name_H-M "C 2/C"
_symmetry_group_IT_number 15
_symmetry_cell_setting 'monoclinic'
loop_
_space_group_symop_operation_xyz
x,y,z
-x,y,1/2-z
-x,-y,-z
x,-y,1/2+z
1/2+x,1/2+y,z
1/2-x,1/2+y,1/2-z
1/2-x,1/2-y,-z
1/2+x,1/2-y,1/2+z
loop_
_atom_site_type_symbol
_atom_site_label
_atom_site_fract_x
_atom_site_fract_y
_atom_site_fract_z
Si Si1 0.299749 0.099093 0.041483
Si Si2 0.540803 0.268827 0.465216
Si Si3 0.337163 0.465516 0.910465
Si Si4 0.139751 0.428191 0.624394
Si Si5 0.000000 0.616092 0.250000
Si Si6 0.839657 0.856607 0.278045
Si Si7 0.798927 0.296352 0.192056
Si Si8 0.588711 0.671668 0.316317
O O1 0.229400 0.064582 0.139267
O O2 0.339657 0.112228 0.197583
O O3 0.296883 0.177182 0.905064
O O4 0.330259 0.021051 0.911728
O O5 0.518188 0.178064 0.405168
O O6 0.595135 0.304824 0.295811
O O7 0.475022 0.323659 0.522044
O O8 0.570970 0.272897 0.646869
O O9 0.341622 0.566929 0.921624
O O10 0.395909 0.422130 0.767186
O O11 0.333581 0.416568 0.102905
O O12 0.167665 0.369916 0.447740
O O13 0.063286 0.435364 0.661166
O O14 0.775920 0.797758 0.322365
O O15 0.847140 0.216472 0.144532
#
# Coordination Sequence:
#
# PCOD9282929 Si02
#       8
#     8   8   8   8   4   8   8   8
#     4  11  22  41  67  96 134 162 219 263 315 378
#     4  10  23  43  61  92 128 169 210 270 312 386
#     4  10  21  39  65  97 125 163 211 267 314 392
#     4  12  23  41  65  95 129 176 209 263 318 382
#     4  12  26  42  60  94 132 160 226 262 312 384
#     4  10  22  39  67  94 126 166 214 258 328 374
#     4  11  22  43  69  96 129 173 207 272 320 381
#     4  10  22  43  68  88 127 174 211 254 339 373
#
# _framework density 24.939215000000001
#
# number of rings (size 3 to 8) (size 9 to 14) (size 15 to 20)
#    0.000    1.333    4.000    1.600    0.000    8.000 
#    0.000    2.667    0.000    0.000    0.000    0.000 
#    0.000    0.000    0.000    0.000    0.000    0.000 
#
# Total GULP energy -168099.940441 kJ/mol
# GULP energy per Si atom -5603.331348 kJ/mol
# Density = 2.488245 g / cm^3
# Si number density = 24.939215 Si / 1000 Ang^3
#
#
#
# Elastic Constant Matrix: (Units=GPa)
#
#
# Indices 1 2 3 4 5 6 
#
# 1 98.1505 34.9597 55.7162 0.0000 -22.9195 0.0000
# 2 34.9597 77.1308 15.9982 0.0000 -18.0327 0.0000
# 3 55.7162 15.9982 101.4182 0.0000 -17.5767 0.0000
# 4 0.0000 0.0000 0.0000 30.5047 0.0000 -3.8108
# 5 -22.9195 -18.0327 -17.5767 0.0000 67.1296 0.0000
# 6 0.0000 0.0000 0.0000 -3.8108 0.0000 25.6685
#
#
#
# Elastic Compliance Matrix: (Units=1/GPa)
#
#
# Indices 1 2 3 4 5 6 
#
# 1 0.017441 -0.005655 -0.008297 0.000000 0.002263 0.000000
# 2 -0.005655 0.015923 0.001049 0.000000 0.002621 0.000000
# 3 -0.008297 0.001049 0.014467 0.000000 0.001237 0.000000
# 4 0.000000 0.000000 0.000000 0.033401 0.000000 0.004959
# 5 0.002263 0.002621 0.001237 0.000000 0.016697 0.000000
# 6 0.000000 0.000000 0.000000 0.004959 0.000000 0.039694
#
#
# Mechanical properties :
#
#
# Convention : Reuss Voigt Hill
#
# Bulk Modulus (GPa) = 45.40209 54.44975 49.92592
# Shear Modulus (GPa) = 29.27850 35.99559 32.63705
#
# Velocity S-wave (km/s) = 3.43008 3.80324 3.62147
# Velocity P-wave (km/s) = 5.82511 6.41612 6.12774
#
# Compressibility (1/GPa) = 0.02202542
#
# Stress axis : x y z
#
# Youngs Moduli (GPa) = 57.33502 62.80053 69.12093
#
# Poissons Ratio (x) = 0.35515 0.57353
# Poissons Ratio (y) = 0.32424 -0.07253
# Poissons Ratio (z) = 0.47573 -0.06589
#
# Static dielectric constant tensor:
#      x y z
#    x 1.981600 0.000000 0.063740 
#    y 0.000000 1.915310 0.000000 
#    z 0.063740 0.000000 2.019070 
# 
# From -- ./inp_files/56992.got.cif
#   From: 2010.05.17/outbox.cif.g08.bks.cpg/sg15_29_cif.got.tgz:56992.got - 2010.06.03 18:47:42.
