data_PCOD9282748
_publ_section_title
;
Structure prediction by ZEFSAII (Michael W. Deem and Ramdas Pophale) SiO2 
 PCOD9282748
Probable space group: C 2/C
;
_chemical_formula_sum "Si O2"
_cell_formula_units_Z 32
_cell_length_a 4.987671
_cell_length_b 20.948878
_cell_length_c 13.315575
_cell_angle_alpha 90.000000
_cell_angle_beta 91.175588
_cell_angle_gamma 90.000000
_cell_volume 1390.999806
_symmetry_space_group_name_H-M "C 2/C"
_symmetry_group_IT_number 15
_symmetry_cell_setting 'monoclinic'
loop_
_space_group_symop_operation_xyz
x,y,z
-x,y,1/2-z
-x,-y,-z
x,-y,1/2+z
1/2+x,1/2+y,z
1/2-x,1/2+y,1/2-z
1/2-x,1/2-y,-z
1/2+x,1/2-y,1/2+z
loop_
_atom_site_type_symbol
_atom_site_label
_atom_site_fract_x
_atom_site_fract_y
_atom_site_fract_z
Si Si1 0.994767 0.703836 0.487405
Si Si2 0.260546 0.880211 0.816357
Si Si3 0.512495 0.081936 0.628674
Si Si4 0.007187 0.000413 0.629209
O O1 0.250000 0.750000 0.500000
O O2 0.981691 0.647904 0.570037
O O3 0.750000 0.750000 0.500000
O O4 0.933954 0.670566 0.379836
O O5 0.500000 0.911455 0.750000
O O6 0.117341 0.930653 0.890837
O O7 0.000000 0.856502 0.750000
O O8 0.500000 0.091544 0.750000
O O9 0.295543 0.026753 0.602386
O O10 0.796468 0.053879 0.597483
O O11 0.000000 0.999353 0.750000
#
# Coordination Sequence:
#
# PCOD9282748 Si02
#       4
#     8   8   8   8
#     4  12  27  43  61  92 130 176 230 262 303 388
#     4  11  23  42  67  95 131 169 211 273 336 388
#     4  10  21  39  64  92 125 162 207 269 327 378
#     4   9  18  36  64  95 123 156 204 262 333 396
#
# _framework density 23.005037000000002
#
# number of rings (size 3 to 8) (size 9 to 14) (size 15 to 20)
#    0.000    1.500    0.000    6.750    0.000    5.000 
#    0.000    0.000    0.000    4.500    0.000    0.000 
#    0.000    0.000    0.000    0.000    0.000    0.000 
#
# Total GULP energy -89327.502744 kJ/mol
# GULP energy per Si atom -5582.968921 kJ/mol
# Density = 2.295268 g / cm^3
# Si number density = 23.005037 Si / 1000 Ang^3
#
#
#
# Elastic Constant Matrix: (Units=GPa)
#
#
# Indices 1 2 3 4 5 6 
#
# 1 169.6710 47.2561 35.7327 0.0000 22.1657 0.0000
# 2 47.2561 123.2095 40.3987 0.0000 25.7365 0.0000
# 3 35.7327 40.3987 118.7583 0.0000 17.0796 0.0000
# 4 0.0000 0.0000 0.0000 47.7172 0.0000 13.2086
# 5 22.1657 25.7365 17.0796 0.0000 26.6213 0.0000
# 6 0.0000 0.0000 0.0000 13.2086 0.0000 56.4596
#
#
#
# Elastic Compliance Matrix: (Units=1/GPa)
#
#
# Indices 1 2 3 4 5 6 
#
# 1 0.007035 -0.001592 -0.001051 0.000000 -0.003643 0.000000
# 2 -0.001592 0.011109 -0.002144 0.000000 -0.008039 0.000000
# 3 -0.001051 -0.002144 0.009961 0.000000 -0.003443 0.000000
# 4 0.000000 0.000000 0.000000 0.022408 0.000000 -0.005242
# 5 -0.003643 -0.008039 -0.003443 0.000000 0.050578 0.000000
# 6 0.000000 0.000000 0.000000 -0.005242 0.000000 0.018938
#
#
# Mechanical properties :
#
#
# Convention : Reuss Voigt Hill
#
# Bulk Modulus (GPa) = 53.96505 73.15707 63.56106
# Shear Modulus (GPa) = 36.82427 45.37637 41.10032
#
# Velocity S-wave (km/s) = 4.00522 4.44605 4.23138
# Velocity P-wave (km/s) = 6.70059 7.63059 7.18066
#
# Compressibility (1/GPa) = 0.01853051
#
# Stress axis : x y z
#
# Youngs Moduli (GPa) = 142.15500 90.01656 100.39005
#
# Poissons Ratio (x) = 0.14334 0.10550
# Poissons Ratio (y) = 0.22637 0.21522
# Poissons Ratio (z) = 0.14939 0.19298
#
# Static dielectric constant tensor:
#      x y z
#    x 1.569910 0.000000 0.676920 
#    y 0.000000 1.844540 0.000000 
#    z 0.676920 0.000000 0.271160 
# 
# From -- ./inp_files/72274.got.cif
#   From: 2010.05.17/outbox.cif.g08.bks.cpg/sg15_37_cif.got.tgz:72274.got - 2010.06.03 18:47:42.
