data_PCOD9282541
_publ_section_title
;
Structure prediction by ZEFSAII (Michael W. Deem and Ramdas Pophale) SiO2 
 PCOD9282541
Probable space group: C 2/C
;
_chemical_formula_sum "Si O2"
_cell_formula_units_Z 40
_cell_length_a 5.003942
_cell_length_b 30.821378
_cell_length_c 15.545820
_cell_angle_alpha 90.000000
_cell_angle_beta 129.658683
_cell_angle_gamma 90.000000
_cell_volume 1845.821494
_symmetry_space_group_name_H-M "C 2/C"
_symmetry_group_IT_number 15
_symmetry_cell_setting 'monoclinic'
loop_
_space_group_symop_operation_xyz
x,y,z
-x,y,1/2-z
-x,-y,-z
x,-y,1/2+z
1/2+x,1/2+y,z
1/2-x,1/2+y,1/2-z
1/2-x,1/2-y,-z
1/2+x,1/2-y,1/2+z
loop_
_atom_site_type_symbol
_atom_site_label
_atom_site_fract_x
_atom_site_fract_y
_atom_site_fract_z
Si Si1 0.364600 0.487514 0.374308
Si Si2 0.148794 0.067597 0.372113
Si Si3 0.088142 0.096526 0.993752
Si Si4 0.389062 0.694570 0.980463
Si Si5 0.323408 0.267321 0.125724
O O1 0.500000 0.500000 0.500000
O O2 0.644226 0.514871 0.375794
O O3 0.372396 0.435752 0.387837
O O4 0.000000 0.498953 0.250000
O O5 0.522100 0.088954 0.458214
O O6 0.000000 0.080983 0.250000
O O7 0.925604 0.081479 0.408905
O O8 0.958670 0.145462 0.969580
O O9 0.419189 0.722698 0.899259
O O10 0.025005 0.703488 0.951841
O O11 0.692010 0.717609 0.097741
O O12 0.500000 0.278741 0.250000
#
# Coordination Sequence:
#
# PCOD9282541 Si02
#       5
#     8   8   8   8   8
#     4  10  22  41  63  90 126 171 216 264 322 382
#     4  11  22  40  62  89 125 166 211 263 323 386
#     4  11  23  40  62  92 125 161 210 269 322 377
#     4  10  22  40  60  93 125 157 212 262 313 389
#     4  10  21  39  63  86 123 167 201 253 324 388
#
# _framework density 21.670566999999998
#
# number of rings (size 3 to 8) (size 9 to 14) (size 15 to 20)
#    0.000    1.600    0.000    5.400    0.000    4.800 
#    0.000    1.000    0.000    0.000    0.000    0.000 
#    0.000    0.000    0.000    0.000    0.000    0.000 
#
# Total GULP energy -111433.159064 kJ/mol
# GULP energy per Si atom -5571.657953 kJ/mol
# Density = 2.162124 g / cm^3
# Si number density = 21.670567 Si / 1000 Ang^3
#
#
#
# Elastic Constant Matrix: (Units=GPa)
#
#
# Indices 1 2 3 4 5 6 
#
# 1 38.0408 -4.3748 -4.4888 0.0000 0.6244 0.0000
# 2 -4.3748 119.9852 2.1901 0.0000 15.8388 0.0000
# 3 -4.4888 2.1901 89.5921 0.0000 3.2220 0.0000
# 4 0.0000 0.0000 0.0000 9.0542 0.0000 -8.9060
# 5 0.6244 15.8388 3.2220 0.0000 21.3072 0.0000
# 6 0.0000 0.0000 0.0000 -8.9060 0.0000 30.9526
#
#
#
# Elastic Compliance Matrix: (Units=1/GPa)
#
#
# Indices 1 2 3 4 5 6 
#
# 1 0.026617 0.001193 0.001372 0.000000 -0.001874 0.000000
# 2 0.001193 0.009295 0.000083 0.000000 -0.006957 0.000000
# 3 0.001372 0.000083 0.011293 0.000000 -0.001809 0.000000
# 4 0.000000 0.000000 0.000000 0.154042 0.000000 0.044323
# 5 -0.001874 -0.006957 -0.001809 0.000000 0.052432 0.000000
# 6 0.000000 0.000000 0.000000 0.044323 0.000000 0.045060
#
#
# Mechanical properties :
#
#
# Convention : Reuss Voigt Hill
#
# Bulk Modulus (GPa) = 19.04747 26.03011 22.53879
# Shear Modulus (GPa) = 16.07999 29.21559 22.64779
#
# Velocity S-wave (km/s) = 2.72696 3.67573 3.23630
# Velocity P-wave (km/s) = 4.32709 5.48201 4.93843
#
# Compressibility (1/GPa) = 0.05250042
#
# Stress axis : x y z
#
# Youngs Moduli (GPa) = 37.56940 107.58855 88.54661
#
# Poissons Ratio (x) = -0.12834 -0.12147
# Poissons Ratio (y) = -0.04481 -0.00733
# Poissons Ratio (z) = -0.05154 -0.00890
#
# Static dielectric constant tensor:
#      x y z
#    x 1.782670 0.000000 0.004820 
#    y 0.000000 1.883000 0.000000 
#    z 0.004820 0.000000 1.804840 
# 
# From -- ./inp_files/186642.got.cif
#   From: 2010.05.17/outbox.cif.g08.bks.cpg/sg15_94_cif.got.tgz:186642.got - 2010.06.03 18:47:42.
