data_PCOD9282954
_publ_section_title
;
Structure prediction by ZEFSAII (Michael W. Deem and Ramdas Pophale) SiO2 
 PCOD9282954
Probable space group: C 2/C
;
_chemical_formula_sum "Si O2"
_cell_formula_units_Z 40
_cell_length_a 11.007186
_cell_length_b 24.189081
_cell_length_c 8.239027
_cell_angle_alpha 90.000000
_cell_angle_beta 133.249858
_cell_angle_gamma 90.000000
_cell_volume 1597.810390
_symmetry_space_group_name_H-M "C 2/C"
_symmetry_group_IT_number 15
_symmetry_cell_setting 'monoclinic'
loop_
_space_group_symop_operation_xyz
x,y,z
-x,y,1/2-z
-x,-y,-z
x,-y,1/2+z
1/2+x,1/2+y,z
1/2-x,1/2+y,1/2-z
1/2-x,1/2-y,-z
1/2+x,1/2-y,1/2+z
loop_
_atom_site_type_symbol
_atom_site_label
_atom_site_fract_x
_atom_site_fract_y
_atom_site_fract_z
Si Si1 0.303948 0.086035 0.067193
Si Si2 0.727028 0.294715 0.617008
Si Si3 0.703028 0.096030 0.796221
Si Si4 0.628501 0.048860 0.060558
Si Si5 0.897325 0.209629 0.993067
O O1 0.500000 0.069887 0.250000
O O2 0.298349 0.150070 0.105769
O O3 0.241473 0.057384 0.175564
O O4 0.230538 0.076039 0.821059
O O5 0.750000 0.250000 0.500000
O O6 0.536205 0.305551 0.486735
O O7 0.811605 0.265569 0.850433
O O8 0.504086 0.099608 0.578337
O O9 0.712940 0.053882 0.959665
O O10 0.779675 0.155867 0.902769
O O11 0.500000 0.000000 0.000000
O O12 0.000000 0.219314 0.250000
#
# Coordination Sequence:
#
# PCOD9282954 Si02
#       5
#     8   8   8   8   8
#     4  10  21  39  66 100 141 183 235 298 366 427
#     4  12  24  43  69 100 146 196 249 290 365 438
#     4  10  23  40  66 101 144 179 237 299 374 423
#     4  10  23  41  71 107 135 176 246 311 365 438
#     4  12  26  44  67 103 148 197 246 302 359 441
#
# _framework density 25.034258000000001
#
# number of rings (size 3 to 8) (size 9 to 14) (size 15 to 20)
#    0.000    1.200    2.000    3.600   11.200    0.000 
#    0.000    0.000    0.000    4.800    0.000    0.000 
#    0.000    0.000    0.000    0.000    0.000    0.000 
#
# Total GULP energy -111529.996449 kJ/mol
# GULP energy per Si atom -5576.499822 kJ/mol
# Density = 2.497728 g / cm^3
# Si number density = 25.034258 Si / 1000 Ang^3
#
#
#
# Elastic Constant Matrix: (Units=GPa)
#
#
# Indices 1 2 3 4 5 6 
#
# 1 121.5989 59.9509 61.0459 0.0000 -44.7126 0.0000
# 2 59.9509 133.1571 56.4147 0.0000 -31.4204 0.0000
# 3 61.0459 56.4147 117.5535 0.0000 -58.7832 0.0000
# 4 0.0000 0.0000 0.0000 35.0884 0.0000 -2.7039
# 5 -44.7126 -31.4204 -58.7832 0.0000 69.5996 0.0000
# 6 0.0000 0.0000 0.0000 -2.7039 0.0000 53.5465
#
#
#
# Elastic Compliance Matrix: (Units=1/GPa)
#
#
# Indices 1 2 3 4 5 6 
#
# 1 0.013045 -0.003639 -0.002871 0.000000 0.004312 0.000000
# 2 -0.003639 0.010465 -0.003357 0.000000 -0.000449 0.000000
# 3 -0.002871 -0.003357 0.017188 0.000000 0.011156 0.000000
# 4 0.000000 0.000000 0.000000 0.028611 0.000000 0.001445
# 5 0.004312 -0.000449 0.011156 0.000000 0.026358 0.000000
# 6 0.000000 0.000000 0.000000 0.001445 0.000000 0.018748
#
#
# Mechanical properties :
#
#
# Convention : Reuss Voigt Hill
#
# Bulk Modulus (GPa) = 47.70290 80.79249 64.24770
# Shear Modulus (GPa) = 35.42657 44.64012 40.03335
#
# Velocity S-wave (km/s) = 3.76589 4.22733 4.00327
# Velocity P-wave (km/s) = 6.16488 7.49466 6.86206
#
# Compressibility (1/GPa) = 0.02096309
#
# Stress axis : x y z
#
# Youngs Moduli (GPa) = 76.65636 95.56050 58.18144
#
# Poissons Ratio (x) = 0.34776 0.16707
# Poissons Ratio (y) = 0.27896 0.19529
# Poissons Ratio (z) = 0.22012 0.32075
#
# Static dielectric constant tensor:
#      x y z
#    x 2.175690 0.000000 -0.180440 
#    y 0.000000 2.087040 0.000000 
#    z -0.180440 0.000000 2.125570 
# 
# From -- ./inp_files/35448.got.cif
#   From: 2010.05.17/outbox.cif.g08.bks.cpg/sg15_18_cif.got.tgz:35448.got - 2010.06.03 18:47:42.
