data_PCOD9282193
_publ_section_title
;
Structure prediction by ZEFSAII (Michael W. Deem and Ramdas Pophale) SiO2 
 PCOD9282193
Probable space group: C 2/C
;
_chemical_formula_sum "Si O2"
_cell_formula_units_Z 60
_cell_length_a 16.881180
_cell_length_b 16.126039
_cell_length_c 12.601139
_cell_angle_alpha 90.000000
_cell_angle_beta 55.447773
_cell_angle_gamma 90.000000
_cell_volume 2825.281212
_symmetry_space_group_name_H-M "C 2/C"
_symmetry_group_IT_number 15
_symmetry_cell_setting 'monoclinic'
loop_
_space_group_symop_operation_xyz
x,y,z
-x,y,1/2-z
-x,-y,-z
x,-y,1/2+z
1/2+x,1/2+y,z
1/2-x,1/2+y,1/2-z
1/2-x,1/2-y,-z
1/2+x,1/2-y,1/2+z
loop_
_atom_site_type_symbol
_atom_site_label
_atom_site_fract_x
_atom_site_fract_y
_atom_site_fract_z
Si Si1 0.859747 0.134367 0.953059
Si Si2 0.599445 0.876246 0.912120
Si Si3 0.416153 0.442674 0.606699
Si Si4 0.500000 0.492765 0.750000
Si Si5 0.100334 0.588064 0.016577
Si Si6 0.215662 0.461543 0.251829
Si Si7 0.645000 0.799797 0.665737
Si Si8 0.893576 0.589614 0.870765
O O1 0.914343 0.053177 0.862291
O O2 0.869630 0.205842 0.859039
O O3 0.906420 0.135822 0.036083
O O4 0.747178 0.151514 0.068736
O O5 0.646970 0.959539 0.827576
O O6 0.620779 0.809032 0.806789
O O7 0.486622 0.897360 0.998550
O O8 0.635181 0.857621 0.003423
O O9 0.500000 0.500000 0.500000
O O10 0.445747 0.434867 0.706069
O O11 0.319879 0.497820 0.668018
O O12 0.196228 0.593582 0.871807
O O13 0.085603 0.653643 0.119946
O O14 0.098622 0.501474 0.080665
O O15 0.180001 0.418209 0.171107
O O16 0.000000 0.612635 0.750000
#
# Coordination Sequence:
#
# PCOD9282193 Si02
#       8
#     8   8   8   4   8   8   8   8
#     4  10  22  39  58  89 117 162 202 270 323 378
#     4  11  20  29  51  84 122 164 202 243 307 381
#     4  10  21  39  59  85 114 156 219 275 324 352
#     4  10  22  40  66  88 116 152 232 282 312 356
#     4  11  19  29  52  84 122 165 191 247 305 382
#     4  11  19  33  55  84 125 164 210 253 313 369
#     4  11  21  36  56  87 132 156 207 249 328 394
#     4  11  17  31  48  81 129 163 203 238 303 376
#
# _framework density 21.236823999999999
#
# number of rings (size 3 to 8) (size 9 to 14) (size 15 to 20)
#    0.000    1.333    5.333    2.000    1.867    3.200 
#    0.000    0.000    0.000    1.600    0.000    2.800 
#    0.000    0.133    0.000    0.000    0.000    0.000 
#
# Total GULP energy -167003.999450 kJ/mol
# GULP energy per Si atom -5566.799982 kJ/mol
# Density = 2.118849 g / cm^3
# Si number density = 21.236824 Si / 1000 Ang^3
#
#
#
# Elastic Constant Matrix: (Units=GPa)
#
#
# Indices 1 2 3 4 5 6 
#
# 1 105.7873 15.3702 42.1226 0.0000 25.9437 0.0000
# 2 15.3702 25.5292 25.9519 0.0000 15.5906 0.0000
# 3 42.1226 25.9519 124.4854 0.0000 34.0565 0.0000
# 4 0.0000 0.0000 0.0000 27.1693 0.0000 10.9221
# 5 25.9437 15.5906 34.0565 0.0000 50.6587 0.0000
# 6 0.0000 0.0000 0.0000 10.9221 0.0000 -1.9183
#
#
#
# Elastic Compliance Matrix: (Units=1/GPa)
#
#
# Indices 1 2 3 4 5 6 
#
# 1 0.011657 -0.002301 -0.002482 0.000000 -0.003593 0.000000
# 2 -0.002301 0.054876 -0.007798 0.000000 -0.010468 0.000000
# 3 -0.002482 -0.007798 0.011634 0.000000 -0.004150 0.000000
# 4 0.000000 0.000000 0.000000 0.011191 0.000000 0.063719
# 5 -0.003593 -0.010468 -0.004150 0.000000 0.027592 0.000000
# 6 0.000000 0.000000 0.000000 0.063719 0.000000 -0.158503
#
#
# Mechanical properties :
#
#
# Convention : Reuss Voigt Hill
#
# Bulk Modulus (GPa) = 18.86594 46.96570 32.91582
# Shear Modulus (GPa) = 3919.51083 26.67242 1973.09163
#
# Velocity S-wave (km/s) = 43.00729 3.54779 30.51404
# Velocity P-wave (km/s) = 49.75009 6.24064 35.45432
#
# Compressibility (1/GPa) = 0.05300557
#
# Stress axis : x y z
#
# Youngs Moduli (GPa) = 85.78855 18.22297 85.95603
#
# Poissons Ratio (x) = 0.04193 0.21330
# Poissons Ratio (y) = 0.19740 0.67027
# Poissons Ratio (z) = 0.21289 0.14210
#
# Static dielectric constant tensor:
#      x y z
#    x 1.857810 0.000000 0.025420 
#    y 0.000000 1.803930 0.000000 
#    z 0.025420 0.000000 1.883100 
# 
# From -- ./inp_files/99735.got.cif
#   From: 2010.05.17/outbox.cif.g08.bks.cpg/sg15_50_cif.got.tgz:99735.got - 2010.06.03 18:47:42.
