data_PCOD9282248
_publ_section_title
;
Structure prediction by ZEFSAII (Michael W. Deem and Ramdas Pophale) SiO2 
 PCOD9282248
Probable space group: C 2/C
;
_chemical_formula_sum "Si O2"
_cell_formula_units_Z 36
_cell_length_a 11.338658
_cell_length_b 16.806207
_cell_length_c 9.822875
_cell_angle_alpha 90.000000
_cell_angle_beta 116.496046
_cell_angle_gamma 90.000000
_cell_volume 1675.236424
_symmetry_space_group_name_H-M "C 2/C"
_symmetry_group_IT_number 15
_symmetry_cell_setting 'monoclinic'
loop_
_space_group_symop_operation_xyz
x,y,z
-x,y,1/2-z
-x,-y,-z
x,-y,1/2+z
1/2+x,1/2+y,z
1/2-x,1/2+y,1/2-z
1/2-x,1/2-y,-z
1/2+x,1/2-y,1/2+z
loop_
_atom_site_type_symbol
_atom_site_label
_atom_site_fract_x
_atom_site_fract_y
_atom_site_fract_z
Si Si1 0.151028 0.853853 0.861516
Si Si2 0.928792 0.392840 0.347381
Si Si3 0.000000 0.297184 0.750000
Si Si4 0.190971 0.201797 0.670277
Si Si5 0.858745 0.572307 0.307187
O O1 0.233392 0.778003 0.851567
O O2 0.219735 0.923443 0.811760
O O3 0.000000 0.845210 0.750000
O O4 0.166120 0.856869 0.031241
O O5 0.800262 0.341695 0.319347
O O6 0.886571 0.481909 0.283954
O O7 0.000000 0.356786 0.250000
O O8 0.033326 0.401058 0.522841
O O9 0.942945 0.235506 0.833059
O O10 0.880742 0.363424 0.697632
#
# Coordination Sequence:
#
# PCOD9282248 Si02
#       5
#     8   8   4   8   8
#     4  10  21  39  60  87 116 161 199 246 297 370
#     4  11  20  39  66  87 117 160 203 250 289 369
#     4  10  22  40  54  94 122 152 200 250 300 354
#     4  10  22  38  62  85 121 156 202 244 308 348
#     4  10  22  39  62  88 121 157 204 244 302 353
#
# _framework density 21.489505999999999
#
# number of rings (size 3 to 8) (size 9 to 14) (size 15 to 20)
#    0.000    1.778    3.333    0.667    6.222    0.889 
#    6.000    1.111    0.000    0.000    0.000    0.000 
#    0.000    0.000    0.000    0.000    0.000    0.000 
#
# Total GULP energy -100268.391357 kJ/mol
# GULP energy per Si atom -5570.466186 kJ/mol
# Density = 2.144059 g / cm^3
# Si number density = 21.489506 Si / 1000 Ang^3
#
#
#
# Elastic Constant Matrix: (Units=GPa)
#
#
# Indices 1 2 3 4 5 6 
#
# 1 135.8204 25.9224 33.7477 0.0000 -25.6357 0.0000
# 2 25.9224 60.4245 0.5449 0.0000 -13.3496 0.0000
# 3 33.7477 0.5449 49.5395 0.0000 -1.4637 0.0000
# 4 0.0000 0.0000 0.0000 11.1102 0.0000 -0.6419
# 5 -25.6357 -13.3496 -1.4637 0.0000 28.2611 0.0000
# 6 0.0000 0.0000 0.0000 -0.6419 0.0000 29.2799
#
#
#
# Elastic Compliance Matrix: (Units=1/GPa)
#
#
# Indices 1 2 3 4 5 6 
#
# 1 0.011397 -0.002929 -0.007479 0.000000 0.008567 0.000000
# 2 -0.002929 0.019231 0.001977 0.000000 0.006529 0.000000
# 3 -0.007479 0.001977 0.025124 0.000000 -0.004549 0.000000
# 4 0.000000 0.000000 0.000000 0.090122 0.000000 0.001976
# 5 0.008567 0.006529 -0.004549 0.000000 0.046004 0.000000
# 6 0.000000 0.000000 0.000000 0.001976 0.000000 0.034196
#
#
# Mechanical properties :
#
#
# Convention : Reuss Voigt Hill
#
# Bulk Modulus (GPa) = 25.71327 40.69050 33.20189
# Shear Modulus (GPa) = 19.53886 26.10153 22.82020
#
# Velocity S-wave (km/s) = 3.01861 3.48892 3.26225
# Velocity P-wave (km/s) = 4.91333 5.93348 5.44734
#
# Compressibility (1/GPa) = 0.03889042
#
# Stress axis : x y z
#
# Youngs Moduli (GPa) = 87.74241 51.99962 39.80190
#
# Poissons Ratio (x) = 0.15231 0.29766
# Poissons Ratio (y) = 0.25701 -0.07868
# Poissons Ratio (z) = 0.65619 -0.10279
#
# Static dielectric constant tensor:
#      x y z
#    x 1.807930 0.000000 -0.033870 
#    y 0.000000 1.791220 0.000000 
#    z -0.033870 0.000000 1.860920 
# 
# From -- ./inp_files/29443.got.cif
#   From: 2010.05.17/outbox.cif.g08.bks.cpg/sg15_15_cif.got.tgz:29443.got - 2010.06.03 18:47:42.
