data_PCOD9282343
_publ_section_title
;
Structure prediction by ZEFSAII (Michael W. Deem and Ramdas Pophale) SiO2 
 PCOD9282343
Probable space group: C 2/C
;
_chemical_formula_sum "Si O2"
_cell_formula_units_Z 40
_cell_length_a 12.586511
_cell_length_b 10.188368
_cell_length_c 19.910700
_cell_angle_alpha 90.000000
_cell_angle_beta 35.417309
_cell_angle_gamma 90.000000
_cell_volume 1479.689126
_symmetry_space_group_name_H-M "C 2/C"
_symmetry_group_IT_number 15
_symmetry_cell_setting 'monoclinic'
loop_
_space_group_symop_operation_xyz
x,y,z
-x,y,1/2-z
-x,-y,-z
x,-y,1/2+z
1/2+x,1/2+y,z
1/2-x,1/2+y,1/2-z
1/2-x,1/2-y,-z
1/2+x,1/2-y,1/2+z
loop_
_atom_site_type_symbol
_atom_site_label
_atom_site_fract_x
_atom_site_fract_y
_atom_site_fract_z
Si Si1 0.215345 0.966800 0.519109
Si Si2 0.027607 0.761858 0.065756
Si Si3 0.211753 0.654113 0.637018
Si Si4 0.297842 0.573797 0.841188
Si Si5 0.128241 0.471487 0.788496
O O1 0.194764 0.952954 0.608719
O O2 0.432470 0.956806 0.394153
O O3 0.127098 0.105571 0.539756
O O4 0.161154 0.855030 0.495097
O O5 0.839621 0.776770 0.123673
O O6 0.946723 0.675550 0.168395
O O7 0.154286 0.672172 0.951488
O O8 0.210301 0.508289 0.674369
O O9 0.000000 0.698137 0.750000
O O10 0.500000 0.628243 0.750000
O O11 0.243359 0.522692 0.794775
#
# Coordination Sequence:
#
# PCOD9282343 Si02
#       5
#     8   8   8   8   8
#     4  10  21  39  61  89 123 161 207 258 307 369
#     4  11  22  40  65  96 125 164 215 258 310 377
#     4  10  23  42  64  94 130 164 204 260 322 377
#     4  11  23  40  62  91 129 172 212 258 309 367
#     4  10  22  41  62  90 127 163 206 260 314 374
#
# _framework density 27.032706000000001
#
# number of rings (size 3 to 8) (size 9 to 14) (size 15 to 20)
#    0.000    1.600    0.000    6.600    0.000    6.400 
#    0.000   11.000    0.000    0.000    0.000    0.000 
#    0.000    0.000    0.000    0.000    0.000    0.000 
#
# Total GULP energy -111517.862594 kJ/mol
# GULP energy per Si atom -5575.893130 kJ/mol
# Density = 2.697118 g / cm^3
# Si number density = 27.032706 Si / 1000 Ang^3
#
#
#
# Elastic Constant Matrix: (Units=GPa)
#
#
# Indices 1 2 3 4 5 6 
#
# 1 77.1772 16.9402 38.1223 0.0000 -7.6732 0.0000
# 2 16.9402 62.0687 31.3761 0.0000 -5.1817 0.0000
# 3 38.1223 31.3761 101.3112 -0.0001 -2.9770 0.0000
# 4 0.0000 0.0000 -0.0001 14.1946 0.0000 10.5167
# 5 -7.6732 -5.1817 -2.9770 0.0000 55.6056 0.0000
# 6 0.0000 0.0000 0.0000 10.5167 0.0000 32.0002
#
#
#
# Elastic Compliance Matrix: (Units=1/GPa)
#
#
# Indices 1 2 3 4 5 6 
#
# 1 0.016222 -0.001444 -0.005604 0.000000 0.001804 0.000000
# 2 -0.001444 0.019350 -0.005411 0.000000 0.001314 0.000000
# 3 -0.005604 -0.005411 0.013639 0.000000 -0.000547 0.000000
# 4 0.000000 0.000000 0.000000 0.093124 0.000000 -0.030605
# 5 0.001804 0.001314 -0.000547 0.000000 0.018326 0.000000
# 6 0.000000 0.000000 0.000000 -0.030605 0.000000 0.041308
#
#
# Mechanical properties :
#
#
# Convention : Reuss Voigt Hill
#
# Bulk Modulus (GPa) = 41.16326 45.93715 43.55021
# Shear Modulus (GPa) = 21.27811 30.63464 25.95637
#
# Velocity S-wave (km/s) = 2.80862 3.37002 3.10205
# Velocity P-wave (km/s) = 5.07721 5.67211 5.38288
#
# Compressibility (1/GPa) = 0.02429351
#
# Stress axis : x y z
#
# Youngs Moduli (GPa) = 61.64655 51.67905 73.31993
#
# Poissons Ratio (x) = 0.07462 0.41087
# Poissons Ratio (y) = 0.08902 0.39672
# Poissons Ratio (z) = 0.34545 0.27962
#
# Static dielectric constant tensor:
#      x y z
#    x 2.318670 0.000000 0.093600 
#    y 0.000000 2.398190 0.000000 
#    z 0.093600 0.000000 2.101130 
# 
# From -- ./inp_files/237349.got.cif
#   From: 2010.05.17/outbox.cif.g08.bks.cpg/sg15_119_cif.got.tgz:237349.got - 2010.06.03 18:47:42.
