data_PCOD9282024
_publ_section_title
;
Structure prediction by ZEFSAII (Michael W. Deem and Ramdas Pophale) SiO2 
 PCOD9282024
Probable space group: C 2/C
;
_chemical_formula_sum "Si O2"
_cell_formula_units_Z 56
_cell_length_a 7.970047
_cell_length_b 18.696540
_cell_length_c 22.653590
_cell_angle_alpha 90.000000
_cell_angle_beta 49.363306
_cell_angle_gamma 90.000000
_cell_volume 2561.637098
_symmetry_space_group_name_H-M "C 2/C"
_symmetry_group_IT_number 15
_symmetry_cell_setting 'monoclinic'
loop_
_space_group_symop_operation_xyz
x,y,z
-x,y,1/2-z
-x,-y,-z
x,-y,1/2+z
1/2+x,1/2+y,z
1/2-x,1/2+y,1/2-z
1/2-x,1/2-y,-z
1/2+x,1/2-y,1/2+z
loop_
_atom_site_type_symbol
_atom_site_label
_atom_site_fract_x
_atom_site_fract_y
_atom_site_fract_z
Si Si1 0.239923 0.351058 0.720465
Si Si2 0.919399 0.002634 0.699631
Si Si3 0.176311 0.285255 0.380888
Si Si4 0.538740 0.558149 0.939510
Si Si5 0.546723 0.892141 0.317060
Si Si6 0.323734 0.271368 0.186071
Si Si7 0.531938 0.284982 0.022830
O O1 0.392646 0.419358 0.690305
O O2 0.315228 0.284015 0.663475
O O3 0.214010 0.310640 0.788531
O O4 0.000000 0.372871 0.750000
O O5 0.023429 0.036783 0.614659
O O6 0.684371 0.041109 0.761530
O O7 0.000000 0.010241 0.750000
O O8 0.106139 0.359355 0.367559
O O9 0.431157 0.291933 0.345236
O O10 0.007692 0.259160 0.469216
O O11 0.422993 0.630584 0.989620
O O12 0.796485 0.580733 0.876331
O O13 0.500000 0.500000 0.000000
O O14 0.656229 0.827032 0.253666
O O15 0.332347 0.276329 0.114001
O O16 0.750000 0.250000 0.000000
#
# Coordination Sequence:
#
# PCOD9282024 Si02
#       7
#     8   8   8   8   8   8   8
#     4   9  18  37  63  93 133 175 226 282 341 415
#     4  12  25  43  68  99 139 190 241 290 348 430
#     4   9  19  38  67 103 137 175 225 294 358 423
#     4  12  27  47  71 100 142 189 240 297 368 426
#     4  11  22  41  72  98 133 185 239 287 346 427
#     4   9  18  38  68 102 133 177 233 283 351 422
#     4  10  21  38  67  98 135 181 224 290 356 426
#
# _framework density 21.861018999999999
#
# number of rings (size 3 to 8) (size 9 to 14) (size 15 to 20)
#    0.000    1.714    1.429    4.286    2.000    2.857 
#    7.714    0.714    0.000    0.000    0.000    0.000 
#    0.000    0.000    0.000    0.000    0.000    0.000 
#
# Total GULP energy -156001.434579 kJ/mol
# GULP energy per Si atom -5571.479806 kJ/mol
# Density = 2.181126 g / cm^3
# Si number density = 21.861019 Si / 1000 Ang^3
#
#
#
# Elastic Constant Matrix: (Units=GPa)
#
#
# Indices 1 2 3 4 5 6 
#
# 1 73.9466 24.8387 32.8574 -0.0001 3.7768 0.0001
# 2 24.8387 96.3942 29.7695 0.0000 -2.3872 0.0001
# 3 32.8574 29.7695 114.0657 -0.0004 16.9085 0.0001
# 4 -0.0001 0.0000 -0.0004 37.1667 0.0002 0.5077
# 5 3.7768 -2.3872 16.9085 0.0002 34.3657 -0.0001
# 6 0.0001 0.0001 0.0001 0.5077 -0.0001 23.4308
#
#
#
# Elastic Compliance Matrix: (Units=1/GPa)
#
#
# Indices 1 2 3 4 5 6 
#
# 1 0.016261 -0.002990 -0.003892 0.000000 -0.000080 0.000000
# 2 -0.002990 0.012021 -0.002641 0.000000 0.002463 0.000000
# 3 -0.003892 -0.002641 0.011370 0.000000 -0.005350 0.000000
# 4 0.000000 0.000000 0.000000 0.026914 0.000000 -0.000583
# 5 -0.000080 0.002463 -0.005350 0.000000 0.031911 0.000000
# 6 0.000000 0.000000 0.000000 -0.000583 0.000000 0.042691
#
#
# Mechanical properties :
#
#
# Convention : Reuss Voigt Hill
#
# Bulk Modulus (GPa) = 48.52897 51.03752 49.78324
# Shear Modulus (GPa) = 29.92506 32.12203 31.02354
#
# Velocity S-wave (km/s) = 3.70385 3.83740 3.77122
# Velocity P-wave (km/s) = 6.36698 6.55982 6.46412
#
# Compressibility (1/GPa) = 0.02060625
#
# Stress axis : x y z
#
# Youngs Moduli (GPa) = 61.49655 83.18601 87.94811
#
# Poissons Ratio (x) = 0.24874 0.34228
# Poissons Ratio (y) = 0.18389 0.23229
# Poissons Ratio (z) = 0.23934 0.21971
#
# Static dielectric constant tensor:
#      x y z
#    x 1.824020 0.000000 0.173940 
#    y 0.000000 1.837420 0.000000 
#    z 0.173940 0.000000 1.823790 
# 
# From -- ./inp_files/265477.got.cif
#   From: 2010.05.17/outbox.cif.g08.bks.cpg/sg15_133_cif.got.tgz:265477.got - 2010.06.03 18:47:42.
