data_PCOD9282408
_publ_section_title
;
Structure prediction by ZEFSAII (Michael W. Deem and Ramdas Pophale) SiO2 
 PCOD9282408
Probable space group: C 2/C
;
_chemical_formula_sum "Si O2"
_cell_formula_units_Z 36
_cell_length_a 12.223058
_cell_length_b 15.277632
_cell_length_c 8.325682
_cell_angle_alpha 90.000000
_cell_angle_beta 93.998275
_cell_angle_gamma 90.000000
_cell_volume 1550.948725
_symmetry_space_group_name_H-M "C 2/C"
_symmetry_group_IT_number 15
_symmetry_cell_setting 'monoclinic'
loop_
_space_group_symop_operation_xyz
x,y,z
-x,y,1/2-z
-x,-y,-z
x,-y,1/2+z
1/2+x,1/2+y,z
1/2-x,1/2+y,1/2-z
1/2-x,1/2-y,-z
1/2+x,1/2-y,1/2+z
loop_
_atom_site_type_symbol
_atom_site_label
_atom_site_fract_x
_atom_site_fract_y
_atom_site_fract_z
Si Si1 0.000000 0.498416 0.250000
Si Si2 0.922606 0.630665 0.019185
Si Si3 0.779097 0.123978 0.681908
Si Si4 0.000000 0.766956 0.250000
Si Si5 0.000000 0.944579 0.750000
Si Si6 0.658576 0.454302 0.016318
O O1 0.908060 0.565723 0.171641
O O2 0.965199 0.434484 0.387691
O O3 0.003728 0.704375 0.094233
O O4 0.816067 0.672045 0.925313
O O5 0.892106 0.176324 0.708983
O O6 0.756027 0.097762 0.864977
O O7 0.793354 0.035223 0.578590
O O8 0.914238 0.899585 0.619607
O O9 0.925832 0.003639 0.861794
#
# Coordination Sequence:
#
# PCOD9282408 Si02
#       6
#     4   8   8   4   4   8
#     4   9  20  42  66  83 106 142 198 245 274 330
#     4  10  21  39  62  85 109 148 191 237 286 332
#     4  11  20  36  57  86 116 149 192 233 277 338
#     4  11  23  36  54  81 123 156 178 225 291 346
#     4   8  13  26  40  72 107 132 170 214 271 320
#     4   9  17  28  52  78 107 145 185 226 270 319
#
# _framework density 23.211599
#
# number of rings (size 3 to 8) (size 9 to 14) (size 15 to 20)
#    0.000    2.222    0.000    6.000    0.000    0.000 
#    0.000    7.778    0.000    0.000    0.000    0.000 
#    0.000    0.000    0.000    0.000    0.000    0.000 
#
# Total GULP energy -100247.134461 kJ/mol
# GULP energy per Si atom -5569.285248 kJ/mol
# Density = 2.315877 g / cm^3
# Si number density = 23.211599 Si / 1000 Ang^3
#
#
#
# Elastic Constant Matrix: (Units=GPa)
#
#
# Indices 1 2 3 4 5 6 
#
# 1 60.5885 20.1041 38.3537 0.0000 42.7292 0.0000
# 2 20.1041 64.9502 42.7423 0.0000 20.4901 0.0000
# 3 38.3537 42.7423 165.7041 0.0000 49.1309 0.0000
# 4 0.0000 0.0000 0.0000 -129.0540 0.0000 7.3464
# 5 42.7292 20.4901 49.1309 0.0000 50.2610 0.0000
# 6 0.0000 0.0000 0.0000 7.3464 0.0000 18.2894
#
#
#
# Elastic Compliance Matrix: (Units=1/GPa)
#
#
# Indices 1 2 3 4 5 6 
#
# 1 0.041755 -0.002674 0.001728 0.000000 -0.036097 0.000000
# 2 -0.002674 0.019324 -0.003807 0.000000 -0.001883 0.000000
# 3 0.001728 -0.003807 0.009283 0.000000 -0.008991 0.000000
# 4 0.000000 0.000000 0.000000 -0.007575 0.000000 0.003043
# 5 -0.036097 -0.001883 -0.008991 0.000000 0.060140 0.000000
# 6 0.000000 0.000000 0.000000 0.003043 0.000000 0.053454
#
#
# Mechanical properties :
#
#
# Convention : Reuss Voigt Hill
#
# Bulk Modulus (GPa) = 16.43265 54.84923 35.64094
# Shear Modulus (GPa) = 24.25169 0.56879 12.41024
#
# Velocity S-wave (km/s) = 3.23586 0.49556 2.31477
# Velocity P-wave (km/s) = 4.58867 4.89988 4.74683
#
# Compressibility (1/GPa) = 0.06085447
#
# Stress axis : x y z
#
# Youngs Moduli (GPa) = 23.94926 51.75041 107.72689
#
# Poissons Ratio (x) = 0.13837 -0.18612
# Poissons Ratio (y) = 0.06404 0.41014
# Poissons Ratio (z) = -0.04138 0.19702
#
# Static dielectric constant tensor:
#      x y z
#    x 1.994380 0.000000 0.075100 
#    y 0.000000 1.922600 0.000000 
#    z 0.075100 0.000000 1.930890 
# 
# From -- ./inp_files/37479.got.cif
#   From: 2010.05.17/outbox.cif.g08.bks.cpg/sg15_19_cif.got.tgz:37479.got - 2010.06.03 18:47:42.
