data_PCOD9282328
_publ_section_title
;
Structure prediction by ZEFSAII (Michael W. Deem and Ramdas Pophale) SiO2 
 PCOD9282328
Probable space group: C 2/C
;
_chemical_formula_sum "Si O2"
_cell_formula_units_Z 48
_cell_length_a 18.165920
_cell_length_b 8.695506
_cell_length_c 31.763961
_cell_angle_alpha 90.000000
_cell_angle_beta 151.108671
_cell_angle_gamma 90.000000
_cell_volume 2424.201931
_symmetry_space_group_name_H-M "C 2/C"
_symmetry_group_IT_number 15
_symmetry_cell_setting 'monoclinic'
loop_
_space_group_symop_operation_xyz
x,y,z
-x,y,1/2-z
-x,-y,-z
x,-y,1/2+z
1/2+x,1/2+y,z
1/2-x,1/2+y,1/2-z
1/2-x,1/2-y,-z
1/2+x,1/2-y,1/2+z
loop_
_atom_site_type_symbol
_atom_site_label
_atom_site_fract_x
_atom_site_fract_y
_atom_site_fract_z
Si Si1 0.839564 0.170829 0.260804
Si Si2 0.303656 0.693090 0.732861
Si Si3 0.804736 0.159294 0.406049
Si Si4 0.848298 0.777661 0.090646
Si Si5 0.385188 0.601772 0.153707
Si Si6 0.655523 0.301272 0.093178
O O1 0.817663 0.229036 0.296937
O O2 0.719116 0.255441 0.170556
O O3 0.006734 0.195011 0.324484
O O4 0.805465 0.989627 0.240134
O O5 0.270102 0.741033 0.668391
O O6 0.473776 0.748009 0.829326
O O7 0.709633 0.169974 0.401022
O O8 0.975267 0.221797 0.499025
O O9 0.814331 0.981734 0.397854
O O10 0.833363 0.949610 0.103000
O O11 0.750000 0.750000 0.000000
O O12 0.500000 0.559304 0.250000
O O13 0.250145 0.700223 0.106707
#
# Coordination Sequence:
#
# PCOD9282328 Si02
#       6
#     8   8   8   8   8   8
#     4  10  21  39  61  88 118 155 195 240 289 344
#     4  11  23  38  61  88 119 154 196 241 290 350
#     4  11  23  39  59  88 119 153 196 241 290 348
#     4  11  23  39  60  86 117 152 195 244 293 348
#     4   9  20  40  62  85 118 156 194 240 291 347
#     4  10  22  39  60  86 120 155 194 241 289 345
#
# _framework density 19.800331
#
# number of rings (size 3 to 8) (size 9 to 14) (size 15 to 20)
#    0.000    1.667    0.000    5.500    0.000   13.333 
#    0.000    1.667    0.000    0.000    0.000    0.000 
#    0.000    0.000    0.000    0.000    0.000    0.000 
#
# Total GULP energy -134145.639570 kJ/mol
# GULP energy per Si atom -5589.401649 kJ/mol
# Density = 1.975526 g / cm^3
# Si number density = 19.800331 Si / 1000 Ang^3
#
#
#
# Elastic Constant Matrix: (Units=GPa)
#
#
# Indices 1 2 3 4 5 6 
#
# 1 94.7066 5.8648 3.7103 0.0000 -11.4780 0.0000
# 2 5.8648 29.2398 7.3876 0.0000 6.2442 -0.0001
# 3 3.7103 7.3876 61.0863 0.0000 -2.4445 -0.0001
# 4 0.0000 0.0000 0.0000 27.6811 0.0000 -3.0933
# 5 -11.4780 6.2442 -2.4445 0.0000 29.3227 0.0000
# 6 0.0000 -0.0001 -0.0001 -3.0933 0.0000 29.2791
#
#
#
# Elastic Compliance Matrix: (Units=1/GPa)
#
#
# Indices 1 2 3 4 5 6 
#
# 1 0.011398 -0.003371 -0.000078 0.000000 0.005173 0.000000
# 2 -0.003371 0.038195 -0.004809 0.000000 -0.009854 0.000000
# 3 -0.000078 -0.004809 0.017053 0.000000 0.002415 0.000000
# 4 0.000000 0.000000 0.000000 0.036557 0.000000 0.003862
# 5 0.005173 -0.009854 0.002415 0.000000 0.038428 0.000000
# 6 0.000000 0.000000 0.000000 0.003862 0.000000 0.034562
#
#
# Mechanical properties :
#
#
# Convention : Reuss Voigt Hill
#
# Bulk Modulus (GPa) = 19.94766 24.32868 22.13817
# Shear Modulus (GPa) = 23.87554 28.46124 26.16839
#
# Velocity S-wave (km/s) = 3.47625 3.79544 3.63934
# Velocity P-wave (km/s) = 5.11944 5.61434 5.37259
#
# Compressibility (1/GPa) = 0.05013119
#
# Stress axis : x y z
#
# Youngs Moduli (GPa) = 87.73734 26.18110 58.63992
#
# Poissons Ratio (x) = 0.08826 0.00455
# Poissons Ratio (y) = 0.29578 0.28199
# Poissons Ratio (z) = 0.00681 0.12590
#
# Static dielectric constant tensor:
#      x y z
#    x 1.696330 0.000000 0.010470 
#    y 0.000000 1.683620 0.000000 
#    z 0.010470 0.000000 1.672110 
# 
# From -- ./inp_files/224535.got.cif
#   From: 2010.05.17/outbox.cif.g08.bks.cpg/sg15_113_cif.got.tgz:224535.got - 2010.06.03 18:47:42.
