data_PCOD9282557
_publ_section_title
;
Structure prediction by ZEFSAII (Michael W. Deem and Ramdas Pophale) SiO2 
 PCOD9282557
Probable space group: C 2/C
;
_chemical_formula_sum "Si O2"
_cell_formula_units_Z 44
_cell_length_a 15.978168
_cell_length_b 11.345813
_cell_length_c 13.100947
_cell_angle_alpha 90.000000
_cell_angle_beta 121.177266
_cell_angle_gamma 90.000000
_cell_volume 2031.985987
_symmetry_space_group_name_H-M "C 2/C"
_symmetry_group_IT_number 15
_symmetry_cell_setting 'monoclinic'
loop_
_space_group_symop_operation_xyz
x,y,z
-x,y,1/2-z
-x,-y,-z
x,-y,1/2+z
1/2+x,1/2+y,z
1/2-x,1/2+y,1/2-z
1/2-x,1/2-y,-z
1/2+x,1/2-y,1/2+z
loop_
_atom_site_type_symbol
_atom_site_label
_atom_site_fract_x
_atom_site_fract_y
_atom_site_fract_z
Si Si1 0.733767 0.038779 0.809602
Si Si2 0.882506 0.047679 0.055838
Si Si3 0.337113 0.812484 0.617727
Si Si4 0.598146 0.183511 0.870262
Si Si5 0.000000 0.130210 0.750000
Si Si6 0.679055 0.990640 0.046055
O O1 0.698096 0.908657 0.822739
O O2 0.702889 0.049281 0.674021
O O3 0.682146 0.141197 0.844249
O O4 0.846375 0.044342 0.916140
O O5 0.905071 0.179119 0.106849
O O6 0.785143 0.007991 0.058308
O O7 0.966618 0.956391 0.138182
O O8 0.250000 0.750000 0.500000
O O9 0.408903 0.717045 0.709816
O O10 0.382310 0.894101 0.556591
O O11 0.500000 0.147230 0.750000
O O12 0.621528 0.111543 0.988371
#
# Coordination Sequence:
#
# PCOD9282557 Si02
#       6
#     8   8   8   8   4   8
#     4  10  22  40  62  87 117 159 199 241 299 354
#     4  10  21  42  63  82 119 159 197 244 293 353
#     4  10  21  39  63  88 122 158 195 246 302 352
#     4  10  21  40  62  88 117 157 198 246 297 353
#     4  12  20  42  64  86 122 154 202 250 300 344
#     4  10  22  40  62  87 117 159 199 241 299 354
#
# _framework density 21.653693000000001
#
# number of rings (size 3 to 8) (size 9 to 14) (size 15 to 20)
#    0.000    2.182    4.545    2.182    5.091    3.636 
#    0.000    0.909    0.000    0.000    0.000    0.000 
#    0.000    0.000    0.000    0.000    0.000    0.000 
#
# Total GULP energy -122668.529822 kJ/mol
# GULP energy per Si atom -5575.842265 kJ/mol
# Density = 2.160441 g / cm^3
# Si number density = 21.653693 Si / 1000 Ang^3
#
#
#
# Elastic Constant Matrix: (Units=GPa)
#
#
# Indices 1 2 3 4 5 6 
#
# 1 18.3125 11.8896 21.8178 0.0000 6.7011 0.0000
# 2 11.8896 127.2844 27.3333 0.0000 12.3510 0.0000
# 3 21.8178 27.3333 139.0926 0.0000 7.9965 0.0000
# 4 0.0000 0.0000 0.0000 66.3063 0.0000 38.9390
# 5 6.7011 12.3510 7.9965 0.0000 36.1072 0.0000
# 6 0.0000 0.0000 0.0000 38.9390 0.0000 29.8814
#
#
#
# Elastic Compliance Matrix: (Units=1/GPa)
#
#
# Indices 1 2 3 4 5 6 
#
# 1 0.072679 -0.003648 -0.010109 0.000000 -0.010002 0.000000
# 2 -0.003648 0.008611 -0.001002 0.000000 -0.002047 0.000000
# 3 -0.010109 -0.001002 0.008959 0.000000 0.000235 0.000000
# 4 0.000000 0.000000 0.000000 0.064250 0.000000 -0.083725
# 5 -0.010002 -0.002047 0.000235 0.000000 0.030200 0.000000
# 6 0.000000 0.000000 0.000000 -0.083725 0.000000 0.142569
#
#
# Mechanical properties :
#
#
# Convention : Reuss Voigt Hill
#
# Bulk Modulus (GPa) = 16.46583 45.19679 30.83131
# Shear Modulus (GPa) = 13.26158 41.36891 27.31525
#
# Velocity S-wave (km/s) = 2.47744 4.37564 3.55556
# Velocity P-wave (km/s) = 3.97546 6.81515 5.57900
#
# Compressibility (1/GPa) = 0.06073182
#
# Stress axis : x y z
#
# Youngs Moduli (GPa) = 13.75905 116.13078 111.62559
#
# Poissons Ratio (x) = 0.42361 1.12837
# Poissons Ratio (y) = 0.05019 0.11189
# Poissons Ratio (z) = 0.13908 0.11640
#
# Static dielectric constant tensor:
#      x y z
#    x 1.835630 0.000000 0.014520 
#    y 0.000000 1.853010 0.000000 
#    z 0.014520 0.000000 1.816300 
# 
# From -- ./inp_files/173033.got.cif
#   From: 2010.05.17/outbox.cif.g08.bks.cpg/sg15_87_cif.got.tgz:173033.got - 2010.06.03 18:47:42.
