data_PCOD9282326
_publ_section_title
;
Structure prediction by ZEFSAII (Michael W. Deem and Ramdas Pophale) SiO2 
 PCOD9282326
Probable space group: C 2/C
;
_chemical_formula_sum "Si O2"
_cell_formula_units_Z 56
_cell_length_a 16.630777
_cell_length_b 7.232433
_cell_length_c 19.638766
_cell_angle_alpha 90.000000
_cell_angle_beta 65.568461
_cell_angle_gamma 90.000000
_cell_volume 2150.652172
_symmetry_space_group_name_H-M "C 2/C"
_symmetry_group_IT_number 15
_symmetry_cell_setting 'monoclinic'
loop_
_space_group_symop_operation_xyz
x,y,z
-x,y,1/2-z
-x,-y,-z
x,-y,1/2+z
1/2+x,1/2+y,z
1/2-x,1/2+y,1/2-z
1/2-x,1/2-y,-z
1/2+x,1/2-y,1/2+z
loop_
_atom_site_type_symbol
_atom_site_label
_atom_site_fract_x
_atom_site_fract_y
_atom_site_fract_z
Si Si1 0.293531 0.943578 0.810641
Si Si2 0.375413 0.618412 0.450443
Si Si3 0.181926 0.465415 0.549390
Si Si4 0.477761 0.583578 0.685571
Si Si5 0.092987 0.404161 0.451685
Si Si6 0.359701 0.749884 0.201871
Si Si7 0.131037 0.786660 0.399030
O O1 0.241776 0.795226 0.783237
O O2 0.322193 0.875535 0.874730
O O3 0.363084 0.063557 0.744058
O O4 0.216892 0.092045 0.855833
O O5 0.279791 0.522307 0.490776
O O6 0.364775 0.832513 0.430503
O O7 0.438301 0.513212 0.377500
O O8 0.409564 0.633421 0.516633
O O9 0.134720 0.343498 0.508110
O O10 0.500000 0.673233 0.750000
O O11 0.405618 0.420083 0.723552
O O12 0.434014 0.705497 0.641872
O O13 0.092569 0.268549 0.388303
O O14 0.154639 0.575002 0.405726
O O15 0.000000 0.500000 0.500000
#
# Coordination Sequence:
#
# PCOD9282326 Si02
#       7
#     8   8   8   8   8   8   8
#     4  10  21  39  61  88 117 156 203 243 296 356
#     4   9  17  34  59  84 114 153 196 244 296 353
#     4   9  19  35  59  85 113 152 200 246 291 354
#     4  11  22  36  59  88 117 155 201 245 298 360
#     4  11  23  40  60  87 121 157 197 249 310 359
#     4  11  23  38  60  87 124 162 194 244 303 359
#     4   9  20  38  59  82 114 153 196 246 297 349
#
# _framework density 26.038613000000002
#
# number of rings (size 3 to 8) (size 9 to 14) (size 15 to 20)
#    0.000    2.000    0.000    4.714    0.000    5.143 
#    0.000    5.000    0.000    0.000    0.000    0.000 
#    0.000    0.000    0.000    0.000    0.000    0.000 
#
# Total GULP energy -156915.326967 kJ/mol
# GULP energy per Si atom -5604.118820 kJ/mol
# Density = 2.597935 g / cm^3
# Si number density = 26.038613 Si / 1000 Ang^3
#
#
#
# Elastic Constant Matrix: (Units=GPa)
#
#
# Indices 1 2 3 4 5 6 
#
# 1 79.8011 9.6871 50.9908 0.0000 29.8118 0.0000
# 2 9.6871 51.8379 14.0461 -0.0001 -2.9039 -0.0002
# 3 50.9908 14.0461 130.0602 0.0000 32.4029 0.0000
# 4 0.0000 -0.0001 0.0000 43.5069 0.0000 -2.1385
# 5 29.8118 -2.9039 32.4029 0.0000 52.6382 0.0000
# 6 0.0000 -0.0002 0.0000 -2.1385 0.0000 31.0627
#
#
#
# Elastic Compliance Matrix: (Units=1/GPa)
#
#
# Indices 1 2 3 4 5 6 
#
# 1 0.019102 -0.002567 -0.005293 0.000000 -0.007702 0.000000
# 2 -0.002567 0.020587 -0.002199 0.000000 0.003943 0.000000
# 3 -0.005293 -0.002199 0.010967 0.000000 -0.003874 0.000000
# 4 0.000000 0.000000 0.000000 0.023063 0.000000 0.001588
# 5 -0.007702 0.003943 -0.003874 0.000000 0.025962 0.000000
# 6 0.000000 0.000000 0.000000 0.001588 0.000000 0.032302
#
#
# Mechanical properties :
#
#
# Convention : Reuss Voigt Hill
#
# Bulk Modulus (GPa) = 32.74666 45.68302 39.21484
# Shear Modulus (GPa) = 30.81063 37.90656 34.35859
#
# Velocity S-wave (km/s) = 3.44360 3.81961 3.63647
# Velocity P-wave (km/s) = 5.33054 6.08564 5.72056
#
# Compressibility (1/GPa) = 0.03053746
#
# Stress axis : x y z
#
# Youngs Moduli (GPa) = 52.35030 48.57320 91.18492
#
# Poissons Ratio (x) = 0.12468 0.48265
# Poissons Ratio (y) = 0.13438 0.20056
# Poissons Ratio (z) = 0.27709 0.10684
#
# Static dielectric constant tensor:
#      x y z
#    x 2.067940 0.000000 0.004610 
#    y 0.000000 2.017530 0.000000 
#    z 0.004610 0.000000 2.036310 
# 
# From -- ./inp_files/209504.got.cif
#   From: 2010.05.17/outbox.cif.g08.bks.cpg/sg15_105_cif.got.tgz:209504.got - 2010.06.03 18:47:42.
