data_PCOD9282249
_publ_section_title
;
Structure prediction by ZEFSAII (Michael W. Deem and Ramdas Pophale) SiO2 
 PCOD9282249
Probable space group: C 2/C
;
_chemical_formula_sum "Si O2"
_cell_formula_units_Z 44
_cell_length_a 24.803769
_cell_length_b 8.257351
_cell_length_c 13.490230
_cell_angle_alpha 90.000000
_cell_angle_beta 124.974921
_cell_angle_gamma 90.000000
_cell_volume 2263.994366
_symmetry_space_group_name_H-M "C 2/C"
_symmetry_group_IT_number 15
_symmetry_cell_setting 'monoclinic'
loop_
_space_group_symop_operation_xyz
x,y,z
-x,y,1/2-z
-x,-y,-z
x,-y,1/2+z
1/2+x,1/2+y,z
1/2-x,1/2+y,1/2-z
1/2-x,1/2-y,-z
1/2+x,1/2-y,1/2+z
loop_
_atom_site_type_symbol
_atom_site_label
_atom_site_fract_x
_atom_site_fract_y
_atom_site_fract_z
Si Si1 0.817245 0.521438 0.233204
Si Si2 0.442170 0.459517 0.013252
Si Si3 0.000000 0.164400 0.250000
Si Si4 0.560860 0.920971 0.004685
Si Si5 0.683641 0.673123 0.630107
Si Si6 0.115935 0.381540 0.384888
O O1 0.874723 0.448821 0.361634
O O2 0.750590 0.421824 0.179599
O O3 0.809579 0.702889 0.269909
O O4 0.842377 0.490097 0.147443
O O5 0.463672 0.550810 0.134591
O O6 0.442754 0.267699 0.021952
O O7 0.500000 0.500000 0.000000
O O8 0.373656 0.542107 0.909367
O O9 0.060663 0.271740 0.271500
O O10 0.572357 0.013294 0.914132
O O11 0.500000 0.000000 0.000000
O O12 0.661496 0.774482 0.507859
#
# Coordination Sequence:
#
# PCOD9282249 Si02
#       6
#     8   8   4   8   8   8
#     4  11  21  40  62  85 122 161 196 251 306 351
#     4  11  22  39  59  87 119 154 199 247 298 357
#     4  10  22  36  58  86 118 154 196 250 302 346
#     4  11  23  39  62  91 121 156 203 248 295 361
#     4  10  23  39  60  89 119 157 203 249 299 359
#     4  10  21  39  60  87 119 159 203 248 302 359
#
# _framework density 19.434678000000002
#
# number of rings (size 3 to 8) (size 9 to 14) (size 15 to 20)
#    0.000    1.455    0.000    7.091    0.000    3.636 
#    0.000   11.818    0.000    0.000    0.000    0.000 
#    0.000    0.000    0.000    0.000    0.000    0.000 
#
# Total GULP energy -122789.240702 kJ/mol
# GULP energy per Si atom -5581.329123 kJ/mol
# Density = 1.939044 g / cm^3
# Si number density = 19.434678 Si / 1000 Ang^3
#
#
#
# Elastic Constant Matrix: (Units=GPa)
#
#
# Indices 1 2 3 4 5 6 
#
# 1 177.0481 82.2245 56.3160 0.0000 8.2152 0.0000
# 2 82.2245 143.7959 50.1680 0.0000 7.5578 0.0000
# 3 56.3160 50.1680 55.1286 0.0000 8.4603 0.0000
# 4 0.0000 0.0000 0.0000 14.1403 0.0000 2.5957
# 5 8.2152 7.5578 8.4603 0.0000 34.4943 0.0000
# 6 0.0000 0.0000 0.0000 2.5957 0.0000 32.9573
#
#
#
# Elastic Compliance Matrix: (Units=1/GPa)
#
#
# Indices 1 2 3 4 5 6 
#
# 1 0.009113 -0.002876 -0.006708 0.000000 0.000105 0.000000
# 2 -0.002876 0.011097 -0.007162 0.000000 0.000010 0.000000
# 3 -0.006708 -0.007162 0.032237 0.000000 -0.004740 0.000000
# 4 0.000000 0.000000 0.000000 0.071757 0.000000 -0.005652
# 5 0.000105 0.000010 -0.004740 0.000000 0.030126 0.000000
# 6 0.000000 0.000000 0.000000 -0.005652 0.000000 0.030787
#
#
# Mechanical properties :
#
#
# Convention : Reuss Voigt Hill
#
# Bulk Modulus (GPa) = 52.75779 83.70995 68.23387
# Shear Modulus (GPa) = 22.22949 28.80267 25.51608
#
# Velocity S-wave (km/s) = 3.38569 3.85388 3.62735
# Velocity P-wave (km/s) = 6.51836 7.93531 7.26148
#
# Compressibility (1/GPa) = 0.01895455
#
# Stress axis : x y z
#
# Youngs Moduli (GPa) = 109.73802 90.11403 31.02053
#
# Poissons Ratio (x) = 0.25917 0.20808
# Poissons Ratio (y) = 0.31561 0.22217
# Poissons Ratio (z) = 0.73610 0.64541
#
# Static dielectric constant tensor:
#      x y z
#    x 1.662410 0.000000 -0.005050 
#    y 0.000000 1.694590 0.000000 
#    z -0.005050 0.000000 1.681060 
# 
# From -- ./inp_files/116849.got.cif
#   From: 2010.05.17/outbox.cif.g08.bks.cpg/sg15_59_cif.got.tgz:116849.got - 2010.06.03 18:47:42.
