data_PCOD9282641
_publ_section_title
;
Structure prediction by ZEFSAII (Michael W. Deem and Ramdas Pophale) SiO2 
 PCOD9282641
Probable space group: C 2/C
;
_chemical_formula_sum "Si O2"
_cell_formula_units_Z 40
_cell_length_a 14.888953
_cell_length_b 27.459274
_cell_length_c 5.094382
_cell_angle_alpha 90.000000
_cell_angle_beta 118.250128
_cell_angle_gamma 90.000000
_cell_volume 1834.704978
_symmetry_space_group_name_H-M "C 2/C"
_symmetry_group_IT_number 15
_symmetry_cell_setting 'monoclinic'
loop_
_space_group_symop_operation_xyz
x,y,z
-x,y,1/2-z
-x,-y,-z
x,-y,1/2+z
1/2+x,1/2+y,z
1/2-x,1/2+y,1/2-z
1/2-x,1/2-y,-z
1/2+x,1/2-y,1/2+z
loop_
_atom_site_type_symbol
_atom_site_label
_atom_site_fract_x
_atom_site_fract_y
_atom_site_fract_z
Si Si1 0.326790 0.102161 0.264339
Si Si2 0.000000 0.535691 0.250000
Si Si3 0.300476 0.288619 0.377570
Si Si4 0.696387 0.602199 0.569658
Si Si5 0.000000 0.965213 0.750000
Si Si6 0.603513 0.203768 0.234347
O O1 0.408622 0.071110 0.214587
O O2 0.282316 0.084270 0.480701
O O3 0.378904 0.154462 0.405816
O O4 0.234558 0.103200 0.924244
O O5 0.000000 0.500000 0.500000
O O6 0.250000 0.250000 0.500000
O O7 0.327323 0.341059 0.530340
O O8 0.393506 0.257153 0.390800
O O9 0.207308 0.297102 0.047835
O O10 0.599084 0.568723 0.399681
O O11 0.000000 0.000000 0.500000
O O12 0.500000 0.198129 0.250000
#
# Coordination Sequence:
#
# PCOD9282641 Si02
#       6
#     8   4   8   8   4   8
#     4  11  23  44  67  98 136 175 217 275 350 405
#     4  12  26  42  66 100 132 168 228 278 330 408
#     4  10  21  40  62 100 134 171 225 272 340 407
#     4  11  25  44  72  97 136 174 226 292 334 408
#     4  12  28  50  72 100 132 184 246 290 354 412
#     4  10  21  39  63  93 137 179 214 269 337 420
#
# _framework density 21.801867999999999
#
# number of rings (size 3 to 8) (size 9 to 14) (size 15 to 20)
#    0.000    1.200    3.000    2.400    0.000    7.200 
#    1.800    0.000    0.000    0.000    0.000    0.000 
#    0.000    0.000    0.000    0.000    0.000    0.000 
#
# Total GULP energy -111562.405877 kJ/mol
# GULP energy per Si atom -5578.120294 kJ/mol
# Density = 2.175225 g / cm^3
# Si number density = 21.801868 Si / 1000 Ang^3
#
#
#
# Elastic Constant Matrix: (Units=GPa)
#
#
# Indices 1 2 3 4 5 6 
#
# 1 123.5551 52.3152 14.5168 0.0000 -0.0328 0.0000
# 2 52.3152 139.8376 31.7982 0.0000 11.0631 0.0000
# 3 14.5168 31.7982 57.4603 0.0000 -14.6755 0.0000
# 4 0.0000 0.0000 0.0000 -45.7169 0.0000 126.0683
# 5 -0.0328 11.0631 -14.6755 0.0000 33.3907 0.0000
# 6 0.0000 0.0000 0.0000 126.0683 0.0000 -165.4068
#
#
#
# Elastic Compliance Matrix: (Units=1/GPa)
#
#
# Indices 1 2 3 4 5 6 
#
# 1 0.009667 -0.003688 -0.000098 0.000000 0.001189 0.000000
# 2 -0.003688 0.010513 -0.006507 0.000000 -0.006347 0.000000
# 3 -0.000098 -0.006507 0.024308 0.000000 0.012839 0.000000
# 4 0.000000 0.000000 0.000000 0.019854 0.000000 0.015132
# 5 0.001189 -0.006347 0.012839 0.000000 0.037695 0.000000
# 6 0.000000 0.000000 0.000000 0.015132 0.000000 0.005487
#
#
# Mechanical properties :
#
#
# Convention : Reuss Voigt Hill
#
# Bulk Modulus (GPa) = 41.83695 57.56815 49.70255
# Shear Modulus (GPa) = 36.74387 -20.73175 8.00606
#
# Velocity S-wave (km/s) = 4.10976 -3.08704 1.91837
# Velocity P-wave (km/s) = 6.46154 3.70892 5.26818
#
# Compressibility (1/GPa) = 0.02390231
#
# Stress axis : x y z
#
# Youngs Moduli (GPa) = 103.44387 95.12252 41.13875
#
# Poissons Ratio (x) = 0.35086 0.00401
# Poissons Ratio (y) = 0.38155 0.26768
# Poissons Ratio (z) = 0.01009 0.61894
#
# Static dielectric constant tensor:
#      x y z
#    x 1.686830 0.000000 -0.155020 
#    y 0.000000 2.035750 0.000000 
#    z -0.155020 0.000000 1.834370 
# 
# From -- ./inp_files/8163.got.cif
#   From: 2010.05.17/outbox.cif.g08.bks.cpg/sg15_5_cif.got.tgz:8163.got - 2010.06.03 18:47:42.
