data_PCOD9282835
_publ_section_title
;
Structure prediction by ZEFSAII (Michael W. Deem and Ramdas Pophale) SiO2 
 PCOD9282835
Probable space group: C 2/C
;
_chemical_formula_sum "Si O2"
_cell_formula_units_Z 40
_cell_length_a 20.503197
_cell_length_b 5.947065
_cell_length_c 12.968320
_cell_angle_alpha 90.000000
_cell_angle_beta 65.034072
_cell_angle_gamma 90.000000
_cell_volume 1433.520921
_symmetry_space_group_name_H-M "C 2/C"
_symmetry_group_IT_number 15
_symmetry_cell_setting 'monoclinic'
loop_
_space_group_symop_operation_xyz
x,y,z
-x,y,1/2-z
-x,-y,-z
x,-y,1/2+z
1/2+x,1/2+y,z
1/2-x,1/2+y,1/2-z
1/2-x,1/2-y,-z
1/2+x,1/2-y,1/2+z
loop_
_atom_site_type_symbol
_atom_site_label
_atom_site_fract_x
_atom_site_fract_y
_atom_site_fract_z
Si Si1 0.742529 0.394498 0.630387
Si Si2 0.733615 0.882265 0.639089
Si Si3 0.579198 0.096128 0.144897
Si Si4 0.921047 0.847909 0.786440
Si Si5 0.963962 0.751207 0.531509
O O1 0.770553 0.644693 0.578449
O O2 0.757154 0.385165 0.743333
O O3 0.658464 0.437499 0.665279
O O4 0.759562 0.133921 0.585204
O O5 0.647786 0.880524 0.672786
O O6 0.500000 0.109374 0.250000
O O7 0.581530 0.248189 0.043587
O O8 0.582211 0.830896 0.118444
O O9 0.926233 0.749721 0.666941
O O10 0.000000 0.955762 0.750000
O O11 0.000000 0.500000 0.500000
O O12 0.000000 0.000000 0.500000
#
# Coordination Sequence:
#
# PCOD9282835 Si02
#       5
#     8   8   8   8   8
#     4   9  19  34  56  85 116 156 203 243 293 360
#     4   9  19  34  56  85 116 156 203 243 293 360
#     4  10  21  39  65  88 123 160 205 245 313 354
#     4  10  21  39  65  88 123 160 205 245 313 354
#     4  12  26  40  57  96 127 154 204 260 302 366
#
# _framework density 27.903323
#
# number of rings (size 3 to 8) (size 9 to 14) (size 15 to 20)
#    0.000    2.000    4.000    0.000    5.600    0.000 
#    0.000    1.000    0.000    0.000    0.000   19.600 
#    0.000    0.000    0.000    0.000    0.000    0.000 
#
# Total GULP energy -111370.214014 kJ/mol
# GULP energy per Si atom -5568.510701 kJ/mol
# Density = 2.783981 g / cm^3
# Si number density = 27.903323 Si / 1000 Ang^3
#
#
#
# Elastic Constant Matrix: (Units=GPa)
#
#
# Indices 1 2 3 4 5 6 
#
# 1 222.1246 35.6311 59.4255 0.0000 19.1104 0.0000
# 2 35.6311 293.9510 50.3251 0.0002 0.6698 0.0002
# 3 59.4255 50.3251 102.0710 0.0000 5.2014 0.0000
# 4 0.0000 0.0002 0.0000 21.6814 0.0000 10.3025
# 5 19.1104 0.6698 5.2014 0.0000 42.7168 0.0000
# 6 0.0000 0.0002 0.0000 10.3025 0.0000 26.3515
#
#
#
# Elastic Compliance Matrix: (Units=1/GPa)
#
#
# Indices 1 2 3 4 5 6 
#
# 1 0.005517 -0.000145 -0.003034 0.000000 -0.002097 0.000000
# 2 -0.000145 0.003721 -0.001761 0.000000 0.000221 0.000000
# 3 -0.003034 -0.001761 0.012439 0.000000 -0.000130 0.000000
# 4 0.000000 0.000000 0.000000 0.056646 0.000000 -0.022146
# 5 -0.002097 0.000221 -0.000130 0.000000 0.024360 0.000000
# 6 0.000000 0.000000 0.000000 -0.022146 0.000000 0.046607
#
#
# Mechanical properties :
#
#
# Convention : Reuss Voigt Hill
#
# Bulk Modulus (GPa) = 84.77253 100.98999 92.88126
# Shear Modulus (GPa) = 30.65575 49.66761 40.16168
#
# Velocity S-wave (km/s) = 3.31817 4.22357 3.79795
# Velocity P-wave (km/s) = 6.71767 7.74959 7.25201
#
# Compressibility (1/GPa) = 0.01179627
#
# Stress axis : x y z
#
# Youngs Moduli (GPa) = 181.25000 268.78017 80.39507
#
# Poissons Ratio (x) = 0.03886 0.24392
# Poissons Ratio (y) = 0.02620 0.14161
# Poissons Ratio (z) = 0.54991 0.47344
#
# Static dielectric constant tensor:
#      x y z
#    x 2.130640 0.000000 0.047080 
#    y 0.000000 2.435420 0.000000 
#    z 0.047080 0.000000 2.218220 
# 
# From -- ./inp_files/170479.got.cif
#   From: 2010.05.17/outbox.cif.g08.bks.cpg/sg15_86_cif.got.tgz:170479.got - 2010.06.03 18:47:42.
