data_PCOD9282477
_publ_section_title
;
Structure prediction by ZEFSAII (Michael W. Deem and Ramdas Pophale) SiO2 
 PCOD9282477
Probable space group: C 2/C
;
_chemical_formula_sum "Si O2"
_cell_formula_units_Z 36
_cell_length_a 12.296309
_cell_length_b 13.438390
_cell_length_c 13.558973
_cell_angle_alpha 90.000000
_cell_angle_beta 135.625523
_cell_angle_gamma 90.000000
_cell_volume 1566.896391
_symmetry_space_group_name_H-M "C 2/C"
_symmetry_group_IT_number 15
_symmetry_cell_setting 'monoclinic'
loop_
_space_group_symop_operation_xyz
x,y,z
-x,y,1/2-z
-x,-y,-z
x,-y,1/2+z
1/2+x,1/2+y,z
1/2-x,1/2+y,1/2-z
1/2-x,1/2-y,-z
1/2+x,1/2-y,1/2+z
loop_
_atom_site_type_symbol
_atom_site_label
_atom_site_fract_x
_atom_site_fract_y
_atom_site_fract_z
Si Si1 0.121643 0.627115 0.650672
Si Si2 0.000000 0.674387 0.250000
Si Si3 0.324815 0.336028 0.614802
Si Si4 0.392572 0.749917 0.887130
Si Si5 0.154774 0.513683 0.466451
O O1 0.276241 0.656118 0.810475
O O2 0.159758 0.567477 0.575694
O O3 0.037045 0.728380 0.554136
O O4 0.996762 0.559994 0.628788
O O5 0.051289 0.735282 0.187902
O O6 0.134829 0.599736 0.373921
O O7 0.500000 0.311359 0.750000
O O8 0.250000 0.250000 0.500000
O O9 0.223163 0.337120 0.649204
O O10 0.301036 0.442261 0.549537
#
# Coordination Sequence:
#
# PCOD9282477 Si02
#       5
#     8   4   8   8   8
#     4   9  19  39  61  85 123 157 205 247 298 364
#     4  10  22  40  64  90 124 162 202 246 320 358
#     4  11  23  40  61  91 121 159 209 250 301 363
#     4  10  21  39  62  92 117 159 207 245 304 365
#     4   9  20  37  60  86 122 162 198 246 306 361
#
# _framework density 22.975355
#
# number of rings (size 3 to 8) (size 9 to 14) (size 15 to 20)
#    0.000    2.222    0.000    4.000    4.667    3.556 
#    6.000    1.111    0.000    0.000    0.000    0.000 
#    0.000    0.000    0.000    0.000    0.000    0.000 
#
# Total GULP energy -100454.491639 kJ/mol
# GULP energy per Si atom -5580.805091 kJ/mol
# Density = 2.292306 g / cm^3
# Si number density = 22.975355 Si / 1000 Ang^3
#
#
#
# Elastic Constant Matrix: (Units=GPa)
#
#
# Indices 1 2 3 4 5 6 
#
# 1 70.2392 -11.6554 23.6096 0.0000 -13.5717 0.0000
# 2 -11.6554 49.8231 36.1747 0.0000 6.9008 0.0000
# 3 23.6096 36.1747 90.0198 0.0000 12.1235 0.0000
# 4 0.0000 0.0000 0.0000 39.4433 0.0000 7.4982
# 5 -13.5717 6.9008 12.1235 0.0000 29.3720 0.0000
# 6 0.0000 0.0000 0.0000 7.4982 0.0000 13.9924
#
#
#
# Elastic Compliance Matrix: (Units=1/GPa)
#
#
# Indices 1 2 3 4 5 6 
#
# 1 0.023452 0.013293 -0.013269 0.000000 0.013190 0.000000
# 2 0.013293 0.035995 -0.018678 0.000000 0.005395 0.000000
# 3 -0.013269 -0.018678 0.023643 0.000000 -0.011502 0.000000
# 4 0.000000 0.000000 0.000000 0.028228 0.000000 -0.015127
# 5 0.013190 0.005395 -0.011502 0.000000 0.043620 0.000000
# 6 0.000000 0.000000 0.000000 -0.015127 0.000000 0.079574
#
#
# Mechanical properties :
#
#
# Convention : Reuss Voigt Hill
#
# Bulk Modulus (GPa) = 21.84197 34.03778 27.93988
# Shear Modulus (GPa) = 17.41674 27.35841 22.38758
#
# Velocity S-wave (km/s) = 2.75628 3.45450 3.12495
# Velocity P-wave (km/s) = 4.43360 5.54603 5.02072
#
# Compressibility (1/GPa) = 0.04578341
#
# Stress axis : x y z
#
# Youngs Moduli (GPa) = 42.64090 27.78179 42.29498
#
# Poissons Ratio (x) = -0.36932 0.56122
# Poissons Ratio (y) = -0.56685 0.78997
# Poissons Ratio (z) = 0.56581 0.51890
#
# Static dielectric constant tensor:
#      x y z
#    x 1.894620 0.000000 -0.012170 
#    y 0.000000 1.893280 0.000000 
#    z -0.012170 0.000000 1.910230 
# 
# From -- ./inp_files/37583.got.cif
#   From: 2010.05.17/outbox.cif.g08.bks.cpg/sg15_19_cif.got.tgz:37583.got - 2010.06.03 18:47:42.
