data_PCOD9282405
_publ_section_title
;
Structure prediction by ZEFSAII (Michael W. Deem and Ramdas Pophale) SiO2 
 PCOD9282405
Probable space group: C 2/C
;
_chemical_formula_sum "Si O2"
_cell_formula_units_Z 56
_cell_length_a 19.806481
_cell_length_b 9.032794
_cell_length_c 29.999488
_cell_angle_alpha 90.000000
_cell_angle_beta 34.579542
_cell_angle_gamma 90.000000
_cell_volume 3046.121665
_symmetry_space_group_name_H-M "C 2/C"
_symmetry_group_IT_number 15
_symmetry_cell_setting 'monoclinic'
loop_
_space_group_symop_operation_xyz
x,y,z
-x,y,1/2-z
-x,-y,-z
x,-y,1/2+z
1/2+x,1/2+y,z
1/2-x,1/2+y,1/2-z
1/2-x,1/2-y,-z
1/2+x,1/2-y,1/2+z
loop_
_atom_site_type_symbol
_atom_site_label
_atom_site_fract_x
_atom_site_fract_y
_atom_site_fract_z
Si Si1 0.722819 0.782869 0.937186
Si Si2 0.188665 0.020900 0.188811
Si Si3 0.238250 0.226169 0.315838
Si Si4 0.874268 0.064615 0.583821
Si Si5 0.015151 0.624083 0.887521
Si Si6 0.126605 0.671012 0.346696
Si Si7 0.989734 0.739951 0.805947
O O1 0.747497 0.918409 0.889992
O O2 0.688700 0.647563 0.923046
O O3 0.849901 0.757940 0.890565
O O4 0.612912 0.815141 0.028722
O O5 0.264898 0.084261 0.188650
O O6 0.062251 0.104616 0.262353
O O7 0.202828 0.845433 0.183127
O O8 0.114726 0.290019 0.362447
O O9 0.328605 0.216677 0.225839
O O10 0.207116 0.067767 0.353447
O O11 0.897761 0.188056 0.609124
O O12 0.000000 0.000000 0.500000
O O13 0.025202 0.451936 0.895552
O O14 0.039684 0.651932 0.821576
O O15 0.000000 0.673658 0.750000
#
# Coordination Sequence:
#
# PCOD9282405 Si02
#       7
#     8   8   8   8   8   8   8
#     4  10  22  37  61  85 122 165 201 241 307 371
#     4   9  20  36  60  85 116 154 198 246 299 359
#     4  11  21  35  63  89 125 149 199 258 309 361
#     4  11  22  37  59  97 125 156 196 259 311 357
#     4  11  21  37  61  90 118 156 203 254 299 361
#     4  10  22  34  60  91 119 154 198 251 311 353
#     4  10  21  39  62  82 116 161 211 242 299 372
#
# _framework density 18.384032999999999
#
# number of rings (size 3 to 8) (size 9 to 14) (size 15 to 20)
#    0.000    1.714    2.857    2.143    6.000    1.714 
#    0.000    0.000    9.429    1.714    0.000    0.000 
#    0.000    0.000    0.000    0.000    0.000    0.000 
#
# Total GULP energy -156139.645460 kJ/mol
# GULP energy per Si atom -5576.415909 kJ/mol
# Density = 1.834219 g / cm^3
# Si number density = 18.384033 Si / 1000 Ang^3
#
#
#
# Elastic Constant Matrix: (Units=GPa)
#
#
# Indices 1 2 3 4 5 6 
#
# 1 74.2847 42.1782 28.4014 -0.0027 2.4067 0.0024
# 2 42.1782 126.9858 47.3955 0.0016 12.2230 0.0027
# 3 28.4014 47.3955 95.6090 -0.0010 -7.0688 -0.0005
# 4 -0.0027 0.0016 -0.0010 -2.6651 0.0004 -16.0917
# 5 2.4067 12.2230 -7.0688 0.0004 22.0050 -0.0007
# 6 0.0024 0.0027 -0.0005 -16.0917 -0.0007 -0.5458
#
#
#
# Elastic Compliance Matrix: (Units=1/GPa)
#
#
# Indices 1 2 3 4 5 6 
#
# 1 0.017177 -0.004632 -0.002822 0.000002 -0.000213 -0.000003
# 2 -0.004632 0.012121 -0.005217 0.000002 -0.007902 0.000002
# 3 -0.002822 -0.005217 0.014465 -0.000002 0.007853 0.000000
# 4 0.000002 0.000002 -0.000002 0.002120 -0.000004 -0.062495
# 5 -0.000213 -0.007902 0.007853 -0.000004 0.052380 0.000001
# 6 -0.000003 0.000002 0.000000 -0.062495 0.000001 0.010350
#
#
# Mechanical properties :
#
#
# Convention : Reuss Voigt Hill
#
# Bulk Modulus (GPa) = 54.28624 59.20332 56.74478
# Shear Modulus (GPa) = 35.69001 15.68578 25.68790
#
# Velocity S-wave (km/s) = 4.41087 2.92418 3.74209
# Velocity P-wave (km/s) = 7.45212 6.60868 7.04304
#
# Compressibility (1/GPa) = 0.01842087
#
# Stress axis : x y z
#
# Youngs Moduli (GPa) = 58.21569 82.50086 69.13461
#
# Poissons Ratio (x) = 0.38211 0.19513
# Poissons Ratio (y) = 0.26963 0.36068
# Poissons Ratio (z) = 0.16431 0.43041
#
# Static dielectric constant tensor:
#      x y z
#    x 1.670180 0.000000 0.004950 
#    y 0.000000 1.659080 0.000000 
#    z 0.004950 0.000000 1.632740 
# 
# From -- ./inp_files/213460.got.cif
#   From: 2010.05.17/outbox.cif.g08.bks.cpg/sg15_107_cif.got.tgz:213460.got - 2010.06.03 18:47:42.
