data_PCOD9282209
_publ_section_title
;
Structure prediction by ZEFSAII (Michael W. Deem and Ramdas Pophale) SiO2 
 PCOD9282209
Probable space group: C 2/C
;
_chemical_formula_sum "Si O2"
_cell_formula_units_Z 48
_cell_length_a 6.717722
_cell_length_b 12.483539
_cell_length_c 22.492533
_cell_angle_alpha 90.000000
_cell_angle_beta 122.458217
_cell_angle_gamma 90.000000
_cell_volume 1591.581608
_symmetry_space_group_name_H-M "C 2/C"
_symmetry_group_IT_number 15
_symmetry_cell_setting 'monoclinic'
loop_
_space_group_symop_operation_xyz
x,y,z
-x,y,1/2-z
-x,-y,-z
x,-y,1/2+z
1/2+x,1/2+y,z
1/2-x,1/2+y,1/2-z
1/2-x,1/2-y,-z
1/2+x,1/2-y,1/2+z
loop_
_atom_site_type_symbol
_atom_site_label
_atom_site_fract_x
_atom_site_fract_y
_atom_site_fract_z
Si Si1 0.603848 0.734005 0.554941
Si Si2 0.581618 0.543760 0.866645
Si Si3 0.725383 0.401220 0.731066
Si Si4 0.778746 0.431879 0.007085
Si Si5 0.569726 0.925063 0.347087
Si Si6 0.073393 0.729066 0.346303
O O1 0.560181 0.628115 0.506327
O O2 0.613565 0.831956 0.511603
O O3 0.866827 0.698749 0.622353
O O4 0.437452 0.761849 0.583918
O O5 0.539687 0.441379 0.818919
O O6 0.724599 0.515478 0.947750
O O7 0.317340 0.562048 0.851100
O O8 0.646245 0.649938 0.841569
O O9 0.869760 0.506787 0.780864
O O10 0.792121 0.354530 0.674703
O O11 0.807810 0.300374 0.783055
O O12 0.922167 0.477702 0.085796
#
# Coordination Sequence:
#
# PCOD9282209 Si02
#       6
#     8   8   8   8   8   8
#     4   8  19  38  65  88 124 154 216 257 305 384
#     4  11  20  37  66  85 122 166 201 255 319 364
#     4  11  22  43  58  88 133 165 208 258 314 379
#     4   9  19  38  63  96 118 159 211 262 311 377
#     4   9  17  37  64  81 119 170 192 245 324 366
#     4  10  21  39  59  90 121 161 211 252 302 385
#
# _framework density 30.158681999999999
#
# number of rings (size 3 to 8) (size 9 to 14) (size 15 to 20)
#    1.000    1.333    3.333    0.500    0.000    1.333 
#    6.000    5.833    0.000    0.000    0.000    0.000 
#    0.000    0.000    0.000    0.000    0.000    0.000 
#
# Total GULP energy -133851.724231 kJ/mol
# GULP energy per Si atom -5577.155176 kJ/mol
# Density = 3.009004 g / cm^3
# Si number density = 30.158682 Si / 1000 Ang^3
#
#
#
# Elastic Constant Matrix: (Units=GPa)
#
#
# Indices 1 2 3 4 5 6 
#
# 1 110.4458 38.4712 45.9651 0.0000 -15.0640 0.0000
# 2 38.4712 188.4050 77.6856 0.0000 11.5506 0.0000
# 3 45.9651 77.6856 228.6995 0.0000 -7.0319 0.0000
# 4 0.0000 0.0000 0.0000 63.2320 0.0000 -8.6908
# 5 -15.0640 11.5506 -7.0319 0.0000 48.8571 0.0000
# 6 0.0000 0.0000 0.0000 -8.6908 0.0000 53.9308
#
#
#
# Elastic Compliance Matrix: (Units=1/GPa)
#
#
# Indices 1 2 3 4 5 6 
#
# 1 0.010771 -0.001825 -0.001436 0.000000 0.003546 0.000000
# 2 -0.001825 0.006637 -0.001962 0.000000 -0.002414 0.000000
# 3 -0.001436 -0.001962 0.005352 0.000000 0.000791 0.000000
# 4 0.000000 0.000000 0.000000 0.016173 0.000000 0.002606
# 5 0.003546 -0.002414 0.000791 0.000000 0.022246 0.000000
# 6 0.000000 0.000000 0.000000 0.002606 0.000000 0.018962
#
#
# Mechanical properties :
#
#
# Convention : Reuss Voigt Hill
#
# Bulk Modulus (GPa) = 81.20261 94.64379 87.92320
# Shear Modulus (GPa) = 52.80288 57.56587 55.18437
#
# Velocity S-wave (km/s) = 4.18884 4.37368 4.28226
# Velocity P-wave (km/s) = 7.09780 7.54689 7.32578
#
# Compressibility (1/GPa) = 0.01231487
#
# Stress axis : x y z
#
# Youngs Moduli (GPa) = 92.84169 150.66264 186.84643
#
# Poissons Ratio (x) = 0.27491 0.26831
# Poissons Ratio (y) = 0.16940 0.36661
# Poissons Ratio (z) = 0.13332 0.29562
#
# Static dielectric constant tensor:
#      x y z
#    x 2.675160 0.000000 -0.046720 
#    y 0.000000 2.356050 0.000000 
#    z -0.046720 0.000000 2.506220 
# 
# From -- ./inp_files/238101.got.cif
#   From: 2010.05.17/outbox.cif.g08.bks.cpg/sg15_120_cif.got.tgz:238101.got - 2010.06.03 18:47:42.
