data_PCOD9282535
_publ_section_title
;
Structure prediction by ZEFSAII (Michael W. Deem and Ramdas Pophale) SiO2 
 PCOD9282535
Probable space group: C 2/C
;
_chemical_formula_sum "Si O2"
_cell_formula_units_Z 56
_cell_length_a 35.009125
_cell_length_b 14.552041
_cell_length_c 12.452851
_cell_angle_alpha 90.000000
_cell_angle_beta 25.391212
_cell_angle_gamma 90.000000
_cell_volume 2720.353018
_symmetry_space_group_name_H-M "C 2/C"
_symmetry_group_IT_number 15
_symmetry_cell_setting 'monoclinic'
loop_
_space_group_symop_operation_xyz
x,y,z
-x,y,1/2-z
-x,-y,-z
x,-y,1/2+z
1/2+x,1/2+y,z
1/2-x,1/2+y,1/2-z
1/2-x,1/2-y,-z
1/2+x,1/2-y,1/2+z
loop_
_atom_site_type_symbol
_atom_site_label
_atom_site_fract_x
_atom_site_fract_y
_atom_site_fract_z
Si Si1 0.107114 0.435998 0.457039
Si Si2 0.694162 0.666428 0.725872
Si Si3 0.128557 0.689970 0.102851
Si Si4 0.103452 0.115467 0.740673
Si Si5 0.556429 0.554487 0.212533
Si Si6 0.394439 0.141694 0.994046
Si Si7 0.948543 0.400877 0.124332
O O1 0.142870 0.367955 0.457579
O O2 0.136174 0.541756 0.386934
O O3 0.115216 0.400379 0.316274
O O4 0.000000 0.439149 0.750000
O O5 0.795144 0.661751 0.507980
O O6 0.672411 0.624618 0.664513
O O7 0.635118 0.613006 0.962629
O O8 0.658553 0.771342 0.826865
O O9 0.125484 0.799918 0.106291
O O10 0.031624 0.665582 0.394742
O O11 0.095988 0.025112 0.687127
O O12 0.009693 0.115138 0.044996
O O13 0.500000 0.521455 0.250000
O O14 0.500000 0.154640 0.750000
O O15 0.394253 0.127372 0.866442
O O16 0.000000 0.500000 0.000000
#
# Coordination Sequence:
#
# PCOD9282535 Si02
#       7
#     8   8   8   8   8   8   8
#     4   9  20  35  57  86 114 149 191 238 284 345
#     4  11  23  37  56  91 118 149 193 241 295 342
#     4  11  22  37  55  91 122 145 189 242 291 347
#     4  10  21  39  63  83 112 161 200 235 283 344
#     4   9  20  41  62  84 110 155 205 241 278 339
#     4  11  19  35  62  83 114 151 194 237 279 350
#     4  11  19  38  60  85 111 153 192 228 289 344
#
# _framework density 20.585564999999999
#
# number of rings (size 3 to 8) (size 9 to 14) (size 15 to 20)
#    0.000    1.714    4.286    3.429    0.000    2.857 
#    2.571    2.143    0.000    0.000    0.000    0.000 
#    0.000    0.000    0.000    0.000    0.000    0.000 
#
# Total GULP energy -156313.018996 kJ/mol
# GULP energy per Si atom -5582.607821 kJ/mol
# Density = 2.053871 g / cm^3
# Si number density = 20.585565 Si / 1000 Ang^3
#
#
#
# Elastic Constant Matrix: (Units=GPa)
#
#
# Indices 1 2 3 4 5 6 
#
# 1 162.9592 73.7771 47.0266 0.0000 5.9673 0.0000
# 2 73.7771 80.7333 19.7847 0.0000 -5.3627 0.0000
# 3 47.0266 19.7847 38.6193 0.0000 1.9487 0.0000
# 4 0.0000 0.0000 0.0000 15.2217 0.0000 0.9577
# 5 5.9673 -5.3627 1.9487 0.0000 21.0919 0.0000
# 6 0.0000 0.0000 0.0000 0.9577 0.0000 30.4868
#
#
#
# Elastic Compliance Matrix: (Units=1/GPa)
#
#
# Indices 1 2 3 4 5 6 
#
# 1 0.014807 -0.010948 -0.012126 0.000000 -0.005852 0.000000
# 2 -0.010948 0.022657 0.001283 0.000000 0.008740 0.000000
# 3 -0.012126 0.001283 0.039999 0.000000 0.000061 0.000000
# 4 0.000000 0.000000 0.000000 0.065826 0.000000 -0.002068
# 5 -0.005852 0.008740 0.000061 0.000000 0.051284 0.000000
# 6 0.000000 0.000000 0.000000 -0.002068 0.000000 0.032866
#
#
# Mechanical properties :
#
#
# Convention : Reuss Voigt Hill
#
# Bulk Modulus (GPa) = 29.51502 62.60983 46.06242
# Shear Modulus (GPa) = 17.71076 22.80832 20.25954
#
# Velocity S-wave (km/s) = 2.93635 3.33224 3.14054
# Velocity P-wave (km/s) = 5.08577 6.72945 5.96450
#
# Compressibility (1/GPa) = 0.03388106
#
# Stress axis : x y z
#
# Youngs Moduli (GPa) = 67.53740 44.13602 25.00051
#
# Poissons Ratio (x) = 0.48320 0.30316
# Poissons Ratio (y) = 0.73940 -0.03207
# Poissons Ratio (z) = 0.81896 -0.05662
#
# Static dielectric constant tensor:
#      x y z
#    x 1.768280 0.000000 0.012020 
#    y 0.000000 1.762990 0.000000 
#    z 0.012020 0.000000 1.740310 
# 
# From -- ./inp_files/126960.got.cif
#   From: 2010.05.17/outbox.cif.g08.bks.cpg/sg15_64_cif.got.tgz:126960.got - 2010.06.03 18:47:42.
