data_PCOD9282432
_publ_section_title
;
Structure prediction by ZEFSAII (Michael W. Deem and Ramdas Pophale) SiO2 
 PCOD9282432
Probable space group: C 2/C
;
_chemical_formula_sum "Si O2"
_cell_formula_units_Z 28
_cell_length_a 7.815868
_cell_length_b 16.557802
_cell_length_c 17.622230
_cell_angle_alpha 90.000000
_cell_angle_beta 141.977092
_cell_angle_gamma 90.000000
_cell_volume 1404.768959
_symmetry_space_group_name_H-M "C 2/C"
_symmetry_group_IT_number 15
_symmetry_cell_setting 'monoclinic'
loop_
_space_group_symop_operation_xyz
x,y,z
-x,y,1/2-z
-x,-y,-z
x,-y,1/2+z
1/2+x,1/2+y,z
1/2-x,1/2+y,1/2-z
1/2-x,1/2-y,-z
1/2+x,1/2-y,1/2+z
loop_
_atom_site_type_symbol
_atom_site_label
_atom_site_fract_x
_atom_site_fract_y
_atom_site_fract_z
Si Si1 0.373741 0.413544 0.786914
Si Si2 0.000000 0.524867 0.750000
Si Si3 0.796598 0.133906 0.959820
Si Si4 0.304652 0.248428 0.833480
O O1 0.500000 0.432555 0.750000
O O2 0.120062 0.468639 0.725498
O O3 0.286349 0.319032 0.763316
O O4 0.605849 0.419263 0.934365
O O5 0.243965 0.580626 0.868289
O O6 0.508405 0.178521 0.877864
O O7 0.033270 0.203373 0.042172
O O8 0.000000 0.221889 0.750000
#
# Coordination Sequence:
#
# PCOD9282432 Si02
#       4
#     8   4   8   8
#     4  10  21  39  62  88 128 162 200 252 306 367
#     4  12  22  40  64  92 130 162 194 262 318 354
#     4   9  22  38  63  92 126 156 211 255 296 376
#     4   9  19  41  64  90 122 164 206 252 310 358
#
# _framework density 19.932100999999999
#
# number of rings (size 3 to 8) (size 9 to 14) (size 15 to 20)
#    1.714    0.571    1.429    0.857    2.000    2.286 
#    0.000    8.571    0.000    0.000    0.000    0.000 
#    0.000    0.000    0.000    0.000    0.000    0.000 
#
# Total GULP energy -77939.617341 kJ/mol
# GULP energy per Si atom -5567.115524 kJ/mol
# Density = 1.988674 g / cm^3
# Si number density = 19.932101 Si / 1000 Ang^3
#
#
#
# Elastic Constant Matrix: (Units=GPa)
#
#
# Indices 1 2 3 4 5 6 
#
# 1 45.0093 -2.6038 -0.6446 0.0001 24.9457 0.0002
# 2 -2.6038 37.2761 0.3001 0.0001 9.9651 0.0002
# 3 -0.6446 0.3001 47.9094 0.0007 13.1470 0.0006
# 4 0.0001 0.0001 0.0007 5.2299 0.0004 -4.3717
# 5 24.9457 9.9651 13.1470 0.0004 37.9461 0.0002
# 6 0.0002 0.0002 0.0006 -4.3717 0.0002 -2.3438
#
#
#
# Elastic Compliance Matrix: (Units=1/GPa)
#
#
# Indices 1 2 3 4 5 6 
#
# 1 0.041992 0.011989 0.009867 0.000002 -0.034173 0.000002
# 2 0.011989 0.032468 0.004929 0.000001 -0.018116 0.000001
# 3 0.009867 0.004929 0.025538 0.000001 -0.016629 0.000004
# 4 0.000002 0.000001 0.000001 0.074715 -0.000002 -0.139361
# 5 -0.034173 -0.018116 -0.016629 -0.000002 0.059337 -0.000001
# 6 0.000002 0.000001 0.000004 -0.139361 -0.000001 -0.166717
#
#
# Mechanical properties :
#
#
# Convention : Reuss Voigt Hill
#
# Bulk Modulus (GPa) = 6.51171 13.81090 10.16131
# Shear Modulus (GPa) = 76.98225 17.04266 47.01246
#
# Velocity S-wave (km/s) = 6.22142 2.92727 4.86184
# Velocity P-wave (km/s) = 7.40825 4.28594 6.05192
#
# Compressibility (1/GPa) = 0.15356939
#
# Stress axis : x y z
#
# Youngs Moduli (GPa) = 23.81397 30.79992 39.15748
#
# Poissons Ratio (x) = -0.36927 -0.38638
# Poissons Ratio (y) = -0.28551 -0.19302
# Poissons Ratio (z) = -0.23498 -0.15182
#
# Static dielectric constant tensor:
#      x y z
#    x 1.655520 0.000000 0.000890 
#    y 0.000000 1.708130 0.000000 
#    z 0.000890 0.000000 1.725120 
# 
# From -- ./inp_files/71727.got.cif
#   From: 2010.05.17/outbox.cif.g08.bks.cpg/sg15_36_cif.got.tgz:71727.got - 2010.06.03 18:47:42.
