data_PCOD9282278
_publ_section_title
;
Structure prediction by ZEFSAII (Michael W. Deem and Ramdas Pophale) SiO2 
 PCOD9282278
Probable space group: C 2/C
;
_chemical_formula_sum "Si O2"
_cell_formula_units_Z 48
_cell_length_a 24.268760
_cell_length_b 11.734614
_cell_length_c 10.343151
_cell_angle_alpha 90.000000
_cell_angle_beta 51.958200
_cell_angle_gamma 90.000000
_cell_volume 2319.816734
_symmetry_space_group_name_H-M "C 2/C"
_symmetry_group_IT_number 15
_symmetry_cell_setting 'monoclinic'
loop_
_space_group_symop_operation_xyz
x,y,z
-x,y,1/2-z
-x,-y,-z
x,-y,1/2+z
1/2+x,1/2+y,z
1/2-x,1/2+y,1/2-z
1/2-x,1/2-y,-z
1/2+x,1/2-y,1/2+z
loop_
_atom_site_type_symbol
_atom_site_label
_atom_site_fract_x
_atom_site_fract_y
_atom_site_fract_z
Si Si1 0.809940 0.990718 0.625004
Si Si2 0.648305 0.262231 0.427298
Si Si3 0.803680 0.254239 0.113865
Si Si4 0.514024 0.897185 0.080882
Si Si5 0.631884 0.832249 0.219120
Si Si6 0.214170 0.466567 0.512389
O O1 0.843367 0.865625 0.564859
O O2 0.766806 0.992088 0.553388
O O3 0.858754 0.100823 0.577676
O O4 0.755291 0.994583 0.823710
O O5 0.721035 0.231923 0.252988
O O6 0.586382 0.175493 0.475153
O O7 0.659750 0.246968 0.564718
O O8 0.829567 0.321171 0.202050
O O9 0.808833 0.337161 0.984108
O O10 0.500000 0.935422 0.250000
O O11 0.449941 0.811596 0.146110
O O12 0.500000 0.000000 0.000000
O O13 0.647100 0.957783 0.140865
#
# Coordination Sequence:
#
# PCOD9282278 Si02
#       6
#     8   8   8   8   8   8
#     4  11  22  38  60  93 133 166 211 262 326 386
#     4  10  21  39  60  91 128 170 211 258 325 390
#     4  11  22  36  65  98 132 164 215 271 324 381
#     4  10  25  41  65  92 125 169 212 268 319 381
#     4  11  21  40  65  91 129 168 216 257 336 381
#     4  11  21  35  61  98 131 162 206 276 318 383
#
# _framework density 20.691289999999999
#
# number of rings (size 3 to 8) (size 9 to 14) (size 15 to 20)
#    0.000    1.333    5.000    2.000    7.000    0.000 
#    0.000    0.833    0.000    2.000    0.000    0.000 
#    0.000    0.000    0.000    0.000    0.000    0.000 
#
# Total GULP energy -133760.540086 kJ/mol
# GULP energy per Si atom -5573.355837 kJ/mol
# Density = 2.064420 g / cm^3
# Si number density = 20.691290 Si / 1000 Ang^3
#
#
#
# Elastic Constant Matrix: (Units=GPa)
#
#
# Indices 1 2 3 4 5 6 
#
# 1 119.2156 31.5432 57.1369 0.0000 13.3906 0.0000
# 2 31.5432 112.6089 13.0863 0.0000 11.6099 0.0000
# 3 57.1369 13.0863 54.5752 0.0000 12.5478 0.0000
# 4 0.0000 0.0000 0.0000 28.1250 0.0000 7.7972
# 5 13.3906 11.6099 12.5478 0.0000 31.9373 0.0000
# 6 0.0000 0.0000 0.0000 7.7972 0.0000 28.3645
#
#
#
# Elastic Compliance Matrix: (Units=1/GPa)
#
#
# Indices 1 2 3 4 5 6 
#
# 1 0.017717 -0.002944 -0.018008 0.000000 0.000717 0.000000
# 2 -0.002944 0.009842 0.001386 0.000000 -0.002888 0.000000
# 3 -0.018008 0.001386 0.038722 0.000000 -0.008167 0.000000
# 4 0.000000 0.000000 0.000000 0.038489 0.000000 -0.010580
# 5 0.000717 -0.002888 -0.008167 0.000000 0.035269 0.000000
# 6 0.000000 0.000000 0.000000 -0.010580 0.000000 0.038164
#
#
# Mechanical properties :
#
#
# Convention : Reuss Voigt Hill
#
# Bulk Modulus (GPa) = 36.83289 54.43693 45.63491
# Shear Modulus (GPa) = 22.08646 29.99426 26.04036
#
# Velocity S-wave (km/s) = 3.27070 3.81150 3.55141
# Velocity P-wave (km/s) = 5.66596 6.76286 6.23856
#
# Compressibility (1/GPa) = 0.02714965
#
# Stress axis : x y z
#
# Youngs Moduli (GPa) = 56.44213 101.60956 25.82534
#
# Poissons Ratio (x) = 0.29914 0.46506
# Poissons Ratio (y) = 0.16617 -0.03580
# Poissons Ratio (z) = 1.01640 -0.14087
#
# Static dielectric constant tensor:
#      x y z
#    x 1.763560 0.000000 0.025290 
#    y 0.000000 1.878070 0.000000 
#    z 0.025290 0.000000 1.771400 
# 
# From -- ./inp_files/122375.got.cif
#   From: 2010.05.17/outbox.cif.g08.bks.cpg/sg15_62_cif.got.tgz:122375.got - 2010.06.03 18:47:42.
