data_PCOD9282055
_publ_section_title
;
Structure prediction by ZEFSAII (Michael W. Deem and Ramdas Pophale) SiO2 
 PCOD9282055
Probable space group: C 2/C
;
_chemical_formula_sum "Si O2"
_cell_formula_units_Z 40
_cell_length_a 15.192622
_cell_length_b 22.618171
_cell_length_c 9.283339
_cell_angle_alpha 90.000000
_cell_angle_beta 35.572927
_cell_angle_gamma 90.000000
_cell_volume 1855.762459
_symmetry_space_group_name_H-M "C 2/C"
_symmetry_group_IT_number 15
_symmetry_cell_setting 'monoclinic'
loop_
_space_group_symop_operation_xyz
x,y,z
-x,y,1/2-z
-x,-y,-z
x,-y,1/2+z
1/2+x,1/2+y,z
1/2-x,1/2+y,1/2-z
1/2-x,1/2-y,-z
1/2+x,1/2-y,1/2+z
loop_
_atom_site_type_symbol
_atom_site_label
_atom_site_fract_x
_atom_site_fract_y
_atom_site_fract_z
Si Si1 0.341022 0.035799 0.551899
Si Si2 0.346201 0.284293 0.544427
Si Si3 0.157429 0.572292 0.620729
Si Si4 0.819241 0.659532 0.486743
Si Si5 0.347888 0.309944 0.861479
O O1 0.364407 0.042034 0.692471
O O2 0.257906 0.096281 0.616332
O O3 0.267956 0.975519 0.588430
O O4 0.500000 0.034652 0.250000
O O5 0.230747 0.323451 0.606805
O O6 0.281540 0.217108 0.633581
O O7 0.385044 0.312168 0.643186
O O8 0.500000 0.280545 0.250000
O O9 0.251724 0.631510 0.522251
O O10 0.000000 0.589198 0.750000
O O11 0.000000 0.654327 0.250000
O O12 0.500000 0.306041 0.750000
O O13 0.250000 0.250000 0.000000
#
# Coordination Sequence:
#
# PCOD9282055 Si02
#       5
#     8   8   8   8   8
#     4  10  21  38  68  98 133 170 228 265 324 386
#     4  10  23  40  67  94 131 168 219 268 334 386
#     4  11  24  42  69  98 134 175 224 273 330 387
#     4   9  20  36  67  96 126 166 222 264 319 390
#     4  12  29  46  67  98 138 173 219 276 339 392
#
# _framework density 21.554483000000001
#
# number of rings (size 3 to 8) (size 9 to 14) (size 15 to 20)
#    0.000    1.600    0.000    4.200   19.600    0.000 
#    0.000    2.000    0.000    0.000    0.000    0.000 
#    0.000    0.000    0.000    0.000    0.000    0.000 
#
# Total GULP energy -111646.763098 kJ/mol
# GULP energy per Si atom -5582.338155 kJ/mol
# Density = 2.150542 g / cm^3
# Si number density = 21.554483 Si / 1000 Ang^3
#
#
#
# Elastic Constant Matrix: (Units=GPa)
#
#
# Indices 1 2 3 4 5 6 
#
# 1 193.4743 89.2789 43.2982 0.0000 7.1430 0.0000
# 2 89.2789 166.1473 37.8980 0.0000 -2.9932 0.0000
# 3 43.2982 37.8980 60.9645 0.0000 16.1690 0.0000
# 4 0.0000 0.0000 0.0000 13.8615 0.0000 -7.8148
# 5 7.1430 -2.9932 16.1690 0.0000 37.7509 0.0000
# 6 0.0000 0.0000 0.0000 -7.8148 0.0000 43.7271
#
#
#
# Elastic Compliance Matrix: (Units=1/GPa)
#
#
# Indices 1 2 3 4 5 6 
#
# 1 0.007386 -0.003259 -0.003137 0.000000 -0.000312 0.000000
# 2 -0.003259 0.008711 -0.003889 0.000000 0.002973 0.000000
# 3 -0.003137 -0.003889 0.023660 0.000000 -0.009849 0.000000
# 4 0.000000 0.000000 0.000000 0.080225 0.000000 0.014338
# 5 -0.000312 0.002973 -0.009849 0.000000 0.031003 0.000000
# 6 0.000000 0.000000 0.000000 0.014338 0.000000 0.025431
#
#
# Mechanical properties :
#
#
# Convention : Reuss Voigt Hill
#
# Bulk Modulus (GPa) = 52.11675 84.61513 68.36594
# Shear Modulus (GPa) = 24.58434 35.74196 30.16315
#
# Velocity S-wave (km/s) = 3.38089 4.07654 3.74490
# Velocity P-wave (km/s) = 6.28269 7.84214 7.10533
#
# Compressibility (1/GPa) = 0.01918769
#
# Stress axis : x y z
#
# Youngs Moduli (GPa) = 135.39009 114.80366 42.26478
#
# Poissons Ratio (x) = 0.37414 0.13258
# Poissons Ratio (y) = 0.44123 0.16435
# Poissons Ratio (z) = 0.42471 0.44644
#
# Static dielectric constant tensor:
#      x y z
#    x 1.767550 0.000000 0.021030 
#    y 0.000000 1.885620 0.000000 
#    z 0.021030 0.000000 1.836560 
# 
# From -- ./inp_files/41947.got.cif
#   From: 2010.05.17/outbox.cif.g08.bks.cpg/sg15_21_cif.got.tgz:41947.got - 2010.06.03 18:47:42.
