data_PCOD9282512
_publ_section_title
;
Structure prediction by ZEFSAII (Michael W. Deem and Ramdas Pophale) SiO2 
 PCOD9282512
Probable space group: C 2/C
;
_chemical_formula_sum "Si O2"
_cell_formula_units_Z 56
_cell_length_a 8.496678
_cell_length_b 11.383338
_cell_length_c 27.292844
_cell_angle_alpha 90.000000
_cell_angle_beta 68.810239
_cell_angle_gamma 90.000000
_cell_volume 2461.299428
_symmetry_space_group_name_H-M "C 2/C"
_symmetry_group_IT_number 15
_symmetry_cell_setting 'monoclinic'
loop_
_space_group_symop_operation_xyz
x,y,z
-x,y,1/2-z
-x,-y,-z
x,-y,1/2+z
1/2+x,1/2+y,z
1/2-x,1/2+y,1/2-z
1/2-x,1/2-y,-z
1/2+x,1/2-y,1/2+z
loop_
_atom_site_type_symbol
_atom_site_label
_atom_site_fract_x
_atom_site_fract_y
_atom_site_fract_z
Si Si1 0.809043 0.717840 0.666556
Si Si2 0.082359 0.521772 0.620390
Si Si3 0.150978 0.848711 0.479380
Si Si4 0.305869 0.053247 0.286435
Si Si5 0.540711 0.397964 0.592666
Si Si6 0.545505 0.617528 0.829063
Si Si7 0.887391 0.697213 0.099509
O O1 0.623300 0.669377 0.675728
O O2 0.940076 0.611685 0.656426
O O3 0.899161 0.796431 0.613916
O O4 0.781509 0.819571 0.710527
O O5 0.214056 0.582422 0.568896
O O6 0.175562 0.474483 0.657791
O O7 0.994832 0.415286 0.601842
O O8 0.250000 0.750000 0.500000
O O9 0.066004 0.922077 0.532442
O O10 0.038301 0.776977 0.452968
O O11 0.500000 0.056523 0.250000
O O12 0.184640 0.949823 0.280203
O O13 0.510992 0.515778 0.626744
O O14 0.706773 0.344453 0.600068
O O15 0.629245 0.721733 0.850784
#
# Coordination Sequence:
#
# PCOD9282512 Si02
#       7
#     8   8   8   8   8   8   8
#     4  11  22  41  68  94 126 167 211 266 320 383
#     4  12  22  42  68  90 132 177 214 265 323 386
#     4  10  21  39  62  94 138 180 217 254 311 378
#     4  11  26  46  68  93 122 161 215 280 336 388
#     4  10  22  39  62  92 135 176 213 257 308 372
#     4  11  22  41  68  92 126 165 217 261 322 387
#     4  11  21  38  63  91 127 176 214 252 311 379
#
# _framework density 22.752208
#
# number of rings (size 3 to 8) (size 9 to 14) (size 15 to 20)
#    0.000    1.143    7.143    0.000    0.000    5.143 
#    0.000    1.429    0.000    0.000    0.000    0.000 
#    0.000    0.000    0.000    0.000    0.000    0.000 
#
# Total GULP energy -156364.245511 kJ/mol
# GULP energy per Si atom -5584.437340 kJ/mol
# Density = 2.270042 g / cm^3
# Si number density = 22.752208 Si / 1000 Ang^3
#
#
#
# Elastic Constant Matrix: (Units=GPa)
#
#
# Indices 1 2 3 4 5 6 
#
# 1 95.5125 37.6296 1.5259 0.0000 -6.9346 0.0000
# 2 37.6296 122.9600 11.9593 0.0000 0.1789 0.0000
# 3 1.5259 11.9593 46.1733 0.0000 -10.5974 0.0000
# 4 0.0000 0.0000 0.0000 15.9795 0.0000 -8.9578
# 5 -6.9346 0.1789 -10.5974 0.0000 23.8140 0.0000
# 6 0.0000 0.0000 0.0000 -8.9578 0.0000 48.0987
#
#
#
# Elastic Compliance Matrix: (Units=1/GPa)
#
#
# Indices 1 2 3 4 5 6 
#
# 1 0.012306 -0.003928 0.001604 0.000000 0.004327 0.000000
# 2 -0.003928 0.009625 -0.002943 0.000000 -0.002526 0.000000
# 3 0.001604 -0.002943 0.025036 0.000000 0.011630 0.000000
# 4 0.000000 0.000000 0.000000 0.069875 0.000000 0.013013
# 5 0.004327 -0.002526 0.011630 0.000000 0.048447 0.000000
# 6 0.000000 0.000000 0.000000 0.013013 0.000000 0.023214
#
#
# Mechanical properties :
#
#
# Convention : Reuss Voigt Hill
#
# Bulk Modulus (GPa) = 27.44815 40.76394 34.10605
# Shear Modulus (GPa) = 23.67629 31.81384 27.74507
#
# Velocity S-wave (km/s) = 3.22936 3.74341 3.49584
# Velocity P-wave (km/s) = 5.09854 6.05306 5.59619
#
# Compressibility (1/GPa) = 0.03643232
#
# Stress axis : x y z
#
# Youngs Moduli (GPa) = 81.26119 103.89823 39.94237
#
# Poissons Ratio (x) = 0.40814 -0.06406
# Poissons Ratio (y) = 0.31922 0.11754
# Poissons Ratio (z) = -0.13033 0.30575
#
# Static dielectric constant tensor:
#      x y z
#    x 1.863220 0.000000 -0.074080 
#    y 0.000000 1.902010 0.000000 
#    z -0.074080 0.000000 1.932460 
# 
# From -- ./inp_files/307386.got.cif
#   From: 2010.05.17/outbox.cif.g08.bks.cpg/sg15_154_cif.got.tgz:307386.got - 2010.06.03 18:47:42.
