data_PCOD9282143
_publ_section_title
;
Structure prediction by ZEFSAII (Michael W. Deem and Ramdas Pophale) SiO2 
 PCOD9282143
Probable space group: C 2/C
;
_chemical_formula_sum "Si O2"
_cell_formula_units_Z 40
_cell_length_a 17.070432
_cell_length_b 18.516348
_cell_length_c 5.705009
_cell_angle_alpha 90.000000
_cell_angle_beta 100.352791
_cell_angle_gamma 90.000000
_cell_volume 1773.893844
_symmetry_space_group_name_H-M "C 2/C"
_symmetry_group_IT_number 15
_symmetry_cell_setting 'monoclinic'
loop_
_space_group_symop_operation_xyz
x,y,z
-x,y,1/2-z
-x,-y,-z
x,-y,1/2+z
1/2+x,1/2+y,z
1/2-x,1/2+y,1/2-z
1/2-x,1/2-y,-z
1/2+x,1/2-y,1/2+z
loop_
_atom_site_type_symbol
_atom_site_label
_atom_site_fract_x
_atom_site_fract_y
_atom_site_fract_z
Si Si1 0.410046 0.670557 0.272507
Si Si2 0.856888 0.687934 0.994928
Si Si3 0.406750 0.525720 0.478036
Si Si4 0.301962 0.292035 0.336914
Si Si5 0.408523 0.027145 0.971198
O O1 0.500000 0.661959 0.250000
O O2 0.393761 0.751880 0.344092
O O3 0.397211 0.612351 0.468480
O O4 0.356253 0.655149 0.016252
O O5 0.763830 0.676217 0.875122
O O6 0.901959 0.612843 0.007182
O O7 0.854401 0.730818 0.237877
O O8 0.500000 0.500000 0.500000
O O9 0.373091 0.498633 0.706817
O O10 0.250000 0.250000 0.500000
O O11 0.373665 0.007856 0.693440
O O12 0.500000 0.000000 0.000000
#
# Coordination Sequence:
#
# PCOD9282143 Si02
#       5
#     8   8   8   8   8
#     4  11  23  36  68 100 125 175 230 286 349 422
#     4  10  23  43  70  93 137 185 235 293 353 433
#     4  10  21  39  57  87 137 168 205 270 336 401
#     4   9  22  43  66  92 131 173 238 284 345 415
#     4  10  24  42  67 103 145 183 226 293 365 426
#
# _framework density 22.549264999999998
#
# number of rings (size 3 to 8) (size 9 to 14) (size 15 to 20)
#    0.000    2.000    2.000    0.000   11.200    2.400 
#    0.000    2.000    0.000    0.000    0.000    0.000 
#    0.000    0.000    0.000    0.000    0.000    0.000 
#
# Total GULP energy -111557.644296 kJ/mol
# GULP energy per Si atom -5577.882215 kJ/mol
# Density = 2.249794 g / cm^3
# Si number density = 22.549265 Si / 1000 Ang^3
#
#
#
# Elastic Constant Matrix: (Units=GPa)
#
#
# Indices 1 2 3 4 5 6 
#
# 1 41.6761 19.7524 3.1944 0.0000 8.3192 0.0000
# 2 19.7524 149.3534 28.1400 0.0000 2.5829 0.0000
# 3 3.1944 28.1400 138.2987 0.0000 -15.6211 0.0000
# 4 0.0000 0.0000 0.0000 40.6912 0.0000 -3.3280
# 5 8.3192 2.5829 -15.6211 0.0000 24.1883 0.0000
# 6 0.0000 0.0000 0.0000 -3.3280 0.0000 3.1592
#
#
#
# Elastic Compliance Matrix: (Units=1/GPa)
#
#
# Indices 1 2 3 4 5 6 
#
# 1 0.027594 -0.003275 -0.001082 0.000000 -0.009840 0.000000
# 2 -0.003275 0.007424 -0.001507 0.000000 -0.000640 0.000000
# 3 -0.001082 -0.001507 0.008222 0.000000 0.005843 0.000000
# 4 0.000000 0.000000 0.000000 0.026892 0.000000 0.028329
# 5 -0.009840 -0.000640 0.005843 0.000000 0.048569 0.000000
# 6 0.000000 0.000000 0.000000 0.028329 0.000000 0.346376
#
#
# Mechanical properties :
#
#
# Convention : Reuss Voigt Hill
#
# Bulk Modulus (GPa) = 31.73531 47.94464 39.83997
# Shear Modulus (GPa) = 10.26042 32.15717 21.20880
#
# Velocity S-wave (km/s) = 2.13544 3.78045 3.07017
# Velocity P-wave (km/s) = 4.49271 6.35327 5.50221
#
# Compressibility (1/GPa) = 0.03151064
#
# Stress axis : x y z
#
# Youngs Moduli (GPa) = 36.23973 134.70346 121.61900
#
# Poissons Ratio (x) = 0.44119 0.13163
# Poissons Ratio (y) = 0.11870 0.18329
# Poissons Ratio (z) = 0.03922 0.20301
#
# Static dielectric constant tensor:
#      x y z
#    x 1.827340 0.000000 0.051660 
#    y 0.000000 1.847730 0.000000 
#    z 0.051660 0.000000 2.053160 
# 
# From -- ./inp_files/9866.got.cif
#   From: 2010.05.17/outbox.cif.g08.bks.cpg/sg15_5_cif.got.tgz:9866.got - 2010.06.03 18:47:42.
