data_PCOD9282601
_publ_section_title
;
Structure prediction by ZEFSAII (Michael W. Deem and Ramdas Pophale) SiO2 
 PCOD9282601
Probable space group: C 2/C
;
_chemical_formula_sum "Si O2"
_cell_formula_units_Z 40
_cell_length_a 16.540596
_cell_length_b 14.176529
_cell_length_c 8.458007
_cell_angle_alpha 90.000000
_cell_angle_beta 74.754875
_cell_angle_gamma 90.000000
_cell_volume 1913.510133
_symmetry_space_group_name_H-M "C 2/C"
_symmetry_group_IT_number 15
_symmetry_cell_setting 'monoclinic'
loop_
_space_group_symop_operation_xyz
x,y,z
-x,y,1/2-z
-x,-y,-z
x,-y,1/2+z
1/2+x,1/2+y,z
1/2-x,1/2+y,1/2-z
1/2-x,1/2-y,-z
1/2+x,1/2-y,1/2+z
loop_
_atom_site_type_symbol
_atom_site_label
_atom_site_fract_x
_atom_site_fract_y
_atom_site_fract_z
Si Si1 0.328599 0.607536 0.932994
Si Si2 0.910547 0.052102 0.572172
Si Si3 0.331993 0.200866 0.633155
Si Si4 0.586501 0.249156 0.603689
Si Si5 0.998657 0.605535 0.062862
O O1 0.395262 0.582841 0.761145
O O2 0.244443 0.634905 0.881072
O O3 0.338647 0.519867 0.047743
O O4 0.338792 0.701086 0.033567
O O5 0.906502 0.147805 0.473965
O O6 0.000000 0.000000 0.500000
O O7 0.338663 0.224288 0.815130
O O8 0.415329 0.147415 0.543542
O O9 0.500000 0.248996 0.750000
O O10 0.574379 0.169838 0.475391
O O11 0.000000 0.608967 0.250000
O O12 0.000000 0.500000 0.000000
#
# Coordination Sequence:
#
# PCOD9282601 Si02
#       5
#     8   8   8   8   8
#     4  11  24  40  63  90 128 168 204 267 326 387
#     4  12  23  39  65  96 125 166 219 270 333 391
#     4  10  23  43  60  90 128 165 214 257 323 395
#     4  10  21  39  63  91 125 163 212 269 321 387
#     4  11  22  39  64  90 120 164 211 261 314 377
#
# _framework density 20.903991999999999
#
# number of rings (size 3 to 8) (size 9 to 14) (size 15 to 20)
#    0.000    1.200    0.000    8.400    0.000    4.000 
#    0.000    0.000    0.000    0.000    0.000    0.000 
#    0.000    0.000    0.000    0.000    0.000    0.000 
#
# Total GULP energy -111721.359581 kJ/mol
# GULP energy per Si atom -5586.067979 kJ/mol
# Density = 2.085641 g / cm^3
# Si number density = 20.903992 Si / 1000 Ang^3
#
#
#
# Elastic Constant Matrix: (Units=GPa)
#
#
# Indices 1 2 3 4 5 6 
#
# 1 95.7257 65.3943 38.2358 0.0000 35.0643 0.0000
# 2 65.3943 156.1734 50.1470 0.0000 31.7771 0.0000
# 3 38.2358 50.1470 114.2817 0.0000 26.3700 0.0000
# 4 0.0000 0.0000 0.0000 41.5195 0.0000 -0.3536
# 5 35.0643 31.7771 26.3700 0.0000 35.1526 0.0000
# 6 0.0000 0.0000 0.0000 -0.3536 0.0000 -40.3153
#
#
#
# Elastic Compliance Matrix: (Units=1/GPa)
#
#
# Indices 1 2 3 4 5 6 
#
# 1 0.019394 -0.004904 -0.001083 0.000000 -0.014099 0.000000
# 2 -0.004904 0.009565 -0.002044 0.000000 -0.002222 0.000000
# 3 -0.001083 -0.002044 0.011288 0.000000 -0.005539 0.000000
# 4 0.000000 0.000000 0.000000 0.024083 0.000000 -0.000211
# 5 -0.014099 -0.002222 -0.005539 0.000000 0.048675 0.000000
# 6 0.000000 0.000000 0.000000 -0.000211 0.000000 -0.024803
#
#
# Mechanical properties :
#
#
# Convention : Reuss Voigt Hill
#
# Bulk Modulus (GPa) = 41.34923 74.85942 58.10432
# Shear Modulus (GPa) = 44.51318 21.43163 32.97240
#
# Velocity S-wave (km/s) = 4.61956 3.20541 3.97586
# Velocity P-wave (km/s) = 6.94818 7.04190 6.99520
#
# Compressibility (1/GPa) = 0.02418425
#
# Stress axis : x y z
#
# Youngs Moduli (GPa) = 51.56214 104.54924 88.59134
#
# Poissons Ratio (x) = 0.51272 0.09599
# Poissons Ratio (y) = 0.25287 0.18105
# Poissons Ratio (z) = 0.05587 0.21366
#
# Static dielectric constant tensor:
#      x y z
#    x 1.788540 0.000000 0.040560 
#    y 0.000000 1.724350 0.000000 
#    z 0.040560 0.000000 1.778060 
# 
# From -- ./inp_files/46053.got.cif
#   From: 2010.05.17/outbox.cif.g08.bks.cpg/sg15_24_cif.got.tgz:46053.got - 2010.06.03 18:47:42.
