data_PCOD9282272
_publ_section_title
;
Structure prediction by ZEFSAII (Michael W. Deem and Ramdas Pophale) SiO2 
 PCOD9282272
Probable space group: C 2/C
;
_chemical_formula_sum "Si O2"
_cell_formula_units_Z 56
_cell_length_a 10.764207
_cell_length_b 17.042547
_cell_length_c 17.454729
_cell_angle_alpha 90.000000
_cell_angle_beta 41.113300
_cell_angle_gamma 90.000000
_cell_volume 2105.515942
_symmetry_space_group_name_H-M "C 2/C"
_symmetry_group_IT_number 15
_symmetry_cell_setting 'monoclinic'
loop_
_space_group_symop_operation_xyz
x,y,z
-x,y,1/2-z
-x,-y,-z
x,-y,1/2+z
1/2+x,1/2+y,z
1/2-x,1/2+y,1/2-z
1/2-x,1/2-y,-z
1/2+x,1/2-y,1/2+z
loop_
_atom_site_type_symbol
_atom_site_label
_atom_site_fract_x
_atom_site_fract_y
_atom_site_fract_z
Si Si1 0.213742 0.642390 0.834925
Si Si2 0.412514 0.914307 0.677412
Si Si3 0.500000 0.043133 0.750000
Si Si4 0.500000 0.775936 0.750000
Si Si5 0.818740 0.936877 0.423985
Si Si6 0.072373 0.163652 0.906962
Si Si7 0.349111 0.596787 0.482491
Si Si8 0.803719 0.332430 0.588198
O O1 0.318614 0.719833 0.820317
O O2 0.310963 0.572642 0.836654
O O3 0.253175 0.636679 0.727427
O O4 0.998475 0.642448 0.957337
O O5 0.374553 0.981036 0.757374
O O6 0.483700 0.834967 0.686392
O O7 0.599815 0.944108 0.547917
O O8 0.269091 0.888537 0.677281
O O9 0.651052 0.087038 0.623713
O O10 0.906440 0.859335 0.424268
O O11 0.905316 0.014211 0.420006
O O12 0.014435 0.122322 0.012685
O O13 0.144578 0.248042 0.901504
O O14 0.337348 0.658525 0.417729
#
# Coordination Sequence:
#
# PCOD9282272 Si02
#       8
#     8   8   4   4   8   8   8   8
#     4  11  21  35  66  87 119 151 206 253 304 352
#     4   9  19  34  62  87 120 144 196 257 303 355
#     4   9  20  38  58  90 111 158 198 238 299 360
#     4  11  16  34  56  96 115 146 198 260 313 338
#     4  10  21  39  60  91 114 157 201 258 307 353
#     4  12  22  40  62  88 122 162 205 252 299 363
#     4  11  24  39  59  84 130 166 200 238 305 376
#     4  11  23  39  60  91 122 161 200 250 305 367
#
# _framework density 26.596805
#
# number of rings (size 3 to 8) (size 9 to 14) (size 15 to 20)
#    0.000    1.429    2.857    2.571    0.000    8.571 
#    0.000    0.000    6.286    0.000    0.000    0.000 
#    0.000    0.000    0.000    0.000    0.000    0.000 
#
# Total GULP energy -156458.744840 kJ/mol
# GULP energy per Si atom -5587.812316 kJ/mol
# Density = 2.653627 g / cm^3
# Si number density = 26.596805 Si / 1000 Ang^3
#
#
#
# Elastic Constant Matrix: (Units=GPa)
#
#
# Indices 1 2 3 4 5 6 
#
# 1 89.7407 31.6478 46.3664 0.0007 50.7468 -0.0011
# 2 31.6478 119.1688 24.6240 0.0001 40.5023 -0.0012
# 3 46.3664 24.6240 71.5875 0.0006 30.1853 -0.0011
# 4 0.0007 0.0001 0.0006 16.2545 -0.0003 1.7622
# 5 50.7468 40.5023 30.1853 -0.0003 74.2195 0.0008
# 6 -0.0011 -0.0012 -0.0011 1.7622 0.0008 27.4296
#
#
#
# Elastic Compliance Matrix: (Units=1/GPa)
#
#
# Indices 1 2 3 4 5 6 
#
# 1 0.022789 -0.000099 -0.009871 -0.000001 -0.011512 0.000001
# 2 -0.000099 0.010423 -0.001389 0.000000 -0.005055 0.000001
# 3 -0.009871 -0.001389 0.021333 -0.000001 -0.001169 0.000000
# 4 -0.000001 0.000000 -0.000001 0.061953 0.000001 -0.003980
# 5 -0.011512 -0.005055 -0.001169 0.000001 0.024579 -0.000001
# 6 0.000001 0.000001 0.000000 -0.003980 -0.000001 0.036713
#
#
# Mechanical properties :
#
#
# Convention : Reuss Voigt Hill
#
# Bulk Modulus (GPa) = 31.42258 53.97484 42.69871
# Shear Modulus (GPa) = 23.68348 35.43798 29.56073
#
# Velocity S-wave (km/s) = 2.98730 3.65419 3.33744
# Velocity P-wave (km/s) = 4.87224 6.17591 5.56240
#
# Compressibility (1/GPa) = 0.03182425
#
# Stress axis : x y z
#
# Youngs Moduli (GPa) = 43.88141 95.94196 46.87532
#
# Poissons Ratio (x) = 0.00955 0.46273
# Poissons Ratio (y) = 0.00437 0.06513
# Poissons Ratio (z) = 0.43317 0.13330
#
# Static dielectric constant tensor:
#      x y z
#    x 2.154300 0.000000 -0.019190 
#    y 0.000000 2.110350 0.000000 
#    z -0.019190 0.000000 2.062220 
# 
# From -- ./inp_files/145605.got.cif
#   From: 2010.05.17/outbox.cif.g08.bks.cpg/sg15_73_cif.got.tgz:145605.got - 2010.06.03 18:47:42.
