data_PCOD9282604
_publ_section_title
;
Structure prediction by ZEFSAII (Michael W. Deem and Ramdas Pophale) SiO2 
 PCOD9282604
Probable space group: C 2/C
;
_chemical_formula_sum "Si O2"
_cell_formula_units_Z 48
_cell_length_a 27.330456
_cell_length_b 5.655889
_cell_length_c 14.252847
_cell_angle_alpha 90.000000
_cell_angle_beta 97.422803
_cell_angle_gamma 90.000000
_cell_volume 2184.713938
_symmetry_space_group_name_H-M "C 2/C"
_symmetry_group_IT_number 15
_symmetry_cell_setting 'monoclinic'
loop_
_space_group_symop_operation_xyz
x,y,z
-x,y,1/2-z
-x,-y,-z
x,-y,1/2+z
1/2+x,1/2+y,z
1/2-x,1/2+y,1/2-z
1/2-x,1/2-y,-z
1/2+x,1/2-y,1/2+z
loop_
_atom_site_type_symbol
_atom_site_label
_atom_site_fract_x
_atom_site_fract_y
_atom_site_fract_z
Si Si1 0.779066 0.495590 0.737645
Si Si2 0.120287 0.085907 0.436400
Si Si3 0.546356 0.775729 0.014246
Si Si4 0.025957 0.340069 0.357023
Si Si5 0.196433 0.278625 0.942577
Si Si6 0.139307 0.535561 0.088094
O O1 0.752657 0.749788 0.751991
O O2 0.796737 0.474498 0.635094
O O3 0.827836 0.469915 0.812439
O O4 0.083261 0.254808 0.367394
O O5 0.142708 0.223183 0.530775
O O6 0.081025 0.913185 0.474483
O O7 0.165016 0.946642 0.396905
O O8 0.525377 0.923001 0.920556
O O9 0.507974 0.680672 0.081636
O O10 0.582790 0.955193 0.080593
O O11 0.000000 0.357837 0.250000
O O12 0.250000 0.250000 0.000000
O O13 0.164225 0.356939 0.021845
#
# Coordination Sequence:
#
# PCOD9282604 Si02
#       6
#     8   8   8   8   8   8
#     4  12  27  43  68 100 136 183 231 282 347 409
#     4  10  22  39  64  93 127 176 219 277 344 400
#     4   9  21  40  60  90 130 167 212 282 338 403
#     4  10  21  39  63  91 126 168 221 275 341 412
#     4  11  23  43  65  92 136 174 222 283 335 406
#     4  10  23  41  64  94 129 175 224 278 339 410
#
# _framework density 21.970839000000002
#
# number of rings (size 3 to 8) (size 9 to 14) (size 15 to 20)
#    0.000    1.667    1.667    1.500    4.667    7.333 
#    0.000    0.000    0.000    0.000    0.000    0.000 
#    0.000    0.000    0.000    0.000    0.000    0.000 
#
# Total GULP energy -133753.042058 kJ/mol
# GULP energy per Si atom -5573.043419 kJ/mol
# Density = 2.192083 g / cm^3
# Si number density = 21.970839 Si / 1000 Ang^3
#
#
#
# Elastic Constant Matrix: (Units=GPa)
#
#
# Indices 1 2 3 4 5 6 
#
# 1 117.7253 24.0469 28.8956 0.0000 15.0758 0.0000
# 2 24.0469 55.0996 5.8784 0.0000 11.9488 0.0000
# 3 28.8956 5.8784 138.3614 0.0000 27.6440 0.0000
# 4 0.0000 0.0000 0.0000 15.5067 0.0000 -12.2258
# 5 15.0758 11.9488 27.6440 0.0000 22.8218 0.0000
# 6 0.0000 0.0000 0.0000 -12.2258 0.0000 -8.8709
#
#
#
# Elastic Compliance Matrix: (Units=1/GPa)
#
#
# Indices 1 2 3 4 5 6 
#
# 1 0.009934 -0.003513 -0.001295 0.000000 -0.003154 0.000000
# 2 -0.003513 0.022016 0.002161 0.000000 -0.011823 0.000000
# 3 -0.001295 0.002161 0.009843 0.000000 -0.012199 0.000000
# 4 0.000000 0.000000 0.000000 0.030906 0.000000 -0.042594
# 5 -0.003154 -0.011823 -0.012199 0.000000 0.066868 0.000000
# 6 0.000000 0.000000 0.000000 -0.042594 0.000000 -0.054025
#
#
# Mechanical properties :
#
#
# Convention : Reuss Voigt Hill
#
# Bulk Modulus (GPa) = 27.39950 47.64756 37.52353
# Shear Modulus (GPa) = 48.54216 22.71587 35.62902
#
# Velocity S-wave (km/s) = 4.70551 3.21894 4.03134
# Velocity P-wave (km/s) = 6.48232 5.96232 6.22775
#
# Compressibility (1/GPa) = 0.03649702
#
# Stress axis : x y z
#
# Youngs Moduli (GPa) = 100.66682 45.42234 101.59047
#
# Poissons Ratio (x) = 0.15958 0.13158
# Poissons Ratio (y) = 0.35367 -0.21949
# Poissons Ratio (z) = 0.13038 -0.09814
#
# Static dielectric constant tensor:
#      x y z
#    x 1.889760 0.000000 0.016180 
#    y 0.000000 2.021580 0.000000 
#    z 0.016180 0.000000 1.764890 
# 
# From -- ./inp_files/179787.got.cif
#   From: 2010.05.17/outbox.cif.g08.bks.cpg/sg15_90_cif.got.tgz:179787.got - 2010.06.03 18:47:42.
