data_PCOD9282407
_publ_section_title
;
Structure prediction by ZEFSAII (Michael W. Deem and Ramdas Pophale) SiO2 
 PCOD9282407
Probable space group: C 2/C
;
_chemical_formula_sum "Si O2"
_cell_formula_units_Z 56
_cell_length_a 22.878536
_cell_length_b 16.556599
_cell_length_c 8.910021
_cell_angle_alpha 90.000000
_cell_angle_beta 56.055828
_cell_angle_gamma 90.000000
_cell_volume 2799.867202
_symmetry_space_group_name_H-M "C 2/C"
_symmetry_group_IT_number 15
_symmetry_cell_setting 'monoclinic'
loop_
_space_group_symop_operation_xyz
x,y,z
-x,y,1/2-z
-x,-y,-z
x,-y,1/2+z
1/2+x,1/2+y,z
1/2-x,1/2+y,1/2-z
1/2-x,1/2-y,-z
1/2+x,1/2-y,1/2+z
loop_
_atom_site_type_symbol
_atom_site_label
_atom_site_fract_x
_atom_site_fract_y
_atom_site_fract_z
Si Si1 0.758380 0.033091 0.445142
Si Si2 0.634503 0.776074 0.724425
Si Si3 0.413275 0.821236 0.018340
Si Si4 0.655952 0.014497 0.844250
Si Si5 0.222147 0.139615 0.479294
Si Si6 0.541174 0.125652 0.535181
Si Si7 0.691996 0.297508 0.683910
O O1 0.684778 0.039741 0.640793
O O2 0.806641 0.112225 0.388675
O O3 0.725317 0.019943 0.327798
O O4 0.794548 0.952167 0.454222
O O5 0.585621 0.778247 0.645638
O O6 0.695260 0.843415 0.618245
O O7 0.677254 0.693488 0.659236
O O8 0.593144 0.798253 0.934291
O O9 0.367210 0.900909 0.055101
O O10 0.483222 0.858907 0.990010
O O11 0.375363 0.760776 0.192309
O O12 0.590974 0.952320 0.939671
O O13 0.209533 0.178809 0.332812
O O14 0.500000 0.120950 0.750000
O O15 0.750000 0.250000 0.500000
#
# Coordination Sequence:
#
# PCOD9282407 Si02
#       7
#     8   8   8   8   8   8   8
#     4  12  21  38  63  93 129 160 213 267 329 378
#     4  10  21  39  62  84 121 170 218 259 321 383
#     4  11  23  39  59  88 126 177 212 254 317 387
#     4  12  22  38  58  90 127 174 206 259 320 387
#     4  10  21  39  63  91 124 164 215 272 324 382
#     4  12  25  39  57  90 135 171 218 261 312 391
#     4  11  23  37  62  93 126 164 213 272 320 375
#
# _framework density 20.000948000000001
#
# number of rings (size 3 to 8) (size 9 to 14) (size 15 to 20)
#    0.000    0.857    5.714    1.714    2.000    1.143 
#    0.000    0.000    0.000    0.857    0.000    0.000 
#    0.000    0.000    0.000    0.000    0.000    0.000 
#
# Total GULP energy -155951.943422 kJ/mol
# GULP energy per Si atom -5569.712265 kJ/mol
# Density = 1.995543 g / cm^3
# Si number density = 20.000948 Si / 1000 Ang^3
#
#
#
# Elastic Constant Matrix: (Units=GPa)
#
#
# Indices 1 2 3 4 5 6 
#
# 1 25.2657 4.6485 1.2446 0.0000 6.9300 0.0000
# 2 4.6485 124.1131 41.3765 0.0000 -6.9184 0.0000
# 3 1.2446 41.3765 98.9071 0.0000 -5.7419 0.0000
# 4 0.0000 0.0000 0.0000 26.5850 0.0000 -0.3447
# 5 6.9300 -6.9184 -5.7419 0.0000 16.2173 0.0000
# 6 0.0000 0.0000 0.0000 -0.3447 0.0000 21.7947
#
#
#
# Elastic Compliance Matrix: (Units=1/GPa)
#
#
# Indices 1 2 3 4 5 6 
#
# 1 0.045854 -0.002659 -0.000682 0.000000 -0.020970 0.000000
# 2 -0.002659 0.009631 -0.003769 0.000000 0.003911 0.000000
# 3 -0.000682 -0.003769 0.011863 0.000000 0.002884 0.000000
# 4 0.000000 0.000000 0.000000 0.037623 0.000000 0.000595
# 5 -0.020970 0.003911 0.002884 0.000000 0.073313 0.000000
# 6 0.000000 0.000000 0.000000 0.000595 0.000000 0.045892
#
#
# Mechanical properties :
#
#
# Convention : Reuss Voigt Hill
#
# Bulk Modulus (GPa) = 18.82212 38.09166 28.45689
# Shear Modulus (GPa) = 19.52325 26.32049 22.92187
#
# Velocity S-wave (km/s) = 3.12768 3.63155 3.38899
# Velocity P-wave (km/s) = 4.74069 6.05562 5.43805
#
# Compressibility (1/GPa) = 0.05312898
#
# Stress axis : x y z
#
# Youngs Moduli (GPa) = 21.80834 103.83031 84.29545
#
# Poissons Ratio (x) = 0.27608 0.05749
# Poissons Ratio (y) = 0.05799 0.31767
# Poissons Ratio (z) = 0.01487 0.39129
#
# Static dielectric constant tensor:
#      x y z
#    x 1.758430 0.000000 0.036160 
#    y 0.000000 1.739690 0.000000 
#    z 0.036160 0.000000 1.807790 
# 
# From -- ./inp_files/62665.got.cif
#   From: 2010.05.17/outbox.cif.g08.bks.cpg/sg15_32_cif.got.tgz:62665.got - 2010.06.03 18:47:42.
