data_PCOD9282334
_publ_section_title
;
Structure prediction by ZEFSAII (Michael W. Deem and Ramdas Pophale) SiO2 
 PCOD9282334
Probable space group: C 2/C
;
_chemical_formula_sum "Si O2"
_cell_formula_units_Z 52
_cell_length_a 23.105577
_cell_length_b 8.884403
_cell_length_c 11.235754
_cell_angle_alpha 90.000000
_cell_angle_beta 101.927214
_cell_angle_gamma 90.000000
_cell_volume 2256.672764
_symmetry_space_group_name_H-M "C 2/C"
_symmetry_group_IT_number 15
_symmetry_cell_setting 'monoclinic'
loop_
_space_group_symop_operation_xyz
x,y,z
-x,y,1/2-z
-x,-y,-z
x,-y,1/2+z
1/2+x,1/2+y,z
1/2-x,1/2+y,1/2-z
1/2-x,1/2-y,-z
1/2+x,1/2-y,1/2+z
loop_
_atom_site_type_symbol
_atom_site_label
_atom_site_fract_x
_atom_site_fract_y
_atom_site_fract_z
Si Si1 0.174926 0.740607 0.040972
Si Si2 0.756450 0.003015 0.506746
Si Si3 0.500000 0.080995 0.750000
Si Si4 0.063863 0.136109 0.626627
Si Si5 0.275534 0.778781 0.684987
Si Si6 0.905310 0.329193 0.641575
Si Si7 0.445912 0.703034 0.428505
O O1 0.194276 0.586688 0.987433
O O2 0.110933 0.769754 0.067439
O O3 0.219237 0.743278 0.173503
O O4 0.192428 0.879054 0.965159
O O5 0.765733 0.093083 0.387557
O O6 0.760413 0.124157 0.612600
O O7 0.531073 0.186481 0.664659
O O8 0.448524 0.972531 0.675252
O O9 0.067198 0.199210 0.761238
O O10 0.001767 0.166328 0.537232
O O11 0.076399 0.957711 0.628743
O O12 0.339884 0.834792 0.667890
O O13 0.901850 0.283014 0.502060
#
# Coordination Sequence:
#
# PCOD9282334 Si02
#       7
#     8   8   4   8   8   8   8
#     4  10  21  39  61  91 118 157 203 252 300 362
#     4  10  21  39  61  88 122 158 197 252 304 359
#     4  12  26  38  62  92 126 172 204 260 312 364
#     4  10  23  40  65  87 123 168 209 257 312 367
#     4  10  22  38  63  88 122 158 200 246 308 364
#     4  11  23  42  62  92 127 163 206 261 308 371
#     4  11  24  41  62  88 129 162 214 256 308 378
#
# _framework density 23.042774999999999
#
# number of rings (size 3 to 8) (size 9 to 14) (size 15 to 20)
#    0.000    1.538    1.538    2.308    6.462    1.231 
#    0.000    1.538    0.000    0.000    0.000    0.000 
#    0.000    0.000    0.000    0.000    0.000    0.000 
#
# Total GULP energy -145316.214962 kJ/mol
# GULP energy per Si atom -5589.085191 kJ/mol
# Density = 2.299033 g / cm^3
# Si number density = 23.042775 Si / 1000 Ang^3
#
#
#
# Elastic Constant Matrix: (Units=GPa)
#
#
# Indices 1 2 3 4 5 6 
#
# 1 55.8446 -1.2368 -7.5753 0.0000 -15.0975 0.0000
# 2 -1.2368 117.7330 41.1641 0.0000 -0.3429 0.0000
# 3 -7.5753 41.1641 74.5178 0.0000 -21.7502 0.0000
# 4 0.0000 0.0000 0.0000 37.5174 0.0000 -12.6573
# 5 -15.0975 -0.3429 -21.7502 0.0000 33.9823 0.0000
# 6 0.0000 0.0000 0.0000 -12.6573 0.0000 13.7739
#
#
#
# Elastic Compliance Matrix: (Units=1/GPa)
#
#
# Indices 1 2 3 4 5 6 
#
# 1 0.023221 -0.002645 0.008393 0.000000 0.015662 0.000000
# 2 -0.002645 0.011405 -0.008458 0.000000 -0.006474 0.000000
# 3 0.008393 -0.008458 0.024605 0.000000 0.019392 0.000000
# 4 0.000000 0.000000 0.000000 0.038631 0.000000 0.035499
# 5 0.015662 -0.006474 0.019392 0.000000 0.048732 0.000000
# 6 0.000000 0.000000 0.000000 0.035499 0.000000 0.105222
#
#
# Mechanical properties :
#
#
# Convention : Reuss Voigt Hill
#
# Bulk Modulus (GPa) = 18.58384 34.75546 26.66965
# Shear Modulus (GPa) = 18.17040 31.43762 24.80401
#
# Velocity S-wave (km/s) = 2.81116 3.69767 3.28446
# Velocity P-wave (km/s) = 4.31501 5.77461 5.09732
#
# Compressibility (1/GPa) = 0.05381020
#
# Stress axis : x y z
#
# Youngs Moduli (GPa) = 43.06466 87.68439 40.64141
#
# Poissons Ratio (x) = 0.23192 -0.34110
# Poissons Ratio (y) = 0.11390 0.34376
# Poissons Ratio (z) = -0.36144 0.74167
#
# Static dielectric constant tensor:
#      x y z
#    x 1.882420 0.000000 0.021380 
#    y 0.000000 1.863340 0.000000 
#    z 0.021380 0.000000 1.841500 
# 
# From -- ./inp_files/121540.got.cif
#   From: 2010.05.17/outbox.cif.g08.bks.cpg/sg15_61_cif.got.tgz:121540.got - 2010.06.03 18:47:42.
