data_PCOD9282241
_publ_section_title
;
Structure prediction by ZEFSAII (Michael W. Deem and Ramdas Pophale) SiO2 
 PCOD9282241
Probable space group: C 2/C
;
_chemical_formula_sum "Si O2"
_cell_formula_units_Z 56
_cell_length_a 26.927955
_cell_length_b 18.591187
_cell_length_c 4.844794
_cell_angle_alpha 90.000000
_cell_angle_beta 72.320711
_cell_angle_gamma 90.000000
_cell_volume 2310.864512
_symmetry_space_group_name_H-M "C 2/C"
_symmetry_group_IT_number 15
_symmetry_cell_setting 'monoclinic'
loop_
_space_group_symop_operation_xyz
x,y,z
-x,y,1/2-z
-x,-y,-z
x,-y,1/2+z
1/2+x,1/2+y,z
1/2-x,1/2+y,1/2-z
1/2-x,1/2-y,-z
1/2+x,1/2-y,1/2+z
loop_
_atom_site_type_symbol
_atom_site_label
_atom_site_fract_x
_atom_site_fract_y
_atom_site_fract_z
Si Si1 0.739104 0.330686 0.627928
Si Si2 0.966144 0.821167 0.578203
Si Si3 0.079479 0.954887 0.517979
Si Si4 0.796158 0.047037 0.706008
Si Si5 0.351853 0.166359 0.007582
Si Si6 0.940775 0.449867 0.309280
Si Si7 0.360854 0.738403 0.990957
O O1 0.750000 0.250000 0.500000
O O2 0.729153 0.384334 0.392322
O O3 0.792564 0.353486 0.687385
O O4 0.685843 0.319028 0.891434
O O5 0.947366 0.887630 0.797959
O O6 0.914164 0.788751 0.532534
O O7 0.000000 0.776693 0.750000
O O8 0.000000 0.836841 0.250000
O O9 0.141504 0.943381 0.422989
O O10 0.066345 0.976175 0.229796
O O11 0.783198 0.022172 0.035008
O O12 0.365619 0.235850 0.169916
O O13 0.395930 0.106412 0.959670
O O14 0.348955 0.190908 0.694119
O O15 0.935740 0.520800 0.508062
O O16 0.000000 0.421866 0.250000
#
# Coordination Sequence:
#
# PCOD9282241 Si02
#       7
#     8   8   8   8   8   8   8
#     4  10  23  44  68  98 132 179 222 278 341 405
#     4  12  25  40  62  90 123 169 215 268 320 374
#     4  10  21  39  60  86 119 163 207 260 318 369
#     4  10  22  39  64  93 128 171 216 267 329 389
#     4  11  24  40  69  95 125 173 215 262 329 401
#     4  10  22  42  67  97 132 168 210 269 335 403
#     4  11  24  44  60  92 134 167 216 274 324 396
#
# _framework density 24.233356000000001
#
# number of rings (size 3 to 8) (size 9 to 14) (size 15 to 20)
#    0.000    1.429    1.429    3.000    0.000    9.143 
#    0.000    0.000    0.000    0.000    0.000    0.000 
#    0.000    0.000    0.000    0.000    0.000    0.000 
#
# Total GULP energy -156727.145250 kJ/mol
# GULP energy per Si atom -5597.398045 kJ/mol
# Density = 2.417820 g / cm^3
# Si number density = 24.233356 Si / 1000 Ang^3
#
#
#
# Elastic Constant Matrix: (Units=GPa)
#
#
# Indices 1 2 3 4 5 6 
#
# 1 176.1174 45.1294 31.1105 0.0000 -21.9029 0.0000
# 2 45.1294 60.0957 2.5544 0.0000 -18.6967 0.0000
# 3 31.1105 2.5544 90.8646 0.0000 1.7558 0.0000
# 4 0.0000 0.0000 0.0000 62.0779 0.0000 -37.4331
# 5 -21.9029 -18.6967 1.7558 0.0000 37.7893 0.0000
# 6 0.0000 0.0000 0.0000 -37.4331 0.0000 83.1627
#
#
#
# Elastic Compliance Matrix: (Units=1/GPa)
#
#
# Indices 1 2 3 4 5 6 
#
# 1 0.007664 -0.004999 -0.002524 0.000000 0.002086 0.000000
# 2 -0.004999 0.022979 0.000903 0.000000 0.008429 0.000000
# 3 -0.002524 0.000903 0.011874 0.000000 -0.001568 0.000000
# 4 0.000000 0.000000 0.000000 0.022110 0.000000 0.009952
# 5 0.002086 0.008429 -0.001568 0.000000 0.031915 0.000000
# 6 0.000000 0.000000 0.000000 0.009952 0.000000 0.016504
#
#
# Mechanical properties :
#
#
# Convention : Reuss Voigt Hill
#
# Bulk Modulus (GPa) = 34.15706 53.85182 44.00444
# Shear Modulus (GPa) = 36.75221 53.15820 44.95521
#
# Velocity S-wave (km/s) = 3.89857 4.68867 4.31176
# Velocity P-wave (km/s) = 5.86437 7.18205 6.55640
#
# Compressibility (1/GPa) = 0.02927652
#
# Stress axis : x y z
#
# Youngs Moduli (GPa) = 130.47383 43.51886 84.21442
#
# Poissons Ratio (x) = 0.21757 0.21255
# Poissons Ratio (y) = 0.65228 -0.07603
# Poissons Ratio (z) = 0.32931 -0.03929
#
# Static dielectric constant tensor:
#      x y z
#    x 1.978610 0.000000 -0.047440 
#    y 0.000000 1.943750 0.000000 
#    z -0.047440 0.000000 1.917190 
# 
# From -- ./inp_files/17169.got.cif
#   From: 2010.05.17/outbox.cif.g08.bks.cpg/sg15_9_cif.got.tgz:17169.got - 2010.06.03 18:47:42.
