data_PCOD9282440
_publ_section_title
;
Structure prediction by ZEFSAII (Michael W. Deem and Ramdas Pophale) SiO2 
 PCOD9282440
Probable space group: C 2/C
;
_chemical_formula_sum "Si O2"
_cell_formula_units_Z 48
_cell_length_a 11.017091
_cell_length_b 11.987208
_cell_length_c 16.735561
_cell_angle_alpha 90.000000
_cell_angle_beta 55.251874
_cell_angle_gamma 90.000000
_cell_volume 1816.018832
_symmetry_space_group_name_H-M "C 2/C"
_symmetry_group_IT_number 15
_symmetry_cell_setting 'monoclinic'
loop_
_space_group_symop_operation_xyz
x,y,z
-x,y,1/2-z
-x,-y,-z
x,-y,1/2+z
1/2+x,1/2+y,z
1/2-x,1/2+y,1/2-z
1/2-x,1/2-y,-z
1/2+x,1/2-y,1/2+z
loop_
_atom_site_type_symbol
_atom_site_label
_atom_site_fract_x
_atom_site_fract_y
_atom_site_fract_z
Si Si1 0.145636 0.852313 0.571348
Si Si2 0.500000 0.157131 0.250000
Si Si3 0.359599 0.001238 0.410022
Si Si4 0.624655 0.796895 0.489192
Si Si5 0.606473 0.186791 0.819881
Si Si6 0.091270 0.162302 0.845195
Si Si7 0.500000 0.477537 0.750000
O O1 0.250000 0.750000 0.500000
O O2 0.202260 0.951251 0.492809
O O3 0.982041 0.801884 0.641317
O O4 0.143017 0.909084 0.661567
O O5 0.449511 0.234693 0.197544
O O6 0.367703 0.078177 0.329232
O O7 0.481532 0.905846 0.357342
O O8 0.413912 0.082569 0.460859
O O9 0.750000 0.750000 0.500000
O O10 0.679157 0.819938 0.380025
O O11 0.497413 0.702491 0.543151
O O12 0.733667 0.167904 0.708097
O O13 0.045298 0.055038 0.809750
#
# Coordination Sequence:
#
# PCOD9282440 Si02
#       7
#     8   4   8   8   8   8   4
#     4  10  24  40  61  92 127 164 202 249 307 371
#     4   9  20  39  62  88 126 163 210 259 304 356
#     4  10  21  39  62  89 124 169 203 247 308 366
#     4  11  22  41  64  87 122 162 207 258 303 362
#     4  11  23  37  59  93 125 158 204 254 307 363
#     4  10  22  39  63  91 118 163 213 257 303 360
#     4  11  22  43  66  84 120 167 206 249 314 374
#
# _framework density 26.431445
#
# number of rings (size 3 to 8) (size 9 to 14) (size 15 to 20)
#    0.000    1.667    0.000    5.500    0.000   10.667 
#    0.000    5.833    0.000    0.000    0.000    0.000 
#    0.000    0.000    0.000    0.000    0.000    0.000 
#
# Total GULP energy -134115.165752 kJ/mol
# GULP energy per Si atom -5588.131906 kJ/mol
# Density = 2.637129 g / cm^3
# Si number density = 26.431445 Si / 1000 Ang^3
#
#
#
# Elastic Constant Matrix: (Units=GPa)
#
#
# Indices 1 2 3 4 5 6 
#
# 1 57.1047 14.4972 7.8552 0.0000 -13.1803 0.0000
# 2 14.4972 121.3641 46.7267 0.0000 -5.1485 0.0000
# 3 7.8552 46.7267 154.8567 0.0000 -20.4781 0.0000
# 4 0.0000 0.0000 0.0000 37.7081 0.0000 -17.7298
# 5 -13.1803 -5.1485 -20.4781 0.0000 47.5143 0.0000
# 6 0.0000 0.0000 0.0000 -17.7298 0.0000 6.6947
#
#
#
# Elastic Compliance Matrix: (Units=1/GPa)
#
#
# Indices 1 2 3 4 5 6 
#
# 1 0.019238 -0.002226 0.000392 0.000000 0.005264 0.000000
# 2 -0.002226 0.009582 -0.002887 0.000000 -0.000823 0.000000
# 3 0.000392 -0.002887 0.007722 0.000000 0.003124 0.000000
# 4 0.000000 0.000000 0.000000 -0.108150 0.000000 -0.286417
# 5 0.005264 -0.000823 0.003124 0.000000 0.023764 0.000000
# 6 0.000000 0.000000 0.000000 -0.286417 0.000000 -0.609158
#
#
# Mechanical properties :
#
#
# Convention : Reuss Voigt Hill
#
# Bulk Modulus (GPa) = 36.90043 52.38709 44.64376
# Shear Modulus (GPa) = -7.83053 35.99984 14.08466
#
# Velocity S-wave (km/s) = -1.72308 3.69454 2.31091
# Velocity P-wave (km/s) = 3.16740 6.16949 4.90382
#
# Compressibility (1/GPa) = 0.02709995
#
# Stress axis : x y z
#
# Youngs Moduli (GPa) = 51.98093 104.35955 129.49925
#
# Poissons Ratio (x) = 0.23226 -0.05074
# Poissons Ratio (y) = 0.11569 0.37391
# Poissons Ratio (z) = -0.02037 0.30132
#
# Static dielectric constant tensor:
#      x y z
#    x 2.117190 0.000000 -0.012320 
#    y 0.000000 2.156130 0.000000 
#    z -0.012320 0.000000 2.130100 
# 
# From -- ./inp_files/243933.got.cif
#   From: 2010.05.17/outbox.cif.g08.bks.cpg/sg15_122_cif.got.tgz:243933.got - 2010.06.03 18:47:42.
