data_PCOD9282388
_publ_section_title
;
Structure prediction by ZEFSAII (Michael W. Deem and Ramdas Pophale) SiO2 
 PCOD9282388
Probable space group: C 2/C
;
_chemical_formula_sum "Si O2"
_cell_formula_units_Z 64
_cell_length_a 23.287638
_cell_length_b 25.958727
_cell_length_c 8.962199
_cell_angle_alpha 90.000000
_cell_angle_beta 148.161162
_cell_angle_gamma 90.000000
_cell_volume 2858.064590
_symmetry_space_group_name_H-M "C 2/C"
_symmetry_group_IT_number 15
_symmetry_cell_setting 'monoclinic'
loop_
_space_group_symop_operation_xyz
x,y,z
-x,y,1/2-z
-x,-y,-z
x,-y,1/2+z
1/2+x,1/2+y,z
1/2-x,1/2+y,1/2-z
1/2-x,1/2-y,-z
1/2+x,1/2-y,1/2+z
loop_
_atom_site_type_symbol
_atom_site_label
_atom_site_fract_x
_atom_site_fract_y
_atom_site_fract_z
Si Si1 0.071698 0.274573 0.602195
Si Si2 0.226468 0.485919 0.386347
Si Si3 0.250902 0.251941 0.238029
Si Si4 0.386629 0.668655 0.442546
Si Si5 0.224479 0.073205 0.244053
Si Si6 0.930073 0.827802 0.722218
Si Si7 0.460822 0.118078 0.831870
Si Si8 0.087280 0.458111 0.827316
O O1 0.161972 0.279897 0.670131
O O2 0.989941 0.322261 0.424540
O O3 0.004899 0.222385 0.426302
O O4 0.146644 0.267978 0.911322
O O5 0.258211 0.535939 0.358923
O O6 0.310115 0.460696 0.687797
O O7 0.135070 0.504936 0.305299
O O8 0.183073 0.447535 0.159862
O O9 0.203223 0.213518 0.256267
O O10 0.316251 0.303246 0.420912
O O11 0.350821 0.621060 0.464899
O O12 0.406688 0.645243 0.324695
O O13 0.500000 0.690535 0.750000
O O14 0.335354 0.101025 0.548914
O O15 0.000000 0.855821 0.750000
O O16 0.500000 0.106178 0.750000
O O17 0.528880 0.087521 0.108892
O O18 0.000000 0.482462 0.750000
#
# Coordination Sequence:
#
# PCOD9282388 Si02
#       8
#     8   8   8   8   8   8   8   8
#     4  10  21  39  61  95 130 173 212 249 312 374
#     4  10  23  40  60  88 126 166 204 256 333 388
#     4  10  21  39  65  90 130 174 214 254 307 367
#     4  12  24  43  65  94 120 164 219 266 313 366
#     4  11  24  41  65  92 123 164 210 265 324 393
#     4  10  21  42  65  91 130 168 208 262 315 372
#     4  12  22  35  59  96 134 168 205 253 308 383
#     4  11  21  34  57  89 129 164 198 250 312 395
#
# _framework density 22.392776000000001
#
# number of rings (size 3 to 8) (size 9 to 14) (size 15 to 20)
#    0.000    1.250    3.750    3.375    1.750    1.000 
#    2.250    3.125    0.000    0.000    0.000    0.000 
#    0.000    0.000    0.000    0.000    0.000    0.000 
#
# Total GULP energy -178472.183940 kJ/mol
# GULP energy per Si atom -5577.255748 kJ/mol
# Density = 2.234181 g / cm^3
# Si number density = 22.392776 Si / 1000 Ang^3
#
#
#
# Elastic Constant Matrix: (Units=GPa)
#
#
# Indices 1 2 3 4 5 6 
#
# 1 92.8457 17.6359 9.0678 0.0000 -17.9549 0.0000
# 2 17.6359 50.6180 -2.2823 0.0000 10.7183 0.0000
# 3 9.0678 -2.2823 62.0366 0.0000 -4.0612 0.0000
# 4 0.0000 0.0000 0.0000 24.7301 0.0000 1.8983
# 5 -17.9549 10.7183 -4.0612 0.0000 30.3389 0.0000
# 6 0.0000 0.0000 0.0000 1.8983 0.0000 16.8493
#
#
#
# Elastic Compliance Matrix: (Units=1/GPa)
#
#
# Indices 1 2 3 4 5 6 
#
# 1 0.014467 -0.007438 -0.001670 0.000000 0.010966 0.000000
# 2 -0.007438 0.025182 0.001153 0.000000 -0.013144 0.000000
# 3 -0.001670 0.001153 0.016459 0.000000 0.000807 0.000000
# 4 0.000000 0.000000 0.000000 0.040789 0.000000 -0.004595
# 5 0.010966 -0.013144 0.000807 0.000000 0.044202 0.000000
# 6 0.000000 0.000000 0.000000 -0.004595 0.000000 0.059867
#
#
# Mechanical properties :
#
#
# Convention : Reuss Voigt Hill
#
# Bulk Modulus (GPa) = 24.87660 28.26034 26.56847
# Shear Modulus (GPa) = 21.71295 26.45559 24.08427
#
# Velocity S-wave (km/s) = 3.11728 3.44093 3.28310
# Velocity P-wave (km/s) = 4.90815 5.33239 5.12466
#
# Compressibility (1/GPa) = 0.04019842
#
# Stress axis : x y z
#
# Youngs Moduli (GPa) = 69.12213 39.71013 60.75720
#
# Poissons Ratio (x) = 0.29536 0.10149
# Poissons Ratio (y) = 0.51412 -0.07006
# Poissons Ratio (z) = 0.11546 -0.04579
#
# Static dielectric constant tensor:
#      x y z
#    x 1.886720 0.000000 -0.005220 
#    y 0.000000 1.810860 0.000000 
#    z -0.005220 0.000000 1.878940 
# 
# From -- ./inp_files/64215.got.cif
#   From: 2010.05.17/outbox.cif.g08.bks.cpg/sg15_33_cif.got.tgz:64215.got - 2010.06.03 18:47:42.
