data_PCOD9282579
_publ_section_title
;
Structure prediction by ZEFSAII (Michael W. Deem and Ramdas Pophale) SiO2 
 PCOD9282579
Probable space group: C 2/C
;
_chemical_formula_sum "Si O2"
_cell_formula_units_Z 48
_cell_length_a 17.750234
_cell_length_b 7.387394
_cell_length_c 20.246406
_cell_angle_alpha 90.000000
_cell_angle_beta 137.913433
_cell_angle_gamma 90.000000
_cell_volume 1779.433746
_symmetry_space_group_name_H-M "C 2/C"
_symmetry_group_IT_number 15
_symmetry_cell_setting 'monoclinic'
loop_
_space_group_symop_operation_xyz
x,y,z
-x,y,1/2-z
-x,-y,-z
x,-y,1/2+z
1/2+x,1/2+y,z
1/2-x,1/2+y,1/2-z
1/2-x,1/2-y,-z
1/2+x,1/2-y,1/2+z
loop_
_atom_site_type_symbol
_atom_site_label
_atom_site_fract_x
_atom_site_fract_y
_atom_site_fract_z
Si Si1 0.624010 0.280898 0.507465
Si Si2 0.599763 0.152367 0.851427
Si Si3 0.003273 0.978016 0.327642
Si Si4 0.393967 0.936891 0.869097
Si Si5 0.289037 0.926248 0.939199
Si Si6 0.649704 0.636495 0.164730
O O1 0.612029 0.398348 0.434797
O O2 0.510668 0.158298 0.427945
O O3 0.621158 0.406567 0.570030
O O4 0.728147 0.142873 0.583090
O O5 0.500000 0.040124 0.750000
O O6 0.525956 0.311181 0.833877
O O7 0.693405 0.271498 0.872891
O O8 0.662547 0.072943 0.955233
O O9 0.902634 0.996484 0.315975
O O10 0.000000 0.907082 0.250000
O O11 0.370013 0.887540 0.930080
O O12 0.283534 0.869401 0.759729
O O13 0.391894 0.154312 0.856866
#
# Coordination Sequence:
#
# PCOD9282579 Si02
#       6
#     8   8   8   8   8   8
#     4  11  24  42  65  94 129 165 213 268 315 370
#     4  10  21  39  63  89 129 174 211 255 316 380
#     4  11  23  41  63  90 127 167 209 260 320 381
#     4  11  22  40  67  95 127 163 213 267 312 372
#     4  10  22  40  63  94 125 165 217 264 312 375
#     4  11  23  42  68  95 125 167 213 259 319 380
#
# _framework density 26.974872000000001
#
# number of rings (size 3 to 8) (size 9 to 14) (size 15 to 20)
#    0.000    1.333    0.000    7.500    0.000    5.333 
#    0.000    4.167    0.000    0.000    0.000    0.000 
#    0.000    0.000    0.000    0.000    0.000    0.000 
#
# Total GULP energy -133963.155496 kJ/mol
# GULP energy per Si atom -5581.798146 kJ/mol
# Density = 2.691348 g / cm^3
# Si number density = 26.974872 Si / 1000 Ang^3
#
#
#
# Elastic Constant Matrix: (Units=GPa)
#
#
# Indices 1 2 3 4 5 6 
#
# 1 138.4459 44.0447 52.2626 0.0000 -6.5266 0.0000
# 2 44.0447 62.2758 44.7657 0.0000 -8.9825 0.0000
# 3 52.2626 44.7657 162.9433 0.0000 -14.7559 0.0000
# 4 0.0000 0.0000 0.0000 36.4498 0.0000 -4.4562
# 5 -6.5266 -8.9825 -14.7559 0.0000 46.6524 0.0000
# 6 0.0000 0.0000 0.0000 -4.4562 0.0000 6.2753
#
#
#
# Elastic Compliance Matrix: (Units=1/GPa)
#
#
# Indices 1 2 3 4 5 6 
#
# 1 0.009613 -0.005734 -0.001530 0.000000 -0.000243 0.000000
# 2 -0.005734 0.023647 -0.004445 0.000000 0.002345 0.000000
# 3 -0.001530 -0.004445 0.007981 0.000000 0.001454 0.000000
# 4 0.000000 0.000000 0.000000 0.030043 0.000000 0.021334
# 5 -0.000243 0.002345 0.001454 0.000000 0.022313 0.000000
# 6 0.000000 0.000000 0.000000 0.021334 0.000000 0.174506
#
#
# Mechanical properties :
#
#
# Convention : Reuss Voigt Hill
#
# Bulk Modulus (GPa) = 56.10987 71.75675 63.93331
# Shear Modulus (GPa) = 16.80890 32.71497 24.76193
#
# Velocity S-wave (km/s) = 2.49897 3.48630 3.03308
# Velocity P-wave (km/s) = 5.40115 6.54712 6.00155
#
# Compressibility (1/GPa) = 0.01782218
#
# Stress axis : x y z
#
# Youngs Moduli (GPa) = 104.02069 42.28944 125.30224
#
# Poissons Ratio (x) = 0.24250 0.19172
# Poissons Ratio (y) = 0.59649 0.55695
# Poissons Ratio (z) = 0.15916 0.18797
#
# Static dielectric constant tensor:
#      x y z
#    x 2.186490 0.000000 -0.009530 
#    y 0.000000 2.113130 0.000000 
#    z -0.009530 0.000000 2.304480 
# 
# From -- ./inp_files/279443.got.cif
#   From: 2010.05.17/outbox.cif.g08.bks.cpg/sg15_140_cif.got.tgz:279443.got - 2010.06.03 18:47:42.
