data_PCOD9282073
_publ_section_title
;
Structure prediction by ZEFSAII (Michael W. Deem and Ramdas Pophale) SiO2 
 PCOD9282073
Probable space group: C 2/C
;
_chemical_formula_sum "Si O2"
_cell_formula_units_Z 40
_cell_length_a 22.280632
_cell_length_b 7.942039
_cell_length_c 16.393584
_cell_angle_alpha 90.000000
_cell_angle_beta 146.998173
_cell_angle_gamma 90.000000
_cell_volume 1580.023404
_symmetry_space_group_name_H-M "C 2/C"
_symmetry_group_IT_number 15
_symmetry_cell_setting 'monoclinic'
loop_
_space_group_symop_operation_xyz
x,y,z
-x,y,1/2-z
-x,-y,-z
x,-y,1/2+z
1/2+x,1/2+y,z
1/2-x,1/2+y,1/2-z
1/2-x,1/2-y,-z
1/2+x,1/2-y,1/2+z
loop_
_atom_site_type_symbol
_atom_site_label
_atom_site_fract_x
_atom_site_fract_y
_atom_site_fract_z
Si Si1 0.838929 0.899615 0.877466
Si Si2 0.927992 0.592502 0.085062
Si Si3 0.869717 0.604664 0.276024
Si Si4 0.936004 0.004961 0.829482
Si Si5 0.245369 0.946820 0.985390
O O1 0.710528 0.941095 0.741025
O O2 0.874816 0.884175 0.824363
O O3 0.868305 0.741221 0.967584
O O4 0.934063 0.027457 0.017724
O O5 0.000000 0.639802 0.250000
O O6 0.017042 0.515164 0.122984
O O7 0.829282 0.484999 0.007734
O O8 0.904995 0.801288 0.319224
O O9 0.788180 0.558978 0.108366
O O10 0.879576 0.989341 0.678778
O O11 0.250000 0.750000 0.000000
#
# Coordination Sequence:
#
# PCOD9282073 Si02
#       5
#     8   8   8   8   8
#     4  10  21  38  69  99 127 175 219 277 333 396
#     4   9  20  39  69  96 129 170 227 271 337 393
#     4  10  21  41  70  89 132 177 218 275 328 396
#     4  10  22  40  66 101 131 169 229 270 335 400
#     4  11  23  42  67  97 132 175 224 278 328 399
#
# _framework density 25.316079999999999
#
# number of rings (size 3 to 8) (size 9 to 14) (size 15 to 20)
#    0.000    2.000    2.000    0.600    5.600    1.600 
#   10.800    1.000    0.000    0.000    0.000    0.000 
#    0.000    0.000    0.000    0.000    0.000    0.000 
#
# Total GULP energy -111642.285408 kJ/mol
# GULP energy per Si atom -5582.114270 kJ/mol
# Density = 2.525846 g / cm^3
# Si number density = 25.316080 Si / 1000 Ang^3
#
#
#
# Elastic Constant Matrix: (Units=GPa)
#
#
# Indices 1 2 3 4 5 6 
#
# 1 118.9622 37.7152 1.2526 0.0000 34.8878 0.0000
# 2 37.7152 72.9966 16.9876 0.0000 -3.6799 0.0000
# 3 1.2526 16.9876 104.9516 0.0000 4.2673 0.0000
# 4 0.0000 0.0000 0.0000 7.1745 0.0000 -4.3657
# 5 34.8878 -3.6799 4.2673 0.0000 40.8954 0.0000
# 6 0.0000 0.0000 0.0000 -4.3657 0.0000 44.9271
#
#
#
# Elastic Compliance Matrix: (Units=1/GPa)
#
#
# Indices 1 2 3 4 5 6 
#
# 1 0.015442 -0.009129 0.001870 0.000000 -0.014190 0.000000
# 2 -0.009129 0.019728 -0.003488 0.000000 0.009927 0.000000
# 3 0.001870 -0.003488 0.010191 0.000000 -0.002973 0.000000
# 4 0.000000 0.000000 0.000000 0.148142 0.000000 0.014396
# 5 -0.014190 0.009927 -0.002973 0.000000 0.037762 0.000000
# 6 0.000000 0.000000 0.000000 0.014396 0.000000 0.023657
#
#
# Mechanical properties :
#
#
# Convention : Reuss Voigt Hill
#
# Bulk Modulus (GPa) = 41.89675 45.42458 43.66067
# Shear Modulus (GPa) = 17.58258 34.66307 26.12282
#
# Velocity S-wave (km/s) = 2.63824 3.70430 3.21575
# Velocity P-wave (km/s) = 5.08584 6.02310 5.57420
#
# Compressibility (1/GPa) = 0.02386820
#
# Stress axis : x y z
#
# Youngs Moduli (GPa) = 64.75775 50.68885 98.12283
#
# Poissons Ratio (x) = 0.46275 -0.18352
# Poissons Ratio (y) = 0.59118 0.34224
# Poissons Ratio (z) = -0.12112 0.17680
#
# Static dielectric constant tensor:
#      x y z
#    x 2.139610 0.000000 0.010200 
#    y 0.000000 1.978880 0.000000 
#    z 0.010200 0.000000 2.023930 
# 
# From -- ./inp_files/218838.got.cif
#   From: 2010.05.17/outbox.cif.g08.bks.cpg/sg15_110_cif.got.tgz:218838.got - 2010.06.03 18:47:42.
