data_PCOD9282977
_publ_section_title
;
Structure prediction by ZEFSAII (Michael W. Deem and Ramdas Pophale) SiO2 
 PCOD9282977
Probable space group: C 2/C
;
_chemical_formula_sum "Si O2"
_cell_formula_units_Z 44
_cell_length_a 30.224186
_cell_length_b 5.442569
_cell_length_c 11.499313
_cell_angle_alpha 90.000000
_cell_angle_beta 103.347700
_cell_angle_gamma 90.000000
_cell_volume 1840.507096
_symmetry_space_group_name_H-M "C 2/C"
_symmetry_group_IT_number 15
_symmetry_cell_setting 'monoclinic'
loop_
_space_group_symop_operation_xyz
x,y,z
-x,y,1/2-z
-x,-y,-z
x,-y,1/2+z
1/2+x,1/2+y,z
1/2-x,1/2+y,1/2-z
1/2-x,1/2-y,-z
1/2+x,1/2-y,1/2+z
loop_
_atom_site_type_symbol
_atom_site_label
_atom_site_fract_x
_atom_site_fract_y
_atom_site_fract_z
Si Si1 0.805601 0.688107 0.328469
Si Si2 0.884329 0.357093 0.689790
Si Si3 0.591030 0.653854 0.397574
Si Si4 0.534670 0.188258 0.083603
Si Si5 0.500000 0.472858 0.750000
Si Si6 0.777774 0.808811 0.899933
O O1 0.844827 0.704000 0.256783
O O2 0.809077 0.427003 0.394785
O O3 0.758635 0.681577 0.227173
O O4 0.802833 0.927827 0.409206
O O5 0.877783 0.617034 0.621162
O O6 0.930652 0.383350 0.792436
O O7 0.889546 0.118928 0.610142
O O8 0.569358 0.703047 0.509793
O O9 0.546957 0.666775 0.286367
O O10 0.502100 0.373773 0.132659
O O11 0.500000 0.000000 0.000000
O O12 0.750000 0.750000 0.000000
#
# Coordination Sequence:
#
# PCOD9282977 Si02
#       6
#     8   8   8   8   4   8
#     4  10  22  40  60  92 124 155 200 248 296 359
#     4  11  25  40  60  90 124 156 201 253 299 356
#     4  11  23  39  59  85 116 158 200 249 304 355
#     4  11  22  40  63  87 119 162 205 251 304 358
#     4  10  22  40  60  86 118 156 208 258 298 356
#     4  10  21  39  66  90 121 161 198 242 300 361
#
# _framework density 23.906454
#
# number of rings (size 3 to 8) (size 9 to 14) (size 15 to 20)
#    0.000    1.455    0.000    5.455    0.000    8.000 
#    0.000    0.000    0.000    0.000    0.000    0.000 
#    0.000    0.000    0.000    0.000    0.000    0.000 
#
# Total GULP energy -122984.003188 kJ/mol
# GULP energy per Si atom -5590.181963 kJ/mol
# Density = 2.385204 g / cm^3
# Si number density = 23.906454 Si / 1000 Ang^3
#
#
#
# Elastic Constant Matrix: (Units=GPa)
#
#
# Indices 1 2 3 4 5 6 
#
# 1 60.2005 42.4608 1.8223 0.0000 -9.1381 0.0000
# 2 42.4608 199.7784 71.1155 0.0000 -30.9663 0.0000
# 3 1.8223 71.1155 84.1825 0.0000 -26.0586 0.0000
# 4 0.0000 0.0000 0.0000 -32.5993 0.0000 18.5130
# 5 -9.1381 -30.9663 -26.0586 0.0000 71.1270 0.0000
# 6 0.0000 0.0000 0.0000 18.5130 0.0000 23.1868
#
#
#
# Elastic Compliance Matrix: (Units=1/GPa)
#
#
# Indices 1 2 3 4 5 6 
#
# 1 0.021005 -0.006025 0.005254 0.000000 0.002001 0.000000
# 2 -0.006025 0.008952 -0.007292 0.000000 0.000452 0.000000
# 3 0.005254 -0.007292 0.019346 0.000000 0.004588 0.000000
# 4 0.000000 0.000000 0.000000 -0.021106 0.000000 0.016851
# 5 0.002001 0.000452 0.004588 0.000000 0.016194 0.000000
# 6 0.000000 0.000000 0.000000 0.016851 0.000000 0.029673
#
#
# Mechanical properties :
#
#
# Convention : Reuss Voigt Hill
#
# Bulk Modulus (GPa) = 30.14115 63.88429 47.01272
# Shear Modulus (GPa) = 49.38355 27.59374 38.48864
#
# Velocity S-wave (km/s) = 4.54993 3.40109 4.01679
# Velocity P-wave (km/s) = 6.34333 6.49645 6.42034
#
# Compressibility (1/GPa) = 0.03317723
#
# Stress axis : x y z
#
# Youngs Moduli (GPa) = 47.60755 111.70958 51.69150
#
# Poissons Ratio (x) = 0.67300 -0.27159
# Poissons Ratio (y) = 0.28682 0.37694
# Poissons Ratio (z) = -0.25013 0.81459
#
# Static dielectric constant tensor:
#      x y z
#    x 1.972960 0.000000 0.097620 
#    y 0.000000 1.986680 0.000000 
#    z 0.097620 0.000000 1.921160 
# 
# From -- ./inp_files/125001.got.cif
#   From: 2010.05.17/outbox.cif.g08.bks.cpg/sg15_63_cif.got.tgz:125001.got - 2010.06.03 18:47:42.
