data_PCOD9282327
_publ_section_title
;
Structure prediction by ZEFSAII (Michael W. Deem and Ramdas Pophale) SiO2 
 PCOD9282327
Probable space group: C 2/C
;
_chemical_formula_sum "Si O2"
_cell_formula_units_Z 48
_cell_length_a 21.091227
_cell_length_b 23.905816
_cell_length_c 5.147835
_cell_angle_alpha 90.000000
_cell_angle_beta 71.208220
_cell_angle_gamma 90.000000
_cell_volume 2457.199071
_symmetry_space_group_name_H-M "C 2/C"
_symmetry_group_IT_number 15
_symmetry_cell_setting 'monoclinic'
loop_
_space_group_symop_operation_xyz
x,y,z
-x,y,1/2-z
-x,-y,-z
x,-y,1/2+z
1/2+x,1/2+y,z
1/2-x,1/2+y,1/2-z
1/2-x,1/2-y,-z
1/2+x,1/2-y,1/2+z
loop_
_atom_site_type_symbol
_atom_site_label
_atom_site_fract_x
_atom_site_fract_y
_atom_site_fract_z
Si Si1 0.198097 0.965379 0.964251
Si Si2 0.075836 0.764252 0.565913
Si Si3 0.857719 0.463253 0.782046
Si Si4 0.298333 0.702995 0.329302
Si Si5 0.547358 0.858156 0.938263
Si Si6 0.169646 0.150246 0.714751
O O1 0.159789 0.910544 0.111078
O O2 0.183989 0.013858 0.193375
O O3 0.277790 0.952471 0.877661
O O4 0.127117 0.771471 0.737957
O O5 0.081440 0.702140 0.442296
O O6 0.102947 0.812833 0.341369
O O7 0.000000 0.772326 0.750000
O O8 0.873271 0.508918 0.538848
O O9 0.899480 0.407429 0.674247
O O10 0.250000 0.750000 0.500000
O O11 0.297163 0.652677 0.543306
O O12 0.285878 0.682806 0.056729
O O13 0.500000 0.853997 0.750000
O O14 0.500000 0.869585 0.250000
#
# Coordination Sequence:
#
# PCOD9282327 Si02
#       6
#     8   8   8   8   8   8
#     4  10  21  39  61  88 118 150 200 251 306 360
#     4   9  24  40  60  88 125 160 199 240 308 363
#     4  10  22  39  57  82 113 158 199 248 298 345
#     4  10  22  36  59  93 119 156 200 248 299 362
#     4  11  24  38  57  84 117 159 204 248 284 350
#     4  10  22  38  62  88 120 162 192 246 312 360
#
# _framework density 19.534435999999999
#
# number of rings (size 3 to 8) (size 9 to 14) (size 15 to 20)
#    1.000    1.000    0.000    2.500    7.000    2.000 
#    0.000    0.000    0.000    1.000    0.000    0.000 
#    0.000    0.000    0.000    0.000    0.000    0.000 
#
# Total GULP energy -133844.001162 kJ/mol
# GULP energy per Si atom -5576.833382 kJ/mol
# Density = 1.948997 g / cm^3
# Si number density = 19.534436 Si / 1000 Ang^3
#
#
#
# Elastic Constant Matrix: (Units=GPa)
#
#
# Indices 1 2 3 4 5 6 
#
# 1 9.7394 6.1080 4.7851 0.0000 0.3492 0.0000
# 2 6.1080 114.1342 34.1159 0.0000 -26.1646 0.0000
# 3 4.7851 34.1159 87.5340 0.0000 3.8815 0.0000
# 4 0.0000 0.0000 0.0000 40.9463 0.0000 -10.0541
# 5 0.3492 -26.1646 3.8815 0.0000 24.4988 0.0000
# 6 0.0000 0.0000 0.0000 -10.0541 0.0000 15.5608
#
#
#
# Elastic Compliance Matrix: (Units=1/GPa)
#
#
# Indices 1 2 3 4 5 6 
#
# 1 0.108719 -0.006896 -0.002880 0.000000 -0.008458 0.000000
# 2 -0.006896 0.014857 -0.006165 0.000000 0.016943 0.000000
# 3 -0.002880 -0.006165 0.014375 0.000000 -0.008821 0.000000
# 4 0.000000 0.000000 0.000000 0.029027 0.000000 0.018755
# 5 -0.008458 0.016943 -0.008821 0.000000 0.060431 0.000000
# 6 0.000000 0.000000 0.000000 0.018755 0.000000 0.076382
#
#
# Mechanical properties :
#
#
# Convention : Reuss Voigt Hill
#
# Bulk Modulus (GPa) = 9.42785 33.49175 21.45980
# Shear Modulus (GPa) = 13.47594 27.29443 20.38518
#
# Velocity S-wave (km/s) = 2.62936 3.74203 3.23391
# Velocity P-wave (km/s) = 3.74897 5.98770 4.99537
#
# Compressibility (1/GPa) = 0.10606868
#
# Stress axis : x y z
#
# Youngs Moduli (GPa) = 9.19803 67.30626 69.56289
#
# Poissons Ratio (x) = 0.46416 0.20037
# Poissons Ratio (y) = 0.06343 0.42885
# Poissons Ratio (z) = 0.02649 0.41494
#
# Static dielectric constant tensor:
#      x y z
#    x 1.665550 0.000000 0.015250 
#    y 0.000000 1.696780 0.000000 
#    z 0.015250 0.000000 1.695970 
# 
# From -- ./inp_files/15602.got.cif
#   From: 2010.05.17/outbox.cif.g08.bks.cpg/sg15_8_cif.got.tgz:15602.got - 2010.06.03 18:47:42.
