data_PCOD9282537
_publ_section_title
;
Structure prediction by ZEFSAII (Michael W. Deem and Ramdas Pophale) SiO2 
 PCOD9282537
Probable space group: C 2/C
;
_chemical_formula_sum "Si O2"
_cell_formula_units_Z 56
_cell_length_a 28.167782
_cell_length_b 8.648211
_cell_length_c 13.629849
_cell_angle_alpha 90.000000
_cell_angle_beta 59.095608
_cell_angle_gamma 90.000000
_cell_volume 2848.853959
_symmetry_space_group_name_H-M "C 2/C"
_symmetry_group_IT_number 15
_symmetry_cell_setting 'monoclinic'
loop_
_space_group_symop_operation_xyz
x,y,z
-x,y,1/2-z
-x,-y,-z
x,-y,1/2+z
1/2+x,1/2+y,z
1/2-x,1/2+y,1/2-z
1/2-x,1/2-y,-z
1/2+x,1/2-y,1/2+z
loop_
_atom_site_type_symbol
_atom_site_label
_atom_site_fract_x
_atom_site_fract_y
_atom_site_fract_z
Si Si1 0.132745 0.321733 0.204649
Si Si2 0.747487 0.451937 0.390595
Si Si3 0.084180 0.415033 0.885752
Si Si4 0.939872 0.770416 0.280510
Si Si5 0.056810 0.552158 0.630672
Si Si6 0.838006 0.984064 0.345354
Si Si7 0.796639 0.738507 0.231722
O O1 0.192169 0.404437 0.133815
O O2 0.097216 0.421122 0.320206
O O3 0.101354 0.336615 0.134396
O O4 0.142091 0.144850 0.222679
O O5 0.704561 0.476204 0.523239
O O6 0.756224 0.609866 0.320247
O O7 0.727150 0.317701 0.339579
O O8 0.057611 0.305358 0.831050
O O9 0.144402 0.344196 0.848036
O O10 0.051019 0.425327 0.021477
O O11 0.924944 0.624283 0.365552
O O12 0.000000 0.828288 0.250000
O O13 0.891512 0.894801 0.330333
O O14 0.000000 0.573276 0.750000
O O15 0.808626 0.871383 0.299102
#
# Coordination Sequence:
#
# PCOD9282537 Si02
#       7
#     8   8   8   8   8   8   8
#     4  10  22  36  58  88 113 150 193 233 286 339
#     4  11  22  38  59  84 118 152 194 238 280 340
#     4   9  20  40  59  83 115 146 190 240 283 341
#     4   9  21  38  59  85 115 151 189 232 287 339
#     4  10  21  39  63  85 111 150 193 236 286 338
#     4  11  22  38  58  85 119 153 192 235 283 340
#     4  10  22  37  56  84 116 154 190 233 292 339
#
# _framework density 19.657026999999999
#
# number of rings (size 3 to 8) (size 9 to 14) (size 15 to 20)
#    0.000    2.000    0.000    3.429    0.000   11.429 
#    0.000    0.000    0.000    7.714    0.000    0.000 
#    0.000    0.000    0.000    0.000    0.000    0.000 
#
# Total GULP energy -156472.549668 kJ/mol
# GULP energy per Si atom -5588.305345 kJ/mol
# Density = 1.961229 g / cm^3
# Si number density = 19.657027 Si / 1000 Ang^3
#
#
#
# Elastic Constant Matrix: (Units=GPa)
#
#
# Indices 1 2 3 4 5 6 
#
# 1 77.1383 9.1412 37.1913 0.0000 -2.8037 0.0000
# 2 9.1412 75.8202 27.7552 0.0000 -3.0447 0.0000
# 3 37.1913 27.7552 109.4987 0.0000 8.4779 0.0000
# 4 0.0000 0.0000 0.0000 12.1855 0.0000 2.8948
# 5 -2.8037 -3.0447 8.4779 0.0000 20.7866 0.0000
# 6 0.0000 0.0000 0.0000 2.8948 0.0000 30.5206
#
#
#
# Elastic Compliance Matrix: (Units=1/GPa)
#
#
# Indices 1 2 3 4 5 6 
#
# 1 0.015909 0.000413 -0.005864 0.000000 0.004598 0.000000
# 2 0.000413 0.014838 -0.004207 0.000000 0.003945 0.000000
# 3 -0.005864 -0.004207 0.012701 0.000000 -0.006587 0.000000
# 4 0.000000 0.000000 0.000000 0.083956 0.000000 -0.007963
# 5 0.004598 0.003945 -0.006587 0.000000 0.051993 0.000000
# 6 0.000000 0.000000 0.000000 -0.007963 0.000000 0.033520
#
#
# Mechanical properties :
#
#
# Convention : Reuss Voigt Hill
#
# Bulk Modulus (GPa) = 41.43885 45.62583 43.53234
# Shear Modulus (GPa) = 20.80940 25.25652 23.03296
#
# Velocity S-wave (km/s) = 3.25718 3.58838 3.42678
# Velocity P-wave (km/s) = 5.93905 6.35846 6.15233
#
# Compressibility (1/GPa) = 0.02413194
#
# Stress axis : x y z
#
# Youngs Moduli (GPa) = 62.85628 67.39618 78.73583
#
# Poissons Ratio (x) = -0.02786 0.46174
# Poissons Ratio (y) = -0.02598 0.33122
# Poissons Ratio (z) = 0.36861 0.28352
#
# Static dielectric constant tensor:
#      x y z
#    x 1.700120 0.000000 -0.002190 
#    y 0.000000 1.685980 0.000000 
#    z -0.002190 0.000000 1.665370 
# 
# From -- ./inp_files/180769.got.cif
#   From: 2010.05.17/outbox.cif.g08.bks.cpg/sg15_91_cif.got.tgz:180769.got - 2010.06.03 18:47:42.
