data_PCOD9282967
_publ_section_title
;
Structure prediction by ZEFSAII (Michael W. Deem and Ramdas Pophale) SiO2 
 PCOD9282967
Probable space group: C 2/C
;
_chemical_formula_sum "Si O2"
_cell_formula_units_Z 44
_cell_length_a 25.145647
_cell_length_b 6.649502
_cell_length_c 14.919168
_cell_angle_alpha 90.000000
_cell_angle_beta 58.165302
_cell_angle_gamma 90.000000
_cell_volume 2119.324478
_symmetry_space_group_name_H-M "C 2/C"
_symmetry_group_IT_number 15
_symmetry_cell_setting 'monoclinic'
loop_
_space_group_symop_operation_xyz
x,y,z
-x,y,1/2-z
-x,-y,-z
x,-y,1/2+z
1/2+x,1/2+y,z
1/2-x,1/2+y,1/2-z
1/2-x,1/2-y,-z
1/2+x,1/2-y,1/2+z
loop_
_atom_site_type_symbol
_atom_site_label
_atom_site_fract_x
_atom_site_fract_y
_atom_site_fract_z
Si Si1 0.000000 0.206032 0.250000
Si Si2 0.135517 0.775218 0.612922
Si Si3 0.225541 0.107128 0.600280
Si Si4 0.987459 0.446544 0.907614
Si Si5 0.855682 0.502027 0.059256
Si Si6 0.880823 0.609308 0.241361
O O1 0.069158 0.110457 0.188529
O O2 0.005593 0.352782 0.158482
O O3 0.141526 0.703153 0.504640
O O4 0.130647 0.571274 0.677351
O O5 0.195097 0.903931 0.589041
O O6 0.250000 0.250000 0.500000
O O7 0.168647 0.218142 0.698348
O O8 0.286293 0.078394 0.607270
O O9 0.046578 0.319705 0.820810
O O10 0.915448 0.375303 0.967417
O O11 0.000000 0.500000 0.000000
O O12 0.868566 0.530718 0.152011
#
# Coordination Sequence:
#
# PCOD9282967 Si02
#       6
#     4   8   8   8   8   8
#     4   8  16  34  62  80 108 160 188 234 308 332
#     4  10  21  42  59  85 127 150 196 257 286 351
#     4  12  25  38  57  92 120 158 200 240 304 361
#     4   8  16  35  61  84 110 153 199 240 289 349
#     4  10  21  39  66  84 122 163 193 249 306 347
#     4  10  22  40  64  88 117 160 205 241 297 360
#
# _framework density 20.761333
#
# number of rings (size 3 to 8) (size 9 to 14) (size 15 to 20)
#    0.000    2.182    1.818    0.545    2.545    0.000 
#    3.273    0.000    0.000    6.545    0.000    0.000 
#    0.000    0.000    0.000    0.000    0.000    0.000 
#
# Total GULP energy -122558.741893 kJ/mol
# GULP energy per Si atom -5570.851904 kJ/mol
# Density = 2.071408 g / cm^3
# Si number density = 20.761333 Si / 1000 Ang^3
#
#
#
# Elastic Constant Matrix: (Units=GPa)
#
#
# Indices 1 2 3 4 5 6 
#
# 1 113.1039 13.1183 29.2219 0.0001 -32.8107 0.0000
# 2 13.1183 21.4829 19.2628 0.0002 -10.3855 -0.0002
# 3 29.2219 19.2628 87.8472 0.0000 -16.5748 -0.0001
# 4 0.0001 0.0002 0.0000 23.7005 0.0000 -6.9166
# 5 -32.8107 -10.3855 -16.5748 0.0000 68.3345 0.0001
# 6 0.0000 -0.0002 -0.0001 -6.9166 0.0001 7.8522
#
#
#
# Elastic Compliance Matrix: (Units=1/GPa)
#
#
# Indices 1 2 3 4 5 6 
#
# 1 0.010984 -0.002576 -0.002271 0.000000 0.004331 0.000000
# 2 -0.002576 0.060990 -0.011529 0.000000 0.005236 0.000001
# 3 -0.002271 -0.011529 0.014808 0.000000 0.000749 0.000000
# 4 0.000000 0.000000 0.000000 0.056792 0.000000 0.050026
# 5 0.004331 0.005236 0.000749 0.000000 0.017691 0.000000
# 6 0.000000 0.000001 0.000000 0.050026 0.000000 0.171418
#
#
# Mechanical properties :
#
#
# Convention : Reuss Voigt Hill
#
# Bulk Modulus (GPa) = 18.50861 38.40446 28.45653
# Shear Modulus (GPa) = 13.03961 30.69951 21.86956
#
# Velocity S-wave (km/s) = 2.50886 3.84954 3.24910
# Velocity P-wave (km/s) = 4.16254 6.18845 5.27369
#
# Compressibility (1/GPa) = 0.05402892
#
# Stress axis : x y z
#
# Youngs Moduli (GPa) = 91.04503 16.39601 67.52965
#
# Poissons Ratio (x) = 0.04224 0.15339
# Poissons Ratio (y) = 0.23457 0.77854
# Poissons Ratio (z) = 0.20681 0.18903
#
# Static dielectric constant tensor:
#      x y z
#    x 1.809780 0.000000 -0.058550 
#    y 0.000000 1.802880 0.000000 
#    z -0.058550 0.000000 1.762540 
# 
# From -- ./inp_files/171489.got.cif
#   From: 2010.05.17/outbox.cif.g08.bks.cpg/sg15_86_cif.got.tgz:171489.got - 2010.06.03 18:47:42.
