data_PCOD9282804
_publ_section_title
;
Structure prediction by ZEFSAII (Michael W. Deem and Ramdas Pophale) SiO2 
 PCOD9282804
Probable space group: C 2/C
;
_chemical_formula_sum "Si O2"
_cell_formula_units_Z 64
_cell_length_a 14.986577
_cell_length_b 11.868782
_cell_length_c 24.126391
_cell_angle_alpha 90.000000
_cell_angle_beta 36.937727
_cell_angle_gamma 90.000000
_cell_volume 2578.914161
_symmetry_space_group_name_H-M "C 2/C"
_symmetry_group_IT_number 15
_symmetry_cell_setting 'monoclinic'
loop_
_space_group_symop_operation_xyz
x,y,z
-x,y,1/2-z
-x,-y,-z
x,-y,1/2+z
1/2+x,1/2+y,z
1/2-x,1/2+y,1/2-z
1/2-x,1/2-y,-z
1/2+x,1/2-y,1/2+z
loop_
_atom_site_type_symbol
_atom_site_label
_atom_site_fract_x
_atom_site_fract_y
_atom_site_fract_z
Si Si1 0.050541 0.299289 0.162810
Si Si2 0.349789 0.383138 0.613053
Si Si3 0.484179 0.436035 0.119724
Si Si4 0.092383 0.324609 0.830881
Si Si5 0.373599 0.952693 0.861913
Si Si6 0.289669 0.428070 0.933524
Si Si7 0.762361 0.984620 0.824555
Si Si8 0.462816 0.833802 0.093808
O O1 0.145637 0.413223 0.120156
O O2 0.131437 0.192014 0.097012
O O3 0.924994 0.325224 0.178774
O O4 0.000000 0.273063 0.250000
O O5 0.417167 0.501514 0.599466
O O6 0.222324 0.341523 0.720086
O O7 0.269238 0.393976 0.594342
O O8 0.471781 0.286315 0.559705
O O9 0.455643 0.303530 0.135308
O O10 0.648081 0.479380 0.054975
O O11 0.388315 0.491811 0.217160
O O12 0.159254 0.383805 0.852333
O O13 0.952809 0.391647 0.873997
O O14 0.500000 0.948707 0.750000
O O15 0.325468 0.464617 0.853340
O O16 0.116021 0.400688 0.017532
O O17 0.660098 0.094587 0.875955
#
# Coordination Sequence:
#
# PCOD9282804 Si02
#       8
#     8   8   8   8   8   8   8   8
#     4  11  23  42  69  94 126 172 227 274 321 390
#     4  10  22  37  65  94 127 168 218 268 333 373
#     4  11  23  39  66 100 130 165 227 278 315 391
#     4  10  21  39  64  97 126 166 222 282 317 375
#     4   9  20  37  62  93 123 163 215 277 330 370
#     4  12  27  41  65  97 139 176 215 268 344 386
#     4  11  24  42  67  97 129 179 224 271 321 398
#     4  12  24  47  65  93 138 176 214 275 335 398
#
# _framework density 24.816645999999999
#
# number of rings (size 3 to 8) (size 9 to 14) (size 15 to 20)
#    0.000    1.250    3.750    1.875    7.000    1.000 
#    0.000    2.500    0.000    0.000    0.000    0.000 
#    0.000    0.000    0.000    0.000    0.000    0.000 
#
# Total GULP energy -179267.924295 kJ/mol
# GULP energy per Si atom -5602.122634 kJ/mol
# Density = 2.476016 g / cm^3
# Si number density = 24.816646 Si / 1000 Ang^3
#
#
#
# Elastic Constant Matrix: (Units=GPa)
#
#
# Indices 1 2 3 4 5 6 
#
# 1 137.3273 62.6018 11.4035 0.0000 0.0324 0.0000
# 2 62.6018 155.5433 17.2104 0.0000 -2.1655 0.0000
# 3 11.4035 17.2104 48.2893 -0.0001 -4.6890 0.0000
# 4 0.0000 0.0000 -0.0001 24.0932 0.0000 -5.3227
# 5 0.0324 -2.1655 -4.6890 0.0000 37.9753 0.0000
# 6 0.0000 0.0000 0.0000 -5.3227 0.0000 37.2511
#
#
#
# Elastic Compliance Matrix: (Units=1/GPa)
#
#
# Indices 1 2 3 4 5 6 
#
# 1 0.008956 -0.003510 -0.000895 0.000000 -0.000318 0.000000
# 2 -0.003510 0.008069 -0.002026 0.000000 0.000213 0.000000
# 3 -0.000895 -0.002026 0.021893 0.000000 0.002588 0.000000
# 4 0.000000 0.000000 0.000000 0.042858 0.000000 0.006124
# 5 -0.000318 0.000213 0.002588 0.000000 0.026665 0.000000
# 6 0.000000 0.000000 0.000000 0.006124 0.000000 0.027720
#
#
# Mechanical properties :
#
#
# Convention : Reuss Voigt Hill
#
# Bulk Modulus (GPa) = 38.37859 58.17681 48.27770
# Shear Modulus (GPa) = 31.70382 36.52687 34.11535
#
# Velocity S-wave (km/s) = 3.57812 3.84066 3.71171
# Velocity P-wave (km/s) = 5.70693 6.56971 6.15346
#
# Compressibility (1/GPa) = 0.02605619
#
# Stress axis : x y z
#
# Youngs Moduli (GPa) = 111.65237 123.93183 45.67593
#
# Poissons Ratio (x) = 0.43501 0.04088
# Poissons Ratio (y) = 0.39191 0.09255
# Poissons Ratio (z) = 0.09992 0.25111
#
# Static dielectric constant tensor:
#      x y z
#    x 1.958890 0.000000 0.036980 
#    y 0.000000 1.917220 0.000000 
#    z 0.036980 0.000000 2.106610 
# 
# From -- ./inp_files/296120.got.cif
#   From: 2010.05.17/outbox.cif.g08.bks.cpg/sg15_149_cif.got.tgz:296120.got - 2010.06.03 18:47:42.
