data_PCOD9282383
_publ_section_title
;
Structure prediction by ZEFSAII (Michael W. Deem and Ramdas Pophale) SiO2 
 PCOD9282383
Probable space group: C 2/C
;
_chemical_formula_sum "Si O2"
_cell_formula_units_Z 40
_cell_length_a 25.958030
_cell_length_b 10.466796
_cell_length_c 9.893187
_cell_angle_alpha 90.000000
_cell_angle_beta 145.507648
_cell_angle_gamma 90.000000
_cell_volume 1522.177768
_symmetry_space_group_name_H-M "C 2/C"
_symmetry_group_IT_number 15
_symmetry_cell_setting 'monoclinic'
loop_
_space_group_symop_operation_xyz
x,y,z
-x,y,1/2-z
-x,-y,-z
x,-y,1/2+z
1/2+x,1/2+y,z
1/2-x,1/2+y,1/2-z
1/2-x,1/2-y,-z
1/2+x,1/2-y,1/2+z
loop_
_atom_site_type_symbol
_atom_site_label
_atom_site_fract_x
_atom_site_fract_y
_atom_site_fract_z
Si Si1 0.154103 0.769499 0.868124
Si Si2 0.600466 0.440411 0.989029
Si Si3 0.857297 0.733379 0.205601
Si Si4 0.697223 0.005691 0.045028
Si Si5 0.596261 0.816943 0.975432
O O1 0.129690 0.887928 0.905699
O O2 0.087850 0.751109 0.599406
O O3 0.250000 0.750000 0.000000
O O4 0.155610 0.644573 0.966669
O O5 0.500000 0.497661 0.750000
O O6 0.591618 0.318494 0.073709
O O7 0.693941 0.507751 0.243665
O O8 0.882015 0.774971 0.105230
O O9 0.750000 0.750000 0.000000
O O10 0.859230 0.578692 0.188372
O O11 0.676011 0.920360 0.131129
O O12 0.500000 0.884518 0.750000
#
# Coordination Sequence:
#
# PCOD9282383 Si02
#       5
#     8   8   8   8   8
#     4  12  23  41  67  95 131 169 221 265 321 390
#     4  11  22  41  68  98 128 175 217 262 323 396
#     4   8  17  37  57  87 128 172 205 260 323 372
#     4   9  23  39  62  89 135 164 211 263 335 365
#     4  10  21  39  61  94 126 165 212 269 321 375
#
# _framework density 26.278138999999999
#
# number of rings (size 3 to 8) (size 9 to 14) (size 15 to 20)
#    1.200    0.800    2.000    1.200    2.800    1.600 
#    0.000    2.000    0.000    0.000    0.000    0.000 
#    0.000    0.000    0.000    0.000    0.000    0.000 
#
# Total GULP energy -111528.739274 kJ/mol
# GULP energy per Si atom -5576.436964 kJ/mol
# Density = 2.621833 g / cm^3
# Si number density = 26.278139 Si / 1000 Ang^3
#
#
#
# Elastic Constant Matrix: (Units=GPa)
#
#
# Indices 1 2 3 4 5 6 
#
# 1 117.4852 19.4048 31.6814 0.0000 -7.6571 0.0000
# 2 19.4048 52.6863 12.6216 0.0000 5.4358 0.0000
# 3 31.6814 12.6216 115.3104 0.0000 15.9128 0.0000
# 4 0.0000 0.0000 0.0000 24.3007 0.0000 -5.6359
# 5 -7.6571 5.4358 15.9128 0.0000 44.2065 0.0000
# 6 0.0000 0.0000 0.0000 -5.6359 0.0000 37.4350
#
#
#
# Elastic Compliance Matrix: (Units=1/GPa)
#
#
# Indices 1 2 3 4 5 6 
#
# 1 0.010033 -0.003345 -0.002827 0.000000 0.003167 0.000000
# 2 -0.003345 0.020731 -0.000966 0.000000 -0.002781 0.000000
# 3 -0.002827 -0.000966 0.010108 0.000000 -0.004010 0.000000
# 4 0.000000 0.000000 0.000000 0.042640 0.000000 0.006420
# 5 0.003167 -0.002781 -0.004010 0.000000 0.024955 0.000000
# 6 0.000000 0.000000 0.000000 0.006420 0.000000 0.027679
#
#
# Mechanical properties :
#
#
# Convention : Reuss Voigt Hill
#
# Bulk Modulus (GPa) = 37.60167 45.87749 41.73958
# Shear Modulus (GPa) = 31.38969 35.97339 33.68154
#
# Velocity S-wave (km/s) = 3.45993 3.70394 3.58401
# Velocity P-wave (km/s) = 5.50469 5.98236 5.74849
#
# Compressibility (1/GPa) = 0.02659456
#
# Stress axis : x y z
#
# Youngs Moduli (GPa) = 99.67098 48.23802 98.92965
#
# Poissons Ratio (x) = 0.16134 0.27972
# Poissons Ratio (y) = 0.33336 0.09561
# Poissons Ratio (z) = 0.28182 0.04662
#
# Static dielectric constant tensor:
#      x y z
#    x 2.092310 0.000000 -0.051540 
#    y 0.000000 2.238070 0.000000 
#    z -0.051540 0.000000 2.158010 
# 
# From -- ./inp_files/126513.got.cif
#   From: 2010.05.17/outbox.cif.g08.bks.cpg/sg15_64_cif.got.tgz:126513.got - 2010.06.03 18:47:42.
