data_PCOD9282145
_publ_section_title
;
Structure prediction by ZEFSAII (Michael W. Deem and Ramdas Pophale) SiO2 
 PCOD9282145
Probable space group: C 2/C
;
_chemical_formula_sum "Si O2"
_cell_formula_units_Z 56
_cell_length_a 8.163925
_cell_length_b 22.551229
_cell_length_c 15.147523
_cell_angle_alpha 90.000000
_cell_angle_beta 122.190131
_cell_angle_gamma 90.000000
_cell_volume 2360.083966
_symmetry_space_group_name_H-M "C 2/C"
_symmetry_group_IT_number 15
_symmetry_cell_setting 'monoclinic'
loop_
_space_group_symop_operation_xyz
x,y,z
-x,y,1/2-z
-x,-y,-z
x,-y,1/2+z
1/2+x,1/2+y,z
1/2-x,1/2+y,1/2-z
1/2-x,1/2-y,-z
1/2+x,1/2-y,1/2+z
loop_
_atom_site_type_symbol
_atom_site_label
_atom_site_fract_x
_atom_site_fract_y
_atom_site_fract_z
Si Si1 0.227116 0.723890 0.615505
Si Si2 0.273672 0.490560 0.864540
Si Si3 0.611937 0.307340 0.972635
Si Si4 0.453106 0.194731 0.380197
Si Si5 0.058711 0.439454 0.637031
Si Si6 0.222762 0.301833 0.300772
Si Si7 0.801358 0.937174 0.532640
O O1 0.414702 0.756653 0.632593
O O2 0.266303 0.684628 0.711933
O O3 0.095984 0.780538 0.604061
O O4 0.088020 0.689470 0.506772
O O5 0.164427 0.480444 0.740554
O O6 0.494845 0.472824 0.906741
O O7 0.169451 0.447765 0.907410
O O8 0.243101 0.550494 0.913236
O O9 0.637154 0.325341 0.083019
O O10 0.750000 0.250000 0.000000
O O11 0.661247 0.367677 0.938719
O O12 0.412206 0.129944 0.333020
O O13 0.253932 0.231052 0.325681
O O14 0.148292 0.452905 0.566154
O O15 0.000000 0.317727 0.250000
#
# Coordination Sequence:
#
# PCOD9282145 Si02
#       7
#     8   8   8   8   8   8   8
#     4  10  21  39  57  90 134 167 211 267 325 399
#     4  10  25  43  64 101 124 166 234 267 335 398
#     4  11  22  39  60  98 126 169 218 258 334 408
#     4  10  23  37  61  92 127 171 213 268 330 386
#     4  11  23  41  67  99 125 168 226 280 327 398
#     4  11  22  34  57  89 132 166 212 258 316 406
#     4  11  23  45  70  89 137 176 210 293 333 387
#
# _framework density 23.727969000000002
#
# number of rings (size 3 to 8) (size 9 to 14) (size 15 to 20)
#    0.000    1.429    1.429    3.857    6.000    0.000 
#    2.571    1.429    0.000    8.571    0.000    0.000 
#    0.000    0.000    0.000    0.000    0.000    0.000 
#
# Total GULP energy -155946.070359 kJ/mol
# GULP energy per Si atom -5569.502513 kJ/mol
# Density = 2.367396 g / cm^3
# Si number density = 23.727969 Si / 1000 Ang^3
#
#
#
# Elastic Constant Matrix: (Units=GPa)
#
#
# Indices 1 2 3 4 5 6 
#
# 1 132.3245 11.4441 20.1271 0.0000 -18.0435 0.0000
# 2 11.4441 70.3445 -10.1955 0.0000 -7.6782 0.0000
# 3 20.1271 -10.1955 114.3937 0.0000 -15.6320 0.0000
# 4 0.0000 0.0000 0.0000 9.5430 0.0000 1.8716
# 5 -18.0435 -7.6782 -15.6320 0.0000 35.7172 0.0000
# 6 0.0000 0.0000 0.0000 1.8716 0.0000 25.9736
#
#
#
# Elastic Compliance Matrix: (Units=1/GPa)
#
#
# Indices 1 2 3 4 5 6 
#
# 1 0.008293 -0.001127 -0.001085 0.000000 0.003472 0.000000
# 2 -0.001127 0.015082 0.002029 0.000000 0.003561 0.000000
# 3 -0.001085 0.002029 0.009677 0.000000 0.004123 0.000000
# 4 0.000000 0.000000 0.000000 0.106291 0.000000 -0.007659
# 5 0.003472 0.003561 0.004123 0.000000 0.032322 0.000000
# 6 0.000000 0.000000 0.000000 -0.007659 0.000000 0.039052
#
#
# Mechanical properties :
#
#
# Convention : Reuss Voigt Hill
#
# Bulk Modulus (GPa) = 30.59494 39.97932 35.28713
# Shear Modulus (GPa) = 22.52464 33.95923 28.24193
#
# Velocity S-wave (km/s) = 3.08439 3.78721 3.45373
# Velocity P-wave (km/s) = 5.06030 6.00080 5.55051
#
# Compressibility (1/GPa) = 0.03268515
#
# Stress axis : x y z
#
# Youngs Moduli (GPa) = 120.58048 66.30448 103.33822
#
# Poissons Ratio (x) = 0.07476 0.11214
# Poissons Ratio (y) = 0.13595 -0.20969
# Poissons Ratio (z) = 0.13085 -0.13454
#
# Static dielectric constant tensor:
#      x y z
#    x 2.083840 0.000000 -0.064760 
#    y 0.000000 1.901670 0.000000 
#    z -0.064760 0.000000 2.045130 
# 
# From -- ./inp_files/137936.got.cif
#   From: 2010.05.17/outbox.cif.g08.bks.cpg/sg15_69_cif.got.tgz:137936.got - 2010.06.03 18:47:42.
