data_PCOD9282130
_publ_section_title
;
Structure prediction by ZEFSAII (Michael W. Deem and Ramdas Pophale) SiO2 
 PCOD9282130
Probable space group: C 2/C
;
_chemical_formula_sum "Si O2"
_cell_formula_units_Z 60
_cell_length_a 10.491614
_cell_length_b 21.255859
_cell_length_c 15.447257
_cell_angle_alpha 90.000000
_cell_angle_beta 64.155554
_cell_angle_gamma 90.000000
_cell_volume 3100.313555
_symmetry_space_group_name_H-M "C 2/C"
_symmetry_group_IT_number 15
_symmetry_cell_setting 'monoclinic'
loop_
_space_group_symop_operation_xyz
x,y,z
-x,y,1/2-z
-x,-y,-z
x,-y,1/2+z
1/2+x,1/2+y,z
1/2-x,1/2+y,1/2-z
1/2-x,1/2-y,-z
1/2+x,1/2-y,1/2+z
loop_
_atom_site_type_symbol
_atom_site_label
_atom_site_fract_x
_atom_site_fract_y
_atom_site_fract_z
Si Si1 0.036513 0.604263 0.840602
Si Si2 0.361216 0.412784 0.829594
Si Si3 0.500000 0.898307 0.750000
Si Si4 0.259975 0.001281 0.278402
Si Si5 0.362634 0.188577 0.158002
Si Si6 0.219405 0.077301 0.958082
Si Si7 0.880821 0.215547 0.509557
Si Si8 0.091310 0.745843 0.811988
O O1 0.153112 0.549958 0.803946
O O2 0.086910 0.674114 0.850443
O O3 0.000000 0.609156 0.750000
O O4 0.889055 0.581691 0.926162
O O5 0.500000 0.379735 0.750000
O O6 0.337764 0.465221 0.762924
O O7 0.233793 0.362661 0.863255
O O8 0.360285 0.437366 0.928279
O O9 0.633797 0.945171 0.715526
O O10 0.522414 0.851280 0.823671
O O11 0.196928 0.967640 0.382178
O O12 0.424190 0.239482 0.074644
O O13 0.247169 0.227026 0.249210
O O14 0.172483 0.147666 0.945597
O O15 0.750000 0.250000 0.500000
O O16 0.006997 0.211109 0.404269
O O17 0.000000 0.743135 0.750000
#
# Coordination Sequence:
#
# PCOD9282130 Si02
#       8
#     8   8   4   8   8   8   8   8
#     4   9  16  30  55  83 106 145 188 232 279 326
#     4  11  23  36  56  86 113 150 196 238 291 344
#     4  10  22  40  56  78 120 162 192 226 286 352
#     4  10  21  39  57  80 116 154 198 235 280 351
#     4  11  21  36  57  84 120 149 185 243 287 346
#     4  11  19  35  60  85 116 147 189 249 287 329
#     4  12  19  32  58  95 113 138 192 242 299 337
#     4  11  18  31  57  89 115 140 180 241 300 332
#
# _framework density 19.352879999999999
#
# number of rings (size 3 to 8) (size 9 to 14) (size 15 to 20)
#    0.000    1.333    6.000    2.800    0.000    1.067 
#    2.400    0.667    5.867    0.000    0.000    0.000 
#    0.000    0.000    0.000    0.000    0.000    0.000 
#
# Total GULP energy -167293.647877 kJ/mol
# GULP energy per Si atom -5576.454929 kJ/mol
# Density = 1.930883 g / cm^3
# Si number density = 19.352880 Si / 1000 Ang^3
#
#
#
# Elastic Constant Matrix: (Units=GPa)
#
#
# Indices 1 2 3 4 5 6 
#
# 1 20.3191 24.4446 15.1682 0.0000 8.1989 0.0000
# 2 24.4446 102.1450 36.8383 0.0000 19.8411 0.0000
# 3 15.1682 36.8383 127.4168 0.0000 -1.7085 0.0000
# 4 0.0000 0.0000 0.0000 32.8392 0.0000 15.1720
# 5 8.1989 19.8411 -1.7085 0.0000 20.2275 0.0000
# 6 0.0000 0.0000 0.0000 15.1720 0.0000 10.9757
#
#
#
# Elastic Compliance Matrix: (Units=1/GPa)
#
#
# Indices 1 2 3 4 5 6 
#
# 1 0.076197 -0.012447 -0.005729 0.000000 -0.019160 0.000000
# 2 -0.012447 0.016112 -0.003325 0.000000 -0.011040 0.000000
# 3 -0.005729 -0.003325 0.009577 0.000000 0.006392 0.000000
# 4 0.000000 0.000000 0.000000 0.084270 0.000000 -0.116488
# 5 -0.019160 -0.011040 0.006392 0.000000 0.068573 0.000000
# 6 0.000000 0.000000 0.000000 -0.116488 0.000000 0.252134
#
#
# Mechanical properties :
#
#
# Convention : Reuss Voigt Hill
#
# Bulk Modulus (GPa) = 16.98226 44.75368 30.86797
# Shear Modulus (GPa) = 8.77974 24.37048 16.57511
#
# Velocity S-wave (km/s) = 2.13225 3.55247 2.92972
# Velocity P-wave (km/s) = 3.85436 6.32471 5.23727
#
# Compressibility (1/GPa) = 0.05888496
#
# Stress axis : x y z
#
# Youngs Moduli (GPa) = 13.12387 62.06471 104.41491
#
# Poissons Ratio (x) = 0.77252 0.59820
# Poissons Ratio (y) = 0.16335 0.34714
# Poissons Ratio (z) = 0.07519 0.20634
#
# Static dielectric constant tensor:
#      x y z
#    x 1.712800 0.000000 -0.027660 
#    y 0.000000 1.722150 0.000000 
#    z -0.027660 0.000000 1.715110 
# 
# From -- ./inp_files/147091.got.cif
#   From: 2010.05.17/outbox.cif.g08.bks.cpg/sg15_74_cif.got.tgz:147091.got - 2010.06.03 18:47:42.
