data_PCOD9282080
_publ_section_title
;
Structure prediction by ZEFSAII (Michael W. Deem and Ramdas Pophale) SiO2 
 PCOD9282080
Probable space group: C 2/C
;
_chemical_formula_sum "Si O2"
_cell_formula_units_Z 48
_cell_length_a 23.375097
_cell_length_b 5.822982
_cell_length_c 18.038704
_cell_angle_alpha 90.000000
_cell_angle_beta 121.527416
_cell_angle_gamma 90.000000
_cell_volume 2092.871548
_symmetry_space_group_name_H-M "C 2/C"
_symmetry_group_IT_number 15
_symmetry_cell_setting 'monoclinic'
loop_
_space_group_symop_operation_xyz
x,y,z
-x,y,1/2-z
-x,-y,-z
x,-y,1/2+z
1/2+x,1/2+y,z
1/2-x,1/2+y,1/2-z
1/2-x,1/2-y,-z
1/2+x,1/2-y,1/2+z
loop_
_atom_site_type_symbol
_atom_site_label
_atom_site_fract_x
_atom_site_fract_y
_atom_site_fract_z
Si Si1 0.211094 0.718396 0.778119
Si Si2 0.558612 0.792529 0.344160
Si Si3 0.856127 0.897317 0.319414
Si Si4 0.468563 0.248380 0.501413
Si Si5 0.795438 0.071389 0.076587
Si Si6 0.139084 0.670083 0.325890
O O1 0.151626 0.825952 0.687962
O O2 0.278226 0.667900 0.779689
O O3 0.228540 0.897768 0.855138
O O4 0.181613 0.512738 0.806782
O O5 0.500000 0.712041 0.250000
O O6 0.536953 0.767401 0.413910
O O7 0.628303 0.658715 0.381834
O O8 0.580499 0.047442 0.331692
O O9 0.897449 0.776499 0.411514
O O10 0.885673 0.828109 0.259247
O O11 0.500000 0.500000 0.500000
O O12 0.500000 0.000000 0.500000
O O13 0.810491 0.799062 0.083774
O O14 0.750000 0.250000 0.000000
#
# Coordination Sequence:
#
# PCOD9282080 Si02
#       6
#     8   8   8   8   8   8
#     4  10  21  38  70 109 137 195 240 309 379 462
#     4  11  26  47  73 104 148 203 262 317 399 468
#     4  11  22  43  73 107 152 191 256 314 393 463
#     4  12  31  50  75 110 152 200 262 324 390 470
#     4  10  23  43  68 108 146 195 250 316 388 468
#     4  10  23  42  73 103 149 197 252 313 390 473
#
# _framework density 22.934996000000002
#
# number of rings (size 3 to 8) (size 9 to 14) (size 15 to 20)
#    0.000    1.333    1.667    2.000   11.667    3.333 
#    3.000    0.000    0.000    0.000    0.000    0.000 
#    0.000    0.000    0.000    0.000    0.000    0.000 
#
# Total GULP energy -133703.529395 kJ/mol
# GULP energy per Si atom -5570.980391 kJ/mol
# Density = 2.288279 g / cm^3
# Si number density = 22.934996 Si / 1000 Ang^3
#
#
#
# Elastic Constant Matrix: (Units=GPa)
#
#
# Indices 1 2 3 4 5 6 
#
# 1 129.8711 64.5065 74.8383 0.0000 -22.6836 0.0000
# 2 64.5065 119.5435 51.7842 0.0003 4.7020 0.0008
# 3 74.8383 51.7842 164.6362 0.0001 -5.7517 0.0000
# 4 0.0000 0.0003 0.0001 37.2219 0.0000 -7.9896
# 5 -22.6836 4.7020 -5.7517 0.0000 45.6390 0.0000
# 6 0.0000 0.0008 0.0000 -7.9896 0.0000 40.6206
#
#
#
# Elastic Compliance Matrix: (Units=1/GPa)
#
#
# Indices 1 2 3 4 5 6 
#
# 1 0.014662 -0.006282 -0.004431 0.000000 0.007376 0.000000
# 2 -0.006282 0.012465 -0.001224 0.000000 -0.004561 0.000000
# 3 -0.004431 -0.001224 0.008438 0.000000 -0.001013 0.000000
# 4 0.000000 0.000000 0.000000 0.028050 0.000000 0.005517
# 5 0.007376 -0.004561 -0.001013 0.000000 0.025920 0.000000
# 6 0.000000 0.000000 0.000000 0.005517 0.000000 0.025703
#
#
# Mechanical properties :
#
#
# Convention : Reuss Voigt Hill
#
# Bulk Modulus (GPa) = 85.54803 88.47876 87.01339
# Shear Modulus (GPa) = 34.96250 39.55776 37.26013
#
# Velocity S-wave (km/s) = 3.90861 4.15755 4.03500
# Velocity P-wave (km/s) = 7.59940 7.85549 7.72851
#
# Compressibility (1/GPa) = 0.01168934
#
# Stress axis : x y z
#
# Youngs Moduli (GPa) = 68.20217 80.22505 118.51194
#
# Poissons Ratio (x) = 0.50401 0.52515
# Poissons Ratio (y) = 0.42848 0.14508
# Poissons Ratio (z) = 0.30222 0.09821
#
# Static dielectric constant tensor:
#      x y z
#    x 1.868640 0.000000 0.151530 
#    y 0.000000 2.227580 0.000000 
#    z 0.151530 0.000000 2.119800 
# 
# From -- ./inp_files/254118.got.cif
#   From: 2010.05.17/outbox.cif.g08.bks.cpg/sg15_128_cif.got.tgz:254118.got - 2010.06.03 18:47:42.
