data_PCOD9282116
_publ_section_title
;
Structure prediction by ZEFSAII (Michael W. Deem and Ramdas Pophale) SiO2 
 PCOD9282116
Probable space group: C 2/C
;
_chemical_formula_sum "Si O2"
_cell_formula_units_Z 48
_cell_length_a 15.267240
_cell_length_b 28.812349
_cell_length_c 5.453312
_cell_angle_alpha 90.000000
_cell_angle_beta 117.626692
_cell_angle_gamma 90.000000
_cell_volume 2125.334115
_symmetry_space_group_name_H-M "C 2/C"
_symmetry_group_IT_number 15
_symmetry_cell_setting 'monoclinic'
loop_
_space_group_symop_operation_xyz
x,y,z
-x,y,1/2-z
-x,-y,-z
x,-y,1/2+z
1/2+x,1/2+y,z
1/2-x,1/2+y,1/2-z
1/2-x,1/2-y,-z
1/2+x,1/2-y,1/2+z
loop_
_atom_site_type_symbol
_atom_site_label
_atom_site_fract_x
_atom_site_fract_y
_atom_site_fract_z
Si Si1 0.199265 0.781942 0.638734
Si Si2 0.674586 0.381865 0.646805
Si Si3 0.109030 0.302514 0.279080
Si Si4 0.461105 0.947071 0.448962
Si Si5 0.289678 0.889946 0.299486
Si Si6 0.389814 0.481254 0.896089
O O1 0.250000 0.750000 0.500000
O O2 0.142686 0.830339 0.523186
O O3 0.122772 0.747088 0.666656
O O4 0.297471 0.799227 0.912804
O O5 0.753918 0.392411 0.532822
O O6 0.604994 0.426464 0.551147
O O7 0.710576 0.381850 0.978363
O O8 0.136352 0.345993 0.140433
O O9 0.000000 0.307291 0.250000
O O10 0.500000 0.925031 0.250000
O O11 0.345925 0.937393 0.306824
O O12 0.500000 0.000000 0.500000
O O13 0.500000 0.925394 0.750000
O O14 0.342039 0.494870 0.572883
O O15 0.500000 0.500000 0.000000
#
# Coordination Sequence:
#
# PCOD9282116 Si02
#       6
#     8   8   8   8   8   8
#     4  10  21  43  65  99 142 171 232 285 345 429
#     4  11  23  42  69  97 129 180 217 279 346 400
#     4  10  22  40  66  98 138 181 224 284 349 419
#     4  10  21  39  55  83 125 165 210 269 315 377
#     4  11  22  40  65  95 133 174 223 268 340 414
#     4  10  22  45  67  94 130 172 226 284 335 404
#
# _framework density 22.584682999999998
#
# number of rings (size 3 to 8) (size 9 to 14) (size 15 to 20)
#    0.000    1.667    1.667    2.500    0.000    2.000 
#   21.000    1.667    0.000    0.000    0.000    0.000 
#    0.000    0.000    0.000    0.000    0.000    0.000 
#
# Total GULP energy -133653.348806 kJ/mol
# GULP energy per Si atom -5568.889534 kJ/mol
# Density = 2.253328 g / cm^3
# Si number density = 22.584683 Si / 1000 Ang^3
#
#
#
# Elastic Constant Matrix: (Units=GPa)
#
#
# Indices 1 2 3 4 5 6 
#
# 1 70.5687 45.8546 13.3773 0.0000 -8.2016 0.0000
# 2 45.8546 179.3789 14.0134 0.0000 8.7198 0.0000
# 3 13.3773 14.0134 64.3023 0.0000 -30.3401 0.0000
# 4 0.0000 0.0000 0.0000 7.8612 0.0000 13.4579
# 5 -8.2016 8.7198 -30.3401 0.0000 37.7259 0.0000
# 6 0.0000 0.0000 0.0000 13.4579 0.0000 18.1366
#
#
#
# Elastic Compliance Matrix: (Units=1/GPa)
#
#
# Indices 1 2 3 4 5 6 
#
# 1 0.017890 -0.004753 -0.000536 0.000000 0.004557 0.000000
# 2 -0.004753 0.007277 -0.003027 0.000000 -0.005149 0.000000
# 3 -0.000536 -0.003027 0.026747 0.000000 0.022094 0.000000
# 4 0.000000 0.000000 0.000000 -0.470586 0.000000 0.349189
# 5 0.004557 -0.005149 0.022094 0.000000 0.046456 0.000000
# 6 0.000000 0.000000 0.000000 0.349189 0.000000 -0.203971
#
#
# Mechanical properties :
#
#
# Convention : Reuss Voigt Hill
#
# Bulk Modulus (GPa) = 28.34208 51.19340 39.76774
# Shear Modulus (GPa) = -9.12750 28.81170 9.84210
#
# Velocity S-wave (km/s) = -2.01252 3.57560 2.08981
# Velocity P-wave (km/s) = 2.67884 6.30579 4.84454
#
# Compressibility (1/GPa) = 0.03528323
#
# Stress axis : x y z
#
# Youngs Moduli (GPa) = 55.89663 137.42825 37.38691
#
# Poissons Ratio (x) = 0.65318 0.02004
# Poissons Ratio (y) = 0.26567 0.11315
# Poissons Ratio (z) = 0.02996 0.41594
#
# Static dielectric constant tensor:
#      x y z
#    x 1.835630 0.000000 -0.046010 
#    y 0.000000 1.904370 0.000000 
#    z -0.046010 0.000000 2.137050 
# 
# From -- ./inp_files/8939.got.cif
#   From: 2010.05.17/outbox.cif.g08.bks.cpg/sg15_5_cif.got.tgz:8939.got - 2010.06.03 18:47:42.
