data_PCOD9282189
_publ_section_title
;
Structure prediction by ZEFSAII (Michael W. Deem and Ramdas Pophale) SiO2 
 PCOD9282189
Probable space group: C 2/C
;
_chemical_formula_sum "Si O2"
_cell_formula_units_Z 32
_cell_length_a 9.656367
_cell_length_b 14.064764
_cell_length_c 13.445768
_cell_angle_alpha 90.000000
_cell_angle_beta 48.675261
_cell_angle_gamma 90.000000
_cell_volume 1371.385871
_symmetry_space_group_name_H-M "C 2/C"
_symmetry_group_IT_number 15
_symmetry_cell_setting 'monoclinic'
loop_
_space_group_symop_operation_xyz
x,y,z
-x,y,1/2-z
-x,-y,-z
x,-y,1/2+z
1/2+x,1/2+y,z
1/2-x,1/2+y,1/2-z
1/2-x,1/2-y,-z
1/2+x,1/2-y,1/2+z
loop_
_atom_site_type_symbol
_atom_site_label
_atom_site_fract_x
_atom_site_fract_y
_atom_site_fract_z
Si Si1 0.062848 0.220024 0.532667
Si Si2 0.851004 0.743454 0.737481
Si Si3 0.306727 0.970500 0.332420
Si Si4 0.030888 0.001770 0.620041
O O1 0.250000 0.250000 0.500000
O O2 0.086723 0.234279 0.403441
O O3 0.043018 0.111797 0.580758
O O4 0.865446 0.270163 0.648959
O O5 0.847305 0.628707 0.757763
O O6 0.000000 0.779205 0.750000
O O7 0.500000 0.022326 0.250000
O O8 0.158954 0.029868 0.340843
O O9 0.207055 0.952652 0.485737
O O10 0.000000 0.995061 0.750000
#
# Coordination Sequence:
#
# PCOD9282189 Si02
#       4
#     8   8   8   8
#     4  11  21  37  61  88 119 153 193 242 292 345
#     4  10  21  39  59  84 119 156 196 238 287 347
#     4   9  20  39  59  84 115 151 193 233 284 342
#     4  10  21  39  60  86 117 148 191 240 287 342
#
# _framework density 23.334061999999999
#
# number of rings (size 3 to 8) (size 9 to 14) (size 15 to 20)
#    0.000    2.000    0.000    4.500    0.000    3.000 
#    0.000   26.250    0.000    0.000    0.000    0.000 
#    0.000    0.000    0.000    0.000    0.000    0.000 
#
# Total GULP energy -89327.391285 kJ/mol
# GULP energy per Si atom -5582.961955 kJ/mol
# Density = 2.328095 g / cm^3
# Si number density = 23.334062 Si / 1000 Ang^3
#
#
#
# Elastic Constant Matrix: (Units=GPa)
#
#
# Indices 1 2 3 4 5 6 
#
# 1 182.4439 -4.0770 84.1877 -0.0001 -23.0407 0.0001
# 2 -4.0770 70.5673 21.0868 -0.0001 0.0085 0.0001
# 3 84.1877 21.0868 202.5671 -0.0004 9.0989 0.0002
# 4 -0.0001 -0.0001 -0.0004 45.9767 0.0002 19.2010
# 5 -23.0407 0.0085 9.0989 0.0002 63.1259 -0.0002
# 6 0.0001 0.0001 0.0002 19.2010 -0.0002 35.9051
#
#
#
# Elastic Compliance Matrix: (Units=1/GPa)
#
#
# Indices 1 2 3 4 5 6 
#
# 1 0.007495 0.001452 -0.003411 0.000000 0.003227 0.000000
# 2 0.001452 0.014910 -0.002193 0.000000 0.000844 0.000000
# 3 -0.003411 -0.002193 0.006682 0.000000 -0.002208 0.000000
# 4 0.000000 0.000000 0.000000 0.028004 0.000000 -0.014976
# 5 0.003227 0.000844 -0.002208 0.000000 0.017337 0.000000
# 6 0.000000 0.000000 0.000000 -0.014976 0.000000 0.035860
#
#
# Mechanical properties :
#
#
# Convention : Reuss Voigt Hill
#
# Bulk Modulus (GPa) = 48.11898 73.10815 60.61357
# Shear Modulus (GPa) = 39.83386 52.62693 46.23039
#
# Velocity S-wave (km/s) = 4.13620 4.75423 4.45594
# Velocity P-wave (km/s) = 6.59374 7.84449 7.24615
#
# Compressibility (1/GPa) = 0.02078182
#
# Stress axis : x y z
#
# Youngs Moduli (GPa) = 133.41886 67.06864 149.65969
#
# Poissons Ratio (x) = -0.09738 0.51051
# Poissons Ratio (y) = -0.19372 0.32827
# Poissons Ratio (z) = 0.45511 0.14711
#
# Static dielectric constant tensor:
#      x y z
#    x 1.992110 0.000000 -0.063670 
#    y 0.000000 1.927950 0.000000 
#    z -0.063670 0.000000 1.905560 
# 
# From -- ./inp_files/22139.got.cif
#   From: 2010.05.17/outbox.cif.g08.bks.cpg/sg15_12_cif.got.tgz:22139.got - 2010.06.03 18:47:42.
