data_PCOD9282153
_publ_section_title
;
Structure prediction by ZEFSAII (Michael W. Deem and Ramdas Pophale) SiO2 
 PCOD9282153
Probable space group: C 2/C
;
_chemical_formula_sum "Si O2"
_cell_formula_units_Z 48
_cell_length_a 9.180118
_cell_length_b 13.854974
_cell_length_c 30.704679
_cell_angle_alpha 90.000000
_cell_angle_beta 140.626026
_cell_angle_gamma 90.000000
_cell_volume 2477.465643
_symmetry_space_group_name_H-M "C 2/C"
_symmetry_group_IT_number 15
_symmetry_cell_setting 'monoclinic'
loop_
_space_group_symop_operation_xyz
x,y,z
-x,y,1/2-z
-x,-y,-z
x,-y,1/2+z
1/2+x,1/2+y,z
1/2-x,1/2+y,1/2-z
1/2-x,1/2-y,-z
1/2+x,1/2-y,1/2+z
loop_
_atom_site_type_symbol
_atom_site_label
_atom_site_fract_x
_atom_site_fract_y
_atom_site_fract_z
Si Si1 0.500000 0.348213 0.250000
Si Si2 0.504097 0.081211 0.654066
Si Si3 0.495678 0.711725 0.845731
Si Si4 0.176198 0.780982 0.031130
Si Si5 0.264696 0.103421 0.058331
Si Si6 0.129360 0.401283 0.017642
Si Si7 0.000000 0.367422 0.250000
O O1 0.483591 0.286668 0.201781
O O2 0.729546 0.411747 0.297597
O O3 0.383667 0.178660 0.608065
O O4 0.481242 0.074665 0.700718
O O5 0.373229 0.992407 0.602660
O O6 0.583282 0.807310 0.889538
O O7 0.664498 0.626569 0.901868
O O8 0.233836 0.692407 0.798257
O O9 0.250000 0.750000 0.000000
O O10 0.990125 0.867275 0.985652
O O11 0.048390 0.688341 0.021709
O O12 0.269615 0.095635 0.007420
O O13 0.000000 0.500000 0.000000
#
# Coordination Sequence:
#
# PCOD9282153 Si02
#       7
#     4   8   8   8   8   8   4
#     4  10  22  40  58  78 122 162 194 238 284 362
#     4  11  22  39  59  87 118 155 197 237 293 348
#     4  10  21  39  58  84 115 153 194 236 295 350
#     4  11  22  38  62  91 119 149 192 252 303 346
#     4  11  22  38  62  87 118 152 196 248 294 351
#     4  11  22  39  63  88 117 153 196 248 300 351
#     4  10  22  38  58  78 118 158 190 236 278 350
#
# _framework density 19.374638000000001
#
# number of rings (size 3 to 8) (size 9 to 14) (size 15 to 20)
#    0.000    1.333    0.000    8.500    0.000    2.667 
#    0.000    6.667    0.000    0.000    0.000    0.000 
#    0.000    0.000    0.000    0.000    0.000    0.000 
#
# Total GULP energy -134113.925816 kJ/mol
# GULP energy per Si atom -5588.080242 kJ/mol
# Density = 1.933054 g / cm^3
# Si number density = 19.374638 Si / 1000 Ang^3
#
#
#
# Elastic Constant Matrix: (Units=GPa)
#
#
# Indices 1 2 3 4 5 6 
#
# 1 136.6422 15.1029 52.9706 0.0000 -9.3968 0.0000
# 2 15.1029 60.3742 36.3171 0.0000 6.7599 0.0000
# 3 52.9706 36.3171 117.2157 0.0000 -1.0226 0.0000
# 4 0.0000 0.0000 0.0000 24.6763 0.0000 -9.0202
# 5 -9.3968 6.7599 -1.0226 0.0000 44.9586 0.0000
# 6 0.0000 0.0000 0.0000 -9.0202 0.0000 15.3563
#
#
#
# Elastic Compliance Matrix: (Units=1/GPa)
#
#
# Indices 1 2 3 4 5 6 
#
# 1 0.009015 -0.000018 -0.004053 0.000000 0.001795 0.000000
# 2 -0.000018 0.020830 -0.006474 0.000000 -0.003283 0.000000
# 3 -0.004053 -0.006474 0.012372 0.000000 0.000408 0.000000
# 4 0.000000 0.000000 0.000000 0.051605 0.000000 0.030313
# 5 0.001795 -0.003283 0.000408 0.000000 0.023121 0.000000
# 6 0.000000 0.000000 0.000000 0.030313 0.000000 0.082926
#
#
# Mechanical properties :
#
#
# Convention : Reuss Voigt Hill
#
# Bulk Modulus (GPa) = 47.33303 58.11259 52.72281
# Shear Modulus (GPa) = 21.92974 30.98766 26.45870
#
# Velocity S-wave (km/s) = 3.36799 4.00358 3.69946
# Velocity P-wave (km/s) = 6.29348 7.17153 6.74680
#
# Compressibility (1/GPa) = 0.02112689
#
# Stress axis : x y z
#
# Youngs Moduli (GPa) = 110.92821 48.00780 80.82702
#
# Poissons Ratio (x) = 0.00088 0.32755
# Poissons Ratio (y) = 0.00203 0.52328
# Poissons Ratio (z) = 0.44954 0.31081
#
# Static dielectric constant tensor:
#      x y z
#    x 1.680560 0.000000 0.003250 
#    y 0.000000 1.669100 0.000000 
#    z 0.003250 0.000000 1.685660 
# 
# From -- ./inp_files/231101.got.cif
#   From: 2010.05.17/outbox.cif.g08.bks.cpg/sg15_116_cif.got.tgz:231101.got - 2010.06.03 18:47:42.
