data_PCOD9282785
_publ_section_title
;
Structure prediction by ZEFSAII (Michael W. Deem and Ramdas Pophale) SiO2 
 PCOD9282785
Probable space group: C 2/C
;
_chemical_formula_sum "Si O2"
_cell_formula_units_Z 56
_cell_length_a 12.796776
_cell_length_b 24.682775
_cell_length_c 12.219041
_cell_angle_alpha 90.000000
_cell_angle_beta 47.248847
_cell_angle_gamma 90.000000
_cell_volume 2834.069109
_symmetry_space_group_name_H-M "C 2/C"
_symmetry_group_IT_number 15
_symmetry_cell_setting 'monoclinic'
loop_
_space_group_symop_operation_xyz
x,y,z
-x,y,1/2-z
-x,-y,-z
x,-y,1/2+z
1/2+x,1/2+y,z
1/2-x,1/2+y,1/2-z
1/2-x,1/2-y,-z
1/2+x,1/2-y,1/2+z
loop_
_atom_site_type_symbol
_atom_site_label
_atom_site_fract_x
_atom_site_fract_y
_atom_site_fract_z
Si Si1 0.718027 0.914314 0.222709
Si Si2 0.463231 0.946400 0.957363
Si Si3 0.287713 0.036882 0.362269
Si Si4 0.018801 0.259345 0.076189
Si Si5 0.524826 0.605466 0.605258
Si Si6 0.094389 0.768973 0.076198
Si Si7 0.710211 0.809907 0.098988
O O1 0.611834 0.908301 0.401292
O O2 0.683657 0.870223 0.156899
O O3 0.874143 0.899780 0.154403
O O4 0.713896 0.975017 0.178137
O O5 0.607503 0.930147 0.793354
O O6 0.354877 0.960042 0.935884
O O7 0.500000 0.000000 0.000000
O O8 0.135054 0.063941 0.474508
O O9 0.135631 0.302598 0.034791
O O10 0.881764 0.270717 0.252355
O O11 0.122709 0.206458 0.017751
O O12 0.964852 0.259846 0.990676
O O13 0.500000 0.591769 0.750000
O O14 0.585401 0.666561 0.558764
O O15 0.000000 0.758470 0.250000
O O16 0.250000 0.750000 0.000000
#
# Coordination Sequence:
#
# PCOD9282785 Si02
#       7
#     8   8   8   8   8   8   8
#     4  11  21  41  67  91 127 169 219 257 328 390
#     4   9  20  37  60  89 129 161 212 262 305 379
#     4  10  21  39  64  95 129 166 210 267 318 383
#     4  10  21  41  64  90 128 158 222 259 320 381
#     4  11  22  40  65  91 128 175 211 263 331 382
#     4  11  24  42  66  98 129 169 220 272 326 391
#     4  10  22  40  68  90 123 179 206 270 323 377
#
# _framework density 19.759575000000002
#
# number of rings (size 3 to 8) (size 9 to 14) (size 15 to 20)
#    0.000    1.714    2.857    1.286    2.000    4.571 
#    7.714    0.000   15.714    0.000    0.000    0.000 
#    0.000    0.000    0.000    0.000    0.000    0.000 
#
# Total GULP energy -156162.394167 kJ/mol
# GULP energy per Si atom -5577.228363 kJ/mol
# Density = 1.971460 g / cm^3
# Si number density = 19.759575 Si / 1000 Ang^3
#
#
#
# Elastic Constant Matrix: (Units=GPa)
#
#
# Indices 1 2 3 4 5 6 
#
# 1 98.5687 32.5334 27.2635 0.0000 10.2879 0.0000
# 2 32.5334 73.5930 62.5811 0.0000 -1.1085 0.0000
# 3 27.2635 62.5811 86.9523 0.0000 -3.7328 0.0000
# 4 0.0000 0.0000 0.0000 5.8337 0.0000 35.9638
# 5 10.2879 -1.1085 -3.7328 0.0000 36.2960 0.0000
# 6 0.0000 0.0000 0.0000 35.9638 0.0000 -17.7159
#
#
#
# Elastic Compliance Matrix: (Units=1/GPa)
#
#
# Indices 1 2 3 4 5 6 
#
# 1 0.012349 -0.005381 -0.000157 0.000000 -0.003681 0.000000
# 2 -0.005381 0.037453 -0.025265 0.000000 0.000071 0.000000
# 3 -0.000157 -0.025265 0.029834 0.000000 0.002341 0.000000
# 4 0.000000 0.000000 0.000000 0.012684 0.000000 0.025748
# 5 -0.003681 0.000071 0.002341 0.000000 0.028837 0.000000
# 6 0.000000 0.000000 0.000000 0.025748 0.000000 -0.004177
#
#
# Mechanical properties :
#
#
# Convention : Reuss Voigt Hill
#
# Bulk Modulus (GPa) = 55.46561 55.98556 55.72558
# Shear Modulus (GPa) = 27.08609 13.99850 20.54230
#
# Velocity S-wave (km/s) = 3.70643 2.66454 3.22780
# Velocity P-wave (km/s) = 6.81527 6.15315 6.49266
#
# Compressibility (1/GPa) = 0.01802919
#
# Stress axis : x y z
#
# Youngs Moduli (GPa) = 80.97922 26.70032 33.51859
#
# Poissons Ratio (x) = 0.14367 0.00527
# Poissons Ratio (y) = 0.43573 0.84685
# Poissons Ratio (z) = 0.01274 0.67459
#
# Static dielectric constant tensor:
#      x y z
#    x 1.646880 0.000000 0.011900 
#    y 0.000000 1.705000 0.000000 
#    z 0.011900 0.000000 1.695060 
# 
# From -- ./inp_files/92001.got.cif
#   From: 2010.05.17/outbox.cif.g08.bks.cpg/sg15_47_cif.got.tgz:92001.got - 2010.06.03 18:47:42.
