data_PCOD9282553
_publ_section_title
;
Structure prediction by ZEFSAII (Michael W. Deem and Ramdas Pophale) SiO2 
 PCOD9282553
Probable space group: C 2/C
;
_chemical_formula_sum "Si O2"
_cell_formula_units_Z 48
_cell_length_a 15.864401
_cell_length_b 25.759081
_cell_length_c 5.132721
_cell_angle_alpha 90.000000
_cell_angle_beta 87.009643
_cell_angle_gamma 90.000000
_cell_volume 2094.642602
_symmetry_space_group_name_H-M "C 2/C"
_symmetry_group_IT_number 15
_symmetry_cell_setting 'monoclinic'
loop_
_space_group_symop_operation_xyz
x,y,z
-x,y,1/2-z
-x,-y,-z
x,-y,1/2+z
1/2+x,1/2+y,z
1/2-x,1/2+y,1/2-z
1/2-x,1/2-y,-z
1/2+x,1/2-y,1/2+z
loop_
_atom_site_type_symbol
_atom_site_label
_atom_site_fract_x
_atom_site_fract_y
_atom_site_fract_z
Si Si1 0.236030 0.692921 0.742312
Si Si2 0.500000 0.372040 0.750000
Si Si3 0.100968 0.964844 0.558376
Si Si4 0.113676 0.219061 0.432631
Si Si5 0.664829 0.141514 0.269934
Si Si6 0.301358 0.032045 0.036640
Si Si7 0.500000 0.793004 0.750000
O O1 0.176984 0.744386 0.756276
O O2 0.229443 0.665347 0.468670
O O3 0.329221 0.707415 0.821843
O O4 0.198570 0.654956 0.975661
O O5 0.547789 0.412066 0.549376
O O6 0.426662 0.334288 0.657548
O O7 0.201412 0.954617 0.551880
O O8 0.084590 0.004678 0.329059
O O9 0.036004 0.255556 0.523373
O O10 0.653962 0.082137 0.351307
O O11 0.577402 0.171511 0.322702
O O12 0.319200 0.985788 0.239561
#
# Coordination Sequence:
#
# PCOD9282553 Si02
#       7
#     8   4   8   8   8   8   4
#     4  10  23  42  64  88 128 169 211 244 297 376
#     4  12  22  36  61  92 125 160 204 252 306 360
#     4  10  23  41  59  85 122 161 199 249 305 359
#     4  10  23  39  61  95 126 166 209 256 299 362
#     4  11  22  42  66  92 123 167 202 252 316 368
#     4  10  21  39  63  88 116 155 209 254 295 365
#     4  10  24  40  63  94 133 158 198 260 322 362
#
# _framework density 22.915600999999999
#
# number of rings (size 3 to 8) (size 9 to 14) (size 15 to 20)
#    0.000    1.667    0.000    3.500    0.000   14.667 
#    0.000    0.833    0.000    0.000    0.000    0.000 
#    0.000    0.000    0.000    0.000    0.000    0.000 
#
# Total GULP energy -134316.273393 kJ/mol
# GULP energy per Si atom -5596.511391 kJ/mol
# Density = 2.286344 g / cm^3
# Si number density = 22.915601 Si / 1000 Ang^3
#
#
#
# Elastic Constant Matrix: (Units=GPa)
#
#
# Indices 1 2 3 4 5 6 
#
# 1 68.4479 33.8822 13.6578 0.0000 9.5674 0.0000
# 2 33.8822 129.5828 22.2228 0.0000 13.1166 0.0000
# 3 13.6578 22.2228 77.1251 0.0000 8.5918 0.0000
# 4 0.0000 0.0000 0.0000 150.0230 0.0000 139.4377
# 5 9.5674 13.1166 8.5918 0.0000 16.3482 0.0000
# 6 0.0000 0.0000 0.0000 139.4377 0.0000 145.6194
#
#
#
# Elastic Compliance Matrix: (Units=1/GPa)
#
#
# Indices 1 2 3 4 5 6 
#
# 1 0.017640 -0.003714 -0.001312 0.000000 -0.006654 0.000000
# 2 -0.003714 0.009416 -0.001546 0.000000 -0.004568 0.000000
# 3 -0.001312 -0.001546 0.014255 0.000000 -0.005483 0.000000
# 4 0.000000 0.000000 0.000000 0.060589 0.000000 -0.058017
# 5 -0.006654 -0.004568 -0.005483 0.000000 0.071610 0.000000
# 6 0.000000 0.000000 0.000000 -0.058017 0.000000 0.062421
#
#
# Mechanical properties :
#
#
# Convention : Reuss Voigt Hill
#
# Bulk Modulus (GPa) = 35.50497 46.07570 40.79033
# Shear Modulus (GPa) = 19.34503 76.09098 47.71800
#
# Velocity S-wave (km/s) = 2.90864 5.76862 4.56821
# Velocity P-wave (km/s) = 5.17761 8.03241 6.75749
#
# Compressibility (1/GPa) = 0.02816507
#
# Stress axis : x y z
#
# Youngs Moduli (GPa) = 56.68961 106.20511 70.15208
#
# Poissons Ratio (x) = 0.39442 0.09207
# Poissons Ratio (y) = 0.21053 0.10849
# Poissons Ratio (z) = 0.07440 0.16424
#
# Static dielectric constant tensor:
#      x y z
#    x 1.892240 0.000000 -0.008970 
#    y 0.000000 1.853490 0.000000 
#    z -0.008970 0.000000 1.866610 
# 
# From -- ./inp_files/10787.got.cif
#   From: 2010.05.17/outbox.cif.g08.bks.cpg/sg15_6_cif.got.tgz:10787.got - 2010.06.03 18:47:42.
