data_PCOD9282428
_publ_section_title
;
Structure prediction by ZEFSAII (Michael W. Deem and Ramdas Pophale) SiO2 
 PCOD9282428
Probable space group: C 2/C
;
_chemical_formula_sum "Si O2"
_cell_formula_units_Z 60
_cell_length_a 12.971108
_cell_length_b 8.784479
_cell_length_c 25.448924
_cell_angle_alpha 90.000000
_cell_angle_beta 66.917251
_cell_angle_gamma 90.000000
_cell_volume 2667.606796
_symmetry_space_group_name_H-M "C 2/C"
_symmetry_group_IT_number 15
_symmetry_cell_setting 'monoclinic'
loop_
_space_group_symop_operation_xyz
x,y,z
-x,y,1/2-z
-x,-y,-z
x,-y,1/2+z
1/2+x,1/2+y,z
1/2-x,1/2+y,1/2-z
1/2-x,1/2-y,-z
1/2+x,1/2-y,1/2+z
loop_
_atom_site_type_symbol
_atom_site_label
_atom_site_fract_x
_atom_site_fract_y
_atom_site_fract_z
Si Si1 0.083495 0.462868 0.644153
Si Si2 0.000000 0.334151 0.250000
Si Si3 0.567940 0.466108 0.434473
Si Si4 0.019880 0.843213 0.335968
Si Si5 0.167960 0.110992 0.268265
Si Si6 0.198634 0.976381 0.648100
Si Si7 0.708933 0.275405 0.867979
Si Si8 0.287664 0.795868 0.434068
O O1 0.079423 0.561128 0.698501
O O2 0.983491 0.339412 0.668573
O O3 0.190411 0.352071 0.620273
O O4 0.108190 0.586212 0.593574
O O5 0.935548 0.224814 0.222573
O O6 0.500000 0.500000 0.500000
O O7 0.505970 0.375362 0.400879
O O8 0.600081 0.628653 0.403121
O O9 0.680727 0.375803 0.427374
O O10 0.915698 0.923272 0.326555
O O11 0.125818 0.944583 0.296207
O O12 0.220405 0.095646 0.200472
O O13 0.234530 0.190708 0.301763
O O14 0.186491 0.853195 0.605393
O O15 0.295168 0.099086 0.618626
O O16 0.250000 0.750000 0.500000
#
# Coordination Sequence:
#
# PCOD9282428 Si02
#       8
#     8   4   8   8   8   8   8   8
#     4  10  23  40  58  95 123 164 205 255 309 382
#     4  12  22  34  58  88 130 152 202 248 306 366
#     4  10  22  42  63  86 117 157 210 260 302 367
#     4  10  21  39  62  88 123 161 204 253 314 369
#     4  11  21  37  58  90 123 166 197 254 308 376
#     4  11  21  39  60  87 121 161 203 250 315 371
#     4   9  24  38  60  87 122 160 207 245 314 370
#     4  11  23  42  64  88 123 165 208 262 315 372
#
# _framework density 22.492069000000001
#
# number of rings (size 3 to 8) (size 9 to 14) (size 15 to 20)
#    0.000    1.600    2.667    0.800    5.600    4.267 
#    0.000    5.333    0.000    0.000    0.000    0.000 
#    0.000    0.000    0.000    0.000    0.000    0.000 
#
# Total GULP energy -167522.551326 kJ/mol
# GULP energy per Si atom -5584.085044 kJ/mol
# Density = 2.244088 g / cm^3
# Si number density = 22.492069 Si / 1000 Ang^3
#
#
#
# Elastic Constant Matrix: (Units=GPa)
#
#
# Indices 1 2 3 4 5 6 
#
# 1 35.3659 11.5781 -12.8431 0.0000 8.8462 0.0000
# 2 11.5781 148.5107 38.8271 0.0000 -0.9275 0.0000
# 3 -12.8431 38.8271 108.4411 0.0000 6.4765 0.0000
# 4 0.0000 0.0000 0.0000 23.7034 0.0000 -3.0584
# 5 8.8462 -0.9275 6.4765 0.0000 27.4490 0.0000
# 6 0.0000 0.0000 0.0000 -3.0584 0.0000 22.9121
#
#
#
# Elastic Compliance Matrix: (Units=1/GPa)
#
#
# Indices 1 2 3 4 5 6 
#
# 1 0.035471 -0.004580 0.006626 0.000000 -0.013150 0.000000
# 2 -0.004580 0.008042 -0.003577 0.000000 0.002592 0.000000
# 3 0.006626 -0.003577 0.011585 0.000000 -0.004990 0.000000
# 4 0.000000 0.000000 0.000000 0.042927 0.000000 0.005730
# 5 -0.013150 0.002592 -0.004990 0.000000 0.041934 0.000000
# 6 0.000000 0.000000 0.000000 0.005730 0.000000 0.044410
#
#
# Mechanical properties :
#
#
# Convention : Reuss Voigt Hill
#
# Bulk Modulus (GPa) = 19.21719 40.82689 30.02204
# Shear Modulus (GPa) = 24.41706 31.79659 28.10683
#
# Velocity S-wave (km/s) = 3.29840 3.76397 3.53885
# Velocity P-wave (km/s) = 4.80296 6.08942 5.48405
#
# Compressibility (1/GPa) = 0.05203674
#
# Stress axis : x y z
#
# Youngs Moduli (GPa) = 28.19237 124.35006 86.31916
#
# Poissons Ratio (x) = 0.56950 -0.57195
# Poissons Ratio (y) = 0.12912 0.30872
# Poissons Ratio (z) = -0.18680 0.44474
#
# Static dielectric constant tensor:
#      x y z
#    x 1.906790 0.000000 -0.041280 
#    y 0.000000 1.871980 0.000000 
#    z -0.041280 0.000000 1.813060 
# 
# From -- ./inp_files/272808.got.cif
#   From: 2010.05.17/outbox.cif.g08.bks.cpg/sg15_137_cif.got.tgz:272808.got - 2010.06.03 18:47:42.
