data_PCOD9282915
_publ_section_title
;
Structure prediction by ZEFSAII (Michael W. Deem and Ramdas Pophale) SiO2 
 PCOD9282915
Probable space group: C 2/C
;
_chemical_formula_sum "Si O2"
_cell_formula_units_Z 56
_cell_length_a 29.845144
_cell_length_b 5.565182
_cell_length_c 14.450717
_cell_angle_alpha 90.000000
_cell_angle_beta 96.412170
_cell_angle_gamma 90.000000
_cell_volume 2385.157499
_symmetry_space_group_name_H-M "C 2/C"
_symmetry_group_IT_number 15
_symmetry_cell_setting 'monoclinic'
loop_
_space_group_symop_operation_xyz
x,y,z
-x,y,1/2-z
-x,-y,-z
x,-y,1/2+z
1/2+x,1/2+y,z
1/2-x,1/2+y,1/2-z
1/2-x,1/2-y,-z
1/2+x,1/2-y,1/2+z
loop_
_atom_site_type_symbol
_atom_site_label
_atom_site_fract_x
_atom_site_fract_y
_atom_site_fract_z
Si Si1 0.941306 0.475480 0.397615
Si Si2 0.105905 0.890485 0.493407
Si Si3 0.828285 0.700612 0.140834
Si Si4 0.530454 0.279645 0.929083
Si Si5 0.644244 0.497743 0.180139
Si Si6 0.760467 0.216784 0.305411
Si Si7 0.902810 0.621251 0.709487
O O1 0.903217 0.353425 0.452462
O O2 0.964869 0.674406 0.466173
O O3 0.921850 0.552966 0.294439
O O4 0.979081 0.266524 0.389352
O O5 0.143968 0.858549 0.425542
O O6 0.122506 0.072535 0.577379
O O7 0.058090 0.971527 0.439427
O O8 0.774790 0.696068 0.117700
O O9 0.855845 0.453455 0.151485
O O10 0.835720 0.801563 0.246451
O O11 0.560262 0.137813 0.861059
O O12 0.686880 0.669188 0.164645
O O13 0.608304 0.641369 0.234465
O O14 0.754329 0.484027 0.260876
#
# Coordination Sequence:
#
# PCOD9282915 Si02
#       7
#     8   8   8   8   8   8   8
#     4  10  23  37  59  84 120 157 200 259 307 373
#     4  11  22  38  61  88 118 159 209 251 315 372
#     4  11  21  38  63  86 124 159 206 257 315 377
#     4  11  21  39  59  85 120 155 203 256 312 372
#     4  10  22  39  60  87 121 161 201 256 309 381
#     4  10  21  39  65  95 130 171 211 263 322 380
#     4  11  20  38  60  85 115 159 204 247 314 375
#
# _framework density 23.478535000000001
#
# number of rings (size 3 to 8) (size 9 to 14) (size 15 to 20)
#    0.000    1.429    4.286    1.714    0.000    0.571 
#    0.000    0.000    0.000    5.143    0.000    0.000 
#    0.000    0.000    0.000    0.000    0.000    0.000 
#
# Total GULP energy -156186.494852 kJ/mol
# GULP energy per Si atom -5578.089102 kJ/mol
# Density = 2.342510 g / cm^3
# Si number density = 23.478535 Si / 1000 Ang^3
#
#
#
# Elastic Constant Matrix: (Units=GPa)
#
#
# Indices 1 2 3 4 5 6 
#
# 1 131.8539 9.2872 31.0898 0.0000 -25.6479 0.0000
# 2 9.2872 49.5247 16.8034 0.0000 -6.1523 0.0000
# 3 31.0898 16.8034 83.5399 0.0000 -15.1994 0.0000
# 4 0.0000 0.0000 0.0000 23.0660 0.0000 1.2428
# 5 -25.6479 -6.1523 -15.1994 0.0000 38.5691 0.0000
# 6 0.0000 0.0000 0.0000 1.2428 0.0000 37.6828
#
#
#
# Elastic Compliance Matrix: (Units=1/GPa)
#
#
# Indices 1 2 3 4 5 6 
#
# 1 0.009167 -0.000261 -0.002432 0.000000 0.005096 0.000000
# 2 -0.000261 0.021805 -0.003972 0.000000 0.001739 0.000000
# 3 -0.002432 -0.003972 0.014289 0.000000 0.003380 0.000000
# 4 0.000000 0.000000 0.000000 0.043431 0.000000 -0.001432
# 5 0.005096 0.001739 0.003380 0.000000 0.030926 0.000000
# 6 0.000000 0.000000 0.000000 -0.001432 0.000000 0.026585
#
#
# Mechanical properties :
#
#
# Convention : Reuss Voigt Hill
#
# Bulk Modulus (GPa) = 31.31747 42.14213 36.72980
# Shear Modulus (GPa) = 29.38121 33.71280 31.54701
#
# Velocity S-wave (km/s) = 3.54136 3.79344 3.66956
# Velocity P-wave (km/s) = 5.48538 6.09714 5.79933
#
# Compressibility (1/GPa) = 0.03193106
#
# Stress axis : x y z
#
# Youngs Moduli (GPa) = 109.08411 45.86167 69.98184
#
# Poissons Ratio (x) = 0.01196 0.17019
# Poissons Ratio (y) = 0.02846 0.27799
# Poissons Ratio (z) = 0.26529 0.18218
#
# Static dielectric constant tensor:
#      x y z
#    x 1.941800 0.000000 0.032250 
#    y 0.000000 2.018660 0.000000 
#    z 0.032250 0.000000 1.896880 
# 
# From -- ./inp_files/180104.got.cif
#   From: 2010.05.17/outbox.cif.g08.bks.cpg/sg15_91_cif.got.tgz:180104.got - 2010.06.03 18:47:42.
