data_PCOD9282463
_publ_section_title
;
Structure prediction by ZEFSAII (Michael W. Deem and Ramdas Pophale) SiO2 
 PCOD9282463
Probable space group: C 2/C
;
_chemical_formula_sum "Si O2"
_cell_formula_units_Z 64
_cell_length_a 17.526463
_cell_length_b 25.618822
_cell_length_c 15.159021
_cell_angle_alpha 90.000000
_cell_angle_beta 150.698089
_cell_angle_gamma 90.000000
_cell_volume 3331.185326
_symmetry_space_group_name_H-M "C 2/C"
_symmetry_group_IT_number 15
_symmetry_cell_setting 'monoclinic'
loop_
_space_group_symop_operation_xyz
x,y,z
-x,y,1/2-z
-x,-y,-z
x,-y,1/2+z
1/2+x,1/2+y,z
1/2-x,1/2+y,1/2-z
1/2-x,1/2-y,-z
1/2+x,1/2-y,1/2+z
loop_
_atom_site_type_symbol
_atom_site_label
_atom_site_fract_x
_atom_site_fract_y
_atom_site_fract_z
Si Si1 0.812780 0.149321 0.569888
Si Si2 0.686117 0.582405 0.424440
Si Si3 0.679939 0.192067 0.259024
Si Si4 0.692410 0.195046 0.632431
Si Si5 0.681285 0.110324 0.766337
Si Si6 0.814963 0.596317 0.361883
Si Si7 0.319377 0.534103 0.598116
Si Si8 0.680004 0.513624 0.695123
O O1 0.738910 0.183017 0.417667
O O2 0.768183 0.171053 0.620570
O O3 0.754148 0.089333 0.500014
O O4 0.000000 0.149676 0.750000
O O5 0.500000 0.583427 0.250000
O O6 0.770774 0.616347 0.583862
O O7 0.723815 0.598339 0.362635
O O8 0.744279 0.522171 0.495407
O O9 0.748763 0.246397 0.294795
O O10 0.729909 0.142825 0.249426
O O11 0.493343 0.194766 0.068710
O O12 0.729023 0.158440 0.752625
O O13 0.497356 0.101556 0.567945
O O14 0.767571 0.058898 0.817052
O O15 0.777178 0.539703 0.282684
O O16 0.500000 0.533719 0.750000
O O17 0.304293 0.533484 0.688662
O O18 0.500000 0.500000 0.500000
#
# Coordination Sequence:
#
# PCOD9282463 Si02
#       8
#     8   8   8   8   8   8   8   8
#     4  11  22  37  61  88 124 161 202 248 298 356
#     4  10  21  39  62  91 123 159 202 245 301 365
#     4  11  25  41  65  84 123 159 204 257 297 363
#     4  11  24  44  60  91 118 160 209 247 308 355
#     4  11  22  40  62  87 126 158 196 257 305 361
#     4  10  24  40  59  92 120 158 202 249 313 357
#     4   9  19  34  52  90 122 155 201 237 289 352
#     4  11  21  35  61  88 124 160 206 248 293 366
#
# _framework density 19.21238
#
# number of rings (size 3 to 8) (size 9 to 14) (size 15 to 20)
#    0.000    1.500    1.250    4.500    5.250    3.000 
#    0.000    1.875    0.000    0.000    0.000    0.000 
#    0.000    0.000    0.000    0.000    0.000    0.000 
#
# Total GULP energy -178836.598693 kJ/mol
# GULP energy per Si atom -5588.643709 kJ/mol
# Density = 1.916865 g / cm^3
# Si number density = 19.212380 Si / 1000 Ang^3
#
#
#
# Elastic Constant Matrix: (Units=GPa)
#
#
# Indices 1 2 3 4 5 6 
#
# 1 45.2903 15.5938 -18.3892 0.0000 6.5590 0.0000
# 2 15.5938 90.4807 5.7138 0.0000 2.0057 0.0000
# 3 -18.3892 5.7138 36.2756 0.0000 -3.1214 0.0000
# 4 0.0000 0.0000 0.0000 17.0505 0.0000 -7.7540
# 5 6.5590 2.0057 -3.1214 0.0000 24.0613 0.0000
# 6 0.0000 0.0000 0.0000 -7.7540 0.0000 21.8969
#
#
#
# Elastic Compliance Matrix: (Units=1/GPa)
#
#
# Indices 1 2 3 4 5 6 
#
# 1 0.031936 -0.006424 0.016684 0.000000 -0.006006 0.000000
# 2 -0.006424 0.012488 -0.005221 0.000000 0.000033 0.000000
# 3 0.016684 -0.005221 0.036905 0.000000 0.000675 0.000000
# 4 0.000000 0.000000 0.000000 0.069907 0.000000 0.024755
# 5 -0.006006 0.000033 0.000675 0.000000 0.043282 0.000000
# 6 0.000000 0.000000 0.000000 0.024755 0.000000 0.054435
#
#
# Mechanical properties :
#
#
# Convention : Reuss Voigt Hill
#
# Bulk Modulus (GPa) = 10.94006 19.76482 15.35244
# Shear Modulus (GPa) = 18.56359 23.87693 21.22026
#
# Velocity S-wave (km/s) = 3.11180 3.52915 3.32702
# Velocity P-wave (km/s) = 4.31482 5.18810 4.77148
#
# Compressibility (1/GPa) = 0.09140719
#
# Stress axis : x y z
#
# Youngs Moduli (GPa) = 31.31273 80.07518 27.09663
#
# Poissons Ratio (x) = 0.51444 -0.45209
# Poissons Ratio (y) = 0.20117 0.14147
# Poissons Ratio (z) = -0.52243 0.41807
#
# Static dielectric constant tensor:
#      x y z
#    x 1.654660 0.000000 0.003610 
#    y 0.000000 1.671270 0.000000 
#    z 0.003610 0.000000 1.645210 
# 
# From -- ./inp_files/164252.got.cif
#   From: 2010.05.17/outbox.cif.g08.bks.cpg/sg15_83_cif.got.tgz:164252.got - 2010.06.03 18:47:42.
