data_PCOD9282399
_publ_section_title
;
Structure prediction by ZEFSAII (Michael W. Deem and Ramdas Pophale) SiO2 
 PCOD9282399
Probable space group: C 2/C
;
_chemical_formula_sum "Si O2"
_cell_formula_units_Z 40
_cell_length_a 15.840717
_cell_length_b 7.300555
_cell_length_c 13.486267
_cell_angle_alpha 90.000000
_cell_angle_beta 82.839072
_cell_angle_gamma 90.000000
_cell_volume 1547.467947
_symmetry_space_group_name_H-M "C 2/C"
_symmetry_group_IT_number 15
_symmetry_cell_setting 'monoclinic'
loop_
_space_group_symop_operation_xyz
x,y,z
-x,y,1/2-z
-x,-y,-z
x,-y,1/2+z
1/2+x,1/2+y,z
1/2-x,1/2+y,1/2-z
1/2-x,1/2-y,-z
1/2+x,1/2-y,1/2+z
loop_
_atom_site_type_symbol
_atom_site_label
_atom_site_fract_x
_atom_site_fract_y
_atom_site_fract_z
Si Si1 0.154821 0.185411 0.495356
Si Si2 0.364691 0.650871 0.781226
Si Si3 0.638339 0.721901 0.038765
Si Si4 0.786544 0.595545 0.143184
Si Si5 0.958923 0.805635 0.663495
O O1 0.250000 0.250000 0.500000
O O2 0.107840 0.200405 0.609859
O O3 0.111989 0.262306 0.402448
O O4 0.159569 0.966002 0.477397
O O5 0.269009 0.570785 0.808129
O O6 0.349992 0.824935 0.715120
O O7 0.420625 0.492406 0.719607
O O8 0.659647 0.892297 0.966723
O O9 0.703547 0.720982 0.121510
O O10 0.541839 0.687475 0.082021
O O11 0.000000 0.696547 0.750000
#
# Coordination Sequence:
#
# PCOD9282399 Si02
#       5
#     8   8   8   8   8
#     4  11  23  37  60  97 125 160 212 266 313 375
#     4  11  23  37  67  95 126 171 218 260 315 380
#     4  10  22  39  65  93 130 165 215 266 317 371
#     4  10  21  39  61  99 126 170 207 266 320 380
#     4  12  22  40  63  98 121 168 218 272 304 370
#
# _framework density 25.848678
#
# number of rings (size 3 to 8) (size 9 to 14) (size 15 to 20)
#    0.000    1.200    6.000    1.800    0.000    0.000 
#    0.000    0.000    0.000   21.600   15.600    0.000 
#    0.000    0.000    0.000    0.000    0.000    0.000 
#
# Total GULP energy -111537.207743 kJ/mol
# GULP energy per Si atom -5576.860387 kJ/mol
# Density = 2.578985 g / cm^3
# Si number density = 25.848678 Si / 1000 Ang^3
#
#
#
# Elastic Constant Matrix: (Units=GPa)
#
#
# Indices 1 2 3 4 5 6 
#
# 1 147.9301 14.3804 62.8805 0.0000 -5.6640 0.0000
# 2 14.3804 31.7617 18.7061 0.0000 1.1182 0.0000
# 3 62.8805 18.7061 136.9813 0.0000 33.0169 0.0000
# 4 0.0000 0.0000 0.0000 34.5588 0.0000 0.4932
# 5 -5.6640 1.1182 33.0169 0.0000 77.8950 0.0000
# 6 0.0000 0.0000 0.0000 0.4932 0.0000 18.7917
#
#
#
# Elastic Compliance Matrix: (Units=1/GPa)
#
#
# Indices 1 2 3 4 5 6 
#
# 1 0.008922 -0.001470 -0.004518 0.000000 0.002585 0.000000
# 2 -0.001470 0.034674 -0.004360 0.000000 0.001243 0.000000
# 3 -0.004518 -0.004360 0.011176 0.000000 -0.005003 0.000000
# 4 0.000000 0.000000 0.000000 0.028947 0.000000 -0.000760
# 5 0.002585 0.001243 -0.005003 0.000000 0.015128 0.000000
# 6 0.000000 0.000000 0.000000 -0.000760 0.000000 0.053235
#
#
# Mechanical properties :
#
#
# Convention : Reuss Voigt Hill
#
# Bulk Modulus (GPa) = 29.34617 56.51189 42.92903
# Shear Modulus (GPa) = 27.15375 40.96284 34.05830
#
# Velocity S-wave (km/s) = 3.24464 3.98517 3.63382
# Velocity P-wave (km/s) = 5.04129 6.56395 5.85235
#
# Compressibility (1/GPa) = 0.03407600
#
# Stress axis : x y z
#
# Youngs Moduli (GPa) = 112.07886 28.84005 89.48128
#
# Poissons Ratio (x) = 0.04239 0.40428
# Poissons Ratio (y) = 0.16473 0.39015
# Poissons Ratio (z) = 0.50638 0.12575
#
# Static dielectric constant tensor:
#      x y z
#    x 1.996500 0.000000 -0.005110 
#    y 0.000000 2.167380 0.000000 
#    z -0.005110 0.000000 2.142480 
# 
# From -- ./inp_files/158772.got.cif
#   From: 2010.05.17/outbox.cif.g08.bks.cpg/sg15_80_cif.got.tgz:158772.got - 2010.06.03 18:47:42.
