data_PCOD9282376
_publ_section_title
;
Structure prediction by ZEFSAII (Michael W. Deem and Ramdas Pophale) SiO2 
 PCOD9282376
Probable space group: C 2/C
;
_chemical_formula_sum "Si O2"
_cell_formula_units_Z 36
_cell_length_a 18.482313
_cell_length_b 12.041266
_cell_length_c 9.058037
_cell_angle_alpha 90.000000
_cell_angle_beta 65.480694
_cell_angle_gamma 90.000000
_cell_volume 1834.082009
_symmetry_space_group_name_H-M "C 2/C"
_symmetry_group_IT_number 15
_symmetry_cell_setting 'monoclinic'
loop_
_space_group_symop_operation_xyz
x,y,z
-x,y,1/2-z
-x,-y,-z
x,-y,1/2+z
1/2+x,1/2+y,z
1/2-x,1/2+y,1/2-z
1/2-x,1/2-y,-z
1/2+x,1/2-y,1/2+z
loop_
_atom_site_type_symbol
_atom_site_label
_atom_site_fract_x
_atom_site_fract_y
_atom_site_fract_z
Si Si1 0.324544 0.671455 0.395025
Si Si2 0.936746 0.899416 0.054773
Si Si3 0.500000 0.233587 0.250000
Si Si4 0.852043 0.265907 0.052024
Si Si5 0.791416 0.075068 0.882176
O O1 0.250000 0.750000 0.500000
O O2 0.402116 0.654378 0.434687
O O3 0.359763 0.717384 0.210164
O O4 0.281437 0.551126 0.436860
O O5 0.970078 0.808636 0.139505
O O6 0.857125 0.939595 0.201208
O O7 0.000000 0.000000 0.000000
O O8 0.424257 0.179912 0.395549
O O9 0.784089 0.358882 0.112853
O O10 0.825580 0.157571 0.979027
#
# Coordination Sequence:
#
# PCOD9282376 Si02
#       5
#     8   8   4   8   8
#     4  12  23  38  65 101 131 170 223 279 330 400
#     4  11  21  38  63  99 131 167 217 282 333 384
#     4  10  22  38  60  88 132 172 208 266 334 392
#     4  10  22  39  62  92 131 174 221 266 332 404
#     4  10  21  39  61  92 130 179 214 263 341 405
#
# _framework density 19.628347000000002
#
# number of rings (size 3 to 8) (size 9 to 14) (size 15 to 20)
#    0.000    1.333    2.222    5.333    0.000    2.667 
#    0.000    1.111    0.000    8.000    0.000    0.000 
#    0.000    0.000    0.000    0.000    0.000    0.000 
#
# Total GULP energy -100222.916531 kJ/mol
# GULP energy per Si atom -5567.939807 kJ/mol
# Density = 1.958367 g / cm^3
# Si number density = 19.628347 Si / 1000 Ang^3
#
#
#
# Elastic Constant Matrix: (Units=GPa)
#
#
# Indices 1 2 3 4 5 6 
#
# 1 129.8008 46.2395 79.0929 0.0000 4.3396 0.0000
# 2 46.2395 71.0655 36.9957 0.0000 -9.7853 0.0000
# 3 79.0929 36.9957 128.9028 0.0000 -1.6766 0.0000
# 4 0.0000 0.0000 0.0000 22.9798 0.0000 -7.7155
# 5 4.3396 -9.7853 -1.6766 0.0000 53.7704 0.0000
# 6 0.0000 0.0000 0.0000 -7.7155 0.0000 36.2217
#
#
#
# Elastic Compliance Matrix: (Units=1/GPa)
#
#
# Indices 1 2 3 4 5 6 
#
# 1 0.014173 -0.005894 -0.007036 0.000000 -0.002436 0.000000
# 2 -0.005894 0.019447 -0.001914 0.000000 0.003955 0.000000
# 3 -0.007036 -0.001914 0.012632 0.000000 0.000614 0.000000
# 4 0.000000 0.000000 0.000000 0.046868 0.000000 0.009983
# 5 -0.002436 0.003955 0.000614 0.000000 0.019533 0.000000
# 6 0.000000 0.000000 0.000000 0.009983 0.000000 0.029734
#
#
# Mechanical properties :
#
#
# Convention : Reuss Voigt Hill
#
# Bulk Modulus (GPa) = 60.36943 72.71394 66.54168
# Shear Modulus (GPa) = 28.15361 33.75710 30.95535
#
# Velocity S-wave (km/s) = 3.79137 4.15156 3.97555
# Velocity P-wave (km/s) = 7.07029 7.75283 7.41941
#
# Compressibility (1/GPa) = 0.01656468
#
# Stress axis : x y z
#
# Youngs Moduli (GPa) = 70.55839 51.42109 79.16232
#
# Poissons Ratio (x) = 0.30308 0.55700
# Poissons Ratio (y) = 0.41587 0.15148
# Poissons Ratio (z) = 0.49646 0.09840
#
# Static dielectric constant tensor:
#      x y z
#    x 1.777180 0.000000 0.008980 
#    y 0.000000 1.688920 0.000000 
#    z 0.008980 0.000000 1.749400 
# 
# From -- ./inp_files/46006.got.cif
#   From: 2010.05.17/outbox.cif.g08.bks.cpg/sg15_24_cif.got.tgz:46006.got - 2010.06.03 18:47:42.
