data_PCOD9282585
_publ_section_title
;
Structure prediction by ZEFSAII (Michael W. Deem and Ramdas Pophale) SiO2 
 PCOD9282585
Probable space group: C 2/C
;
_chemical_formula_sum "Si O2"
_cell_formula_units_Z 40
_cell_length_a 22.989720
_cell_length_b 11.865553
_cell_length_c 10.664652
_cell_angle_alpha 90.000000
_cell_angle_beta 147.409410
_cell_angle_gamma 90.000000
_cell_volume 1566.970576
_symmetry_space_group_name_H-M "C 2/C"
_symmetry_group_IT_number 15
_symmetry_cell_setting 'monoclinic'
loop_
_space_group_symop_operation_xyz
x,y,z
-x,y,1/2-z
-x,-y,-z
x,-y,1/2+z
1/2+x,1/2+y,z
1/2-x,1/2+y,1/2-z
1/2-x,1/2-y,-z
1/2+x,1/2-y,1/2+z
loop_
_atom_site_type_symbol
_atom_site_label
_atom_site_fract_x
_atom_site_fract_y
_atom_site_fract_z
Si Si1 0.579535 0.719481 0.120915
Si Si2 0.835788 0.582737 0.861791
Si Si3 0.390954 0.522406 0.128917
Si Si4 0.084232 0.337301 0.514356
Si Si5 0.837445 0.792875 0.991327
O O1 0.654147 0.831354 0.238449
O O2 0.607164 0.618294 0.262409
O O3 0.468630 0.776789 0.962903
O O4 0.594494 0.671992 0.008758
O O5 0.712716 0.544876 0.646155
O O6 0.863544 0.659124 0.033995
O O7 0.907059 0.472877 0.968421
O O8 0.500000 0.534868 0.250000
O O9 0.366159 0.395801 0.135487
O O10 0.208654 0.298012 0.729879
O O11 0.000000 0.307986 0.250000
#
# Coordination Sequence:
#
# PCOD9282585 Si02
#       5
#     8   8   8   8   8
#     4  10  21  39  63  90 121 164 210 247 313 362
#     4   9  21  39  58  92 124 153 208 259 295 364
#     4  11  21  37  65  86 122 166 206 247 312 367
#     4  11  21  36  66  89 123 168 203 248 311 366
#     4   9  23  39  58  93 128 155 208 263 292 371
#
# _framework density 25.526962999999999
#
# number of rings (size 3 to 8) (size 9 to 14) (size 15 to 20)
#    1.200    0.800    0.000    4.200    2.800    1.600 
#    0.000    0.000    0.000    4.800    0.000    0.000 
#    0.000    0.000    0.000    0.000    0.000    0.000 
#
# Total GULP energy -111543.837041 kJ/mol
# GULP energy per Si atom -5577.191852 kJ/mol
# Density = 2.546886 g / cm^3
# Si number density = 25.526963 Si / 1000 Ang^3
#
#
#
# Elastic Constant Matrix: (Units=GPa)
#
#
# Indices 1 2 3 4 5 6 
#
# 1 73.2200 37.0102 58.9232 0.0000 27.9697 0.0000
# 2 37.0102 206.2066 43.3663 0.0000 7.9858 0.0000
# 3 58.9232 43.3663 114.0121 0.0000 31.5454 0.0000
# 4 0.0000 0.0000 0.0000 -8.3506 0.0000 -7.5888
# 5 27.9697 7.9858 31.5454 0.0000 25.7905 0.0000
# 6 0.0000 0.0000 0.0000 -7.5888 0.0000 40.3413
#
#
#
# Elastic Compliance Matrix: (Units=1/GPa)
#
#
# Indices 1 2 3 4 5 6 
#
# 1 0.030123 -0.002767 -0.008636 0.000000 -0.021248 0.000000
# 2 -0.002767 0.005552 -0.001566 0.000000 0.003198 0.000000
# 3 -0.008636 -0.001566 0.016785 0.000000 -0.010679 0.000000
# 4 0.000000 0.000000 0.000000 -0.102269 0.000000 -0.019238
# 5 -0.021248 0.003198 -0.010679 0.000000 0.073889 0.000000
# 6 0.000000 0.000000 0.000000 -0.019238 0.000000 0.021169
#
#
# Mechanical properties :
#
#
# Convention : Reuss Voigt Hill
#
# Bulk Modulus (GPa) = 37.70815 74.67089 56.18952
# Shear Modulus (GPa) = 62.47701 28.49885 45.48793
#
# Velocity S-wave (km/s) = 4.95258 3.34491 4.22590
# Velocity P-wave (km/s) = 6.89261 6.65081 6.77278
#
# Compressibility (1/GPa) = 0.02651947
#
# Stress axis : x y z
#
# Youngs Moduli (GPa) = 33.19728 180.12355 59.57694
#
# Poissons Ratio (x) = 0.49846 0.51453
# Poissons Ratio (y) = 0.09187 0.09332
# Poissons Ratio (z) = 0.28671 0.28213
#
# Static dielectric constant tensor:
#      x y z
#    x 2.049200 0.000000 -0.129260 
#    y 0.000000 2.049100 0.000000 
#    z -0.129260 0.000000 2.132790 
# 
# From -- ./inp_files/177423.got.cif
#   From: 2010.05.17/outbox.cif.g08.bks.cpg/sg15_89_cif.got.tgz:177423.got - 2010.06.03 18:47:42.
