data_PCOD9282894
_publ_section_title
;
Structure prediction by ZEFSAII (Michael W. Deem and Ramdas Pophale) SiO2 
 PCOD9282894
Probable space group: C 2/C
;
_chemical_formula_sum "Si O2"
_cell_formula_units_Z 36
_cell_length_a 22.445366
_cell_length_b 8.989590
_cell_length_c 26.724002
_cell_angle_alpha 90.000000
_cell_angle_beta 21.790610
_cell_angle_gamma 90.000000
_cell_volume 2001.678691
_symmetry_space_group_name_H-M "C 2/C"
_symmetry_group_IT_number 15
_symmetry_cell_setting 'monoclinic'
loop_
_space_group_symop_operation_xyz
x,y,z
-x,y,1/2-z
-x,-y,-z
x,-y,1/2+z
1/2+x,1/2+y,z
1/2-x,1/2+y,1/2-z
1/2-x,1/2-y,-z
1/2+x,1/2-y,1/2+z
loop_
_atom_site_type_symbol
_atom_site_label
_atom_site_fract_x
_atom_site_fract_y
_atom_site_fract_z
Si Si1 0.824362 0.925847 0.136880
Si Si2 0.276128 0.377184 0.590333
Si Si3 0.169161 0.425781 0.854152
Si Si4 0.500000 0.736359 0.750000
Si Si5 0.911400 0.124566 0.716189
O O1 0.835447 0.751810 0.139615
O O2 0.759962 0.966949 0.131591
O O3 0.720936 0.006749 0.260292
O O4 0.000000 0.000000 0.000000
O O5 0.153019 0.341614 0.641229
O O6 0.219891 0.255874 0.675437
O O7 0.454041 0.352479 0.430754
O O8 0.308512 0.480722 0.783459
O O9 0.000000 0.500000 0.000000
O O10 0.501957 0.635082 0.698914
#
# Coordination Sequence:
#
# PCOD9282894 Si02
#       5
#     8   8   8   4   8
#     4  12  24  42  62  94 130 168 214 267 328 386
#     4  10  21  39  65  93 129 167 219 262 310 386
#     4  12  26  40  64  96 129 172 211 269 327 385
#     4   8  22  36  70  98 126 176 218 250 324 380
#     4  10  21  40  64  94 128 167 219 260 314 386
#
# _framework density 17.984905999999999
#
# number of rings (size 3 to 8) (size 9 to 14) (size 15 to 20)
#    1.333    0.000    2.222    4.667    3.111    0.000 
#    0.000    1.111    0.000    2.667    0.000    0.000 
#    0.000    0.000    0.000    0.000    0.000    0.000 
#
# Total GULP energy -100211.887895 kJ/mol
# GULP energy per Si atom -5567.327105 kJ/mol
# Density = 1.794397 g / cm^3
# Si number density = 17.984906 Si / 1000 Ang^3
#
#
#
# Elastic Constant Matrix: (Units=GPa)
#
#
# Indices 1 2 3 4 5 6 
#
# 1 117.4305 51.4201 46.0547 -0.0003 2.5414 -0.0001
# 2 51.4201 149.8918 75.5900 -0.0024 4.5885 0.0009
# 3 46.0547 75.5900 173.1546 -0.0006 14.1105 0.0007
# 4 -0.0003 -0.0024 -0.0006 25.1757 0.0004 -2.6374
# 5 2.5414 4.5885 14.1105 0.0004 33.2450 0.0000
# 6 -0.0001 0.0009 0.0007 -2.6374 0.0000 38.6077
#
#
#
# Elastic Compliance Matrix: (Units=1/GPa)
#
#
# Indices 1 2 3 4 5 6 
#
# 1 0.010334 -0.002765 -0.001562 0.000000 0.000255 0.000000
# 2 -0.002765 0.009300 -0.003353 0.000001 0.000351 0.000000
# 3 -0.001562 -0.003353 0.007880 0.000000 -0.002762 0.000000
# 4 0.000000 0.000001 0.000000 0.040007 -0.000001 0.002733
# 5 0.000255 0.000351 -0.002762 -0.000001 0.031184 0.000000
# 6 0.000000 0.000000 0.000000 0.002733 0.000000 0.026088
#
#
# Mechanical properties :
#
#
# Convention : Reuss Voigt Hill
#
# Bulk Modulus (GPa) = 82.28561 87.40073 84.84317
# Shear Modulus (GPa) = 34.67299 37.23315 35.95307
#
# Velocity S-wave (km/s) = 4.39554 4.55493 4.47595
# Velocity P-wave (km/s) = 8.46244 8.73873 8.60170
#
# Compressibility (1/GPa) = 0.01215279
#
# Stress axis : x y z
#
# Youngs Moduli (GPa) = 96.77243 107.52426 126.90975
#
# Poissons Ratio (x) = 0.29729 0.19826
# Poissons Ratio (y) = 0.26756 0.42555
# Poissons Ratio (z) = 0.15118 0.36055
#
# Static dielectric constant tensor:
#      x y z
#    x 1.687720 0.000000 -0.005150 
#    y 0.000000 1.607600 0.000000 
#    z -0.005150 0.000000 1.611250 
# 
# From -- ./inp_files/64495.got.cif
#   From: 2010.05.17/outbox.cif.g08.bks.cpg/sg15_33_cif.got.tgz:64495.got - 2010.06.03 18:47:42.
