data_PCOD9282820
_publ_section_title
;
Structure prediction by ZEFSAII (Michael W. Deem and Ramdas Pophale) SiO2 
 PCOD9282820
Probable space group: C 2/C
;
_chemical_formula_sum "Si O2"
_cell_formula_units_Z 60
_cell_length_a 11.162614
_cell_length_b 15.847243
_cell_length_c 15.731676
_cell_angle_alpha 90.000000
_cell_angle_beta 85.499538
_cell_angle_gamma 90.000000
_cell_volume 2774.300433
_symmetry_space_group_name_H-M "C 2/C"
_symmetry_group_IT_number 15
_symmetry_cell_setting 'monoclinic'
loop_
_space_group_symop_operation_xyz
x,y,z
-x,y,1/2-z
-x,-y,-z
x,-y,1/2+z
1/2+x,1/2+y,z
1/2-x,1/2+y,1/2-z
1/2-x,1/2-y,-z
1/2+x,1/2-y,1/2+z
loop_
_atom_site_type_symbol
_atom_site_label
_atom_site_fract_x
_atom_site_fract_y
_atom_site_fract_z
Si Si1 0.391795 0.185433 0.819795
Si Si2 0.629253 0.712681 0.866844
Si Si3 0.807685 0.985693 0.850952
Si Si4 0.073791 0.829863 0.554468
Si Si5 0.379556 0.556875 0.015750
Si Si6 0.500000 0.590360 0.750000
Si Si7 0.353136 0.980998 0.413867
Si Si8 0.578622 0.092515 0.404022
O O1 0.500000 0.203447 0.750000
O O2 0.254039 0.211247 0.807647
O O3 0.419776 0.240480 0.901471
O O4 0.384288 0.087383 0.841810
O O5 0.535331 0.652299 0.824917
O O6 0.589130 0.808850 0.883394
O O7 0.644340 0.674783 0.961177
O O8 0.868747 0.900019 0.885846
O O9 0.672104 0.959295 0.839529
O O10 0.814808 0.052807 0.928388
O O11 0.888734 0.028688 0.775753
O O12 0.936769 0.856084 0.542329
O O13 0.500000 0.500000 0.000000
O O14 0.282516 0.514985 0.082533
O O15 0.376927 0.934081 0.503487
O O16 0.444848 0.058330 0.403450
#
# Coordination Sequence:
#
# PCOD9282820 Si02
#       8
#     8   8   8   8   8   4   8   8
#     4  12  26  42  66 103 134 175 237 288 335 402
#     4  12  24  48  69  98 139 184 227 280 348 415
#     4  10  21  39  65 100 127 172 224 277 334 394
#     4  11  21  42  73  99 127 181 231 282 331 409
#     4   9  18  37  67  96 125 165 227 269 327 402
#     4  12  28  40  68 100 140 180 226 290 342 394
#     4  10  22  41  68 101 128 179 220 281 346 405
#     4  10  21  43  70  93 135 178 224 268 343 423
#
# _framework density 21.627072999999999
#
# number of rings (size 3 to 8) (size 9 to 14) (size 15 to 20)
#    0.000    1.333    4.000    2.800    4.667    0.000 
#    3.600    0.667    0.000    0.000    0.000    0.000 
#    0.000    0.000    0.000    0.000    0.000    0.000 
#
# Total GULP energy -167579.307751 kJ/mol
# GULP energy per Si atom -5585.976925 kJ/mol
# Density = 2.157785 g / cm^3
# Si number density = 21.627073 Si / 1000 Ang^3
#
#
#
# Elastic Constant Matrix: (Units=GPa)
#
#
# Indices 1 2 3 4 5 6 
#
# 1 121.2815 60.9462 30.2779 0.0000 -28.3405 0.0000
# 2 60.9462 109.6851 20.4551 0.0000 -13.6004 0.0000
# 3 30.2779 20.4551 55.9455 0.0000 -18.6581 0.0000
# 4 0.0000 0.0000 0.0000 17.7188 0.0000 -2.6960
# 5 -28.3405 -13.6004 -18.6581 0.0000 26.4473 0.0000
# 6 0.0000 0.0000 0.0000 -2.6960 0.0000 38.3125
#
#
#
# Elastic Compliance Matrix: (Units=1/GPa)
#
#
# Indices 1 2 3 4 5 6 
#
# 1 0.014435 -0.006321 -0.001865 0.000000 0.010902 0.000000
# 2 -0.006321 0.012775 -0.001723 0.000000 -0.001420 0.000000
# 3 -0.001865 -0.001723 0.024260 0.000000 0.014230 0.000000
# 4 0.000000 0.000000 0.000000 0.057048 0.000000 0.004014
# 5 0.010902 -0.001420 0.014230 0.000000 0.058802 0.000000
# 6 0.000000 0.000000 0.000000 0.004014 0.000000 0.026384
#
#
# Mechanical properties :
#
#
# Convention : Reuss Voigt Hill
#
# Bulk Modulus (GPa) = 31.59564 56.69674 44.14619
# Shear Modulus (GPa) = 22.31424 28.17791 25.24608
#
# Velocity S-wave (km/s) = 3.21561 3.61349 3.42034
# Velocity P-wave (km/s) = 5.33178 6.60926 6.00459
#
# Compressibility (1/GPa) = 0.03164994
#
# Stress axis : x y z
#
# Youngs Moduli (GPa) = 69.27666 78.28032 41.22032
#
# Poissons Ratio (x) = 0.49482 0.07689
# Poissons Ratio (y) = 0.43790 0.07104
# Poissons Ratio (z) = 0.12922 0.13490
#
# Static dielectric constant tensor:
#      x y z
#    x 1.825260 0.000000 -0.006270 
#    y 0.000000 1.789320 0.000000 
#    z -0.006270 0.000000 1.844430 
# 
# From -- ./inp_files/197850.got.cif
#   From: 2010.05.17/outbox.cif.g08.bks.cpg/sg15_99_cif.got.tgz:197850.got - 2010.06.03 18:47:42.
