data_PCOD9282778
_publ_section_title
;
Structure prediction by ZEFSAII (Michael W. Deem and Ramdas Pophale) SiO2 
 PCOD9282778
Probable space group: C 2/C
;
_chemical_formula_sum "Si O2"
_cell_formula_units_Z 56
_cell_length_a 20.894581
_cell_length_b 9.800949
_cell_length_c 16.222602
_cell_angle_alpha 90.000000
_cell_angle_beta 127.435370
_cell_angle_gamma 90.000000
_cell_volume 2637.937057
_symmetry_space_group_name_H-M "C 2/C"
_symmetry_group_IT_number 15
_symmetry_cell_setting 'monoclinic'
loop_
_space_group_symop_operation_xyz
x,y,z
-x,y,1/2-z
-x,-y,-z
x,-y,1/2+z
1/2+x,1/2+y,z
1/2-x,1/2+y,1/2-z
1/2-x,1/2-y,-z
1/2+x,1/2-y,1/2+z
loop_
_atom_site_type_symbol
_atom_site_label
_atom_site_fract_x
_atom_site_fract_y
_atom_site_fract_z
Si Si1 0.757256 0.526040 0.522139
Si Si2 0.915367 0.615746 0.186335
Si Si3 0.527685 0.341104 0.865691
Si Si4 0.302392 0.761377 0.931408
Si Si5 0.933886 0.696151 0.932560
Si Si6 0.102292 0.134220 0.941529
Si Si7 0.892337 0.394394 0.858677
O O1 0.844670 0.462555 0.585661
O O2 0.745315 0.620717 0.593688
O O3 0.750870 0.625207 0.438891
O O4 0.688027 0.414944 0.473925
O O5 0.929470 0.753140 0.146394
O O6 0.887928 0.633712 0.258514
O O7 0.000000 0.536435 0.250000
O O8 0.500000 0.329872 0.750000
O O9 0.459948 0.277567 0.871598
O O10 0.546357 0.499938 0.901135
O O11 0.612531 0.265117 0.953293
O O12 0.327589 0.811354 0.861461
O O13 0.888559 0.555763 0.875806
O O14 0.890585 0.794040 0.964161
O O15 0.018770 0.653429 0.042120
#
# Coordination Sequence:
#
# PCOD9282778 Si02
#       7
#     8   8   8   8   8   8   8
#     4  10  23  42  65  89 126 176 204 259 334 381
#     4  12  24  39  68  94 125 159 230 268 305 387
#     4  10  22  36  66 100 127 168 214 266 314 381
#     4   9  21  44  62  87 135 166 210 261 324 380
#     4  10  21  39  64  94 131 165 212 258 326 377
#     4  11  22  44  61  95 134 175 202 262 335 391
#     4  10  22  39  63  97 123 168 208 270 310 372
#
# _framework density 21.228708999999998
#
# number of rings (size 3 to 8) (size 9 to 14) (size 15 to 20)
#    0.000    1.714    1.429    2.143    6.000    0.000 
#    5.143    0.000    0.000    0.000    0.000    0.000 
#    0.000    0.000    0.000    0.000    0.000    0.000 
#
# Total GULP energy -156494.994772 kJ/mol
# GULP energy per Si atom -5589.106956 kJ/mol
# Density = 2.118039 g / cm^3
# Si number density = 21.228709 Si / 1000 Ang^3
#
#
#
# Elastic Constant Matrix: (Units=GPa)
#
#
# Indices 1 2 3 4 5 6 
#
# 1 76.1503 17.8926 0.9915 0.0000 -12.6763 0.0000
# 2 17.8926 65.0445 11.0668 0.0000 -8.6108 0.0000
# 3 0.9915 11.0668 36.5344 0.0000 -20.5231 0.0000
# 4 0.0000 0.0000 0.0000 1.7603 0.0000 -12.4458
# 5 -12.6763 -8.6108 -20.5231 0.0000 43.3415 0.0000
# 6 0.0000 0.0000 0.0000 -12.4458 0.0000 30.3168
#
#
#
# Elastic Compliance Matrix: (Units=1/GPa)
#
#
# Indices 1 2 3 4 5 6 
#
# 1 0.014929 -0.004048 0.003845 0.000000 0.005383 0.000000
# 2 -0.004048 0.017355 -0.005280 0.000000 -0.000236 0.000000
# 3 0.003845 -0.005280 0.039385 0.000000 0.018725 0.000000
# 4 0.000000 0.000000 0.000000 -0.298600 0.000000 -0.122582
# 5 0.005383 -0.000236 0.018725 0.000000 0.033467 0.000000
# 6 0.000000 0.000000 0.000000 -0.122582 0.000000 -0.017338
#
#
# Mechanical properties :
#
#
# Convention : Reuss Voigt Hill
#
# Bulk Modulus (GPa) = 16.47378 26.40346 21.43862
# Shear Modulus (GPa) = -27.83948 24.93562 -1.45193
#
# Velocity S-wave (km/s) = -3.62526 3.43099 -0.82791
# Velocity P-wave (km/s) = 3.12192 5.30662 3.03429
#
# Compressibility (1/GPa) = 0.06070253
#
# Stress axis : x y z
#
# Youngs Moduli (GPa) = 66.98326 57.62104 25.39011
#
# Poissons Ratio (x) = 0.23327 -0.09762
# Poissons Ratio (y) = 0.27117 0.13406
# Poissons Ratio (z) = -0.25754 0.30423
#
# Static dielectric constant tensor:
#      x y z
#    x 1.770010 0.000000 0.058400 
#    y 0.000000 1.777160 0.000000 
#    z 0.058400 0.000000 1.870470 
# 
# From -- ./inp_files/218650.got.cif
#   From: 2010.05.17/outbox.cif.g08.bks.cpg/sg15_110_cif.got.tgz:218650.got - 2010.06.03 18:47:42.
