data_PCOD9282155
_publ_section_title
;
Structure prediction by ZEFSAII (Michael W. Deem and Ramdas Pophale) SiO2 
 PCOD9282155
Probable space group: C 2/C
;
_chemical_formula_sum "Si O2"
_cell_formula_units_Z 52
_cell_length_a 11.790056
_cell_length_b 32.383202
_cell_length_c 11.105680
_cell_angle_alpha 90.000000
_cell_angle_beta 141.762639
_cell_angle_gamma 90.000000
_cell_volume 2624.314137
_symmetry_space_group_name_H-M "C 2/C"
_symmetry_group_IT_number 15
_symmetry_cell_setting 'monoclinic'
loop_
_space_group_symop_operation_xyz
x,y,z
-x,y,1/2-z
-x,-y,-z
x,-y,1/2+z
1/2+x,1/2+y,z
1/2-x,1/2+y,1/2-z
1/2-x,1/2-y,-z
1/2+x,1/2-y,1/2+z
loop_
_atom_site_type_symbol
_atom_site_label
_atom_site_fract_x
_atom_site_fract_y
_atom_site_fract_z
Si Si1 0.800427 0.078194 0.796129
Si Si2 0.000000 0.733321 0.250000
Si Si3 0.842198 0.806199 0.956323
Si Si4 0.000000 0.124089 0.750000
Si Si5 0.118578 0.582698 0.100998
Si Si6 0.690822 0.500501 0.337596
Si Si7 0.450788 0.639388 0.345169
Si Si8 0.000000 0.452949 0.750000
O O1 0.877868 0.096964 0.736066
O O2 0.583573 0.085585 0.624738
O O3 0.828429 0.029397 0.795971
O O4 0.915054 0.103193 0.991302
O O5 0.083274 0.765163 0.416627
O O6 0.129147 0.703991 0.278326
O O7 0.949421 0.819798 0.926653
O O8 0.873839 0.845500 0.068101
O O9 0.227338 0.543888 0.136173
O O10 0.245540 0.621815 0.185846
O O11 0.091026 0.573733 0.219824
O O12 0.500000 0.504005 0.250000
O O13 0.844700 0.479933 0.552967
O O14 0.500000 0.647827 0.250000
#
# Coordination Sequence:
#
# PCOD9282155 Si02
#       8
#     8   4   8   4   8   8   8   4
#     4  10  21  39  58  84 121 157 211 263 309 347
#     4   9  18  39  68  98 122 146 188 244 306 360
#     4   9  20  36  64  96 124 150 189 243 301 369
#     4   9  18  34  60  93 120 152 188 262 313 344
#     4  11  25  36  60  85 114 168 210 263 309 359
#     4  11  22  38  57  83 117 160 213 266 315 360
#     4  11  25  41  58  89 127 165 203 241 302 370
#     4  10  22  37  56  85 108 148 224 266 319 356
#
# _framework density 19.814700999999999
#
# number of rings (size 3 to 8) (size 9 to 14) (size 15 to 20)
#    0.000    1.846    0.769    3.231    8.615    6.769 
#    0.000    0.769    0.000    0.000    0.000    0.000 
#    0.000    0.000    0.000    0.000    0.000    0.000 
#
# Total GULP energy -145196.817205 kJ/mol
# GULP energy per Si atom -5584.492969 kJ/mol
# Density = 1.976960 g / cm^3
# Si number density = 19.814701 Si / 1000 Ang^3
#
#
#
# Elastic Constant Matrix: (Units=GPa)
#
#
# Indices 1 2 3 4 5 6 
#
# 1 99.9692 25.8800 37.7600 0.0000 -4.0461 0.0000
# 2 25.8800 63.7790 24.0580 0.0000 7.7279 0.0000
# 3 37.7600 24.0580 59.3427 0.0000 7.3713 0.0000
# 4 0.0000 0.0000 0.0000 44.0947 0.0000 8.3111
# 5 -4.0461 7.7279 7.3713 0.0000 32.1225 0.0000
# 6 0.0000 0.0000 0.0000 8.3111 0.0000 60.1195
#
#
#
# Elastic Compliance Matrix: (Units=1/GPa)
#
#
# Indices 1 2 3 4 5 6 
#
# 1 0.014116 -0.003151 -0.008255 0.000000 0.004430 0.000000
# 2 -0.003151 0.019463 -0.005409 0.000000 -0.003838 0.000000
# 3 -0.008255 -0.005409 0.024976 0.000000 -0.005470 0.000000
# 4 0.000000 0.000000 0.000000 0.023285 0.000000 -0.003219
# 5 0.004430 -0.003838 -0.005470 0.000000 0.033867 0.000000
# 6 0.000000 0.000000 0.000000 -0.003219 0.000000 0.017079
#
#
# Mechanical properties :
#
#
# Convention : Reuss Voigt Hill
#
# Bulk Modulus (GPa) = 40.11901 44.27632 42.19767
# Shear Modulus (GPa) = 28.61643 36.29354 32.45499
#
# Velocity S-wave (km/s) = 3.80439 4.28442 4.05152
# Velocity P-wave (km/s) = 6.29197 6.84607 6.57486
#
# Compressibility (1/GPa) = 0.02492584
#
# Stress axis : x y z
#
# Youngs Moduli (GPa) = 70.84058 51.37961 40.03803
#
# Poissons Ratio (x) = 0.16189 0.33052
# Poissons Ratio (y) = 0.22321 0.21656
# Poissons Ratio (z) = 0.58480 0.27790
#
# Static dielectric constant tensor:
#      x y z
#    x 1.703670 0.000000 -0.005460 
#    y 0.000000 1.679810 0.000000 
#    z -0.005460 0.000000 1.771130 
# 
# From -- ./inp_files/92671.got.cif
#   From: 2010.05.17/outbox.cif.g08.bks.cpg/sg15_47_cif.got.tgz:92671.got - 2010.06.03 18:47:42.
