data_PCOD9282050
_publ_section_title
;
Structure prediction by ZEFSAII (Michael W. Deem and Ramdas Pophale) SiO2 
 PCOD9282050
Probable space group: C 2/C
;
_chemical_formula_sum "Si O2"
_cell_formula_units_Z 52
_cell_length_a 16.312804
_cell_length_b 30.768541
_cell_length_c 9.159610
_cell_angle_alpha 90.000000
_cell_angle_beta 35.999189
_cell_angle_gamma 90.000000
_cell_volume 2702.232593
_symmetry_space_group_name_H-M "C 2/C"
_symmetry_group_IT_number 15
_symmetry_cell_setting 'monoclinic'
loop_
_space_group_symop_operation_xyz
x,y,z
-x,y,1/2-z
-x,-y,-z
x,-y,1/2+z
1/2+x,1/2+y,z
1/2-x,1/2+y,1/2-z
1/2-x,1/2-y,-z
1/2+x,1/2-y,1/2+z
loop_
_atom_site_type_symbol
_atom_site_label
_atom_site_fract_x
_atom_site_fract_y
_atom_site_fract_z
Si Si1 0.792328 0.527675 0.724403
Si Si2 0.550530 0.938327 0.015621
Si Si3 0.132211 0.931334 0.223886
Si Si4 0.773503 0.869501 0.669778
Si Si5 0.000000 0.997069 0.750000
Si Si6 0.493527 0.648175 0.433422
Si Si7 0.638966 0.711731 0.641381
O O1 0.843108 0.478057 0.666452
O O2 0.764519 0.543525 0.599790
O O3 0.915267 0.556963 0.610476
O O4 0.642246 0.529168 0.021557
O O5 0.500000 0.947010 0.250000
O O6 0.624962 0.891781 0.905040
O O7 0.090041 0.895415 0.403175
O O8 0.022322 0.969316 0.351383
O O9 0.154345 0.904332 0.043770
O O10 0.783336 0.825312 0.565117
O O11 0.859254 0.860986 0.694986
O O12 0.500000 0.654353 0.250000
O O13 0.418297 0.688024 0.628652
O O14 0.500000 0.724644 0.750000
O O15 0.750000 0.750000 0.500000
#
# Coordination Sequence:
#
# PCOD9282050 Si02
#       7
#     8   8   8   8   4   8   8
#     4  11  25  35  59  83 121 172 227 275 322 384
#     4  11  24  41  54  84 129 168 217 277 333 364
#     4  11  20  37  59  86 117 165 223 266 319 375
#     4  10  21  43  64  86 130 171 208 263 327 394
#     4  12  20  40  58  86 114 170 226 278 328 378
#     4  10  21  38  68  96 125 165 215 265 313 384
#     4   9  20  44  71 100 131 168 206 260 327 404
#
# _framework density 19.243347
#
# number of rings (size 3 to 8) (size 9 to 14) (size 15 to 20)
#    0.000    1.538    3.077    2.308    5.385    0.000 
#    5.538    3.846    0.000    0.000    0.000    0.000 
#    0.000    0.000    0.000    0.000    0.000    0.000 
#
# Total GULP energy -145009.675776 kJ/mol
# GULP energy per Si atom -5577.295222 kJ/mol
# Density = 1.919955 g / cm^3
# Si number density = 19.243347 Si / 1000 Ang^3
#
#
#
# Elastic Constant Matrix: (Units=GPa)
#
#
# Indices 1 2 3 4 5 6 
#
# 1 161.4714 76.3343 60.7768 0.0000 0.3385 0.0000
# 2 76.3343 104.2972 45.6251 0.0000 -13.0851 0.0000
# 3 60.7768 45.6251 96.8477 0.0000 -2.8921 0.0000
# 4 0.0000 0.0000 0.0000 31.1149 0.0000 -14.8277
# 5 0.3385 -13.0851 -2.8921 0.0000 41.7277 0.0000
# 6 0.0000 0.0000 0.0000 -14.8277 0.0000 28.1319
#
#
#
# Elastic Compliance Matrix: (Units=1/GPa)
#
#
# Indices 1 2 3 4 5 6 
#
# 1 0.010654 -0.006473 -0.003707 0.000000 -0.002373 0.000000
# 2 -0.006473 0.016512 -0.003567 0.000000 0.004983 0.000000
# 3 -0.003707 -0.003567 0.014330 0.000000 -0.000095 0.000000
# 4 0.000000 0.000000 0.000000 0.042919 0.000000 0.022622
# 5 -0.002373 0.004983 -0.000095 0.000000 0.025540 0.000000
# 6 0.000000 0.000000 0.000000 0.022622 0.000000 0.047470
#
#
# Mechanical properties :
#
#
# Convention : Reuss Voigt Hill
#
# Bulk Modulus (GPa) = 71.43267 80.89875 76.16571
# Shear Modulus (GPa) = 26.37329 32.18692 29.28011
#
# Velocity S-wave (km/s) = 3.70606 4.09421 3.90496
# Velocity P-wave (km/s) = 7.45080 8.03002 7.74583
#
# Compressibility (1/GPa) = 0.01399920
#
# Stress axis : x y z
#
# Youngs Moduli (GPa) = 93.86582 60.56365 69.78607
#
# Poissons Ratio (x) = 0.39205 0.25869
# Poissons Ratio (y) = 0.60763 0.24896
# Poissons Ratio (z) = 0.34795 0.21606
#
# Static dielectric constant tensor:
#      x y z
#    x 1.737000 0.000000 -0.011350 
#    y 0.000000 1.650290 0.000000 
#    z -0.011350 0.000000 1.741630 
# 
# From -- ./inp_files/44767.got.cif
#   From: 2010.05.17/outbox.cif.g08.bks.cpg/sg15_23_cif.got.tgz:44767.got - 2010.06.03 18:47:42.
