data_PCOD9282821
_publ_section_title
;
Structure prediction by ZEFSAII (Michael W. Deem and Ramdas Pophale) SiO2 
 PCOD9282821
Probable space group: C 2/C
;
_chemical_formula_sum "Si O2"
_cell_formula_units_Z 56
_cell_length_a 7.491603
_cell_length_b 20.524694
_cell_length_c 15.175818
_cell_angle_alpha 90.000000
_cell_angle_beta 79.368717
_cell_angle_gamma 90.000000
_cell_volume 2293.422486
_symmetry_space_group_name_H-M "C 2/C"
_symmetry_group_IT_number 15
_symmetry_cell_setting 'monoclinic'
loop_
_space_group_symop_operation_xyz
x,y,z
-x,y,1/2-z
-x,-y,-z
x,-y,1/2+z
1/2+x,1/2+y,z
1/2-x,1/2+y,1/2-z
1/2-x,1/2-y,-z
1/2+x,1/2-y,1/2+z
loop_
_atom_site_type_symbol
_atom_site_label
_atom_site_fract_x
_atom_site_fract_y
_atom_site_fract_z
Si Si1 0.921445 0.632912 0.358079
Si Si2 0.999392 0.494509 0.352298
Si Si3 0.699191 0.751855 0.344275
Si Si4 0.500000 0.660248 0.250000
Si Si5 0.987045 0.081911 0.923728
Si Si6 0.062466 0.367867 0.456894
Si Si7 0.360046 0.560996 0.406324
Si Si8 0.500000 0.651648 0.750000
O O1 0.780700 0.691212 0.390144
O O2 0.033963 0.639752 0.439272
O O3 0.000000 0.639333 0.250000
O O4 0.862609 0.556684 0.368569
O O5 0.980917 0.430071 0.412489
O O6 0.182840 0.529426 0.372546
O O7 0.000000 0.475434 0.250000
O O8 0.651232 0.711785 0.261878
O O9 0.557570 0.798928 0.406292
O O10 0.850103 0.802183 0.303145
O O11 0.442931 0.613638 0.333190
O O12 0.777937 0.110223 0.950009
O O13 0.070152 0.110487 0.826096
O O14 0.973743 0.005342 0.907319
O O15 0.108352 0.092445 0.999249
#
# Coordination Sequence:
#
# PCOD9282821 Si02
#       8
#     8   8   8   4   8   8   8   4
#     4  11  21  40  65  96 127 175 224 276 337 412
#     4  10  22  40  67  98 135 174 226 284 346 407
#     4  11  24  41  65  92 140 181 230 269 347 409
#     4  12  23  38  60  99 132 176 224 286 330 409
#     4   9  20  41  68  97 127 172 223 282 343 408
#     4  10  22  41  66  95 131 178 224 284 343 411
#     4  10  21  39  65 100 131 166 227 281 344 405
#     4  10  21  44  68  91 132 186 224 272 342 415
#
# _framework density 24.417655
#
# number of rings (size 3 to 8) (size 9 to 14) (size 15 to 20)
#    0.000    1.714    0.714    3.857    1.000    1.143 
#    2.571   16.429    0.000    0.000    0.000    0.000 
#    0.000    0.000    0.000    0.000    0.000    0.000 
#
# Total GULP energy -155984.378958 kJ/mol
# GULP energy per Si atom -5570.870677 kJ/mol
# Density = 2.436208 g / cm^3
# Si number density = 24.417655 Si / 1000 Ang^3
#
#
#
# Elastic Constant Matrix: (Units=GPa)
#
#
# Indices 1 2 3 4 5 6 
#
# 1 59.1672 20.6391 30.8395 0.0000 11.4587 0.0000
# 2 20.6391 167.4163 89.3300 0.0000 -0.4193 0.0000
# 3 30.8395 89.3300 151.7124 0.0000 20.5556 0.0000
# 4 0.0000 0.0000 0.0000 325.1776 0.0000 37.8813
# 5 11.4587 -0.4193 20.5556 0.0000 31.8766 0.0000
# 6 0.0000 0.0000 0.0000 37.8813 0.0000 90.7275
#
#
#
# Elastic Compliance Matrix: (Units=1/GPa)
#
#
# Indices 1 2 3 4 5 6 
#
# 1 0.019690 -0.001010 -0.002681 0.000000 -0.005362 0.000000
# 2 -0.001010 0.009190 -0.005776 0.000000 0.004209 0.000000
# 3 -0.002681 -0.005776 0.011415 0.000000 -0.006473 0.000000
# 4 0.000000 0.000000 0.000000 0.003232 0.000000 -0.001350
# 5 -0.005362 0.004209 -0.006473 0.000000 0.037528 0.000000
# 6 0.000000 0.000000 0.000000 -0.001350 0.000000 0.011586
#
#
# Mechanical properties :
#
#
# Convention : Reuss Voigt Hill
#
# Bulk Modulus (GPa) = 46.81788 73.32369 60.07078
# Shear Modulus (GPa) = 42.12465 105.38882 73.75674
#
# Velocity S-wave (km/s) = 4.15802 6.57682 5.50199
# Velocity P-wave (km/s) = 6.50136 9.36840 8.06333
#
# Compressibility (1/GPa) = 0.02135936
#
# Stress axis : x y z
#
# Youngs Moduli (GPa) = 50.78833 108.81014 87.60728
#
# Poissons Ratio (x) = 0.10992 0.23488
# Poissons Ratio (y) = 0.05131 0.50604
# Poissons Ratio (z) = 0.13617 0.62852
#
# Static dielectric constant tensor:
#      x y z
#    x 2.606240 0.000000 0.022640 
#    y 0.000000 1.925500 0.000000 
#    z 0.022640 0.000000 1.947550 
# 
# From -- ./inp_files/136504.got.cif
#   From: 2010.05.17/outbox.cif.g08.bks.cpg/sg15_69_cif.got.tgz:136504.got - 2010.06.03 18:47:42.
