data_PCOD9282362
_publ_section_title
;
Structure prediction by ZEFSAII (Michael W. Deem and Ramdas Pophale) SiO2 
 PCOD9282362
Probable space group: C 2/C
;
_chemical_formula_sum "Si O2"
_cell_formula_units_Z 40
_cell_length_a 25.654269
_cell_length_b 11.110741
_cell_length_c 15.176889
_cell_angle_alpha 90.000000
_cell_angle_beta 22.589497
_cell_angle_gamma 90.000000
_cell_volume 1661.725258
_symmetry_space_group_name_H-M "C 2/C"
_symmetry_group_IT_number 15
_symmetry_cell_setting 'monoclinic'
loop_
_space_group_symop_operation_xyz
x,y,z
-x,y,1/2-z
-x,-y,-z
x,-y,1/2+z
1/2+x,1/2+y,z
1/2-x,1/2+y,1/2-z
1/2-x,1/2-y,-z
1/2+x,1/2-y,1/2+z
loop_
_atom_site_type_symbol
_atom_site_label
_atom_site_fract_x
_atom_site_fract_y
_atom_site_fract_z
Si Si1 0.750278 0.121057 0.547855
Si Si2 0.904146 0.889772 0.315664
Si Si3 0.644771 0.998960 0.557926
Si Si4 0.656231 0.273986 0.253604
Si Si5 0.640533 0.755722 0.977826
O O1 0.750000 0.250000 0.500000
O O2 0.635353 0.049702 0.672805
O O3 0.758075 0.156101 0.638658
O O4 0.877797 0.029935 0.334354
O O5 0.756946 0.834524 0.571187
O O6 0.945964 0.809454 0.165698
O O7 0.000000 0.878545 0.250000
O O8 0.500000 0.957903 0.750000
O O9 0.691268 0.111098 0.424814
O O10 0.748792 0.891495 0.390561
O O11 0.606880 0.253696 0.428468
O O12 0.500000 0.742919 0.250000
#
# Coordination Sequence:
#
# PCOD9282362 Si02
#       5
#     8   8   8   8   8
#     4   9  19  38  62  87 128 164 209 266 317 382
#     4  10  21  41  64  97 129 167 219 268 325 378
#     4   9  19  39  61  85 126 168 213 263 316 383
#     4  10  22  39  65  93 131 168 216 270 317 384
#     4  10  21  39  61  90 129 169 212 261 324 386
#
# _framework density 24.071370000000002
#
# number of rings (size 3 to 8) (size 9 to 14) (size 15 to 20)
#    0.000    2.400    0.000    1.200    2.800    0.800 
#   14.400    4.000    0.000    0.000    0.000    0.000 
#    0.000    0.000    0.000    0.000    0.000    0.000 
#
# Total GULP energy -111632.488910 kJ/mol
# GULP energy per Si atom -5581.624445 kJ/mol
# Density = 2.401658 g / cm^3
# Si number density = 24.071370 Si / 1000 Ang^3
#
#
#
# Elastic Constant Matrix: (Units=GPa)
#
#
# Indices 1 2 3 4 5 6 
#
# 1 206.4489 44.2574 34.1559 0.0000 9.7514 0.0000
# 2 44.2574 120.4856 23.4867 0.0000 1.0144 0.0000
# 3 34.1559 23.4867 37.1032 0.0000 12.6018 0.0000
# 4 0.0000 0.0000 0.0000 22.5842 0.0000 -2.8834
# 5 9.7514 1.0144 12.6018 0.0000 44.3396 0.0000
# 6 0.0000 0.0000 0.0000 -2.8834 0.0000 29.5473
#
#
#
# Elastic Compliance Matrix: (Units=1/GPa)
#
#
# Indices 1 2 3 4 5 6 
#
# 1 0.005877 -0.001256 -0.004633 0.000000 0.000053 0.000000
# 2 -0.001256 0.009846 -0.005638 0.000000 0.001653 0.000000
# 3 -0.004633 -0.005638 0.038071 0.000000 -0.009672 0.000000
# 4 0.000000 0.000000 0.000000 0.044837 0.000000 0.004376
# 5 0.000053 0.001653 -0.009672 0.000000 0.025253 0.000000
# 6 0.000000 0.000000 0.000000 0.004376 0.000000 0.034271
#
#
# Mechanical properties :
#
#
# Convention : Reuss Voigt Hill
#
# Bulk Modulus (GPa) = 32.53108 63.09308 47.81208
# Shear Modulus (GPa) = 26.11556 36.77004 31.44280
#
# Velocity S-wave (km/s) = 3.29739 3.91262 3.61810
# Velocity P-wave (km/s) = 5.29536 6.83222 6.11228
#
# Compressibility (1/GPa) = 0.03073983
#
# Stress axis : x y z
#
# Youngs Moduli (GPa) = 170.15143 101.56132 26.26673
#
# Poissons Ratio (x) = 0.12757 0.12170
# Poissons Ratio (y) = 0.21373 0.14809
# Poissons Ratio (z) = 0.78834 0.57260
#
# Static dielectric constant tensor:
#      x y z
#    x 2.018320 0.000000 -0.005250 
#    y 0.000000 1.939940 0.000000 
#    z -0.005250 0.000000 1.939780 
# 
# From -- ./inp_files/151681.got.cif
#   From: 2010.05.17/outbox.cif.g08.bks.cpg/sg15_76_cif.got.tgz:151681.got - 2010.06.03 18:47:42.
