data_PCOD9282136
_publ_section_title
;
Structure prediction by ZEFSAII (Michael W. Deem and Ramdas Pophale) SiO2 
 PCOD9282136
Probable space group: C 2/C
;
_chemical_formula_sum "Si O2"
_cell_formula_units_Z 40
_cell_length_a 4.995814
_cell_length_b 25.687632
_cell_length_c 14.930309
_cell_angle_alpha 90.000000
_cell_angle_beta 90.400325
_cell_angle_gamma 90.000000
_cell_volume 1915.969216
_symmetry_space_group_name_H-M "C 2/C"
_symmetry_group_IT_number 15
_symmetry_cell_setting 'monoclinic'
loop_
_space_group_symop_operation_xyz
x,y,z
-x,y,1/2-z
-x,-y,-z
x,-y,1/2+z
1/2+x,1/2+y,z
1/2-x,1/2+y,1/2-z
1/2-x,1/2-y,-z
1/2+x,1/2-y,1/2+z
loop_
_atom_site_type_symbol
_atom_site_label
_atom_site_fract_x
_atom_site_fract_y
_atom_site_fract_z
Si Si1 0.322506 0.291453 0.421141
Si Si2 0.068916 0.602251 0.855703
Si Si3 0.562165 0.556009 0.958329
Si Si4 0.647970 0.652951 0.062258
Si Si5 0.355744 0.188526 0.338474
O O1 0.250000 0.250000 0.500000
O O2 0.130073 0.337928 0.387741
O O3 0.573598 0.318952 0.468751
O O4 0.381179 0.250947 0.342886
O O5 0.337697 0.572150 0.885675
O O6 0.000000 0.602076 0.750000
O O7 0.839329 0.571453 0.909995
O O8 0.500000 0.500000 0.000000
O O9 0.564696 0.594267 0.044136
O O10 0.450317 0.674978 0.138942
O O11 0.954402 0.663172 0.085335
O O12 0.500000 0.168909 0.250000
#
# Coordination Sequence:
#
# PCOD9282136 Si02
#       5
#     8   8   8   8   8
#     4   9  20  36  59  85 120 163 198 237 300 377
#     4  11  24  41  64  99 130 157 209 276 320 369
#     4  11  23  44  68  88 119 168 213 259 324 389
#     4  10  21  39  57  83 117 158 207 251 300 374
#     4  11  22  36  56  87 123 160 201 249 304 367
#
# _framework density 20.87716
#
# number of rings (size 3 to 8) (size 9 to 14) (size 15 to 20)
#    0.000    1.600    0.000    6.000    0.000   11.200 
#    0.000    6.000    0.000    0.000    0.000    0.000 
#    0.000    0.000    0.000    0.000    0.000    0.000 
#
# Total GULP energy -111448.852332 kJ/mol
# GULP energy per Si atom -5572.442617 kJ/mol
# Density = 2.082964 g / cm^3
# Si number density = 20.877160 Si / 1000 Ang^3
#
#
#
# Elastic Constant Matrix: (Units=GPa)
#
#
# Indices 1 2 3 4 5 6 
#
# 1 83.4116 0.2058 9.9874 0.0000 18.7678 0.0000
# 2 0.2058 134.9460 25.9256 0.0000 19.4778 0.0000
# 3 9.9874 25.9256 90.9451 0.0000 -3.5419 0.0000
# 4 0.0000 0.0000 0.0000 18.5527 0.0000 -5.4076
# 5 18.7678 19.4778 -3.5419 0.0000 27.4102 0.0000
# 6 0.0000 0.0000 0.0000 -5.4076 0.0000 17.6722
#
#
#
# Elastic Compliance Matrix: (Units=1/GPa)
#
#
# Indices 1 2 3 4 5 6 
#
# 1 0.015089 0.002291 -0.002790 0.000000 -0.012320 0.000000
# 2 0.002291 0.009263 -0.003226 0.000000 -0.008568 0.000000
# 3 -0.002790 -0.003226 0.012448 0.000000 0.005811 0.000000
# 4 0.000000 0.000000 0.000000 0.059179 0.000000 0.018108
# 5 -0.012320 -0.008568 0.005811 0.000000 0.051758 0.000000
# 6 0.000000 0.000000 0.000000 0.018108 0.000000 0.062127
#
#
# Mechanical properties :
#
#
# Convention : Reuss Voigt Hill
#
# Bulk Modulus (GPa) = 34.07031 42.39336 38.23183
# Shear Modulus (GPa) = 22.01693 30.93928 26.47810
#
# Velocity S-wave (km/s) = 3.25097 3.85381 3.56516
# Velocity P-wave (km/s) = 5.51785 6.33661 5.94135
#
# Compressibility (1/GPa) = 0.02935107
#
# Stress axis : x y z
#
# Youngs Moduli (GPa) = 66.27233 107.95186 80.33414
#
# Poissons Ratio (x) = -0.24735 0.22414
# Poissons Ratio (y) = -0.15185 0.25916
# Poissons Ratio (z) = 0.18490 0.34826
#
# Static dielectric constant tensor:
#      x y z
#    x 1.767340 0.000000 -0.032850 
#    y 0.000000 1.800630 0.000000 
#    z -0.032850 0.000000 1.855370 
# 
# From -- ./inp_files/129110.got.cif
#   From: 2010.05.17/outbox.cif.g08.bks.cpg/sg15_65_cif.got.tgz:129110.got - 2010.06.03 18:47:42.
