data_PCOD9282425
_publ_section_title
;
Structure prediction by ZEFSAII (Michael W. Deem and Ramdas Pophale) SiO2 
 PCOD9282425
Probable space group: C 2/C
;
_chemical_formula_sum "Si O2"
_cell_formula_units_Z 48
_cell_length_a 15.671203
_cell_length_b 13.930424
_cell_length_c 15.851717
_cell_angle_alpha 90.000000
_cell_angle_beta 29.664133
_cell_angle_gamma 90.000000
_cell_volume 1712.668982
_symmetry_space_group_name_H-M "C 2/C"
_symmetry_group_IT_number 15
_symmetry_cell_setting 'monoclinic'
loop_
_space_group_symop_operation_xyz
x,y,z
-x,y,1/2-z
-x,-y,-z
x,-y,1/2+z
1/2+x,1/2+y,z
1/2-x,1/2+y,1/2-z
1/2-x,1/2-y,-z
1/2+x,1/2-y,1/2+z
loop_
_atom_site_type_symbol
_atom_site_label
_atom_site_fract_x
_atom_site_fract_y
_atom_site_fract_z
Si Si1 0.978111 0.436585 0.866947
Si Si2 0.132655 0.947274 0.714260
Si Si3 0.647004 0.238513 0.444224
Si Si4 0.727956 0.767993 0.420966
Si Si5 0.621821 0.880290 0.225648
Si Si6 0.484490 0.375148 0.089754
O O1 0.932857 0.341136 0.957391
O O2 0.127345 0.513369 0.760011
O O3 0.000000 0.408914 0.750000
O O4 0.800160 0.495960 0.034600
O O5 0.214205 0.848482 0.679869
O O6 0.000000 0.939133 0.750000
O O7 0.047887 0.013322 0.861497
O O8 0.477023 0.185975 0.622227
O O9 0.613773 0.317156 0.399313
O O10 0.721582 0.318114 0.444715
O O11 0.750000 0.750000 0.500000
O O12 0.678007 0.666855 0.421985
O O13 0.895090 0.823921 0.247074
O O14 0.500000 0.892768 0.250000
#
# Coordination Sequence:
#
# PCOD9282425 Si02
#       6
#     8   8   8   8   8   8
#     4   9  19  35  59  90 116 153 211 267 303 355
#     4  10  22  41  65  91 126 173 218 257 310 384
#     4  11  23  40  61  92 128 163 206 267 323 371
#     4  11  21  38  62  88 122 167 216 262 312 381
#     4  10  21  39  62  88 121 167 214 255 308 384
#     4  11  23  39  60  91 126 163 207 266 324 371
#
# _framework density 28.026430999999999
#
# number of rings (size 3 to 8) (size 9 to 14) (size 15 to 20)
#    0.000    1.667    0.000    5.500    0.000    4.000 
#    0.000    8.333    0.000    0.000    0.000    0.000 
#    0.000    0.000    0.000    0.000    0.000    0.000 
#
# Total GULP energy -134156.495989 kJ/mol
# GULP energy per Si atom -5589.854000 kJ/mol
# Density = 2.796264 g / cm^3
# Si number density = 28.026431 Si / 1000 Ang^3
#
#
#
# Elastic Constant Matrix: (Units=GPa)
#
#
# Indices 1 2 3 4 5 6 
#
# 1 75.2793 41.9210 11.7644 0.0161 1.8680 0.0110
# 2 41.9210 229.1098 54.6315 -0.0126 -11.1566 -0.0098
# 3 11.7644 54.6315 73.1992 -0.0158 3.0441 -0.0123
# 4 0.0161 -0.0126 -0.0158 -305.4887 0.0009 -248.2795
# 5 1.8680 -11.1566 3.0441 0.0009 39.4344 0.0014
# 6 0.0110 -0.0098 -0.0123 -248.2795 0.0014 -120.7454
#
#
#
# Elastic Compliance Matrix: (Units=1/GPa)
#
#
# Indices 1 2 3 4 5 6 
#
# 1 0.014883 -0.002722 -0.000300 0.000001 -0.001452 0.000000
# 2 -0.002722 0.005940 -0.004084 0.000000 0.002125 0.000000
# 3 -0.000300 -0.004084 0.016859 -0.000001 -0.002443 0.000000
# 4 0.000001 0.000000 -0.000001 0.004877 0.000000 -0.010029
# 5 -0.001452 0.002125 -0.002443 0.000000 0.026217 0.000000
# 6 0.000000 0.000000 0.000000 -0.010029 0.000000 0.012340
#
#
# Mechanical properties :
#
#
# Convention : Reuss Voigt Hill
#
# Bulk Modulus (GPa) = 42.60828 66.02468 54.31648
# Shear Modulus (GPa) = 48.47197 -59.40851 -5.46827
#
# Velocity S-wave (km/s) = 4.16325 -4.60905 -1.39834
# Velocity P-wave (km/s) = 6.19242 2.17147 4.10066
#
# Compressibility (1/GPa) = 0.02346962
#
# Stress axis : x y z
#
# Youngs Moduli (GPa) = 67.19182 168.34434 59.31432
#
# Poissons Ratio (x) = 0.45830 0.01778
# Poissons Ratio (y) = 0.18292 0.24225
# Poissons Ratio (z) = 0.02014 0.68756
#
# Static dielectric constant tensor:
#      x y z
#    x 2.324200 0.000000 -0.123290 
#    y 0.000000 2.198600 0.000000 
#    z -0.123290 0.000000 2.319320 
# 
# From -- ./inp_files/211322.got.cif
#   From: 2010.05.17/outbox.cif.g08.bks.cpg/sg15_106_cif.got.tgz:211322.got - 2010.06.03 18:47:42.
