data_PCOD9282811
_publ_section_title
;
Structure prediction by ZEFSAII (Michael W. Deem and Ramdas Pophale) SiO2 
 PCOD9282811
Probable space group: C 2/C
;
_chemical_formula_sum "Si O2"
_cell_formula_units_Z 56
_cell_length_a 13.571561
_cell_length_b 15.264452
_cell_length_c 21.326447
_cell_angle_alpha 90.000000
_cell_angle_beta 39.608227
_cell_angle_gamma 90.000000
_cell_volume 2816.652705
_symmetry_space_group_name_H-M "C 2/C"
_symmetry_group_IT_number 15
_symmetry_cell_setting 'monoclinic'
loop_
_space_group_symop_operation_xyz
x,y,z
-x,y,1/2-z
-x,-y,-z
x,-y,1/2+z
1/2+x,1/2+y,z
1/2-x,1/2+y,1/2-z
1/2-x,1/2-y,-z
1/2+x,1/2-y,1/2+z
loop_
_atom_site_type_symbol
_atom_site_label
_atom_site_fract_x
_atom_site_fract_y
_atom_site_fract_z
Si Si1 0.656754 0.696439 0.992627
Si Si2 0.887886 0.929556 0.248556
Si Si3 0.691610 0.689362 0.471286
Si Si4 0.658443 0.049704 0.429822
Si Si5 0.200036 0.254532 0.330319
Si Si6 0.649400 0.235658 0.373231
Si Si7 0.836309 0.999696 0.968118
O O1 0.483095 0.736531 0.081030
O O2 0.640291 0.591828 0.008181
O O3 0.750000 0.750000 0.000000
O O4 0.735372 0.710376 0.885792
O O5 0.763699 0.854051 0.295381
O O6 0.000000 0.897431 0.250000
O O7 0.002383 0.964093 0.139193
O O8 0.792242 0.011397 0.320518
O O9 0.750000 0.750000 0.500000
O O10 0.752057 0.717842 0.372913
O O11 0.508610 0.711443 0.560899
O O12 0.725339 0.586815 0.466863
O O13 0.623096 0.146242 0.423635
O O14 0.500000 0.000000 0.500000
O O15 0.723489 0.030467 0.467053
O O16 0.270625 0.215474 0.231813
#
# Coordination Sequence:
#
# PCOD9282811 Si02
#       7
#     8   8   8   8   8   8   8
#     4  11  24  44  68  97 140 184 232 279 342 412
#     4  10  21  39  64  98 132 174 226 279 339 413
#     4  11  23  42  68  99 135 177 223 288 347 405
#     4  11  21  38  65  97 130 175 228 277 338 409
#     4  11  24  41  66  99 135 175 226 287 343 404
#     4  11  23  41  64  97 134 176 224 282 336 407
#     4  11  22  42  69  95 135 183 228 277 346 416
#
# _framework density 19.881755999999999
#
# number of rings (size 3 to 8) (size 9 to 14) (size 15 to 20)
#    0.000    1.143    2.857    5.143    0.000    2.857 
#    2.571    0.000    0.000    1.714    0.000    0.000 
#    0.000    0.000    0.000    0.000    0.000    0.000 
#
# Total GULP energy -156058.465896 kJ/mol
# GULP energy per Si atom -5573.516639 kJ/mol
# Density = 1.983650 g / cm^3
# Si number density = 19.881756 Si / 1000 Ang^3
#
#
#
# Elastic Constant Matrix: (Units=GPa)
#
#
# Indices 1 2 3 4 5 6 
#
# 1 86.5460 45.6289 31.1443 -0.0001 18.9138 0.0000
# 2 45.6289 154.4025 31.4363 -0.0002 15.6121 0.0000
# 3 31.1443 31.4363 94.7765 -0.0006 33.0765 0.0002
# 4 -0.0001 -0.0002 -0.0006 11.4019 0.0002 0.4427
# 5 18.9138 15.6121 33.0765 0.0002 34.8442 -0.0001
# 6 0.0000 0.0000 0.0002 0.4427 -0.0001 29.1819
#
#
#
# Elastic Compliance Matrix: (Units=1/GPa)
#
#
# Indices 1 2 3 4 5 6 
#
# 1 0.015245 -0.003591 -0.002231 0.000000 -0.004548 0.000000
# 2 -0.003591 0.007836 -0.001307 0.000000 -0.000321 0.000000
# 3 -0.002231 -0.001307 0.016585 0.000001 -0.013947 0.000000
# 4 0.000000 0.000000 0.000001 0.087756 -0.000002 -0.001331
# 5 -0.004548 -0.000321 -0.013947 -0.000002 0.044552 0.000000
# 6 0.000000 0.000000 0.000000 -0.001331 0.000000 0.034288
#
#
# Mechanical properties :
#
#
# Convention : Reuss Voigt Hill
#
# Bulk Modulus (GPa) = 39.35803 61.34935 50.35369
# Shear Modulus (GPa) = 21.83502 30.25330 26.04416
#
# Velocity S-wave (km/s) = 3.31757 3.90508 3.62325
# Velocity P-wave (km/s) = 5.87487 7.15940 6.54870
#
# Compressibility (1/GPa) = 0.02540777
#
# Stress axis : x y z
#
# Youngs Moduli (GPa) = 65.59694 127.61004 60.29391
#
# Poissons Ratio (x) = 0.45824 0.13453
# Poissons Ratio (y) = 0.23555 0.07881
# Poissons Ratio (z) = 0.14636 0.16681
#
# Static dielectric constant tensor:
#      x y z
#    x 1.731710 0.000000 0.058150 
#    y 0.000000 1.884400 0.000000 
#    z 0.058150 0.000000 1.728920 
# 
# From -- ./inp_files/178359.got.cif
#   From: 2010.05.17/outbox.cif.g08.bks.cpg/sg15_90_cif.got.tgz:178359.got - 2010.06.03 18:47:42.
