data_PCOD9282489
_publ_section_title
;
Structure prediction by ZEFSAII (Michael W. Deem and Ramdas Pophale) SiO2 
 PCOD9282489
Probable space group: C 2/C
;
_chemical_formula_sum "Si O2"
_cell_formula_units_Z 48
_cell_length_a 28.448885
_cell_length_b 14.797521
_cell_length_c 8.230381
_cell_angle_alpha 90.000000
_cell_angle_beta 35.073950
_cell_angle_gamma 90.000000
_cell_volume 1990.970749
_symmetry_space_group_name_H-M "C 2/C"
_symmetry_group_IT_number 15
_symmetry_cell_setting 'monoclinic'
loop_
_space_group_symop_operation_xyz
x,y,z
-x,y,1/2-z
-x,-y,-z
x,-y,1/2+z
1/2+x,1/2+y,z
1/2-x,1/2+y,1/2-z
1/2-x,1/2-y,-z
1/2+x,1/2-y,1/2+z
loop_
_atom_site_type_symbol
_atom_site_label
_atom_site_fract_x
_atom_site_fract_y
_atom_site_fract_z
Si Si1 0.406578 0.473120 0.707753
Si Si2 0.857172 0.444613 0.856109
Si Si3 0.903122 0.380001 0.069695
Si Si4 0.319526 0.614985 0.755408
Si Si5 0.905075 0.190222 0.984882
Si Si6 0.918136 0.265083 0.579510
O O1 0.500000 0.500000 0.500000
O O2 0.357805 0.563682 0.802615
O O3 0.382199 0.407276 0.622702
O O4 0.372530 0.419067 0.954806
O O5 0.855674 0.419225 0.048784
O O6 0.884817 0.547611 0.759552
O O7 0.918327 0.372820 0.599202
O O8 0.771116 0.418956 0.019789
O O9 0.874185 0.276885 0.176126
O O10 0.000000 0.379675 0.750000
O O11 0.340462 0.720838 0.709765
O O12 0.905757 0.226396 0.797706
O O13 0.000000 0.183506 0.750000
O O14 0.000000 0.236807 0.250000
#
# Coordination Sequence:
#
# PCOD9282489 Si02
#       6
#     8   8   8   8   8   8
#     4  12  24  41  66  94 128 171 217 264 322 391
#     4  11  24  42  62  95 130 167 212 269 329 382
#     4  10  22  41  66  91 123 167 218 265 316 389
#     4  12  24  40  62  94 131 168 212 271 329 384
#     4  10  21  39  62  93 122 157 212 266 310 370
#     4  11  23  41  66  93 126 170 217 263 319 392
#
# _framework density 24.108841999999999
#
# number of rings (size 3 to 8) (size 9 to 14) (size 15 to 20)
#    0.000    1.000    0.000    8.000    0.000    4.000 
#    0.000    9.167    0.000    0.000    0.000    1.167 
#    0.000    0.000    0.000    0.000    0.000    0.000 
#
# Total GULP energy -133905.743390 kJ/mol
# GULP energy per Si atom -5579.405975 kJ/mol
# Density = 2.405397 g / cm^3
# Si number density = 24.108842 Si / 1000 Ang^3
#
#
#
# Elastic Constant Matrix: (Units=GPa)
#
#
# Indices 1 2 3 4 5 6 
#
# 1 60.5097 -13.7772 3.0063 0.0000 -8.6354 0.0000
# 2 -13.7772 131.0594 7.4178 0.0000 10.3757 0.0000
# 3 3.0063 7.4178 44.7477 0.0000 -4.0387 0.0000
# 4 0.0000 0.0000 0.0000 21.0033 0.0000 3.4737
# 5 -8.6354 10.3757 -4.0387 0.0000 31.3233 0.0000
# 6 0.0000 0.0000 0.0000 3.4737 0.0000 42.2689
#
#
#
# Elastic Compliance Matrix: (Units=1/GPa)
#
#
# Indices 1 2 3 4 5 6 
#
# 1 0.017533 0.001573 -0.001062 0.000000 0.004176 0.000000
# 2 0.001573 0.008085 -0.001668 0.000000 -0.002459 0.000000
# 3 -0.001062 -0.001668 0.022986 0.000000 0.003223 0.000000
# 4 0.000000 0.000000 0.000000 0.048268 0.000000 -0.003967
# 5 0.004176 -0.002459 0.003223 0.000000 0.034307 0.000000
# 6 0.000000 0.000000 0.000000 -0.003967 0.000000 0.023984
#
#
# Mechanical properties :
#
#
# Convention : Reuss Voigt Hill
#
# Bulk Modulus (GPa) = 21.60296 25.51230 23.55763
# Shear Modulus (GPa) = 28.91743 34.89708 31.90726
#
# Velocity S-wave (km/s) = 3.46707 3.80870 3.64190
# Velocity P-wave (km/s) = 5.00075 5.47236 5.24186
#
# Compressibility (1/GPa) = 0.04628995
#
# Stress axis : x y z
#
# Youngs Moduli (GPa) = 57.03522 123.69270 43.50421
#
# Poissons Ratio (x) = -0.19452 0.04619
# Poissons Ratio (y) = -0.08969 0.07256
# Poissons Ratio (z) = 0.06056 0.20630
#
# Static dielectric constant tensor:
#      x y z
#    x 1.996260 0.000000 -0.019850 
#    y 0.000000 2.072250 0.000000 
#    z -0.019850 0.000000 1.916500 
# 
# From -- ./inp_files/66420.got.cif
#   From: 2010.05.17/outbox.cif.g08.bks.cpg/sg15_34_cif.got.tgz:66420.got - 2010.06.03 18:47:42.
