data_PCOD9282228
_publ_section_title
;
Structure prediction by ZEFSAII (Michael W. Deem and Ramdas Pophale) SiO2 
 PCOD9282228
Probable space group: C 2/C
;
_chemical_formula_sum "Si O2"
_cell_formula_units_Z 48
_cell_length_a 11.388274
_cell_length_b 19.997649
_cell_length_c 8.822945
_cell_angle_alpha 90.000000
_cell_angle_beta 98.551836
_cell_angle_gamma 90.000000
_cell_volume 1986.985857
_symmetry_space_group_name_H-M "C 2/C"
_symmetry_group_IT_number 15
_symmetry_cell_setting 'monoclinic'
loop_
_space_group_symop_operation_xyz
x,y,z
-x,y,1/2-z
-x,-y,-z
x,-y,1/2+z
1/2+x,1/2+y,z
1/2-x,1/2+y,1/2-z
1/2-x,1/2-y,-z
1/2+x,1/2-y,1/2+z
loop_
_atom_site_type_symbol
_atom_site_label
_atom_site_fract_x
_atom_site_fract_y
_atom_site_fract_z
Si Si1 0.215606 0.905071 0.237518
Si Si2 0.808741 0.692277 0.287286
Si Si3 0.512077 0.596294 0.465220
Si Si4 0.696532 0.553654 0.241182
Si Si5 0.616997 0.202930 0.873575
Si Si6 0.400330 0.296586 0.099980
O O1 0.303045 0.863167 0.146136
O O2 0.192104 0.854990 0.370837
O O3 0.251605 0.980970 0.277852
O O4 0.088013 0.912301 0.130673
O O5 0.787292 0.614700 0.253434
O O6 0.695714 0.733576 0.333324
O O7 0.899174 0.702451 0.446843
O O8 0.838856 0.727307 0.133094
O O9 0.605250 0.577122 0.354441
O O10 0.393474 0.553126 0.419687
O O11 0.462844 0.673179 0.462492
O O12 0.500000 0.198482 0.750000
O O13 0.500000 0.297305 0.250000
#
# Coordination Sequence:
#
# PCOD9282228 Si02
#       6
#     8   8   8   8   8   8
#     4  10  21  39  59  95 128 165 213 267 318 382
#     4  10  22  41  62  94 123 167 223 267 312 388
#     4  10  22  36  61  97 129 164 206 266 333 371
#     4  11  23  34  66  95 128 168 212 263 323 386
#     4  10  22  40  67  88 125 176 217 263 322 382
#     4   9  21  37  60  87 128 164 203 268 323 372
#
# _framework density 24.157191999999998
#
# number of rings (size 3 to 8) (size 9 to 14) (size 15 to 20)
#    0.000    2.000    1.667    0.500   14.000    0.667 
#    0.000    3.333    0.000    3.000    0.000    0.000 
#    0.000    0.000    0.000    0.000    0.000    0.000 
#
# Total GULP energy -133975.608541 kJ/mol
# GULP energy per Si atom -5582.317023 kJ/mol
# Density = 2.410221 g / cm^3
# Si number density = 24.157192 Si / 1000 Ang^3
#
#
#
# Elastic Constant Matrix: (Units=GPa)
#
#
# Indices 1 2 3 4 5 6 
#
# 1 39.6201 36.8491 29.6000 0.0000 -7.6266 0.0000
# 2 36.8491 223.6231 31.6904 0.0000 -6.5653 0.0000
# 3 29.6000 31.6904 97.2357 0.0000 17.5845 0.0000
# 4 0.0000 0.0000 0.0000 32.4419 0.0000 2.7122
# 5 -7.6266 -6.5653 17.5845 0.0000 45.1907 0.0000
# 6 0.0000 0.0000 0.0000 2.7122 0.0000 14.3213
#
#
#
# Elastic Compliance Matrix: (Units=1/GPa)
#
#
# Indices 1 2 3 4 5 6 
#
# 1 0.041689 -0.004653 -0.013257 0.000000 0.011518 0.000000
# 2 -0.004653 0.005288 -0.000327 0.000000 0.000110 0.000000
# 3 -0.013257 -0.000327 0.015963 0.000000 -0.008496 0.000000
# 4 0.000000 0.000000 0.000000 0.031320 0.000000 -0.005931
# 5 0.011518 0.000110 -0.008496 0.000000 0.027394 0.000000
# 6 0.000000 0.000000 0.000000 -0.005931 0.000000 0.070949
#
#
# Mechanical properties :
#
#
# Convention : Reuss Voigt Hill
#
# Bulk Modulus (GPa) = 37.78462 61.86197 49.82329
# Shear Modulus (GPa) = 21.01729 35.88009 28.44869
#
# Velocity S-wave (km/s) = 2.95281 3.85811 3.43541
# Velocity P-wave (km/s) = 5.22500 6.74614 6.03369
#
# Compressibility (1/GPa) = 0.02646580
#
# Stress axis : x y z
#
# Youngs Moduli (GPa) = 23.98743 189.10500 62.64445
#
# Poissons Ratio (x) = 0.87984 0.83049
# Poissons Ratio (y) = 0.11160 0.02049
# Poissons Ratio (z) = 0.31801 0.06185
#
# Static dielectric constant tensor:
#      x y z
#    x 1.996980 0.000000 -0.026580 
#    y 0.000000 2.003040 0.000000 
#    z -0.026580 0.000000 2.055860 
# 
# From -- ./inp_files/88566.got.cif
#   From: 2010.05.17/outbox.cif.g08.bks.cpg/sg15_45_cif.got.tgz:88566.got - 2010.06.03 18:47:42.
