data_PCOD9282732
_publ_section_title
;
Structure prediction by ZEFSAII (Michael W. Deem and Ramdas Pophale) SiO2 
 PCOD9282732
Probable space group: C 2/C
;
_chemical_formula_sum "Si O2"
_cell_formula_units_Z 60
_cell_length_a 28.791144
_cell_length_b 9.342121
_cell_length_c 18.333964
_cell_angle_alpha 90.000000
_cell_angle_beta 149.827553
_cell_angle_gamma 90.000000
_cell_volume 2478.488768
_symmetry_space_group_name_H-M "C 2/C"
_symmetry_group_IT_number 15
_symmetry_cell_setting 'monoclinic'
loop_
_space_group_symop_operation_xyz
x,y,z
-x,y,1/2-z
-x,-y,-z
x,-y,1/2+z
1/2+x,1/2+y,z
1/2-x,1/2+y,1/2-z
1/2-x,1/2-y,-z
1/2+x,1/2-y,1/2+z
loop_
_atom_site_type_symbol
_atom_site_label
_atom_site_fract_x
_atom_site_fract_y
_atom_site_fract_z
Si Si1 0.812728 0.207225 0.517113
Si Si2 0.785653 0.370661 0.992287
Si Si3 0.136166 0.797471 0.686292
Si Si4 0.500000 0.828604 0.750000
Si Si5 0.738300 0.849612 0.199134
Si Si6 0.664824 0.010039 0.299336
Si Si7 0.065514 0.748227 0.066574
Si Si8 0.404464 0.934294 0.023837
O O1 0.750000 0.250000 0.500000
O O2 0.787650 0.314768 0.418797
O O3 0.920494 0.226470 0.674154
O O4 0.772628 0.055661 0.435903
O O5 0.692958 0.400325 0.818505
O O6 0.861101 0.342255 0.031362
O O7 0.750000 0.250000 0.000000
O O8 0.836197 0.482109 0.114834
O O9 0.190641 0.770549 0.685140
O O10 0.144565 0.638493 0.732920
O O11 0.027182 0.825045 0.532113
O O12 0.461846 0.935363 0.635943
O O13 0.849065 0.843411 0.347966
O O14 0.681399 0.993971 0.136409
O O15 0.604696 0.137766 0.181506
O O16 0.040454 0.654950 0.960694
#
# Coordination Sequence:
#
# PCOD9282732 Si02
#       8
#     8   8   8   4   8   8   8   8
#     4  10  22  39  61  90 131 163 216 274 330 385
#     4  10  23  41  65  95 139 175 214 276 342 403
#     4  11  22  39  63  98 132 165 225 268 333 397
#     4  10  24  38  66 102 122 166 230 272 326 406
#     4  10  22  39  60  96 129 168 213 282 327 388
#     4  10  21  39  64  90 126 175 207 268 336 390
#     4  11  23  38  68  97 126 170 228 271 325 412
#     4  11  22  39  68  93 131 172 223 269 336 393
#
# _framework density 24.208302
#
# number of rings (size 3 to 8) (size 9 to 14) (size 15 to 20)
#    0.000    1.600    2.667    2.000    5.600    4.267 
#    0.000    2.000    0.000    0.000    0.000    0.000 
#    0.000    0.000    0.000    0.000    0.000    0.000 
#
# Total GULP energy -167442.021489 kJ/mol
# GULP energy per Si atom -5581.400716 kJ/mol
# Density = 2.415320 g / cm^3
# Si number density = 24.208302 Si / 1000 Ang^3
#
#
#
# Elastic Constant Matrix: (Units=GPa)
#
#
# Indices 1 2 3 4 5 6 
#
# 1 157.8251 17.8885 69.2813 0.0000 9.4833 0.0000
# 2 17.8885 46.1428 23.8152 0.0000 11.6872 0.0000
# 3 69.2813 23.8152 129.0569 0.0000 24.4914 0.0000
# 4 0.0000 0.0000 0.0000 40.4888 0.0000 1.7731
# 5 9.4833 11.6872 24.4914 0.0000 53.4912 0.0000
# 6 0.0000 0.0000 0.0000 1.7731 0.0000 28.1241
#
#
#
# Elastic Compliance Matrix: (Units=1/GPa)
#
#
# Indices 1 2 3 4 5 6 
#
# 1 0.008363 -0.001159 -0.004427 0.000000 0.000798 0.000000
# 2 -0.001159 0.024733 -0.003236 0.000000 -0.003717 0.000000
# 3 -0.004427 -0.003236 0.011432 0.000000 -0.003742 0.000000
# 4 0.000000 0.000000 0.000000 0.024767 0.000000 -0.001561
# 5 0.000798 -0.003717 -0.003742 0.000000 0.021079 0.000000
# 6 0.000000 0.000000 0.000000 -0.001561 0.000000 0.035655
#
#
# Mechanical properties :
#
#
# Convention : Reuss Voigt Hill
#
# Bulk Modulus (GPa) = 37.19798 61.66610 49.43204
# Shear Modulus (GPa) = 32.75788 39.22347 35.99068
#
# Velocity S-wave (km/s) = 3.68253 4.02960 3.85997
# Velocity P-wave (km/s) = 5.78624 6.86867 6.35056
#
# Compressibility (1/GPa) = 0.02688318
#
# Stress axis : x y z
#
# Youngs Moduli (GPa) = 119.57593 40.43183 87.47065
#
# Poissons Ratio (x) = 0.04687 0.38722
# Poissons Ratio (y) = 0.13863 0.28309
# Poissons Ratio (z) = 0.52934 0.13085
#
# Static dielectric constant tensor:
#      x y z
#    x 1.997880 0.000000 0.051350 
#    y 0.000000 2.031940 0.000000 
#    z 0.051350 0.000000 2.028740 
# 
# From -- ./inp_files/222565.got.cif
#   From: 2010.05.17/outbox.cif.g08.bks.cpg/sg15_112_cif.got.tgz:222565.got - 2010.06.03 18:47:42.
