data_PCOD9282752
_publ_section_title
;
Structure prediction by ZEFSAII (Michael W. Deem and Ramdas Pophale) SiO2 
 PCOD9282752
Probable space group: C 2/C
;
_chemical_formula_sum "Si O2"
_cell_formula_units_Z 48
_cell_length_a 12.024093
_cell_length_b 19.428234
_cell_length_c 20.228568
_cell_angle_alpha 90.000000
_cell_angle_beta 151.202754
_cell_angle_gamma 90.000000
_cell_volume 2276.343795
_symmetry_space_group_name_H-M "C 2/C"
_symmetry_group_IT_number 15
_symmetry_cell_setting 'monoclinic'
loop_
_space_group_symop_operation_xyz
x,y,z
-x,y,1/2-z
-x,-y,-z
x,-y,1/2+z
1/2+x,1/2+y,z
1/2-x,1/2+y,1/2-z
1/2-x,1/2-y,-z
1/2+x,1/2-y,1/2+z
loop_
_atom_site_type_symbol
_atom_site_label
_atom_site_fract_x
_atom_site_fract_y
_atom_site_fract_z
Si Si1 0.836645 0.703909 0.107602
Si Si2 0.940850 0.543169 0.795909
Si Si3 0.739557 0.172990 0.122965
Si Si4 0.664774 0.100970 0.202525
Si Si5 0.300210 0.638675 0.017079
Si Si6 0.326904 0.675895 0.883275
O O1 0.000000 0.737699 0.250000
O O2 0.991648 0.642745 0.158922
O O3 0.750000 0.750000 0.000000
O O4 0.602808 0.675655 0.019030
O O5 0.832705 0.477726 0.774699
O O6 0.781117 0.611891 0.712434
O O7 0.000000 0.526851 0.750000
O O8 0.177629 0.564439 0.955319
O O9 0.596498 0.118732 0.091068
O O10 0.683201 0.181043 0.016059
O O11 0.739399 0.244511 0.163117
O O12 0.000000 0.146246 0.250000
O O13 0.924593 0.130651 0.341494
O O14 0.242578 0.666057 0.914501
#
# Coordination Sequence:
#
# PCOD9282752 Si02
#       6
#     8   8   8   8   8   8
#     4  12  25  44  70 103 144 185 229 293 358 418
#     4  10  24  39  65  97 128 180 236 288 349 415
#     4  10  21  39  64  92 129 169 220 286 350 405
#     4  11  23  41  62  96 137 180 226 287 351 420
#     4  10  22  39  66  91 129 178 227 291 348 404
#     4  11  22  41  67 100 128 169 242 285 345 414
#
# _framework density 21.086445999999999
#
# number of rings (size 3 to 8) (size 9 to 14) (size 15 to 20)
#    0.000    1.333    3.333    2.500    2.333    4.667 
#    0.000    0.000    0.000    0.000    0.000    0.000 
#    0.000    0.000    0.000    0.000    0.000    0.000 
#
# Total GULP energy -133715.041453 kJ/mol
# GULP energy per Si atom -5571.460061 kJ/mol
# Density = 2.103845 g / cm^3
# Si number density = 21.086446 Si / 1000 Ang^3
#
#
#
# Elastic Constant Matrix: (Units=GPa)
#
#
# Indices 1 2 3 4 5 6 
#
# 1 110.6811 57.9744 33.3537 -0.0016 1.4598 0.0021
# 2 57.9744 129.0631 32.3374 0.0020 -4.7672 -0.0033
# 3 33.3537 32.3374 78.4785 0.0036 5.0003 -0.0104
# 4 -0.0016 0.0020 0.0036 -1.4402 -0.0038 -4.3209
# 5 1.4598 -4.7672 5.0003 -0.0038 28.9371 0.0000
# 6 0.0021 -0.0033 -0.0104 -4.3209 0.0000 30.8611
#
#
#
# Elastic Compliance Matrix: (Units=1/GPa)
#
#
# Indices 1 2 3 4 5 6 
#
# 1 0.012584 -0.004860 -0.003290 -0.000014 -0.000867 -0.000004
# 2 -0.004860 0.010641 -0.002473 0.000004 0.002426 0.000001
# 3 -0.003290 -0.002473 0.015344 0.000022 -0.002893 0.000008
# 4 -0.000014 0.000004 0.000022 -0.488948 -0.000067 -0.068458
# 5 -0.000867 0.002426 -0.002893 -0.000067 0.035501 -0.000010
# 6 -0.000004 0.000001 0.000008 -0.068458 -0.000010 0.022818
#
#
# Mechanical properties :
#
#
# Convention : Reuss Voigt Hill
#
# Bulk Modulus (GPa) = 57.73398 62.83928 60.28663
# Shear Modulus (GPa) = -13.69716 24.64208 5.47246
#
# Velocity S-wave (km/s) = -2.55143 3.42222 1.61273
# Velocity P-wave (km/s) = 4.33121 6.74396 5.66746
#
# Compressibility (1/GPa) = 0.01732082
#
# Stress axis : x y z
#
# Youngs Moduli (GPa) = 79.46835 93.97941 65.17106
#
# Poissons Ratio (x) = 0.45675 0.21443
# Poissons Ratio (y) = 0.38623 0.16120
# Poissons Ratio (z) = 0.26147 0.23246
#
# Static dielectric constant tensor:
#      x y z
#    x 1.840860 0.000000 -0.130530 
#    y 0.000000 1.774990 0.000000 
#    z -0.130530 0.000000 1.909020 
# 
# From -- ./inp_files/240458.got.cif
#   From: 2010.05.17/outbox.cif.g08.bks.cpg/sg15_121_cif.got.tgz:240458.got - 2010.06.03 18:47:42.
