data_PCOD9282760
_publ_section_title
;
Structure prediction by ZEFSAII (Michael W. Deem and Ramdas Pophale) SiO2 
 PCOD9282760
Probable space group: C 2/C
;
_chemical_formula_sum "Si O2"
_cell_formula_units_Z 40
_cell_length_a 30.514530
_cell_length_b 8.901747
_cell_length_c 7.400747
_cell_angle_alpha 90.000000
_cell_angle_beta 65.797371
_cell_angle_gamma 90.000000
_cell_volume 1833.582973
_symmetry_space_group_name_H-M "C 2/C"
_symmetry_group_IT_number 15
_symmetry_cell_setting 'monoclinic'
loop_
_space_group_symop_operation_xyz
x,y,z
-x,y,1/2-z
-x,-y,-z
x,-y,1/2+z
1/2+x,1/2+y,z
1/2-x,1/2+y,1/2-z
1/2-x,1/2-y,-z
1/2+x,1/2-y,1/2+z
loop_
_atom_site_type_symbol
_atom_site_label
_atom_site_fract_x
_atom_site_fract_y
_atom_site_fract_z
Si Si1 0.304335 0.221103 0.356912
Si Si2 0.849226 0.421483 0.449211
Si Si3 0.447864 0.328678 0.763670
Si Si4 0.088853 0.652582 0.968303
Si Si5 0.899469 0.869673 0.220304
O O1 0.250000 0.250000 0.500000
O O2 0.314490 0.173298 0.133858
O O3 0.341675 0.356630 0.331092
O O4 0.323051 0.074059 0.431804
O O5 0.896555 0.491968 0.471427
O O6 0.865920 0.328486 0.246135
O O7 0.500000 0.368738 0.750000
O O8 0.452134 0.194275 0.608602
O O9 0.422779 0.467920 0.704098
O O10 0.415748 0.308921 0.997855
O O11 0.083164 0.763486 0.145762
#
# Coordination Sequence:
#
# PCOD9282760 Si02
#       5
#     8   8   8   8   8
#     4  10  21  39  64  93 124 169 213 263 323 382
#     4   9  20  42  62  87 129 170 208 262 318 377
#     4  12  24  40  65  99 130 168 215 270 327 379
#     4  10  21  41  66  86 127 172 207 262 321 378
#     4  11  23  39  64  93 132 167 207 266 328 376
#
# _framework density 21.815208999999999
#
# number of rings (size 3 to 8) (size 9 to 14) (size 15 to 20)
#    0.000    1.600    4.000    0.600    0.000    1.600 
#    0.000    6.000    0.000    0.000    0.000    0.000 
#    0.000    0.000    0.000    0.000    0.000    0.000 
#
# Total GULP energy -111433.419625 kJ/mol
# GULP energy per Si atom -5571.670981 kJ/mol
# Density = 2.176556 g / cm^3
# Si number density = 21.815209 Si / 1000 Ang^3
#
#
#
# Elastic Constant Matrix: (Units=GPa)
#
#
# Indices 1 2 3 4 5 6 
#
# 1 61.0913 11.7775 -2.7213 0.0000 -8.6103 0.0000
# 2 11.7775 54.4277 8.1516 0.0000 -0.5552 0.0000
# 3 -2.7213 8.1516 74.7076 0.0000 30.6217 0.0000
# 4 0.0000 0.0000 0.0000 16.9424 0.0000 5.1587
# 5 -8.6103 -0.5552 30.6217 0.0000 42.9686 0.0000
# 6 0.0000 0.0000 0.0000 5.1587 0.0000 22.1313
#
#
#
# Elastic Compliance Matrix: (Units=1/GPa)
#
#
# Indices 1 2 3 4 5 6 
#
# 1 0.017601 -0.003688 -0.000540 0.000000 0.003864 0.000000
# 2 -0.003688 0.019627 -0.002934 0.000000 0.001605 0.000000
# 3 -0.000540 -0.002934 0.019418 0.000000 -0.013984 0.000000
# 4 0.000000 0.000000 0.000000 0.063533 0.000000 -0.014809
# 5 0.003864 0.001605 -0.013984 0.000000 0.034034 0.000000
# 6 0.000000 0.000000 0.000000 -0.014809 0.000000 0.048637
#
#
# Mechanical properties :
#
#
# Convention : Reuss Voigt Hill
#
# Bulk Modulus (GPa) = 23.62928 24.96024 24.29476
# Shear Modulus (GPa) = 21.61876 27.94305 24.78090
#
# Velocity S-wave (km/s) = 3.15142 3.58285 3.37404
# Velocity P-wave (km/s) = 4.90887 5.34623 5.13221
#
# Compressibility (1/GPa) = 0.04232038
#
# Stress axis : x y z
#
# Youngs Moduli (GPa) = 56.81639 50.95055 51.49859
#
# Poissons Ratio (x) = 0.18792 0.02783
# Poissons Ratio (y) = 0.20955 0.15109
# Poissons Ratio (z) = 0.03070 0.14949
#
# Static dielectric constant tensor:
#      x y z
#    x 1.857810 0.000000 0.038280 
#    y 0.000000 1.864040 0.000000 
#    z 0.038280 0.000000 1.781530 
# 
# From -- ./inp_files/68253.got.cif
#   From: 2010.05.17/outbox.cif.g08.bks.cpg/sg15_35_cif.got.tgz:68253.got - 2010.06.03 18:47:42.
