data_PCOD9282670
_publ_section_title
;
Structure prediction by ZEFSAII (Michael W. Deem and Ramdas Pophale) SiO2 
 PCOD9282670
Probable space group: C 2/C
;
_chemical_formula_sum "Si O2"
_cell_formula_units_Z 52
_cell_length_a 5.381800
_cell_length_b 19.852768
_cell_length_c 24.364902
_cell_angle_alpha 90.000000
_cell_angle_beta 55.527756
_cell_angle_gamma 90.000000
_cell_volume 2146.107764
_symmetry_space_group_name_H-M "C 2/C"
_symmetry_group_IT_number 15
_symmetry_cell_setting 'monoclinic'
loop_
_space_group_symop_operation_xyz
x,y,z
-x,y,1/2-z
-x,-y,-z
x,-y,1/2+z
1/2+x,1/2+y,z
1/2-x,1/2+y,1/2-z
1/2-x,1/2-y,-z
1/2+x,1/2-y,1/2+z
loop_
_atom_site_type_symbol
_atom_site_label
_atom_site_fract_x
_atom_site_fract_y
_atom_site_fract_z
Si Si1 0.814716 0.236652 0.563616
Si Si2 0.329637 0.129162 0.604699
Si Si3 0.500000 0.828572 0.750000
Si Si4 0.825515 0.640471 0.480433
Si Si5 0.435688 0.007662 0.073097
Si Si6 0.154720 0.960167 0.789741
Si Si7 0.340034 0.712442 0.689712
O O1 0.514300 0.198093 0.585332
O O2 0.848617 0.224742 0.624014
O O3 0.869758 0.315800 0.550448
O O4 0.072383 0.195321 0.497974
O O5 0.239301 0.118085 0.552722
O O6 0.037576 0.145897 0.676602
O O7 0.519848 0.062071 0.593152
O O8 0.218388 0.879603 0.787292
O O9 0.470140 0.778247 0.703045
O O10 0.882679 0.576077 0.435395
O O11 0.087008 0.018092 0.134145
O O12 0.500000 0.000000 0.000000
O O13 0.500000 0.988225 0.750000
O O14 0.000000 0.972967 0.750000
O O15 0.000000 0.702930 0.750000
#
# Coordination Sequence:
#
# PCOD9282670 Si02
#       7
#     8   8   4   8   8   8   8
#     4  10  21  39  63  96 129 174 234 301 367 430
#     4  10  22  41  61  96 133 180 233 294 369 442
#     4  10  24  42  72 102 138 182 250 312 384 450
#     4   9  21  39  63  92 133 173 236 295 365 437
#     4  10  23  47  69 104 147 200 255 305 388 459
#     4  10  25  48  73 109 147 194 254 320 382 457
#     4  11  23  39  65  93 134 176 233 296 371 439
#
# _framework density 24.22991
#
# number of rings (size 3 to 8) (size 9 to 14) (size 15 to 20)
#    0.462    1.538    0.000    1.846    6.462    1.231 
#   23.538    0.000    0.000    0.000    0.000    0.000 
#    0.000    0.000    0.000    0.000    0.000    0.000 
#
# Total GULP energy -145031.410218 kJ/mol
# GULP energy per Si atom -5578.131162 kJ/mol
# Density = 2.417476 g / cm^3
# Si number density = 24.229910 Si / 1000 Ang^3
#
#
#
# Elastic Constant Matrix: (Units=GPa)
#
#
# Indices 1 2 3 4 5 6 
#
# 1 77.2200 4.7602 43.8271 0.0000 1.6772 0.0000
# 2 4.7602 107.2433 46.8829 0.0000 -5.5985 0.0000
# 3 43.8271 46.8829 146.5343 0.0000 -14.3759 0.0000
# 4 0.0000 0.0000 0.0000 43.9193 0.0000 -12.1210
# 5 1.6772 -5.5985 -14.3759 0.0000 28.9035 0.0000
# 6 0.0000 0.0000 0.0000 -12.1210 0.0000 12.1035
#
#
#
# Elastic Compliance Matrix: (Units=1/GPa)
#
#
# Indices 1 2 3 4 5 6 
#
# 1 0.016149 0.001584 -0.005675 0.000000 -0.003453 0.000000
# 2 0.001584 0.011001 -0.003988 0.000000 0.000055 0.000000
# 3 -0.005675 -0.003988 0.010255 0.000000 0.004657 0.000000
# 4 0.000000 0.000000 0.000000 0.031466 0.000000 0.031511
# 5 -0.003453 0.000055 0.004657 0.000000 0.037125 0.000000
# 6 0.000000 0.000000 0.000000 0.031511 0.000000 0.114177
#
#
# Mechanical properties :
#
#
# Convention : Reuss Voigt Hill
#
# Bulk Modulus (GPa) = 47.06972 57.99312 52.53142
# Shear Modulus (GPa) = 20.54131 32.68708 26.61420
#
# Velocity S-wave (km/s) = 2.91480 3.67691 3.31781
# Velocity P-wave (km/s) = 5.54946 6.48172 6.03363
#
# Compressibility (1/GPa) = 0.02124508
#
# Stress axis : x y z
#
# Youngs Moduli (GPa) = 61.92508 90.90458 97.51671
#
# Poissons Ratio (x) = -0.14400 0.55345
# Poissons Ratio (y) = -0.09809 0.38889
# Poissons Ratio (z) = 0.35145 0.36252
#
# Static dielectric constant tensor:
#      x y z
#    x 2.018250 0.000000 -0.013920 
#    y 0.000000 2.041190 0.000000 
#    z -0.013920 0.000000 1.937350 
# 
# From -- ./inp_files/286478.got.cif
#   From: 2010.05.17/outbox.cif.g08.bks.cpg/sg15_144_cif.got.tgz:286478.got - 2010.06.03 18:47:42.
