data_PCOD9282624
_publ_section_title
;
Structure prediction by ZEFSAII (Michael W. Deem and Ramdas Pophale) SiO2 
 PCOD9282624
Probable space group: C 2/C
;
_chemical_formula_sum "Si O2"
_cell_formula_units_Z 56
_cell_length_a 15.675263
_cell_length_b 12.859011
_cell_length_c 14.087863
_cell_angle_alpha 90.000000
_cell_angle_beta 106.377460
_cell_angle_gamma 90.000000
_cell_volume 2724.448118
_symmetry_space_group_name_H-M "C 2/C"
_symmetry_group_IT_number 15
_symmetry_cell_setting 'monoclinic'
loop_
_space_group_symop_operation_xyz
x,y,z
-x,y,1/2-z
-x,-y,-z
x,-y,1/2+z
1/2+x,1/2+y,z
1/2-x,1/2+y,1/2-z
1/2-x,1/2-y,-z
1/2+x,1/2-y,1/2+z
loop_
_atom_site_type_symbol
_atom_site_label
_atom_site_fract_x
_atom_site_fract_y
_atom_site_fract_z
Si Si1 0.600273 0.540662 0.273806
Si Si2 0.831452 0.131838 0.568669
Si Si3 0.899805 0.996975 0.941623
Si Si4 0.770665 0.165780 0.926982
Si Si5 0.596267 0.154516 0.326129
Si Si6 0.341772 0.999505 0.014725
Si Si7 0.294004 0.139682 0.326333
O O1 0.500000 0.587506 0.250000
O O2 0.608805 0.448147 0.351771
O O3 0.610852 0.493298 0.172804
O O4 0.690069 0.609240 0.308920
O O5 0.857643 0.109357 0.467844
O O6 0.855485 0.244957 0.612815
O O7 0.732168 0.084733 0.542443
O O8 0.855082 0.095775 0.976904
O O9 0.000000 0.000000 0.000000
O O10 0.792665 0.235659 0.842999
O O11 0.750000 0.250000 0.000000
O O12 0.694925 0.078450 0.913953
O O13 0.500000 0.178697 0.250000
O O14 0.586494 0.068837 0.407132
O O15 0.661749 0.117574 0.261351
O O16 0.349156 0.923766 0.925303
#
# Coordination Sequence:
#
# PCOD9282624 Si02
#       7
#     8   8   8   8   8   8   8
#     4  11  21  37  61  97 127 157 213 269 328 381
#     4  10  21  39  63  93 123 158 206 268 317 377
#     4  11  21  34  62  93 129 159 202 272 331 367
#     4   9  19  37  61  84 118 166 205 246 321 383
#     4  12  25  39  62  92 126 166 217 256 309 386
#     4   9  21  42  62  86 123 166 208 257 317 378
#     4  10  22  40  65  88 125 169 208 263 322 382
#
# _framework density 20.554621000000001
#
# number of rings (size 3 to 8) (size 9 to 14) (size 15 to 20)
#    0.000    1.714    1.429    4.286    2.000    1.714 
#    0.000    0.714    0.000    0.000    0.000    0.000 
#    0.000    0.000    0.000    0.000    0.000    0.000 
#
# Total GULP energy -155879.106633 kJ/mol
# GULP energy per Si atom -5567.110951 kJ/mol
# Density = 2.050784 g / cm^3
# Si number density = 20.554621 Si / 1000 Ang^3
#
#
#
# Elastic Constant Matrix: (Units=GPa)
#
#
# Indices 1 2 3 4 5 6 
#
# 1 58.4517 18.5270 16.0142 0.0000 -11.9542 0.0000
# 2 18.5270 106.9850 34.3412 0.0000 2.7140 0.0000
# 3 16.0142 34.3412 79.0189 0.0000 -4.4403 0.0000
# 4 0.0000 0.0000 0.0000 35.0079 0.0000 -1.7563
# 5 -11.9542 2.7140 -4.4403 0.0000 24.4531 0.0000
# 6 0.0000 0.0000 0.0000 -1.7563 0.0000 8.1479
#
#
#
# Elastic Compliance Matrix: (Units=1/GPa)
#
#
# Indices 1 2 3 4 5 6 
#
# 1 0.020789 -0.003121 -0.002289 0.000000 0.010094 0.000000
# 2 -0.003121 0.011437 -0.004541 0.000000 -0.003620 0.000000
# 3 -0.002289 -0.004541 0.015214 0.000000 0.002147 0.000000
# 4 0.000000 0.000000 0.000000 0.028877 0.000000 0.006225
# 5 0.010094 -0.003620 0.002147 0.000000 0.046621 0.000000
# 6 0.000000 0.000000 0.000000 0.006225 0.000000 0.124073
#
#
# Mechanical properties :
#
#
# Convention : Reuss Voigt Hill
#
# Bulk Modulus (GPa) = 36.31681 42.46894 39.39287
# Shear Modulus (GPa) = 18.10980 25.22666 21.66823
#
# Velocity S-wave (km/s) = 2.97148 3.50708 3.25033
# Velocity P-wave (km/s) = 5.42952 6.09146 5.76999
#
# Compressibility (1/GPa) = 0.02753546
#
# Stress axis : x y z
#
# Youngs Moduli (GPa) = 48.10227 87.43390 65.73100
#
# Poissons Ratio (x) = 0.27291 0.15049
# Poissons Ratio (y) = 0.15014 0.29851
# Poissons Ratio (z) = 0.11013 0.39707
#
# Static dielectric constant tensor:
#      x y z
#    x 1.771920 0.000000 -0.035410 
#    y 0.000000 1.759510 0.000000 
#    z -0.035410 0.000000 1.792280 
# 
# From -- ./inp_files/161008.got.cif
#   From: 2010.05.17/outbox.cif.g08.bks.cpg/sg15_81_cif.got.tgz:161008.got - 2010.06.03 18:47:42.
