data_PCOD9282862
_publ_section_title
;
Structure prediction by ZEFSAII (Michael W. Deem and Ramdas Pophale) SiO2 
 PCOD9282862
Probable space group: C 2/C
;
_chemical_formula_sum "Si O2"
_cell_formula_units_Z 32
_cell_length_a 20.385152
_cell_length_b 6.522476
_cell_length_c 14.125874
_cell_angle_alpha 90.000000
_cell_angle_beta 139.871607
_cell_angle_gamma 90.000000
_cell_volume 1210.504620
_symmetry_space_group_name_H-M "C 2/C"
_symmetry_group_IT_number 15
_symmetry_cell_setting 'monoclinic'
loop_
_space_group_symop_operation_xyz
x,y,z
-x,y,1/2-z
-x,-y,-z
x,-y,1/2+z
1/2+x,1/2+y,z
1/2-x,1/2+y,1/2-z
1/2-x,1/2-y,-z
1/2+x,1/2-y,1/2+z
loop_
_atom_site_type_symbol
_atom_site_label
_atom_site_fract_x
_atom_site_fract_y
_atom_site_fract_z
Si Si1 0.671709 0.867791 0.200780
Si Si2 0.270659 0.514521 0.985859
Si Si3 0.651467 0.590573 0.735152
Si Si4 0.949831 0.738237 0.099435
O O1 0.686380 0.005302 0.309791
O O2 0.634179 0.649287 0.194671
O O3 0.785540 0.832080 0.285466
O O4 0.605280 0.915974 0.034810
O O5 0.250000 0.750000 0.000000
O O6 0.274986 0.401009 0.091304
O O7 0.375275 0.425677 0.052478
O O8 0.542622 0.673322 0.641950
O O9 0.000000 0.645587 0.250000
#
# Coordination Sequence:
#
# PCOD9282862 Si02
#       4
#     8   8   8   8
#     4  11  20  38  65  92 122 163 206 257 306 363
#     4   9  20  37  61  92 121 158 203 254 300 362
#     4  10  22  39  67  89 124 163 214 247 311 372
#     4  10  21  39  65  92 120 171 207 245 308 384
#
# _framework density 26.435255000000002
#
# number of rings (size 3 to 8) (size 9 to 14) (size 15 to 20)
#    0.000    2.000    2.500    0.750    0.000    4.000 
#    0.000    1.250    0.000    0.000    0.000    0.000 
#    0.000    0.000    0.000    0.000    0.000    0.000 
#
# Total GULP energy -89321.146856 kJ/mol
# GULP energy per Si atom -5582.571679 kJ/mol
# Density = 2.637509 g / cm^3
# Si number density = 26.435255 Si / 1000 Ang^3
#
#
#
# Elastic Constant Matrix: (Units=GPa)
#
#
# Indices 1 2 3 4 5 6 
#
# 1 153.2034 53.3193 53.4774 0.0000 7.7520 0.0000
# 2 53.3193 86.2390 50.9839 0.0000 2.0872 0.0000
# 3 53.4774 50.9839 221.1263 0.0000 -52.9262 0.0000
# 4 0.0000 0.0000 0.0000 26.0478 0.0000 -13.6560
# 5 7.7520 2.0872 -52.9262 0.0000 52.8924 0.0000
# 6 0.0000 0.0000 0.0000 -13.6560 0.0000 42.1504
#
#
#
# Elastic Compliance Matrix: (Units=1/GPa)
#
#
# Indices 1 2 3 4 5 6 
#
# 1 0.008817 -0.004279 -0.001860 0.000000 -0.002984 0.000000
# 2 -0.004279 0.016485 -0.003644 0.000000 -0.003670 0.000000
# 3 -0.001860 -0.003644 0.007774 0.000000 0.008195 0.000000
# 4 0.000000 0.000000 0.000000 0.046246 0.000000 0.014983
# 5 -0.002984 -0.003670 0.008195 0.000000 0.027689 0.000000
# 6 0.000000 0.000000 0.000000 0.014983 0.000000 0.028579
#
#
# Mechanical properties :
#
#
# Convention : Reuss Voigt Hill
#
# Bulk Modulus (GPa) = 74.02840 86.23665 80.13253
# Shear Modulus (GPa) = 31.31669 44.40399 37.86034
#
# Velocity S-wave (km/s) = 3.44562 4.10289 3.78854
# Velocity P-wave (km/s) = 6.62527 7.42547 7.03675
#
# Compressibility (1/GPa) = 0.01350833
#
# Stress axis : x y z
#
# Youngs Moduli (GPa) = 113.41881 60.66187 128.63642
#
# Poissons Ratio (x) = 0.25960 0.23925
# Poissons Ratio (y) = 0.48537 0.46878
# Poissons Ratio (z) = 0.21095 0.22107
#
# Static dielectric constant tensor:
#      x y z
#    x 2.009820 0.000000 -0.019260 
#    y 0.000000 2.183820 0.000000 
#    z -0.019260 0.000000 2.143820 
# 
# From -- ./inp_files/102362.got.cif
#   From: 2010.05.17/outbox.cif.g08.bks.cpg/sg15_52_cif.got.tgz:102362.got - 2010.06.03 18:47:42.
