data_PCOD9282347
_publ_section_title
;
Structure prediction by ZEFSAII (Michael W. Deem and Ramdas Pophale) SiO2 
 PCOD9282347
Probable space group: C 2/C
;
_chemical_formula_sum "Si O2"
_cell_formula_units_Z 56
_cell_length_a 19.197277
_cell_length_b 19.974621
_cell_length_c 8.842336
_cell_angle_alpha 90.000000
_cell_angle_beta 54.232400
_cell_angle_gamma 90.000000
_cell_volume 2751.168808
_symmetry_space_group_name_H-M "C 2/C"
_symmetry_group_IT_number 15
_symmetry_cell_setting 'monoclinic'
loop_
_space_group_symop_operation_xyz
x,y,z
-x,y,1/2-z
-x,-y,-z
x,-y,1/2+z
1/2+x,1/2+y,z
1/2-x,1/2+y,1/2-z
1/2-x,1/2-y,-z
1/2+x,1/2-y,1/2+z
loop_
_atom_site_type_symbol
_atom_site_label
_atom_site_fract_x
_atom_site_fract_y
_atom_site_fract_z
Si Si1 0.481280 0.789531 0.952484
Si Si2 0.677083 0.290064 0.682242
Si Si3 0.524242 0.928258 0.043260
Si Si4 0.062843 0.197813 0.055360
Si Si5 0.816644 0.010162 0.919943
Si Si6 0.772587 0.413132 0.695821
Si Si7 0.065876 0.946562 0.482335
O O1 0.500000 0.789168 0.750000
O O2 0.394941 0.750569 0.126288
O O3 0.479319 0.865515 0.016228
O O4 0.563647 0.749059 0.918006
O O5 0.750000 0.250000 0.500000
O O6 0.634570 0.322248 0.584592
O O7 0.725922 0.342908 0.724873
O O8 0.500000 0.929693 0.250000
O O9 0.625932 0.913154 0.910874
O O10 0.500000 0.000000 0.000000
O O11 0.000000 0.236217 0.250000
O O12 0.026644 0.127106 0.044421
O O13 0.754572 0.958409 0.913953
O O14 0.857793 0.055722 0.737072
O O15 0.893219 0.973177 0.914198
O O16 0.767952 0.052964 0.105608
O O17 0.000000 0.000000 0.500000
#
# Coordination Sequence:
#
# PCOD9282347 Si02
#       7
#     8   8   8   8   8   8   8
#     4  11  26  44  68 103 134 176 238 282 348 418
#     4  11  23  44  68  93 137 183 226 281 348 417
#     4  12  25  48  77 100 132 176 230 288 350 420
#     4  10  21  39  61  89 132 180 223 268 332 413
#     4  10  23  37  58  99 134 169 225 278 334 401
#     4  11  23  43  66 100 135 175 222 285 349 397
#     4  11  21  35  59  91 136 183 225 264 329 398
#
# _framework density 20.354984999999999
#
# number of rings (size 3 to 8) (size 9 to 14) (size 15 to 20)
#    0.000    1.143    1.429    5.571    8.000    0.000 
#    2.571    1.429    0.000    0.000    0.000    0.000 
#    0.000    0.000    0.000    0.000    0.000    0.000 
#
# Total GULP energy -156016.898185 kJ/mol
# GULP energy per Si atom -5572.032078 kJ/mol
# Density = 2.030866 g / cm^3
# Si number density = 20.354985 Si / 1000 Ang^3
#
#
#
# Elastic Constant Matrix: (Units=GPa)
#
#
# Indices 1 2 3 4 5 6 
#
# 1 94.7136 53.1260 45.3048 0.0000 3.6815 0.0000
# 2 53.1260 144.8807 68.4792 0.0000 6.4177 0.0000
# 3 45.3048 68.4792 131.7711 0.0000 20.9402 0.0000
# 4 0.0000 0.0000 0.0000 25.4926 0.0000 -0.0207
# 5 3.6815 6.4177 20.9402 0.0000 40.4508 0.0000
# 6 0.0000 0.0000 0.0000 -0.0207 0.0000 36.1486
#
#
#
# Elastic Compliance Matrix: (Units=1/GPa)
#
#
# Indices 1 2 3 4 5 6 
#
# 1 0.014087 -0.003777 -0.003021 0.000000 0.000881 0.000000
# 2 -0.003777 0.010208 -0.004144 0.000000 0.000870 0.000000
# 3 -0.003021 -0.004144 0.011586 0.000000 -0.005065 0.000000
# 4 0.000000 0.000000 0.000000 0.039227 0.000000 0.000022
# 5 0.000881 0.000870 -0.005065 0.000000 0.027125 0.000000
# 6 0.000000 0.000000 0.000000 0.000022 0.000000 0.027664
#
#
# Mechanical properties :
#
#
# Convention : Reuss Voigt Hill
#
# Bulk Modulus (GPa) = 71.44245 78.35391 74.89818
# Shear Modulus (GPa) = 31.95983 34.04877 33.00430
#
# Velocity S-wave (km/s) = 3.96678 4.09436 4.03107
# Velocity P-wave (km/s) = 7.49366 7.80570 7.65127
#
# Compressibility (1/GPa) = 0.01399728
#
# Stress axis : x y z
#
# Youngs Moduli (GPa) = 70.98596 97.96707 86.31021
#
# Poissons Ratio (x) = 0.37002 0.26071
# Poissons Ratio (y) = 0.26811 0.35770
# Poissons Ratio (z) = 0.21442 0.40600
#
# Static dielectric constant tensor:
#      x y z
#    x 1.952340 0.000000 -0.066830 
#    y 0.000000 1.727140 0.000000 
#    z -0.066830 0.000000 1.793510 
# 
# From -- ./inp_files/57779.got.cif
#   From: 2010.05.17/outbox.cif.g08.bks.cpg/sg15_29_cif.got.tgz:57779.got - 2010.06.03 18:47:42.
