data_PCOD9282007
_publ_section_title
;
Structure prediction by ZEFSAII (Michael W. Deem and Ramdas Pophale) SiO2 
 PCOD9282007
Probable space group: C 2/C
;
_chemical_formula_sum "Si O2"
_cell_formula_units_Z 52
_cell_length_a 9.676795
_cell_length_b 14.717442
_cell_length_c 17.216485
_cell_angle_alpha 90.000000
_cell_angle_beta 108.741956
_cell_angle_gamma 90.000000
_cell_volume 2321.918597
_symmetry_space_group_name_H-M "C 2/C"
_symmetry_group_IT_number 15
_symmetry_cell_setting 'monoclinic'
loop_
_space_group_symop_operation_xyz
x,y,z
-x,y,1/2-z
-x,-y,-z
x,-y,1/2+z
1/2+x,1/2+y,z
1/2-x,1/2+y,1/2-z
1/2-x,1/2-y,-z
1/2+x,1/2-y,1/2+z
loop_
_atom_site_type_symbol
_atom_site_label
_atom_site_fract_x
_atom_site_fract_y
_atom_site_fract_z
Si Si1 0.272710 0.598190 0.094742
Si Si2 0.000000 0.495757 0.750000
Si Si3 0.000000 0.795537 0.250000
Si Si4 0.357199 0.389045 0.441383
Si Si5 0.707283 0.847973 0.256523
Si Si6 0.683849 0.576005 0.990442
Si Si7 0.961991 0.646295 0.112655
Si Si8 0.500000 0.310553 0.750000
O O1 0.112570 0.625765 0.095019
O O2 0.396403 0.629224 0.177142
O O3 0.282823 0.490918 0.075860
O O4 0.190377 0.856742 0.982074
O O5 0.114328 0.562065 0.730061
O O6 0.937700 0.432827 0.671900
O O7 0.852819 0.850313 0.233591
O O8 0.016678 0.732931 0.328923
O O9 0.257665 0.348696 0.356007
O O10 0.338285 0.499200 0.445177
O O11 0.528524 0.374794 0.456964
O O12 0.609306 0.758744 0.224632
O O13 0.820088 0.640239 0.033010
#
# Coordination Sequence:
#
# PCOD9282007 Si02
#       8
#     8   4   4   8   8   8   8   4
#     4  10  21  38  67  95 124 170 214 269 325 389
#     4  10  22  38  68  87 133 172 222 266 320 382
#     4  11  26  39  65  93 144 168 218 267 338 379
#     4   9  21  39  64  92 126 164 218 267 317 386
#     4  11  23  44  59  96 130 180 212 268 322 404
#     4   9  20  38  66  93 127 157 219 269 327 370
#     4  11  21  41  65 100 126 172 217 279 316 389
#     4  11  24  39  63  92 131 172 218 257 340 387
#
# _framework density 22.395271000000001
#
# number of rings (size 3 to 8) (size 9 to 14) (size 15 to 20)
#    0.923    0.923    3.077    0.462    2.154    3.077 
#    0.000    2.308    0.000    0.000    0.000    0.000 
#    0.000    0.000    0.000    0.000    0.000    0.000 
#
# Total GULP energy -145245.524508 kJ/mol
# GULP energy per Si atom -5586.366327 kJ/mol
# Density = 2.234430 g / cm^3
# Si number density = 22.395271 Si / 1000 Ang^3
#
#
#
# Elastic Constant Matrix: (Units=GPa)
#
#
# Indices 1 2 3 4 5 6 
#
# 1 123.2562 17.7643 15.5843 0.0000 4.8015 0.0000
# 2 17.7643 57.3070 20.4898 0.0000 2.4957 0.0000
# 3 15.5843 20.4898 54.5176 0.0000 10.4859 0.0000
# 4 0.0000 0.0000 0.0000 42.5350 0.0000 -10.4601
# 5 4.8015 2.4957 10.4859 0.0000 42.0456 0.0000
# 6 0.0000 0.0000 0.0000 -10.4601 0.0000 4.1248
#
#
#
# Elastic Compliance Matrix: (Units=1/GPa)
#
#
# Indices 1 2 3 4 5 6 
#
# 1 0.008634 -0.002086 -0.001595 0.000000 -0.000464 0.000000
# 2 -0.002086 0.020684 -0.007339 0.000000 0.000841 0.000000
# 3 -0.001595 -0.007339 0.022518 0.000000 -0.004998 0.000000
# 4 0.000000 0.000000 0.000000 0.062465 0.000000 0.158407
# 5 -0.000464 0.000841 -0.004998 0.000000 0.025033 0.000000
# 6 0.000000 0.000000 0.000000 0.158407 0.000000 0.644147
#
#
# Mechanical properties :
#
#
# Convention : Reuss Voigt Hill
#
# Bulk Modulus (GPa) = 33.56145 38.08418 35.82282
# Shear Modulus (GPa) = 6.13156 29.82392 17.97774
#
# Velocity S-wave (km/s) = 1.65645 3.65321 2.83635
# Velocity P-wave (km/s) = 4.32168 5.90229 5.17271
#
# Compressibility (1/GPa) = 0.02979609
#
# Stress axis : x y z
#
# Youngs Moduli (GPa) = 115.82756 48.34664 44.40835
#
# Poissons Ratio (x) = 0.10084 0.07082
# Poissons Ratio (y) = 0.24160 0.32593
# Poissons Ratio (z) = 0.18471 0.35483
#
# Static dielectric constant tensor:
#      x y z
#    x 1.837320 0.000000 -0.014190 
#    y 0.000000 1.841600 0.000000 
#    z -0.014190 0.000000 1.832910 
# 
# From -- ./inp_files/190536.got.cif
#   From: 2010.05.17/outbox.cif.g08.bks.cpg/sg15_96_cif.got.tgz:190536.got - 2010.06.03 18:47:42.
