data_PCOD9282721
_publ_section_title
;
Structure prediction by ZEFSAII (Michael W. Deem and Ramdas Pophale) SiO2 
 PCOD9282721
Probable space group: C 2/C
;
_chemical_formula_sum "Si O2"
_cell_formula_units_Z 48
_cell_length_a 28.563085
_cell_length_b 13.934316
_cell_length_c 7.086142
_cell_angle_alpha 90.000000
_cell_angle_beta 39.913644
_cell_angle_gamma 90.000000
_cell_volume 1809.617707
_symmetry_space_group_name_H-M "C 2/C"
_symmetry_group_IT_number 15
_symmetry_cell_setting 'monoclinic'
loop_
_space_group_symop_operation_xyz
x,y,z
-x,y,1/2-z
-x,-y,-z
x,-y,1/2+z
1/2+x,1/2+y,z
1/2-x,1/2+y,1/2-z
1/2-x,1/2-y,-z
1/2+x,1/2-y,1/2+z
loop_
_atom_site_type_symbol
_atom_site_label
_atom_site_fract_x
_atom_site_fract_y
_atom_site_fract_z
Si Si1 0.514803 0.889335 0.985893
Si Si2 0.767829 0.582387 0.063649
Si Si3 0.385014 0.238922 0.752464
Si Si4 0.140244 0.183575 0.592575
Si Si5 0.987961 0.887057 0.511110
Si Si6 0.315249 0.876708 0.016716
O O1 0.500000 0.866353 0.250000
O O2 0.459028 0.823810 0.043531
O O3 0.600289 0.883655 0.680714
O O4 0.500000 0.000000 0.000000
O O5 0.823569 0.658898 0.986666
O O6 0.797527 0.473902 0.960854
O O7 0.763897 0.617483 0.858862
O O8 0.692394 0.591920 0.410204
O O9 0.364583 0.277746 0.608824
O O10 0.410273 0.335074 0.788615
O O11 0.057196 0.161112 0.901137
O O12 0.180979 0.269216 0.577410
O O13 0.000000 0.871571 0.250000
O O14 0.000000 0.000000 0.500000
#
# Coordination Sequence:
#
# PCOD9282721 Si02
#       6
#     8   8   8   8   8   8
#     4  12  24  36  65 101 131 165 213 272 331 390
#     4  11  24  39  68  94 130 175 216 265 335 394
#     4  10  21  39  64  89 127 167 219 257 327 383
#     4  10  23  42  65  93 128 180 217 261 332 400
#     4  10  22  40  63  88 122 169 217 269 320 382
#     4  11  22  41  63  92 129 167 217 266 324 393
#
# _framework density 26.524940999999998
#
# number of rings (size 3 to 8) (size 9 to 14) (size 15 to 20)
#    0.000    1.333    3.333    3.000    4.667    4.667 
#    0.000    0.833    3.667    0.000    0.000    0.000 
#    0.000    0.000    0.000    0.000    0.000    0.000 
#
# Total GULP energy -134104.473767 kJ/mol
# GULP energy per Si atom -5587.686407 kJ/mol
# Density = 2.646457 g / cm^3
# Si number density = 26.524941 Si / 1000 Ang^3
#
#
#
# Elastic Constant Matrix: (Units=GPa)
#
#
# Indices 1 2 3 4 5 6 
#
# 1 90.5171 18.9244 10.4065 0.0000 3.8306 0.0000
# 2 18.9244 163.7569 9.1094 0.0000 -14.2459 0.0000
# 3 10.4065 9.1094 72.5770 0.0000 -15.4392 0.0000
# 4 0.0000 0.0000 0.0000 46.0050 0.0000 -5.8632
# 5 3.8306 -14.2459 -15.4392 0.0000 33.8388 0.0000
# 6 0.0000 0.0000 0.0000 -5.8632 0.0000 39.0347
#
#
#
# Elastic Compliance Matrix: (Units=1/GPa)
#
#
# Indices 1 2 3 4 5 6 
#
# 1 0.011726 -0.001492 -0.002115 0.000000 -0.002921 0.000000
# 2 -0.001492 0.006533 0.000016 0.000000 0.002927 0.000000
# 3 -0.002115 0.000016 0.015651 0.000000 0.007387 0.000000
# 4 0.000000 0.000000 0.000000 0.022161 0.000000 0.003329
# 5 -0.002921 0.002927 0.007387 0.000000 0.034485 0.000000
# 6 0.000000 0.000000 0.000000 0.003329 0.000000 0.026118
#
#
# Mechanical properties :
#
#
# Convention : Reuss Voigt Hill
#
# Bulk Modulus (GPa) = 37.41230 44.85905 41.13568
# Shear Modulus (GPa) = 37.66047 43.00308 40.33178
#
# Velocity S-wave (km/s) = 3.77213 4.03082 3.90362
# Velocity P-wave (km/s) = 5.75388 6.21386 5.98829
#
# Compressibility (1/GPa) = 0.02672918
#
# Stress axis : x y z
#
# Youngs Moduli (GPa) = 85.27854 153.07702 63.89274
#
# Poissons Ratio (x) = 0.22832 0.13516
# Poissons Ratio (y) = 0.12720 -0.00105
# Poissons Ratio (z) = 0.18040 -0.00253
#
# Static dielectric constant tensor:
#      x y z
#    x 2.130180 0.000000 0.019300 
#    y 0.000000 2.184990 0.000000 
#    z 0.019300 0.000000 2.143440 
# 
# From -- ./inp_files/69850.got.cif
#   From: 2010.05.17/outbox.cif.g08.bks.cpg/sg15_35_cif.got.tgz:69850.got - 2010.06.03 18:47:42.
