data_PCOD9282191
_publ_section_title
;
Structure prediction by ZEFSAII (Michael W. Deem and Ramdas Pophale) SiO2 
 PCOD9282191
Probable space group: C 2/C
;
_chemical_formula_sum "Si O2"
_cell_formula_units_Z 40
_cell_length_a 27.743389
_cell_length_b 6.550119
_cell_length_c 22.506353
_cell_angle_alpha 90.000000
_cell_angle_beta 150.259419
_cell_angle_gamma 90.000000
_cell_volume 2028.897436
_symmetry_space_group_name_H-M "C 2/C"
_symmetry_group_IT_number 15
_symmetry_cell_setting 'monoclinic'
loop_
_space_group_symop_operation_xyz
x,y,z
-x,y,1/2-z
-x,-y,-z
x,-y,1/2+z
1/2+x,1/2+y,z
1/2-x,1/2+y,1/2-z
1/2-x,1/2-y,-z
1/2+x,1/2-y,1/2+z
loop_
_atom_site_type_symbol
_atom_site_label
_atom_site_fract_x
_atom_site_fract_y
_atom_site_fract_z
Si Si1 0.394720 0.399747 0.874927
Si Si2 0.607899 0.729909 0.003001
Si Si3 0.060405 0.546819 0.666656
Si Si4 0.692692 0.336464 0.324790
Si Si5 0.464564 0.570707 0.279096
O O1 0.348004 0.364017 0.889273
O O2 0.412677 0.186969 0.860409
O O3 0.336847 0.542957 0.767324
O O4 0.500000 0.500000 0.000000
O O5 0.692232 0.813388 0.051186
O O6 0.541635 0.560662 0.900146
O O7 0.535681 0.911370 0.944759
O O8 0.145117 0.386784 0.771190
O O9 0.042841 0.704301 0.701475
O O10 0.638920 0.460540 0.319501
O O11 0.500000 0.570386 0.250000
#
# Coordination Sequence:
#
# PCOD9282191 Si02
#       5
#     8   8   8   8   8
#     4  11  20  37  58  90 125 160 192 241 297 368
#     4  11  23  38  62  91 124 157 198 248 303 357
#     4  10  21  39  59  84 124 160 199 242 305 353
#     4  10  24  38  60  96 121 154 202 245 302 364
#     4  10  23  44  62  83 119 161 210 253 296 349
#
# _framework density 19.715140000000002
#
# number of rings (size 3 to 8) (size 9 to 14) (size 15 to 20)
#    0.000    1.600    6.000    0.600    2.800    7.200 
#    0.000    2.000    0.000    0.000    0.000    0.000 
#    0.000    0.000    0.000    0.000    0.000    0.000 
#
# Total GULP energy -111707.359652 kJ/mol
# GULP energy per Si atom -5585.367983 kJ/mol
# Density = 1.967027 g / cm^3
# Si number density = 19.715140 Si / 1000 Ang^3
#
#
#
# Elastic Constant Matrix: (Units=GPa)
#
#
# Indices 1 2 3 4 5 6 
#
# 1 126.8397 26.9587 6.2488 -0.0002 -12.1598 0.0000
# 2 26.9587 113.2249 13.4034 0.0016 -9.7973 0.0001
# 3 6.2488 13.4034 26.2975 0.0004 18.2974 0.0000
# 4 -0.0002 0.0016 0.0004 2.6847 -0.0001 0.7784
# 5 -12.1598 -9.7973 18.2974 -0.0001 29.1204 0.0002
# 6 0.0000 0.0001 0.0000 0.7784 0.0002 12.9025
#
#
#
# Elastic Compliance Matrix: (Units=1/GPa)
#
#
# Indices 1 2 3 4 5 6 
#
# 1 0.009218 -0.000495 -0.007996 0.000003 0.008707 0.000000
# 2 -0.000495 0.011920 -0.015288 -0.000004 0.013410 0.000000
# 3 -0.007996 -0.015288 0.095273 -0.000009 -0.068346 0.000001
# 4 0.000003 -0.000004 -0.000009 0.379106 0.000006 -0.022870
# 5 0.008707 0.013410 -0.068346 0.000006 0.085432 -0.000001
# 6 0.000000 0.000000 0.000001 -0.022870 -0.000001 0.078884
#
#
# Mechanical properties :
#
#
# Convention : Reuss Voigt Hill
#
# Bulk Modulus (GPa) = 14.52398 39.95376 27.23887
# Shear Modulus (GPa) = 6.84612 23.59161 15.21886
#
# Velocity S-wave (km/s) = 1.86549 3.46298 2.78139
# Velocity P-wave (km/s) = 3.46742 6.02488 4.91539
#
# Compressibility (1/GPa) = 0.06885167
#
# Stress axis : x y z
#
# Youngs Moduli (GPa) = 108.48594 83.89305 10.49618
#
# Poissons Ratio (x) = 0.04150 0.08393
# Poissons Ratio (y) = 0.05367 0.16047
# Poissons Ratio (z) = 0.86750 1.28258
#
# Static dielectric constant tensor:
#      x y z
#    x 1.702540 0.000000 -0.003130 
#    y 0.000000 1.676690 0.000000 
#    z -0.003130 0.000000 1.677460 
# 
# From -- ./inp_files/170738.got.cif
#   From: 2010.05.17/outbox.cif.g08.bks.cpg/sg15_86_cif.got.tgz:170738.got - 2010.06.03 18:47:42.
