data_PCOD9282555
_publ_section_title
;
Structure prediction by ZEFSAII (Michael W. Deem and Ramdas Pophale) SiO2 
 PCOD9282555
Probable space group: C 2/C
;
_chemical_formula_sum "Si O2"
_cell_formula_units_Z 48
_cell_length_a 5.014430
_cell_length_b 28.192871
_cell_length_c 17.518652
_cell_angle_alpha 90.000000
_cell_angle_beta 106.632581
_cell_angle_gamma 90.000000
_cell_volume 2373.010081
_symmetry_space_group_name_H-M "C 2/C"
_symmetry_group_IT_number 15
_symmetry_cell_setting 'monoclinic'
loop_
_space_group_symop_operation_xyz
x,y,z
-x,y,1/2-z
-x,-y,-z
x,-y,1/2+z
1/2+x,1/2+y,z
1/2-x,1/2+y,1/2-z
1/2-x,1/2-y,-z
1/2+x,1/2-y,1/2+z
loop_
_atom_site_type_symbol
_atom_site_label
_atom_site_fract_x
_atom_site_fract_y
_atom_site_fract_z
Si Si1 0.656228 0.194054 0.840228
Si Si2 0.695167 0.052213 0.691225
Si Si3 0.744106 0.643762 0.908977
Si Si4 0.187282 0.552213 0.191225
Si Si5 0.926153 0.356238 0.591023
Si Si6 0.024229 0.194054 0.340228
O O1 0.500000 0.177642 0.750000
O O2 0.509086 0.173007 0.902173
O O3 0.590780 0.250000 0.840780
O O4 0.970033 0.174004 0.862753
O O5 0.500000 0.060442 0.750000
O O6 0.711652 0.094342 0.631797
O O7 0.000000 0.049147 0.750000
O O8 0.651334 1.000000 0.651334
O O9 0.749907 0.637101 1.000000
O O10 0.500000 0.560442 0.250000
O O11 0.000000 0.549147 0.250000
O O12 0.051942 0.594342 0.131797
O O13 0.744527 0.325996 0.637247
O O14 0.204738 0.326993 0.597827
O O15 0.000000 0.177642 0.250000
#
# Coordination Sequence:
#
# PCOD9282555 Si02
#       6
#     8   8   8   8   8   8
#     4  11  24  42  63  86 117 161 208 249 294 359
#     4  10  21  39  63  88 118 161 208 250 296 359
#     4  12  24  38  61  92 125 157 194 251 312 361
#     4  10  21  39  63  88 118 161 208 250 296 359
#     4  12  24  38  61  92 125 157 194 251 312 361
#     4  11  24  42  63  86 117 161 208 249 294 359
#
# _framework density 20.227474999999998
#
# number of rings (size 3 to 8) (size 9 to 14) (size 15 to 20)
#    0.000    1.000    0.000    8.000    0.000    7.333 
#    0.000    0.000    0.000   10.000    0.000    0.000 
#    0.000    0.000    0.000    0.000    0.000    0.000 
#
# Total GULP energy -133887.889385 kJ/mol
# GULP energy per Si atom -5578.662058 kJ/mol
# Density = 2.018144 g / cm^3
# Si number density = 20.227475 Si / 1000 Ang^3
#
#
#
# Elastic Constant Matrix: (Units=GPa)
#
#
# Indices 1 2 3 4 5 6 
#
# 1 121.9595 24.0949 8.7150 0.0000 5.5232 0.0000
# 2 24.0949 146.7665 46.0773 0.0000 -1.8619 0.0000
# 3 8.7150 46.0773 87.5906 0.0000 -2.6121 0.0000
# 4 0.0000 0.0000 0.0000 -22.4557 0.0000 5.2593
# 5 5.5232 -1.8619 -2.6121 0.0000 24.7052 0.0000
# 6 0.0000 0.0000 0.0000 5.2593 0.0000 39.6392
#
#
#
# Elastic Compliance Matrix: (Units=1/GPa)
#
#
# Indices 1 2 3 4 5 6 
#
# 1 0.008577 -0.001374 -0.000192 0.000000 -0.002041 0.000000
# 2 -0.001374 0.008382 -0.004258 0.000000 0.000489 0.000000
# 3 -0.000192 -0.004258 0.013711 0.000000 0.001172 0.000000
# 4 0.000000 0.000000 0.000000 -0.043190 0.000000 0.005730
# 5 -0.002041 0.000489 0.001172 0.000000 0.041094 0.000000
# 6 0.000000 0.000000 0.000000 0.005730 0.000000 0.024467
#
#
# Mechanical properties :
#
#
# Convention : Reuss Voigt Hill
#
# Bulk Modulus (GPa) = 52.56860 57.12121 54.84490
# Shear Modulus (GPa) = 70.39328 26.87305 48.63316
#
# Velocity S-wave (km/s) = 5.90562 3.64887 4.90870
# Velocity P-wave (km/s) = 8.51745 6.78624 7.70065
#
# Compressibility (1/GPa) = 0.01902276
#
# Stress axis : x y z
#
# Youngs Moduli (GPa) = 116.59084 119.30116 72.93532
#
# Poissons Ratio (x) = 0.16390 0.01397
# Poissons Ratio (y) = 0.16018 0.31057
# Poissons Ratio (z) = 0.02233 0.50801
#
# Static dielectric constant tensor:
#      x y z
#    x 1.724790 0.000000 0.001030 
#    y 0.000000 1.936420 0.000000 
#    z 0.001030 0.000000 1.712680 
# 
# From -- ./inp_files/185968.got.cif
#   From: 2010.05.17/outbox.cif.g08.bks.cpg/sg15_93_cif.got.tgz:185968.got - 2010.06.03 18:47:42.
