data_PCOD9282461
_publ_section_title
;
Structure prediction by ZEFSAII (Michael W. Deem and Ramdas Pophale) SiO2 
 PCOD9282461
Probable space group: C 2/C
;
_chemical_formula_sum "Si O2"
_cell_formula_units_Z 56
_cell_length_a 8.418002
_cell_length_b 11.769951
_cell_length_c 30.403981
_cell_angle_alpha 90.000000
_cell_angle_beta 118.880729
_cell_angle_gamma 90.000000
_cell_volume 2637.747920
_symmetry_space_group_name_H-M "C 2/C"
_symmetry_group_IT_number 15
_symmetry_cell_setting 'monoclinic'
loop_
_space_group_symop_operation_xyz
x,y,z
-x,y,1/2-z
-x,-y,-z
x,-y,1/2+z
1/2+x,1/2+y,z
1/2-x,1/2+y,1/2-z
1/2-x,1/2-y,-z
1/2+x,1/2-y,1/2+z
loop_
_atom_site_type_symbol
_atom_site_label
_atom_site_fract_x
_atom_site_fract_y
_atom_site_fract_z
Si Si1 0.800694 0.525673 0.800425
Si Si2 0.167275 0.494377 0.055951
Si Si3 0.500000 0.657657 0.250000
Si Si4 0.140269 0.087592 0.497670
Si Si5 0.000000 0.444258 0.750000
Si Si6 0.197926 0.771745 0.685345
Si Si7 0.366422 0.262863 0.922989
Si Si8 0.416858 0.963004 0.593021
O O1 0.663259 0.422825 0.788646
O O2 0.862955 0.521255 0.758676
O O3 0.719448 0.645500 0.802207
O O4 0.990209 0.510085 0.851219
O O5 0.324936 0.543978 0.047257
O O6 0.198691 0.364959 0.075447
O O7 0.092594 0.566379 0.086697
O O8 0.000000 0.500000 0.000000
O O9 0.418371 0.713799 0.284542
O O10 0.311913 0.064046 0.552430
O O11 0.041079 0.207663 0.477100
O O12 0.000000 0.000000 0.500000
O O13 0.862833 0.360701 0.706166
O O14 0.098799 0.777436 0.624636
O O15 0.214492 0.356645 0.916341
#
# Coordination Sequence:
#
# PCOD9282461 Si02
#       8
#     8   8   4   8   4   8   8   8
#     4  11  21  42  62  90 126 153 208 260 306 377
#     4  10  22  40  62  88 124 163 206 250 302 361
#     4  10  26  40  62  92 122 160 208 260 316 372
#     4   9  22  40  61  91 124 162 206 246 305 363
#     4  10  22  40  66  84 120 164 198 260 320 358
#     4  11  22  40  64  91 118 165 205 252 317 371
#     4  11  22  40  64  90 127 165 208 252 308 373
#     4  10  21  39  62  91 122 163 204 253 306 365
#
# _framework density 21.230232999999998
#
# number of rings (size 3 to 8) (size 9 to 14) (size 15 to 20)
#    0.000    1.714    2.857    0.857    2.000    7.429 
#    0.000    4.286    0.000    0.000    0.000    0.000 
#    0.000    0.000    0.000    0.000    0.000    0.000 
#
# Total GULP energy -155896.668322 kJ/mol
# GULP energy per Si atom -5567.738154 kJ/mol
# Density = 2.118191 g / cm^3
# Si number density = 21.230233 Si / 1000 Ang^3
#
#
#
# Elastic Constant Matrix: (Units=GPa)
#
#
# Indices 1 2 3 4 5 6 
#
# 1 61.8077 18.3448 -2.9730 0.0000 -14.1873 0.0000
# 2 18.3448 78.2106 28.6126 0.0000 -5.3603 0.0000
# 3 -2.9730 28.6126 79.2222 0.0000 5.5114 0.0000
# 4 0.0000 0.0000 0.0000 23.5653 0.0000 2.7426
# 5 -14.1873 -5.3603 5.5114 0.0000 34.5628 0.0000
# 6 0.0000 0.0000 0.0000 2.7426 0.0000 16.5795
#
#
#
# Elastic Compliance Matrix: (Units=1/GPa)
#
#
# Indices 1 2 3 4 5 6 
#
# 1 0.019262 -0.004768 0.001968 0.000000 0.006853 0.000000
# 2 -0.004768 0.016264 -0.006161 0.000000 0.001548 0.000000
# 3 0.001968 -0.006161 0.015099 0.000000 -0.002555 0.000000
# 4 0.000000 0.000000 0.000000 0.043268 0.000000 -0.007157
# 5 0.006853 0.001548 -0.002555 0.000000 0.032394 0.000000
# 6 0.000000 0.000000 0.000000 -0.007157 0.000000 0.061499
#
#
# Mechanical properties :
#
#
# Convention : Reuss Voigt Hill
#
# Bulk Modulus (GPa) = 30.57710 34.13438 32.35574
# Shear Modulus (GPa) = 23.08287 26.62524 24.85406
#
# Velocity S-wave (km/s) = 3.30095 3.54520 3.42525
# Velocity P-wave (km/s) = 5.38166 5.73332 5.56027
#
# Compressibility (1/GPa) = 0.03270421
#
# Stress axis : x y z
#
# Youngs Moduli (GPa) = 51.91487 61.48395 66.22750
#
# Poissons Ratio (x) = 0.29318 -0.13036
# Poissons Ratio (y) = 0.24755 0.40802
# Poissons Ratio (z) = -0.10218 0.37879
#
# Static dielectric constant tensor:
#      x y z
#    x 1.861920 0.000000 -0.058090 
#    y 0.000000 1.755240 0.000000 
#    z -0.058090 0.000000 1.943250 
# 
# From -- ./inp_files/307102.got.cif
#   From: 2010.05.17/outbox.cif.g08.bks.cpg/sg15_154_cif.got.tgz:307102.got - 2010.06.03 18:47:42.
