data_PCOD9282669
_publ_section_title
;
Structure prediction by ZEFSAII (Michael W. Deem and Ramdas Pophale) SiO2 
 PCOD9282669
Probable space group: C 2/C
;
_chemical_formula_sum "Si O2"
_cell_formula_units_Z 52
_cell_length_a 6.524055
_cell_length_b 20.907183
_cell_length_c 22.289033
_cell_angle_alpha 90.000000
_cell_angle_beta 133.276718
_cell_angle_gamma 90.000000
_cell_volume 2213.433047
_symmetry_space_group_name_H-M "C 2/C"
_symmetry_group_IT_number 15
_symmetry_cell_setting 'monoclinic'
loop_
_space_group_symop_operation_xyz
x,y,z
-x,y,1/2-z
-x,-y,-z
x,-y,1/2+z
1/2+x,1/2+y,z
1/2-x,1/2+y,1/2-z
1/2-x,1/2-y,-z
1/2+x,1/2-y,1/2+z
loop_
_atom_site_type_symbol
_atom_site_label
_atom_site_fract_x
_atom_site_fract_y
_atom_site_fract_z
Si Si1 0.963204 0.636982 0.105612
Si Si2 0.000000 0.926604 0.250000
Si Si3 0.108915 0.324032 0.209579
Si Si4 0.988638 0.488912 0.676682
Si Si5 0.817592 0.650322 0.473767
Si Si6 0.312632 0.749034 0.392601
Si Si7 0.146972 0.912147 0.050998
O O1 0.015166 0.585422 0.167581
O O2 0.932664 0.707835 0.126569
O O3 0.184125 0.634997 0.096187
O O4 0.670352 0.612786 0.016110
O O5 0.861591 0.876071 0.269360
O O6 0.736206 0.973903 0.190214
O O7 0.205103 0.274732 0.178373
O O8 0.000000 0.297419 0.250000
O O9 0.845950 0.362283 0.127309
O O10 0.703375 0.520266 0.593690
O O11 0.000000 0.500759 0.750000
O O12 0.092649 0.691599 0.547041
O O13 0.564187 0.697531 0.440097
O O14 0.776169 0.591025 0.509729
#
# Coordination Sequence:
#
# PCOD9282669 Si02
#       7
#     8   4   8   8   8   8   8
#     4  11  22  39  66  92 126 171 204 255 322 377
#     4  10  22  40  64  86 118 172 214 256 314 362
#     4  10  21  39  63  96 126 163 213 270 315 373
#     4  11  25  43  61  90 131 166 210 265 312 379
#     4   9  19  36  61  91 121 157 206 259 315 371
#     4   9  20  38  58  92 129 157 204 258 312 380
#     4   9  20  38  64  92 119 157 218 268 308 363
#
# _framework density 23.492916000000001
#
# number of rings (size 3 to 8) (size 9 to 14) (size 15 to 20)
#    0.000    2.154    0.000    3.692    0.000   11.692 
#    4.154    0.000    0.000    0.000    0.000    0.000 
#    0.000    0.000    0.000    0.000    0.000    0.000 
#
# Total GULP energy -145158.978408 kJ/mol
# GULP energy per Si atom -5583.037631 kJ/mol
# Density = 2.343944 g / cm^3
# Si number density = 23.492916 Si / 1000 Ang^3
#
#
#
# Elastic Constant Matrix: (Units=GPa)
#
#
# Indices 1 2 3 4 5 6 
#
# 1 57.4721 10.3352 26.0906 0.0000 -21.1272 0.0000
# 2 10.3352 65.7151 15.6251 0.0000 -12.1563 0.0000
# 3 26.0906 15.6251 47.4275 0.0000 -10.2240 0.0000
# 4 0.0000 0.0000 0.0000 24.2536 0.0000 -5.7197
# 5 -21.1272 -12.1563 -10.2240 0.0000 46.0522 0.0000
# 6 0.0000 0.0000 0.0000 -5.7197 0.0000 23.1464
#
#
#
# Elastic Compliance Matrix: (Units=1/GPa)
#
#
# Indices 1 2 3 4 5 6 
#
# 1 0.026591 0.000618 -0.012779 0.000000 0.009525 0.000000
# 2 0.000618 0.017019 -0.005165 0.000000 0.003630 0.000000
# 3 -0.012779 -0.005165 0.029679 0.000000 -0.000637 0.000000
# 4 0.000000 0.000000 0.000000 0.043783 0.000000 0.010819
# 5 0.009525 0.003630 -0.000637 0.000000 0.026901 0.000000
# 6 0.000000 0.000000 0.000000 0.010819 0.000000 0.045877
#
#
# Mechanical properties :
#
#
# Convention : Reuss Voigt Hill
#
# Bulk Modulus (GPa) = 25.88029 30.52406 28.20217
# Shear Modulus (GPa) = 21.06330 26.59469 23.82900
#
# Velocity S-wave (km/s) = 2.99754 3.36822 3.18827
# Velocity P-wave (km/s) = 4.79797 5.30543 5.05807
#
# Compressibility (1/GPa) = 0.03863944
#
# Stress axis : x y z
#
# Youngs Moduli (GPa) = 37.60634 58.75645 33.69410
#
# Poissons Ratio (x) = -0.03633 0.43056
# Poissons Ratio (y) = -0.02325 0.17402
# Poissons Ratio (z) = 0.48056 0.30346
#
# Static dielectric constant tensor:
#      x y z
#    x 1.877820 0.000000 0.059580 
#    y 0.000000 1.906810 0.000000 
#    z 0.059580 0.000000 1.928070 
# 
# From -- ./inp_files/261433.got.cif
#   From: 2010.05.17/outbox.cif.g08.bks.cpg/sg15_131_cif.got.tgz:261433.got - 2010.06.03 18:47:42.
