data_PCOD9282147
_publ_section_title
;
Structure prediction by ZEFSAII (Michael W. Deem and Ramdas Pophale) SiO2 
 PCOD9282147
Probable space group: C 2/C
;
_chemical_formula_sum "Si O2"
_cell_formula_units_Z 52
_cell_length_a 30.464836
_cell_length_b 10.364317
_cell_length_c 8.480912
_cell_angle_alpha 90.000000
_cell_angle_beta 57.584353
_cell_angle_gamma 90.000000
_cell_volume 2260.569963
_symmetry_space_group_name_H-M "C 2/C"
_symmetry_group_IT_number 15
_symmetry_cell_setting 'monoclinic'
loop_
_space_group_symop_operation_xyz
x,y,z
-x,y,1/2-z
-x,-y,-z
x,-y,1/2+z
1/2+x,1/2+y,z
1/2-x,1/2+y,1/2-z
1/2-x,1/2-y,-z
1/2+x,1/2-y,1/2+z
loop_
_atom_site_type_symbol
_atom_site_label
_atom_site_fract_x
_atom_site_fract_y
_atom_site_fract_z
Si Si1 0.687091 0.572986 0.637467
Si Si2 0.171958 0.724221 0.898936
Si Si3 0.382034 0.734503 0.536598
Si Si4 0.580171 0.242594 0.859362
Si Si5 0.500000 0.169498 0.250000
Si Si6 0.902784 0.443810 0.757585
Si Si7 0.778914 0.167260 0.616708
O O1 0.693520 0.677105 0.487130
O O2 0.632433 0.386936 0.324211
O O3 0.727480 0.594818 0.700802
O O4 0.695073 0.435466 0.547616
O O5 0.124555 0.787484 0.894628
O O6 0.219930 0.699116 0.689551
O O7 0.145898 0.604073 0.042325
O O8 0.417270 0.699587 0.319988
O O9 0.401904 0.850423 0.606311
O O10 0.324306 0.768042 0.575693
O O11 0.594821 0.091624 0.797785
O O12 0.526614 0.248199 0.057188
O O13 0.545630 0.085959 0.240608
#
# Coordination Sequence:
#
# PCOD9282147 Si02
#       7
#     8   8   8   8   4   8   8
#     4   9  22  38  56  84 121 162 204 247 291 350
#     4  10  22  36  58  87 127 160 209 242 290 361
#     4   9  22  37  57  88 117 155 208 242 293 358
#     4  11  22  35  60  88 123 162 198 247 306 364
#     4  10  22  38  58  86 124 158 200 244 314 374
#     4  10  21  39  57  92 123 164 197 251 296 370
#     4  10  22  39  60  86 126 165 201 249 294 344
#
# _framework density 23.003048
#
# number of rings (size 3 to 8) (size 9 to 14) (size 15 to 20)
#    0.923    1.231    0.000    2.769    4.308    2.462 
#    0.000    0.000    0.000    0.000    0.000   53.846 
#    0.000    0.000    0.000    0.000    0.000    0.000 
#
# Total GULP energy -145110.122366 kJ/mol
# GULP energy per Si atom -5581.158553 kJ/mol
# Density = 2.295069 g / cm^3
# Si number density = 23.003048 Si / 1000 Ang^3
#
#
#
# Elastic Constant Matrix: (Units=GPa)
#
#
# Indices 1 2 3 4 5 6 
#
# 1 66.1339 16.2259 -0.3824 0.0000 -7.0342 0.0000
# 2 16.2259 56.6352 29.3601 0.0000 -2.9505 0.0000
# 3 -0.3824 29.3601 165.2457 0.0000 -13.6392 0.0000
# 4 0.0000 0.0000 0.0000 28.3548 0.0000 3.9274
# 5 -7.0342 -2.9505 -13.6392 0.0000 32.0638 0.0000
# 6 0.0000 0.0000 0.0000 3.9274 0.0000 7.8980
#
#
#
# Elastic Compliance Matrix: (Units=1/GPa)
#
#
# Indices 1 2 3 4 5 6 
#
# 1 0.016826 -0.005294 0.001289 0.000000 0.003753 0.000000
# 2 -0.005294 0.021117 -0.003834 0.000000 -0.000849 0.000000
# 3 0.001289 -0.003834 0.006975 0.000000 0.002897 0.000000
# 4 0.000000 0.000000 0.000000 0.037876 0.000000 -0.018834
# 5 0.003753 -0.000849 0.002897 0.000000 0.033165 0.000000
# 6 0.000000 0.000000 0.000000 -0.018834 0.000000 0.135981
#
#
# Mechanical properties :
#
#
# Convention : Reuss Voigt Hill
#
# Bulk Modulus (GPa) = 34.19869 42.04686 38.12277
# Shear Modulus (GPa) = 18.02683 29.85073 23.93878
#
# Velocity S-wave (km/s) = 2.80245 3.60625 3.22945
# Velocity P-wave (km/s) = 5.03696 5.97148 5.52401
#
# Compressibility (1/GPa) = 0.02924089
#
# Stress axis : x y z
#
# Youngs Moduli (GPa) = 59.43114 47.35535 143.37014
#
# Poissons Ratio (x) = 0.25068 -0.18483
# Poissons Ratio (y) = 0.31460 0.54972
# Poissons Ratio (z) = -0.07662 0.18157
#
# Static dielectric constant tensor:
#      x y z
#    x 1.889960 0.000000 0.032930 
#    y 0.000000 1.859140 0.000000 
#    z 0.032930 0.000000 1.939810 
# 
# From -- ./inp_files/65364.got.cif
#   From: 2010.05.17/outbox.cif.g08.bks.cpg/sg15_33_cif.got.tgz:65364.got - 2010.06.03 18:47:42.
