data_PCOD9282356
_publ_section_title
;
Structure prediction by ZEFSAII (Michael W. Deem and Ramdas Pophale) SiO2 
 PCOD9282356
Probable space group: C 2/C
;
_chemical_formula_sum "Si O2"
_cell_formula_units_Z 52
_cell_length_a 16.656953
_cell_length_b 10.071839
_cell_length_c 17.196657
_cell_angle_alpha 90.000000
_cell_angle_beta 117.564238
_cell_angle_gamma 90.000000
_cell_volume 2557.546090
_symmetry_space_group_name_H-M "C 2/C"
_symmetry_group_IT_number 15
_symmetry_cell_setting 'monoclinic'
loop_
_space_group_symop_operation_xyz
x,y,z
-x,y,1/2-z
-x,-y,-z
x,-y,1/2+z
1/2+x,1/2+y,z
1/2-x,1/2+y,1/2-z
1/2-x,1/2-y,-z
1/2+x,1/2-y,1/2+z
loop_
_atom_site_type_symbol
_atom_site_label
_atom_site_fract_x
_atom_site_fract_y
_atom_site_fract_z
Si Si1 0.873168 0.762008 0.986368
Si Si2 0.351131 0.208708 0.569478
Si Si3 0.294539 0.917533 0.589097
Si Si4 0.656160 0.183259 0.705168
Si Si5 0.794499 0.598997 0.262407
Si Si6 0.950880 0.360022 0.956624
Si Si7 0.000000 0.731489 0.750000
O O1 0.814811 0.897133 0.964228
O O2 0.859637 0.701925 0.893789
O O3 0.833510 0.666113 0.034944
O O4 0.980111 0.752202 0.042947
O O5 0.250000 0.250000 0.500000
O O6 0.404031 0.190584 0.513268
O O7 0.417949 0.288946 0.658476
O O8 0.334328 0.063987 0.600168
O O9 0.318611 0.860041 0.684837
O O10 0.709458 0.316148 0.752808
O O11 0.563112 0.163220 0.711526
O O12 0.721516 0.058578 0.748297
O O13 0.876906 0.615091 0.357784
O O14 0.000000 0.500000 0.000000
#
# Coordination Sequence:
#
# PCOD9282356 Si02
#       7
#     8   8   8   8   8   8   4
#     4  10  21  39  61  90 124 164 199 270 311 376
#     4  12  24  39  63  95 127 165 212 268 316 378
#     4  10  22  39  62  91 129 160 208 259 331 370
#     4  11  22  41  63  93 128 164 218 259 325 371
#     4  11  23  38  65  96 126 169 209 271 318 389
#     4  12  21  38  63  91 123 160 218 260 310 377
#     4  12  22  40  66  96 124 172 222 264 316 398
#
# _framework density 20.331989
#
# number of rings (size 3 to 8) (size 9 to 14) (size 15 to 20)
#    0.000    0.923    6.154    0.923    0.000    0.615 
#    0.000    2.308    0.000    0.923    0.000    0.000 
#    0.000    0.000    0.000    0.000    0.000    0.000 
#
# Total GULP energy -144774.603606 kJ/mol
# GULP energy per Si atom -5568.253985 kJ/mol
# Density = 2.028571 g / cm^3
# Si number density = 20.331989 Si / 1000 Ang^3
#
#
#
# Elastic Constant Matrix: (Units=GPa)
#
#
# Indices 1 2 3 4 5 6 
#
# 1 130.3081 25.7533 29.8545 0.0000 -10.4623 0.0000
# 2 25.7533 30.1016 -9.9204 0.0000 2.4340 0.0000
# 3 29.8545 -9.9204 109.5030 0.0000 -7.1205 0.0000
# 4 0.0000 0.0000 0.0000 18.9759 0.0000 6.5346
# 5 -10.4623 2.4340 -7.1205 0.0000 35.3072 0.0000
# 6 0.0000 0.0000 0.0000 6.5346 0.0000 26.7798
#
#
#
# Elastic Compliance Matrix: (Units=1/GPa)
#
#
# Indices 1 2 3 4 5 6 
#
# 1 0.010941 -0.010860 -0.003756 0.000000 0.003233 0.000000
# 2 -0.010860 0.045130 0.006726 0.000000 -0.004973 0.000000
# 3 -0.003756 0.006726 0.010805 0.000000 0.000602 0.000000
# 4 0.000000 0.000000 0.000000 0.057533 0.000000 -0.014039
# 5 0.003233 -0.004973 0.000602 0.000000 0.029745 0.000000
# 6 0.000000 0.000000 0.000000 -0.014039 0.000000 0.040767
#
#
# Mechanical properties :
#
#
# Convention : Reuss Voigt Hill
#
# Bulk Modulus (GPa) = 19.57105 40.14305 29.85705
# Shear Modulus (GPa) = 21.95557 31.16093 26.55825
#
# Velocity S-wave (km/s) = 3.28968 3.91910 3.61810
# Velocity P-wave (km/s) = 4.90672 6.34553 5.67194
#
# Compressibility (1/GPa) = 0.05109588
#
# Stress axis : x y z
#
# Youngs Moduli (GPa) = 91.40329 22.15798 92.55146
#
# Poissons Ratio (x) = 0.24063 0.34766
# Poissons Ratio (y) = 0.99260 -0.62250
# Poissons Ratio (z) = 0.34335 -0.14903
#
# Static dielectric constant tensor:
#      x y z
#    x 1.741850 0.000000 0.024430 
#    y 0.000000 1.776900 0.000000 
#    z 0.024430 0.000000 1.791150 
# 
# From -- ./inp_files/204168.got.cif
#   From: 2010.05.17/outbox.cif.g08.bks.cpg/sg15_103_cif.got.tgz:204168.got - 2010.06.03 18:47:42.
