data_PCOD9282635
_publ_section_title
;
Structure prediction by ZEFSAII (Michael W. Deem and Ramdas Pophale) SiO2 
 PCOD9282635
Probable space group: C 2/C
;
_chemical_formula_sum "Si O2"
_cell_formula_units_Z 40
_cell_length_a 23.251316
_cell_length_b 6.031315
_cell_length_c 12.618842
_cell_angle_alpha 90.000000
_cell_angle_beta 101.427485
_cell_angle_gamma 90.000000
_cell_volume 1734.535629
_symmetry_space_group_name_H-M "C 2/C"
_symmetry_group_IT_number 15
_symmetry_cell_setting 'monoclinic'
loop_
_space_group_symop_operation_xyz
x,y,z
-x,y,1/2-z
-x,-y,-z
x,-y,1/2+z
1/2+x,1/2+y,z
1/2-x,1/2+y,1/2-z
1/2-x,1/2-y,-z
1/2+x,1/2-y,1/2+z
loop_
_atom_site_type_symbol
_atom_site_label
_atom_site_fract_x
_atom_site_fract_y
_atom_site_fract_z
Si Si1 0.415193 0.543252 0.257311
Si Si2 0.518504 0.681841 0.421402
Si Si3 0.279927 0.391710 0.417715
Si Si4 0.893745 0.339357 0.899502
Si Si5 0.805482 0.728626 0.802833
O O1 0.457552 0.716892 0.336800
O O2 0.438835 0.565994 0.148357
O O3 0.420258 0.298060 0.309905
O O4 0.348463 0.611376 0.251138
O O5 0.500000 0.500000 0.500000
O O6 0.554899 0.872170 0.495321
O O7 0.250000 0.250000 0.500000
O O8 0.348130 0.328128 0.439951
O O9 0.246649 0.328647 0.295979
O O10 0.281406 0.657589 0.401472
O O11 0.849288 0.530844 0.849519
#
# Coordination Sequence:
#
# PCOD9282635 Si02
#       5
#     8   8   8   8   8
#     4   9  20  38  64  91 134 168 212 279 327 406
#     4   9  18  39  64  94 128 170 215 271 336 399
#     4  11  23  41  64  93 134 174 223 279 336 397
#     4  10  21  39  63  93 129 171 219 275 334 396
#     4  11  22  41  63  97 131 170 229 278 330 414
#
# _framework density 23.060925999999998
#
# number of rings (size 3 to 8) (size 9 to 14) (size 15 to 20)
#    0.000    2.000    2.000    1.200    0.000    1.600 
#    0.000   22.000    0.000    0.000    0.000    0.000 
#    0.000    0.000    0.000    0.000    0.000    0.000 
#
# Total GULP energy -111429.525118 kJ/mol
# GULP energy per Si atom -5571.476256 kJ/mol
# Density = 2.300844 g / cm^3
# Si number density = 23.060926 Si / 1000 Ang^3
#
#
#
# Elastic Constant Matrix: (Units=GPa)
#
#
# Indices 1 2 3 4 5 6 
#
# 1 122.9082 18.5742 58.8998 0.0000 15.5277 0.0000
# 2 18.5742 59.8857 41.9054 0.0000 15.5195 0.0000
# 3 58.8998 41.9054 120.5802 0.0000 2.7188 0.0000
# 4 0.0000 0.0000 0.0000 19.9053 0.0000 3.8303
# 5 15.5277 15.5195 2.7188 0.0000 38.9546 0.0000
# 6 0.0000 0.0000 0.0000 3.8303 0.0000 49.1110
#
#
#
# Elastic Compliance Matrix: (Units=1/GPa)
#
#
# Indices 1 2 3 4 5 6 
#
# 1 0.011409 0.002066 -0.006180 0.000000 -0.004940 0.000000
# 2 0.002066 0.025461 -0.009625 0.000000 -0.010295 0.000000
# 3 -0.006180 -0.009625 0.014538 0.000000 0.005283 0.000000
# 4 0.000000 0.000000 0.000000 0.051003 0.000000 -0.003978
# 5 -0.004940 -0.010295 0.005283 0.000000 0.031373 0.000000
# 6 0.000000 0.000000 0.000000 -0.003978 0.000000 0.020672
#
#
# Mechanical properties :
#
#
# Convention : Reuss Voigt Hill
#
# Bulk Modulus (GPa) = 41.78929 60.23699 51.01314
# Shear Modulus (GPa) = 26.32789 33.86048 30.09419
#
# Velocity S-wave (km/s) = 3.38252 3.83600 3.61638
# Velocity P-wave (km/s) = 5.78065 6.76738 6.29338
#
# Compressibility (1/GPa) = 0.02392958
#
# Stress axis : x y z
#
# Youngs Moduli (GPa) = 87.64678 39.27521 68.78604
#
# Poissons Ratio (x) = -0.08113 0.42507
# Poissons Ratio (y) = -0.18104 0.66210
# Poissons Ratio (z) = 0.54163 0.37804
#
# Static dielectric constant tensor:
#      x y z
#    x 1.828370 0.000000 0.018820 
#    y 0.000000 2.083920 0.000000 
#    z 0.018820 0.000000 1.883910 
# 
# From -- ./inp_files/120885.got.cif
#   From: 2010.05.17/outbox.cif.g08.bks.cpg/sg15_61_cif.got.tgz:120885.got - 2010.06.03 18:47:42.
