data_PCOD9282448
_publ_section_title
;
Structure prediction by ZEFSAII (Michael W. Deem and Ramdas Pophale) SiO2 
 PCOD9282448
Probable space group: C 2/C
;
_chemical_formula_sum "Si O2"
_cell_formula_units_Z 48
_cell_length_a 8.778099
_cell_length_b 11.717437
_cell_length_c 23.274910
_cell_angle_alpha 90.000000
_cell_angle_beta 48.067106
_cell_angle_gamma 90.000000
_cell_volume 1780.951226
_symmetry_space_group_name_H-M "C 2/C"
_symmetry_group_IT_number 15
_symmetry_cell_setting 'monoclinic'
loop_
_space_group_symop_operation_xyz
x,y,z
-x,y,1/2-z
-x,-y,-z
x,-y,1/2+z
1/2+x,1/2+y,z
1/2-x,1/2+y,1/2-z
1/2-x,1/2-y,-z
1/2+x,1/2-y,1/2+z
loop_
_atom_site_type_symbol
_atom_site_label
_atom_site_fract_x
_atom_site_fract_y
_atom_site_fract_z
Si Si1 0.704541 0.550870 0.035528
Si Si2 0.907752 0.413543 0.599533
Si Si3 0.474060 0.003799 0.824053
Si Si4 0.614116 0.754394 0.278540
Si Si5 0.351514 0.317951 0.601561
Si Si6 0.463327 0.317087 0.387120
O O1 0.586153 0.649097 0.031316
O O2 0.567768 0.436666 0.074459
O O3 0.741150 0.586722 0.092394
O O4 0.923972 0.510117 0.957891
O O5 0.010283 0.289046 0.576299
O O6 0.851793 0.448554 0.678879
O O7 0.500000 0.987194 0.750000
O O8 0.720712 0.926035 0.612651
O O9 0.829927 0.190262 0.702664
O O10 0.500000 0.707277 0.250000
O O11 0.660425 0.690918 0.326272
O O12 0.470942 0.861631 0.332942
O O13 0.234796 0.211400 0.602630
#
# Coordination Sequence:
#
# PCOD9282448 Si02
#       6
#     8   8   8   8   8   8
#     4  11  23  42  65  91 127 169 208 255 314 371
#     4  10  23  42  63  92 127 165 212 257 308 377
#     4  10  21  39  62  90 123 160 205 256 311 368
#     4  11  22  39  63  92 125 163 207 256 314 371
#     4  11  23  39  62  93 125 162 208 257 310 371
#     4  11  23  40  63  91 125 162 207 259 310 370
#
# _framework density 26.951889000000001
#
# number of rings (size 3 to 8) (size 9 to 14) (size 15 to 20)
#    0.000    1.333    0.000    7.000    0.000    2.667 
#    0.000   15.833    0.000    0.000    0.000    0.000 
#    0.000    0.000    0.000    0.000    0.000    0.000 
#
# Total GULP energy -134392.531898 kJ/mol
# GULP energy per Si atom -5599.688829 kJ/mol
# Density = 2.689055 g / cm^3
# Si number density = 26.951889 Si / 1000 Ang^3
#
#
#
# Elastic Constant Matrix: (Units=GPa)
#
#
# Indices 1 2 3 4 5 6 
#
# 1 124.3409 54.6845 23.5979 0.0000 24.2275 0.0000
# 2 54.6845 73.0908 9.2568 0.0000 10.2751 0.0000
# 3 23.5979 9.2568 84.1231 0.0000 15.4676 0.0000
# 4 0.0000 0.0000 0.0000 35.5118 0.0000 -0.3229
# 5 24.2275 10.2751 15.4676 0.0000 53.3473 0.0000
# 6 0.0000 0.0000 0.0000 -0.3229 0.0000 49.4893
#
#
#
# Elastic Compliance Matrix: (Units=1/GPa)
#
#
# Indices 1 2 3 4 5 6 
#
# 1 0.013108 -0.009042 -0.002015 0.000000 -0.003627 0.000000
# 2 -0.009042 0.020398 0.000274 0.000000 0.000098 0.000000
# 3 -0.002015 0.000274 0.012955 0.000000 -0.002894 0.000000
# 4 0.000000 0.000000 0.000000 0.028161 0.000000 0.000184
# 5 -0.003627 0.000098 -0.002894 0.000000 0.021212 0.000000
# 6 0.000000 0.000000 0.000000 0.000184 0.000000 0.020208
#
#
# Mechanical properties :
#
#
# Convention : Reuss Voigt Hill
#
# Bulk Modulus (GPa) = 40.17022 50.73703 45.45363
# Shear Modulus (GPa) = 34.26830 40.60405 37.43617
#
# Velocity S-wave (km/s) = 3.56962 3.88563 3.73097
# Velocity P-wave (km/s) = 5.65035 6.24473 5.95496
#
# Compressibility (1/GPa) = 0.02489406
#
# Stress axis : x y z
#
# Youngs Moduli (GPa) = 76.28759 49.02390 77.19299
#
# Poissons Ratio (x) = 0.44328 0.15556
# Poissons Ratio (y) = 0.68980 -0.02114
# Poissons Ratio (z) = 0.15373 -0.01342
#
# Static dielectric constant tensor:
#      x y z
#    x 2.095720 0.000000 -0.028610 
#    y 0.000000 2.082830 0.000000 
#    z -0.028610 0.000000 2.216480 
# 
# From -- ./inp_files/231060.got.cif
#   From: 2010.05.17/outbox.cif.g08.bks.cpg/sg15_116_cif.got.tgz:231060.got - 2010.06.03 18:47:42.
