data_PCOD9282352
_publ_section_title
;
Structure prediction by ZEFSAII (Michael W. Deem and Ramdas Pophale) SiO2 
 PCOD9282352
Probable space group: C 2/C
;
_chemical_formula_sum "Si O2"
_cell_formula_units_Z 40
_cell_length_a 21.613695
_cell_length_b 8.535442
_cell_length_c 9.526717
_cell_angle_alpha 90.000000
_cell_angle_beta 102.316720
_cell_angle_gamma 90.000000
_cell_volume 1717.059989
_symmetry_space_group_name_H-M "C 2/C"
_symmetry_group_IT_number 15
_symmetry_cell_setting 'monoclinic'
loop_
_space_group_symop_operation_xyz
x,y,z
-x,y,1/2-z
-x,-y,-z
x,-y,1/2+z
1/2+x,1/2+y,z
1/2-x,1/2+y,1/2-z
1/2-x,1/2-y,-z
1/2+x,1/2-y,1/2+z
loop_
_atom_site_type_symbol
_atom_site_label
_atom_site_fract_x
_atom_site_fract_y
_atom_site_fract_z
Si Si1 0.433063 0.208305 0.312601
Si Si2 0.211385 0.816943 0.271029
Si Si3 0.412521 0.020458 0.568551
Si Si4 0.000000 0.000000 0.000000
Si Si5 0.236808 0.507537 0.450377
Si Si6 0.500000 0.730900 0.250000
O O1 0.361821 0.277730 0.281975
O O2 0.432333 0.059788 0.419476
O O3 0.473565 0.350831 0.390940
O O4 0.439040 0.133797 0.159488
O O5 0.242185 0.662646 0.355003
O O6 0.223288 0.953667 0.391415
O O7 0.240065 0.866834 0.136149
O O8 0.441809 0.164240 0.669181
O O9 0.336588 0.012159 0.542670
O O10 0.979138 0.877584 0.867293
#
# Coordination Sequence:
#
# PCOD9282352 Si02
#       6
#     8   8   8   4   8   4
#     4  10  23  42  64  93 124 162 206 255 308 367
#     4  10  22  38  61  90 124 161 201 250 307 365
#     4  10  22  42  65  88 121 165 209 246 307 381
#     4  10  24  42  62  94 126 154 206 264 312 350
#     4  10  21  39  61  90 123 161 203 251 306 368
#     4  10  24  42  64  92 122 164 208 260 312 364
#
# _framework density 23.295634
#
# number of rings (size 3 to 8) (size 9 to 14) (size 15 to 20)
#    0.000    2.000    0.000    2.400    0.000   13.600 
#    0.000    4.000    0.000    0.000    0.000    0.000 
#    0.000    0.000    0.000    0.000    0.000    0.000 
#
# Total GULP energy -111356.380655 kJ/mol
# GULP energy per Si atom -5567.819033 kJ/mol
# Density = 2.324261 g / cm^3
# Si number density = 23.295634 Si / 1000 Ang^3
#
#
#
# Elastic Constant Matrix: (Units=GPa)
#
#
# Indices 1 2 3 4 5 6 
#
# 1 47.2746 41.8124 46.2297 0.0000 0.0864 0.0000
# 2 41.8124 105.6824 50.4523 0.0000 -5.4171 0.0000
# 3 46.2297 50.4523 138.0149 0.0000 5.9662 0.0000
# 4 0.0000 0.0000 0.0000 88.0310 0.0000 37.8871
# 5 0.0864 -5.4171 5.9662 0.0000 28.6323 0.0000
# 6 0.0000 0.0000 0.0000 37.8871 0.0000 50.8246
#
#
#
# Elastic Compliance Matrix: (Units=1/GPa)
#
#
# Indices 1 2 3 4 5 6 
#
# 1 0.040531 -0.011607 -0.009317 0.000000 -0.000377 0.000000
# 2 -0.011607 0.015060 -0.001758 0.000000 0.003251 0.000000
# 3 -0.009317 -0.001758 0.011122 0.000000 -0.002622 0.000000
# 4 0.000000 0.000000 0.000000 0.016726 0.000000 -0.012468
# 5 -0.000377 0.003251 -0.002622 0.000000 0.036088 0.000000
# 6 0.000000 0.000000 0.000000 -0.012468 0.000000 0.028970
#
#
# Mechanical properties :
#
#
# Convention : Reuss Voigt Hill
#
# Bulk Modulus (GPa) = 46.83951 63.10672 54.97311
# Shear Modulus (GPa) = 24.87838 43.66276 34.27057
#
# Velocity S-wave (km/s) = 3.27148 4.33400 3.83967
# Velocity P-wave (km/s) = 5.86689 7.22448 6.58078
#
# Compressibility (1/GPa) = 0.02134950
#
# Stress axis : x y z
#
# Youngs Moduli (GPa) = 24.67270 66.39896 89.90873
#
# Poissons Ratio (x) = 0.77070 0.83767
# Poissons Ratio (y) = 0.28638 0.15806
# Poissons Ratio (z) = 0.22987 0.11673
#
# Static dielectric constant tensor:
#      x y z
#    x 1.899910 0.000000 -0.043040 
#    y 0.000000 1.999620 0.000000 
#    z -0.043040 0.000000 1.893890 
# 
# From -- ./inp_files/60108.got.cif
#   From: 2010.05.17/outbox.cif.g08.bks.cpg/sg15_31_cif.got.tgz:60108.got - 2010.06.03 18:47:42.
