data_PCOD9282342
_publ_section_title
;
Structure prediction by ZEFSAII (Michael W. Deem and Ramdas Pophale) SiO2 
 PCOD9282342
Probable space group: C 2/C
;
_chemical_formula_sum "Si O2"
_cell_formula_units_Z 64
_cell_length_a 14.713515
_cell_length_b 25.819047
_cell_length_c 9.644941
_cell_angle_alpha 90.000000
_cell_angle_beta 111.330804
_cell_angle_gamma 90.000000
_cell_volume 3413.006534
_symmetry_space_group_name_H-M "C 2/C"
_symmetry_group_IT_number 15
_symmetry_cell_setting 'monoclinic'
loop_
_space_group_symop_operation_xyz
x,y,z
-x,y,1/2-z
-x,-y,-z
x,-y,1/2+z
1/2+x,1/2+y,z
1/2-x,1/2+y,1/2-z
1/2-x,1/2-y,-z
1/2+x,1/2-y,1/2+z
loop_
_atom_site_type_symbol
_atom_site_label
_atom_site_fract_x
_atom_site_fract_y
_atom_site_fract_z
Si Si1 0.188999 0.654099 0.626809
Si Si2 0.065374 0.560281 0.661843
Si Si3 0.923581 0.556016 0.324251
Si Si4 0.113641 0.708282 0.851353
Si Si5 0.401680 0.327692 0.605456
Si Si6 0.786325 0.355957 0.854475
Si Si7 0.094335 0.176859 0.719490
Si Si8 0.826839 0.717861 0.133433
O O1 0.145831 0.599931 0.653458
O O2 0.173215 0.692633 0.747615
O O3 0.305031 0.651941 0.669232
O O4 0.134234 0.677417 0.461178
O O5 0.104839 0.503470 0.726456
O O6 0.000000 0.582104 0.750000
O O7 0.988403 0.553674 0.497136
O O8 0.834926 0.593856 0.311282
O O9 0.000000 0.574694 0.250000
O O10 0.133090 0.767902 0.899206
O O11 0.000000 0.704322 0.750000
O O12 0.142041 0.670337 0.992408
O O13 0.500000 0.333522 0.750000
O O14 0.315692 0.362514 0.622372
O O15 0.416313 0.334695 0.449485
O O16 0.775606 0.314853 0.724592
O O17 0.105802 0.238819 0.757372
O O18 0.000000 0.158673 0.750000
O O19 0.750000 0.750000 0.000000
#
# Coordination Sequence:
#
# PCOD9282342 Si02
#       8
#     8   8   8   8   8   8   8   8
#     4  11  21  37  58  84 115 158 194 233 290 349
#     4  10  21  39  61  89 120 146 188 239 294 360
#     4  10  22  38  60  92 120 147 184 241 302 350
#     4  11  22  35  58  86 114 152 198 237 283 347
#     4  11  24  38  57  82 117 157 201 242 285 338
#     4  12  21  39  61  83 117 160 198 237 292 357
#     4  11  24  38  53  82 119 155 195 244 289 335
#     4  10  23  35  55  80 118 154 196 238 284 338
#
# _framework density 18.751794
#
# number of rings (size 3 to 8) (size 9 to 14) (size 15 to 20)
#    0.000    1.250    2.500    4.500    7.000    1.500 
#    0.000    0.000    0.000    0.750    0.000    1.750 
#    0.000    0.000    0.000    0.000    0.000    0.000 
#
# Total GULP energy -178663.223552 kJ/mol
# GULP energy per Si atom -5583.225736 kJ/mol
# Density = 1.870911 g / cm^3
# Si number density = 18.751794 Si / 1000 Ang^3
#
#
#
# Elastic Constant Matrix: (Units=GPa)
#
#
# Indices 1 2 3 4 5 6 
#
# 1 128.4071 56.1152 25.8485 0.0000 -15.2740 0.0000
# 2 56.1152 82.0135 11.4987 0.0000 -6.6778 0.0000
# 3 25.8485 11.4987 93.6789 0.0000 -20.8945 0.0000
# 4 0.0000 0.0000 0.0000 19.1987 0.0000 -5.3149
# 5 -15.2740 -6.6778 -20.8945 0.0000 34.2655 0.0000
# 6 0.0000 0.0000 0.0000 -5.3149 0.0000 34.7186
#
#
#
# Elastic Compliance Matrix: (Units=1/GPa)
#
#
# Indices 1 2 3 4 5 6 
#
# 1 0.011775 -0.007595 -0.001709 0.000000 0.002727 0.000000
# 2 -0.007595 0.017394 -0.000044 0.000000 -0.000023 0.000000
# 3 -0.001709 -0.000044 0.012708 0.000000 0.006979 0.000000
# 4 0.000000 0.000000 0.000000 0.054392 0.000000 0.008327
# 5 0.002727 -0.000023 0.006979 0.000000 0.034651 0.000000
# 6 0.000000 0.000000 0.000000 0.008327 0.000000 0.030078
#
#
# Mechanical properties :
#
#
# Convention : Reuss Voigt Hill
#
# Bulk Modulus (GPa) = 43.13842 54.55824 48.84833
# Shear Modulus (GPa) = 26.67782 31.67903 29.17842
#
# Velocity S-wave (km/s) = 3.77594 4.11467 3.94894
# Velocity P-wave (km/s) = 6.48577 7.19251 6.84826
#
# Compressibility (1/GPa) = 0.02318119
#
# Stress axis : x y z
#
# Youngs Moduli (GPa) = 84.92400 57.49013 78.68879
#
# Poissons Ratio (x) = 0.43665 0.13445
# Poissons Ratio (y) = 0.64502 0.00350
# Poissons Ratio (z) = 0.14510 0.00255
#
# Static dielectric constant tensor:
#      x y z
#    x 1.646110 0.000000 0.026940 
#    y 0.000000 1.695180 0.000000 
#    z 0.026940 0.000000 1.629230 
# 
# From -- ./inp_files/43582.got.cif
#   From: 2010.05.17/outbox.cif.g08.bks.cpg/sg15_22_cif.got.tgz:43582.got - 2010.06.03 18:47:42.
