data_PCOD9282234
_publ_section_title
;
Structure prediction by ZEFSAII (Michael W. Deem and Ramdas Pophale) SiO2 
 PCOD9282234
Probable space group: C 2/C
;
_chemical_formula_sum "Si O2"
_cell_formula_units_Z 44
_cell_length_a 19.333816
_cell_length_b 21.233944
_cell_length_c 5.225589
_cell_angle_alpha 90.000000
_cell_angle_beta 117.778906
_cell_angle_gamma 90.000000
_cell_volume 1898.039975
_symmetry_space_group_name_H-M "C 2/C"
_symmetry_group_IT_number 15
_symmetry_cell_setting 'monoclinic'
loop_
_space_group_symop_operation_xyz
x,y,z
-x,y,1/2-z
-x,-y,-z
x,-y,1/2+z
1/2+x,1/2+y,z
1/2-x,1/2+y,1/2-z
1/2-x,1/2-y,-z
1/2+x,1/2-y,1/2+z
loop_
_atom_site_type_symbol
_atom_site_label
_atom_site_fract_x
_atom_site_fract_y
_atom_site_fract_z
Si Si1 0.212786 0.524978 0.297433
Si Si2 0.500000 0.956414 0.250000
Si Si3 0.406654 0.208041 0.069770
Si Si4 0.387070 0.528810 0.164693
Si Si5 0.948608 0.840119 0.916763
Si Si6 0.142599 0.357995 0.515994
O O1 0.173503 0.515922 0.505358
O O2 0.297307 0.493835 0.486375
O O3 0.214954 0.597394 0.217221
O O4 0.572452 0.908533 0.405775
O O5 0.500000 0.000000 0.500000
O O6 0.500000 0.191780 0.250000
O O7 0.372061 0.194317 0.290784
O O8 0.405852 0.278768 0.956629
O O9 0.361177 0.168350 0.776277
O O10 0.421745 0.486168 0.449190
O O11 0.395436 0.601457 0.245804
O O12 0.000000 0.823650 0.750000
O O13 0.000000 0.861026 0.250000
#
# Coordination Sequence:
#
# PCOD9282234 Si02
#       6
#     8   4   8   8   8   8
#     4  10  21  39  60  84 117 169 212 255 312 363
#     4  12  22  32  50  86 122 156 206 254 296 358
#     4  11  21  38  56  87 127 166 205 252 305 373
#     4  10  22  40  65  90 125 161 205 265 323 376
#     4  11  23  39  64  97 128 162 206 256 321 386
#     4  12  21  36  59  84 125 172 205 254 306 367
#
# _framework density 23.181806999999999
#
# number of rings (size 3 to 8) (size 9 to 14) (size 15 to 20)
#    0.000    1.091    1.818    6.545    0.000    2.182 
#    0.000    0.000    0.000   26.182    0.000    0.000 
#    0.000    0.000    0.000    0.000    0.000    0.000 
#
# Total GULP energy -122923.410615 kJ/mol
# GULP energy per Si atom -5587.427755 kJ/mol
# Density = 2.312904 g / cm^3
# Si number density = 23.181807 Si / 1000 Ang^3
#
#
#
# Elastic Constant Matrix: (Units=GPa)
#
#
# Indices 1 2 3 4 5 6 
#
# 1 47.0150 27.4388 25.7191 0.0000 -2.9645 0.0000
# 2 27.4388 126.8241 54.0182 0.0000 9.0452 0.0000
# 3 25.7191 54.0182 164.9316 0.0000 -40.7686 0.0000
# 4 0.0000 0.0000 0.0000 44.1562 0.0000 -0.0361
# 5 -2.9645 9.0452 -40.7686 0.0000 33.0976 0.0000
# 6 0.0000 0.0000 0.0000 -0.0361 0.0000 23.9794
#
#
#
# Elastic Compliance Matrix: (Units=1/GPa)
#
#
# Indices 1 2 3 4 5 6 
#
# 1 0.025203 -0.004535 -0.002273 0.000000 0.000697 0.000000
# 2 -0.004535 0.012265 -0.006095 0.000000 -0.011265 0.000000
# 3 -0.002273 -0.006095 0.012616 0.000000 0.017003 0.000000
# 4 0.000000 0.000000 0.000000 0.022647 0.000000 0.000034
# 5 0.000697 -0.011265 0.017003 0.000000 0.054298 0.000000
# 6 0.000000 0.000000 0.000000 0.000034 0.000000 0.041702
#
#
# Mechanical properties :
#
#
# Convention : Reuss Voigt Hill
#
# Bulk Modulus (GPa) = 41.18369 61.45811 51.32090
# Shear Modulus (GPa) = 24.67549 35.68629 30.18089
#
# Velocity S-wave (km/s) = 3.26610 3.92779 3.61213
# Velocity P-wave (km/s) = 5.65927 6.86578 6.29151
#
# Compressibility (1/GPa) = 0.02428146
#
# Stress axis : x y z
#
# Youngs Moduli (GPa) = 39.67705 81.53056 79.26193
#
# Poissons Ratio (x) = 0.36971 0.18014
# Poissons Ratio (y) = 0.17992 0.48307
# Poissons Ratio (z) = 0.09017 0.49690
#
# Static dielectric constant tensor:
#      x y z
#    x -0.499750 0.000000 -0.129040 
#    y 0.000000 1.867390 0.000000 
#    z -0.129040 0.000000 1.930580 
# 
# From -- ./inp_files/15466.got.cif
#   From: 2010.05.17/outbox.cif.g08.bks.cpg/sg15_8_cif.got.tgz:15466.got - 2010.06.03 18:47:42.
