data_PCOD9282242
_publ_section_title
;
Structure prediction by ZEFSAII (Michael W. Deem and Ramdas Pophale) SiO2 
 PCOD9282242
Probable space group: C 2/C
;
_chemical_formula_sum "Si O2"
_cell_formula_units_Z 40
_cell_length_a 26.054231
_cell_length_b 5.010742
_cell_length_c 15.826427
_cell_angle_alpha 90.000000
_cell_angle_beta 71.578418
_cell_angle_gamma 90.000000
_cell_volume 1960.280386
_symmetry_space_group_name_H-M "C 2/C"
_symmetry_group_IT_number 15
_symmetry_cell_setting 'monoclinic'
loop_
_space_group_symop_operation_xyz
x,y,z
-x,y,1/2-z
-x,-y,-z
x,-y,1/2+z
1/2+x,1/2+y,z
1/2-x,1/2+y,1/2-z
1/2-x,1/2-y,-z
1/2+x,1/2-y,1/2+z
loop_
_atom_site_type_symbol
_atom_site_label
_atom_site_fract_x
_atom_site_fract_y
_atom_site_fract_z
Si Si1 0.374130 0.405078 0.760286
Si Si2 0.836459 0.907508 0.097837
Si Si3 0.637291 0.896141 0.523241
Si Si4 0.778077 0.380446 0.404343
Si Si5 0.436095 0.915498 0.792703
O O1 0.359194 0.524433 0.677366
O O2 0.318760 0.318481 0.835843
O O3 0.409546 0.628773 0.788188
O O4 0.409498 0.134447 0.744366
O O5 0.771825 0.965831 0.127920
O O6 0.847196 0.610071 0.057290
O O7 0.864219 0.108158 0.017243
O O8 0.583952 0.982895 0.601780
O O9 0.683778 0.899859 0.571735
O O10 0.750000 0.250000 0.500000
O O11 0.500000 0.910552 0.750000
#
# Coordination Sequence:
#
# PCOD9282242 Si02
#       5
#     8   8   8   8   8
#     4  11  24  39  61  94 122 154 206 254 300 359
#     4  11  22  38  59  92 128 155 190 250 303 356
#     4  10  21  39  60  86 120 163 203 237 293 371
#     4   9  20  36  59  86 120 161 191 228 294 367
#     4  11  23  44  65  84 115 163 211 257 302 355
#
# _framework density 20.405245000000001
#
# number of rings (size 3 to 8) (size 9 to 14) (size 15 to 20)
#    0.000    1.600    0.000    6.000    0.000   11.200 
#    0.000    6.000    0.000    0.000    0.000    0.000 
#    0.000    0.000    0.000    0.000    0.000    0.000 
#
# Total GULP energy -111715.262234 kJ/mol
# GULP energy per Si atom -5585.763112 kJ/mol
# Density = 2.035880 g / cm^3
# Si number density = 20.405245 Si / 1000 Ang^3
#
#
#
# Elastic Constant Matrix: (Units=GPa)
#
#
# Indices 1 2 3 4 5 6 
#
# 1 107.2495 11.4598 65.0607 0.0000 -21.4686 0.0000
# 2 11.4598 67.5026 3.5554 0.0000 6.0345 0.0000
# 3 65.0607 3.5554 71.0684 0.0000 -7.3964 0.0000
# 4 0.0000 0.0000 0.0000 25.8835 0.0000 4.3384
# 5 -21.4686 6.0345 -7.3964 0.0000 30.4658 0.0000
# 6 0.0000 0.0000 0.0000 4.3384 0.0000 20.1516
#
#
#
# Elastic Compliance Matrix: (Units=1/GPa)
#
#
# Indices 1 2 3 4 5 6 
#
# 1 0.026006 -0.004486 -0.022143 0.000000 0.013839 0.000000
# 2 -0.004486 0.015938 0.002721 0.000000 -0.005658 0.000000
# 3 -0.022143 0.002721 0.033369 0.000000 -0.008041 0.000000
# 4 0.000000 0.000000 0.000000 0.040081 0.000000 -0.008629
# 5 0.013839 -0.005658 -0.008041 0.000000 0.041744 0.000000
# 6 0.000000 0.000000 0.000000 -0.008629 0.000000 0.051482
#
#
# Mechanical properties :
#
#
# Convention : Reuss Voigt Hill
#
# Bulk Modulus (GPa) = 36.36796 45.10802 40.73799
# Shear Modulus (GPa) = 18.82507 26.34982 22.58745
#
# Velocity S-wave (km/s) = 3.04066 3.59740 3.33068
# Velocity P-wave (km/s) = 5.49446 6.27767 5.89908
#
# Compressibility (1/GPa) = 0.02749673
#
# Stress axis : x y z
#
# Youngs Moduli (GPa) = 38.45224 62.74208 29.96763
#
# Poissons Ratio (x) = 0.28145 0.66358
# Poissons Ratio (y) = 0.17249 -0.08153
# Poissons Ratio (z) = 0.85146 -0.17069
#
# Static dielectric constant tensor:
#      x y z
#    x 1.733500 0.000000 -0.004010 
#    y 0.000000 1.737800 0.000000 
#    z -0.004010 0.000000 1.738970 
# 
# From -- ./inp_files/170723.got.cif
#   From: 2010.05.17/outbox.cif.g08.bks.cpg/sg15_86_cif.got.tgz:170723.got - 2010.06.03 18:47:42.
