data_PCOD9282195
_publ_section_title
;
Structure prediction by ZEFSAII (Michael W. Deem and Ramdas Pophale) SiO2 
 PCOD9282195
Probable space group: C 2/C
;
_chemical_formula_sum "Si O2"
_cell_formula_units_Z 64
_cell_length_a 23.134640
_cell_length_b 15.908907
_cell_length_c 11.582419
_cell_angle_alpha 90.000000
_cell_angle_beta 57.620806
_cell_angle_gamma 90.000000
_cell_volume 3600.091655
_symmetry_space_group_name_H-M "C 2/C"
_symmetry_group_IT_number 15
_symmetry_cell_setting 'monoclinic'
loop_
_space_group_symop_operation_xyz
x,y,z
-x,y,1/2-z
-x,-y,-z
x,-y,1/2+z
1/2+x,1/2+y,z
1/2-x,1/2+y,1/2-z
1/2-x,1/2-y,-z
1/2+x,1/2-y,1/2+z
loop_
_atom_site_type_symbol
_atom_site_label
_atom_site_fract_x
_atom_site_fract_y
_atom_site_fract_z
Si Si1 0.072853 0.599820 0.627832
Si Si2 0.202282 0.360839 0.595576
Si Si3 0.821161 0.448055 0.308913
Si Si4 0.677056 0.736661 0.421828
Si Si5 0.109923 0.724267 0.390435
Si Si6 0.477153 0.757273 0.907049
Si Si7 0.940018 0.449581 0.998054
Si Si8 0.737808 0.708385 0.886976
O O1 0.132138 0.608827 0.656379
O O2 0.090172 0.645519 0.491445
O O3 0.068335 0.500180 0.611014
O O4 0.000000 0.630840 0.750000
O O5 0.194293 0.460074 0.623497
O O6 0.277337 0.330358 0.556465
O O7 0.186783 0.323211 0.485611
O O8 0.149619 0.312113 0.736719
O O9 0.869848 0.456364 0.145181
O O10 0.754748 0.390700 0.365346
O O11 0.597099 0.715331 0.498933
O O12 0.710046 0.749437 0.261062
O O13 0.162934 0.775649 0.412711
O O14 0.040839 0.768673 0.419856
O O15 0.500000 0.750657 0.750000
O O16 0.462802 0.854934 0.953423
O O17 0.000000 0.500000 0.000000
O O18 0.750000 0.750000 0.000000
#
# Coordination Sequence:
#
# PCOD9282195 Si02
#       8
#     8   8   8   8   8   8   8   8
#     4  12  22  31  51  83 123 156 189 235 284 360
#     4  10  21  39  59  85 115 154 200 250 284 345
#     4  12  22  36  57  81 116 160 197 238 294 342
#     4  10  22  39  59  84 120 151 201 243 293 344
#     4  11  22  37  55  83 119 155 200 239 286 349
#     4  12  21  35  58  84 117 159 193 240 295 343
#     4  12  21  31  48  85 122 154 186 229 284 361
#     4  11  24  41  57  81 121 162 199 238 288 353
#
# _framework density 17.777325999999999
#
# number of rings (size 3 to 8) (size 9 to 14) (size 15 to 20)
#    0.000    0.750    7.500    1.125    0.000    0.000 
#    0.000    0.000    0.000    0.750    0.000    0.875 
#    0.000    0.000    0.000    0.000    0.000    0.000 
#
# Total GULP energy -178619.326246 kJ/mol
# GULP energy per Si atom -5581.853945 kJ/mol
# Density = 1.773686 g / cm^3
# Si number density = 17.777326 Si / 1000 Ang^3
#
#
#
# Elastic Constant Matrix: (Units=GPa)
#
#
# Indices 1 2 3 4 5 6 
#
# 1 149.8476 35.2207 44.9295 0.0000 -16.0595 0.0000
# 2 35.2207 48.8264 16.3715 0.0000 -8.0472 0.0000
# 3 44.9295 16.3715 99.4934 0.0000 0.1456 0.0000
# 4 0.0000 0.0000 0.0000 13.6298 0.0000 5.1874
# 5 -16.0595 -8.0472 0.1456 0.0000 30.4156 0.0000
# 6 0.0000 0.0000 0.0000 5.1874 0.0000 14.5997
#
#
#
# Elastic Compliance Matrix: (Units=1/GPa)
#
#
# Indices 1 2 3 4 5 6 
#
# 1 0.009225 -0.004938 -0.003358 0.000000 0.003580 0.000000
# 2 -0.004938 0.025375 -0.001952 0.000000 0.004116 0.000000
# 3 -0.003358 -0.001952 0.011892 0.000000 -0.002347 0.000000
# 4 0.000000 0.000000 0.000000 0.084842 0.000000 -0.030145
# 5 0.003580 0.004116 -0.002347 0.000000 0.035868 0.000000
# 6 0.000000 0.000000 0.000000 -0.030145 0.000000 0.079205
#
#
# Mechanical properties :
#
#
# Convention : Reuss Voigt Hill
#
# Bulk Modulus (GPa) = 38.46722 54.57898 46.52310
# Shear Modulus (GPa) = 18.14425 25.17208 21.65816
#
# Velocity S-wave (km/s) = 3.19821 3.76701 3.49421
# Velocity P-wave (km/s) = 5.94335 7.04902 6.51966
#
# Compressibility (1/GPa) = 0.02599616
#
# Stress axis : x y z
#
# Youngs Moduli (GPa) = 108.40351 39.40816 84.08954
#
# Poissons Ratio (x) = 0.19460 0.28241
# Poissons Ratio (y) = 0.53531 0.16411
# Poissons Ratio (z) = 0.36407 0.07691
#
# Static dielectric constant tensor:
#      x y z
#    x 1.701760 0.000000 -0.011960 
#    y 0.000000 1.603710 0.000000 
#    z -0.011960 0.000000 1.652560 
# 
# From -- ./inp_files/113480.got.cif
#   From: 2010.05.17/outbox.cif.g08.bks.cpg/sg15_57_cif.got.tgz:113480.got - 2010.06.03 18:47:42.
