data_PCOD9282728
_publ_section_title
;
Structure prediction by ZEFSAII (Michael W. Deem and Ramdas Pophale) SiO2 
 PCOD9282728
Probable space group: C 2/C
;
_chemical_formula_sum "Si O2"
_cell_formula_units_Z 56
_cell_length_a 18.571767
_cell_length_b 20.189958
_cell_length_c 8.074354
_cell_angle_alpha 90.000000
_cell_angle_beta 58.510176
_cell_angle_gamma 90.000000
_cell_volume 2581.721980
_symmetry_space_group_name_H-M "C 2/C"
_symmetry_group_IT_number 15
_symmetry_cell_setting 'monoclinic'
loop_
_space_group_symop_operation_xyz
x,y,z
-x,y,1/2-z
-x,-y,-z
x,-y,1/2+z
1/2+x,1/2+y,z
1/2-x,1/2+y,1/2-z
1/2-x,1/2-y,-z
1/2+x,1/2-y,1/2+z
loop_
_atom_site_type_symbol
_atom_site_label
_atom_site_fract_x
_atom_site_fract_y
_atom_site_fract_z
Si Si1 0.127054 0.526383 0.792026
Si Si2 0.712357 0.189835 0.830418
Si Si3 0.600409 0.544807 0.660068
Si Si4 0.530597 0.137714 0.032183
Si Si5 0.121292 0.602646 0.457546
Si Si6 0.777444 0.155561 0.116778
Si Si7 0.186221 0.923832 0.396923
O O1 0.113806 0.559752 0.630577
O O2 0.120559 0.448376 0.804594
O O3 0.221588 0.542764 0.740954
O O4 0.057753 0.560692 0.990871
O O5 0.705137 0.268237 0.861838
O O6 0.784893 0.153789 0.631599
O O7 0.619821 0.169811 0.880012
O O8 0.731497 0.159905 0.991271
O O9 0.500000 0.543349 0.750000
O O10 0.648478 0.600890 0.490507
O O11 0.642058 0.471730 0.584650
O O12 0.624221 0.567195 0.816183
O O13 0.500000 0.158246 0.250000
O O14 0.456658 0.149790 0.989049
O O15 0.212083 0.634392 0.336346
#
# Coordination Sequence:
#
# PCOD9282728 Si02
#       7
#     8   8   8   8   8   8   8
#     4  11  23  37  61  93 131 162 202 256 314 385
#     4   9  21  41  61  90 124 167 210 255 316 381
#     4  11  22  38  65  96 123 156 215 271 321 367
#     4  11  21  37  60  91 126 163 202 258 309 372
#     4  12  22  37  62  94 128 166 208 255 318 379
#     4  10  21  39  64  90 122 166 213 256 319 382
#     4  10  21  40  63  89 126 164 204 261 318 377
#
# _framework density 21.690947999999999
#
# number of rings (size 3 to 8) (size 9 to 14) (size 15 to 20)
#    0.000    1.429    2.857    3.000    2.000    0.571 
#    2.571    2.857    0.000    0.000    0.000    0.000 
#    0.000    0.000    0.000    0.000    0.000    0.000 
#
# Total GULP energy -156152.915375 kJ/mol
# GULP energy per Si atom -5576.889835 kJ/mol
# Density = 2.164158 g / cm^3
# Si number density = 21.690948 Si / 1000 Ang^3
#
#
#
# Elastic Constant Matrix: (Units=GPa)
#
#
# Indices 1 2 3 4 5 6 
#
# 1 110.0614 9.0928 28.9079 0.0000 -16.6762 0.0000
# 2 9.0928 72.8977 21.0561 0.0000 4.1274 0.0000
# 3 28.9079 21.0561 53.5965 0.0000 -3.3301 0.0000
# 4 0.0000 0.0000 0.0000 10.6470 0.0000 3.8868
# 5 -16.6762 4.1274 -3.3301 0.0000 34.2970 0.0000
# 6 0.0000 0.0000 0.0000 3.8868 0.0000 16.0165
#
#
#
# Elastic Compliance Matrix: (Units=1/GPa)
#
#
# Indices 1 2 3 4 5 6 
#
# 1 0.011367 -0.000019 -0.005815 0.000000 0.004965 0.000000
# 2 -0.000019 0.015684 -0.006307 0.000000 -0.002509 0.000000
# 3 -0.005815 -0.006307 0.024290 0.000000 0.000290 0.000000
# 4 0.000000 0.000000 0.000000 0.103052 0.000000 -0.025008
# 5 0.004965 -0.002509 0.000290 0.000000 0.031901 0.000000
# 6 0.000000 0.000000 0.000000 -0.025008 0.000000 0.068505
#
#
# Mechanical properties :
#
#
# Convention : Reuss Voigt Hill
#
# Bulk Modulus (GPa) = 36.95703 39.40771 38.18237
# Shear Modulus (GPa) = 17.35499 24.02536 20.69018
#
# Velocity S-wave (km/s) = 2.83168 3.33171 3.09182
# Velocity P-wave (km/s) = 5.26936 5.74522 5.51243
#
# Compressibility (1/GPa) = 0.02705845
#
# Stress axis : x y z
#
# Youngs Moduli (GPa) = 87.97436 63.75869 41.16900
#
# Poissons Ratio (x) = 0.00123 0.23939
# Poissons Ratio (y) = 0.00170 0.25966
# Poissons Ratio (z) = 0.51156 0.40214
#
# Static dielectric constant tensor:
#      x y z
#    x 1.821630 0.000000 0.037490 
#    y 0.000000 1.834070 0.000000 
#    z 0.037490 0.000000 1.852180 
# 
# From -- ./inp_files/57776.got.cif
#   From: 2010.05.17/outbox.cif.g08.bks.cpg/sg15_29_cif.got.tgz:57776.got - 2010.06.03 18:47:42.
