data_PCOD9282922
_publ_section_title
;
Structure prediction by ZEFSAII (Michael W. Deem and Ramdas Pophale) SiO2 
 PCOD9282922
Probable space group: C 2/C
;
_chemical_formula_sum "Si O2"
_cell_formula_units_Z 52
_cell_length_a 12.764330
_cell_length_b 14.428862
_cell_length_c 18.153651
_cell_angle_alpha 90.000000
_cell_angle_beta 54.087798
_cell_angle_gamma 90.000000
_cell_volume 2707.911481
_symmetry_space_group_name_H-M "C 2/C"
_symmetry_group_IT_number 15
_symmetry_cell_setting 'monoclinic'
loop_
_space_group_symop_operation_xyz
x,y,z
-x,y,1/2-z
-x,-y,-z
x,-y,1/2+z
1/2+x,1/2+y,z
1/2-x,1/2+y,1/2-z
1/2-x,1/2-y,-z
1/2+x,1/2-y,1/2+z
loop_
_atom_site_type_symbol
_atom_site_label
_atom_site_fract_x
_atom_site_fract_y
_atom_site_fract_z
Si Si1 0.883811 0.041634 0.999566
Si Si2 0.500000 0.007322 0.750000
Si Si3 0.922469 0.823547 0.350761
Si Si4 0.802640 0.790435 0.623132
Si Si5 0.209160 0.375803 0.077850
Si Si6 0.400805 0.149811 0.179780
Si Si7 0.592644 0.783776 0.982389
O O1 0.796730 0.111427 0.083562
O O2 0.800716 0.955442 0.007537
O O3 0.927501 0.104617 0.914269
O O4 0.000000 0.000000 0.000000
O O5 0.552662 0.940996 0.794533
O O6 0.386343 0.073762 0.826282
O O7 0.782256 0.788087 0.382745
O O8 0.000000 0.863792 0.250000
O O9 0.996342 0.729964 0.342979
O O10 0.734340 0.812654 0.729389
O O11 0.950986 0.759413 0.555259
O O12 0.303296 0.298471 0.074158
O O13 0.132428 0.331680 0.041931
O O14 0.401524 0.148628 0.090904
#
# Coordination Sequence:
#
# PCOD9282922 Si02
#       7
#     8   4   8   8   8   8   8
#     4  12  21  41  66  92 126 167 217 267 320 380
#     4  12  24  42  70  94 134 162 226 280 328 372
#     4  10  21  39  65  96 128 166 218 268 326 382
#     4  11  21  39  69  93 127 174 214 268 324 382
#     4  11  26  46  60  99 135 177 212 277 327 398
#     4  11  21  42  67 103 127 173 219 274 325 392
#     4  11  26  45  66  92 139 178 220 256 344 400
#
# _framework density 19.202991999999998
#
# number of rings (size 3 to 8) (size 9 to 14) (size 15 to 20)
#    0.000    0.923    6.923    0.462    4.308    0.615 
#    2.769    0.000    0.000    0.000    0.000    0.000 
#    0.000    0.000    0.000    0.000    0.000    0.000 
#
# Total GULP energy -145148.085591 kJ/mol
# GULP energy per Si atom -5582.618677 kJ/mol
# Density = 1.915928 g / cm^3
# Si number density = 19.202992 Si / 1000 Ang^3
#
#
#
# Elastic Constant Matrix: (Units=GPa)
#
#
# Indices 1 2 3 4 5 6 
#
# 1 87.2738 35.4770 46.2637 0.0000 -11.1821 0.0000
# 2 35.4770 93.2084 34.3899 0.0000 -9.0105 0.0000
# 3 46.2637 34.3899 75.8431 0.0000 -17.1373 0.0000
# 4 0.0000 0.0000 0.0000 29.9261 0.0000 2.7035
# 5 -11.1821 -9.0105 -17.1373 0.0000 15.5229 0.0000
# 6 0.0000 0.0000 0.0000 2.7035 0.0000 19.8415
#
#
#
# Elastic Compliance Matrix: (Units=1/GPa)
#
#
# Indices 1 2 3 4 5 6 
#
# 1 0.017755 -0.003305 -0.009160 0.000000 0.000758 0.000000
# 2 -0.003305 0.013521 -0.003837 0.000000 0.001232 0.000000
# 3 -0.009160 -0.003837 0.024673 0.000000 0.018414 0.000000
# 4 0.000000 0.000000 0.000000 0.033832 0.000000 -0.004610
# 5 0.000758 0.001232 0.018414 0.000000 0.086011 0.000000
# 6 0.000000 0.000000 0.000000 -0.004610 0.000000 0.051028
#
#
# Mechanical properties :
#
#
# Convention : Reuss Voigt Hill
#
# Bulk Modulus (GPa) = 42.83471 54.28739 48.56105
# Shear Modulus (GPa) = 18.71222 22.40442 20.55832
#
# Velocity S-wave (km/s) = 3.12499 3.41943 3.27552
# Velocity P-wave (km/s) = 5.94773 6.62734 6.29671
#
# Compressibility (1/GPa) = 0.02334556
#
# Stress axis : x y z
#
# Youngs Moduli (GPa) = 56.32347 73.95804 40.52983
#
# Poissons Ratio (x) = 0.24441 0.37127
# Poissons Ratio (y) = 0.18613 0.15550
# Poissons Ratio (z) = 0.51594 0.28375
#
# Static dielectric constant tensor:
#      x y z
#    x 1.689300 0.000000 -0.006630 
#    y 0.000000 1.645580 0.000000 
#    z -0.006630 0.000000 1.700000 
# 
# From -- ./inp_files/197691.got.cif
#   From: 2010.05.17/outbox.cif.g08.bks.cpg/sg15_99_cif.got.tgz:197691.got - 2010.06.03 18:47:42.
