data_PCOD9282379
_publ_section_title
;
Structure prediction by ZEFSAII (Michael W. Deem and Ramdas Pophale) SiO2 
 PCOD9282379
Probable space group: C 2/C
;
_chemical_formula_sum "Si O2"
_cell_formula_units_Z 64
_cell_length_a 23.775070
_cell_length_b 8.302444
_cell_length_c 27.884594
_cell_angle_alpha 90.000000
_cell_angle_beta 148.597068
_cell_angle_gamma 90.000000
_cell_volume 2867.967621
_symmetry_space_group_name_H-M "C 2/C"
_symmetry_group_IT_number 15
_symmetry_cell_setting 'monoclinic'
loop_
_space_group_symop_operation_xyz
x,y,z
-x,y,1/2-z
-x,-y,-z
x,-y,1/2+z
1/2+x,1/2+y,z
1/2-x,1/2+y,1/2-z
1/2-x,1/2-y,-z
1/2+x,1/2-y,1/2+z
loop_
_atom_site_type_symbol
_atom_site_label
_atom_site_fract_x
_atom_site_fract_y
_atom_site_fract_z
Si Si1 0.462562 0.825956 0.566872
Si Si2 0.376960 0.275159 0.152906
Si Si3 0.251541 0.481786 0.130969
Si Si4 0.177811 0.938616 0.479988
Si Si5 0.473754 0.689378 0.985038
Si Si6 0.167745 0.524715 0.254326
Si Si7 0.195283 0.672422 0.682609
Si Si8 0.729101 0.324391 0.093255
O O1 0.404434 0.673914 0.549319
O O2 0.532765 0.761859 0.573043
O O3 0.365065 0.935709 0.476388
O O4 0.543561 0.923648 0.659384
O O5 0.500000 0.226592 0.250000
O O6 0.330406 0.343672 0.168711
O O7 0.296722 0.141474 0.072388
O O8 0.362965 0.419717 0.103771
O O9 0.238224 0.467956 0.178416
O O10 0.287982 0.654046 0.138167
O O11 0.186937 0.111365 0.511757
O O12 0.371455 0.703134 0.944325
O O13 0.500000 0.500000 0.000000
O O14 0.572306 0.785748 0.080281
O O15 0.196586 0.381529 0.238169
O O16 0.238714 0.672643 0.286604
O O17 0.202059 0.465311 0.331505
#
# Coordination Sequence:
#
# PCOD9282379 Si02
#       8
#     8   8   8   8   8   8   8   8
#     4  10  21  39  61  93 125 172 205 255 310 380
#     4  10  23  46  69  94 120 164 216 269 320 384
#     4  10  23  44  63  88 132 162 213 263 320 374
#     4  10  23  42  70  96 120 166 214 259 330 369
#     4  11  19  38  59  87 130 171 210 244 312 375
#     4  12  23  35  59  96 132 166 215 249 308 379
#     4  11  23  37  59  92 131 175 209 256 305 378
#     4  12  23  41  62  95 130 169 204 261 311 385
#
# _framework density 22.315453999999999
#
# number of rings (size 3 to 8) (size 9 to 14) (size 15 to 20)
#    0.000    1.250    2.500    4.500    3.500    2.500 
#    4.500    0.625    0.000    0.000    0.000    0.000 
#    0.000    0.000    0.000    0.000    0.000    0.000 
#
# Total GULP energy -179001.790733 kJ/mol
# GULP energy per Si atom -5593.805960 kJ/mol
# Density = 2.226466 g / cm^3
# Si number density = 22.315454 Si / 1000 Ang^3
#
#
#
# Elastic Constant Matrix: (Units=GPa)
#
#
# Indices 1 2 3 4 5 6 
#
# 1 55.9808 -5.1745 21.2060 0.0000 -5.4667 0.0001
# 2 -5.1745 72.5238 -12.0766 0.0000 -1.3418 0.0002
# 3 21.2060 -12.0766 67.5872 -0.0001 16.5281 0.0000
# 4 0.0000 0.0000 -0.0001 19.1536 0.0000 -6.3895
# 5 -5.4667 -1.3418 16.5281 0.0000 38.4213 0.0000
# 6 0.0001 0.0002 0.0000 -6.3895 0.0000 25.2537
#
#
#
# Elastic Compliance Matrix: (Units=1/GPa)
#
#
# Indices 1 2 3 4 5 6 
#
# 1 0.021732 0.000274 -0.008413 0.000000 0.006721 0.000000
# 2 0.000274 0.014230 0.002599 0.000000 -0.000582 0.000000
# 3 -0.008413 0.002599 0.020307 0.000000 -0.009842 0.000000
# 4 0.000000 0.000000 0.000000 0.057023 0.000000 0.014427
# 5 0.006721 -0.000582 -0.009842 0.000000 0.031197 0.000000
# 6 0.000000 0.000000 0.000000 0.014427 0.000000 0.043248
#
#
# Mechanical properties :
#
#
# Convention : Reuss Voigt Hill
#
# Bulk Modulus (GPa) = 22.12959 22.66683 22.39821
# Shear Modulus (GPa) = 23.37766 29.37485 26.37626
#
# Velocity S-wave (km/s) = 3.24018 3.63208 3.44171
# Velocity P-wave (km/s) = 4.89250 5.26962 5.08456
#
# Compressibility (1/GPa) = 0.04518836
#
# Stress axis : x y z
#
# Youngs Moduli (GPa) = 46.01535 70.27335 49.24523
#
# Poissons Ratio (x) = -0.01925 0.41431
# Poissons Ratio (y) = -0.01261 -0.12799
# Poissons Ratio (z) = 0.38713 -0.18265
#
# Static dielectric constant tensor:
#      x y z
#    x 1.837380 0.000000 -0.013790 
#    y 0.000000 2.060390 0.000000 
#    z -0.013790 0.000000 1.814270 
# 
# From -- ./inp_files/318643.got.cif
#   From: 2010.05.17/outbox.cif.g08.bks.cpg/sg15_160_cif.got.tgz:318643.got - 2010.06.03 18:47:42.
