data_PCOD9282430
_publ_section_title
;
Structure prediction by ZEFSAII (Michael W. Deem and Ramdas Pophale) SiO2 
 PCOD9282430
Probable space group: C 2/C
;
_chemical_formula_sum "Si O2"
_cell_formula_units_Z 44
_cell_length_a 29.327729
_cell_length_b 4.880997
_cell_length_c 24.401798
_cell_angle_alpha 90.000000
_cell_angle_beta 146.196290
_cell_angle_gamma 90.000000
_cell_volume 1943.374251
_symmetry_space_group_name_H-M "C 2/C"
_symmetry_group_IT_number 15
_symmetry_cell_setting 'monoclinic'
loop_
_space_group_symop_operation_xyz
x,y,z
-x,y,1/2-z
-x,-y,-z
x,-y,1/2+z
1/2+x,1/2+y,z
1/2-x,1/2+y,1/2-z
1/2-x,1/2-y,-z
1/2+x,1/2-y,1/2+z
loop_
_atom_site_type_symbol
_atom_site_label
_atom_site_fract_x
_atom_site_fract_y
_atom_site_fract_z
Si Si1 0.000000 0.593266 0.250000
Si Si2 0.862478 0.713297 0.189915
Si Si3 0.227366 0.460988 0.261210
Si Si4 0.190373 0.771305 0.549334
Si Si5 0.580186 0.228785 0.930636
Si Si6 0.591515 0.288002 0.695688
O O1 0.071012 0.764033 0.290472
O O2 0.043303 0.405545 0.338985
O O3 0.766839 0.760947 0.084550
O O4 0.874328 0.399078 0.220134
O O5 0.886799 0.903014 0.266020
O O6 0.220687 0.713333 0.212864
O O7 0.271625 0.591831 0.358285
O O8 0.141687 0.323023 0.194147
O O9 0.150138 0.479485 0.520059
O O10 0.120189 0.978000 0.459880
O O11 0.505899 0.252552 0.899642
#
# Coordination Sequence:
#
# PCOD9282430 Si02
#       6
#     4   8   8   8   8   8
#     4  10  24  40  64  92 122 176 210 238 296 378
#     4  10  21  39  62  88 125 162 207 247 302 360
#     4  11  22  41  67  90 117 161 212 249 306 384
#     4  11  23  40  62  93 125 160 201 266 308 342
#     4  11  23  40  62  90 130 162 205 251 305 359
#     4  10  21  40  62  88 125 165 192 252 320 357
#
# _framework density 22.641033
#
# number of rings (size 3 to 8) (size 9 to 14) (size 15 to 20)
#    0.000    1.455    0.000    7.636    0.000    8.000 
#    0.000    5.455    0.000    0.000    0.000    0.000 
#    0.000    0.000    0.000    0.000    0.000    0.000 
#
# Total GULP energy -123024.721117 kJ/mol
# GULP energy per Si atom -5592.032778 kJ/mol
# Density = 2.258950 g / cm^3
# Si number density = 22.641033 Si / 1000 Ang^3
#
#
#
# Elastic Constant Matrix: (Units=GPa)
#
#
# Indices 1 2 3 4 5 6 
#
# 1 129.7372 24.5534 39.1583 0.0001 29.0601 0.0016
# 2 24.5534 81.5793 0.3058 -0.0142 0.3671 -0.0219
# 3 39.1583 0.3058 57.1059 -0.0038 20.6904 -0.0013
# 4 0.0001 -0.0142 -0.0038 73.6279 -0.0011 49.9989
# 5 29.0601 0.3671 20.6904 -0.0011 42.6498 -0.0003
# 6 0.0016 -0.0219 -0.0013 49.9989 -0.0003 114.3789
#
#
#
# Elastic Compliance Matrix: (Units=1/GPa)
#
#
# Indices 1 2 3 4 5 6 
#
# 1 0.011186 -0.003323 -0.005947 -0.000001 -0.004708 -0.000001
# 2 -0.003323 0.013246 0.001734 0.000001 0.001309 0.000002
# 3 -0.005947 0.001734 0.024407 0.000001 -0.007803 0.000000
# 4 -0.000001 0.000001 0.000001 0.019316 0.000000 -0.008443
# 5 -0.004708 0.001309 -0.007803 0.000000 0.030429 0.000000
# 6 -0.000001 0.000002 0.000000 -0.008443 0.000000 0.012434
#
#
# Mechanical properties :
#
#
# Convention : Reuss Voigt Hill
#
# Bulk Modulus (GPa) = 29.61563 44.05082 36.83322
# Shear Modulus (GPa) = 36.40406 59.75831 48.08118
#
# Velocity S-wave (km/s) = 4.01419 5.14306 4.61329
# Velocity P-wave (km/s) = 5.88165 7.40044 6.68433
#
# Compressibility (1/GPa) = 0.03376596
#
# Stress axis : x y z
#
# Youngs Moduli (GPa) = 89.39367 75.49517 40.97137
#
# Poissons Ratio (x) = 0.25090 0.24366
# Poissons Ratio (y) = 0.29709 -0.07102
# Poissons Ratio (z) = 0.53162 -0.13087
#
# Static dielectric constant tensor:
#      x y z
#    x 1.886550 0.000000 0.007800 
#    y 0.000000 1.785120 0.000000 
#    z 0.007800 0.000000 1.846530 
# 
# From -- ./inp_files/303952.got.cif
#   From: 2010.05.17/outbox.cif.g08.bks.cpg/sg15_152_cif.got.tgz:303952.got - 2010.06.03 18:47:42.
