data_PCOD9282876
_publ_section_title
;
Structure prediction by ZEFSAII (Michael W. Deem and Ramdas Pophale) SiO2 
 PCOD9282876
Probable space group: C 2/C
;
_chemical_formula_sum "Si O2"
_cell_formula_units_Z 56
_cell_length_a 21.218626
_cell_length_b 20.390932
_cell_length_c 18.190967
_cell_angle_alpha 90.000000
_cell_angle_beta 159.520803
_cell_angle_gamma 90.000000
_cell_volume 2753.679790
_symmetry_space_group_name_H-M "C 2/C"
_symmetry_group_IT_number 15
_symmetry_cell_setting 'monoclinic'
loop_
_space_group_symop_operation_xyz
x,y,z
-x,y,1/2-z
-x,-y,-z
x,-y,1/2+z
1/2+x,1/2+y,z
1/2-x,1/2+y,1/2-z
1/2-x,1/2-y,-z
1/2+x,1/2-y,1/2+z
loop_
_atom_site_type_symbol
_atom_site_label
_atom_site_fract_x
_atom_site_fract_y
_atom_site_fract_z
Si Si1 0.064883 0.335638 0.579096
Si Si2 0.206675 0.449203 0.259925
Si Si3 0.741446 0.927494 0.870446
Si Si4 0.026055 0.887961 0.696667
Si Si5 0.059296 0.190320 0.085458
Si Si6 0.381484 0.420380 0.305874
Si Si7 0.706798 0.011075 0.488762
O O1 0.139534 0.359789 0.740286
O O2 0.245543 0.332232 0.728442
O O3 0.931949 0.391359 0.405172
O O4 0.969733 0.265961 0.465139
O O5 0.125991 0.515388 0.204426
O O6 0.345580 0.424668 0.473702
O O7 0.323844 0.462297 0.314361
O O8 0.767793 0.949451 0.982552
O O9 0.932645 0.929844 0.036213
O O10 0.051205 0.832940 0.661365
O O11 0.000000 0.860763 0.750000
O O12 0.176742 0.945805 0.865902
O O13 0.909680 0.150222 0.875033
O O14 0.230717 0.437848 0.081759
O O15 0.500000 0.992585 0.250000
#
# Coordination Sequence:
#
# PCOD9282876 Si02
#       7
#     8   8   8   8   8   8   8
#     4  11  24  43  64  94 124 167 222 255 312 379
#     4  11  21  38  66  93 125 163 212 266 316 370
#     4  11  22  39  65  94 129 163 208 267 318 370
#     4  11  22  40  64  90 135 164 210 263 325 375
#     4  10  24  41  66  89 127 174 214 260 309 384
#     4  10  21  39  65  92 128 165 210 257 319 375
#     4  12  24  37  61 100 133 164 207 264 326 376
#
# _framework density 20.336424999999998
#
# number of rings (size 3 to 8) (size 9 to 14) (size 15 to 20)
#    0.000    1.143    2.857    3.857    6.000    0.000 
#    0.000    3.571    0.000    3.429    0.000    0.000 
#    0.000    0.000    0.000    0.000    0.000    0.000 
#
# Total GULP energy -156232.091355 kJ/mol
# GULP energy per Si atom -5579.717548 kJ/mol
# Density = 2.029014 g / cm^3
# Si number density = 20.336425 Si / 1000 Ang^3
#
#
#
# Elastic Constant Matrix: (Units=GPa)
#
#
# Indices 1 2 3 4 5 6 
#
# 1 88.0283 47.4557 3.0070 0.0024 -21.8130 0.0003
# 2 47.4557 96.2031 51.9808 0.0022 -11.9542 0.0005
# 3 3.0070 51.9808 104.0657 0.0049 -6.7999 0.0013
# 4 0.0024 0.0022 0.0049 35.5125 0.0012 2.8244
# 5 -21.8130 -11.9542 -6.7999 0.0012 36.0297 0.0002
# 6 0.0003 0.0005 0.0013 2.8244 0.0002 16.6468
#
#
#
# Elastic Compliance Matrix: (Units=1/GPa)
#
#
# Indices 1 2 3 4 5 6 
#
# 1 0.019822 -0.011849 0.005946 -0.000002 0.009192 0.000000
# 2 -0.011849 0.021750 -0.010650 0.000001 -0.001967 0.000000
# 3 0.005946 -0.010650 0.014946 -0.000002 0.002887 -0.000001
# 4 -0.000002 0.000001 -0.000002 0.028544 -0.000002 -0.004843
# 5 0.009192 -0.001967 0.002887 -0.000002 0.033212 0.000000
# 6 0.000000 0.000000 -0.000001 -0.004843 0.000000 0.060893
#
#
# Mechanical properties :
#
#
# Convention : Reuss Voigt Hill
#
# Bulk Modulus (GPa) = 42.71231 54.79825 48.75528
# Shear Modulus (GPa) = 22.71938 30.02802 26.37370
#
# Velocity S-wave (km/s) = 3.34605 3.84678 3.60512
# Velocity P-wave (km/s) = 5.99804 6.83627 6.43083
#
# Compressibility (1/GPa) = 0.02341245
#
# Stress axis : x y z
#
# Youngs Moduli (GPa) = 50.44863 45.97791 66.90812
#
# Poissons Ratio (x) = 0.54478 -0.39786
# Poissons Ratio (y) = 0.59775 0.71258
# Poissons Ratio (z) = -0.29998 0.48967
#
# Static dielectric constant tensor:
#      x y z
#    x 1.751610 0.000000 0.021860 
#    y 0.000000 1.731140 0.000000 
#    z 0.021860 0.000000 1.766720 
# 
# From -- ./inp_files/216670.got.cif
#   From: 2010.05.17/outbox.cif.g08.bks.cpg/sg15_109_cif.got.tgz:216670.got - 2010.06.03 18:47:42.
