data_PCOD9282350
_publ_section_title
;
Structure prediction by ZEFSAII (Michael W. Deem and Ramdas Pophale) SiO2 
 PCOD9282350
Probable space group: C 2/C
;
_chemical_formula_sum "Si O2"
_cell_formula_units_Z 56
_cell_length_a 35.010785
_cell_length_b 14.163978
_cell_length_c 12.371697
_cell_angle_alpha 90.000000
_cell_angle_beta 23.287224
_cell_angle_gamma 90.000000
_cell_volume 2425.425213
_symmetry_space_group_name_H-M "C 2/C"
_symmetry_group_IT_number 15
_symmetry_cell_setting 'monoclinic'
loop_
_space_group_symop_operation_xyz
x,y,z
-x,y,1/2-z
-x,-y,-z
x,-y,1/2+z
1/2+x,1/2+y,z
1/2-x,1/2+y,1/2-z
1/2-x,1/2-y,-z
1/2+x,1/2-y,1/2+z
loop_
_atom_site_type_symbol
_atom_site_label
_atom_site_fract_x
_atom_site_fract_y
_atom_site_fract_z
Si Si1 0.390649 0.610958 0.501663
Si Si2 0.435441 0.593823 0.147216
Si Si3 0.099965 0.618712 0.239148
Si Si4 0.300924 0.580679 0.303378
Si Si5 0.383453 0.181832 0.070319
Si Si6 0.378004 0.097350 0.858753
Si Si7 0.569432 0.731227 0.659492
O O1 0.500000 0.581718 0.250000
O O2 0.399592 0.634983 0.352953
O O3 0.322838 0.521765 0.695068
O O4 0.363004 0.706655 0.634642
O O5 0.342208 0.573351 0.316202
O O6 0.500000 0.500000 0.000000
O O7 0.503180 0.667655 0.909917
O O8 0.140878 0.630483 0.254104
O O9 0.113621 0.515715 0.154555
O O10 0.130239 0.697336 0.074598
O O11 0.984509 0.633599 0.554334
O O12 0.193044 0.612468 0.557448
O O13 0.365730 0.657374 0.073567
O O14 0.500000 0.174153 0.750000
O O15 0.341754 0.139144 0.067409
O O16 0.500000 0.779333 0.750000
#
# Coordination Sequence:
#
# PCOD9282350 Si02
#       7
#     8   8   8   8   8   8   8
#     4  11  19  35  61  88 121 156 198 256 308 366
#     4  11  19  35  60  87 123 164 194 237 321 370
#     4  10  22  43  67  82 117 176 207 242 307 366
#     4  11  23  36  58  96 127 154 200 258 306 363
#     4   9  20  38  63  87 109 155 215 249 297 357
#     4  10  23  42  59  88 122 157 213 257 299 356
#     4  10  21  39  61  90 121 160 203 247 308 373
#
# _framework density 23.088733000000001
#
# number of rings (size 3 to 8) (size 9 to 14) (size 15 to 20)
#    0.000    1.714    2.857    3.000    0.000    5.143 
#    0.000    7.857    0.000    0.000    0.000    0.000 
#    0.000    0.000    0.000    0.000    0.000    0.000 
#
# Total GULP energy -156608.510034 kJ/mol
# GULP energy per Si atom -5593.161073 kJ/mol
# Density = 2.303618 g / cm^3
# Si number density = 23.088733 Si / 1000 Ang^3
#
#
#
# Elastic Constant Matrix: (Units=GPa)
#
#
# Indices 1 2 3 4 5 6 
#
# 1 116.0627 6.7129 19.3700 0.0000 -12.4634 0.0000
# 2 6.7129 72.3553 -3.3464 0.0000 8.8272 0.0000
# 3 19.3700 -3.3464 44.8871 0.0000 -17.9170 0.0000
# 4 0.0000 0.0000 0.0000 4.5924 0.0000 5.5983
# 5 -12.4634 8.8272 -17.9170 0.0000 27.2742 0.0000
# 6 0.0000 0.0000 0.0000 5.5983 0.0000 35.4285
#
#
#
# Elastic Compliance Matrix: (Units=1/GPa)
#
#
# Indices 1 2 3 4 5 6 
#
# 1 0.009508 -0.001361 -0.003110 0.000000 0.002742 0.000000
# 2 -0.001361 0.014621 -0.000623 0.000000 -0.005763 0.000000
# 3 -0.003110 -0.000623 0.031292 0.000000 0.019337 0.000000
# 4 0.000000 0.000000 0.000000 0.269701 0.000000 -0.042618
# 5 0.002742 -0.005763 0.019337 0.000000 0.052486 0.000000
# 6 0.000000 0.000000 0.000000 -0.042618 0.000000 0.034960
#
#
# Mechanical properties :
#
#
# Convention : Reuss Voigt Hill
#
# Bulk Modulus (GPa) = 22.10717 30.97534 26.54126
# Shear Modulus (GPa) = 11.41984 27.49692 19.45838
#
# Velocity S-wave (km/s) = 2.22639 3.45472 2.90619
# Velocity P-wave (km/s) = 4.02551 5.41834 4.77300
#
# Compressibility (1/GPa) = 0.04523419
#
# Stress axis : x y z
#
# Youngs Moduli (GPa) = 105.17212 68.39377 31.95683
#
# Poissons Ratio (x) = 0.09305 0.09938
# Poissons Ratio (y) = 0.14309 0.01992
# Poissons Ratio (z) = 0.32707 0.04263
#
# Static dielectric constant tensor:
#      x y z
#    x 1.895050 0.000000 -0.050010 
#    y 0.000000 1.868450 0.000000 
#    z -0.050010 0.000000 1.884010 
# 
# From -- ./inp_files/126982.got.cif
#   From: 2010.05.17/outbox.cif.g08.bks.cpg/sg15_64_cif.got.tgz:126982.got - 2010.06.03 18:47:42.
