data_PCOD9282886
_publ_section_title
;
Structure prediction by ZEFSAII (Michael W. Deem and Ramdas Pophale) SiO2 
 PCOD9282886
Probable space group: C 2/C
;
_chemical_formula_sum "Si O2"
_cell_formula_units_Z 64
_cell_length_a 18.455407
_cell_length_b 17.428695
_cell_length_c 15.020743
_cell_angle_alpha 90.000000
_cell_angle_beta 39.726349
_cell_angle_gamma 90.000000
_cell_volume 3087.901182
_symmetry_space_group_name_H-M "C 2/C"
_symmetry_group_IT_number 15
_symmetry_cell_setting 'monoclinic'
loop_
_space_group_symop_operation_xyz
x,y,z
-x,y,1/2-z
-x,-y,-z
x,-y,1/2+z
1/2+x,1/2+y,z
1/2-x,1/2+y,1/2-z
1/2-x,1/2-y,-z
1/2+x,1/2-y,1/2+z
loop_
_atom_site_type_symbol
_atom_site_label
_atom_site_fract_x
_atom_site_fract_y
_atom_site_fract_z
Si Si1 0.551984 0.676132 0.977195
Si Si2 0.084092 0.441205 0.752399
Si Si3 0.920831 0.050331 0.686905
Si Si4 0.320036 0.361359 0.971302
Si Si5 0.832633 0.875383 0.754900
Si Si6 0.164697 0.046542 0.540077
Si Si7 0.416145 0.157502 0.078436
Si Si8 0.574257 0.874903 0.266658
O O1 0.600879 0.602918 0.877921
O O2 0.591280 0.672329 0.042893
O O3 0.595871 0.752728 0.889303
O O4 0.416011 0.671196 0.111798
O O5 0.215678 0.422770 0.607215
O O6 0.048475 0.393694 0.871941
O O7 0.080256 0.532679 0.772071
O O8 0.000000 0.425237 0.750000
O O9 0.857837 0.073862 0.837667
O O10 0.053922 0.060071 0.584889
O O11 0.884500 0.961997 0.705661
O O12 0.197797 0.342973 0.127927
O O13 0.334266 0.342441 0.854154
O O14 0.328545 0.453941 0.962893
O O15 0.702912 0.874636 0.846435
O O16 0.510624 0.155281 0.912700
O O17 0.500000 0.859216 0.250000
#
# Coordination Sequence:
#
# PCOD9282886 Si02
#       8
#     8   8   8   8   8   8   8   8
#     4  12  26  39  61  99 132 163 210 262 323 380
#     4  10  23  43  67  92 126 171 219 265 308 373
#     4  10  21  40  70  95 119 162 215 271 310 371
#     4  10  21  39  65  93 123 162 207 264 318 373
#     4  11  23  43  66  90 128 169 215 261 317 380
#     4   9  19  41  69  96 116 156 223 268 312 357
#     4  12  27  42  61  97 134 171 210 257 325 388
#     4  10  21  42  66  92 123 166 217 259 308 378
#
# _framework density 20.726053
#
# number of rings (size 3 to 8) (size 9 to 14) (size 15 to 20)
#    0.000    1.500    2.500    1.875    7.000    2.500 
#    2.250    0.625    0.000    0.000    0.000    0.000 
#    0.000    0.000    0.000    0.000    0.000    0.000 
#
# Total GULP energy -178867.808354 kJ/mol
# GULP energy per Si atom -5589.619011 kJ/mol
# Density = 2.067888 g / cm^3
# Si number density = 20.726053 Si / 1000 Ang^3
#
#
#
# Elastic Constant Matrix: (Units=GPa)
#
#
# Indices 1 2 3 4 5 6 
#
# 1 52.3123 29.4213 17.2741 0.0000 4.4643 0.0000
# 2 29.4213 36.3865 24.6179 0.0000 11.8131 0.0000
# 3 17.2741 24.6179 94.0636 0.0000 -9.4869 0.0000
# 4 0.0000 0.0000 0.0000 -7.6866 0.0000 -2.9635
# 5 4.4643 11.8131 -9.4869 0.0000 29.4391 0.0000
# 6 0.0000 0.0000 0.0000 -2.9635 0.0000 -2.6791
#
#
#
# Elastic Compliance Matrix: (Units=1/GPa)
#
#
# Indices 1 2 3 4 5 6 
#
# 1 0.037116 -0.035513 0.003460 0.000000 0.009737 0.000000
# 2 -0.035513 0.077901 -0.017029 0.000001 -0.031362 -0.000001
# 3 0.003460 -0.017029 0.015596 0.000000 0.011334 0.000000
# 4 0.000000 0.000001 0.000000 -0.226839 -0.000001 0.250925
# 5 0.009737 -0.031362 0.011334 -0.000001 0.048729 0.000001
# 6 0.000000 -0.000001 0.000000 0.250925 0.000001 -0.650833
#
#
# Mechanical properties :
#
#
# Convention : Reuss Voigt Hill
#
# Bulk Modulus (GPa) = 30.81842 36.15435 33.48639
# Shear Modulus (GPa) = -8.48389 11.24464 1.38037
#
# Velocity S-wave (km/s) = -2.02540 2.33177 0.81698
# Velocity P-wave (km/s) = 3.07116 4.97306 4.13300
#
# Compressibility (1/GPa) = 0.03244812
#
# Stress axis : x y z
#
# Youngs Moduli (GPa) = 26.94291 12.83682 64.12081
#
# Poissons Ratio (x) = 0.45588 -0.22188
# Poissons Ratio (y) = 0.95683 1.09192
# Poissons Ratio (z) = -0.09323 0.21860
#
# Static dielectric constant tensor:
#      x y z
#    x 1.769620 0.000000 -0.026970 
#    y 0.000000 1.740260 0.000000 
#    z -0.026970 0.000000 1.750280 
# 
# From -- ./inp_files/163275.got.cif
#   From: 2010.05.17/outbox.cif.g08.bks.cpg/sg15_82_cif.got.tgz:163275.got - 2010.06.03 18:47:42.
