data_PCOD9282198
_publ_section_title
;
Structure prediction by ZEFSAII (Michael W. Deem and Ramdas Pophale) SiO2 
 PCOD9282198
Probable space group: C 2/C
;
_chemical_formula_sum "Si O2"
_cell_formula_units_Z 40
_cell_length_a 9.384965
_cell_length_b 9.865677
_cell_length_c 21.808511
_cell_angle_alpha 90.000000
_cell_angle_beta 83.144269
_cell_angle_gamma 90.000000
_cell_volume 2004.791199
_symmetry_space_group_name_H-M "C 2/C"
_symmetry_group_IT_number 15
_symmetry_cell_setting 'monoclinic'
loop_
_space_group_symop_operation_xyz
x,y,z
-x,y,1/2-z
-x,-y,-z
x,-y,1/2+z
1/2+x,1/2+y,z
1/2-x,1/2+y,1/2-z
1/2-x,1/2-y,-z
1/2+x,1/2-y,1/2+z
loop_
_atom_site_type_symbol
_atom_site_label
_atom_site_fract_x
_atom_site_fract_y
_atom_site_fract_z
Si Si1 0.782935 0.832679 0.616718
Si Si2 0.883730 0.771017 0.877556
Si Si3 0.584970 0.981073 0.058077
Si Si4 0.157103 0.460465 0.221156
Si Si5 0.789359 0.535376 0.643406
O O1 0.708751 0.909580 0.563760
O O2 0.735197 0.676336 0.617819
O O3 0.953670 0.819082 0.617470
O O4 0.729239 0.924712 0.676102
O O5 0.847355 0.666703 0.934097
O O6 0.859700 0.679361 0.816950
O O7 0.789325 0.903520 0.876618
O O8 0.457183 0.984830 0.116058
O O9 0.500000 0.000000 0.000000
O O10 0.233623 0.444861 0.282668
O O11 0.000000 0.506206 0.250000
#
# Coordination Sequence:
#
# PCOD9282198 Si02
#       5
#     8   8   8   8   8
#     4  10  21  39  59  86 118 154 193 238 293 344
#     4  10  23  39  59  89 120 150 196 241 288 350
#     4  10  23  43  62  81 117 158 197 247 296 339
#     4  11  19  39  58  86 125 154 183 235 292 350
#     4  11  22  37  61  88 119 154 195 237 290 350
#
# _framework density 19.952203999999998
#
# number of rings (size 3 to 8) (size 9 to 14) (size 15 to 20)
#    0.000    1.600    6.000    1.200    0.000    7.200 
#    3.600    2.000    0.000    0.000    0.000    0.000 
#    0.000    0.000    0.000    0.000    0.000    0.000 
#
# Total GULP energy -111446.260324 kJ/mol
# GULP energy per Si atom -5572.313016 kJ/mol
# Density = 1.990679 g / cm^3
# Si number density = 19.952204 Si / 1000 Ang^3
#
#
#
# Elastic Constant Matrix: (Units=GPa)
#
#
# Indices 1 2 3 4 5 6 
#
# 1 60.0772 77.8403 11.7111 0.0000 24.0965 0.0000
# 2 77.8403 166.9867 23.4562 0.0000 25.6497 0.0000
# 3 11.7111 23.4562 56.3067 0.0000 21.9972 0.0000
# 4 0.0000 0.0000 0.0000 12.3799 0.0000 12.5406
# 5 24.0965 25.6497 21.9972 0.0000 24.3551 0.0000
# 6 0.0000 0.0000 0.0000 12.5406 0.0000 46.5732
#
#
#
# Elastic Compliance Matrix: (Units=1/GPa)
#
#
# Indices 1 2 3 4 5 6 
#
# 1 0.072783 -0.027321 0.020296 0.000000 -0.061568 0.000000
# 2 -0.027321 0.017400 -0.007676 0.000000 0.015639 0.000000
# 3 0.020296 -0.007676 0.033103 0.000000 -0.041896 0.000000
# 4 0.000000 0.000000 0.000000 0.111073 0.000000 -0.029908
# 5 -0.061568 0.015639 -0.041896 0.000000 0.123343 0.000000
# 6 0.000000 0.000000 0.000000 -0.029908 0.000000 0.029525
#
#
# Mechanical properties :
#
#
# Convention : Reuss Voigt Hill
#
# Bulk Modulus (GPa) = 10.65138 56.59842 33.62490
# Shear Modulus (GPa) = 11.16263 28.01918 19.59090
#
# Velocity S-wave (km/s) = 2.36787 3.75148 3.13691
# Velocity P-wave (km/s) = 3.58131 6.86975 5.47810
#
# Compressibility (1/GPa) = 0.09388451
#
# Stress axis : x y z
#
# Youngs Moduli (GPa) = 13.73954 57.47040 30.20849
#
# Poissons Ratio (x) = 1.57017 -0.61311
# Poissons Ratio (y) = 0.37538 0.23187
# Poissons Ratio (z) = -0.27886 0.44112
#
# Static dielectric constant tensor:
#      x y z
#    x 1.719640 0.000000 0.022230 
#    y 0.000000 1.714400 0.000000 
#    z 0.022230 0.000000 1.777450 
# 
# From -- ./inp_files/262517.got.cif
#   From: 2010.05.17/outbox.cif.g08.bks.cpg/sg15_132_cif.got.tgz:262517.got - 2010.06.03 18:47:42.
