data_PCOD9282987
_publ_section_title
;
Structure prediction by ZEFSAII (Michael W. Deem and Ramdas Pophale) SiO2 
 PCOD9282987
Probable space group: C 2/C
;
_chemical_formula_sum "Si O2"
_cell_formula_units_Z 40
_cell_length_a 5.604872
_cell_length_b 15.007023
_cell_length_c 17.433531
_cell_angle_alpha 90.000000
_cell_angle_beta 93.395418
_cell_angle_gamma 90.000000
_cell_volume 1463.802757
_symmetry_space_group_name_H-M "C 2/C"
_symmetry_group_IT_number 15
_symmetry_cell_setting 'monoclinic'
loop_
_space_group_symop_operation_xyz
x,y,z
-x,y,1/2-z
-x,-y,-z
x,-y,1/2+z
1/2+x,1/2+y,z
1/2-x,1/2+y,1/2-z
1/2-x,1/2-y,-z
1/2+x,1/2-y,1/2+z
loop_
_atom_site_type_symbol
_atom_site_label
_atom_site_fract_x
_atom_site_fract_y
_atom_site_fract_z
Si Si1 0.326047 0.852684 0.833001
Si Si2 0.500000 0.504123 0.250000
Si Si3 0.550389 0.145321 0.913151
Si Si4 0.277074 0.032188 0.107110
Si Si5 0.500000 0.787226 0.250000
Si Si6 0.012953 0.173119 0.479669
O O1 0.596234 0.881794 0.850908
O O2 0.202482 0.840012 0.912823
O O3 0.205743 0.937893 0.792667
O O4 0.228445 0.771883 0.779505
O O5 0.636125 0.477221 0.172287
O O6 0.451174 0.158968 0.825672
O O7 0.426873 0.224996 0.959397
O O8 0.540484 0.039711 0.923504
O O9 0.830283 0.165106 0.940647
O O10 0.140559 0.084452 0.037174
#
# Coordination Sequence:
#
# PCOD9282987 Si02
#       6
#     8   4   8   8   4   8
#     4   9  19  38  65  87 127 171 206 267 336 374
#     4   9  20  34  56  92 125 158 213 266 312 388
#     4  10  21  39  66  91 132 171 214 272 329 389
#     4  11  21  38  70  90 126 177 218 267 335 388
#     4   9  20  40  60  92 135 164 209 274 330 390
#     4   9  21  43  62  92 133 168 216 278 318 393
#
# _framework density 27.326087999999999
#
# number of rings (size 3 to 8) (size 9 to 14) (size 15 to 20)
#    0.000    2.400    0.000    2.400    2.800    0.800 
#    0.000   17.000   35.200    0.000    0.000    0.000 
#    0.000    0.000    0.000    0.000    0.000    0.000 
#
# Total GULP energy -111409.845791 kJ/mol
# GULP energy per Si atom -5570.492290 kJ/mol
# Density = 2.726389 g / cm^3
# Si number density = 27.326088 Si / 1000 Ang^3
#
#
#
# Elastic Constant Matrix: (Units=GPa)
#
#
# Indices 1 2 3 4 5 6 
#
# 1 37.0498 35.3368 23.7404 0.0000 -9.3803 0.0000
# 2 35.3368 151.9548 73.6051 0.0000 -7.8602 0.0000
# 3 23.7404 73.6051 137.8572 0.0000 3.7077 0.0000
# 4 0.0000 0.0000 0.0000 30.4459 0.0000 -16.9297
# 5 -9.3803 -7.8602 3.7077 0.0000 55.4847 0.0000
# 6 0.0000 0.0000 0.0000 -16.9297 0.0000 -43.8584
#
#
#
# Elastic Compliance Matrix: (Units=1/GPa)
#
#
# Indices 1 2 3 4 5 6 
#
# 1 0.036741 -0.006917 -0.002779 0.000000 0.005417 0.000000
# 2 -0.006917 0.010319 -0.004334 0.000000 0.000582 0.000000
# 3 -0.002779 -0.004334 0.010094 0.000000 -0.001758 0.000000
# 4 0.000000 0.000000 0.000000 0.027041 0.000000 -0.010438
# 5 0.005417 0.000582 -0.001758 0.000000 0.019139 0.000000
# 6 0.000000 0.000000 0.000000 -0.010438 0.000000 -0.018771
#
#
# Mechanical properties :
#
#
# Convention : Reuss Voigt Hill
#
# Bulk Modulus (GPa) = 34.37374 65.80292 50.08833
# Shear Modulus (GPa) = 40.87608 21.35974 31.11791
#
# Velocity S-wave (km/s) = 3.87183 2.79885 3.37822
# Velocity P-wave (km/s) = 5.70916 5.88028 5.79535
#
# Compressibility (1/GPa) = 0.02909197
#
# Stress axis : x y z
#
# Youngs Moduli (GPa) = 27.21762 96.90911 99.07070
#
# Poissons Ratio (x) = 0.67037 0.27536
# Poissons Ratio (y) = 0.18828 0.42936
# Poissons Ratio (z) = 0.07565 0.42000
#
# Static dielectric constant tensor:
#      x y z
#    x 2.808150 0.000000 0.301620 
#    y 0.000000 2.144700 0.000000 
#    z 0.301620 0.000000 2.376500 
# 
# From -- ./inp_files/226841.got.cif
#   From: 2010.05.17/outbox.cif.g08.bks.cpg/sg15_114_cif.got.tgz:226841.got - 2010.06.03 18:47:42.
