data_PCOD9282524
_publ_section_title
;
Structure prediction by ZEFSAII (Michael W. Deem and Ramdas Pophale) SiO2 
 PCOD9282524
Probable space group: C 2/C
;
_chemical_formula_sum "Si O2"
_cell_formula_units_Z 60
_cell_length_a 8.770596
_cell_length_b 14.531430
_cell_length_c 22.217282
_cell_angle_alpha 90.000000
_cell_angle_beta 111.425066
_cell_angle_gamma 90.000000
_cell_volume 2635.904057
_symmetry_space_group_name_H-M "C 2/C"
_symmetry_group_IT_number 15
_symmetry_cell_setting 'monoclinic'
loop_
_space_group_symop_operation_xyz
x,y,z
-x,y,1/2-z
-x,-y,-z
x,-y,1/2+z
1/2+x,1/2+y,z
1/2-x,1/2+y,1/2-z
1/2-x,1/2-y,-z
1/2+x,1/2-y,1/2+z
loop_
_atom_site_type_symbol
_atom_site_label
_atom_site_fract_x
_atom_site_fract_y
_atom_site_fract_z
Si Si1 0.935935 0.440665 0.933036
Si Si2 0.920011 0.268659 0.611548
Si Si3 0.122702 0.091468 0.213517
Si Si4 0.397126 0.082532 0.606616
Si Si5 0.362634 0.433459 0.532795
Si Si6 0.409675 0.426311 0.368872
Si Si7 0.056850 0.772390 0.590884
Si Si8 0.000000 0.364164 0.750000
O O1 0.029563 0.347330 0.929150
O O2 0.958725 0.509138 0.880030
O O3 0.751291 0.418552 0.924637
O O4 0.000000 0.500000 0.000000
O O5 0.018864 0.174965 0.619321
O O6 0.726781 0.249193 0.583309
O O7 0.956891 0.307246 0.683656
O O8 0.088977 0.161999 0.153189
O O9 0.322937 0.091418 0.244160
O O10 0.000000 0.119551 0.250000
O O11 0.069374 0.988575 0.186914
O O12 0.262147 0.048260 0.538756
O O13 0.462671 0.181507 0.597437
O O14 0.286023 0.080237 0.649085
O O15 0.487802 0.514006 0.567085
O O16 0.451047 0.337412 0.532529
#
# Coordination Sequence:
#
# PCOD9282524 Si02
#       8
#     8   8   8   8   8   8   8   4
#     4  10  22  40  65  93 130 173 215 272 331 396
#     4  11  24  44  66  95 138 169 232 277 339 405
#     4  10  24  45  68  96 134 172 227 283 345 403
#     4  11  21  39  63  96 134 172 225 264 333 405
#     4  10  21  39  62  96 132 178 217 268 332 395
#     4  11  24  40  64  98 130 177 215 279 332 396
#     4  10  22  41  64  97 129 175 218 278 330 394
#     4  10  24  44  70  98 130 186 220 296 340 402
#
# _framework density 22.762588999999998
#
# number of rings (size 3 to 8) (size 9 to 14) (size 15 to 20)
#    0.000    1.600    0.000    4.800    6.533    2.133 
#    2.400    6.000    1.467    0.000    0.000    0.000 
#    0.000    0.000    0.000    0.000    0.000    0.000 
#
# Total GULP energy -167418.778341 kJ/mol
# GULP energy per Si atom -5580.625945 kJ/mol
# Density = 2.271078 g / cm^3
# Si number density = 22.762589 Si / 1000 Ang^3
#
#
#
# Elastic Constant Matrix: (Units=GPa)
#
#
# Indices 1 2 3 4 5 6 
#
# 1 139.3216 30.9906 23.6283 0.0000 -22.3199 0.0000
# 2 30.9906 123.2331 19.8850 0.0000 -12.0675 0.0000
# 3 23.6283 19.8850 42.8492 0.0000 -3.5749 0.0000
# 4 0.0000 0.0000 0.0000 20.1437 0.0000 -3.0574
# 5 -22.3199 -12.0675 -3.5749 0.0000 30.2131 0.0000
# 6 0.0000 0.0000 0.0000 -3.0574 0.0000 35.3305
#
#
#
# Elastic Compliance Matrix: (Units=1/GPa)
#
#
# Indices 1 2 3 4 5 6 
#
# 1 0.009014 -0.001057 -0.003999 0.000000 0.005764 0.000000
# 2 -0.001057 0.009183 -0.003472 0.000000 0.002476 0.000000
# 3 -0.003999 -0.003472 0.027059 0.000000 -0.001140 0.000000
# 4 0.000000 0.000000 0.000000 0.050304 0.000000 0.004353
# 5 0.005764 0.002476 -0.001140 0.000000 0.038211 0.000000
# 6 0.000000 0.000000 0.000000 0.004353 0.000000 0.028681
#
#
# Mechanical properties :
#
#
# Convention : Reuss Voigt Hill
#
# Bulk Modulus (GPa) = 35.46141 50.49018 42.97579
# Shear Modulus (GPa) = 26.46766 32.53079 29.49923
#
# Velocity S-wave (km/s) = 3.41364 3.78449 3.60384
# Velocity P-wave (km/s) = 5.58121 6.42852 6.01979
#
# Compressibility (1/GPa) = 0.02819967
#
# Stress axis : x y z
#
# Youngs Moduli (GPa) = 110.93259 108.89331 36.95595
#
# Poissons Ratio (x) = 0.11512 0.14780
# Poissons Ratio (y) = 0.11728 0.12832
# Poissons Ratio (z) = 0.44366 0.37809
#
# Static dielectric constant tensor:
#      x y z
#    x 1.945900 0.000000 -0.020490 
#    y 0.000000 1.794270 0.000000 
#    z -0.020490 0.000000 1.944240 
# 
# From -- ./inp_files/264368.got.cif
#   From: 2010.05.17/outbox.cif.g08.bks.cpg/sg15_133_cif.got.tgz:264368.got - 2010.06.03 18:47:42.
