data_PCOD9282472
_publ_section_title
;
Structure prediction by ZEFSAII (Michael W. Deem and Ramdas Pophale) SiO2 
 PCOD9282472
Probable space group: C 2/C
;
_chemical_formula_sum "Si O2"
_cell_formula_units_Z 36
_cell_length_a 26.177787
_cell_length_b 4.922621
_cell_length_c 10.426825
_cell_angle_alpha 90.000000
_cell_angle_beta 79.189888
_cell_angle_gamma 90.000000
_cell_volume 1319.791398
_symmetry_space_group_name_H-M "C 2/C"
_symmetry_group_IT_number 15
_symmetry_cell_setting 'monoclinic'
loop_
_space_group_symop_operation_xyz
x,y,z
-x,y,1/2-z
-x,-y,-z
x,-y,1/2+z
1/2+x,1/2+y,z
1/2-x,1/2+y,1/2-z
1/2-x,1/2-y,-z
1/2+x,1/2-y,1/2+z
loop_
_atom_site_type_symbol
_atom_site_label
_atom_site_fract_x
_atom_site_fract_y
_atom_site_fract_z
Si Si1 0.750000 0.750000 0.000000
Si Si2 0.164834 0.948903 0.916875
Si Si3 0.555564 0.412109 0.425727
Si Si4 0.558259 0.087444 0.771848
Si Si5 0.171321 0.455065 0.728163
O O1 0.700786 0.541134 0.014368
O O2 0.783206 0.548131 0.885875
O O3 0.104874 0.992452 0.982154
O O4 0.175736 0.165525 0.796425
O O5 0.173808 0.657099 0.850940
O O6 0.500000 0.500000 0.500000
O O7 0.561641 0.591130 0.293606
O O8 0.558481 0.092354 0.402190
O O9 0.500000 0.028310 0.750000
O O10 0.614148 0.994370 0.690597
#
# Coordination Sequence:
#
# PCOD9282472 Si02
#       5
#     4   8   8   8   8
#     4  12  24  42  72  90 126 182 216 260 334 404
#     4  10  24  43  62  96 131 163 215 272 318 381
#     4  10  21  39  62  91 127 164 205 267 320 383
#     4  10  21  39  62  91 127 164 207 269 321 380
#     4  10  24  43  62  95 132 163 216 272 321 381
#
# _framework density 27.277038999999998
#
# number of rings (size 3 to 8) (size 9 to 14) (size 15 to 20)
#    0.000    1.778    0.000    2.667    3.111    3.556 
#    0.000    0.000    0.000    0.000    0.000    0.000 
#    0.000    0.000    0.000    0.000    0.000    0.000 
#
# Total GULP energy -100269.415030 kJ/mol
# GULP energy per Si atom -5570.523057 kJ/mol
# Density = 2.721495 g / cm^3
# Si number density = 27.277039 Si / 1000 Ang^3
#
#
#
# Elastic Constant Matrix: (Units=GPa)
#
#
# Indices 1 2 3 4 5 6 
#
# 1 100.7546 13.6172 3.0073 0.0000 -22.3219 0.0000
# 2 13.6172 93.8602 42.1951 0.0000 6.3213 0.0000
# 3 3.0073 42.1951 75.7064 0.0000 -20.3899 0.0000
# 4 0.0000 0.0000 0.0000 41.7433 0.0000 1.2969
# 5 -22.3219 6.3213 -20.3899 0.0000 46.3939 0.0000
# 6 0.0000 0.0000 0.0000 1.2969 0.0000 33.1025
#
#
#
# Elastic Compliance Matrix: (Units=1/GPa)
#
#
# Indices 1 2 3 4 5 6 
#
# 1 0.012177 -0.004126 0.004021 0.000000 0.008188 0.000000
# 2 -0.004126 0.017348 -0.012110 0.000000 -0.009671 0.000000
# 3 0.004021 -0.012110 0.023552 0.000000 0.013936 0.000000
# 4 0.000000 0.000000 0.000000 0.023985 0.000000 -0.000940
# 5 0.008188 -0.009671 0.013936 0.000000 0.032936 0.000000
# 6 0.000000 0.000000 0.000000 -0.000940 0.000000 0.030246
#
#
# Mechanical properties :
#
#
# Convention : Reuss Voigt Hill
#
# Bulk Modulus (GPa) = 34.90672 43.10672 39.00672
# Shear Modulus (GPa) = 28.69903 38.34804 33.52353
#
# Velocity S-wave (km/s) = 3.24718 3.75356 3.50952
# Velocity P-wave (km/s) = 5.18496 5.88415 5.54559
#
# Compressibility (1/GPa) = 0.02864778
#
# Stress axis : x y z
#
# Youngs Moduli (GPa) = 82.12386 57.64370 42.45967
#
# Poissons Ratio (x) = 0.23782 -0.17073
# Poissons Ratio (y) = 0.33882 0.51417
# Poissons Ratio (z) = -0.33022 0.69805
#
# Static dielectric constant tensor:
#      x y z
#    x 2.045800 0.000000 0.112730 
#    y 0.000000 2.047410 0.000000 
#    z 0.112730 0.000000 2.171390 
# 
# From -- ./inp_files/120690.got.cif
#   From: 2010.05.17/outbox.cif.g08.bks.cpg/sg15_61_cif.got.tgz:120690.got - 2010.06.03 18:47:42.
