data_PCOD9282022
_publ_section_title
;
Structure prediction by ZEFSAII (Michael W. Deem and Ramdas Pophale) SiO2 
 PCOD9282022
Probable space group: C 2/C
;
_chemical_formula_sum "Si O2"
_cell_formula_units_Z 40
_cell_length_a 14.864500
_cell_length_b 9.229564
_cell_length_c 13.598103
_cell_angle_alpha 90.000000
_cell_angle_beta 76.393585
_cell_angle_gamma 90.000000
_cell_volume 1813.204927
_symmetry_space_group_name_H-M "C 2/C"
_symmetry_group_IT_number 15
_symmetry_cell_setting 'monoclinic'
loop_
_space_group_symop_operation_xyz
x,y,z
-x,y,1/2-z
-x,-y,-z
x,-y,1/2+z
1/2+x,1/2+y,z
1/2-x,1/2+y,1/2-z
1/2-x,1/2-y,-z
1/2+x,1/2-y,1/2+z
loop_
_atom_site_type_symbol
_atom_site_label
_atom_site_fract_x
_atom_site_fract_y
_atom_site_fract_z
Si Si1 0.449464 0.568264 0.608222
Si Si2 0.730878 0.766123 0.890339
Si Si3 0.091358 0.233771 0.286066
Si Si4 0.969798 0.358974 0.867073
Si Si5 0.875830 0.533486 0.559681
O O1 0.500000 0.500000 0.500000
O O2 0.355453 0.660562 0.612701
O O3 0.422753 0.434197 0.683782
O O4 0.522426 0.685929 0.631268
O O5 0.819792 0.733531 0.802600
O O6 0.711137 0.938893 0.884671
O O7 0.750000 0.750000 0.000000
O O8 0.105353 0.322910 0.382879
O O9 0.000000 0.279290 0.250000
O O10 0.045104 0.420982 0.924455
O O11 0.000000 0.402735 0.750000
O O12 0.879299 0.425982 0.942882
#
# Coordination Sequence:
#
# PCOD9282022 Si02
#       5
#     8   8   8   8   8
#     4  11  22  44  69  99 137 176 228 285 340 410
#     4  11  26  43  66 101 137 179 227 280 344 406
#     4  12  24  43  73  96 134 181 225 282 350 402
#     4  10  21  38  67  98 131 173 221 274 339 408
#     4  10  23  41  64  99 133 171 225 278 330 410
#
# _framework density 22.060386000000001
#
# number of rings (size 3 to 8) (size 9 to 14) (size 15 to 20)
#    0.000    1.200    2.000    3.600    8.400    0.000 
#    0.000    1.000    0.000    0.000    0.000    0.000 
#    0.000    0.000    0.000    0.000    0.000    0.000 
#
# Total GULP energy -111577.317764 kJ/mol
# GULP energy per Si atom -5578.865888 kJ/mol
# Density = 2.201018 g / cm^3
# Si number density = 22.060386 Si / 1000 Ang^3
#
#
#
# Elastic Constant Matrix: (Units=GPa)
#
#
# Indices 1 2 3 4 5 6 
#
# 1 57.8082 26.3622 33.2391 0.0000 -22.5946 0.0000
# 2 26.3622 150.1018 46.8701 0.0000 -1.5865 0.0000
# 3 33.2391 46.8701 160.9863 0.0000 -21.8086 0.0000
# 4 0.0000 0.0000 0.0000 5.5206 0.0000 -60.3183
# 5 -22.5946 -1.5865 -21.8086 0.0000 35.6801 0.0000
# 6 0.0000 0.0000 0.0000 -60.3183 0.0000 -86.1131
#
#
#
# Elastic Compliance Matrix: (Units=1/GPa)
#
#
# Indices 1 2 3 4 5 6 
#
# 1 0.026182 -0.003725 -0.002287 0.000000 0.015016 0.000000
# 2 -0.003725 0.007896 -0.001964 0.000000 -0.003209 0.000000
# 3 -0.002287 -0.001964 0.007684 0.000000 0.003161 0.000000
# 4 0.000000 0.000000 0.000000 0.020933 0.000000 -0.014663
# 5 0.015016 -0.003209 0.003161 0.000000 0.039325 0.000000
# 6 0.000000 0.000000 0.000000 -0.014663 0.000000 -0.001342
#
#
# Mechanical properties :
#
#
# Convention : Reuss Voigt Hill
#
# Bulk Modulus (GPa) = 38.74748 64.64879 51.69814
# Shear Modulus (GPa) = 39.92529 8.51252 24.21891
#
# Velocity S-wave (km/s) = 4.25881 1.96650 3.31697
# Velocity P-wave (km/s) = 6.46419 5.87581 6.17701
#
# Compressibility (1/GPa) = 0.02580813
#
# Stress axis : x y z
#
# Youngs Moduli (GPa) = 38.19490 126.64816 130.14018
#
# Poissons Ratio (x) = 0.47182 0.29762
# Poissons Ratio (y) = 0.14229 0.25564
# Poissons Ratio (z) = 0.08735 0.24878
#
# Static dielectric constant tensor:
#      x y z
#    x 1.880330 0.000000 -0.044840 
#    y 0.000000 1.845240 0.000000 
#    z -0.044840 0.000000 1.831990 
# 
# From -- ./inp_files/150608.got.cif
#   From: 2010.05.17/outbox.cif.g08.bks.cpg/sg15_76_cif.got.tgz:150608.got - 2010.06.03 18:47:42.
