data_PCOD9282558
_publ_section_title
;
Structure prediction by ZEFSAII (Michael W. Deem and Ramdas Pophale) SiO2 
 PCOD9282558
Probable space group: C 2/C
;
_chemical_formula_sum "Si O2"
_cell_formula_units_Z 40
_cell_length_a 11.163138
_cell_length_b 13.018512
_cell_length_c 14.913929
_cell_angle_alpha 90.000000
_cell_angle_beta 133.071259
_cell_angle_gamma 90.000000
_cell_volume 1583.298736
_symmetry_space_group_name_H-M "C 2/C"
_symmetry_group_IT_number 15
_symmetry_cell_setting 'monoclinic'
loop_
_space_group_symop_operation_xyz
x,y,z
-x,y,1/2-z
-x,-y,-z
x,-y,1/2+z
1/2+x,1/2+y,z
1/2-x,1/2+y,1/2-z
1/2-x,1/2-y,-z
1/2+x,1/2-y,1/2+z
loop_
_atom_site_type_symbol
_atom_site_label
_atom_site_fract_x
_atom_site_fract_y
_atom_site_fract_z
Si Si1 0.806424 0.025831 0.145859
Si Si2 0.203520 0.094050 0.164589
Si Si3 0.145446 0.867256 0.070473
Si Si4 0.770457 0.188668 0.698599
Si Si5 0.932709 0.622556 0.623107
O O1 0.802237 0.902056 0.145930
O O2 0.000000 0.054264 0.250000
O O3 0.736157 0.065631 0.205357
O O4 0.685906 0.063869 0.006615
O O5 0.290468 0.196151 0.174033
O O6 0.190238 0.988118 0.104350
O O7 0.014877 0.131738 0.070384
O O8 0.115835 0.827056 0.155344
O O9 0.297385 0.805934 0.104763
O O10 0.588683 0.164205 0.648570
O O11 0.000000 0.569252 0.750000
#
# Coordination Sequence:
#
# PCOD9282558 Si02
#       5
#     8   8   8   8   8
#     4  11  22  41  65  88 124 168 204 251 316 368
#     4  10  21  39  63  88 122 165 204 252 307 366
#     4   9  20  40  60  86 128 161 199 255 311 362
#     4  10  23  38  62  93 121 156 213 258 298 372
#     4  10  21  41  60  90 126 156 204 260 309 358
#
# _framework density 25.263711000000001
#
# number of rings (size 3 to 8) (size 9 to 14) (size 15 to 20)
#    0.000    2.000    2.000    0.600    2.800    3.200 
#    0.000    6.000    0.000    0.000    0.000    0.000 
#    0.000    0.000    0.000    0.000    0.000    0.000 
#
# Total GULP energy -111474.336710 kJ/mol
# GULP energy per Si atom -5573.716835 kJ/mol
# Density = 2.520621 g / cm^3
# Si number density = 25.263711 Si / 1000 Ang^3
#
#
#
# Elastic Constant Matrix: (Units=GPa)
#
#
# Indices 1 2 3 4 5 6 
#
# 1 48.6054 -15.2381 20.6521 0.0000 12.2871 0.0000
# 2 -15.2381 114.3524 56.5880 0.0000 -8.8692 0.0000
# 3 20.6521 56.5880 166.2413 0.0000 -20.2861 0.0000
# 4 0.0000 0.0000 0.0000 10.9327 0.0000 -7.9883
# 5 12.2871 -8.8692 -20.2861 0.0000 37.3827 0.0000
# 6 0.0000 0.0000 0.0000 -7.9883 0.0000 4.7431
#
#
#
# Elastic Compliance Matrix: (Units=1/GPa)
#
#
# Indices 1 2 3 4 5 6 
#
# 1 0.028636 0.006462 -0.007195 0.000000 -0.011783 0.000000
# 2 0.006462 0.011987 -0.005135 0.000000 -0.002067 0.000000
# 3 -0.007195 -0.005135 0.009421 0.000000 0.006259 0.000000
# 4 0.000000 0.000000 0.000000 -0.396641 0.000000 -0.668025
# 5 -0.011783 -0.002067 0.006259 0.000000 0.033529 0.000000
# 6 0.000000 0.000000 0.000000 -0.668025 0.000000 -0.914258
#
#
# Mechanical properties :
#
#
# Convention : Reuss Voigt Hill
#
# Bulk Modulus (GPa) = 26.10433 50.35590 38.23011
# Shear Modulus (GPa) = -4.15690 28.42482 12.13396
#
# Velocity S-wave (km/s) = -1.28412 3.35793 2.19393
# Velocity P-wave (km/s) = 2.85597 5.91689 4.64576
#
# Compressibility (1/GPa) = 0.03830782
#
# Stress axis : x y z
#
# Youngs Moduli (GPa) = 34.92132 83.42347 106.14539
#
# Poissons Ratio (x) = -0.53912 0.76373
# Poissons Ratio (y) = -0.22568 0.54510
# Poissons Ratio (z) = 0.25126 0.42841
#
# Static dielectric constant tensor:
#      x y z
#    x 2.099300 0.000000 0.086340 
#    y 0.000000 2.068740 0.000000 
#    z 0.086340 0.000000 2.020070 
# 
# From -- ./inp_files/204257.got.cif
#   From: 2010.05.17/outbox.cif.g08.bks.cpg/sg15_103_cif.got.tgz:204257.got - 2010.06.03 18:47:42.
