data_PCOD9282996
_publ_section_title
;
Structure prediction by ZEFSAII (Michael W. Deem and Ramdas Pophale) SiO2 
 PCOD9282996
Probable space group: C 2/C
;
_chemical_formula_sum "Si O2"
_cell_formula_units_Z 56
_cell_length_a 19.388513
_cell_length_b 14.528575
_cell_length_c 17.305518
_cell_angle_alpha 90.000000
_cell_angle_beta 27.798517
_cell_angle_gamma 90.000000
_cell_volume 2273.405497
_symmetry_space_group_name_H-M "C 2/C"
_symmetry_group_IT_number 15
_symmetry_cell_setting 'monoclinic'
loop_
_space_group_symop_operation_xyz
x,y,z
-x,y,1/2-z
-x,-y,-z
x,-y,1/2+z
1/2+x,1/2+y,z
1/2-x,1/2+y,1/2-z
1/2-x,1/2-y,-z
1/2+x,1/2-y,1/2+z
loop_
_atom_site_type_symbol
_atom_site_label
_atom_site_fract_x
_atom_site_fract_y
_atom_site_fract_z
Si Si1 0.722232 0.453089 0.128237
Si Si2 0.986427 0.333228 0.926729
Si Si3 0.693794 0.895452 0.839721
Si Si4 0.876509 0.785934 0.023460
Si Si5 0.895818 0.350926 0.278258
Si Si6 0.985855 0.121033 0.972998
Si Si7 0.145920 0.552005 0.158687
O O1 0.790681 0.546248 0.097559
O O2 0.570485 0.434123 0.322792
O O3 0.723910 0.453886 0.033575
O O4 0.834382 0.373225 0.045070
O O5 0.037308 0.391988 0.951247
O O6 0.973329 0.226170 0.955993
O O7 0.121118 0.357843 0.734630
O O8 0.718285 0.787746 0.833672
O O9 0.828861 0.922354 0.650478
O O10 0.774003 0.816541 0.053937
O O11 0.925463 0.865534 0.033758
O O12 0.013468 0.723597 0.860993
O O13 0.872163 0.457169 0.276394
O O14 0.000000 0.356003 0.250000
O O15 0.000000 0.553937 0.250000
#
# Coordination Sequence:
#
# PCOD9282996 Si02
#       7
#     8   8   8   8   8   8   8
#     4  11  23  41  66  89 127 166 208 265 313 374
#     4  10  21  39  66  93 119 166 217 255 312 377
#     4  11  22  39  63  94 127 164 212 260 313 376
#     4  11  22  39  63  95 129 167 212 261 315 381
#     4  11  22  39  65  92 132 166 211 259 319 383
#     4  11  24  40  61  95 130 161 207 268 321 365
#     4   9  21  41  63  93 121 164 217 256 308 379
#
# _framework density 24.632650000000002
#
# number of rings (size 3 to 8) (size 9 to 14) (size 15 to 20)
#    0.000    1.429    1.429    5.571    4.000    0.571 
#    0.000    2.143    0.000    0.000    0.000    0.000 
#    0.000    0.000    0.000    0.000    0.000    0.000 
#
# Total GULP energy -156322.371578 kJ/mol
# GULP energy per Si atom -5582.941842 kJ/mol
# Density = 2.457658 g / cm^3
# Si number density = 24.632650 Si / 1000 Ang^3
#
#
#
# Elastic Constant Matrix: (Units=GPa)
#
#
# Indices 1 2 3 4 5 6 
#
# 1 60.8303 9.3811 9.6831 -0.0019 -6.4757 0.0017
# 2 9.3811 78.3235 6.2064 -0.0016 -3.0679 0.0015
# 3 9.6831 6.2064 99.7935 -0.0029 10.8703 0.0032
# 4 -0.0019 -0.0016 -0.0029 21.8040 0.0019 14.5038
# 5 -6.4757 -3.0679 10.8703 0.0019 27.7767 -0.0019
# 6 0.0017 0.0015 0.0032 14.5038 -0.0019 10.3928
#
#
#
# Elastic Compliance Matrix: (Units=1/GPa)
#
#
# Indices 1 2 3 4 5 6 
#
# 1 0.017547 -0.001750 -0.002108 0.000019 0.004723 -0.000028
# 2 -0.001750 0.013093 -0.000791 0.000018 0.001348 -0.000026
# 3 -0.002108 -0.000791 0.010798 0.000058 -0.004805 -0.000084
# 4 0.000019 0.000018 0.000058 0.639767 -0.000121 -0.892832
# 5 0.004723 0.001348 -0.004805 -0.000121 0.039132 0.000177
# 6 -0.000028 -0.000026 -0.000084 -0.892832 0.000177 1.342220
#
#
# Mechanical properties :
#
#
# Convention : Reuss Voigt Hill
#
# Bulk Modulus (GPa) = 31.11451 32.16540 31.63995
# Shear Modulus (GPa) = 2.40088 26.23980 14.32034
#
# Velocity S-wave (km/s) = 0.98833 3.26735 2.41375
# Velocity P-wave (km/s) = 3.73647 5.22690 4.54322
#
# Compressibility (1/GPa) = 0.03213935
#
# Stress axis : x y z
#
# Youngs Moduli (GPa) = 56.98861 76.37887 92.61117
#
# Poissons Ratio (x) = 0.13364 0.19525
# Poissons Ratio (y) = 0.09971 0.07328
# Poissons Ratio (z) = 0.12015 0.06044
#
# Static dielectric constant tensor:
#      x y z
#    x 2.012440 0.000000 0.035900 
#    y 0.000000 1.921590 0.000000 
#    z 0.035900 0.000000 2.071320 
# 
# From -- ./inp_files/215722.got.cif
#   From: 2010.05.17/outbox.cif.g08.bks.cpg/sg15_108_cif.got.tgz:215722.got - 2010.06.03 18:47:42.
