data_PCOD9282912
_publ_section_title
;
Structure prediction by ZEFSAII (Michael W. Deem and Ramdas Pophale) SiO2 
 PCOD9282912
Probable space group: C 2/C
;
_chemical_formula_sum "Si O2"
_cell_formula_units_Z 40
_cell_length_a 9.221091
_cell_length_b 25.710313
_cell_length_c 13.041886
_cell_angle_alpha 90.000000
_cell_angle_beta 149.480471
_cell_angle_gamma 90.000000
_cell_volume 1570.182557
_symmetry_space_group_name_H-M "C 2/C"
_symmetry_group_IT_number 15
_symmetry_cell_setting 'monoclinic'
loop_
_space_group_symop_operation_xyz
x,y,z
-x,y,1/2-z
-x,-y,-z
x,-y,1/2+z
1/2+x,1/2+y,z
1/2-x,1/2+y,1/2-z
1/2-x,1/2-y,-z
1/2+x,1/2-y,1/2+z
loop_
_atom_site_type_symbol
_atom_site_label
_atom_site_fract_x
_atom_site_fract_y
_atom_site_fract_z
Si Si1 0.115980 0.712987 0.207886
Si Si2 0.668882 0.428652 0.164781
Si Si3 0.666670 0.462437 0.743796
Si Si4 0.373847 0.111654 0.056401
Si Si5 0.724088 0.314105 0.142620
O O1 0.890284 0.670752 0.027230
O O2 0.424133 0.683594 0.397923
O O3 0.155276 0.767330 0.177234
O O4 0.000000 0.723692 0.250000
O O5 0.796119 0.482347 0.284429
O O6 0.801778 0.371550 0.231196
O O7 0.550274 0.444823 0.979765
O O8 0.421287 0.415507 0.096530
O O9 0.500000 0.464151 0.750000
O O10 0.921813 0.421364 0.890966
O O11 0.500000 0.114049 0.250000
O O12 0.000000 0.295913 0.250000
#
# Coordination Sequence:
#
# PCOD9282912 Si02
#       5
#     8   8   8   8   8
#     4  11  22  44  69  95 132 181 219 266 339 400
#     4  10  22  42  63  94 135 175 215 275 332 398
#     4  10  21  39  65  95 128 169 223 272 335 389
#     4   9  18  40  66  86 131 176 213 260 338 391
#     4  12  25  43  66 101 133 171 222 281 330 387
#
# _framework density 25.474746
#
# number of rings (size 3 to 8) (size 9 to 14) (size 15 to 20)
#    0.000    1.600    6.000    1.200    0.000    6.400 
#    3.600    0.000    0.000    0.000    0.000    0.000 
#    0.000    0.000    0.000    0.000    0.000    0.000 
#
# Total GULP energy -111860.776237 kJ/mol
# GULP energy per Si atom -5593.038812 kJ/mol
# Density = 2.541676 g / cm^3
# Si number density = 25.474746 Si / 1000 Ang^3
#
#
#
# Elastic Constant Matrix: (Units=GPa)
#
#
# Indices 1 2 3 4 5 6 
#
# 1 147.5016 57.2734 29.4419 0.0000 3.9920 0.0000
# 2 57.2734 222.0143 9.9713 0.0000 -9.4655 0.0000
# 3 29.4419 9.9713 38.1585 0.0000 -2.5144 0.0000
# 4 0.0000 0.0000 0.0000 35.3952 0.0000 3.0275
# 5 3.9920 -9.4655 -2.5144 0.0000 45.1206 0.0000
# 6 0.0000 0.0000 0.0000 3.0275 0.0000 23.6427
#
#
#
# Elastic Compliance Matrix: (Units=1/GPa)
#
#
# Indices 1 2 3 4 5 6 
#
# 1 0.008915 -0.002078 -0.006440 0.000000 -0.001584 0.000000
# 2 -0.002078 0.005078 0.000360 0.000000 0.001269 0.000000
# 3 -0.006440 0.000360 0.031238 0.000000 0.002386 0.000000
# 4 0.000000 0.000000 0.000000 0.028565 0.000000 -0.003658
# 5 -0.001584 0.001269 0.002386 0.000000 0.022702 0.000000
# 6 0.000000 0.000000 0.000000 -0.003658 0.000000 0.042765
#
#
# Mechanical properties :
#
#
# Convention : Reuss Voigt Hill
#
# Bulk Modulus (GPa) = 34.58317 66.78306 50.68311
# Shear Modulus (GPa) = 30.26319 41.56424 35.91372
#
# Velocity S-wave (km/s) = 3.45043 4.04367 3.75877
# Velocity P-wave (km/s) = 5.42945 6.93354 6.22707
#
# Compressibility (1/GPa) = 0.02891580
#
# Stress axis : x y z
#
# Youngs Moduli (GPa) = 112.17425 196.91890 32.01204
#
# Poissons Ratio (x) = 0.40920 0.20615
# Poissons Ratio (y) = 0.23310 -0.01152
# Poissons Ratio (z) = 0.72236 -0.07089
#
# Static dielectric constant tensor:
#      x y z
#    x 1.929870 0.000000 -0.061750 
#    y 0.000000 1.985770 0.000000 
#    z -0.061750 0.000000 2.206940 
# 
# From -- ./inp_files/81011.got.cif
#   From: 2010.05.17/outbox.cif.g08.bks.cpg/sg15_41_cif.got.tgz:81011.got - 2010.06.03 18:47:42.
