data_PCOD9282186
_publ_section_title
;
Structure prediction by ZEFSAII (Michael W. Deem and Ramdas Pophale) SiO2 
 PCOD9282186
Probable space group: C 2/C
;
_chemical_formula_sum "Si O2"
_cell_formula_units_Z 48
_cell_length_a 8.903833
_cell_length_b 15.747508
_cell_length_c 19.474703
_cell_angle_alpha 90.000000
_cell_angle_beta 114.806206
_cell_angle_gamma 90.000000
_cell_volume 2478.662245
_symmetry_space_group_name_H-M "C 2/C"
_symmetry_group_IT_number 15
_symmetry_cell_setting 'monoclinic'
loop_
_space_group_symop_operation_xyz
x,y,z
-x,y,1/2-z
-x,-y,-z
x,-y,1/2+z
1/2+x,1/2+y,z
1/2-x,1/2+y,1/2-z
1/2-x,1/2-y,-z
1/2+x,1/2-y,1/2+z
loop_
_atom_site_type_symbol
_atom_site_label
_atom_site_fract_x
_atom_site_fract_y
_atom_site_fract_z
Si Si1 0.508275 0.521310 0.420341
Si Si2 0.513875 0.855264 0.171126
Si Si3 0.822127 0.200869 0.078573
Si Si4 0.977495 0.612238 0.428421
Si Si5 0.204929 0.570272 0.595033
Si Si6 0.132966 0.526803 0.337323
O O1 0.500000 0.500000 0.500000
O O2 0.598641 0.611535 0.427797
O O3 0.615406 0.450024 0.401090
O O4 0.324055 0.529359 0.354487
O O5 0.500000 0.853300 0.250000
O O6 0.454790 0.764375 0.135262
O O7 0.680863 0.883102 0.163403
O O8 0.392717 0.934999 0.130215
O O9 0.666253 0.181764 0.098398
O O10 0.750000 0.250000 0.000000
O O11 0.094626 0.619760 0.517387
O O12 0.088722 0.600731 0.382565
O O13 0.880144 0.522486 0.415003
O O14 0.000000 0.531415 0.250000
#
# Coordination Sequence:
#
# PCOD9282186 Si02
#       6
#     8   8   8   8   8   8
#     4  11  21  36  63  94 118 156 214 261 301 377
#     4  10  21  39  59  83 121 164 199 255 319 374
#     4  11  21  35  60  90 120 157 203 251 315 374
#     4   9  17  33  58  84 114 153 197 248 288 368
#     4   9  17  34  59  86 113 151 207 245 296 363
#     4  10  21  39  60  85 121 161 199 256 317 369
#
# _framework density 19.365283999999999
#
# number of rings (size 3 to 8) (size 9 to 14) (size 15 to 20)
#    0.000    2.000    3.333    1.000    0.000    1.333 
#    0.000   17.500    0.000    0.000    0.000    0.000 
#    0.000    0.000    0.000    0.000    0.000    0.000 
#
# Total GULP energy -133711.557274 kJ/mol
# GULP energy per Si atom -5571.314886 kJ/mol
# Density = 1.932121 g / cm^3
# Si number density = 19.365284 Si / 1000 Ang^3
#
#
#
# Elastic Constant Matrix: (Units=GPa)
#
#
# Indices 1 2 3 4 5 6 
#
# 1 155.2120 38.5819 48.3413 0.0000 -7.8716 0.0000
# 2 38.5819 75.6664 20.3019 0.0000 -11.0030 0.0000
# 3 48.3413 20.3019 77.1711 0.0000 -13.6991 0.0000
# 4 0.0000 0.0000 0.0000 18.6959 0.0000 -0.8631
# 5 -7.8716 -11.0030 -13.6991 0.0000 31.6766 0.0000
# 6 0.0000 0.0000 0.0000 -0.8631 0.0000 26.6765
#
#
#
# Elastic Compliance Matrix: (Units=1/GPa)
#
#
# Indices 1 2 3 4 5 6 
#
# 1 0.008695 -0.003308 -0.004763 0.000000 -0.001048 0.000000
# 2 -0.003308 0.015867 -0.001375 0.000000 0.004095 0.000000
# 3 -0.004763 -0.001375 0.017340 0.000000 0.005838 0.000000
# 4 0.000000 0.000000 0.000000 0.053568 0.000000 0.001733
# 5 -0.001048 0.004095 0.005838 0.000000 0.035256 0.000000
# 6 0.000000 0.000000 0.000000 0.001733 0.000000 0.037542
#
#
# Mechanical properties :
#
#
# Convention : Reuss Voigt Hill
#
# Bulk Modulus (GPa) = 43.45883 58.05550 50.75716
# Shear Modulus (GPa) = 25.66347 28.79810 27.23079
#
# Velocity S-wave (km/s) = 3.64432 3.86048 3.75395
# Velocity P-wave (km/s) = 6.34022 7.06507 6.71244
#
# Compressibility (1/GPa) = 0.02301029
#
# Stress axis : x y z
#
# Youngs Moduli (GPa) = 115.00424 63.02339 57.67135
#
# Poissons Ratio (x) = 0.20850 0.27467
# Poissons Ratio (y) = 0.38046 0.07930
# Poissons Ratio (z) = 0.54772 0.08666
#
# Static dielectric constant tensor:
#      x y z
#    x 1.713860 0.000000 -0.006740 
#    y 0.000000 1.688960 0.000000 
#    z -0.006740 0.000000 1.636690 
# 
# From -- ./inp_files/189253.got.cif
#   From: 2010.05.17/outbox.cif.g08.bks.cpg/sg15_95_cif.got.tgz:189253.got - 2010.06.03 18:47:42.
