data_PCOD9282513
_publ_section_title
;
Structure prediction by ZEFSAII (Michael W. Deem and Ramdas Pophale) SiO2 
 PCOD9282513
Probable space group: C 2/C
;
_chemical_formula_sum "Si O2"
_cell_formula_units_Z 48
_cell_length_a 23.027646
_cell_length_b 5.612005
_cell_length_c 26.151570
_cell_angle_alpha 90.000000
_cell_angle_beta 134.238776
_cell_angle_gamma 90.000000
_cell_volume 2421.276302
_symmetry_space_group_name_H-M "C 2/C"
_symmetry_group_IT_number 15
_symmetry_cell_setting 'monoclinic'
loop_
_space_group_symop_operation_xyz
x,y,z
-x,y,1/2-z
-x,-y,-z
x,-y,1/2+z
1/2+x,1/2+y,z
1/2-x,1/2+y,1/2-z
1/2-x,1/2-y,-z
1/2+x,1/2-y,1/2+z
loop_
_atom_site_type_symbol
_atom_site_label
_atom_site_fract_x
_atom_site_fract_y
_atom_site_fract_z
Si Si1 0.988005 0.117818 0.072560
Si Si2 0.154081 0.644539 0.682802
Si Si3 0.758079 0.964250 0.838034
Si Si4 0.923757 0.249212 0.935195
Si Si5 0.145239 0.015690 0.424385
Si Si6 0.688944 0.016765 0.407763
O O1 0.078726 0.179478 0.145762
O O2 0.926545 0.069132 0.079974
O O3 0.955477 0.314680 0.011522
O O4 0.001923 0.884142 0.046678
O O5 0.218813 0.732402 0.680578
O O6 0.200529 0.605131 0.763801
O O7 0.111838 0.424929 0.628750
O O8 0.715564 0.936449 0.865997
O O9 0.845362 0.086379 0.899693
O O10 0.229404 0.999095 0.507806
O O11 0.139037 0.752168 0.395102
O O12 0.150176 0.252437 0.391452
#
# Coordination Sequence:
#
# PCOD9282513 Si02
#       6
#     8   8   8   8   8   8
#     4  10  22  39  63  94 124 162 213 265 324 377
#     4  11  23  37  65  90 129 167 203 273 324 385
#     4  11  22  39  62  94 126 167 215 257 326 391
#     4  10  21  39  62  95 123 161 205 267 325 375
#     4  10  22  41  64  94 125 170 216 267 309 377
#     4  10  23  39  66  93 126 171 216 261 314 377
#
# _framework density 19.824254
#
# number of rings (size 3 to 8) (size 9 to 14) (size 15 to 20)
#    0.000    1.667    3.333    0.500    4.667    1.333 
#    0.000    0.833    0.000    0.000    0.000    0.000 
#    0.000    0.000    0.000    0.000    0.000    0.000 
#
# Total GULP energy -133702.218216 kJ/mol
# GULP energy per Si atom -5570.925759 kJ/mol
# Density = 1.977913 g / cm^3
# Si number density = 19.824254 Si / 1000 Ang^3
#
#
#
# Elastic Constant Matrix: (Units=GPa)
#
#
# Indices 1 2 3 4 5 6 
#
# 1 110.8500 32.0627 -3.1920 0.0022 0.6029 -0.0100
# 2 32.0627 76.4558 6.7989 0.0036 -1.6943 -0.0125
# 3 -3.1920 6.7989 69.2413 0.0006 5.5050 -0.0038
# 4 0.0022 0.0036 0.0006 29.5971 -0.0011 -4.9812
# 5 0.6029 -1.6943 5.5050 -0.0011 21.9241 -0.0002
# 6 -0.0100 -0.0125 -0.0038 -4.9812 -0.0002 42.0102
#
#
#
# Elastic Compliance Matrix: (Units=1/GPa)
#
#
# Indices 1 2 3 4 5 6 
#
# 1 0.010339 -0.004443 0.000982 0.000000 -0.000874 0.000001
# 2 -0.004443 0.015144 -0.001831 -0.000001 0.001752 0.000003
# 3 0.000982 -0.001831 0.014980 0.000000 -0.003930 0.000001
# 4 0.000000 -0.000001 0.000000 0.034475 0.000002 0.004088
# 5 -0.000874 0.001752 -0.003930 0.000002 0.046758 0.000000
# 6 0.000001 0.000003 0.000001 0.004088 0.000000 0.024288
#
#
# Mechanical properties :
#
#
# Convention : Reuss Voigt Hill
#
# Bulk Modulus (GPa) = 33.46674 36.43182 34.94928
# Shear Modulus (GPa) = 30.02501 33.43146 31.72823
#
# Velocity S-wave (km/s) = 3.89596 4.11103 4.00493
# Velocity P-wave (km/s) = 6.09560 6.39932 6.24931
#
# Compressibility (1/GPa) = 0.02988041
#
# Stress axis : x y z
#
# Youngs Moduli (GPa) = 96.71886 66.03191 66.75668
#
# Poissons Ratio (x) = 0.29336 -0.06558
# Poissons Ratio (y) = 0.42969 0.12224
# Poissons Ratio (z) = -0.09502 0.12091
#
# Static dielectric constant tensor:
#      x y z
#    x 1.652800 0.000000 -0.009820 
#    y 0.000000 1.817200 0.000000 
#    z -0.009820 0.000000 1.724870 
# 
# From -- ./inp_files/217761.got.cif
#   From: 2010.05.17/outbox.cif.g08.bks.cpg/sg15_109_cif.got.tgz:217761.got - 2010.06.03 18:47:42.
