data_PCOD9282680
_publ_section_title
;
Structure prediction by ZEFSAII (Michael W. Deem and Ramdas Pophale) SiO2 
 PCOD9282680
Probable space group: C 2/C
;
_chemical_formula_sum "Si O2"
_cell_formula_units_Z 56
_cell_length_a 12.088754
_cell_length_b 23.345092
_cell_length_c 14.514194
_cell_angle_alpha 90.000000
_cell_angle_beta 142.570740
_cell_angle_gamma 90.000000
_cell_volume 2489.530766
_symmetry_space_group_name_H-M "C 2/C"
_symmetry_group_IT_number 15
_symmetry_cell_setting 'monoclinic'
loop_
_space_group_symop_operation_xyz
x,y,z
-x,y,1/2-z
-x,-y,-z
x,-y,1/2+z
1/2+x,1/2+y,z
1/2-x,1/2+y,1/2-z
1/2-x,1/2-y,-z
1/2+x,1/2-y,1/2+z
loop_
_atom_site_type_symbol
_atom_site_label
_atom_site_fract_x
_atom_site_fract_y
_atom_site_fract_z
Si Si1 0.144579 0.422567 0.213061
Si Si2 0.500000 0.984471 0.750000
Si Si3 0.731688 0.813848 0.026491
Si Si4 0.648206 0.661483 0.272291
Si Si5 0.868962 0.236813 0.974688
Si Si6 0.500000 0.828027 0.250000
Si Si7 0.060409 0.842905 0.147889
Si Si8 0.456121 0.097170 0.393574
O O1 0.136310 0.471104 0.286600
O O2 0.347044 0.400667 0.326319
O O3 0.046357 0.369011 0.196290
O O4 0.045172 0.428169 0.047569
O O5 0.478019 0.943299 0.646647
O O6 0.832139 0.821847 0.190544
O O7 0.851052 0.850898 0.034238
O O8 0.750000 0.750000 0.000000
O O9 0.537542 0.841446 0.915079
O O10 0.500000 0.640463 0.250000
O O11 0.817697 0.697368 0.425551
O O12 0.743757 0.611147 0.276156
O O13 0.534993 0.710792 0.143190
O O14 0.679673 0.209130 0.884057
O O15 0.911930 0.207604 0.905687
#
# Coordination Sequence:
#
# PCOD9282680 Si02
#       8
#     8   4   8   8   8   4   8   8
#     4   9  20  43  70  93 124 176 228 291 350 399
#     4  11  24  44  72  98 126 176 236 305 358 402
#     4  10  21  39  63  98 145 183 218 268 337 419
#     4  12  26  40  63  98 145 181 228 276 336 414
#     4  11  23  36  63  96 138 183 224 269 333 407
#     4   9  18  38  68  94 130 178 228 269 342 404
#     4   9  21  37  63  93 131 182 229 269 330 413
#     4  11  25  41  69  98 136 178 228 282 351 418
#
# _framework density 22.494198000000001
#
# number of rings (size 3 to 8) (size 9 to 14) (size 15 to 20)
#    0.000    1.714    0.714    2.571   10.000    1.143 
#    0.000    0.714   12.571    0.000    0.000    0.000 
#    0.000    0.000    0.000    0.000    0.000    0.000 
#
# Total GULP energy -156042.607193 kJ/mol
# GULP energy per Si atom -5572.950257 kJ/mol
# Density = 2.244300 g / cm^3
# Si number density = 22.494198 Si / 1000 Ang^3
#
#
#
# Elastic Constant Matrix: (Units=GPa)
#
#
# Indices 1 2 3 4 5 6 
#
# 1 178.2975 47.5393 45.7194 0.0000 5.9930 0.0000
# 2 47.5393 77.8369 21.6986 0.0000 1.0113 0.0000
# 3 45.7194 21.6986 47.7294 0.0000 0.8504 0.0000
# 4 0.0000 0.0000 0.0000 7.3130 0.0000 -11.6635
# 5 5.9930 1.0113 0.8504 0.0000 36.7070 0.0000
# 6 0.0000 0.0000 0.0000 -11.6635 0.0000 51.2447
#
#
#
# Elastic Compliance Matrix: (Units=1/GPa)
#
#
# Indices 1 2 3 4 5 6 
#
# 1 0.008110 -0.003182 -0.006302 0.000000 -0.001090 0.000000
# 2 -0.003182 0.015963 -0.004212 0.000000 0.000177 0.000000
# 3 -0.006302 -0.004212 0.028895 0.000000 0.000476 0.000000
# 4 0.000000 0.000000 0.000000 0.214671 0.000000 0.048860
# 5 -0.001090 0.000177 0.000476 0.000000 0.027405 0.000000
# 6 0.000000 0.000000 0.000000 0.048860 0.000000 0.030635
#
#
# Mechanical properties :
#
#
# Convention : Reuss Voigt Hill
#
# Bulk Modulus (GPa) = 39.10134 59.30871 49.20502
# Shear Modulus (GPa) = 13.82763 31.64667 22.73715
#
# Velocity S-wave (km/s) = 2.48204 3.75491 3.18276
# Velocity P-wave (km/s) = 5.06307 6.72478 5.95220
#
# Compressibility (1/GPa) = 0.02557457
#
# Stress axis : x y z
#
# Youngs Moduli (GPa) = 123.30934 62.64600 34.60852
#
# Poissons Ratio (x) = 0.19934 0.21811
# Poissons Ratio (y) = 0.39237 0.14577
# Poissons Ratio (z) = 0.77711 0.26387
#
# Static dielectric constant tensor:
#      x y z
#    x 1.889570 0.000000 -0.053120 
#    y 0.000000 1.865060 0.000000 
#    z -0.053120 0.000000 1.895690 
# 
# From -- ./inp_files/148601.got.cif
#   From: 2010.05.17/outbox.cif.g08.bks.cpg/sg15_75_cif.got.tgz:148601.got - 2010.06.03 18:47:42.
