data_PCOD9282157
_publ_section_title
;
Structure prediction by ZEFSAII (Michael W. Deem and Ramdas Pophale) SiO2 
 PCOD9282157
Probable space group: C 2/C
;
_chemical_formula_sum "Si O2"
_cell_formula_units_Z 48
_cell_length_a 24.627157
_cell_length_b 8.475127
_cell_length_c 18.839651
_cell_angle_alpha 90.000000
_cell_angle_beta 43.317209
_cell_angle_gamma 90.000000
_cell_volume 2697.620356
_symmetry_space_group_name_H-M "C 2/C"
_symmetry_group_IT_number 15
_symmetry_cell_setting 'monoclinic'
loop_
_space_group_symop_operation_xyz
x,y,z
-x,y,1/2-z
-x,-y,-z
x,-y,1/2+z
1/2+x,1/2+y,z
1/2-x,1/2+y,1/2-z
1/2-x,1/2-y,-z
1/2+x,1/2-y,1/2+z
loop_
_atom_site_type_symbol
_atom_site_label
_atom_site_fract_x
_atom_site_fract_y
_atom_site_fract_z
Si Si1 0.283982 0.871926 0.632488
Si Si2 0.769792 0.518275 0.800507
Si Si3 0.820867 0.860630 0.898031
Si Si4 0.591139 0.960562 0.581563
Si Si5 0.412971 0.920732 0.263067
Si Si6 0.189872 0.834717 0.001318
O O1 0.277605 0.683339 0.648340
O O2 0.215774 0.918855 0.641289
O O3 0.273508 0.955800 0.717472
O O4 0.362434 0.930433 0.518010
O O5 0.856579 0.554031 0.749863
O O6 0.733559 0.389542 0.888240
O O7 0.897659 0.757727 0.804716
O O8 0.837315 0.005048 0.933964
O O9 0.750000 0.750000 0.000000
O O10 0.618654 0.780831 0.545814
O O11 0.617736 0.989460 0.637689
O O12 0.500045 0.013552 0.666058
O O13 0.250000 0.750000 0.000000
#
# Coordination Sequence:
#
# PCOD9282157 Si02
#       6
#     8   8   8   8   8   8
#     4  11  21  36  59  89 117 158 203 244 297 349
#     4  11  22  37  61  85 116 158 204 247 293 355
#     4  11  18  39  64  87 113 159 200 248 290 351
#     4  11  21  36  60  87 123 152 195 250 299 356
#     4  10  21  39  58  84 123 159 193 238 308 358
#     4  12  19  35  65  93 114 151 205 255 286 350
#
# _framework density 17.793461000000001
#
# number of rings (size 3 to 8) (size 9 to 14) (size 15 to 20)
#    0.000    1.000    8.333    1.000    0.000    0.667 
#    0.000    6.667    0.000    5.000    0.000    0.000 
#    0.000    0.000    0.000    0.000    0.000    0.000 
#
# Total GULP energy -133766.359852 kJ/mol
# GULP energy per Si atom -5573.598327 kJ/mol
# Density = 1.775296 g / cm^3
# Si number density = 17.793461 Si / 1000 Ang^3
#
#
#
# Elastic Constant Matrix: (Units=GPa)
#
#
# Indices 1 2 3 4 5 6 
#
# 1 75.2487 52.3587 59.3542 0.0015 9.1206 -0.0013
# 2 52.3587 108.7106 70.3289 0.0029 -15.9220 -0.0026
# 3 59.3542 70.3289 128.3590 0.0014 7.5847 -0.0016
# 4 0.0015 0.0029 0.0014 35.7160 -0.0011 8.8506
# 5 9.1206 -15.9220 7.5847 -0.0011 34.8949 0.0012
# 6 -0.0013 -0.0026 -0.0016 8.8506 0.0012 24.8098
#
#
#
# Elastic Compliance Matrix: (Units=1/GPa)
#
#
# Indices 1 2 3 4 5 6 
#
# 1 0.026487 -0.010468 -0.005897 -0.000001 -0.010418 0.000001
# 2 -0.010468 0.021239 -0.007629 -0.000001 0.014085 0.000001
# 3 -0.005897 -0.007629 0.015004 0.000000 -0.005201 0.000000
# 4 -0.000001 -0.000001 0.000000 0.030714 0.000001 -0.010957
# 5 -0.010418 0.014085 -0.005201 0.000001 0.038938 -0.000002
# 6 0.000001 0.000001 0.000000 -0.010957 -0.000002 0.044215
#
#
# Mechanical properties :
#
#
# Convention : Reuss Voigt Hill
#
# Bulk Modulus (GPa) = 67.82716 75.15575 71.49146
# Shear Modulus (GPa) = 21.78672 27.76923 24.77797
#
# Velocity S-wave (km/s) = 3.50297 3.95478 3.73571
# Velocity P-wave (km/s) = 7.38668 7.94879 7.67288
#
# Compressibility (1/GPa) = 0.01474336
#
# Stress axis : x y z
#
# Youngs Moduli (GPa) = 37.75470 47.08401 66.64713
#
# Poissons Ratio (x) = 0.49287 0.39299
# Poissons Ratio (y) = 0.39522 0.50843
# Poissons Ratio (z) = 0.22263 0.35919
#
# Static dielectric constant tensor:
#      x y z
#    x 1.609630 0.000000 -0.006930 
#    y 0.000000 1.668800 0.000000 
#    z -0.006930 0.000000 1.603420 
# 
# From -- ./inp_files/218132.got.cif
#   From: 2010.05.17/outbox.cif.g08.bks.cpg/sg15_110_cif.got.tgz:218132.got - 2010.06.03 18:47:42.
