data_PCOD9282507
_publ_section_title
;
Structure prediction by ZEFSAII (Michael W. Deem and Ramdas Pophale) SiO2 
 PCOD9282507
Probable space group: C 2/C
;
_chemical_formula_sum "Si O2"
_cell_formula_units_Z 56
_cell_length_a 11.605652
_cell_length_b 29.438674
_cell_length_c 15.120079
_cell_angle_alpha 90.000000
_cell_angle_beta 34.121668
_cell_angle_gamma 90.000000
_cell_volume 2897.794831
_symmetry_space_group_name_H-M "C 2/C"
_symmetry_group_IT_number 15
_symmetry_cell_setting 'monoclinic'
loop_
_space_group_symop_operation_xyz
x,y,z
-x,y,1/2-z
-x,-y,-z
x,-y,1/2+z
1/2+x,1/2+y,z
1/2-x,1/2+y,1/2-z
1/2-x,1/2-y,-z
1/2+x,1/2-y,1/2+z
loop_
_atom_site_type_symbol
_atom_site_label
_atom_site_fract_x
_atom_site_fract_y
_atom_site_fract_z
Si Si1 0.409959 0.107994 0.582056
Si Si2 0.264047 0.782746 0.862932
Si Si3 0.149257 0.442602 0.072280
Si Si4 0.926873 0.042792 0.106209
Si Si5 0.891419 0.188996 0.727099
Si Si6 0.137063 0.377097 0.752197
Si Si7 0.228988 0.013292 0.640125
O O1 0.577366 0.096836 0.551154
O O2 0.247711 0.146630 0.713763
O O3 0.506392 0.118537 0.424853
O O4 0.298713 0.060225 0.636180
O O5 0.500000 0.781408 0.750000
O O6 0.244477 0.732656 0.835377
O O7 0.261551 0.827409 0.804639
O O8 0.082662 0.793375 0.047047
O O9 0.000000 0.445351 0.250000
O O10 0.376059 0.437341 0.968023
O O11 0.148672 0.489912 0.017620
O O12 0.803120 0.082704 0.137387
O O13 0.780289 0.023149 0.275548
O O14 0.000000 0.000000 0.000000
O O15 0.000000 0.175082 0.750000
O O16 0.000000 0.378233 0.750000
O O17 0.000000 0.019415 0.750000
#
# Coordination Sequence:
#
# PCOD9282507 Si02
#       7
#     8   8   8   8   8   8   8
#     4  12  24  39  63  95 129 169 217 268 325 386
#     4  10  21  39  62  94 130 167 208 265 338 389
#     4  11  25  42  62  86 128 175 223 264 319 380
#     4  11  25  40  63  88 128 174 219 265 324 381
#     4  11  21  38  65  93 132 165 210 270 330 399
#     4  11  25  39  63  97 131 167 214 265 330 392
#     4  10  23  39  57  88 124 167 214 262 315 377
#
# _framework density 19.325037999999999
#
# number of rings (size 3 to 8) (size 9 to 14) (size 15 to 20)
#    0.000    1.143    1.429    6.000   10.000    0.000 
#    0.000    0.000    0.000    0.857    0.000    0.000 
#    0.000    0.000    0.000    0.000    0.000    0.000 
#
# Total GULP energy -156334.627948 kJ/mol
# GULP energy per Si atom -5583.379570 kJ/mol
# Density = 1.928105 g / cm^3
# Si number density = 19.325038 Si / 1000 Ang^3
#
#
#
# Elastic Constant Matrix: (Units=GPa)
#
#
# Indices 1 2 3 4 5 6 
#
# 1 97.7620 42.1590 32.0674 0.0000 -8.4101 0.0000
# 2 42.1590 110.9406 27.0580 0.0000 -12.2020 0.0000
# 3 32.0674 27.0580 105.6846 0.0000 8.4561 0.0000
# 4 0.0000 0.0000 0.0000 -13.1365 0.0000 -17.4542
# 5 -8.4101 -12.2020 8.4561 0.0000 29.7263 0.0000
# 6 0.0000 0.0000 0.0000 -17.4542 0.0000 21.6103
#
#
#
# Elastic Compliance Matrix: (Units=1/GPa)
#
#
# Indices 1 2 3 4 5 6 
#
# 1 0.013247 -0.003899 -0.003267 0.000000 0.003077 0.000000
# 2 -0.003899 0.011466 -0.002089 0.000000 0.004198 0.000000
# 3 -0.003267 -0.002089 0.011390 0.000000 -0.005022 0.000000
# 4 0.000000 0.000000 0.000000 -0.036719 0.000000 -0.029657
# 5 0.003077 0.004198 -0.005022 0.000000 0.037662 0.000000
# 6 0.000000 0.000000 0.000000 -0.029657 0.000000 0.022321
#
#
# Mechanical properties :
#
#
# Convention : Reuss Voigt Hill
#
# Bulk Modulus (GPa) = 56.83800 57.43955 57.13878
# Shear Modulus (GPa) = 59.70771 21.84688 40.77730
#
# Velocity S-wave (km/s) = 5.56450 3.36593 4.59854
# Velocity P-wave (km/s) = 8.41191 6.70025 7.60440
#
# Compressibility (1/GPa) = 0.01759386
#
# Stress axis : x y z
#
# Youngs Moduli (GPa) = 75.49112 87.21071 87.79555
#
# Poissons Ratio (x) = 0.34000 0.28686
# Poissons Ratio (y) = 0.29431 0.18338
# Poissons Ratio (z) = 0.24666 0.18216
#
# Static dielectric constant tensor:
#      x y z
#    x 1.688270 0.000000 -0.001420 
#    y 0.000000 1.688690 0.000000 
#    z -0.001420 0.000000 1.749580 
# 
# From -- ./inp_files/149274.got.cif
#   From: 2010.05.17/outbox.cif.g08.bks.cpg/sg15_75_cif.got.tgz:149274.got - 2010.06.03 18:47:42.
