data_PCOD9282488
_publ_section_title
;
Structure prediction by ZEFSAII (Michael W. Deem and Ramdas Pophale) SiO2 
 PCOD9282488
Probable space group: C 2/C
;
_chemical_formula_sum "Si O2"
_cell_formula_units_Z 60
_cell_length_a 21.600313
_cell_length_b 9.474142
_cell_length_c 14.507622
_cell_angle_alpha 90.000000
_cell_angle_beta 73.543080
_cell_angle_gamma 90.000000
_cell_volume 2847.277014
_symmetry_space_group_name_H-M "C 2/C"
_symmetry_group_IT_number 15
_symmetry_cell_setting 'monoclinic'
loop_
_space_group_symop_operation_xyz
x,y,z
-x,y,1/2-z
-x,-y,-z
x,-y,1/2+z
1/2+x,1/2+y,z
1/2-x,1/2+y,1/2-z
1/2-x,1/2-y,-z
1/2+x,1/2-y,1/2+z
loop_
_atom_site_type_symbol
_atom_site_label
_atom_site_fract_x
_atom_site_fract_y
_atom_site_fract_z
Si Si1 0.500000 0.469592 0.250000
Si Si2 0.938253 0.128778 0.121265
Si Si3 0.651734 0.831329 0.443836
Si Si4 0.774471 0.227895 0.349287
Si Si5 0.378715 0.386909 0.387312
Si Si6 0.279483 0.575904 0.777089
Si Si7 0.337917 0.126399 0.980816
Si Si8 0.413483 0.620316 0.501437
O O1 0.451170 0.575289 0.218624
O O2 0.455719 0.373712 0.335230
O O3 0.898565 0.267328 0.109956
O O4 0.010785 0.140120 0.050425
O O5 0.907085 0.992057 0.085421
O O6 0.652413 0.711246 0.521876
O O7 0.716476 0.872885 0.362005
O O8 0.636492 0.970767 0.510212
O O9 0.732265 0.346567 0.314530
O O10 0.732765 0.146583 0.444619
O O11 0.829859 0.316549 0.379611
O O12 0.787479 0.095473 0.274476
O O13 0.340148 0.369293 0.309747
O O14 0.377596 0.543226 0.431241
O O15 0.382445 0.228990 0.021913
#
# Coordination Sequence:
#
# PCOD9282488 Si02
#       8
#     4   8   8   8   8   8   8   8
#     4  10  22  38  66  92 122 156 224 260 302 362
#     4   9  20  36  59  91 112 155 207 254 293 363
#     4  10  23  39  60  91 130 159 204 248 315 375
#     4  10  24  38  58  92 125 163 209 250 312 367
#     4  10  21  39  62  93 117 165 207 260 299 361
#     4  11  23  38  61  92 125 165 205 258 307 370
#     4  10  21  41  60  87 127 165 198 253 313 376
#     4   9  18  37  62  80 116 157 206 242 302 364
#
# _framework density 21.072765
#
# number of rings (size 3 to 8) (size 9 to 14) (size 15 to 20)
#    0.000    2.133    1.333    1.200    5.600    1.600 
#    0.000    0.000    0.000    1.600    0.000    0.000 
#    0.000    0.000    0.000    0.000    0.000    0.000 
#
# Total GULP energy -167104.622887 kJ/mol
# GULP energy per Si atom -5570.154096 kJ/mol
# Density = 2.102480 g / cm^3
# Si number density = 21.072765 Si / 1000 Ang^3
#
#
#
# Elastic Constant Matrix: (Units=GPa)
#
#
# Indices 1 2 3 4 5 6 
#
# 1 86.1737 50.1897 18.7161 0.0000 16.3727 0.0000
# 2 50.1897 112.5556 22.9924 0.0000 12.4575 0.0000
# 3 18.7161 22.9924 55.9177 0.0000 21.4960 0.0000
# 4 0.0000 0.0000 0.0000 23.6627 0.0000 6.0655
# 5 16.3727 12.4575 21.4960 0.0000 36.0628 0.0000
# 6 0.0000 0.0000 0.0000 6.0655 0.0000 30.7961
#
#
#
# Elastic Compliance Matrix: (Units=1/GPa)
#
#
# Indices 1 2 3 4 5 6 
#
# 1 0.016595 -0.006678 -0.001037 0.000000 -0.004609 0.000000
# 2 -0.006678 0.012431 -0.003102 0.000000 0.000586 0.000000
# 3 -0.001037 -0.003102 0.024535 0.000000 -0.013083 0.000000
# 4 0.000000 0.000000 0.000000 0.044508 0.000000 -0.008766
# 5 -0.004609 0.000586 -0.013083 0.000000 0.037418 0.000000
# 6 0.000000 0.000000 0.000000 -0.008766 0.000000 0.034198
#
#
# Mechanical properties :
#
#
# Convention : Reuss Voigt Hill
#
# Bulk Modulus (GPa) = 31.32018 48.71592 40.01805
# Shear Modulus (GPa) = 24.75748 28.95424 26.85586
#
# Velocity S-wave (km/s) = 3.43134 3.71079 3.57380
# Velocity P-wave (km/s) = 5.53118 6.44423 6.00508
#
# Compressibility (1/GPa) = 0.03192830
#
# Stress axis : x y z
#
# Youngs Moduli (GPa) = 60.26013 80.44468 40.75807
#
# Poissons Ratio (x) = 0.53720 0.04225
# Poissons Ratio (y) = 0.40241 0.12642
# Poissons Ratio (z) = 0.06247 0.24952
#
# Static dielectric constant tensor:
#      x y z
#    x 1.787800 0.000000 -0.034050 
#    y 0.000000 1.742830 0.000000 
#    z -0.034050 0.000000 1.888220 
# 
# From -- ./inp_files/171858.got.cif
#   From: 2010.05.17/outbox.cif.g08.bks.cpg/sg15_86_cif.got.tgz:171858.got - 2010.06.03 18:47:42.
