data_PCOD9282029
_publ_section_title
;
Structure prediction by ZEFSAII (Michael W. Deem and Ramdas Pophale) SiO2 
 PCOD9282029
Probable space group: C 2/C
;
_chemical_formula_sum "Si O2"
_cell_formula_units_Z 36
_cell_length_a 19.479840
_cell_length_b 16.130665
_cell_length_c 12.227015
_cell_angle_alpha 90.000000
_cell_angle_beta 157.995035
_cell_angle_gamma 90.000000
_cell_volume 1439.549673
_symmetry_space_group_name_H-M "C 2/C"
_symmetry_group_IT_number 15
_symmetry_cell_setting 'monoclinic'
loop_
_space_group_symop_operation_xyz
x,y,z
-x,y,1/2-z
-x,-y,-z
x,-y,1/2+z
1/2+x,1/2+y,z
1/2-x,1/2+y,1/2-z
1/2-x,1/2-y,-z
1/2+x,1/2-y,1/2+z
loop_
_atom_site_type_symbol
_atom_site_label
_atom_site_fract_x
_atom_site_fract_y
_atom_site_fract_z
Si Si1 0.409031 0.669441 0.822314
Si Si2 0.159237 0.123277 0.565952
Si Si3 0.059045 0.575214 0.666584
Si Si4 0.500000 0.780331 0.750000
Si Si5 0.223159 0.044227 0.292446
O O1 0.425060 0.690494 0.975698
O O2 0.494499 0.722632 0.850279
O O3 0.185148 0.668720 0.492644
O O4 0.525871 0.585313 0.987370
O O5 0.334518 0.141899 0.749887
O O6 0.219377 0.043427 0.725666
O O7 0.000000 0.096697 0.250000
O O8 0.000000 0.500000 0.500000
O O9 0.871665 0.600732 0.447577
O O10 0.196046 0.543616 0.965116
#
# Coordination Sequence:
#
# PCOD9282029 Si02
#       5
#     8   8   8   4   8
#     4  11  24  46  70  96 136 180 246 289 346 410
#     4  11  22  38  68 108 143 176 218 287 362 417
#     4   9  20  36  60 103 145 179 212 262 353 439
#     4  10  28  48  70  96 126 198 250 288 334 410
#     4  10  21  38  68 104 145 178 216 287 361 420
#
# _framework density 25.007819999999999
#
# number of rings (size 3 to 8) (size 9 to 14) (size 15 to 20)
#    0.000    1.778    2.222    0.667    1.556    8.889 
#    0.000    1.111    4.889    0.000    0.000    0.000 
#    0.000    0.000    0.000    0.000    0.000    0.000 
#
# Total GULP energy -100205.582006 kJ/mol
# GULP energy per Si atom -5566.976778 kJ/mol
# Density = 2.495090 g / cm^3
# Si number density = 25.007820 Si / 1000 Ang^3
#
#
#
# Elastic Constant Matrix: (Units=GPa)
#
#
# Indices 1 2 3 4 5 6 
#
# 1 234.3330 42.3614 67.5620 0.0000 16.7890 0.0000
# 2 42.3614 62.4748 51.6774 0.0000 -10.7548 0.0000
# 3 67.5620 51.6774 112.7796 0.0000 3.7917 0.0000
# 4 0.0000 0.0000 0.0000 28.7062 0.0000 4.0760
# 5 16.7890 -10.7548 3.7917 0.0000 55.0921 0.0000
# 6 0.0000 0.0000 0.0000 4.0760 0.0000 -25.1710
#
#
#
# Elastic Compliance Matrix: (Units=1/GPa)
#
#
# Indices 1 2 3 4 5 6 
#
# 1 0.005434 -0.002222 -0.002172 0.000000 -0.001940 0.000000
# 2 -0.002222 0.028720 -0.012068 0.000000 0.007114 0.000000
# 3 -0.002172 -0.012068 0.015791 0.000000 -0.002781 0.000000
# 4 0.000000 0.000000 0.000000 0.034053 0.000000 0.005514
# 5 -0.001940 0.007114 -0.002781 0.000000 0.020323 0.000000
# 6 0.000000 0.000000 0.000000 0.005514 0.000000 -0.038835
#
#
# Mechanical properties :
#
#
# Convention : Reuss Voigt Hill
#
# Bulk Modulus (GPa) = 58.74959 81.42097 70.08528
# Shear Modulus (GPa) = 48.03783 28.25791 38.14787
#
# Velocity S-wave (km/s) = 4.38758 3.36514 3.90992
# Velocity P-wave (km/s) = 7.01507 6.90853 6.96200
#
# Compressibility (1/GPa) = 0.01702140
#
# Stress axis : x y z
#
# Youngs Moduli (GPa) = 184.01253 34.81864 63.32598
#
# Poissons Ratio (x) = 0.07737 0.13755
# Poissons Ratio (y) = 0.40891 0.76422
# Poissons Ratio (z) = 0.39969 0.42019
#
# Static dielectric constant tensor:
#      x y z
#    x 2.149830 0.000000 0.011080 
#    y 0.000000 1.971270 0.000000 
#    z 0.011080 0.000000 2.069120 
# 
# From -- ./inp_files/114439.got.cif
#   From: 2010.05.17/outbox.cif.g08.bks.cpg/sg15_58_cif.got.tgz:114439.got - 2010.06.03 18:47:42.
