data_PCOD9282295
_publ_section_title
;
Structure prediction by ZEFSAII (Michael W. Deem and Ramdas Pophale) SiO2 
 PCOD9282295
Probable space group: C 2/C
;
_chemical_formula_sum "Si O2"
_cell_formula_units_Z 60
_cell_length_a 6.482620
_cell_length_b 18.723628
_cell_length_c 28.443960
_cell_angle_alpha 90.000000
_cell_angle_beta 80.999974
_cell_angle_gamma 90.000000
_cell_volume 3409.969730
_symmetry_space_group_name_H-M "C 2/C"
_symmetry_group_IT_number 15
_symmetry_cell_setting 'monoclinic'
loop_
_space_group_symop_operation_xyz
x,y,z
-x,y,1/2-z
-x,-y,-z
x,-y,1/2+z
1/2+x,1/2+y,z
1/2-x,1/2+y,1/2-z
1/2-x,1/2-y,-z
1/2+x,1/2-y,1/2+z
loop_
_atom_site_type_symbol
_atom_site_label
_atom_site_fract_x
_atom_site_fract_y
_atom_site_fract_z
Si Si1 0.735183 0.829814 0.428190
Si Si2 0.390042 0.710330 0.456950
Si Si3 0.529421 0.419157 0.481525
Si Si4 0.905075 0.648028 0.205638
Si Si5 0.000000 0.059970 0.250000
Si Si6 0.628229 0.898062 0.114826
Si Si7 0.347343 0.257177 0.124923
Si Si8 0.150462 0.494570 0.700377
O O1 0.591088 0.762170 0.447165
O O2 0.826400 0.880998 0.465647
O O3 0.596184 0.880214 0.399615
O O4 0.935674 0.792857 0.398033
O O5 0.250000 0.750000 0.500000
O O6 0.422710 0.631409 0.475615
O O7 0.263560 0.713417 0.412996
O O8 0.500000 0.500000 0.500000
O O9 0.711529 0.413410 0.434668
O O10 0.683591 0.609482 0.222791
O O11 0.881991 0.706350 0.167126
O O12 0.000000 0.680388 0.250000
O O13 0.065966 0.583809 0.188886
O O14 0.881427 0.013736 0.214410
O O15 0.698517 0.824880 0.137496
O O16 0.635009 0.957145 0.154989
O O17 0.000000 0.516577 0.750000
#
# Coordination Sequence:
#
# PCOD9282295 Si02
#       8
#     8   8   8   8   4   8   8   8
#     4  10  21  39  61  75 122 161 188 247 293 342
#     4  11  20  40  60  82 115 159 203 230 291 364
#     4  11  24  37  57  91 117 154 201 248 293 342
#     4   9  20  38  58  89 113 146 196 240 292 356
#     4   8  18  38  64  74 118 150 178 244 302 342
#     4  10  22  39  53  86 122 149 201 241 289 361
#     4  10  22  36  59  87 113 155 201 237 294 352
#     4   9  20  38  59  84 113 156 194 234 302 360
#
# _framework density 17.595462999999999
#
# number of rings (size 3 to 8) (size 9 to 14) (size 15 to 20)
#    0.000    2.400    4.000    0.400    0.000   12.267 
#    4.800    0.000    0.000    0.000    0.000    0.000 
#    0.000    0.000    0.000    0.000    0.000    0.000 
#
# Total GULP energy -167109.316335 kJ/mol
# GULP energy per Si atom -5570.310544 kJ/mol
# Density = 1.755542 g / cm^3
# Si number density = 17.595463 Si / 1000 Ang^3
#
#
#
# Elastic Constant Matrix: (Units=GPa)
#
#
# Indices 1 2 3 4 5 6 
#
# 1 106.4175 43.0356 46.9085 0.0000 29.1393 0.0000
# 2 43.0356 128.4737 87.2464 0.0000 31.6789 0.0000
# 3 46.9085 87.2464 118.1793 0.0000 33.4652 0.0000
# 4 0.0000 0.0000 0.0000 54.9254 0.0000 11.7366
# 5 29.1393 31.6789 33.4652 0.0000 20.0702 0.0000
# 6 0.0000 0.0000 0.0000 11.7366 0.0000 9.1027
#
#
#
# Elastic Compliance Matrix: (Units=1/GPa)
#
#
# Indices 1 2 3 4 5 6 
#
# 1 0.015626 0.000534 0.000126 0.000000 -0.023739 0.000000
# 2 0.000534 0.016832 -0.009275 0.000000 -0.011878 0.000000
# 3 0.000126 -0.009275 0.021153 0.000000 -0.020814 0.000000
# 4 0.000000 0.000000 0.000000 0.025130 0.000000 -0.032402
# 5 -0.023739 -0.011878 -0.020814 0.000000 0.137746 0.000000
# 6 0.000000 0.000000 0.000000 -0.032402 0.000000 0.151636
#
#
# Mechanical properties :
#
#
# Convention : Reuss Voigt Hill
#
# Bulk Modulus (GPa) = 27.48695 78.60571 53.04633
# Shear Modulus (GPa) = 12.57923 28.54496 20.56210
#
# Velocity S-wave (km/s) = 2.67669 4.03214 3.42219
# Velocity P-wave (km/s) = 5.02080 8.15159 6.76967
#
# Compressibility (1/GPa) = 0.03638090
#
# Stress axis : x y z
#
# Youngs Moduli (GPa) = 63.99636 59.40930 47.27506
#
# Poissons Ratio (x) = -0.03171 -0.00595
# Poissons Ratio (y) = -0.03416 0.43847
# Poissons Ratio (z) = -0.00806 0.55101
#
# Static dielectric constant tensor:
#      x y z
#    x 1.666260 0.000000 -0.006520 
#    y 0.000000 1.582010 0.000000 
#    z -0.006520 0.000000 1.594700 
# 
# From -- ./inp_files/305671.got.cif
#   From: 2010.05.17/outbox.cif.g08.bks.cpg/sg15_153_cif.got.tgz:305671.got - 2010.06.03 18:47:42.
