data_PCOD9282527
_publ_section_title
;
Structure prediction by ZEFSAII (Michael W. Deem and Ramdas Pophale) SiO2 
 PCOD9282527
Probable space group: C 2/C
;
_chemical_formula_sum "Si O2"
_cell_formula_units_Z 56
_cell_length_a 7.782994
_cell_length_b 13.071310
_cell_length_c 24.525211
_cell_angle_alpha 90.000000
_cell_angle_beta 113.953741
_cell_angle_gamma 90.000000
_cell_volume 2280.156570
_symmetry_space_group_name_H-M "C 2/C"
_symmetry_group_IT_number 15
_symmetry_cell_setting 'monoclinic'
loop_
_space_group_symop_operation_xyz
x,y,z
-x,y,1/2-z
-x,-y,-z
x,-y,1/2+z
1/2+x,1/2+y,z
1/2-x,1/2+y,1/2-z
1/2-x,1/2-y,-z
1/2+x,1/2-y,1/2+z
loop_
_atom_site_type_symbol
_atom_site_label
_atom_site_fract_x
_atom_site_fract_y
_atom_site_fract_z
Si Si1 0.372579 0.863065 0.288742
Si Si2 0.280355 0.031163 0.633063
Si Si3 0.500000 0.000000 0.500000
Si Si4 0.500000 0.500032 0.250000
Si Si5 0.480555 0.295118 0.415437
Si Si6 0.207932 0.828742 0.945620
Si Si7 0.622926 0.638718 0.171583
Si Si8 0.253897 0.370334 0.961384
O O1 0.500000 0.866582 0.250000
O O2 0.323769 0.746308 0.295684
O O3 0.524721 0.909986 0.350432
O O4 0.185800 0.930696 0.267740
O O5 0.289764 0.939350 0.677769
O O6 0.236960 0.973132 0.571803
O O7 0.112056 0.108817 0.627131
O O8 0.702398 0.938577 0.531449
O O9 0.393720 0.897533 0.509324
O O10 0.494194 0.574920 0.197045
O O11 0.305256 0.222244 0.405142
O O12 0.561372 0.337892 0.482988
O O13 0.649183 0.223303 0.416010
O O14 0.993525 0.841072 0.898956
O O15 0.250000 0.750000 0.000000
#
# Coordination Sequence:
#
# PCOD9282527 Si02
#       8
#     8   8   4   4   8   8   8   8
#     4  12  28  53  77 109 144 189 259 323 383 464
#     4  12  24  44  75 104 141 195 243 310 382 438
#     4  10  22  36  60  98 150 194 246 292 356 440
#     4  12  30  50  80 106 144 198 252 320 402 446
#     4  10  21  39  62  98 149 192 234 296 350 442
#     4  11  22  38  66 103 145 191 236 298 365 441
#     4  12  27  48  78 108 148 195 251 318 380 458
#     4  10  22  39  63 103 149 197 248 294 361 449
#
# _framework density 24.559716999999999
#
# number of rings (size 3 to 8) (size 9 to 14) (size 15 to 20)
#    0.000    0.857    3.571    3.000    4.000    2.286 
#    0.000    0.000    0.000    0.000    0.000    0.000 
#    0.000    0.000    0.000    0.000    0.000    0.000 
#
# Total GULP energy -156019.421790 kJ/mol
# GULP energy per Si atom -5572.122207 kJ/mol
# Density = 2.450382 g / cm^3
# Si number density = 24.559717 Si / 1000 Ang^3
#
#
#
# Elastic Constant Matrix: (Units=GPa)
#
#
# Indices 1 2 3 4 5 6 
#
# 1 76.9166 39.4181 18.5212 0.0000 21.8655 0.0000
# 2 39.4181 162.1447 36.5198 0.0000 12.0136 0.0000
# 3 18.5212 36.5198 43.6508 0.0000 7.5793 0.0000
# 4 0.0000 0.0000 0.0000 42.7927 0.0000 4.2773
# 5 21.8655 12.0136 7.5793 0.0000 31.6004 0.0000
# 6 0.0000 0.0000 0.0000 4.2773 0.0000 49.7450
#
#
#
# Elastic Compliance Matrix: (Units=1/GPa)
#
#
# Indices 1 2 3 4 5 6 
#
# 1 0.018391 -0.002878 -0.003522 0.000000 -0.010786 0.000000
# 2 -0.002878 0.008112 -0.005609 0.000000 0.000253 0.000000
# 3 -0.003522 -0.005609 0.029533 0.000000 -0.002514 0.000000
# 4 0.000000 0.000000 0.000000 0.023571 0.000000 -0.002027
# 5 -0.010786 0.000253 -0.002514 0.000000 0.039615 0.000000
# 6 0.000000 0.000000 0.000000 -0.002027 0.000000 0.020277
#
#
# Mechanical properties :
#
#
# Convention : Reuss Voigt Hill
#
# Bulk Modulus (GPa) = 31.23476 52.40335 41.81905
# Shear Modulus (GPa) = 28.70437 37.37780 33.04109
#
# Velocity S-wave (km/s) = 3.42242 3.90541 3.67186
# Velocity P-wave (km/s) = 5.32567 6.45908 5.91956
#
# Compressibility (1/GPa) = 0.03201562
#
# Stress axis : x y z
#
# Youngs Moduli (GPa) = 54.37575 123.27923 33.86052
#
# Poissons Ratio (x) = 0.35484 0.11926
# Poissons Ratio (y) = 0.15651 0.18993
# Poissons Ratio (z) = 0.19152 0.69149
#
# Static dielectric constant tensor:
#      x y z
#    x 2.058580 0.000000 -0.091690 
#    y 0.000000 1.926400 0.000000 
#    z -0.091690 0.000000 2.073900 
# 
# From -- ./inp_files/307580.got.cif
#   From: 2010.05.17/outbox.cif.g08.bks.cpg/sg15_154_cif.got.tgz:307580.got - 2010.06.03 18:47:42.
