data_PCOD9282700
_publ_section_title
;
Structure prediction by ZEFSAII (Michael W. Deem and Ramdas Pophale) SiO2 
 PCOD9282700
Probable space group: C 2/C
;
_chemical_formula_sum "Si O2"
_cell_formula_units_Z 48
_cell_length_a 29.999957
_cell_length_b 13.540453
_cell_length_c 9.139514
_cell_angle_alpha 90.000000
_cell_angle_beta 145.221080
_cell_angle_gamma 90.000000
_cell_volume 2117.703416
_symmetry_space_group_name_H-M "C 2/C"
_symmetry_group_IT_number 15
_symmetry_cell_setting 'monoclinic'
loop_
_space_group_symop_operation_xyz
x,y,z
-x,y,1/2-z
-x,-y,-z
x,-y,1/2+z
1/2+x,1/2+y,z
1/2-x,1/2+y,1/2-z
1/2-x,1/2-y,-z
1/2+x,1/2-y,1/2+z
loop_
_atom_site_type_symbol
_atom_site_label
_atom_site_fract_x
_atom_site_fract_y
_atom_site_fract_z
Si Si1 0.326931 0.800337 0.064494
Si Si2 0.552028 0.941384 0.256298
Si Si3 0.694094 0.635780 0.981060
Si Si4 0.703995 0.941278 0.251842
Si Si5 0.444575 0.548213 0.730067
Si Si6 0.324078 0.373687 0.376602
O O1 0.401453 0.858602 0.205953
O O2 0.302128 0.850991 0.149978
O O3 0.255787 0.819720 0.759978
O O4 0.346451 0.686286 0.084585
O O5 0.500000 0.903287 0.250000
O O6 0.619211 0.011328 0.505850
O O7 0.500000 0.000000 0.000000
O O8 0.732922 0.528335 0.043000
O O9 0.613150 0.625091 0.848910
O O10 0.677636 0.685001 0.780264
O O11 0.736604 0.908020 0.182054
O O12 0.500000 0.585121 0.750000
O O13 0.385369 0.461692 0.518429
O O14 0.500000 0.500000 0.000000
#
# Coordination Sequence:
#
# PCOD9282700 Si02
#       6
#     8   8   8   8   8   8
#     4  11  23  39  61  91 121 156 202 259 305 354
#     4  11  22  40  65  87 120 161 205 245 301 372
#     4  10  21  39  64  89 119 164 209 242 303 372
#     4  10  21  39  64  87 120 164 209 242 300 371
#     4  11  22  40  65  87 121 163 207 247 303 372
#     4  11  23  39  61  90 123 157 201 260 303 355
#
# _framework density 22.666063000000001
#
# number of rings (size 3 to 8) (size 9 to 14) (size 15 to 20)
#    0.000    1.333    3.333    4.000    4.667    0.667 
#    0.000    0.000    0.000    0.000    0.000    0.000 
#    0.000    0.000    0.000    0.000    0.000    0.000 
#
# Total GULP energy -134034.912861 kJ/mol
# GULP energy per Si atom -5584.788036 kJ/mol
# Density = 2.261447 g / cm^3
# Si number density = 22.666063 Si / 1000 Ang^3
#
#
#
# Elastic Constant Matrix: (Units=GPa)
#
#
# Indices 1 2 3 4 5 6 
#
# 1 202.3714 12.7392 28.8557 0.0000 15.2937 0.0000
# 2 12.7392 29.4785 -15.7721 0.0000 6.6522 0.0000
# 3 28.8557 -15.7721 74.9077 0.0000 16.8699 0.0000
# 4 0.0000 0.0000 0.0000 9.1457 0.0000 -3.5691
# 5 15.2937 6.6522 16.8699 0.0000 36.4363 0.0000
# 6 0.0000 0.0000 0.0000 -3.5691 0.0000 32.1833
#
#
#
# Elastic Compliance Matrix: (Units=1/GPa)
#
#
# Indices 1 2 3 4 5 6 
#
# 1 0.005629 -0.003937 -0.002933 0.000000 -0.000286 0.000000
# 2 -0.003937 0.046295 0.014285 0.000000 -0.013413 0.000000
# 3 -0.002933 0.014285 0.019869 0.000000 -0.010576 0.000000
# 4 0.000000 0.000000 0.000000 0.114288 0.000000 0.012674
# 5 -0.000286 -0.013413 -0.010576 0.000000 0.034911 0.000000
# 6 0.000000 0.000000 0.000000 0.012674 0.000000 0.032478
#
#
# Mechanical properties :
#
#
# Convention : Reuss Voigt Hill
#
# Bulk Modulus (GPa) = 11.54441 39.82256 25.68349
# Shear Modulus (GPa) = 18.69061 34.28203 26.48632
#
# Velocity S-wave (km/s) = 2.87471 3.89328 3.42211
# Velocity P-wave (km/s) = 4.01534 6.14960 5.19329
#
# Compressibility (1/GPa) = 0.08662201
#
# Stress axis : x y z
#
# Youngs Moduli (GPa) = 177.64847 21.60082 50.32894
#
# Poissons Ratio (x) = 0.08505 0.14762
# Poissons Ratio (y) = 0.69948 -0.71895
# Poissons Ratio (z) = 0.52106 -0.30857
#
# Static dielectric constant tensor:
#      x y z
#    x 1.857870 0.000000 -0.040190 
#    y 0.000000 2.040940 0.000000 
#    z -0.040190 0.000000 1.826890 
# 
# From -- ./inp_files/66384.got.cif
#   From: 2010.05.17/outbox.cif.g08.bks.cpg/sg15_34_cif.got.tgz:66384.got - 2010.06.03 18:47:42.
