data_PCOD9282172
_publ_section_title
;
Structure prediction by ZEFSAII (Michael W. Deem and Ramdas Pophale) SiO2 
 PCOD9282172
Probable space group: C 2/C
;
_chemical_formula_sum "Si O2"
_cell_formula_units_Z 60
_cell_length_a 20.138407
_cell_length_b 18.425065
_cell_length_c 14.118085
_cell_angle_alpha 90.000000
_cell_angle_beta 27.752710
_cell_angle_gamma 90.000000
_cell_volume 2439.357712
_symmetry_space_group_name_H-M "C 2/C"
_symmetry_group_IT_number 15
_symmetry_cell_setting 'monoclinic'
loop_
_space_group_symop_operation_xyz
x,y,z
-x,y,1/2-z
-x,-y,-z
x,-y,1/2+z
1/2+x,1/2+y,z
1/2-x,1/2+y,1/2-z
1/2-x,1/2-y,-z
1/2+x,1/2-y,1/2+z
loop_
_atom_site_type_symbol
_atom_site_label
_atom_site_fract_x
_atom_site_fract_y
_atom_site_fract_z
Si Si1 0.560922 0.421204 0.525953
Si Si2 0.378486 0.913748 0.656889
Si Si3 0.712690 0.756836 0.733071
Si Si4 0.500000 0.455204 0.250000
Si Si5 0.438790 0.012247 0.419443
Si Si6 0.948572 0.779656 0.709439
Si Si7 0.164652 0.329039 0.269261
Si Si8 0.814058 0.112120 0.829927
O O1 0.553559 0.492687 0.597804
O O2 0.430723 0.365729 0.713721
O O3 0.699530 0.379363 0.390703
O O4 0.585500 0.419852 0.382199
O O5 0.282534 0.842298 0.791381
O O6 0.427890 0.957368 0.687552
O O7 0.530829 0.880781 0.432664
O O8 0.342828 0.966158 0.614131
O O9 0.843048 0.723833 0.629278
O O10 0.693189 0.699042 0.673784
O O11 0.578436 0.743520 0.973782
O O12 0.620250 0.409946 0.152981
O O13 0.500000 0.971524 0.250000
O O14 0.338583 0.076084 0.503685
O O15 0.828388 0.724794 0.826817
O O16 0.000000 0.767323 0.750000
#
# Coordination Sequence:
#
# PCOD9282172 Si02
#       8
#     8   8   8   4   8   8   8   8
#     4  10  21  39  58  91 131 170 221 275 329 400
#     4  10  21  42  68  95 132 171 217 276 342 386
#     4   9  20  39  63  88 125 176 211 271 330 384
#     4  12  24  38  66  94 128 184 222 272 334 402
#     4  11  24  42  70 103 133 174 222 278 336 401
#     4   9  17  32  53  89 121 164 212 265 327 385
#     4   9  18  36  61  84 135 168 211 273 323 399
#     4  10  23  45  64  92 140 174 227 278 324 401
#
# _framework density 24.596639
#
# number of rings (size 3 to 8) (size 9 to 14) (size 15 to 20)
#    0.000    2.400    3.333    0.400    1.867    5.333 
#    1.200    6.000    0.000    0.000    0.000    0.000 
#    0.000    0.000    0.000    0.000    0.000    0.000 
#
# Total GULP energy -167540.257272 kJ/mol
# GULP energy per Si atom -5584.675242 kJ/mol
# Density = 2.454066 g / cm^3
# Si number density = 24.596639 Si / 1000 Ang^3
#
#
#
# Elastic Constant Matrix: (Units=GPa)
#
#
# Indices 1 2 3 4 5 6 
#
# 1 124.5215 67.7137 25.1930 -0.0010 28.0893 -0.0015
# 2 67.7137 110.2169 28.2465 -0.0004 26.0900 0.0007
# 3 25.1930 28.2465 56.1010 -0.0010 21.9341 -0.0013
# 4 -0.0010 -0.0004 -0.0010 32.1779 0.0009 35.8025
# 5 28.0893 26.0900 21.9341 0.0009 33.3804 0.0014
# 6 -0.0015 0.0007 -0.0013 35.8025 0.0014 126.8318
#
#
#
# Elastic Compliance Matrix: (Units=1/GPa)
#
#
# Indices 1 2 3 4 5 6 
#
# 1 0.012896 -0.006527 -0.000345 0.000000 -0.005523 0.000000
# 2 -0.006527 0.014815 -0.002891 0.000000 -0.004187 0.000000
# 3 -0.000345 -0.002891 0.024813 0.000001 -0.013754 0.000000
# 4 0.000000 0.000000 0.000001 0.045307 -0.000002 -0.012790
# 5 -0.005523 -0.004187 -0.013754 -0.000002 0.046916 0.000000
# 6 0.000000 0.000000 0.000000 -0.012790 0.000000 0.011495
#
#
# Mechanical properties :
#
#
# Convention : Reuss Voigt Hill
#
# Bulk Modulus (GPa) = 30.30510 59.23842 44.77176
# Shear Modulus (GPa) = 26.77110 49.79044 38.28077
#
# Velocity S-wave (km/s) = 3.30268 4.50408 3.94933
# Velocity P-wave (km/s) = 5.18567 7.15438 6.24805
#
# Compressibility (1/GPa) = 0.03299774
#
# Stress axis : x y z
#
# Youngs Moduli (GPa) = 77.54478 67.49913 40.30075
#
# Poissons Ratio (x) = 0.44055 0.01392
# Poissons Ratio (y) = 0.50612 0.11652
# Poissons Ratio (z) = 0.02678 0.19515
#
# Static dielectric constant tensor:
#      x y z
#    x 1.988410 0.000000 -0.042220 
#    y 0.000000 2.020020 0.000000 
#    z -0.042220 0.000000 2.049650 
# 
# From -- ./inp_files/107628.got.cif
#   From: 2010.05.17/outbox.cif.g08.bks.cpg/sg15_54_cif.got.tgz:107628.got - 2010.06.03 18:47:42.
