data_PCOD9282086
_publ_section_title
;
Structure prediction by ZEFSAII (Michael W. Deem and Ramdas Pophale) SiO2 
 PCOD9282086
Probable space group: C 2/C
;
_chemical_formula_sum "Si O2"
_cell_formula_units_Z 64
_cell_length_a 8.278917
_cell_length_b 24.103063
_cell_length_c 28.079621
_cell_angle_alpha 90.000000
_cell_angle_beta 148.195563
_cell_angle_gamma 90.000000
_cell_volume 2953.013480
_symmetry_space_group_name_H-M "C 2/C"
_symmetry_group_IT_number 15
_symmetry_cell_setting 'monoclinic'
loop_
_space_group_symop_operation_xyz
x,y,z
-x,y,1/2-z
-x,-y,-z
x,-y,1/2+z
1/2+x,1/2+y,z
1/2-x,1/2+y,1/2-z
1/2-x,1/2-y,-z
1/2+x,1/2-y,1/2+z
loop_
_atom_site_type_symbol
_atom_site_label
_atom_site_fract_x
_atom_site_fract_y
_atom_site_fract_z
Si Si1 0.184849 0.736700 0.538522
Si Si2 0.162883 0.954135 0.572573
Si Si3 0.643959 0.655950 0.390477
Si Si4 0.350470 0.862565 0.321218
Si Si5 0.425078 0.656959 0.019135
Si Si6 0.822525 0.969154 0.586811
Si Si7 0.804960 0.251335 0.751403
Si Si8 0.762718 0.019701 0.734374
O O1 0.250000 0.750000 0.500000
O O2 0.471197 0.741239 0.647121
O O3 0.981415 0.681304 0.484143
O O4 0.967881 0.784170 0.505912
O O5 0.128369 0.891176 0.546065
O O6 0.973862 0.956513 0.574125
O O7 0.509804 0.972301 0.666466
O O8 0.000000 0.000000 0.500000
O O9 0.492622 0.660160 0.405117
O O10 0.679311 0.590895 0.387155
O O11 0.425703 0.695833 0.303916
O O12 0.575818 0.860978 0.422587
O O13 0.387462 0.805776 0.301640
O O14 0.400311 0.920403 0.307028
O O15 0.000000 0.863330 0.250000
O O16 0.500000 0.000000 0.500000
O O17 0.043339 0.010303 0.670141
O O18 0.000000 0.255607 0.750000
O O19 0.000000 0.017085 0.750000
#
# Coordination Sequence:
#
# PCOD9282086 Si02
#       8
#     8   8   8   8   8   8   8   8
#     4  12  27  43  66 102 143 171 223 293 362 403
#     4  11  23  43  70  98 136 181 232 286 347 410
#     4  11  24  45  71  97 132 185 238 279 339 430
#     4  10  21  38  70  99 128 172 231 281 336 415
#     4  11  22  44  72  98 132 183 236 279 341 432
#     4  11  27  43  68 101 140 183 242 289 344 415
#     4  11  22  42  73  99 128 179 231 282 338 418
#     4  11  24  43  66 100 138 180 229 284 346 416
#
# _framework density 21.672777
#
# number of rings (size 3 to 8) (size 9 to 14) (size 15 to 20)
#    0.000    1.000    3.750    3.000    8.750    2.500 
#    0.000    0.000    0.000    0.000    0.000    0.000 
#    0.000    0.000    0.000    0.000    0.000    0.000 
#
# Total GULP energy -178648.389210 kJ/mol
# GULP energy per Si atom -5582.762163 kJ/mol
# Density = 2.162345 g / cm^3
# Si number density = 21.672777 Si / 1000 Ang^3
#
#
#
# Elastic Constant Matrix: (Units=GPa)
#
#
# Indices 1 2 3 4 5 6 
#
# 1 35.0805 2.2488 -0.1005 0.0040 -7.3192 -0.0015
# 2 2.2488 73.9617 10.2507 0.0048 10.3278 0.0035
# 3 -0.1005 10.2507 132.2595 0.0060 0.5605 0.0047
# 4 0.0040 0.0048 0.0060 42.0379 0.0049 6.1768
# 5 -7.3192 10.3278 0.5605 0.0049 31.3706 0.0011
# 6 -0.0015 0.0035 0.0047 6.1768 0.0011 32.4624
#
#
#
# Elastic Compliance Matrix: (Units=1/GPa)
#
#
# Indices 1 2 3 4 5 6 
#
# 1 0.030246 -0.002018 0.000147 -0.000004 0.007718 0.000002
# 2 -0.002018 0.014462 -0.001100 -0.000001 -0.005212 -0.000001
# 3 0.000147 -0.001100 0.007645 -0.000001 0.000260 -0.000001
# 4 -0.000004 -0.000001 -0.000001 0.024472 -0.000004 -0.004656
# 5 0.007718 -0.005212 0.000260 -0.000004 0.035389 0.000001
# 6 0.000002 -0.000001 -0.000001 -0.004656 0.000001 0.031691
#
#
# Mechanical properties :
#
#
# Convention : Reuss Voigt Hill
#
# Bulk Modulus (GPa) = 21.54681 29.56663 25.55672
# Shear Modulus (GPa) = 30.24462 36.43436 33.33949
#
# Velocity S-wave (km/s) = 3.73971 4.10458 3.92639
# Velocity P-wave (km/s) = 5.34890 6.01127 5.68973
#
# Compressibility (1/GPa) = 0.04641059
#
# Stress axis : x y z
#
# Youngs Moduli (GPa) = 33.06224 69.14578 130.80132
#
# Poissons Ratio (x) = 0.13952 -0.01918
# Poissons Ratio (y) = 0.06671 0.14393
# Poissons Ratio (z) = -0.00485 0.07608
#
# Static dielectric constant tensor:
#      x y z
#    x 1.834610 0.000000 -0.021370 
#    y 0.000000 1.833660 -0.000010 
#    z -0.021370 -0.000010 1.825950 
# 
# From -- ./inp_files/309124.got.cif
#   From: 2010.05.17/outbox.cif.g08.bks.cpg/sg15_155_cif.got.tgz:309124.got - 2010.06.03 18:47:42.
