data_PCOD9282551
_publ_section_title
;
Structure prediction by ZEFSAII (Michael W. Deem and Ramdas Pophale) SiO2 
 PCOD9282551
Probable space group: C 2/C
;
_chemical_formula_sum "Si O2"
_cell_formula_units_Z 64
_cell_length_a 10.966218
_cell_length_b 13.610691
_cell_length_c 33.213109
_cell_angle_alpha 90.000000
_cell_angle_beta 40.941937
_cell_angle_gamma 90.000000
_cell_volume 3248.498646
_symmetry_space_group_name_H-M "C 2/C"
_symmetry_group_IT_number 15
_symmetry_cell_setting 'monoclinic'
loop_
_space_group_symop_operation_xyz
x,y,z
-x,y,1/2-z
-x,-y,-z
x,-y,1/2+z
1/2+x,1/2+y,z
1/2-x,1/2+y,1/2-z
1/2-x,1/2-y,-z
1/2+x,1/2-y,1/2+z
loop_
_atom_site_type_symbol
_atom_site_label
_atom_site_fract_x
_atom_site_fract_y
_atom_site_fract_z
Si Si1 0.017680 0.646954 0.096496
Si Si2 0.877396 0.810319 0.315375
Si Si3 0.164758 0.456005 0.485721
Si Si4 0.244930 0.857914 0.481687
Si Si5 0.373785 0.018257 0.816602
Si Si6 0.455087 0.357975 0.142229
Si Si7 0.425827 0.936042 0.154004
Si Si8 0.325295 0.648878 0.082347
O O1 0.925342 0.749243 0.131019
O O2 0.927795 0.550077 0.139152
O O3 0.216048 0.656792 0.068368
O O4 0.060021 0.622782 0.040058
O O5 0.012910 0.848598 0.317425
O O6 0.759597 0.889830 0.319251
O O7 0.729755 0.741772 0.375961
O O8 0.000000 0.758984 0.250000
O O9 0.232250 0.551336 0.493505
O O10 0.347576 0.406229 0.421016
O O11 0.000000 0.500000 0.500000
O O12 0.250000 0.750000 0.500000
O O13 0.404454 0.877702 0.409588
O O14 0.036643 0.864813 0.518082
O O15 0.500000 0.972814 0.750000
O O16 0.517924 0.067346 0.812871
O O17 0.219236 0.082309 0.831774
O O18 0.257390 0.942097 0.872299
#
# Coordination Sequence:
#
# PCOD9282551 Si02
#       8
#     8   8   8   8   8   8   8   8
#     4   9  22  37  58  83 121 154 192 238 302 361
#     4  11  22  41  63  85 117 165 208 242 294 367
#     4  11  23  37  58  89 125 155 189 244 306 369
#     4  11  21  37  62  91 120 146 198 250 302 356
#     4  11  23  40  59  89 123 154 200 252 293 350
#     4  11  22  39  60  87 119 159 202 241 303 353
#     4  10  22  39  61  87 119 158 196 246 301 355
#     4  10  21  39  63  88 114 157 201 248 301 357
#
# _framework density 19.701409000000002
#
# number of rings (size 3 to 8) (size 9 to 14) (size 15 to 20)
#    0.000    1.500    2.500    3.000    3.500    2.500 
#    0.000    0.625    0.000    0.000    0.000    0.000 
#    0.000    0.000    0.000    0.000    0.000    0.000 
#
# Total GULP energy -178356.216520 kJ/mol
# GULP energy per Si atom -5573.631766 kJ/mol
# Density = 1.965657 g / cm^3
# Si number density = 19.701409 Si / 1000 Ang^3
#
#
#
# Elastic Constant Matrix: (Units=GPa)
#
#
# Indices 1 2 3 4 5 6 
#
# 1 76.8706 25.0227 13.0585 0.0000 11.3791 0.0000
# 2 25.0227 68.7445 9.5977 0.0000 -1.1577 0.0000
# 3 13.0585 9.5977 62.3105 0.0004 17.0646 0.0000
# 4 0.0000 0.0000 0.0004 -1.1758 -0.0003 -1.2927
# 5 11.3791 -1.1577 17.0646 -0.0003 33.4841 0.0001
# 6 0.0000 0.0000 0.0000 -1.2927 0.0001 27.9066
#
#
#
# Elastic Compliance Matrix: (Units=1/GPa)
#
#
# Indices 1 2 3 4 5 6 
#
# 1 0.015781 -0.005681 -0.001057 0.000001 -0.005021 0.000000
# 2 -0.005681 0.017022 -0.002465 -0.000001 0.003776 0.000000
# 3 -0.001057 -0.002465 0.019264 0.000007 -0.009543 0.000000
# 4 0.000001 -0.000001 0.000007 -0.809254 -0.000010 -0.037487
# 5 -0.005021 0.003776 -0.009543 -0.000010 0.036565 -0.000001
# 6 0.000000 0.000000 0.000000 -0.037487 -0.000001 0.034097
#
#
# Mechanical properties :
#
#
# Convention : Reuss Voigt Hill
#
# Bulk Modulus (GPa) = 29.70943 33.69818 31.70381
# Shear Modulus (GPa) = -7.61154 22.72608 7.55727
#
# Velocity S-wave (km/s) = -1.96770 3.40004 1.96067
# Velocity P-wave (km/s) = 3.15438 5.70573 4.61007
#
# Compressibility (1/GPa) = 0.03365934
#
# Stress axis : x y z
#
# Youngs Moduli (GPa) = 63.36750 58.74643 51.91155
#
# Poissons Ratio (x) = 0.33375 0.05488
# Poissons Ratio (y) = 0.36000 0.12798
# Poissons Ratio (z) = 0.06699 0.14483
#
# Static dielectric constant tensor:
#      x y z
#    x 1.708600 0.000000 0.009450 
#    y 0.000000 1.738860 0.000000 
#    z 0.009450 0.000000 1.684950 
# 
# From -- ./inp_files/308234.got.cif
#   From: 2010.05.17/outbox.cif.g08.bks.cpg/sg15_155_cif.got.tgz:308234.got - 2010.06.03 18:47:42.
