data_PCOD9282391
_publ_section_title
;
Structure prediction by ZEFSAII (Michael W. Deem and Ramdas Pophale) SiO2 
 PCOD9282391
Probable space group: C 2/C
;
_chemical_formula_sum "Si O2"
_cell_formula_units_Z 64
_cell_length_a 5.475340
_cell_length_b 23.919462
_cell_length_c 23.488191
_cell_angle_alpha 90.000000
_cell_angle_beta 77.000151
_cell_angle_gamma 90.000000
_cell_volume 2997.341775
_symmetry_space_group_name_H-M "C 2/C"
_symmetry_group_IT_number 15
_symmetry_cell_setting 'monoclinic'
loop_
_space_group_symop_operation_xyz
x,y,z
-x,y,1/2-z
-x,-y,-z
x,-y,1/2+z
1/2+x,1/2+y,z
1/2-x,1/2+y,1/2-z
1/2-x,1/2-y,-z
1/2+x,1/2-y,1/2+z
loop_
_atom_site_type_symbol
_atom_site_label
_atom_site_fract_x
_atom_site_fract_y
_atom_site_fract_z
Si Si1 0.819532 0.951408 0.860381
Si Si2 0.785208 0.815848 0.994607
Si Si3 0.776488 0.227654 0.714451
Si Si4 0.473016 0.083821 0.484541
Si Si5 0.393338 0.851683 0.692439
Si Si6 0.620108 0.362922 0.386314
Si Si7 0.885780 0.432217 0.113210
Si Si8 0.157781 0.885171 0.906750
O O1 0.674028 0.934988 0.926917
O O2 0.765764 0.905739 0.815397
O O3 0.096932 0.935723 0.866385
O O4 0.721618 0.012434 0.850972
O O5 0.887855 0.838102 0.049571
O O6 0.750000 0.750000 0.000000
O O7 0.533037 0.851635 0.997552
O O8 0.960038 0.837333 0.933857
O O9 0.500000 0.210823 0.750000
O O10 0.757370 0.292302 0.696252
O O11 0.846565 0.187482 0.659234
O O12 0.000000 0.224493 0.750000
O O13 0.474007 0.052446 0.544068
O O14 0.218382 0.083918 0.462768
O O15 0.500000 0.856573 0.750000
O O16 0.611821 0.853223 0.633864
O O17 0.361145 0.394064 0.383968
O O18 0.871525 0.402346 0.371860
#
# Coordination Sequence:
#
# PCOD9282391 Si02
#       8
#     8   8   8   8   8   8   8   8
#     4  10  23  38  66  93 132 176 225 277 332 393
#     4  10  22  36  59  96 139 175 211 274 340 398
#     4  11  26  48  74  96 130 179 228 283 337 406
#     4   9  20  38  55  98 129 181 219 261 324 411
#     4  10  25  42  67  96 128 171 228 283 339 394
#     4  11  25  43  69  99 134 178 228 271 337 408
#     4  11  23  43  66  98 141 177 223 270 332 399
#     4  10  21  39  61  95 134 167 224 268 334 399
#
# _framework density 21.352255
#
# number of rings (size 3 to 8) (size 9 to 14) (size 15 to 20)
#    0.000    1.750    1.250    1.125   12.250    3.000 
#    0.000    1.875    2.750    0.000    0.000    0.000 
#    0.000    0.000    0.000    0.000    0.000    0.000 
#
# Total GULP energy -178457.004139 kJ/mol
# GULP energy per Si atom -5576.781379 kJ/mol
# Density = 2.130366 g / cm^3
# Si number density = 21.352255 Si / 1000 Ang^3
#
#
#
# Elastic Constant Matrix: (Units=GPa)
#
#
# Indices 1 2 3 4 5 6 
#
# 1 73.9338 8.3259 9.2329 0.0000 2.8951 0.0000
# 2 8.3259 79.6213 16.4448 0.0000 9.5942 0.0000
# 3 9.2329 16.4448 62.4779 0.0000 7.0591 0.0000
# 4 0.0000 0.0000 0.0000 -689.1466 0.0000 -113.2422
# 5 2.8951 9.5942 7.0591 0.0000 27.9662 0.0000
# 6 0.0000 0.0000 0.0000 -113.2422 0.0000 2.8993
#
#
#
# Elastic Compliance Matrix: (Units=1/GPa)
#
#
# Indices 1 2 3 4 5 6 
#
# 1 0.013879 -0.001019 -0.001709 0.000000 -0.000656 0.000000
# 2 -0.001019 0.013757 -0.003036 0.000000 -0.003848 0.000000
# 3 -0.001709 -0.003036 0.017416 0.000000 -0.003178 0.000000
# 4 0.000000 0.000000 0.000000 -0.000196 0.000000 -0.007640
# 5 -0.000656 -0.003848 -0.003178 0.000000 0.037948 0.000000
# 6 0.000000 0.000000 0.000000 -0.007640 0.000000 0.046495
#
#
# Mechanical properties :
#
#
# Convention : Reuss Voigt Hill
#
# Bulk Modulus (GPa) = 29.82841 31.56003 30.69422
# Shear Modulus (GPa) = 32.89435 -119.52093 -43.31329
#
# Velocity S-wave (km/s) = 3.92925 -7.48981 -4.50879
# Velocity P-wave (km/s) = 5.88093 7.74491 3.56359
#
# Compressibility (1/GPa) = 0.03352509
#
# Stress axis : x y z
#
# Youngs Moduli (GPa) = 72.04882 72.69221 57.41777
#
# Poissons Ratio (x) = 0.07410 0.09811
# Poissons Ratio (y) = 0.07345 0.17429
# Poissons Ratio (z) = 0.12311 0.22066
#
# Static dielectric constant tensor:
#      x y z
#    x 1.951710 0.000000 -0.005800 
#    y 0.000000 1.775150 0.000000 
#    z -0.005800 0.000000 1.765460 
# 
# From -- ./inp_files/261689.got.cif
#   From: 2010.05.17/outbox.cif.g08.bks.cpg/sg15_131_cif.got.tgz:261689.got - 2010.06.03 18:47:42.
