data_PCOD9282128
_publ_section_title
;
Structure prediction by ZEFSAII (Michael W. Deem and Ramdas Pophale) SiO2 
 PCOD9282128
Probable space group: C 2/C
;
_chemical_formula_sum "Si O2"
_cell_formula_units_Z 56
_cell_length_a 9.388947
_cell_length_b 10.966375
_cell_length_c 32.960151
_cell_angle_alpha 90.000000
_cell_angle_beta 44.912405
_cell_angle_gamma 90.000000
_cell_volume 2396.013167
_symmetry_space_group_name_H-M "C 2/C"
_symmetry_group_IT_number 15
_symmetry_cell_setting 'monoclinic'
loop_
_space_group_symop_operation_xyz
x,y,z
-x,y,1/2-z
-x,-y,-z
x,-y,1/2+z
1/2+x,1/2+y,z
1/2-x,1/2+y,1/2-z
1/2-x,1/2-y,-z
1/2+x,1/2-y,1/2+z
loop_
_atom_site_type_symbol
_atom_site_label
_atom_site_fract_x
_atom_site_fract_y
_atom_site_fract_z
Si Si1 0.310433 0.926058 0.122880
Si Si2 0.524991 0.590181 0.290940
Si Si3 0.549281 0.797513 0.135148
Si Si4 0.335443 0.512543 0.087078
Si Si5 0.696309 0.400746 0.055575
Si Si6 0.113128 0.360820 0.567428
Si Si7 0.543869 0.002531 0.786618
O O1 0.423938 0.809453 0.118906
O O2 0.305801 0.926821 0.075357
O O3 0.086556 0.958976 0.183019
O O4 0.444204 0.040327 0.111879
O O5 0.500000 0.636109 0.250000
O O6 0.427649 0.671097 0.346482
O O7 0.761027 0.580322 0.251620
O O8 0.419820 0.879419 0.192916
O O9 0.756285 0.875896 0.090360
O O10 0.544305 0.501502 0.068479
O O11 0.312144 0.595716 0.052131
O O12 0.158293 0.555054 0.153470
O O13 0.568584 0.276727 0.088829
O O14 0.845373 0.369310 0.988705
O O15 0.500000 0.040608 0.750000
#
# Coordination Sequence:
#
# PCOD9282128 Si02
#       7
#     8   8   8   8   8   8   8
#     4  11  23  42  60  94 124 156 210 255 296 371
#     4  12  21  41  63  87 124 167 201 249 305 363
#     4   9  22  40  58  84 125 157 200 249 300 352
#     4   9  20  41  58  89 125 158 203 252 298 369
#     4  11  22  38  71  88 120 167 202 255 319 360
#     4  10  22  42  61  96 123 158 207 257 311 369
#     4  10  21  39  56  89 120 158 209 243 295 365
#
# _framework density 23.372160999999998
#
# number of rings (size 3 to 8) (size 9 to 14) (size 15 to 20)
#    0.857    0.857    1.429    3.000    0.000    2.286 
#    7.714    0.000    0.000    9.429    0.000    0.000 
#    0.000    0.000    0.000    0.000    0.000    0.000 
#
# Total GULP energy -156301.315140 kJ/mol
# GULP energy per Si atom -5582.189826 kJ/mol
# Density = 2.331896 g / cm^3
# Si number density = 23.372161 Si / 1000 Ang^3
#
#
#
# Elastic Constant Matrix: (Units=GPa)
#
#
# Indices 1 2 3 4 5 6 
#
# 1 108.6506 14.2913 12.2199 0.0000 37.2682 0.0000
# 2 14.2913 39.7820 -9.1847 0.0000 6.0743 0.0000
# 3 12.2199 -9.1847 47.6825 -0.0001 22.9974 0.0000
# 4 0.0000 0.0000 -0.0001 20.8706 0.0000 -0.7297
# 5 37.2682 6.0743 22.9974 0.0000 46.2932 0.0000
# 6 0.0000 0.0000 0.0000 -0.7297 0.0000 15.8780
#
#
#
# Elastic Compliance Matrix: (Units=1/GPa)
#
#
# Indices 1 2 3 4 5 6 
#
# 1 0.013152 -0.002746 0.001359 0.000000 -0.010903 0.000000
# 2 -0.002746 0.029244 0.009365 0.000000 -0.006279 0.000000
# 3 0.001359 0.009365 0.030968 0.000000 -0.017707 0.000000
# 4 0.000000 0.000000 0.000000 0.047991 0.000000 0.002206
# 5 -0.010903 -0.006279 -0.017707 0.000000 0.039999 0.000000
# 6 0.000000 0.000000 0.000000 0.002206 0.000000 0.063081
#
#
# Mechanical properties :
#
#
# Convention : Reuss Voigt Hill
#
# Bulk Modulus (GPa) = 11.19571 25.64091 18.41831
# Shear Modulus (GPa) = 20.98605 28.52762 24.75683
#
# Velocity S-wave (km/s) = 2.99976 3.49747 3.25813
# Velocity P-wave (km/s) = 4.09862 5.22535 4.69590
#
# Compressibility (1/GPa) = 0.08931990
#
# Stress axis : x y z
#
# Youngs Moduli (GPa) = 76.03457 34.19455 32.29155
#
# Poissons Ratio (x) = 0.09391 -0.04388
# Poissons Ratio (y) = 0.20881 -0.30242
# Poissons Ratio (z) = -0.10332 -0.32024
#
# Static dielectric constant tensor:
#      x y z
#    x 1.918750 0.000000 -0.015870 
#    y 0.000000 1.923210 0.000000 
#    z -0.015870 0.000000 1.878090 
# 
# From -- ./inp_files/287943.got.cif
#   From: 2010.05.17/outbox.cif.g08.bks.cpg/sg15_144_cif.got.tgz:287943.got - 2010.06.03 18:47:42.
