data_PCOD9282874
_publ_section_title
;
Structure prediction by ZEFSAII (Michael W. Deem and Ramdas Pophale) SiO2 
 PCOD9282874
Probable space group: C 2/C
;
_chemical_formula_sum "Si O2"
_cell_formula_units_Z 52
_cell_length_a 17.121281
_cell_length_b 14.392506
_cell_length_c 12.268357
_cell_angle_alpha 90.000000
_cell_angle_beta 65.987809
_cell_angle_gamma 90.000000
_cell_volume 2761.519335
_symmetry_space_group_name_H-M "C 2/C"
_symmetry_group_IT_number 15
_symmetry_cell_setting 'monoclinic'
loop_
_space_group_symop_operation_xyz
x,y,z
-x,y,1/2-z
-x,-y,-z
x,-y,1/2+z
1/2+x,1/2+y,z
1/2-x,1/2+y,1/2-z
1/2-x,1/2-y,-z
1/2+x,1/2-y,1/2+z
loop_
_atom_site_type_symbol
_atom_site_label
_atom_site_fract_x
_atom_site_fract_y
_atom_site_fract_z
Si Si1 0.000000 0.602858 0.750000
Si Si2 0.203463 0.676341 0.950912
Si Si3 0.704418 0.574254 0.795698
Si Si4 0.826174 0.476814 0.425792
Si Si5 0.087131 0.759229 0.841764
Si Si6 0.550881 0.416017 0.529754
Si Si7 0.821743 0.093705 0.345119
O O1 0.074720 0.547024 0.646502
O O2 0.047146 0.669760 0.808291
O O3 0.261217 0.640724 0.817637
O O4 0.126435 0.728406 0.934001
O O5 0.250000 0.750000 0.000000
O O6 0.182208 0.583562 0.031269
O O7 0.777463 0.545968 0.840529
O O8 0.675644 0.479235 0.754445
O O9 0.624058 0.616443 0.904455
O O10 0.771050 0.416756 0.545084
O O11 0.154799 0.806719 0.719528
O O12 0.015055 0.836453 0.901130
O O13 0.500000 0.500000 0.500000
O O14 0.606717 0.437532 0.606709
#
# Coordination Sequence:
#
# PCOD9282874 Si02
#       7
#     4   8   8   8   8   8   8
#     4  12  24  44  66  90 136 170 224 266 320 394
#     4  11  25  45  67  94 127 171 221 268 322 390
#     4  10  21  41  65  93 129 170 207 264 331 381
#     4  10  24  45  66  91 128 180 217 263 333 385
#     4  12  23  41  65 101 131 165 222 273 315 395
#     4  11  22  36  64  99 131 165 208 270 332 378
#     4  10  21  39  65  92 127 170 212 264 328 382
#
# _framework density 18.830214000000002
#
# number of rings (size 3 to 8) (size 9 to 14) (size 15 to 20)
#    0.000    1.231    4.615    0.923    4.308    2.462 
#    2.769    0.000    0.000    0.000    0.000    0.000 
#    0.000    0.000    0.000    0.000    0.000    0.000 
#
# Total GULP energy -145146.244194 kJ/mol
# GULP energy per Si atom -5582.547854 kJ/mol
# Density = 1.878736 g / cm^3
# Si number density = 18.830214 Si / 1000 Ang^3
#
#
#
# Elastic Constant Matrix: (Units=GPa)
#
#
# Indices 1 2 3 4 5 6 
#
# 1 88.9238 38.2929 47.5559 0.0000 -10.0302 0.0000
# 2 38.2929 83.3687 54.6498 0.0000 -16.3737 0.0000
# 3 47.5559 54.6498 107.0389 0.0000 -12.4471 0.0000
# 4 0.0000 0.0000 0.0000 30.7504 0.0000 7.9168
# 5 -10.0302 -16.3737 -12.4471 0.0000 41.1261 0.0000
# 6 0.0000 0.0000 0.0000 7.9168 0.0000 33.0980
#
#
#
# Elastic Compliance Matrix: (Units=1/GPa)
#
#
# Indices 1 2 3 4 5 6 
#
# 1 0.015588 -0.003792 -0.004895 0.000000 0.000811 0.000000
# 2 -0.003792 0.019813 -0.007899 0.000000 0.004573 0.000000
# 3 -0.004895 -0.007899 0.015595 0.000000 0.000381 0.000000
# 4 0.000000 0.000000 0.000000 0.034654 0.000000 -0.008289
# 5 0.000811 0.004573 0.000381 0.000000 0.026449 0.000000
# 6 0.000000 0.000000 0.000000 -0.008289 0.000000 0.032196
#
#
# Mechanical properties :
#
#
# Convention : Reuss Voigt Hill
#
# Bulk Modulus (GPa) = 56.10824 62.25873 59.18349
# Shear Modulus (GPa) = 27.26173 30.25042 28.75607
#
# Velocity S-wave (km/s) = 3.80908 4.01244 3.91208
# Velocity P-wave (km/s) = 7.01477 7.38927 7.20445
#
# Compressibility (1/GPa) = 0.01782269
#
# Stress axis : x y z
#
# Youngs Moduli (GPa) = 64.15284 50.47275 64.12448
#
# Poissons Ratio (x) = 0.19137 0.31391
# Poissons Ratio (y) = 0.24324 0.50654
# Poissons Ratio (z) = 0.31405 0.39870
#
# Static dielectric constant tensor:
#      x y z
#    x 1.660710 0.000000 -0.016770 
#    y 0.000000 1.632190 0.000000 
#    z -0.016770 0.000000 1.648200 
# 
# From -- ./inp_files/96941.got.cif
#   From: 2010.05.17/outbox.cif.g08.bks.cpg/sg15_49_cif.got.tgz:96941.got - 2010.06.03 18:47:42.
