data_PCOD9282852
_publ_section_title
;
Structure prediction by ZEFSAII (Michael W. Deem and Ramdas Pophale) SiO2 
 PCOD9282852
Probable space group: C 2/C
;
_chemical_formula_sum "Si O2"
_cell_formula_units_Z 48
_cell_length_a 15.385740
_cell_length_b 6.998588
_cell_length_c 21.037411
_cell_angle_alpha 90.000000
_cell_angle_beta 104.342146
_cell_angle_gamma 90.000000
_cell_volume 2194.675833
_symmetry_space_group_name_H-M "C 2/C"
_symmetry_group_IT_number 15
_symmetry_cell_setting 'monoclinic'
loop_
_space_group_symop_operation_xyz
x,y,z
-x,y,1/2-z
-x,-y,-z
x,-y,1/2+z
1/2+x,1/2+y,z
1/2-x,1/2+y,1/2-z
1/2-x,1/2-y,-z
1/2+x,1/2-y,1/2+z
loop_
_atom_site_type_symbol
_atom_site_label
_atom_site_fract_x
_atom_site_fract_y
_atom_site_fract_z
Si Si1 0.950081 0.145170 0.805285
Si Si2 0.605594 0.999300 0.617758
Si Si3 0.831476 0.199794 0.968967
Si Si4 0.955219 0.195714 0.102226
Si Si5 0.300657 0.898599 0.156251
Si Si6 0.257582 0.532289 0.235390
O O1 0.937426 0.327511 0.848252
O O2 0.853118 0.054960 0.771614
O O3 0.000000 0.201363 0.750000
O O4 0.008772 0.979683 0.849758
O O5 0.635048 0.893426 0.558837
O O6 0.536536 0.168780 0.596989
O O7 0.690898 0.071817 0.673709
O O8 0.784957 0.074339 0.905562
O O9 0.750000 0.250000 0.000000
O O10 0.906624 0.120913 0.029596
O O11 0.885939 0.330533 0.130435
O O12 0.280444 0.719677 0.198843
O O13 0.300695 0.060408 0.210214
#
# Coordination Sequence:
#
# PCOD9282852 Si02
#       6
#     8   8   8   8   8   8
#     4  12  25  39  62  99 130 159 213 271 317 381
#     4  11  25  40  66  96 126 167 214 266 314 387
#     4   9  20  43  66  88 126 171 216 261 311 381
#     4  11  24  40  68  89 129 172 209 258 332 374
#     4  10  21  39  65  91 124 170 209 265 317 380
#     4  11  20  39  59  86 127 159 209 254 317 370
#
# _framework density 21.871110000000002
#
# number of rings (size 3 to 8) (size 9 to 14) (size 15 to 20)
#    0.000    1.333    5.000    1.500    2.333    0.667 
#    0.000    0.000    0.000    4.000    0.000    0.000 
#    0.000    0.000    0.000    0.000    0.000    0.000 
#
# Total GULP energy -133980.998041 kJ/mol
# GULP energy per Si atom -5582.541585 kJ/mol
# Density = 2.182133 g / cm^3
# Si number density = 21.871110 Si / 1000 Ang^3
#
#
#
# Elastic Constant Matrix: (Units=GPa)
#
#
# Indices 1 2 3 4 5 6 
#
# 1 74.8357 21.7016 40.4896 0.0000 3.1393 0.0000
# 2 21.7016 45.0167 16.8239 0.0000 2.5719 0.0000
# 3 40.4896 16.8239 113.1447 0.0000 4.6570 0.0000
# 4 0.0000 0.0000 0.0000 27.6665 0.0000 -0.2827
# 5 3.1393 2.5719 4.6570 0.0000 49.6797 0.0000
# 6 0.0000 0.0000 0.0000 -0.2827 0.0000 27.4374
#
#
#
# Elastic Compliance Matrix: (Units=1/GPa)
#
#
# Indices 1 2 3 4 5 6 
#
# 1 0.018332 -0.006749 -0.005545 0.000000 -0.000289 0.000000
# 2 -0.006749 0.026045 -0.001425 0.000000 -0.000788 0.000000
# 3 -0.005545 -0.001425 0.011060 0.000000 -0.000613 0.000000
# 4 0.000000 0.000000 0.000000 0.036149 0.000000 0.000372
# 5 -0.000289 -0.000788 -0.000613 0.000000 0.020245 0.000000
# 6 0.000000 0.000000 0.000000 0.000372 0.000000 0.036450
#
#
# Mechanical properties :
#
#
# Convention : Reuss Voigt Hill
#
# Bulk Modulus (GPa) = 35.71538 43.44749 39.58143
# Shear Modulus (GPa) = 27.01955 31.22219 29.12087
#
# Velocity S-wave (km/s) = 3.51864 3.78240 3.65290
# Velocity P-wave (km/s) = 5.73351 6.24370 5.99403
#
# Compressibility (1/GPa) = 0.02799914
#
# Stress axis : x y z
#
# Youngs Moduli (GPa) = 54.55024 38.39503 90.41916
#
# Poissons Ratio (x) = 0.25911 0.50135
# Poissons Ratio (y) = 0.36814 0.12887
# Poissons Ratio (z) = 0.30247 0.05472
#
# Static dielectric constant tensor:
#      x y z
#    x 1.822150 0.000000 0.004750 
#    y 0.000000 1.885470 0.000000 
#    z 0.004750 0.000000 1.830040 
# 
# From -- ./inp_files/242567.got.cif
#   From: 2010.05.17/outbox.cif.g08.bks.cpg/sg15_122_cif.got.tgz:242567.got - 2010.06.03 18:47:42.
