data_PCOD9282158
_publ_section_title
;
Structure prediction by ZEFSAII (Michael W. Deem and Ramdas Pophale) SiO2 
 PCOD9282158
Probable space group: C 2/C
;
_chemical_formula_sum "Si O2"
_cell_formula_units_Z 52
_cell_length_a 30.582315
_cell_length_b 14.145683
_cell_length_c 21.005712
_cell_angle_alpha 90.000000
_cell_angle_beta 162.272369
_cell_angle_gamma 90.000000
_cell_volume 2766.993964
_symmetry_space_group_name_H-M "C 2/C"
_symmetry_group_IT_number 15
_symmetry_cell_setting 'monoclinic'
loop_
_space_group_symop_operation_xyz
x,y,z
-x,y,1/2-z
-x,-y,-z
x,-y,1/2+z
1/2+x,1/2+y,z
1/2-x,1/2+y,1/2-z
1/2-x,1/2-y,-z
1/2+x,1/2-y,1/2+z
loop_
_atom_site_type_symbol
_atom_site_label
_atom_site_fract_x
_atom_site_fract_y
_atom_site_fract_z
Si Si1 0.989966 0.847859 0.523724
Si Si2 0.500000 0.056335 0.750000
Si Si3 0.185276 0.354867 0.397440
Si Si4 0.980042 0.360366 0.466556
Si Si5 0.724376 0.513555 0.301960
Si Si6 0.005098 0.893320 0.686768
Si Si7 0.769613 0.505791 0.220504
O O1 0.967865 0.836832 0.569722
O O2 0.990762 0.750198 0.487478
O O3 0.139510 0.902791 0.719862
O O4 0.872071 0.920185 0.334051
O O5 0.421794 0.118251 0.695044
O O6 0.375934 0.997136 0.544514
O O7 0.250000 0.250000 0.500000
O O8 0.099692 0.365976 0.212842
O O9 0.328041 0.419904 0.591121
O O10 0.866484 0.410099 0.355878
O O11 0.127452 0.419890 0.672155
O O12 0.746001 0.542552 0.258823
O O13 0.000000 0.846137 0.750000
O O14 0.885601 0.976115 0.522158
#
# Coordination Sequence:
#
# PCOD9282158 Si02
#       7
#     8   4   8   8   8   8   8
#     4  10  22  38  60  87 122 158 196 245 298 363
#     4  12  22  38  60  82 122 156 198 254 288 362
#     4  12  23  34  59  95 120 152 192 249 313 362
#     4  11  21  39  57  90 121 156 201 241 301 362
#     4  10  21  39  58  85 114 160 202 242 304 344
#     4  11  21  36  58  90 127 157 188 242 301 361
#     4  10  23  36  58  84 123 163 194 243 300 357
#
# _framework density 18.792957000000001
#
# number of rings (size 3 to 8) (size 9 to 14) (size 15 to 20)
#    0.000    1.231    6.154    0.000    1.077    3.692 
#    0.000    0.000    1.692    0.923    0.000    0.000 
#    0.000    0.000    0.000    0.000    0.000    0.000 
#
# Total GULP energy -144950.776970 kJ/mol
# GULP energy per Si atom -5575.029883 kJ/mol
# Density = 1.875018 g / cm^3
# Si number density = 18.792957 Si / 1000 Ang^3
#
#
#
# Elastic Constant Matrix: (Units=GPa)
#
#
# Indices 1 2 3 4 5 6 
#
# 1 90.1666 6.8842 5.2799 0.0000 14.4017 0.0000
# 2 6.8842 70.5028 25.9580 0.0000 8.9031 0.0000
# 3 5.2799 25.9580 122.4982 0.0000 19.7223 0.0000
# 4 0.0000 0.0000 0.0000 10.6841 0.0000 3.9017
# 5 14.4017 8.9031 19.7223 0.0000 30.4106 0.0000
# 6 0.0000 0.0000 0.0000 3.9017 0.0000 10.6495
#
#
#
# Elastic Compliance Matrix: (Units=1/GPa)
#
#
# Indices 1 2 3 4 5 6 
#
# 1 0.012046 -0.000641 0.000564 0.000000 -0.005883 0.000000
# 2 -0.000641 0.015615 -0.002896 0.000000 -0.002389 0.000000
# 3 0.000564 -0.002896 0.009669 0.000000 -0.005690 0.000000
# 4 0.000000 0.000000 0.000000 0.108054 0.000000 -0.039589
# 5 -0.005883 -0.002389 -0.005690 0.000000 0.040059 0.000000
# 6 0.000000 0.000000 0.000000 -0.039589 0.000000 0.108406
#
#
# Mechanical properties :
#
#
# Convention : Reuss Voigt Hill
#
# Bulk Modulus (GPa) = 31.86521 39.93466 35.89994
# Shear Modulus (GPa) = 16.11573 26.68521 21.40047
#
# Velocity S-wave (km/s) = 2.93156 3.77232 3.37820
# Velocity P-wave (km/s) = 5.33399 6.34585 5.86179
#
# Compressibility (1/GPa) = 0.03138218
#
# Stress axis : x y z
#
# Youngs Moduli (GPa) = 83.01438 64.04269 103.42443
#
# Poissons Ratio (x) = 0.04105 -0.05830
# Poissons Ratio (y) = 0.05321 0.29957
# Poissons Ratio (z) = -0.04680 0.18550
#
# Static dielectric constant tensor:
#      x y z
#    x 1.690040 0.000000 0.007810 
#    y 0.000000 1.652170 0.000000 
#    z 0.007810 0.000000 1.672580 
# 
# From -- ./inp_files/248868.got.cif
#   From: 2010.05.17/outbox.cif.g08.bks.cpg/sg15_125_cif.got.tgz:248868.got - 2010.06.03 18:47:42.
