data_PCOD9282657
_publ_section_title
;
Structure prediction by ZEFSAII (Michael W. Deem and Ramdas Pophale) SiO2 
 PCOD9282657
Probable space group: C 2/C
;
_chemical_formula_sum "Si O2"
_cell_formula_units_Z 36
_cell_length_a 15.217992
_cell_length_b 13.052110
_cell_length_c 9.262938
_cell_angle_alpha 90.000000
_cell_angle_beta 61.378526
_cell_angle_gamma 90.000000
_cell_volume 1615.043202
_symmetry_space_group_name_H-M "C 2/C"
_symmetry_group_IT_number 15
_symmetry_cell_setting 'monoclinic'
loop_
_space_group_symop_operation_xyz
x,y,z
-x,y,1/2-z
-x,-y,-z
x,-y,1/2+z
1/2+x,1/2+y,z
1/2-x,1/2+y,1/2-z
1/2-x,1/2-y,-z
1/2+x,1/2-y,1/2+z
loop_
_atom_site_type_symbol
_atom_site_label
_atom_site_fract_x
_atom_site_fract_y
_atom_site_fract_z
Si Si1 0.000000 0.962877 0.250000
Si Si2 0.711098 0.172373 0.149919
Si Si3 0.098436 0.482467 0.574568
Si Si4 0.469214 0.824437 0.516353
Si Si5 0.587002 0.629224 0.389004
O O1 0.929837 0.036631 0.207896
O O2 0.941047 0.901812 0.422376
O O3 0.689481 0.062077 0.093404
O O4 0.602752 0.206870 0.294492
O O5 0.798309 0.163733 0.197836
O O6 0.750000 0.250000 0.000000
O O7 0.102943 0.596210 0.510101
O O8 0.000000 0.485871 0.750000
O O9 0.064277 0.395956 0.485730
O O10 0.513443 0.723588 0.410886
#
# Coordination Sequence:
#
# PCOD9282657 Si02
#       5
#     4   8   8   8   8
#     4  10  26  44  64  92 130 178 226 278 334 396
#     4  11  21  37  67  95 130 174 219 260 334 401
#     4   9  20  38  61  96 130 167 215 271 323 396
#     4  10  21  39  63  94 132 170 213 271 336 384
#     4  11  23  44  68  91 135 176 222 277 333 396
#
# _framework density 22.290427000000001
#
# number of rings (size 3 to 8) (size 9 to 14) (size 15 to 20)
#    0.000    1.778    2.222    1.333    6.222    0.000 
#    0.000    1.111    0.000    0.000    0.000    0.000 
#    0.000    0.000    0.000    0.000    0.000    0.000 
#
# Total GULP energy -100446.394039 kJ/mol
# GULP energy per Si atom -5580.355224 kJ/mol
# Density = 2.223969 g / cm^3
# Si number density = 22.290427 Si / 1000 Ang^3
#
#
#
# Elastic Constant Matrix: (Units=GPa)
#
#
# Indices 1 2 3 4 5 6 
#
# 1 71.3418 14.9577 26.0830 0.0000 -12.9439 0.0000
# 2 14.9577 85.7564 38.3720 0.0000 -7.0789 0.0000
# 3 26.0830 38.3720 56.5338 0.0000 -0.5084 0.0000
# 4 0.0000 0.0000 0.0000 23.9549 0.0000 7.9277
# 5 -12.9439 -7.0789 -0.5084 0.0000 29.9261 0.0000
# 6 0.0000 0.0000 0.0000 7.9277 0.0000 31.4613
#
#
#
# Elastic Compliance Matrix: (Units=1/GPa)
#
#
# Indices 1 2 3 4 5 6 
#
# 1 0.018737 0.001805 -0.009795 0.000000 0.008365 0.000000
# 2 0.001805 0.017357 -0.012572 0.000000 0.004673 0.000000
# 3 -0.009795 -0.012572 0.030680 0.000000 -0.006689 0.000000
# 4 0.000000 0.000000 0.000000 0.045543 0.000000 -0.011476
# 5 0.008365 0.004673 -0.006689 0.000000 0.038025 0.000000
# 6 0.000000 0.000000 0.000000 -0.011476 0.000000 0.034677
#
#
# Mechanical properties :
#
#
# Convention : Reuss Voigt Hill
#
# Bulk Modulus (GPa) = 38.98364 41.38415 40.18390
# Shear Modulus (GPa) = 21.30432 26.01641 23.66036
#
# Velocity S-wave (km/s) = 3.09489 3.42007 3.26154
# Velocity P-wave (km/s) = 5.50437 5.84825 5.67891
#
# Compressibility (1/GPa) = 0.02565179
#
# Stress axis : x y z
#
# Youngs Moduli (GPa) = 53.36944 57.61312 32.59401
#
# Poissons Ratio (x) = -0.10399 0.31925
# Poissons Ratio (y) = -0.09633 0.40977
# Poissons Ratio (z) = 0.52274 0.72430
#
# Static dielectric constant tensor:
#      x y z
#    x 1.872600 0.000000 0.068650 
#    y 0.000000 1.863760 0.000000 
#    z 0.068650 0.000000 1.904860 
# 
# From -- ./inp_files/103513.got.cif
#   From: 2010.05.17/outbox.cif.g08.bks.cpg/sg15_52_cif.got.tgz:103513.got - 2010.06.03 18:47:42.
