data_PCOD9282632
_publ_section_title
;
Structure prediction by ZEFSAII (Michael W. Deem and Ramdas Pophale) SiO2 
 PCOD9282632
Probable space group: C 2/C
;
_chemical_formula_sum "Si O2"
_cell_formula_units_Z 48
_cell_length_a 8.253994
_cell_length_b 21.020363
_cell_length_c 15.317002
_cell_angle_alpha 90.000000
_cell_angle_beta 125.827893
_cell_angle_gamma 90.000000
_cell_volume 2154.669156
_symmetry_space_group_name_H-M "C 2/C"
_symmetry_group_IT_number 15
_symmetry_cell_setting 'monoclinic'
loop_
_space_group_symop_operation_xyz
x,y,z
-x,y,1/2-z
-x,-y,-z
x,-y,1/2+z
1/2+x,1/2+y,z
1/2-x,1/2+y,1/2-z
1/2-x,1/2-y,-z
1/2+x,1/2-y,1/2+z
loop_
_atom_site_type_symbol
_atom_site_label
_atom_site_fract_x
_atom_site_fract_y
_atom_site_fract_z
Si Si1 0.500000 0.253391 0.250000
Si Si2 0.160042 0.655830 0.607505
Si Si3 0.500000 0.590047 0.250000
Si Si4 0.116446 0.755422 0.043839
Si Si5 0.157979 0.488118 0.124400
Si Si6 0.000000 0.691644 0.750000
Si Si7 0.000000 0.456364 0.750000
Si Si8 0.820086 0.152092 0.357539
O O1 0.643223 0.301356 0.346358
O O2 0.664634 0.203217 0.270305
O O3 0.226823 0.583230 0.626350
O O4 0.002126 0.688035 0.490013
O O5 0.056115 0.661106 0.672079
O O6 0.321153 0.542821 0.171223
O O7 0.459288 0.631622 0.321965
O O8 0.952709 0.811416 0.972272
O O9 0.250000 0.750000 0.000000
O O10 0.287754 0.773776 0.165687
O O11 0.064026 0.499359 0.190142
O O12 0.000000 0.500000 0.000000
O O13 0.816276 0.409622 0.663006
#
# Coordination Sequence:
#
# PCOD9282632 Si02
#       8
#     4   8   4   8   8   4   4   8
#     4   9  19  38  63  91 135 153 206 276 338 379
#     4  10  21  41  61  93 134 159 221 267 327 397
#     4  10  23  41  70  90 133 177 224 264 322 402
#     4   9  20  36  60  95 122 162 214 266 332 388
#     4  11  24  44  67  98 131 184 222 271 328 388
#     4  10  21  39  63  93 126 176 208 270 336 394
#     4   9  21  46  66  94 136 172 224 274 318 401
#     4   9  19  40  66  96 125 169 215 270 331 390
#
# _framework density 22.277203
#
# number of rings (size 3 to 8) (size 9 to 14) (size 15 to 20)
#    0.000    2.333    0.000    1.000    4.667    6.000 
#   18.000    3.333    0.000    0.000    0.000    0.000 
#    0.000    0.000    0.000    0.000    0.000    0.000 
#
# Total GULP energy -133676.575269 kJ/mol
# GULP energy per Si atom -5569.857303 kJ/mol
# Density = 2.222650 g / cm^3
# Si number density = 22.277203 Si / 1000 Ang^3
#
#
#
# Elastic Constant Matrix: (Units=GPa)
#
#
# Indices 1 2 3 4 5 6 
#
# 1 56.5577 27.4805 44.2065 0.0000 16.4676 0.0000
# 2 27.4805 129.0280 38.1805 0.0000 -0.8717 0.0000
# 3 44.2065 38.1805 91.2939 0.0000 11.9909 0.0000
# 4 0.0000 0.0000 0.0000 -8.1534 0.0000 8.0481
# 5 16.4676 -0.8717 11.9909 0.0000 21.0859 0.0000
# 6 0.0000 0.0000 0.0000 8.0481 0.0000 21.6002
#
#
#
# Elastic Compliance Matrix: (Units=1/GPa)
#
#
# Indices 1 2 3 4 5 6 
#
# 1 0.035731 -0.003920 -0.012943 0.000000 -0.020707 0.000000
# 2 -0.003920 0.009416 -0.002694 0.000000 0.004983 0.000000
# 3 -0.012943 -0.002694 0.018410 0.000000 -0.000472 0.000000
# 4 0.000000 0.000000 0.000000 -0.089669 0.000000 0.033410
# 5 -0.020707 0.004983 -0.000472 0.000000 0.064072 0.000000
# 6 0.000000 0.000000 0.000000 0.033410 0.000000 0.033847
#
#
# Mechanical properties :
#
#
# Convention : Reuss Voigt Hill
#
# Bulk Modulus (GPa) = 40.91157 55.17937 48.04547
# Shear Modulus (GPa) = 41.99270 18.04067 30.01669
#
# Velocity S-wave (km/s) = 4.34638 2.84883 3.67470
# Velocity P-wave (km/s) = 6.60247 5.97029 6.29432
#
# Compressibility (1/GPa) = 0.02444297
#
# Stress axis : x y z
#
# Youngs Moduli (GPa) = 27.98674 106.20140 54.31976
#
# Poissons Ratio (x) = 0.41632 0.70304
# Poissons Ratio (y) = 0.10971 0.14635
# Poissons Ratio (z) = 0.36222 0.28613
#
# Static dielectric constant tensor:
#      x y z
#    x 1.873050 0.000000 -0.033150 
#    y 0.000000 1.857990 0.000000 
#    z -0.033150 0.000000 1.841700 
# 
# From -- ./inp_files/192367.got.cif
#   From: 2010.05.17/outbox.cif.g08.bks.cpg/sg15_97_cif.got.tgz:192367.got - 2010.06.03 18:47:42.
