data_PCOD9282990
_publ_section_title
;
Structure prediction by ZEFSAII (Michael W. Deem and Ramdas Pophale) SiO2 
 PCOD9282990
Probable space group: C 2/C
;
_chemical_formula_sum "Si O2"
_cell_formula_units_Z 60
_cell_length_a 9.057438
_cell_length_b 26.456062
_cell_length_c 13.915439
_cell_angle_alpha 90.000000
_cell_angle_beta 74.023297
_cell_angle_gamma 90.000000
_cell_volume 3205.676662
_symmetry_space_group_name_H-M "C 2/C"
_symmetry_group_IT_number 15
_symmetry_cell_setting 'monoclinic'
loop_
_space_group_symop_operation_xyz
x,y,z
-x,y,1/2-z
-x,-y,-z
x,-y,1/2+z
1/2+x,1/2+y,z
1/2-x,1/2+y,1/2-z
1/2-x,1/2-y,-z
1/2+x,1/2-y,1/2+z
loop_
_atom_site_type_symbol
_atom_site_label
_atom_site_fract_x
_atom_site_fract_y
_atom_site_fract_z
Si Si1 0.698444 0.194095 0.878730
Si Si2 0.682267 0.585829 0.704576
Si Si3 0.321929 0.004135 0.803938
Si Si4 0.375177 0.202623 0.386879
Si Si5 0.685638 0.992309 0.475364
Si Si6 0.500000 0.241891 0.750000
Si Si7 0.771584 0.680032 0.210646
Si Si8 0.326172 0.571350 0.318849
O O1 0.770086 0.143648 0.820851
O O2 0.817247 0.241030 0.868995
O O3 0.558365 0.210734 0.833001
O O4 0.654227 0.186796 0.998287
O O5 0.500000 0.581626 0.750000
O O6 0.748110 0.557429 0.786526
O O7 0.752836 0.553237 0.602777
O O8 0.500000 0.010183 0.750000
O O9 0.264830 0.960596 0.743862
O O10 0.287061 0.986865 0.917173
O O11 0.280020 0.170433 0.324866
O O12 0.556902 0.198197 0.341455
O O13 0.500000 0.000000 0.500000
O O14 0.782825 0.040858 0.422307
O O15 0.354654 0.278492 0.794820
O O16 0.731842 0.628235 0.165981
O O17 0.500000 0.570716 0.250000
#
# Coordination Sequence:
#
# PCOD9282990 Si02
#       8
#     8   8   8   8   8   4   8   8
#     4  10  23  42  65  93 128 166 207 257 311 376
#     4  11  26  42  64  95 128 168 211 255 320 379
#     4  11  23  41  65  93 124 161 210 261 315 373
#     4   9  22  40  65  91 126 161 217 251 305 374
#     4  11  23  41  66  92 126 159 213 263 309 378
#     4  10  22  40  62  92 128 160 200 264 308 366
#     4  10  21  39  66  92 122 163 204 259 314 359
#     4  11  24  40  63  93 128 160 208 259 311 373
#
# _framework density 18.716797
#
# number of rings (size 3 to 8) (size 9 to 14) (size 15 to 20)
#    0.000    1.600    3.333    1.600   10.267    2.667 
#    0.000    0.000    0.000    0.000    0.000    0.000 
#    0.000    0.000    0.000    0.000    0.000    0.000 
#
# Total GULP energy -167223.473568 kJ/mol
# GULP energy per Si atom -5574.115786 kJ/mol
# Density = 1.867420 g / cm^3
# Si number density = 18.716797 Si / 1000 Ang^3
#
#
#
# Elastic Constant Matrix: (Units=GPa)
#
#
# Indices 1 2 3 4 5 6 
#
# 1 122.8521 16.2234 6.0513 0.0000 -12.5522 0.0000
# 2 16.2234 41.2764 -9.8128 0.0000 -3.4504 0.0000
# 3 6.0513 -9.8128 56.0674 0.0000 3.2567 0.0000
# 4 0.0000 0.0000 0.0000 8.7949 0.0000 -10.6654
# 5 -12.5522 -3.4504 3.2567 0.0000 29.0435 0.0000
# 6 0.0000 0.0000 0.0000 -10.6654 0.0000 16.6944
#
#
#
# Elastic Compliance Matrix: (Units=1/GPa)
#
#
# Indices 1 2 3 4 5 6 
#
# 1 0.009098 -0.003705 -0.001845 0.000000 0.003699 0.000000
# 2 -0.003705 0.026973 0.005060 0.000000 0.001036 0.000000
# 3 -0.001845 0.005060 0.019056 0.000000 -0.002333 0.000000
# 4 0.000000 0.000000 0.000000 0.504756 0.000000 0.322471
# 5 0.003699 0.001036 -0.002333 0.000000 0.036414 0.000000
# 6 0.000000 0.000000 0.000000 0.322471 0.000000 0.265916
#
#
# Mechanical properties :
#
#
# Convention : Reuss Voigt Hill
#
# Bulk Modulus (GPa) = 18.46841 27.23554 22.85197
# Shear Modulus (GPa) = 5.67381 24.75548 15.21464
#
# Velocity S-wave (km/s) = 1.74298 3.64075 2.85421
# Velocity P-wave (km/s) = 3.73354 5.67947 4.80602
#
# Compressibility (1/GPa) = 0.05414653
#
# Stress axis : x y z
#
# Youngs Moduli (GPa) = 109.91428 37.07420 52.47686
#
# Poissons Ratio (x) = 0.13738 0.09684
# Poissons Ratio (y) = 0.40728 -0.26556
# Poissons Ratio (z) = 0.20282 -0.18761
#
# Static dielectric constant tensor:
#      x y z
#    x 1.621560 0.000000 0.019150 
#    y 0.000000 1.650460 0.000000 
#    z 0.019150 0.000000 1.665020 
# 
# From -- ./inp_files/138228.got.cif
#   From: 2010.05.17/outbox.cif.g08.bks.cpg/sg15_70_cif.got.tgz:138228.got - 2010.06.03 18:47:42.
