data_PCOD9282308
_publ_section_title
;
Structure prediction by ZEFSAII (Michael W. Deem and Ramdas Pophale) SiO2 
 PCOD9282308
Probable space group: C 2/C
;
_chemical_formula_sum "Si O2"
_cell_formula_units_Z 48
_cell_length_a 14.199226
_cell_length_b 20.186719
_cell_length_c 8.051804
_cell_angle_alpha 90.000000
_cell_angle_beta 92.987611
_cell_angle_gamma 90.000000
_cell_volume 2304.798281
_symmetry_space_group_name_H-M "C 2/C"
_symmetry_group_IT_number 15
_symmetry_cell_setting 'monoclinic'
loop_
_space_group_symop_operation_xyz
x,y,z
-x,y,1/2-z
-x,-y,-z
x,-y,1/2+z
1/2+x,1/2+y,z
1/2-x,1/2+y,1/2-z
1/2-x,1/2-y,-z
1/2+x,1/2-y,1/2+z
loop_
_atom_site_type_symbol
_atom_site_label
_atom_site_fract_x
_atom_site_fract_y
_atom_site_fract_z
Si Si1 0.269455 0.557978 0.096670
Si Si2 0.588233 0.811243 0.876968
Si Si3 0.033018 0.927788 0.060498
Si Si4 0.745400 0.803224 0.638655
Si Si5 0.260613 0.914337 0.525881
Si Si6 0.103785 0.180503 0.072687
O O1 0.210487 0.625474 0.065137
O O2 0.281113 0.563804 0.297231
O O3 0.357969 0.570716 0.983479
O O4 0.234352 0.483397 0.068441
O O5 0.500000 0.824830 0.750000
O O6 0.670401 0.782003 0.768137
O O7 0.638952 0.877348 0.951729
O O8 0.571648 0.752358 0.005626
O O9 0.000000 0.919524 0.250000
O O10 0.981577 0.870605 0.951283
O O11 0.000000 0.000000 0.000000
O O12 0.750000 0.750000 0.500000
O O13 0.844409 0.810392 0.745735
O O14 0.185260 0.857423 0.468865
#
# Coordination Sequence:
#
# PCOD9282308 Si02
#       6
#     8   8   8   8   8   8
#     4  10  22  38  58  91 121 160 205 247 319 364
#     4  10  22  42  60  88 118 166 218 251 305 359
#     4  12  24  35  59  95 133 162 204 253 311 388
#     4  10  24  41  61  88 126 162 207 261 312 376
#     4  10  21  39  61  85 124 162 203 255 303 381
#     4  10  22  38  61  86 125 167 202 248 315 375
#
# _framework density 20.826118000000001
#
# number of rings (size 3 to 8) (size 9 to 14) (size 15 to 20)
#    0.000    2.000    1.667    3.500    7.000    1.333 
#    0.000    3.333    0.000    0.000    0.000    0.000 
#    0.000    0.000    0.000    0.000    0.000    0.000 
#
# Total GULP energy -133655.948197 kJ/mol
# GULP energy per Si atom -5568.997842 kJ/mol
# Density = 2.077872 g / cm^3
# Si number density = 20.826118 Si / 1000 Ang^3
#
#
#
# Elastic Constant Matrix: (Units=GPa)
#
#
# Indices 1 2 3 4 5 6 
#
# 1 63.8618 45.6751 20.9425 0.0000 19.8878 0.0000
# 2 45.6751 138.4820 40.6476 0.0000 21.7455 0.0000
# 3 20.9425 40.6476 52.7821 0.0000 2.2137 0.0000
# 4 0.0000 0.0000 0.0000 48.9345 0.0000 6.2667
# 5 19.8878 21.7455 2.2137 0.0000 27.3380 0.0000
# 6 0.0000 0.0000 0.0000 6.2667 0.0000 22.7979
#
#
#
# Elastic Compliance Matrix: (Units=1/GPa)
#
#
# Indices 1 2 3 4 5 6 
#
# 1 0.025209 -0.004245 -0.006127 0.000000 -0.014467 0.000000
# 2 -0.004245 0.011533 -0.006966 0.000000 -0.005522 0.000000
# 3 -0.006127 -0.006966 0.026411 0.000000 0.007859 0.000000
# 4 0.000000 0.000000 0.000000 0.021181 0.000000 -0.005822
# 5 -0.014467 -0.005522 0.007859 0.000000 0.050859 0.000000
# 6 0.000000 0.000000 0.000000 -0.005822 0.000000 0.045464
#
#
# Mechanical properties :
#
#
# Convention : Reuss Voigt Hill
#
# Bulk Modulus (GPa) = 35.11343 52.18402 43.64872
# Shear Modulus (GPa) = 22.23958 29.67147 25.95552
#
# Velocity S-wave (km/s) = 3.27137 3.77865 3.53412
# Velocity P-wave (km/s) = 5.58266 6.64447 6.13657
#
# Compressibility (1/GPa) = 0.02847913
#
# Stress axis : x y z
#
# Youngs Moduli (GPa) = 39.66841 86.70932 37.86245
#
# Poissons Ratio (x) = 0.36805 0.23197
# Poissons Ratio (y) = 0.16838 0.26374
# Poissons Ratio (z) = 0.24304 0.60399
#
# Static dielectric constant tensor:
#      x y z
#    x 1.828020 0.000000 -0.017640 
#    y 0.000000 1.823400 0.000000 
#    z -0.017640 0.000000 1.836890 
# 
# From -- ./inp_files/39627.got.cif
#   From: 2010.05.17/outbox.cif.g08.bks.cpg/sg15_20_cif.got.tgz:39627.got - 2010.06.03 18:47:42.
