data_PCOD9282600
_publ_section_title
;
Structure prediction by ZEFSAII (Michael W. Deem and Ramdas Pophale) SiO2 
 PCOD9282600
Probable space group: C 2/C
;
_chemical_formula_sum "Si O2"
_cell_formula_units_Z 60
_cell_length_a 13.915982
_cell_length_b 19.173226
_cell_length_c 28.621224
_cell_angle_alpha 90.000000
_cell_angle_beta 157.889131
_cell_angle_gamma 90.000000
_cell_volume 2874.397912
_symmetry_space_group_name_H-M "C 2/C"
_symmetry_group_IT_number 15
_symmetry_cell_setting 'monoclinic'
loop_
_space_group_symop_operation_xyz
x,y,z
-x,y,1/2-z
-x,-y,-z
x,-y,1/2+z
1/2+x,1/2+y,z
1/2-x,1/2+y,1/2-z
1/2-x,1/2-y,-z
1/2+x,1/2-y,1/2+z
loop_
_atom_site_type_symbol
_atom_site_label
_atom_site_fract_x
_atom_site_fract_y
_atom_site_fract_z
Si Si1 0.229599 0.636270 0.214292
Si Si2 0.580356 0.882717 0.337297
Si Si3 0.138318 0.288163 0.183632
Si Si4 0.952716 0.261026 0.465478
Si Si5 0.000000 0.810148 0.750000
Si Si6 0.354424 0.597294 0.429861
Si Si7 0.295168 0.684734 0.555699
Si Si8 0.585174 0.967362 0.719408
O O1 0.295193 0.707557 0.272764
O O2 0.416195 0.642631 0.255215
O O3 0.248811 0.566861 0.252425
O O4 0.937007 0.636292 0.064651
O O5 0.500000 0.855687 0.250000
O O6 0.558398 0.824100 0.368055
O O7 0.850095 0.916730 0.444888
O O8 0.425097 0.949926 0.284540
O O9 0.057304 0.286932 0.092738
O O10 0.404490 0.329451 0.311830
O O11 0.855338 0.181156 0.425327
O O12 0.765826 0.299040 0.417687
O O13 0.237535 0.270843 0.615874
O O14 0.221147 0.560736 0.326650
O O15 0.197639 0.569079 0.403718
O O16 0.250000 0.750000 0.500000
#
# Coordination Sequence:
#
# PCOD9282600 Si02
#       8
#     8   8   8   8   4   8   8   8
#     4  10  21  39  63  91 123 169 220 258 317 376
#     4  12  28  40  61  96 136 171 207 268 329 384
#     4  11  23  37  63  96 129 171 212 270 321 376
#     4  11  22  39  65  98 133 164 220 270 324 384
#     4  10  24  38  60  98 130 166 206 280 328 374
#     4  11  23  39  63  93 124 172 209 259 323 383
#     4   9  20  35  61  95 124 167 208 269 320 373
#     4  11  24  43  65  89 130 174 214 262 319 396
#
# _framework density 20.873936
#
# number of rings (size 3 to 8) (size 9 to 14) (size 15 to 20)
#    0.000    1.333    2.667    3.200   13.067    1.067 
#    0.000    0.000    2.933    1.600    0.000    0.000 
#    0.000    0.000    0.000    0.000    0.000    0.000 
#
# Total GULP energy -167220.124628 kJ/mol
# GULP energy per Si atom -5574.004154 kJ/mol
# Density = 2.082643 g / cm^3
# Si number density = 20.873936 Si / 1000 Ang^3
#
#
#
# Elastic Constant Matrix: (Units=GPa)
#
#
# Indices 1 2 3 4 5 6 
#
# 1 138.5858 34.0827 17.6944 0.0153 -9.9396 -0.0015
# 2 34.0827 68.2126 1.2650 0.0189 -7.4430 -0.0025
# 3 17.6944 1.2650 68.3826 1.0431 10.1377 -0.1841
# 4 0.0153 0.0189 1.0431 -565.0836 0.1540 96.9806
# 5 -9.9396 -7.4430 10.1377 0.1540 33.1268 -0.0238
# 6 -0.0015 -0.0025 -0.1841 96.9806 -0.0238 8.4933
#
#
#
# Elastic Compliance Matrix: (Units=1/GPa)
#
#
# Indices 1 2 3 4 5 6 
#
# 1 0.008712 -0.004034 -0.002548 -0.000004 0.002487 -0.000001
# 2 -0.004034 0.016940 0.000362 0.000002 0.002485 0.000000
# 3 -0.002548 0.000362 0.016108 0.000029 -0.005613 0.000004
# 4 -0.000004 0.000002 0.000029 -0.000598 -0.000002 0.006827
# 5 0.002487 0.002485 -0.005613 -0.000002 0.033209 -0.000005
# 6 -0.000001 0.000000 0.000004 0.006827 -0.000005 0.039782
#
#
# Mechanical properties :
#
#
# Convention : Reuss Voigt Hill
#
# Bulk Modulus (GPa) = 34.10747 42.36281 38.23514
# Shear Modulus (GPa) = 36.66590 -89.88346 -26.60878
#
# Velocity S-wave (km/s) = 4.19566 -6.56914 -3.57422
# Velocity P-wave (km/s) = 6.31242 6.09914 1.15045
#
# Compressibility (1/GPa) = 0.02931909
#
# Stress axis : x y z
#
# Youngs Moduli (GPa) = 114.78916 59.03135 62.08118
#
# Poissons Ratio (x) = 0.23814 0.15820
# Poissons Ratio (y) = 0.46308 -0.02248
# Poissons Ratio (z) = 0.29251 -0.02137
#
# Static dielectric constant tensor:
#      x y z
#    x 1.781340 0.000000 0.063630 
#    y 0.000000 1.760950 0.000000 
#    z 0.063630 0.000000 1.788660 
# 
# From -- ./inp_files/314456.got.cif
#   From: 2010.05.17/outbox.cif.g08.bks.cpg/sg15_158_cif.got.tgz:314456.got - 2010.06.03 18:47:42.
