data_PCOD9282369
_publ_section_title
;
Structure prediction by ZEFSAII (Michael W. Deem and Ramdas Pophale) SiO2 
 PCOD9282369
Probable space group: C 2/C
;
_chemical_formula_sum "Si O2"
_cell_formula_units_Z 32
_cell_length_a 19.758380
_cell_length_b 5.129797
_cell_length_c 15.799902
_cell_angle_alpha 90.000000
_cell_angle_beta 136.158671
_cell_angle_gamma 90.000000
_cell_volume 1109.247054
_symmetry_space_group_name_H-M "C 2/C"
_symmetry_group_IT_number 15
_symmetry_cell_setting 'monoclinic'
loop_
_space_group_symop_operation_xyz
x,y,z
-x,y,1/2-z
-x,-y,-z
x,-y,1/2+z
1/2+x,1/2+y,z
1/2-x,1/2+y,1/2-z
1/2-x,1/2-y,-z
1/2+x,1/2-y,1/2+z
loop_
_atom_site_type_symbol
_atom_site_label
_atom_site_fract_x
_atom_site_fract_y
_atom_site_fract_z
Si Si1 0.633928 0.177338 0.888282
Si Si2 0.841556 0.831846 0.022129
Si Si3 0.593904 0.797543 0.162787
Si Si4 0.624365 0.309881 0.105589
O O1 0.601994 0.103676 0.765875
O O2 0.750000 0.250000 0.000000
O O3 0.591784 0.460185 0.870181
O O4 0.610702 0.953959 0.935820
O O5 0.828343 0.002676 0.924707
O O6 0.750000 0.750000 0.000000
O O7 0.635741 0.503432 0.196112
O O8 0.649628 0.016592 0.157229
O O9 0.487966 0.740568 0.025974
#
# Coordination Sequence:
#
# PCOD9282369 Si02
#       4
#     8   8   8   8
#     4  10  21  39  61  91 129 169 216 273 331 397
#     4  10  21  39  61  91 129 170 218 269 330 400
#     4  10  21  39  63  92 128 168 216 273 331 394
#     4  10  21  39  63  92 126 168 216 271 332 396
#
# _framework density 28.848396000000001
#
# number of rings (size 3 to 8) (size 9 to 14) (size 15 to 20)
#    0.000    2.000    0.000    3.000    0.000    1.000 
#    0.000   22.500    0.000    0.000    0.000    0.000 
#    0.000    0.000    0.000    0.000    0.000    0.000 
#
# Total GULP energy -89167.298308 kJ/mol
# GULP energy per Si atom -5572.956144 kJ/mol
# Density = 2.878274 g / cm^3
# Si number density = 28.848396 Si / 1000 Ang^3
#
#
#
# Elastic Constant Matrix: (Units=GPa)
#
#
# Indices 1 2 3 4 5 6 
#
# 1 60.9602 51.4073 36.8848 0.0001 -4.7169 0.0001
# 2 51.4073 303.9702 37.7087 0.0003 -27.7922 0.0013
# 3 36.8848 37.7087 143.3861 0.0000 -8.5676 0.0001
# 4 0.0001 0.0003 0.0000 28.9061 0.0000 -33.5654
# 5 -4.7169 -27.7922 -8.5676 0.0000 69.5285 0.0000
# 6 0.0001 0.0013 0.0001 -33.5654 0.0000 37.9722
#
#
#
# Elastic Compliance Matrix: (Units=1/GPa)
#
#
# Indices 1 2 3 4 5 6 
#
# 1 0.021960 -0.003146 -0.004843 -0.000002 -0.000365 -0.000002
# 2 -0.003146 0.003964 -0.000152 0.000007 0.001352 0.000006
# 3 -0.004843 -0.000152 0.008298 0.000000 0.000633 0.000000
# 4 -0.000002 0.000007 0.000000 -1.309010 0.000003 -1.157095
# 5 -0.000365 0.001352 0.000633 0.000003 0.014976 0.000003
# 6 -0.000002 0.000006 0.000000 -1.157095 0.000003 -0.996476
#
#
# Mechanical properties :
#
#
# Convention : Reuss Voigt Hill
#
# Bulk Modulus (GPa) = 55.74741 84.47980 70.11361
# Shear Modulus (GPa) = -2.23811 52.76905 25.26547
#
# Velocity S-wave (km/s) = -0.88176 4.28154 2.96260
# Velocity P-wave (km/s) = 4.28130 7.33415 6.00497
#
# Compressibility (1/GPa) = 0.01793805
#
# Stress axis : x y z
#
# Youngs Moduli (GPa) = 45.53798 252.24064 120.51129
#
# Poissons Ratio (x) = 0.79363 0.58367
# Poissons Ratio (y) = 0.14328 0.01837
# Poissons Ratio (z) = 0.22055 0.03845
#
# Static dielectric constant tensor:
#      x y z
#    x 6.347310 -0.000010 0.537670 
#    y -0.000010 2.637060 0.000000 
#    z 0.537670 0.000000 2.421330 
# 
# From -- ./inp_files/165187.got.cif
#   From: 2010.05.17/outbox.cif.g08.bks.cpg/sg15_83_cif.got.tgz:165187.got - 2010.06.03 18:47:42.
