data_PCOD9282978
_publ_section_title
;
Structure prediction by ZEFSAII (Michael W. Deem and Ramdas Pophale) SiO2 
 PCOD9282978
Probable space group: C 2/C
;
_chemical_formula_sum "Si O2"
_cell_formula_units_Z 52
_cell_length_a 14.203010
_cell_length_b 11.852683
_cell_length_c 14.853582
_cell_angle_alpha 90.000000
_cell_angle_beta 63.468259
_cell_angle_gamma 90.000000
_cell_volume 2237.172156
_symmetry_space_group_name_H-M "C 2/C"
_symmetry_group_IT_number 15
_symmetry_cell_setting 'monoclinic'
loop_
_space_group_symop_operation_xyz
x,y,z
-x,y,1/2-z
-x,-y,-z
x,-y,1/2+z
1/2+x,1/2+y,z
1/2-x,1/2+y,1/2-z
1/2-x,1/2-y,-z
1/2+x,1/2-y,1/2+z
loop_
_atom_site_type_symbol
_atom_site_label
_atom_site_fract_x
_atom_site_fract_y
_atom_site_fract_z
Si Si1 0.500000 0.512006 0.750000
Si Si2 0.986752 0.685391 0.998045
Si Si3 0.800195 0.470310 0.287287
Si Si4 0.752983 0.738543 0.105656
Si Si5 0.569665 0.579756 0.406102
Si Si6 0.775121 0.014476 0.870380
Si Si7 0.096154 0.519573 0.085297
O O1 0.483063 0.439736 0.668032
O O2 0.387544 0.575306 0.812121
O O3 0.875606 0.735915 0.078014
O O4 0.033774 0.617221 0.061416
O O5 0.954999 0.597305 0.931361
O O6 0.058857 0.789752 0.937738
O O7 0.798212 0.343554 0.324792
O O8 0.688439 0.532507 0.352502
O O9 0.805302 0.461972 0.177188
O O10 0.886063 0.526859 0.315559
O O11 0.702992 0.618893 0.149364
O O12 0.750000 0.750000 0.000000
O O13 0.500000 0.500000 0.500000
O O14 0.713106 0.026572 0.989749
#
# Coordination Sequence:
#
# PCOD9282978 Si02
#       7
#     4   8   8   8   8   8   8
#     4  10  22  36  56  96 122 154 214 258 300 370
#     4  10  21  39  66  90 121 169 211 250 315 378
#     4  11  22  37  65  91 125 165 208 261 318 370
#     4  11  19  40  68  87 120 173 210 258 307 371
#     4  11  21  37  62  92 120 162 210 253 308 369
#     4  10  22  37  62  94 124 158 216 256 314 367
#     4  10  22  43  62  90 129 165 203 262 316 369
#
# _framework density 23.24363
#
# number of rings (size 3 to 8) (size 9 to 14) (size 15 to 20)
#    0.000    1.538    4.615    1.846    0.000    3.077 
#    0.000    9.231    0.000    0.000    0.000    0.000 
#    0.000    0.000    0.000    0.000    0.000    0.000 
#
# Total GULP energy -145344.263093 kJ/mol
# GULP energy per Si atom -5590.163965 kJ/mol
# Density = 2.319073 g / cm^3
# Si number density = 23.243630 Si / 1000 Ang^3
#
#
#
# Elastic Constant Matrix: (Units=GPa)
#
#
# Indices 1 2 3 4 5 6 
#
# 1 124.5732 7.7665 26.3508 0.0000 11.1160 0.0000
# 2 7.7665 49.9203 12.1637 0.0000 15.1175 0.0000
# 3 26.3508 12.1637 67.7629 0.0000 22.9574 0.0000
# 4 0.0000 0.0000 0.0000 21.6709 0.0000 0.9049
# 5 11.1160 15.1175 22.9574 0.0000 61.2122 0.0000
# 6 0.0000 0.0000 0.0000 0.9049 0.0000 18.9439
#
#
#
# Elastic Compliance Matrix: (Units=1/GPa)
#
#
# Indices 1 2 3 4 5 6 
#
# 1 0.008765 -0.000498 -0.003232 0.000000 -0.000256 0.000000
# 2 -0.000498 0.022019 -0.002230 0.000000 -0.004511 0.000000
# 3 -0.003232 -0.002230 0.018362 0.000000 -0.005749 0.000000
# 4 0.000000 0.000000 0.000000 0.046237 0.000000 -0.002209
# 5 -0.000256 -0.004511 -0.005749 0.000000 0.019653 0.000000
# 6 0.000000 0.000000 0.000000 -0.002209 0.000000 0.052893
#
#
# Mechanical properties :
#
#
# Convention : Reuss Voigt Hill
#
# Bulk Modulus (GPa) = 26.86406 37.20204 32.03305
# Shear Modulus (GPa) = 26.00650 33.43043 29.71847
#
# Velocity S-wave (km/s) = 3.34857 3.79656 3.57958
# Velocity P-wave (km/s) = 5.15105 5.93788 5.55841
#
# Compressibility (1/GPa) = 0.03722446
#
# Stress axis : x y z
#
# Youngs Moduli (GPa) = 114.08948 45.41525 54.45963
#
# Poissons Ratio (x) = 0.02264 0.17602
# Poissons Ratio (y) = 0.05687 0.12146
# Poissons Ratio (z) = 0.36875 0.10129
#
# Static dielectric constant tensor:
#      x y z
#    x 1.916130 0.000000 -0.029630 
#    y 0.000000 1.843250 0.000000 
#    z -0.029630 0.000000 1.916680 
# 
# From -- ./inp_files/152541.got.cif
#   From: 2010.05.17/outbox.cif.g08.bks.cpg/sg15_77_cif.got.tgz:152541.got - 2010.06.03 18:47:42.
