data_PCOD9282618
_publ_section_title
;
Structure prediction by ZEFSAII (Michael W. Deem and Ramdas Pophale) SiO2 
 PCOD9282618
Probable space group: C 2/C
;
_chemical_formula_sum "Si O2"
_cell_formula_units_Z 52
_cell_length_a 5.290144
_cell_length_b 30.474763
_cell_length_c 13.946371
_cell_angle_alpha 90.000000
_cell_angle_beta 79.825893
_cell_angle_gamma 90.000000
_cell_volume 2213.022021
_symmetry_space_group_name_H-M "C 2/C"
_symmetry_group_IT_number 15
_symmetry_cell_setting 'monoclinic'
loop_
_space_group_symop_operation_xyz
x,y,z
-x,y,1/2-z
-x,-y,-z
x,-y,1/2+z
1/2+x,1/2+y,z
1/2-x,1/2+y,1/2-z
1/2-x,1/2-y,-z
1/2+x,1/2-y,1/2+z
loop_
_atom_site_type_symbol
_atom_site_label
_atom_site_fract_x
_atom_site_fract_y
_atom_site_fract_z
Si Si1 0.637546 0.889751 0.396197
Si Si2 0.380936 0.514454 0.863026
Si Si3 0.282930 0.616963 0.092322
Si Si4 0.784979 0.237112 0.688509
Si Si5 0.869739 0.152514 0.587109
Si Si6 0.879549 0.520166 0.362531
Si Si7 0.000000 0.320457 0.750000
O O1 0.741239 0.938590 0.373497
O O2 0.591924 0.883112 0.513462
O O3 0.379439 0.874512 0.363258
O O4 0.884163 0.859094 0.364219
O O5 0.500000 0.505453 0.750000
O O6 0.647501 0.512781 0.904259
O O7 0.145125 0.482068 0.904123
O O8 0.263351 0.566942 0.128163
O O9 0.199199 0.649024 0.181680
O O10 0.537058 0.634487 0.022443
O O11 0.500000 0.233744 0.750000
O O12 0.810761 0.204216 0.597564
O O13 0.864132 0.288401 0.680872
O O14 0.000000 0.221636 0.750000
O O15 0.000000 0.510709 0.250000
#
# Coordination Sequence:
#
# PCOD9282618 Si02
#       7
#     8   8   8   8   8   8   4
#     4  10  23  40  64  98 130 174 210 271 318 385
#     4  10  22  39  61  94 131 172 220 260 319 377
#     4  10  24  42  67  96 131 171 220 267 329 383
#     4  10  23  44  69  98 126 170 213 267 332 395
#     4  10  23  42  64  99 131 165 214 267 329 382
#     4  10  21  39  63  92 129 173 216 271 312 379
#     4  10  24  48  70  98 122 176 222 270 330 404
#
# _framework density 23.49728
#
# number of rings (size 3 to 8) (size 9 to 14) (size 15 to 20)
#    1.385    0.615    0.769    1.846    2.154    4.923 
#    0.000    1.538    0.000    0.000    0.000    0.000 
#    0.000    0.000    0.000    0.000    0.000    0.000 
#
# Total GULP energy -144769.812684 kJ/mol
# GULP energy per Si atom -5568.069719 kJ/mol
# Density = 2.344380 g / cm^3
# Si number density = 23.497280 Si / 1000 Ang^3
#
#
#
# Elastic Constant Matrix: (Units=GPa)
#
#
# Indices 1 2 3 4 5 6 
#
# 1 85.1919 -87.9452 20.7372 0.0000 -9.7156 0.0000
# 2 -87.9452 -58.6178 -3.4330 0.0000 4.9720 0.0000
# 3 20.7372 -3.4330 64.6640 0.0000 -17.8353 0.0000
# 4 0.0000 0.0000 0.0000 160.6057 0.0000 11.2403
# 5 -9.7156 4.9720 -17.8353 0.0000 18.0819 0.0000
# 6 0.0000 0.0000 0.0000 11.2403 0.0000 21.1773
#
#
#
# Elastic Compliance Matrix: (Units=1/GPa)
#
#
# Indices 1 2 3 4 5 6 
#
# 1 0.005014 -0.007151 -0.000965 0.000000 0.003709 0.000000
# 2 -0.007151 -0.006458 0.001896 0.000000 -0.000196 0.000000
# 3 -0.000965 0.001896 0.021413 0.000000 0.020082 0.000000
# 4 0.000000 0.000000 0.000000 0.006467 0.000000 -0.003432
# 5 0.003709 -0.000196 0.020082 0.000000 0.077158 0.000000
# 6 0.000000 0.000000 0.000000 -0.003432 0.000000 0.049042
#
#
# Mechanical properties :
#
#
# Convention : Reuss Voigt Hill
#
# Bulk Modulus (GPa) = 132.79905 -5.56043 63.61931
# Shear Modulus (GPa) = 29.83568 50.76491 40.30030
#
# Velocity S-wave (km/s) = 3.56722 4.65312 4.14588
# Velocity P-wave (km/s) = 8.57941 5.14753 7.07472
#
# Compressibility (1/GPa) = 0.00753017
#
# Stress axis : x y z
#
# Youngs Moduli (GPa) = 199.45179 -154.83661 46.69977
#
# Poissons Ratio (x) = -1.10725 0.04504
# Poissons Ratio (y) = 1.42630 -0.08856
# Poissons Ratio (z) = 0.19238 0.29363
#
# Static dielectric constant tensor:
#      x y z
#    x 1.916890 0.000000 0.111870 
#    y 0.000000 1.923330 0.000000 
#    z 0.111870 0.000000 1.984520 
# 
# From -- ./inp_files/186388.got.cif
#   From: 2010.05.17/outbox.cif.g08.bks.cpg/sg15_94_cif.got.tgz:186388.got - 2010.06.03 18:47:42.
