data_PCOD9282268
_publ_section_title
;
Structure prediction by ZEFSAII (Michael W. Deem and Ramdas Pophale) SiO2 
 PCOD9282268
Probable space group: C 2/C
;
_chemical_formula_sum "Si O2"
_cell_formula_units_Z 44
_cell_length_a 11.557246
_cell_length_b 21.060318
_cell_length_c 8.693458
_cell_angle_alpha 90.000000
_cell_angle_beta 81.320758
_cell_angle_gamma 90.000000
_cell_volume 2091.750482
_symmetry_space_group_name_H-M "C 2/C"
_symmetry_group_IT_number 15
_symmetry_cell_setting 'monoclinic'
loop_
_space_group_symop_operation_xyz
x,y,z
-x,y,1/2-z
-x,-y,-z
x,-y,1/2+z
1/2+x,1/2+y,z
1/2-x,1/2+y,1/2-z
1/2-x,1/2-y,-z
1/2+x,1/2-y,1/2+z
loop_
_atom_site_type_symbol
_atom_site_label
_atom_site_fract_x
_atom_site_fract_y
_atom_site_fract_z
Si Si1 0.679506 0.709518 0.838970
Si Si2 0.727117 0.017626 0.495353
Si Si3 0.360597 0.686172 0.297164
Si Si4 0.177741 0.408641 0.727166
Si Si5 0.634312 0.426889 0.261101
Si Si6 0.500000 0.803498 0.750000
O O1 0.792508 0.749404 0.761326
O O2 0.660890 0.647635 0.739662
O O3 0.569259 0.757341 0.850200
O O4 0.679750 0.686223 0.015455
O O5 0.653433 0.067054 0.407008
O O6 0.825864 0.052360 0.576772
O O7 0.663181 0.970173 0.624687
O O8 0.790192 0.970515 0.365097
O O9 0.500000 0.688263 0.250000
O O10 0.305465 0.624820 0.221585
O O11 0.098437 0.352688 0.676142
O O12 0.500000 0.437887 0.250000
#
# Coordination Sequence:
#
# PCOD9282268 Si02
#       6
#     8   8   8   8   8   4
#     4  10  21  39  60  90 119 160 202 251 304 359
#     4  10  23  38  58  89 124 160 202 245 302 368
#     4  10  22  38  61  86 124 159 200 251 308 359
#     4  10  22  40  62  90 122 160 205 250 303 362
#     4  11  21  37  60  89 124 157 198 251 303 362
#     4  10  22  40  64  86 120 162 206 254 300 354
#
# _framework density 21.035012999999999
#
# number of rings (size 3 to 8) (size 9 to 14) (size 15 to 20)
#    0.000    1.818    2.727    0.545    2.545    5.091 
#    0.000    3.636    8.000    0.000    0.000    0.000 
#    0.000    0.000    0.000    0.000    0.000    0.000 
#
# Total GULP energy -122579.327465 kJ/mol
# GULP energy per Si atom -5571.787612 kJ/mol
# Density = 2.098714 g / cm^3
# Si number density = 21.035013 Si / 1000 Ang^3
#
#
#
# Elastic Constant Matrix: (Units=GPa)
#
#
# Indices 1 2 3 4 5 6 
#
# 1 80.3913 24.8784 5.8493 0.0000 4.5548 0.0000
# 2 24.8784 113.1802 19.0043 0.0000 11.2979 0.0000
# 3 5.8493 19.0043 39.8262 0.0000 10.7227 0.0000
# 4 0.0000 0.0000 0.0000 55.6139 0.0000 23.0992
# 5 4.5548 11.2979 10.7227 0.0000 14.0434 0.0000
# 6 0.0000 0.0000 0.0000 23.0992 0.0000 32.5130
#
#
#
# Elastic Compliance Matrix: (Units=1/GPa)
#
#
# Indices 1 2 3 4 5 6 
#
# 1 0.013407 -0.002721 -0.000112 0.000000 -0.002073 0.000000
# 2 -0.002721 0.010484 -0.003235 0.000000 -0.005082 0.000000
# 3 -0.000112 -0.003235 0.032676 0.000000 -0.022311 0.000000
# 4 0.000000 0.000000 0.000000 0.025508 0.000000 -0.018123
# 5 -0.002073 -0.005082 -0.022311 0.000000 0.093004 0.000000
# 6 0.000000 0.000000 0.000000 -0.018123 0.000000 0.043632
#
#
# Mechanical properties :
#
#
# Convention : Reuss Voigt Hill
#
# Bulk Modulus (GPa) = 22.50719 36.98461 29.74590
# Shear Modulus (GPa) = 20.35345 32.67844 26.51595
#
# Velocity S-wave (km/s) = 3.11400 3.94576 3.55429
# Velocity P-wave (km/s) = 4.86338 6.19510 5.56919
#
# Compressibility (1/GPa) = 0.04443024
#
# Stress axis : x y z
#
# Youngs Moduli (GPa) = 74.58834 95.38277 30.60337
#
# Poissons Ratio (x) = 0.25955 0.00344
# Poissons Ratio (y) = 0.20297 0.09900
# Poissons Ratio (z) = 0.00838 0.30856
#
# Static dielectric constant tensor:
#      x y z
#    x 1.765320 0.000000 0.032710 
#    y 0.000000 1.790940 0.000000 
#    z 0.032710 0.000000 1.805500 
# 
# From -- ./inp_files/30833.got.cif
#   From: 2010.05.17/outbox.cif.g08.bks.cpg/sg15_16_cif.got.tgz:30833.got - 2010.06.03 18:47:42.
