data_PCOD9282426
_publ_section_title
;
Structure prediction by ZEFSAII (Michael W. Deem and Ramdas Pophale) SiO2 
 PCOD9282426
Probable space group: C 2/C
;
_chemical_formula_sum "Si O2"
_cell_formula_units_Z 40
_cell_length_a 13.879972
_cell_length_b 17.247556
_cell_length_c 11.703038
_cell_angle_alpha 90.000000
_cell_angle_beta 139.694801
_cell_angle_gamma 90.000000
_cell_volume 1812.276176
_symmetry_space_group_name_H-M "C 2/C"
_symmetry_group_IT_number 15
_symmetry_cell_setting 'monoclinic'
loop_
_space_group_symop_operation_xyz
x,y,z
-x,y,1/2-z
-x,-y,-z
x,-y,1/2+z
1/2+x,1/2+y,z
1/2-x,1/2+y,1/2-z
1/2-x,1/2-y,-z
1/2+x,1/2-y,1/2+z
loop_
_atom_site_type_symbol
_atom_site_label
_atom_site_fract_x
_atom_site_fract_y
_atom_site_fract_z
Si Si1 0.658089 0.094064 0.449546
Si Si2 0.144885 0.703849 0.657294
Si Si3 0.106307 0.768480 0.943952
Si Si4 0.886968 0.995713 0.746991
Si Si5 0.895019 0.879834 0.965137
O O1 0.500000 0.086056 0.250000
O O2 0.644185 0.151848 0.544215
O O3 0.725189 0.013121 0.552360
O O4 0.773777 0.119861 0.456270
O O5 0.117951 0.793695 0.596722
O O6 0.996133 0.697424 0.601720
O O7 0.302627 0.693583 0.866595
O O8 0.000000 0.806641 0.750000
O O9 0.250000 0.750000 0.000000
O O10 0.000000 0.969708 0.750000
O O11 0.870639 0.938054 0.837286
O O12 0.957669 0.079383 0.848301
#
# Coordination Sequence:
#
# PCOD9282426 Si02
#       5
#     8   8   8   8   8
#     4  11  23  38  60  95 131 164 204 259 324 378
#     4  11  20  36  62  91 125 161 208 264 317 371
#     4   9  20  36  54  84 124 159 196 249 310 374
#     4   9  21  41  62  86 122 171 221 260 304 374
#     4  10  21  39  62  88 121 168 217 260 308 372
#
# _framework density 22.071691000000001
#
# number of rings (size 3 to 8) (size 9 to 14) (size 15 to 20)
#    0.000    2.000    0.000    3.000    0.000    5.600 
#    0.000    9.000    0.000    0.000    0.000    0.000 
#    0.000    0.000    0.000    0.000    0.000    0.000 
#
# Total GULP energy -111388.375078 kJ/mol
# GULP energy per Si atom -5569.418754 kJ/mol
# Density = 2.202146 g / cm^3
# Si number density = 22.071691 Si / 1000 Ang^3
#
#
#
# Elastic Constant Matrix: (Units=GPa)
#
#
# Indices 1 2 3 4 5 6 
#
# 1 160.2296 48.7491 66.7871 0.0000 -6.9793 0.0000
# 2 48.7491 64.5303 37.3279 0.0000 -1.6289 0.0000
# 3 66.7871 37.3279 204.9440 0.0000 -5.3214 0.0000
# 4 0.0000 0.0000 0.0000 -1.8409 0.0000 -18.9739
# 5 -6.9793 -1.6289 -5.3214 0.0000 38.4891 0.0000
# 6 0.0000 0.0000 0.0000 -18.9739 0.0000 12.3361
#
#
#
# Elastic Compliance Matrix: (Units=1/GPa)
#
#
# Indices 1 2 3 4 5 6 
#
# 1 0.008720 -0.005514 -0.001809 0.000000 0.001098 0.000000
# 2 -0.005514 0.020811 -0.002004 0.000000 -0.000396 0.000000
# 3 -0.001809 -0.002004 0.005844 0.000000 0.000395 0.000000
# 4 0.000000 0.000000 0.000000 -0.032233 0.000000 -0.049577
# 5 0.001098 -0.000396 0.000395 0.000000 0.026218 0.000000
# 6 0.000000 0.000000 0.000000 -0.049577 0.000000 0.004810
#
#
# Mechanical properties :
#
#
# Convention : Reuss Voigt Hill
#
# Bulk Modulus (GPa) = 59.80030 81.71468 70.75749
# Shear Modulus (GPa) = 85.61841 28.25283 56.93562
#
# Velocity S-wave (km/s) = 6.23500 3.58166 5.08446
# Velocity P-wave (km/s) = 8.88742 7.36255 8.16068
#
# Compressibility (1/GPa) = 0.01672233
#
# Stress axis : x y z
#
# Youngs Moduli (GPa) = 114.67343 48.05135 171.11051
#
# Poissons Ratio (x) = 0.26494 0.30955
# Poissons Ratio (y) = 0.63227 0.34290
# Poissons Ratio (z) = 0.20745 0.09629
#
# Static dielectric constant tensor:
#      x y z
#    x 1.814400 0.000000 0.017710 
#    y 0.000000 1.799860 0.000000 
#    z 0.017710 0.000000 1.848980 
# 
# From -- ./inp_files/89879.got.cif
#   From: 2010.05.17/outbox.cif.g08.bks.cpg/sg15_45_cif.got.tgz:89879.got - 2010.06.03 18:47:42.
