data_PCOD9282497
_publ_section_title
;
Structure prediction by ZEFSAII (Michael W. Deem and Ramdas Pophale) SiO2 
 PCOD9282497
Probable space group: C 2/C
;
_chemical_formula_sum "Si O2"
_cell_formula_units_Z 48
_cell_length_a 9.687056
_cell_length_b 25.244208
_cell_length_c 13.357385
_cell_angle_alpha 90.000000
_cell_angle_beta 144.265138
_cell_angle_gamma 90.000000
_cell_volume 1907.717408
_symmetry_space_group_name_H-M "C 2/C"
_symmetry_group_IT_number 15
_symmetry_cell_setting 'monoclinic'
loop_
_space_group_symop_operation_xyz
x,y,z
-x,y,1/2-z
-x,-y,-z
x,-y,1/2+z
1/2+x,1/2+y,z
1/2-x,1/2+y,1/2-z
1/2-x,1/2-y,-z
1/2+x,1/2-y,1/2+z
loop_
_atom_site_type_symbol
_atom_site_label
_atom_site_fract_x
_atom_site_fract_y
_atom_site_fract_z
Si Si1 0.603994 0.440149 0.581303
Si Si2 0.193858 0.866412 0.944097
Si Si3 0.562698 0.619918 0.691709
Si Si4 0.497093 0.783759 0.637790
Si Si5 0.908900 0.299269 0.361649
Si Si6 0.996549 0.439028 0.974368
O O1 0.500000 0.500000 0.500000
O O2 0.426867 0.403676 0.543706
O O3 0.615922 0.410928 0.482261
O O4 0.849792 0.436264 0.785225
O O5 0.355450 0.907642 0.977205
O O6 0.000000 0.847951 0.750000
O O7 0.356319 0.814672 0.061872
O O8 0.500000 0.656358 0.750000
O O9 0.715161 0.658251 0.712518
O O10 0.736744 0.580090 0.851931
O O11 0.500000 0.810680 0.750000
O O12 0.250000 0.750000 0.500000
O O13 0.751692 0.753754 0.774540
O O14 0.477301 0.812152 0.518736
O O15 0.000000 0.500000 0.000000
#
# Coordination Sequence:
#
# PCOD9282497 Si02
#       6
#     8   8   8   8   8   8
#     4  11  23  41  68  93 125 193 232 283 358 408
#     4   9  22  43  64  92 143 181 232 294 349 431
#     4  11  24  41  62  96 136 170 232 292 346 425
#     4   9  18  38  71 100 135 177 230 287 352 447
#     4  10  21  43  66 101 137 182 226 294 362 416
#     4  10  21  39  62  93 129 171 229 290 344 421
#
# _framework density 25.160959999999999
#
# number of rings (size 3 to 8) (size 9 to 14) (size 15 to 20)
#    0.000    2.000    1.667    1.500    2.333    3.333 
#   27.000    0.833    0.000    0.000    0.000    0.000 
#    0.000    0.000    0.000    0.000    0.000    0.000 
#
# Total GULP energy -133732.152422 kJ/mol
# GULP energy per Si atom -5572.173018 kJ/mol
# Density = 2.510369 g / cm^3
# Si number density = 25.160960 Si / 1000 Ang^3
#
#
#
# Elastic Constant Matrix: (Units=GPa)
#
#
# Indices 1 2 3 4 5 6 
#
# 1 101.4348 25.6641 60.3697 0.0000 3.9530 0.0000
# 2 25.6641 75.3624 37.1313 0.0000 4.5435 0.0000
# 3 60.3697 37.1313 152.8583 0.0000 -10.7251 0.0000
# 4 0.0000 0.0000 0.0000 47.2487 0.0000 -3.0574
# 5 3.9530 4.5435 -10.7251 0.0000 47.4312 0.0000
# 6 0.0000 0.0000 0.0000 -3.0574 0.0000 13.5357
#
#
#
# Elastic Compliance Matrix: (Units=1/GPa)
#
#
# Indices 1 2 3 4 5 6 
#
# 1 0.013387 -0.001999 -0.004945 0.000000 -0.002042 0.000000
# 2 -0.001999 0.015625 -0.003149 0.000000 -0.002042 0.000000
# 3 -0.004945 -0.003149 0.009460 0.000000 0.002853 0.000000
# 4 0.000000 0.000000 0.000000 0.021479 0.000000 0.004852
# 5 -0.002042 -0.002042 0.002853 0.000000 0.022094 0.000000
# 6 0.000000 0.000000 0.000000 0.004852 0.000000 0.074974
#
#
# Mechanical properties :
#
#
# Convention : Reuss Voigt Hill
#
# Bulk Modulus (GPa) = 54.68871 63.99842 59.34356
# Shear Modulus (GPa) = 27.27772 35.40915 31.34344
#
# Velocity S-wave (km/s) = 3.29618 3.75548 3.53330
# Velocity P-wave (km/s) = 6.02239 6.65550 6.34684
#
# Compressibility (1/GPa) = 0.01828531
#
# Stress axis : x y z
#
# Youngs Moduli (GPa) = 74.70040 64.00086 105.70908
#
# Poissons Ratio (x) = 0.12797 0.52269
# Poissons Ratio (y) = 0.14936 0.33289
# Poissons Ratio (z) = 0.36936 0.20154
#
# Static dielectric constant tensor:
#      x y z
#    x 2.757760 0.000000 0.230950 
#    y 0.000000 1.998670 0.000000 
#    z 0.230950 0.000000 2.066080 
# 
# From -- ./inp_files/148824.got.cif
#   From: 2010.05.17/outbox.cif.g08.bks.cpg/sg15_75_cif.got.tgz:148824.got - 2010.06.03 18:47:42.
