data_PCOD9282104
_publ_section_title
;
Structure prediction by ZEFSAII (Michael W. Deem and Ramdas Pophale) SiO2 
 PCOD9282104
Probable space group: C 2/C
;
_chemical_formula_sum "Si O2"
_cell_formula_units_Z 40
_cell_length_a 18.819985
_cell_length_b 5.023742
_cell_length_c 15.620673
_cell_angle_alpha 90.000000
_cell_angle_beta 94.074407
_cell_angle_gamma 90.000000
_cell_volume 1473.151204
_symmetry_space_group_name_H-M "C 2/C"
_symmetry_group_IT_number 15
_symmetry_cell_setting 'monoclinic'
loop_
_space_group_symop_operation_xyz
x,y,z
-x,y,1/2-z
-x,-y,-z
x,-y,1/2+z
1/2+x,1/2+y,z
1/2-x,1/2+y,1/2-z
1/2-x,1/2-y,-z
1/2+x,1/2-y,1/2+z
loop_
_atom_site_type_symbol
_atom_site_label
_atom_site_fract_x
_atom_site_fract_y
_atom_site_fract_z
Si Si1 0.850369 0.284980 0.304944
Si Si2 0.424795 0.473093 0.073180
Si Si3 0.946181 0.458488 0.172435
Si Si4 0.758944 0.958975 0.078950
Si Si5 0.624814 0.726200 0.597557
O O1 0.871939 0.406047 0.216489
O O2 0.795610 0.709712 0.432660
O O3 0.868797 0.979565 0.323786
O O4 0.894560 0.477460 0.374747
O O5 0.440435 0.168931 0.095942
O O6 0.341764 0.508743 0.091676
O O7 0.467169 0.670485 0.138463
O O8 0.424135 0.588670 0.977357
O O9 0.000000 0.553231 0.250000
O O10 0.728806 0.831738 0.165376
O O11 0.750000 0.750000 0.000000
#
# Coordination Sequence:
#
# PCOD9282104 Si02
#       5
#     8   8   8   8   8
#     4  10  23  40  67  94 141 164 212 277 339 385
#     4  12  23  41  73  95 128 178 220 266 347 393
#     4  12  28  47  61  91 139 184 229 276 316 383
#     4  10  21  38  73 103 135 155 208 281 344 401
#     4  10  21  40  67 105 129 162 213 273 336 405
#
# _framework density 27.152676
#
# number of rings (size 3 to 8) (size 9 to 14) (size 15 to 20)
#    1.200    0.000    2.000    4.800    2.800    1.600 
#    0.000    6.000    0.000    0.000    0.000    0.000 
#    0.000    0.000    0.000    0.000    0.000    0.000 
#
# Total GULP energy -111872.767884 kJ/mol
# GULP energy per Si atom -5593.638394 kJ/mol
# Density = 2.709088 g / cm^3
# Si number density = 27.152676 Si / 1000 Ang^3
#
#
#
# Elastic Constant Matrix: (Units=GPa)
#
#
# Indices 1 2 3 4 5 6 
#
# 1 101.2985 10.3005 10.6419 0.0000 -16.6920 0.0000
# 2 10.3005 155.2913 36.0213 0.0000 -3.9380 0.0000
# 3 10.6419 36.0213 69.3627 0.0000 -4.1102 0.0000
# 4 0.0000 0.0000 0.0000 59.6502 0.0000 -1.0660
# 5 -16.6920 -3.9380 -4.1102 0.0000 46.5984 0.0000
# 6 0.0000 0.0000 0.0000 -1.0660 0.0000 42.1282
#
#
#
# Elastic Compliance Matrix: (Units=1/GPa)
#
#
# Indices 1 2 3 4 5 6 
#
# 1 0.010641 -0.000323 -0.001247 0.000000 0.003674 0.000000
# 2 -0.000323 0.007335 -0.003749 0.000000 0.000173 0.000000
# 3 -0.001247 -0.003749 0.016597 0.000000 0.000700 0.000000
# 4 0.000000 0.000000 0.000000 0.016772 0.000000 0.000424
# 5 0.003674 0.000173 0.000700 0.000000 0.022853 0.000000
# 6 0.000000 0.000000 0.000000 0.000424 0.000000 0.023748
#
#
# Mechanical properties :
#
#
# Convention : Reuss Voigt Hill
#
# Bulk Modulus (GPa) = 41.78197 48.87554 45.32876
# Shear Modulus (GPa) = 42.89536 47.60795 45.25166
#
# Velocity S-wave (km/s) = 3.97896 4.19184 4.08679
# Velocity P-wave (km/s) = 6.04406 6.43957 6.24495
#
# Compressibility (1/GPa) = 0.02393377
#
# Stress axis : x y z
#
# Youngs Moduli (GPa) = 93.97459 136.33175 60.25236
#
# Poissons Ratio (x) = 0.04409 0.07513
# Poissons Ratio (y) = 0.03039 0.22591
# Poissons Ratio (z) = 0.11718 0.51115
#
# Static dielectric constant tensor:
#      x y z
#    x 2.260000 0.000000 -0.083300 
#    y 0.000000 2.051210 0.000000 
#    z -0.083300 0.000000 2.157860 
# 
# From -- ./inp_files/217338.got.cif
#   From: 2010.05.17/outbox.cif.g08.bks.cpg/sg15_109_cif.got.tgz:217338.got - 2010.06.03 18:47:42.
