data_PCOD9282509
_publ_section_title
;
Structure prediction by ZEFSAII (Michael W. Deem and Ramdas Pophale) SiO2 
 PCOD9282509
Probable space group: C 2/C
;
_chemical_formula_sum "Si O2"
_cell_formula_units_Z 60
_cell_length_a 10.065625
_cell_length_b 27.425628
_cell_length_c 15.766236
_cell_angle_alpha 90.000000
_cell_angle_beta 35.685433
_cell_angle_gamma 90.000000
_cell_volume 2538.885889
_symmetry_space_group_name_H-M "C 2/C"
_symmetry_group_IT_number 15
_symmetry_cell_setting 'monoclinic'
loop_
_space_group_symop_operation_xyz
x,y,z
-x,y,1/2-z
-x,-y,-z
x,-y,1/2+z
1/2+x,1/2+y,z
1/2-x,1/2+y,1/2-z
1/2-x,1/2-y,-z
1/2+x,1/2-y,1/2+z
loop_
_atom_site_type_symbol
_atom_site_label
_atom_site_fract_x
_atom_site_fract_y
_atom_site_fract_z
Si Si1 0.748129 0.754066 0.791436
Si Si2 0.471278 0.438707 0.118189
Si Si3 0.287183 0.973279 0.408990
Si Si4 0.468400 0.945415 0.052446
Si Si5 0.129739 0.810930 0.504616
Si Si6 0.732175 0.145829 0.399058
Si Si7 0.250000 0.750000 0.000000
Si Si8 0.749442 0.145780 0.091517
O O1 0.986083 0.766733 0.623524
O O2 0.684761 0.804995 0.871228
O O3 0.751856 0.711877 0.859882
O O4 0.534800 0.742601 0.842790
O O5 0.332697 0.441274 0.100856
O O6 0.292943 0.438113 0.286727
O O7 0.615698 0.488117 0.038097
O O8 0.637652 0.393344 0.028997
O O9 0.500000 0.998563 0.250000
O O10 0.391818 0.944208 0.432054
O O11 0.576127 0.898903 0.949916
O O12 0.500000 0.000000 0.000000
O O13 0.926693 0.846178 0.577116
O O14 0.283723 0.837478 0.494285
O O15 0.000000 0.133287 0.250000
O O16 0.232544 0.697957 0.056585
O O17 0.500000 0.129841 0.250000
#
# Coordination Sequence:
#
# PCOD9282509 Si02
#       8
#     8   8   8   8   8   8   4   8
#     4  10  21  39  62  94 130 173 221 268 334 396
#     4  10  22  40  66  96 123 174 225 271 331 414
#     4   9  20  42  65  93 126 161 216 275 333 401
#     4  11  25  42  63  95 132 168 213 279 352 400
#     4  10  21  40  65  97 132 178 224 277 334 397
#     4  10  23  41  63  92 128 175 222 271 335 409
#     4  10  22  38  58  94 136 172 214 274 336 390
#     4  11  21  39  65  96 134 180 227 273 335 398
#
# _framework density 23.632411999999999
#
# number of rings (size 3 to 8) (size 9 to 14) (size 15 to 20)
#    0.000    1.867    1.333    1.600    1.867    3.200 
#    7.200    1.333    0.000    0.000    0.000    0.000 
#    0.000    0.000    0.000    0.000    0.000    0.000 
#
# Total GULP energy -167252.047424 kJ/mol
# GULP energy per Si atom -5575.068247 kJ/mol
# Density = 2.357862 g / cm^3
# Si number density = 23.632412 Si / 1000 Ang^3
#
#
#
# Elastic Constant Matrix: (Units=GPa)
#
#
# Indices 1 2 3 4 5 6 
#
# 1 51.3902 9.6795 8.0256 0.0000 -14.5639 0.0000
# 2 9.6795 89.1221 49.2909 0.0000 5.0061 0.0000
# 3 8.0256 49.2909 102.2112 0.0000 -6.9197 0.0000
# 4 0.0000 0.0000 0.0000 39.5670 0.0000 -2.0888
# 5 -14.5639 5.0061 -6.9197 0.0000 20.4124 0.0000
# 6 0.0000 0.0000 0.0000 -2.0888 0.0000 -3.2085
#
#
#
# Elastic Compliance Matrix: (Units=1/GPa)
#
#
# Indices 1 2 3 4 5 6 
#
# 1 0.025840 -0.004876 0.001691 0.000000 0.020205 0.000000
# 2 -0.004876 0.017085 -0.008572 0.000000 -0.010575 0.000000
# 3 0.001691 -0.008572 0.014338 0.000000 0.008169 0.000000
# 4 0.000000 0.000000 0.000000 0.024434 0.000000 -0.015907
# 5 0.020205 -0.010575 0.008169 0.000000 0.068769 0.000000
# 6 0.000000 0.000000 0.000000 -0.015907 0.000000 -0.301312
#
#
# Mechanical properties :
#
#
# Convention : Reuss Voigt Hill
#
# Bulk Modulus (GPa) = 29.63274 41.85727 35.74500
# Shear Modulus (GPa) = -43.07317 23.06933 -10.00192
#
# Velocity S-wave (km/s) = -4.27386 3.12777 -2.05948
# Velocity P-wave (km/s) = 3.43340 5.54925 3.08269
#
# Compressibility (1/GPa) = 0.03374646
#
# Stress axis : x y z
#
# Youngs Moduli (GPa) = 38.70043 58.52971 69.74496
#
# Poissons Ratio (x) = 0.28541 -0.11791
# Poissons Ratio (y) = 0.18872 0.59788
# Poissons Ratio (z) = -0.06542 0.50174
#
# Static dielectric constant tensor:
#      x y z
#    x 1.963270 0.000000 0.000830 
#    y 0.000000 1.866600 0.000000 
#    z 0.000830 0.000000 1.912050 
# 
# From -- ./inp_files/201243.got.cif
#   From: 2010.05.17/outbox.cif.g08.bks.cpg/sg15_101_cif.got.tgz:201243.got - 2010.06.03 18:47:42.
