data_PCOD9282460
_publ_section_title
;
Structure prediction by ZEFSAII (Michael W. Deem and Ramdas Pophale) SiO2 
 PCOD9282460
Probable space group: C 2/C
;
_chemical_formula_sum "Si O2"
_cell_formula_units_Z 36
_cell_length_a 10.897840
_cell_length_b 14.213250
_cell_length_c 15.442167
_cell_angle_alpha 90.000000
_cell_angle_beta 46.056786
_cell_angle_gamma 90.000000
_cell_volume 1722.231019
_symmetry_space_group_name_H-M "C 2/C"
_symmetry_group_IT_number 15
_symmetry_cell_setting 'monoclinic'
loop_
_space_group_symop_operation_xyz
x,y,z
-x,y,1/2-z
-x,-y,-z
x,-y,1/2+z
1/2+x,1/2+y,z
1/2-x,1/2+y,1/2-z
1/2-x,1/2-y,-z
1/2+x,1/2-y,1/2+z
loop_
_atom_site_type_symbol
_atom_site_label
_atom_site_fract_x
_atom_site_fract_y
_atom_site_fract_z
Si Si1 0.500000 0.842144 0.250000
Si Si2 0.941855 0.952274 0.178458
Si Si3 0.357128 0.068448 0.108819
Si Si4 0.847062 0.230160 0.621850
Si Si5 0.801102 0.896115 0.993865
O O1 0.359624 0.779103 0.269342
O O2 0.381963 0.904603 0.369871
O O3 0.919339 0.852244 0.145855
O O4 0.000000 0.942612 0.250000
O O5 0.076481 0.015048 0.059968
O O6 0.763946 0.009371 0.269108
O O7 0.420961 0.168959 0.111267
O O8 0.238825 0.107994 0.087880
O O9 0.500000 0.000000 0.000000
O O10 0.877319 0.194078 0.507349
#
# Coordination Sequence:
#
# PCOD9282460 Si02
#       5
#     4   8   8   8   8
#     4   8  20  32  66  90 120 148 212 244 304 338
#     4  10  22  39  61  91 126 163 199 248 307 365
#     4  11  23  38  61  91 125 159 202 253 305 358
#     4  10  21  39  62  91 122 161 203 252 302 358
#     4   9  20  37  63  89 120 158 206 251 296 353
#
# _framework density 20.903117000000002
#
# number of rings (size 3 to 8) (size 9 to 14) (size 15 to 20)
#    1.333    0.889    0.000    2.667    4.667    1.778 
#    0.000    6.667    0.000    0.000    0.000    0.000 
#    0.000    0.000    0.000    0.000    0.000    0.000 
#
# Total GULP energy -100264.551165 kJ/mol
# GULP energy per Si atom -5570.252843 kJ/mol
# Density = 2.085554 g / cm^3
# Si number density = 20.903117 Si / 1000 Ang^3
#
#
#
# Elastic Constant Matrix: (Units=GPa)
#
#
# Indices 1 2 3 4 5 6 
#
# 1 29.2882 23.5258 4.4591 0.0000 -3.7281 0.0000
# 2 23.5258 193.0179 58.3471 0.0000 -19.8423 0.0000
# 3 4.4591 58.3471 101.1597 0.0000 -21.4069 0.0000
# 4 0.0000 0.0000 0.0000 11.1899 0.0000 8.2248
# 5 -3.7281 -19.8423 -21.4069 0.0000 29.4216 0.0000
# 6 0.0000 0.0000 0.0000 8.2248 0.0000 17.8117
#
#
#
# Elastic Compliance Matrix: (Units=1/GPa)
#
#
# Indices 1 2 3 4 5 6 
#
# 1 0.038161 -0.004886 0.001728 0.000000 0.002798 0.000000
# 2 -0.004886 0.006991 -0.003487 0.000000 0.001558 0.000000
# 3 0.001728 -0.003487 0.013438 0.000000 0.007645 0.000000
# 4 0.000000 0.000000 0.000000 0.135281 0.000000 -0.062468
# 5 0.002798 0.001558 0.007645 0.000000 0.040956 0.000000
# 6 0.000000 0.000000 0.000000 -0.062468 0.000000 0.084988
#
#
# Mechanical properties :
#
#
# Convention : Reuss Voigt Hill
#
# Bulk Modulus (GPa) = 22.07497 55.12554 38.60026
# Shear Modulus (GPa) = 14.35932 27.49357 20.92644
#
# Velocity S-wave (km/s) = 2.62381 3.63062 3.16747
# Velocity P-wave (km/s) = 4.44553 6.63358 5.64655
#
# Compressibility (1/GPa) = 0.04530017
#
# Stress axis : x y z
#
# Youngs Moduli (GPa) = 26.20465 143.04811 74.41505
#
# Poissons Ratio (x) = 0.69893 -0.12859
# Poissons Ratio (y) = 0.12804 0.25948
# Poissons Ratio (z) = -0.04528 0.49880
#
# Static dielectric constant tensor:
#      x y z
#    x 1.866460 0.000000 0.009510 
#    y 0.000000 1.813450 0.000000 
#    z 0.009510 0.000000 1.765430 
# 
# From -- ./inp_files/94047.got.cif
#   From: 2010.05.17/outbox.cif.g08.bks.cpg/sg15_48_cif.got.tgz:94047.got - 2010.06.03 18:47:42.
