data_PCOD9282217
_publ_section_title
;
Structure prediction by ZEFSAII (Michael W. Deem and Ramdas Pophale) SiO2 
 PCOD9282217
Probable space group: C 2/C
;
_chemical_formula_sum "Si O2"
_cell_formula_units_Z 60
_cell_length_a 28.866044
_cell_length_b 8.724075
_cell_length_c 13.090477
_cell_angle_alpha 90.000000
_cell_angle_beta 64.244763
_cell_angle_gamma 90.000000
_cell_volume 2969.082713
_symmetry_space_group_name_H-M "C 2/C"
_symmetry_group_IT_number 15
_symmetry_cell_setting 'monoclinic'
loop_
_space_group_symop_operation_xyz
x,y,z
-x,y,1/2-z
-x,-y,-z
x,-y,1/2+z
1/2+x,1/2+y,z
1/2-x,1/2+y,1/2-z
1/2-x,1/2-y,-z
1/2+x,1/2-y,1/2+z
loop_
_atom_site_type_symbol
_atom_site_label
_atom_site_fract_x
_atom_site_fract_y
_atom_site_fract_z
Si Si1 0.821569 0.697056 0.011247
Si Si2 0.911160 0.459557 0.972506
Si Si3 0.214257 0.022179 0.833867
Si Si4 0.000000 0.573490 0.750000
Si Si5 0.652328 0.574635 0.199761
Si Si6 0.910082 0.646257 0.695888
Si Si7 0.843441 0.189181 0.942796
Si Si8 0.191308 0.530325 0.134158
O O1 0.873097 0.607094 0.997091
O O2 0.830033 0.815850 0.909890
O O3 0.788791 0.566878 0.983504
O O4 0.799664 0.802731 0.122020
O O5 0.962860 0.478366 0.859098
O O6 0.880033 0.312005 0.961861
O O7 0.924125 0.432377 0.077155
O O8 0.194817 0.978696 0.740546
O O9 0.274347 0.002190 0.800190
O O10 0.186825 0.907807 0.942400
O O11 0.959150 0.664280 0.720941
O O12 0.613909 0.685926 0.296923
O O13 0.629989 0.429068 0.160916
O O14 0.865879 0.535501 0.787601
O O15 0.808866 0.295827 0.902205
#
# Coordination Sequence:
#
# PCOD9282217 Si02
#       8
#     8   8   8   4   8   8   8   8
#     4   9  21  40  59  89 132 167 213 264 302 370
#     4  11  22  43  69  91 120 166 219 264 319 381
#     4  11  21  36  64  89 133 178 200 248 328 369
#     4  12  22  44  74  88 120 164 216 278 324 364
#     4  10  21  39  59  91 132 164 202 260 316 371
#     4  11  23  43  64  95 127 159 217 268 316 375
#     4  10  21  39  60  89 130 167 205 258 310 380
#     4  10  21  40  59  94 130 167 218 255 298 387
#
# _framework density 20.208262000000001
#
# number of rings (size 3 to 8) (size 9 to 14) (size 15 to 20)
#    0.000    1.600    5.333    1.200    1.867    2.133 
#    9.600    0.667    0.000    2.400    0.000    0.000 
#    0.000    0.000    0.000    0.000    0.000    0.000 
#
# Total GULP energy -167351.954970 kJ/mol
# GULP energy per Si atom -5578.398499 kJ/mol
# Density = 2.016227 g / cm^3
# Si number density = 20.208262 Si / 1000 Ang^3
#
#
#
# Elastic Constant Matrix: (Units=GPa)
#
#
# Indices 1 2 3 4 5 6 
#
# 1 115.7366 17.7421 27.5471 0.0000 15.9190 0.0000
# 2 17.7421 101.3749 31.6333 0.0000 3.4226 0.0000
# 3 27.5471 31.6333 63.8519 0.0000 13.1677 0.0000
# 4 0.0000 0.0000 0.0000 24.7840 0.0000 9.5482
# 5 15.9190 3.4226 13.1677 0.0000 35.2961 0.0000
# 6 0.0000 0.0000 0.0000 9.5482 0.0000 7.9922
#
#
#
# Elastic Compliance Matrix: (Units=1/GPa)
#
#
# Indices 1 2 3 4 5 6 
#
# 1 0.009967 -0.000592 -0.003349 0.000000 -0.003188 0.000000
# 2 -0.000592 0.011744 -0.005832 0.000000 0.001304 0.000000
# 3 -0.003349 -0.005832 0.021198 0.000000 -0.005832 0.000000
# 4 0.000000 0.000000 0.000000 0.074755 0.000000 -0.089309
# 5 -0.003188 0.001304 -0.005832 0.000000 0.031819 0.000000
# 6 0.000000 0.000000 0.000000 -0.089309 0.000000 0.231819
#
#
# Mechanical properties :
#
#
# Convention : Reuss Voigt Hill
#
# Bulk Modulus (GPa) = 42.80201 48.31205 45.55703
# Shear Modulus (GPa) = 12.23588 27.21719 19.72654
#
# Velocity S-wave (km/s) = 2.46334 3.67391 3.12775
# Velocity P-wave (km/s) = 5.41453 6.47733 5.96963
#
# Compressibility (1/GPa) = 0.02336339
#
# Stress axis : x y z
#
# Youngs Moduli (GPa) = 100.33407 85.15273 47.17425
#
# Poissons Ratio (x) = 0.05037 0.15800
# Poissons Ratio (y) = 0.05935 0.27510
# Poissons Ratio (z) = 0.33605 0.49658
#
# Static dielectric constant tensor:
#      x y z
#    x 1.718640 0.000000 0.008620 
#    y 0.000000 1.737560 0.000000 
#    z 0.008620 0.000000 1.776990 
# 
# From -- ./inp_files/172356.got.cif
#   From: 2010.05.17/outbox.cif.g08.bks.cpg/sg15_87_cif.got.tgz:172356.got - 2010.06.03 18:47:42.
