data_PCOD9282283
_publ_section_title
;
Structure prediction by ZEFSAII (Michael W. Deem and Ramdas Pophale) SiO2 
 PCOD9282283
Probable space group: C 2/C
;
_chemical_formula_sum "Si O2"
_cell_formula_units_Z 60
_cell_length_a 6.948264
_cell_length_b 13.024255
_cell_length_c 27.648862
_cell_angle_alpha 90.000000
_cell_angle_beta 108.527443
_cell_angle_gamma 90.000000
_cell_volume 2372.429909
_symmetry_space_group_name_H-M "C 2/C"
_symmetry_group_IT_number 15
_symmetry_cell_setting 'monoclinic'
loop_
_space_group_symop_operation_xyz
x,y,z
-x,y,1/2-z
-x,-y,-z
x,-y,1/2+z
1/2+x,1/2+y,z
1/2-x,1/2+y,1/2-z
1/2-x,1/2-y,-z
1/2+x,1/2-y,1/2+z
loop_
_atom_site_type_symbol
_atom_site_label
_atom_site_fract_x
_atom_site_fract_y
_atom_site_fract_z
Si Si1 0.961218 0.721692 0.490401
Si Si2 0.678994 0.376261 0.896648
Si Si3 0.031626 0.556917 0.574274
Si Si4 0.000000 0.033722 0.250000
Si Si5 0.520769 0.906563 0.176713
Si Si6 0.845870 0.637503 0.307755
Si Si7 0.873373 0.079452 0.456943
Si Si8 0.657825 0.357947 0.211926
O O1 0.750000 0.750000 0.500000
O O2 0.866217 0.695475 0.431001
O O3 0.022550 0.620346 0.524475
O O4 0.114708 0.815077 0.511401
O O5 0.688824 0.353349 0.840531
O O6 0.480099 0.383634 0.914862
O O7 0.768370 0.489810 0.910309
O O8 0.041327 0.628011 0.622917
O O9 0.838906 0.480256 0.565169
O O10 0.809430 0.103885 0.246229
O O11 0.998815 0.950731 0.293565
O O12 0.532283 0.031964 0.176344
O O13 0.300845 0.877729 0.178206
O O14 0.684440 0.866144 0.229470
O O15 0.939654 0.746154 0.302499
O O16 0.000000 0.000000 0.500000
#
# Coordination Sequence:
#
# PCOD9282283 Si02
#       8
#     8   8   8   4   8   8   8   8
#     4  10  21  39  60  92 124 165 210 254 307 384
#     4  10  23  42  62  93 127 165 213 263 311 384
#     4  11  22  43  63  89 132 160 209 269 311 371
#     4  10  22  38  60  96 114 156 212 244 312 384
#     4   9  22  40  62  93 120 162 209 254 315 376
#     4  10  22  42  61  92 125 159 209 257 316 376
#     4  11  23  39  62  93 123 173 210 255 322 370
#     4  10  21  40  64  87 125 163 195 263 318 366
#
# _framework density 25.290524000000001
#
# number of rings (size 3 to 8) (size 9 to 14) (size 15 to 20)
#    0.000    1.867    2.667    1.200    5.600    2.667 
#    0.000    6.667    0.000    0.000    0.000    0.000 
#    0.000    0.000    0.000    0.000    0.000    0.000 
#
# Total GULP energy -167358.167273 kJ/mol
# GULP energy per Si atom -5578.605576 kJ/mol
# Density = 2.523296 g / cm^3
# Si number density = 25.290524 Si / 1000 Ang^3
#
#
#
# Elastic Constant Matrix: (Units=GPa)
#
#
# Indices 1 2 3 4 5 6 
#
# 1 52.2244 20.8544 8.7307 0.0000 -15.7636 0.0000
# 2 20.8544 127.5317 30.2859 0.0000 -7.0919 0.0000
# 3 8.7307 30.2859 69.0098 0.0000 -0.2936 0.0000
# 4 0.0000 0.0000 0.0000 26.6899 0.0000 -3.5035
# 5 -15.7636 -7.0919 -0.2936 0.0000 32.1259 0.0000
# 6 0.0000 0.0000 0.0000 -3.5035 0.0000 37.1246
#
#
#
# Elastic Compliance Matrix: (Units=1/GPa)
#
#
# Indices 1 2 3 4 5 6 
#
# 1 0.023937 -0.002891 -0.001713 0.000000 0.011092 0.000000
# 2 -0.002891 0.009220 -0.003678 0.000000 0.000583 0.000000
# 3 -0.001713 -0.003678 0.016315 0.000000 -0.001503 0.000000
# 4 0.000000 0.000000 0.000000 0.037937 0.000000 0.003580
# 5 0.011092 0.000583 -0.001503 0.000000 0.036685 0.000000
# 6 0.000000 0.000000 0.000000 0.003580 0.000000 0.027274
#
#
# Mechanical properties :
#
#
# Convention : Reuss Voigt Hill
#
# Bulk Modulus (GPa) = 30.38681 40.94533 35.66607
# Shear Modulus (GPa) = 27.94855 31.78108 29.86481
#
# Velocity S-wave (km/s) = 3.32791 3.54876 3.44011
# Velocity P-wave (km/s) = 5.17763 5.74602 5.46921
#
# Compressibility (1/GPa) = 0.03290901
#
# Stress axis : x y z
#
# Youngs Moduli (GPa) = 41.77692 108.46251 61.29286
#
# Poissons Ratio (x) = 0.31354 0.10496
# Poissons Ratio (y) = 0.12077 0.22544
# Poissons Ratio (z) = 0.07154 0.39893
#
# Static dielectric constant tensor:
#      x y z
#    x 2.156310 0.000000 -0.057550 
#    y 0.000000 2.020420 0.000000 
#    z -0.057550 0.000000 2.099750 
# 
# From -- ./inp_files/307513.got.cif
#   From: 2010.05.17/outbox.cif.g08.bks.cpg/sg15_154_cif.got.tgz:307513.got - 2010.06.03 18:47:42.
