data_PCOD9282615
_publ_section_title
;
Structure prediction by ZEFSAII (Michael W. Deem and Ramdas Pophale) SiO2 
 PCOD9282615
Probable space group: C 2/C
;
_chemical_formula_sum "Si O2"
_cell_formula_units_Z 56
_cell_length_a 11.589309
_cell_length_b 10.165212
_cell_length_c 20.219238
_cell_angle_alpha 90.000000
_cell_angle_beta 109.756348
_cell_angle_gamma 90.000000
_cell_volume 2241.776641
_symmetry_space_group_name_H-M "C 2/C"
_symmetry_group_IT_number 15
_symmetry_cell_setting 'monoclinic'
loop_
_space_group_symop_operation_xyz
x,y,z
-x,y,1/2-z
-x,-y,-z
x,-y,1/2+z
1/2+x,1/2+y,z
1/2-x,1/2+y,1/2-z
1/2-x,1/2-y,-z
1/2+x,1/2-y,1/2+z
loop_
_atom_site_type_symbol
_atom_site_label
_atom_site_fract_x
_atom_site_fract_y
_atom_site_fract_z
Si Si1 0.645570 0.714303 0.126337
Si Si2 0.550282 0.579973 0.604354
Si Si3 0.844941 0.024677 0.162358
Si Si4 0.124083 0.784532 0.242639
Si Si5 0.566650 0.817035 0.325527
Si Si6 0.273261 0.618740 0.960997
Si Si7 0.361161 0.948531 0.462454
O O1 0.613267 0.562929 0.115683
O O2 0.759405 0.722670 0.199225
O O3 0.534025 0.794237 0.137910
O O4 0.659884 0.795597 0.060881
O O5 0.423359 0.544730 0.617927
O O6 0.606338 0.695380 0.661607
O O7 0.585872 0.622393 0.536373
O O8 0.890158 0.169992 0.184475
O O9 0.865331 0.935771 0.229886
O O10 0.704596 0.021198 0.112341
O O11 0.000000 0.727688 0.250000
O O12 0.500000 0.880281 0.250000
O O13 0.684818 0.881632 0.380194
O O14 0.250000 0.750000 0.000000
O O15 0.221196 0.497219 0.992402
O O16 0.500000 0.000000 0.500000
#
# Coordination Sequence:
#
# PCOD9282615 Si02
#       7
#     8   8   8   8   8   8   8
#     4  10  21  39  63  92 128 169 212 270 331 391
#     4  10  22  40  65 100 128 165 223 274 317 399
#     4   9  19  38  67  93 123 168 213 267 328 389
#     4   9  18  38  64  95 130 163 209 262 333 389
#     4  11  20  37  67  96 122 164 218 274 326 387
#     4  12  25  43  64  94 130 174 224 269 331 390
#     4  11  22  41  63  90 131 175 210 267 331 396
#
# _framework density 24.980187999999998
#
# number of rings (size 3 to 8) (size 9 to 14) (size 15 to 20)
#    0.000    1.714    2.857    3.000    0.000    1.143 
#    0.000    6.429    0.000    0.000    0.000    0.000 
#    0.000    0.000    0.000    0.000    0.000    0.000 
#
# Total GULP energy -156440.762377 kJ/mol
# GULP energy per Si atom -5587.170085 kJ/mol
# Density = 2.492333 g / cm^3
# Si number density = 24.980188 Si / 1000 Ang^3
#
#
#
# Elastic Constant Matrix: (Units=GPa)
#
#
# Indices 1 2 3 4 5 6 
#
# 1 98.8388 16.7352 31.0284 0.0000 2.9834 0.0000
# 2 16.7352 61.0282 15.4662 0.0000 -6.5520 0.0000
# 3 31.0284 15.4662 75.7797 0.0000 19.8298 0.0000
# 4 0.0000 0.0000 0.0000 9.4698 0.0000 -8.3758
# 5 2.9834 -6.5520 19.8298 0.0000 61.2657 0.0000
# 6 0.0000 0.0000 0.0000 -8.3758 0.0000 25.8716
#
#
#
# Elastic Compliance Matrix: (Units=1/GPa)
#
#
# Indices 1 2 3 4 5 6 
#
# 1 0.011895 -0.002008 -0.004646 0.000000 0.000710 0.000000
# 2 -0.002008 0.018238 -0.003754 0.000000 0.003263 0.000000
# 3 -0.004646 -0.003754 0.017383 0.000000 -0.005802 0.000000
# 4 0.000000 0.000000 0.000000 0.147968 0.000000 0.047904
# 5 0.000710 0.003263 -0.005802 0.000000 0.018515 0.000000
# 6 0.000000 0.000000 0.000000 0.047904 0.000000 0.054161
#
#
# Mechanical properties :
#
#
# Convention : Reuss Voigt Hill
#
# Bulk Modulus (GPa) = 37.45450 40.23403 38.84426
# Shear Modulus (GPa) = 16.78550 30.81588 23.80069
#
# Velocity S-wave (km/s) = 2.59502 3.51609 3.09007
# Velocity P-wave (km/s) = 4.89949 5.71185 5.32120
#
# Compressibility (1/GPa) = 0.02669906
#
# Stress axis : x y z
#
# Youngs Moduli (GPa) = 84.07140 54.82981 57.52780
#
# Poissons Ratio (x) = 0.11010 0.26729
# Poissons Ratio (y) = 0.16882 0.21596
# Poissons Ratio (z) = 0.39062 0.20583
#
# Static dielectric constant tensor:
#      x y z
#    x 2.058120 0.000000 -0.010040 
#    y 0.000000 1.953630 0.000000 
#    z -0.010040 0.000000 2.108150 
# 
# From -- ./inp_files/237621.got.cif
#   From: 2010.05.17/outbox.cif.g08.bks.cpg/sg15_119_cif.got.tgz:237621.got - 2010.06.03 18:47:42.
