data_PCOD9282318
_publ_section_title
;
Structure prediction by ZEFSAII (Michael W. Deem and Ramdas Pophale) SiO2 
 PCOD9282318
Probable space group: C 2/C
;
_chemical_formula_sum "Si O2"
_cell_formula_units_Z 32
_cell_length_a 10.774666
_cell_length_b 8.794180
_cell_length_c 26.984180
_cell_angle_alpha 90.000000
_cell_angle_beta 36.078634
_cell_angle_gamma 90.000000
_cell_volume 1505.727102
_symmetry_space_group_name_H-M "C 2/C"
_symmetry_group_IT_number 15
_symmetry_cell_setting 'monoclinic'
loop_
_space_group_symop_operation_xyz
x,y,z
-x,y,1/2-z
-x,-y,-z
x,-y,1/2+z
1/2+x,1/2+y,z
1/2-x,1/2+y,1/2-z
1/2-x,1/2-y,-z
1/2+x,1/2-y,1/2+z
loop_
_atom_site_type_symbol
_atom_site_label
_atom_site_fract_x
_atom_site_fract_y
_atom_site_fract_z
Si Si1 0.889052 0.423568 0.738405
Si Si2 0.908391 0.390244 0.988280
Si Si3 0.729750 0.753270 0.197763
Si Si4 0.716821 0.438858 0.951679
O O1 0.764587 0.318264 0.740777
O O2 0.754452 0.564866 0.801851
O O3 0.000000 0.345720 0.750000
O O4 0.083048 0.494198 0.644084
O O5 0.760277 0.471825 0.995472
O O6 0.097133 0.316705 0.894872
O O7 0.788488 0.245466 0.050026
O O8 0.000000 0.500000 0.000000
O O9 0.500000 0.718855 0.250000
O O10 0.500000 0.500000 0.000000
#
# Coordination Sequence:
#
# PCOD9282318 Si02
#       4
#     8   8   8   8
#     4  10  22  38  59  87 117 153 195 243 293 348
#     4  10  23  40  59  88 120 155 198 243 293 351
#     4  10  22  39  59  85 117 153 196 242 292 351
#     4  10  21  39  61  87 119 152 194 244 293 351
#
# _framework density 21.252192000000001
#
# number of rings (size 3 to 8) (size 9 to 14) (size 15 to 20)
#    0.000    2.000    0.000    3.000    0.000   14.000 
#    0.000    0.000    0.000    0.000    0.000    0.000 
#    0.000    0.000    0.000    0.000    0.000    0.000 
#
# Total GULP energy -89400.494003 kJ/mol
# GULP energy per Si atom -5587.530875 kJ/mol
# Density = 2.120382 g / cm^3
# Si number density = 21.252192 Si / 1000 Ang^3
#
#
#
# Elastic Constant Matrix: (Units=GPa)
#
#
# Indices 1 2 3 4 5 6 
#
# 1 194.9362 55.7091 15.1022 0.0000 4.6077 0.0000
# 2 55.7091 47.6464 8.7173 0.0000 13.2967 0.0000
# 3 15.1022 8.7173 63.8166 -0.0001 -1.4939 0.0000
# 4 0.0000 0.0000 -0.0001 31.8840 0.0000 2.4164
# 5 4.6077 13.2967 -1.4939 0.0000 34.5931 0.0000
# 6 0.0000 0.0000 0.0000 2.4164 0.0000 41.4655
#
#
#
# Elastic Compliance Matrix: (Units=1/GPa)
#
#
# Indices 1 2 3 4 5 6 
#
# 1 0.007954 -0.009987 -0.000453 0.000000 0.002760 0.000000
# 2 -0.009987 0.036823 -0.002970 0.000000 -0.012952 0.000000
# 3 -0.000453 -0.002970 0.016227 0.000000 0.001903 0.000000
# 4 0.000000 0.000000 0.000000 0.031503 0.000000 -0.001836
# 5 0.002760 -0.012952 0.001903 0.000000 0.033600 0.000000
# 6 0.000000 0.000000 0.000000 -0.001836 0.000000 0.024223
#
#
# Mechanical properties :
#
#
# Convention : Reuss Voigt Hill
#
# Bulk Modulus (GPa) = 29.25380 51.71738 40.48559
# Shear Modulus (GPa) = 26.51877 36.71323 31.61600
#
# Velocity S-wave (km/s) = 3.53627 4.16083 3.86120
# Velocity P-wave (km/s) = 5.51984 6.88994 6.24259
#
# Compressibility (1/GPa) = 0.03418360
#
# Stress axis : x y z
#
# Youngs Moduli (GPa) = 125.72465 27.15712 61.62413
#
# Poissons Ratio (x) = 0.27122 0.02794
# Poissons Ratio (y) = 1.25562 0.18301
# Poissons Ratio (z) = 0.05701 0.08065
#
# Static dielectric constant tensor:
#      x y z
#    x 1.785800 0.000000 -0.000850 
#    y 0.000000 1.748580 0.000000 
#    z -0.000850 0.000000 1.830630 
# 
# From -- ./inp_files/140559.got.cif
#   From: 2010.05.17/outbox.cif.g08.bks.cpg/sg15_71_cif.got.tgz:140559.got - 2010.06.03 18:47:42.
