data_PCOD9282303
_publ_section_title
;
Structure prediction by ZEFSAII (Michael W. Deem and Ramdas Pophale) SiO2 
 PCOD9282303
Probable space group: C 2/C
;
_chemical_formula_sum "Si O2"
_cell_formula_units_Z 48
_cell_length_a 18.479657
_cell_length_b 10.261672
_cell_length_c 11.437454
_cell_angle_alpha 90.000000
_cell_angle_beta 61.360116
_cell_angle_gamma 90.000000
_cell_volume 1903.542273
_symmetry_space_group_name_H-M "C 2/C"
_symmetry_group_IT_number 15
_symmetry_cell_setting 'monoclinic'
loop_
_space_group_symop_operation_xyz
x,y,z
-x,y,1/2-z
-x,-y,-z
x,-y,1/2+z
1/2+x,1/2+y,z
1/2-x,1/2+y,1/2-z
1/2-x,1/2-y,-z
1/2+x,1/2-y,1/2+z
loop_
_atom_site_type_symbol
_atom_site_label
_atom_site_fract_x
_atom_site_fract_y
_atom_site_fract_z
Si Si1 0.225990 0.916624 0.257256
Si Si2 0.957337 0.276965 0.078809
Si Si3 0.359591 0.970371 0.312602
Si Si4 0.664614 0.810039 0.518201
Si Si5 0.914904 0.957107 0.784714
Si Si6 0.139538 0.250420 0.989634
O O1 0.271354 0.000010 0.320936
O O2 0.295853 0.907382 0.106454
O O3 0.208051 0.780967 0.339416
O O4 0.146309 0.962508 0.249506
O O5 0.923194 0.405452 0.172574
O O6 0.902718 0.237452 0.009008
O O7 0.943683 0.163720 0.183409
O O8 0.054970 0.286065 0.989078
O O9 0.345562 0.860505 0.424447
O O10 0.384601 0.105893 0.349591
O O11 0.750000 0.750000 0.500000
O O12 0.873604 0.886739 0.929103
O O13 0.000000 0.029003 0.750000
#
# Coordination Sequence:
#
# PCOD9282303 Si02
#       6
#     8   8   8   8   8   8
#     4  11  22  35  60  90 118 155 200 253 311 361
#     4   9  21  40  62  87 119 163 207 248 304 372
#     4  10  21  39  61  84 119 164 203 248 308 374
#     4  11  24  39  58  87 121 154 201 260 311 367
#     4   9  19  36  58  85 119 157 198 248 306 362
#     4  10  21  40  62  87 121 161 210 253 301 373
#
# _framework density 25.216145999999998
#
# number of rings (size 3 to 8) (size 9 to 14) (size 15 to 20)
#    0.000    2.000    0.000    4.000    0.000   10.000 
#    0.000    1.667    0.000    0.000    0.000    0.000 
#    0.000    0.000    0.000    0.000    0.000    0.000 
#
# Total GULP energy -134021.035325 kJ/mol
# GULP energy per Si atom -5584.209805 kJ/mol
# Density = 2.515875 g / cm^3
# Si number density = 25.216146 Si / 1000 Ang^3
#
#
#
# Elastic Constant Matrix: (Units=GPa)
#
#
# Indices 1 2 3 4 5 6 
#
# 1 148.5548 8.6901 20.6309 0.0000 39.9032 0.0000
# 2 8.6901 32.2278 19.4271 0.0000 5.4814 0.0000
# 3 20.6309 19.4271 47.7339 0.0000 6.2377 0.0000
# 4 0.0000 0.0000 0.0000 19.7636 0.0000 7.6962
# 5 39.9032 5.4814 6.2377 0.0000 35.5768 0.0000
# 6 0.0000 0.0000 0.0000 7.6962 0.0000 27.9613
#
#
#
# Elastic Compliance Matrix: (Units=1/GPa)
#
#
# Indices 1 2 3 4 5 6 
#
# 1 0.010053 0.001193 -0.003411 0.000000 -0.010861 0.000000
# 2 0.001193 0.041683 -0.016852 0.000000 -0.004805 0.000000
# 3 -0.003411 -0.016852 0.029110 0.000000 0.001318 0.000000
# 4 0.000000 0.000000 0.000000 0.056672 0.000000 -0.015599
# 5 -0.010861 -0.004805 0.001318 0.000000 0.040799 0.000000
# 6 0.000000 0.000000 0.000000 -0.015599 0.000000 0.040057
#
#
# Mechanical properties :
#
#
# Convention : Reuss Voigt Hill
#
# Bulk Modulus (GPa) = 23.41626 36.22364 29.81995
# Shear Modulus (GPa) = 18.46715 28.64491 23.55603
#
# Velocity S-wave (km/s) = 2.70914 3.37408 3.05973
# Velocity P-wave (km/s) = 4.36947 5.43835 4.93295
#
# Compressibility (1/GPa) = 0.04270537
#
# Stress axis : x y z
#
# Youngs Moduli (GPa) = 99.47432 23.99040 34.35240
#
# Poissons Ratio (x) = -0.02862 0.11718
# Poissons Ratio (y) = -0.11865 0.57891
# Poissons Ratio (z) = 0.33931 0.40429
#
# Static dielectric constant tensor:
#      x y z
#    x 2.059400 0.000000 0.048310 
#    y 0.000000 2.019340 0.000000 
#    z 0.048310 0.000000 1.985150 
# 
# From -- ./inp_files/103665.got.cif
#   From: 2010.05.17/outbox.cif.g08.bks.cpg/sg15_52_cif.got.tgz:103665.got - 2010.06.03 18:47:42.
