data_PCOD9282031
_publ_section_title
;
Structure prediction by ZEFSAII (Michael W. Deem and Ramdas Pophale) SiO2 
 PCOD9282031
Probable space group: C 2/C
;
_chemical_formula_sum "Si O2"
_cell_formula_units_Z 56
_cell_length_a 12.587882
_cell_length_b 11.864554
_cell_length_c 16.640690
_cell_angle_alpha 90.000000
_cell_angle_beta 120.680015
_cell_angle_gamma 90.000000
_cell_volume 2137.416523
_symmetry_space_group_name_H-M "C 2/C"
_symmetry_group_IT_number 15
_symmetry_cell_setting 'monoclinic'
loop_
_space_group_symop_operation_xyz
x,y,z
-x,y,1/2-z
-x,-y,-z
x,-y,1/2+z
1/2+x,1/2+y,z
1/2-x,1/2+y,1/2-z
1/2-x,1/2-y,-z
1/2+x,1/2-y,1/2+z
loop_
_atom_site_type_symbol
_atom_site_label
_atom_site_fract_x
_atom_site_fract_y
_atom_site_fract_z
Si Si1 0.090204 0.468092 0.607782
Si Si2 0.243057 0.578046 0.870655
Si Si3 0.143027 0.239730 0.832251
Si Si4 0.300645 0.397963 0.004937
Si Si5 0.700332 0.629888 0.231746
Si Si6 0.539868 0.739004 0.547835
Si Si7 0.498485 0.811637 0.148972
O O1 0.231175 0.423186 0.664366
O O2 0.030020 0.346270 0.602400
O O3 0.078826 0.574021 0.662831
O O4 0.000000 0.500000 0.500000
O O5 0.281285 0.475014 0.824686
O O6 0.337245 0.674020 0.885709
O O7 0.111451 0.639210 0.837099
O O8 0.279804 0.525220 0.971663
O O9 0.189708 0.128363 0.897081
O O10 0.224734 0.273484 0.787944
O O11 0.000000 0.233831 0.750000
O O12 0.191316 0.331384 0.916946
O O13 0.425829 0.344847 0.016804
O O14 0.572904 0.695986 0.198794
O O15 0.547705 0.780173 0.458976
#
# Coordination Sequence:
#
# PCOD9282031 Si02
#       7
#     8   8   8   8   8   8   8
#     4  10  26  46  78 109 153 211 262 337 415 481
#     4  11  25  43  81 111 157 219 253 332 412 491
#     4  10  21  38  68 107 146 202 260 337 396 477
#     4  10  22  39  71 109 158 198 274 332 402 487
#     4  11  25  46  75 114 158 196 277 334 397 498
#     4  11  22  47  71 110 159 206 264 329 405 486
#     4  11  25  46  74 114 153 205 266 327 406 487
#
# _framework density 26.199853000000001
#
# number of rings (size 3 to 8) (size 9 to 14) (size 15 to 20)
#    0.000    1.429    2.857    1.714   12.000    1.143 
#    0.000    0.000    0.000    0.000    0.000    0.000 
#    0.000    0.000    0.000    0.000    0.000    0.000 
#
# Total GULP energy -156055.688798 kJ/mol
# GULP energy per Si atom -5573.417457 kJ/mol
# Density = 2.614022 g / cm^3
# Si number density = 26.199853 Si / 1000 Ang^3
#
#
#
# Elastic Constant Matrix: (Units=GPa)
#
#
# Indices 1 2 3 4 5 6 
#
# 1 124.6763 96.6399 51.7748 0.0000 18.2002 0.0000
# 2 96.6399 171.4078 78.8253 0.0000 15.8554 0.0000
# 3 51.7748 78.8253 136.1356 0.0000 -3.4917 0.0000
# 4 0.0000 0.0000 0.0000 48.1363 0.0000 -1.6906
# 5 18.2002 15.8554 -3.4917 0.0000 42.2189 0.0000
# 6 0.0000 0.0000 0.0000 -1.6906 0.0000 39.6888
#
#
#
# Elastic Compliance Matrix: (Units=1/GPa)
#
#
# Indices 1 2 3 4 5 6 
#
# 1 0.014903 -0.007361 -0.001503 0.000000 -0.003784 0.000000
# 2 -0.007361 0.012098 -0.004249 0.000000 -0.001721 0.000000
# 3 -0.001503 -0.004249 0.010457 0.000000 0.003108 0.000000
# 4 0.000000 0.000000 0.000000 0.020805 0.000000 0.000886
# 5 -0.003784 -0.001721 0.003108 0.000000 0.026221 0.000000
# 6 0.000000 0.000000 0.000000 0.000886 0.000000 0.025234
#
#
# Mechanical properties :
#
#
# Convention : Reuss Voigt Hill
#
# Bulk Modulus (GPa) = 89.03491 98.52219 93.77855
# Shear Modulus (GPa) = 35.79378 39.67411 37.73395
#
# Velocity S-wave (km/s) = 3.70020 3.89561 3.79916
# Velocity P-wave (km/s) = 7.23271 7.61052 7.42402
#
# Compressibility (1/GPa) = 0.01123155
#
# Stress axis : x y z
#
# Youngs Moduli (GPa) = 67.09967 82.65995 95.62716
#
# Poissons Ratio (x) = 0.60849 0.14369
# Poissons Ratio (y) = 0.49395 0.40635
# Poissons Ratio (z) = 0.10083 0.35125
#
# Static dielectric constant tensor:
#      x y z
#    x 2.104250 0.000000 -0.039110 
#    y 0.000000 2.259640 0.000000 
#    z -0.039110 0.000000 2.259100 
# 
# From -- ./inp_files/279816.got.cif
#   From: 2010.05.17/outbox.cif.g08.bks.cpg/sg15_140_cif.got.tgz:279816.got - 2010.06.03 18:47:42.
