data_PCOD9282777
_publ_section_title
;
Structure prediction by ZEFSAII (Michael W. Deem and Ramdas Pophale) SiO2 
 PCOD9282777
Probable space group: C 2/C
;
_chemical_formula_sum "Si O2"
_cell_formula_units_Z 40
_cell_length_a 7.170526
_cell_length_b 24.009267
_cell_length_c 8.488391
_cell_angle_alpha 90.000000
_cell_angle_beta 84.076959
_cell_angle_gamma 90.000000
_cell_volume 1453.551945
_symmetry_space_group_name_H-M "C 2/C"
_symmetry_group_IT_number 15
_symmetry_cell_setting 'monoclinic'
loop_
_space_group_symop_operation_xyz
x,y,z
-x,y,1/2-z
-x,-y,-z
x,-y,1/2+z
1/2+x,1/2+y,z
1/2-x,1/2+y,1/2-z
1/2-x,1/2-y,-z
1/2+x,1/2-y,1/2+z
loop_
_atom_site_type_symbol
_atom_site_label
_atom_site_fract_x
_atom_site_fract_y
_atom_site_fract_z
Si Si1 0.791297 0.112959 0.513568
Si Si2 0.782992 0.665208 0.302041
Si Si3 0.213637 0.721107 0.676626
Si Si4 0.144211 0.578826 0.980716
Si Si5 0.680203 0.490180 0.316705
O O1 0.824744 0.140228 0.339837
O O2 0.808629 0.161627 0.641484
O O3 0.572226 0.094017 0.526110
O O4 0.892704 0.056630 0.554432
O O5 0.772681 0.731740 0.295939
O O6 0.746557 0.634390 0.469464
O O7 0.000000 0.651758 0.250000
O O8 0.250000 0.750000 0.500000
O O9 0.000000 0.709925 0.750000
O O10 0.184178 0.534959 0.117476
O O11 0.215731 0.547103 0.821948
O O12 0.500000 0.516125 0.250000
#
# Coordination Sequence:
#
# PCOD9282777 Si02
#       5
#     8   8   8   8   8
#     4  10  22  43  64  90 127 172 219 263 325 404
#     4   9  21  41  66  94 126 170 218 269 329 396
#     4  10  21  39  64  94 130 171 219 272 329 392
#     4  11  23  42  64  90 127 171 215 263 327 402
#     4  12  25  39  61  94 128 166 216 275 330 386
#
# _framework density 27.518799000000001
#
# number of rings (size 3 to 8) (size 9 to 14) (size 15 to 20)
#    0.000    1.600    0.000    4.200    0.000    8.000 
#    0.000   14.000    0.000    0.000    0.000    0.000 
#    0.000    0.000    0.000    0.000    0.000    0.000 
#
# Total GULP energy -112068.320409 kJ/mol
# GULP energy per Si atom -5603.416020 kJ/mol
# Density = 2.745616 g / cm^3
# Si number density = 27.518799 Si / 1000 Ang^3
#
#
#
# Elastic Constant Matrix: (Units=GPa)
#
#
# Indices 1 2 3 4 5 6 
#
# 1 66.3267 23.8854 48.5299 0.0000 -10.8662 0.0000
# 2 23.8854 197.4050 64.3524 0.0000 21.4578 0.0000
# 3 48.5299 64.3524 142.8561 0.0000 2.2323 0.0000
# 4 0.0000 0.0000 0.0000 44.7499 0.0000 7.0646
# 5 -10.8662 21.4578 2.2323 0.0000 44.9719 0.0000
# 6 0.0000 0.0000 0.0000 7.0646 0.0000 36.2464
#
#
#
# Elastic Compliance Matrix: (Units=1/GPa)
#
#
# Indices 1 2 3 4 5 6 
#
# 1 0.021507 -0.000989 -0.006955 0.000000 0.006013 0.000000
# 2 -0.000989 0.006331 -0.002467 0.000000 -0.003137 0.000000
# 3 -0.006955 -0.002467 0.010490 0.000000 -0.001024 0.000000
# 4 0.000000 0.000000 0.000000 0.023056 0.000000 -0.004494
# 5 0.006013 -0.003137 -0.001024 0.000000 0.025237 0.000000
# 6 0.000000 0.000000 0.000000 -0.004494 0.000000 0.028465
#
#
# Mechanical properties :
#
#
# Convention : Reuss Voigt Hill
#
# Bulk Modulus (GPa) = 57.12109 75.56926 66.34518
# Shear Modulus (GPa) = 35.27577 43.18164 39.22870
#
# Velocity S-wave (km/s) = 3.58422 3.96557 3.77971
# Velocity P-wave (km/s) = 6.15882 6.96335 6.57340
#
# Compressibility (1/GPa) = 0.01750667
#
# Stress axis : x y z
#
# Youngs Moduli (GPa) = 46.49713 157.96526 95.33023
#
# Poissons Ratio (x) = 0.15619 0.66299
# Poissons Ratio (y) = 0.04597 0.23516
# Poissons Ratio (z) = 0.32337 0.38967
#
# Static dielectric constant tensor:
#      x y z
#    x 2.190310 0.000000 -0.002250 
#    y 0.000000 2.129750 0.000000 
#    z -0.002250 0.000000 2.196520 
# 
# From -- ./inp_files/23656.got.cif
#   From: 2010.05.17/outbox.cif.g08.bks.cpg/sg15_12_cif.got.tgz:23656.got - 2010.06.03 18:47:42.
