data_PCOD9282889
_publ_section_title
;
Structure prediction by ZEFSAII (Michael W. Deem and Ramdas Pophale) SiO2 
 PCOD9282889
Probable space group: C 2/C
;
_chemical_formula_sum "Si O2"
_cell_formula_units_Z 24
_cell_length_a 14.103006
_cell_length_b 8.005834
_cell_length_c 13.823627
_cell_angle_alpha 90.000000
_cell_angle_beta 42.147824
_cell_angle_gamma 90.000000
_cell_volume 1047.351304
_symmetry_space_group_name_H-M "C 2/C"
_symmetry_group_IT_number 15
_symmetry_cell_setting 'monoclinic'
loop_
_space_group_symop_operation_xyz
x,y,z
-x,y,1/2-z
-x,-y,-z
x,-y,1/2+z
1/2+x,1/2+y,z
1/2-x,1/2+y,1/2-z
1/2-x,1/2-y,-z
1/2+x,1/2-y,1/2+z
loop_
_atom_site_type_symbol
_atom_site_label
_atom_site_fract_x
_atom_site_fract_y
_atom_site_fract_z
Si Si1 0.706675 0.404088 0.903610
Si Si2 0.414181 0.244490 0.088387
Si Si3 0.132934 0.394726 0.078017
O O1 0.654805 0.582220 0.898440
O O2 0.817944 0.327552 0.745270
O O3 0.784022 0.444004 0.945922
O O4 0.568056 0.291311 0.010767
O O5 0.418011 0.120664 0.993318
O O6 0.000000 0.366742 0.250000
O O7 0.250000 0.250000 0.000000
#
# Coordination Sequence:
#
# PCOD9282889 Si02
#       3
#     8   8   8
#     4  10  22  40  67  95 129 173 215 268 326 386
#     4  10  21  41  64  94 131 169 216 268 325 386
#     4  10  21  39  65  93 125 170 214 261 324 385
#
# _framework density 22.914947000000002
#
# number of rings (size 3 to 8) (size 9 to 14) (size 15 to 20)
#    0.000    2.000    0.000    4.000    0.000    5.333 
#    0.000    6.667    0.000    0.000    0.000    0.000 
#    0.000    0.000    0.000    0.000    0.000    0.000 
#
# Total GULP energy -67182.603954 kJ/mol
# GULP energy per Si atom -5598.550329 kJ/mol
# Density = 2.286279 g / cm^3
# Si number density = 22.914947 Si / 1000 Ang^3
#
#
#
# Elastic Constant Matrix: (Units=GPa)
#
#
# Indices 1 2 3 4 5 6 
#
# 1 171.5557 88.8658 74.7538 0.0000 -26.0827 0.0000
# 2 88.8658 99.5236 58.2958 0.0000 -7.3341 0.0000
# 3 74.7538 58.2958 143.2746 0.0000 -48.5778 0.0000
# 4 0.0000 0.0000 0.0000 44.1860 0.0000 -2.2551
# 5 -26.0827 -7.3341 -48.5778 0.0000 19.6221 0.0000
# 6 0.0000 0.0000 0.0000 -2.2551 0.0000 41.1024
#
#
#
# Elastic Compliance Matrix: (Units=1/GPa)
#
#
# Indices 1 2 3 4 5 6 
#
# 1 -0.121098 0.277571 -0.430580 0.000000 -1.123196 0.000000
# 2 0.277571 -0.598867 0.921778 0.000000 2.427144 0.000000
# 3 -0.430580 0.921778 -1.373869 0.000000 -3.629066 0.000000
# 4 0.000000 0.000000 0.000000 0.022695 0.000000 0.001245
# 5 -1.123196 2.427144 -3.629066 0.000000 -9.519236 0.000000
# 6 0.000000 0.000000 0.000000 0.001245 0.000000 0.024398
#
#
# Mechanical properties :
#
#
# Convention : Reuss Voigt Hill
#
# Bulk Modulus (GPa) = -1.79761 95.35383 46.77811
# Shear Modulus (GPa) = -0.37625 33.81135 16.71755
#
# Velocity S-wave (km/s) = -0.40565 3.84541 2.70394
# Velocity P-wave (km/s) = 1.00278 7.83700 5.49605
#
# Compressibility (1/GPa) = -0.55629550
#
# Stress axis : x y z
#
# Youngs Moduli (GPa) = -8.25778 -1.66982 -0.72787
#
# Poissons Ratio (x) = 0.46349 -0.31341
# Poissons Ratio (y) = 2.29212 0.67094
# Poissons Ratio (z) = -3.55563 1.53920
#
# Static dielectric constant tensor:
#      x y z
#    x 2.050620 0.000000 0.024010 
#    y 0.000000 1.873540 0.000000 
#    z 0.024010 0.000000 1.749270 
# 
# From -- ./inp_files/36038.got.cif
#   From: 2010.05.17/outbox.cif.g08.bks.cpg/sg15_19_cif.got.tgz:36038.got - 2010.06.03 18:47:42.
