data_PCOD9282224
_publ_section_title
;
Structure prediction by ZEFSAII (Michael W. Deem and Ramdas Pophale) SiO2 
 PCOD9282224
Probable space group: C 2/C
;
_chemical_formula_sum "Si O2"
_cell_formula_units_Z 44
_cell_length_a 26.294294
_cell_length_b 18.370953
_cell_length_c 14.663162
_cell_angle_alpha 90.000000
_cell_angle_beta 161.676826
_cell_angle_gamma 90.000000
_cell_volume 2226.746721
_symmetry_space_group_name_H-M "C 2/C"
_symmetry_group_IT_number 15
_symmetry_cell_setting 'monoclinic'
loop_
_space_group_symop_operation_xyz
x,y,z
-x,y,1/2-z
-x,-y,-z
x,-y,1/2+z
1/2+x,1/2+y,z
1/2-x,1/2+y,1/2-z
1/2-x,1/2-y,-z
1/2+x,1/2-y,1/2+z
loop_
_atom_site_type_symbol
_atom_site_label
_atom_site_fract_x
_atom_site_fract_y
_atom_site_fract_z
Si Si1 0.114460 0.971288 0.611789
Si Si2 0.632255 0.367962 0.097900
Si Si3 0.353391 0.235721 0.087818
Si Si4 0.500000 0.369248 0.250000
Si Si5 0.274054 0.352903 0.578276
Si Si6 0.310530 0.796636 0.243679
O O1 0.038841 0.918552 0.404978
O O2 0.242755 0.922473 0.885528
O O3 0.163391 0.045851 0.646567
O O4 0.000000 0.000000 0.500000
O O5 0.764600 0.329608 0.386637
O O6 0.671041 0.332228 0.066895
O O7 0.456367 0.353829 0.844269
O O8 0.362275 0.310893 0.045296
O O9 0.531513 0.214425 0.425810
O O10 0.250000 0.250000 0.000000
O O11 0.261119 0.281439 0.618565
O O12 0.159817 0.345462 0.296051
#
# Coordination Sequence:
#
# PCOD9282224 Si02
#       6
#     8   8   8   4   8   8
#     4  10  22  38  61  95 125 166 209 262 321 391
#     4  11  21  37  64  91 124 157 213 262 315 370
#     4  12  21  40  65  93 120 172 220 264 307 388
#     4  12  22  42  68  94 128 172 222 260 320 394
#     4  10  21  39  59  93 127 156 209 260 317 384
#     4  11  21  37  63  91 122 161 209 263 319 370
#
# _framework density 19.759768999999999
#
# number of rings (size 3 to 8) (size 9 to 14) (size 15 to 20)
#    0.000    1.091    5.455    1.636    5.091    0.000 
#    0.000    0.909    4.000    0.000    0.000    0.000 
#    0.000    0.000    0.000    0.000    0.000    0.000 
#
# Total GULP energy -122629.336512 kJ/mol
# GULP energy per Si atom -5574.060751 kJ/mol
# Density = 1.971479 g / cm^3
# Si number density = 19.759769 Si / 1000 Ang^3
#
#
#
# Elastic Constant Matrix: (Units=GPa)
#
#
# Indices 1 2 3 4 5 6 
#
# 1 83.3227 35.3997 11.3695 0.0000 1.5873 0.0000
# 2 35.3997 138.8627 30.3616 0.0000 -5.2992 0.0000
# 3 11.3695 30.3616 72.5328 0.0000 -21.1959 0.0000
# 4 0.0000 0.0000 0.0000 5.7805 0.0000 26.0858
# 5 1.5873 -5.2992 -21.1959 0.0000 27.6621 0.0000
# 6 0.0000 0.0000 0.0000 26.0858 0.0000 -7.9589
#
#
#
# Elastic Compliance Matrix: (Units=1/GPa)
#
#
# Indices 1 2 3 4 5 6 
#
# 1 0.013636 -0.003239 -0.001535 0.000000 -0.002579 0.000000
# 2 -0.003239 0.008734 -0.003356 0.000000 -0.000713 0.000000
# 3 -0.001535 -0.003356 0.019676 0.000000 0.014522 0.000000
# 4 0.000000 0.000000 0.000000 0.010956 0.000000 0.035907
# 5 -0.002579 -0.000713 0.014522 0.000000 0.047289 0.000000
# 6 0.000000 0.000000 0.000000 0.035907 0.000000 -0.007957
#
#
# Mechanical properties :
#
#
# Convention : Reuss Voigt Hill
#
# Bulk Modulus (GPa) = 38.78322 49.88667 44.33494
# Shear Modulus (GPa) = 42.66550 19.60257 31.13404
#
# Velocity S-wave (km/s) = 4.65177 3.15309 3.97372
# Velocity P-wave (km/s) = 6.96577 6.20946 6.59846
#
# Compressibility (1/GPa) = 0.02578435
#
# Stress axis : x y z
#
# Youngs Moduli (GPa) = 73.33389 114.49874 50.82281
#
# Poissons Ratio (x) = 0.37086 0.07804
# Poissons Ratio (y) = 0.23752 0.17059
# Poissons Ratio (z) = 0.11260 0.38431
#
# Static dielectric constant tensor:
#      x y z
#    x 1.610250 0.000000 0.060760 
#    y 0.000000 1.694270 0.000000 
#    z 0.060760 0.000000 1.680350 
# 
# From -- ./inp_files/182784.got.cif
#   From: 2010.05.17/outbox.cif.g08.bks.cpg/sg15_92_cif.got.tgz:182784.got - 2010.06.03 18:47:42.
