data_PCOD9282346
_publ_section_title
;
Structure prediction by ZEFSAII (Michael W. Deem and Ramdas Pophale) SiO2 
 PCOD9282346
Probable space group: C 2/C
;
_chemical_formula_sum "Si O2"
_cell_formula_units_Z 64
_cell_length_a 11.008408
_cell_length_b 10.541344
_cell_length_c 23.484999
_cell_angle_alpha 90.000000
_cell_angle_beta 80.050806
_cell_angle_gamma 90.000000
_cell_volume 2684.294962
_symmetry_space_group_name_H-M "C 2/C"
_symmetry_group_IT_number 15
_symmetry_cell_setting 'monoclinic'
loop_
_space_group_symop_operation_xyz
x,y,z
-x,y,1/2-z
-x,-y,-z
x,-y,1/2+z
1/2+x,1/2+y,z
1/2-x,1/2+y,1/2-z
1/2-x,1/2-y,-z
1/2+x,1/2-y,1/2+z
loop_
_atom_site_type_symbol
_atom_site_label
_atom_site_fract_x
_atom_site_fract_y
_atom_site_fract_z
Si Si1 0.366890 0.847480 0.731808
Si Si2 0.022720 0.408658 0.310577
Si Si3 0.091150 0.847970 0.369664
Si Si4 0.854519 0.360498 0.548538
Si Si5 0.895533 0.992351 0.928586
Si Si6 0.278339 0.923015 0.847176
Si Si7 0.134743 0.844823 0.959805
Si Si8 0.508720 0.114750 0.935891
O O1 0.500000 0.824416 0.750000
O O2 0.366053 0.753220 0.680018
O O3 0.271125 0.836755 0.791298
O O4 0.365547 0.992744 0.709099
O O5 0.908191 0.504356 0.332965
O O6 0.000000 0.346964 0.250000
O O7 0.026295 0.335689 0.369802
O O8 0.109846 0.775339 0.428185
O O9 0.954354 0.908258 0.378902
O O10 0.180510 0.965189 0.354055
O O11 0.717639 0.402069 0.577875
O O12 0.945639 0.469998 0.565367
O O13 0.877893 0.367010 0.478270
O O14 0.847925 0.078064 0.984452
O O15 0.012346 0.910011 0.941187
O O16 0.250357 0.854141 0.908156
O O17 0.098350 0.698814 0.967928
#
# Coordination Sequence:
#
# PCOD9282346 Si02
#       8
#     8   8   8   8   8   8   8   8
#     4   9  20  40  61  84 120 168 209 258 321 379
#     4   9  19  37  57  85 117 158 212 258 307 384
#     4  11  21  43  62  92 131 161 216 272 327 394
#     4  11  24  38  62  94 129 170 203 277 329 385
#     4  10  23  41  60  94 129 164 210 260 332 385
#     4   9  21  36  62  89 114 167 209 263 319 380
#     4  10  21  39  61  89 128 162 212 259 308 407
#     4  11  22  38  59  93 125 165 221 255 329 392
#
# _framework density 23.842386999999999
#
# number of rings (size 3 to 8) (size 9 to 14) (size 15 to 20)
#    0.000    2.250    2.500    0.750    1.750    5.000 
#    2.250    0.000    0.000    0.000    0.000    0.000 
#    0.000    0.000    0.000    0.000    0.000    0.000 
#
# Total GULP energy -178664.468362 kJ/mol
# GULP energy per Si atom -5583.264636 kJ/mol
# Density = 2.378812 g / cm^3
# Si number density = 23.842387 Si / 1000 Ang^3
#
#
#
# Elastic Constant Matrix: (Units=GPa)
#
#
# Indices 1 2 3 4 5 6 
#
# 1 53.5182 10.6612 12.3281 0.0000 -15.4308 0.0000
# 2 10.6612 55.6700 39.5107 0.0000 -3.9436 0.0000
# 3 12.3281 39.5107 115.9898 0.0000 -17.5777 0.0000
# 4 0.0000 0.0000 0.0000 35.3200 0.0000 -4.2636
# 5 -15.4308 -3.9436 -17.5777 0.0000 33.1398 0.0000
# 6 0.0000 0.0000 0.0000 -4.2636 0.0000 17.9278
#
#
#
# Elastic Compliance Matrix: (Units=1/GPa)
#
#
# Indices 1 2 3 4 5 6 
#
# 1 0.022281 -0.003904 0.000504 0.000000 0.010178 0.000000
# 2 -0.003904 0.024452 -0.008426 0.000000 -0.003377 0.000000
# 3 0.000504 -0.008426 0.012311 0.000000 0.005762 0.000000
# 4 0.000000 0.000000 0.000000 0.029149 0.000000 0.006932
# 5 0.010178 -0.003377 0.005762 0.000000 0.037569 0.000000
# 6 0.000000 0.000000 0.000000 0.006932 0.000000 0.057428
#
#
# Mechanical properties :
#
#
# Convention : Reuss Voigt Hill
#
# Bulk Modulus (GPa) = 28.25459 38.90867 33.58163
# Shear Modulus (GPa) = 22.86870 28.12269 25.49570
#
# Velocity S-wave (km/s) = 3.10039 3.43815 3.27363
# Velocity P-wave (km/s) = 4.96919 5.66707 5.32957
#
# Compressibility (1/GPa) = 0.03539248
#
# Stress axis : x y z
#
# Youngs Moduli (GPa) = 44.88075 40.89714 81.22591
#
# Poissons Ratio (x) = 0.15965 -0.04093
# Poissons Ratio (y) = 0.17520 0.68441
# Poissons Ratio (z) = -0.02262 0.34460
#
# Static dielectric constant tensor:
#      x y z
#    x 1.933970 0.000000 0.002760 
#    y 0.000000 1.976460 0.000000 
#    z 0.002760 0.000000 2.065130 
# 
# From -- ./inp_files/269253.got.cif
#   From: 2010.05.17/outbox.cif.g08.bks.cpg/sg15_135_cif.got.tgz:269253.got - 2010.06.03 18:47:42.
