data_PCOD9282112
_publ_section_title
;
Structure prediction by ZEFSAII (Michael W. Deem and Ramdas Pophale) SiO2 
 PCOD9282112
Probable space group: C 2/C
;
_chemical_formula_sum "Si O2"
_cell_formula_units_Z 60
_cell_length_a 21.822884
_cell_length_b 13.778852
_cell_length_c 16.968335
_cell_angle_alpha 90.000000
_cell_angle_beta 31.505528
_cell_angle_gamma 90.000000
_cell_volume 2666.354445
_symmetry_space_group_name_H-M "C 2/C"
_symmetry_group_IT_number 15
_symmetry_cell_setting 'monoclinic'
loop_
_space_group_symop_operation_xyz
x,y,z
-x,y,1/2-z
-x,-y,-z
x,-y,1/2+z
1/2+x,1/2+y,z
1/2-x,1/2+y,1/2-z
1/2-x,1/2-y,-z
1/2+x,1/2-y,1/2+z
loop_
_atom_site_type_symbol
_atom_site_label
_atom_site_fract_x
_atom_site_fract_y
_atom_site_fract_z
Si Si1 0.264824 0.555312 0.335877
Si Si2 0.332954 0.435925 0.105113
Si Si3 0.547367 0.899050 0.981504
Si Si4 0.500000 0.115328 0.250000
Si Si5 0.331939 0.238432 0.710420
Si Si6 0.957139 0.024050 0.711243
Si Si7 0.317821 0.087203 0.322187
Si Si8 0.605572 0.287189 0.037419
O O1 0.306747 0.488858 0.216380
O O2 0.128890 0.574371 0.466213
O O3 0.317069 0.663390 0.274911
O O4 0.321110 0.499016 0.347095
O O5 0.286174 0.326609 0.158739
O O6 0.250614 0.493058 0.133505
O O7 0.464951 0.460651 0.935327
O O8 0.622066 0.865540 0.822503
O O9 0.441911 0.827159 0.115467
O O10 0.500000 0.000000 0.000000
O O11 0.411601 0.064514 0.286591
O O12 0.573746 0.187653 0.113454
O O13 0.359772 0.268728 0.590418
O O14 0.000000 0.994417 0.750000
O O15 0.997842 0.135818 0.656332
O O16 0.215014 0.160787 0.459745
#
# Coordination Sequence:
#
# PCOD9282112 Si02
#       8
#     8   8   8   4   8   8   8   8
#     4  11  24  40  71  99 124 183 226 272 348 388
#     4  10  23  44  64  97 137 173 227 283 326 398
#     4  11  21  42  60  93 131 166 224 276 326 390
#     4  12  22  36  62  94 138 176 216 264 358 410
#     4  12  22  40  72  95 133 174 233 287 323 402
#     4  11  24  46  66  97 141 170 224 286 336 407
#     4  10  21  39  54  89 137 167 217 263 331 405
#     4  11  23  39  62 101 131 175 217 281 337 403
#
# _framework density 22.502635000000001
#
# number of rings (size 3 to 8) (size 9 to 14) (size 15 to 20)
#    0.000    1.067    8.667    0.800    1.867    1.067 
#    9.600    0.667    1.467    0.000    0.000    0.000 
#    0.000    0.000    0.000    0.000    0.000    0.000 
#
# Total GULP energy -167729.143522 kJ/mol
# GULP energy per Si atom -5590.971451 kJ/mol
# Density = 2.245142 g / cm^3
# Si number density = 22.502635 Si / 1000 Ang^3
#
#
#
# Elastic Constant Matrix: (Units=GPa)
#
#
# Indices 1 2 3 4 5 6 
#
# 1 133.2348 17.7069 9.1860 0.0000 -44.0609 0.0000
# 2 17.7069 68.5851 9.3503 0.0000 -16.0200 0.0000
# 3 9.1860 9.3503 46.3290 0.0000 -17.7179 0.0000
# 4 0.0000 0.0000 0.0000 40.5558 0.0000 -13.4553
# 5 -44.0609 -16.0200 -17.7179 0.0000 35.4524 0.0000
# 6 0.0000 0.0000 0.0000 -13.4553 0.0000 19.2111
#
#
#
# Elastic Compliance Matrix: (Units=1/GPa)
#
#
# Indices 1 2 3 4 5 6 
#
# 1 0.013508 0.000384 0.004612 0.000000 0.019267 0.000000
# 2 0.000384 0.016325 -0.000454 0.000000 0.007627 0.000000
# 3 0.004612 -0.000454 0.028281 0.000000 0.019661 0.000000
# 4 0.000000 0.000000 0.000000 0.032122 0.000000 0.022498
# 5 0.019267 0.007627 0.019661 0.000000 0.065424 0.000000
# 6 0.000000 0.000000 0.000000 0.022498 0.000000 0.067810
#
#
# Mechanical properties :
#
#
# Convention : Reuss Voigt Hill
#
# Bulk Modulus (GPa) = 14.88129 35.62613 25.25371
# Shear Modulus (GPa) = 21.11628 33.17091 27.14359
#
# Velocity S-wave (km/s) = 3.06664 3.84355 3.47687
# Velocity P-wave (km/s) = 4.37796 5.96352 5.23116
#
# Compressibility (1/GPa) = 0.06719849
#
# Stress axis : x y z
#
# Youngs Moduli (GPa) = 74.03030 61.25689 35.35954
#
# Poissons Ratio (x) = -0.02352 -0.16309
# Poissons Ratio (y) = -0.02843 0.01605
# Poissons Ratio (z) = -0.34146 0.02781
#
# Static dielectric constant tensor:
#      x y z
#    x 1.848720 0.000000 -0.008700 
#    y 0.000000 1.814910 0.000000 
#    z -0.008700 0.000000 1.939200 
# 
# From -- ./inp_files/255559.got.cif
#   From: 2010.05.17/outbox.cif.g08.bks.cpg/sg15_128_cif.got.tgz:255559.got - 2010.06.03 18:47:42.
