data_PCOD9282881
_publ_section_title
;
Structure prediction by ZEFSAII (Michael W. Deem and Ramdas Pophale) SiO2 
 PCOD9282881
Probable space group: C 2/C
;
_chemical_formula_sum "Si O2"
_cell_formula_units_Z 56
_cell_length_a 14.841994
_cell_length_b 13.580473
_cell_length_c 12.052044
_cell_angle_alpha 90.000000
_cell_angle_beta 84.399715
_cell_angle_gamma 90.000000
_cell_volume 2417.630740
_symmetry_space_group_name_H-M "C 2/C"
_symmetry_group_IT_number 15
_symmetry_cell_setting 'monoclinic'
loop_
_space_group_symop_operation_xyz
x,y,z
-x,y,1/2-z
-x,-y,-z
x,-y,1/2+z
1/2+x,1/2+y,z
1/2-x,1/2+y,1/2-z
1/2-x,1/2-y,-z
1/2+x,1/2-y,1/2+z
loop_
_atom_site_type_symbol
_atom_site_label
_atom_site_fract_x
_atom_site_fract_y
_atom_site_fract_z
Si Si1 0.500569 0.351850 0.986908
Si Si2 0.928303 0.279774 0.664340
Si Si3 0.762781 0.290220 0.372151
Si Si4 0.715294 0.021617 0.092816
Si Si5 0.509745 0.978123 0.629987
Si Si6 0.132017 0.009852 0.583080
Si Si7 0.136986 0.129290 0.277946
O O1 0.416886 0.428005 0.990157
O O2 0.551831 0.347092 0.864940
O O3 0.465427 0.251359 0.039332
O O4 0.574157 0.394531 0.063890
O O5 0.830578 0.231036 0.682677
O O6 0.000000 0.249468 0.750000
O O7 0.932516 0.396725 0.660613
O O8 0.750000 0.250000 0.500000
O O9 0.784204 0.406306 0.370700
O O10 0.835820 0.220268 0.303267
O O11 0.613702 0.058725 0.113019
O O12 0.780200 0.093115 0.155273
O O13 0.764364 0.020282 0.966347
O O14 0.500000 0.038789 0.750000
O O15 0.500000 0.000000 0.500000
O O16 0.119517 0.966320 0.705036
#
# Coordination Sequence:
#
# PCOD9282881 Si02
#       7
#     8   8   8   8   8   8   8
#     4  10  22  39  62 102 128 169 223 279 346 409
#     4  11  24  43  68  97 139 181 229 284 359 433
#     4  12  23  44  71  97 133 190 233 278 351 438
#     4  11  24  42  68  99 132 187 231 285 356 422
#     4  11  26  46  69 101 140 185 235 295 352 424
#     4  10  21  39  65  92 133 173 218 281 347 413
#     4  11  23  40  65  98 136 167 231 290 338 411
#
# _framework density 23.163174999999999
#
# number of rings (size 3 to 8) (size 9 to 14) (size 15 to 20)
#    0.000    1.143    2.857    3.000    4.000    1.143 
#    0.000    2.143    0.000    0.000    0.000    0.000 
#    0.000    0.000    0.000    0.000    0.000    0.000 
#
# Total GULP energy -156280.587990 kJ/mol
# GULP energy per Si atom -5581.449571 kJ/mol
# Density = 2.311045 g / cm^3
# Si number density = 23.163175 Si / 1000 Ang^3
#
#
#
# Elastic Constant Matrix: (Units=GPa)
#
#
# Indices 1 2 3 4 5 6 
#
# 1 55.2730 -28.8934 13.4324 0.0000 -2.3563 0.0000
# 2 -28.8934 49.9773 1.7936 0.0000 -6.8983 0.0000
# 3 13.4324 1.7936 129.5979 0.0000 -20.9646 0.0000
# 4 0.0000 0.0000 0.0000 29.5259 0.0000 -8.3164
# 5 -2.3563 -6.8983 -20.9646 0.0000 39.4975 0.0000
# 6 0.0000 0.0000 0.0000 -8.3164 0.0000 11.7364
#
#
#
# Elastic Compliance Matrix: (Units=1/GPa)
#
#
# Indices 1 2 3 4 5 6 
#
# 1 0.027404 0.016367 -0.002560 0.000000 0.003135 0.000000
# 2 0.016367 0.030292 -0.001205 0.000000 0.005627 0.000000
# 3 -0.002560 -0.001205 0.008685 0.000000 0.004247 0.000000
# 4 0.000000 0.000000 0.000000 0.042314 0.000000 0.029984
# 5 0.003135 0.005627 0.004247 0.000000 0.028742 0.000000
# 6 0.000000 0.000000 0.000000 0.029984 0.000000 0.106451
#
#
# Mechanical properties :
#
#
# Convention : Reuss Voigt Hill
#
# Bulk Modulus (GPa) = 10.91883 23.05704 16.98793
# Shear Modulus (GPa) = 20.06333 32.71966 26.39150
#
# Velocity S-wave (km/s) = 2.94628 3.76250 3.37912
# Velocity P-wave (km/s) = 4.03710 5.37131 4.75127
#
# Compressibility (1/GPa) = 0.09158491
#
# Stress axis : x y z
#
# Youngs Moduli (GPa) = 36.49153 33.01251 115.13919
#
# Poissons Ratio (x) = -0.54033 0.29472
# Poissons Ratio (y) = -0.59727 0.13879
# Poissons Ratio (z) = 0.09341 0.03979
#
# Static dielectric constant tensor:
#      x y z
#    x 1.871840 0.000000 0.041190 
#    y 0.000000 1.880970 0.000000 
#    z 0.041190 0.000000 1.968270 
# 
# From -- ./inp_files/97041.got.cif
#   From: 2010.05.17/outbox.cif.g08.bks.cpg/sg15_49_cif.got.tgz:97041.got - 2010.06.03 18:47:42.
