data_PCOD9282170
_publ_section_title
;
Structure prediction by ZEFSAII (Michael W. Deem and Ramdas Pophale) SiO2 
 PCOD9282170
Probable space group: C 2/C
;
_chemical_formula_sum "Si O2"
_cell_formula_units_Z 56
_cell_length_a 14.490349
_cell_length_b 23.991675
_cell_length_c 8.177668
_cell_angle_alpha 90.000000
_cell_angle_beta 72.484240
_cell_angle_gamma 90.000000
_cell_volume 2711.132283
_symmetry_space_group_name_H-M "C 2/C"
_symmetry_group_IT_number 15
_symmetry_cell_setting 'monoclinic'
loop_
_space_group_symop_operation_xyz
x,y,z
-x,y,1/2-z
-x,-y,-z
x,-y,1/2+z
1/2+x,1/2+y,z
1/2-x,1/2+y,1/2-z
1/2-x,1/2-y,-z
1/2+x,1/2-y,1/2+z
loop_
_atom_site_type_symbol
_atom_site_label
_atom_site_fract_x
_atom_site_fract_y
_atom_site_fract_z
Si Si1 0.392147 0.583982 0.260347
Si Si2 0.264874 0.110753 0.614656
Si Si3 0.946390 0.675509 0.001483
Si Si4 0.103134 0.968492 0.107362
Si Si5 0.144309 0.290907 0.287548
Si Si6 0.024839 0.438336 0.545085
Si Si7 0.250493 0.824904 0.784303
O O1 0.500000 0.605315 0.250000
O O2 0.368033 0.533387 0.396102
O O3 0.310285 0.631201 0.294141
O O4 0.398683 0.555198 0.076085
O O5 0.177217 0.068584 0.671305
O O6 0.285051 0.155906 0.742415
O O7 0.362439 0.075294 0.538454
O O8 0.246180 0.149158 0.466189
O O9 0.902652 0.705099 0.865691
O O10 0.054763 0.699880 0.961882
O O11 0.863054 0.681220 0.179079
O O12 0.966171 0.609118 0.976981
O O13 0.000000 0.964437 0.250000
O O14 0.198922 0.234327 0.295126
O O15 0.000000 0.431859 0.750000
O O16 0.000000 0.500000 0.500000
#
# Coordination Sequence:
#
# PCOD9282170 Si02
#       7
#     8   8   8   8   8   8   8
#     4  10  22  37  62  88 123 163 204 257 306 370
#     4  10  23  41  62  92 127 163 209 257 311 378
#     4  10  23  42  61  94 123 163 205 266 310 367
#     4  10  21  39  58  91 124 161 204 252 309 366
#     4  10  23  41  63  89 126 159 216 256 309 376
#     4  11  24  40  66  94 131 164 205 255 317 378
#     4  11  22  42  64  90 122 168 210 259 317 364
#
# _framework density 20.655574999999999
#
# number of rings (size 3 to 8) (size 9 to 14) (size 15 to 20)
#    0.000    1.714    1.429    2.571    8.000    2.286 
#    5.143    0.000    0.000    0.000    0.000    0.000 
#    0.000    0.000    0.000    0.000    0.000    0.000 
#
# Total GULP energy -156355.398456 kJ/mol
# GULP energy per Si atom -5584.121373 kJ/mol
# Density = 2.060856 g / cm^3
# Si number density = 20.655575 Si / 1000 Ang^3
#
#
#
# Elastic Constant Matrix: (Units=GPa)
#
#
# Indices 1 2 3 4 5 6 
#
# 1 76.5848 47.0892 -2.1380 0.0000 -0.5995 0.0000
# 2 47.0892 118.5224 8.6876 0.0000 -16.4741 0.0000
# 3 -2.1380 8.6876 37.2686 0.0000 -4.4176 0.0000
# 4 0.0000 0.0000 0.0000 11.2883 0.0000 11.5061
# 5 -0.5995 -16.4741 -4.4176 0.0000 24.4253 0.0000
# 6 0.0000 0.0000 0.0000 11.5061 0.0000 39.7144
#
#
#
# Elastic Compliance Matrix: (Units=1/GPa)
#
#
# Indices 1 2 3 4 5 6 
#
# 1 0.017966 -0.007933 0.002348 0.000000 -0.004485 0.000000
# 2 -0.007933 0.012891 -0.002506 0.000000 0.008047 0.000000
# 3 0.002348 -0.002506 0.027957 0.000000 0.003423 0.000000
# 4 0.000000 0.000000 0.000000 0.125711 0.000000 -0.036421
# 5 -0.004485 0.008047 0.003423 0.000000 0.046878 0.000000
# 6 0.000000 0.000000 0.000000 -0.036421 0.000000 0.035732
#
#
# Mechanical properties :
#
#
# Convention : Reuss Voigt Hill
#
# Bulk Modulus (GPa) = 23.45692 37.73927 30.59809
# Shear Modulus (GPa) = 16.80516 27.00141 21.90328
#
# Velocity S-wave (km/s) = 2.85544 3.61947 3.25992
# Velocity P-wave (km/s) = 4.71723 5.98146 5.38656
#
# Compressibility (1/GPa) = 0.04263134
#
# Stress axis : x y z
#
# Youngs Moduli (GPa) = 55.66114 77.57118 35.76921
#
# Poissons Ratio (x) = 0.61541 -0.08400
# Poissons Ratio (y) = 0.44158 0.08965
# Poissons Ratio (z) = -0.13071 0.19442
#
# Static dielectric constant tensor:
#      x y z
#    x 1.744380 0.000000 0.017370 
#    y 0.000000 1.706750 0.000000 
#    z 0.017370 0.000000 1.775100 
# 
# From -- ./inp_files/42095.got.cif
#   From: 2010.05.17/outbox.cif.g08.bks.cpg/sg15_22_cif.got.tgz:42095.got - 2010.06.03 18:47:42.
