data_PCOD9282500
_publ_section_title
;
Structure prediction by ZEFSAII (Michael W. Deem and Ramdas Pophale) SiO2 
 PCOD9282500
Probable space group: C 2/C
;
_chemical_formula_sum "Si O2"
_cell_formula_units_Z 56
_cell_length_a 28.929228
_cell_length_b 11.881258
_cell_length_c 10.790202
_cell_angle_alpha 90.000000
_cell_angle_beta 45.379098
_cell_angle_gamma 90.000000
_cell_volume 2639.784241
_symmetry_space_group_name_H-M "C 2/C"
_symmetry_group_IT_number 15
_symmetry_cell_setting 'monoclinic'
loop_
_space_group_symop_operation_xyz
x,y,z
-x,y,1/2-z
-x,-y,-z
x,-y,1/2+z
1/2+x,1/2+y,z
1/2-x,1/2+y,1/2-z
1/2-x,1/2-y,-z
1/2+x,1/2-y,1/2+z
loop_
_atom_site_type_symbol
_atom_site_label
_atom_site_fract_x
_atom_site_fract_y
_atom_site_fract_z
Si Si1 0.323298 0.220407 0.398060
Si Si2 0.086599 0.846216 0.815806
Si Si3 0.812958 0.913650 0.044669
Si Si4 0.146342 0.055733 0.759385
Si Si5 0.511549 0.155018 0.869181
Si Si6 0.175649 0.305695 0.316824
Si Si7 0.607107 0.003938 0.313921
O O1 0.250000 0.250000 0.500000
O O2 0.365019 0.313563 0.246102
O O3 0.332811 0.231316 0.526378
O O4 0.340917 0.093252 0.331103
O O5 0.119061 0.852969 0.617960
O O6 0.025500 0.765247 0.925473
O O7 0.142771 0.786911 0.791736
O O8 0.084058 0.973189 0.871210
O O9 0.817991 0.956555 0.175892
O O10 0.751173 0.832443 0.150338
O O11 0.812279 0.007593 0.936703
O O12 0.500000 0.185817 0.750000
O O13 0.575787 0.077396 0.768766
O O14 0.451834 0.079174 0.025019
O O15 0.137686 0.421507 0.358314
#
# Coordination Sequence:
#
# PCOD9282500 Si02
#       7
#     8   8   8   8   8   8   8
#     4  12  23  39  61  98 135 169 210 263 327 393
#     4   9  23  39  63  89 124 171 214 263 321 379
#     4  10  21  39  62  93 133 173 216 256 326 393
#     4  10  22  39  60  93 131 175 210 264 320 394
#     4  10  21  43  65  88 120 163 227 269 315 380
#     4  11  21  40  61  96 132 171 215 266 328 386
#     4  10  24  39  64  94 123 171 213 273 325 375
#
# _framework density 21.213854999999999
#
# number of rings (size 3 to 8) (size 9 to 14) (size 15 to 20)
#    0.857    0.857    1.429    3.000    2.000    0.000 
#    0.000    0.714    0.000    0.000    0.000    0.000 
#    0.000    0.000    0.000    0.000    0.000    0.000 
#
# Total GULP energy -156134.293948 kJ/mol
# GULP energy per Si atom -5576.224784 kJ/mol
# Density = 2.116557 g / cm^3
# Si number density = 21.213855 Si / 1000 Ang^3
#
#
#
# Elastic Constant Matrix: (Units=GPa)
#
#
# Indices 1 2 3 4 5 6 
#
# 1 94.8868 22.9170 30.2345 0.0000 25.0083 0.0000
# 2 22.9170 89.1598 4.1455 0.0000 2.5621 0.0000
# 3 30.2345 4.1455 29.9344 0.0000 10.2590 0.0000
# 4 0.0000 0.0000 0.0000 31.5538 0.0000 -1.5444
# 5 25.0083 2.5621 10.2590 0.0000 40.6911 0.0000
# 6 0.0000 0.0000 0.0000 -1.5444 0.0000 30.8791
#
#
#
# Elastic Compliance Matrix: (Units=1/GPa)
#
#
# Indices 1 2 3 4 5 6 
#
# 1 0.018247 -0.003767 -0.015484 0.000000 -0.007073 0.000000
# 2 -0.003767 0.012071 0.001751 0.000000 0.001113 0.000000
# 3 -0.015484 0.001751 0.049890 0.000000 -0.003172 0.000000
# 4 0.000000 0.000000 0.000000 0.031770 0.000000 0.001589
# 5 -0.007073 0.001113 -0.003172 0.000000 0.029652 0.000000
# 6 0.000000 0.000000 0.000000 0.001589 0.000000 0.032464
#
#
# Mechanical properties :
#
#
# Convention : Reuss Voigt Hill
#
# Bulk Modulus (GPa) = 22.11955 36.50832 29.31394
# Shear Modulus (GPa) = 22.30541 31.07041 26.68791
#
# Velocity S-wave (km/s) = 3.24613 3.83120 3.55074
# Velocity P-wave (km/s) = 4.94969 6.06777 5.53702
#
# Compressibility (1/GPa) = 0.04520888
#
# Stress axis : x y z
#
# Youngs Moduli (GPa) = 54.80490 82.84606 20.04406
#
# Poissons Ratio (x) = 0.31206 0.31036
# Poissons Ratio (y) = 0.20644 -0.03510
# Poissons Ratio (z) = 0.84859 -0.14509
#
# Static dielectric constant tensor:
#      x y z
#    x 1.742860 0.000000 -0.018140 
#    y 0.000000 1.799120 0.000000 
#    z -0.018140 0.000000 1.811430 
# 
# From -- ./inp_files/122616.got.cif
#   From: 2010.05.17/outbox.cif.g08.bks.cpg/sg15_62_cif.got.tgz:122616.got - 2010.06.03 18:47:42.
