data_PCOD9282468
_publ_section_title
;
Structure prediction by ZEFSAII (Michael W. Deem and Ramdas Pophale) SiO2 
 PCOD9282468
Probable space group: C 2/C
;
_chemical_formula_sum "Si O2"
_cell_formula_units_Z 52
_cell_length_a 23.721359
_cell_length_b 18.354981
_cell_length_c 9.759626
_cell_angle_alpha 90.000000
_cell_angle_beta 30.169238
_cell_angle_gamma 90.000000
_cell_volume 2135.556228
_symmetry_space_group_name_H-M "C 2/C"
_symmetry_group_IT_number 15
_symmetry_cell_setting 'monoclinic'
loop_
_space_group_symop_operation_xyz
x,y,z
-x,y,1/2-z
-x,-y,-z
x,-y,1/2+z
1/2+x,1/2+y,z
1/2-x,1/2+y,1/2-z
1/2-x,1/2-y,-z
1/2+x,1/2-y,1/2+z
loop_
_atom_site_type_symbol
_atom_site_label
_atom_site_fract_x
_atom_site_fract_y
_atom_site_fract_z
Si Si1 0.397471 0.810590 0.696804
Si Si2 0.000000 0.687782 0.250000
Si Si3 0.796383 0.217417 0.692760
Si Si4 0.709549 0.108243 0.694218
Si Si5 0.714723 0.941636 0.622392
Si Si6 0.788609 0.139561 0.240391
Si Si7 0.421360 0.502435 0.035419
O O1 0.476314 0.777446 0.649784
O O2 0.392997 0.764413 0.565986
O O3 0.401188 0.898571 0.668742
O O4 0.274257 0.809276 0.027553
O O5 0.894737 0.636916 0.501803
O O6 0.812492 0.152106 0.550941
O O7 0.716161 0.274711 0.778991
O O8 0.704046 0.129302 0.545557
O O9 0.706844 0.021914 0.702952
O O10 0.760246 0.893569 0.652246
O O11 0.807209 0.958102 0.309152
O O12 0.889484 0.087257 0.075526
O O13 0.500000 0.474238 0.750000
O O14 0.500000 0.500000 0.000000
#
# Coordination Sequence:
#
# PCOD9282468 Si02
#       7
#     8   4   8   8   8   8   8
#     4   9  20  40  64  90 127 169 209 265 324 387
#     4  10  22  38  60  98 124 162 224 272 310 376
#     4   9  19  39  63  87 121 171 212 250 327 394
#     4  10  22  37  64  89 127 167 215 265 319 385
#     4  10  22  39  64  92 129 170 214 261 334 382
#     4  10  21  39  62  91 126 174 207 261 328 391
#     4  11  22  38  62  98 129 164 218 271 317 390
#
# _framework density 24.349627999999999
#
# number of rings (size 3 to 8) (size 9 to 14) (size 15 to 20)
#    0.000    2.154    1.538    0.462    8.615    0.615 
#    5.538    2.308    0.000    3.692    0.000    0.000 
#    0.000    0.000    0.000    0.000    0.000    0.000 
#
# Total GULP energy -144746.937426 kJ/mol
# GULP energy per Si atom -5567.189901 kJ/mol
# Density = 2.429421 g / cm^3
# Si number density = 24.349628 Si / 1000 Ang^3
#
#
#
# Elastic Constant Matrix: (Units=GPa)
#
#
# Indices 1 2 3 4 5 6 
#
# 1 136.6138 31.1975 9.3360 0.0000 21.6577 0.0000
# 2 31.1975 118.4136 4.2250 0.0000 9.2033 0.0000
# 3 9.3360 4.2250 88.7913 0.0000 21.9558 0.0000
# 4 0.0000 0.0000 0.0000 18.4893 0.0000 11.2980
# 5 21.6577 9.2033 21.9558 0.0000 26.9202 0.0000
# 6 0.0000 0.0000 0.0000 11.2980 0.0000 23.3289
#
#
#
# Elastic Compliance Matrix: (Units=1/GPa)
#
#
# Indices 1 2 3 4 5 6 
#
# 1 0.008814 -0.001792 0.000953 0.000000 -0.007255 0.000000
# 2 -0.001792 0.009051 0.000208 0.000000 -0.001822 0.000000
# 3 0.000953 0.000208 0.014229 0.000000 -0.012443 0.000000
# 4 0.000000 0.000000 0.000000 0.076818 0.000000 -0.037202
# 5 -0.007255 -0.001822 -0.012443 0.000000 0.053755 0.000000
# 6 0.000000 0.000000 0.000000 -0.037202 0.000000 0.060882
#
#
# Mechanical properties :
#
#
# Convention : Reuss Voigt Hill
#
# Bulk Modulus (GPa) = 32.43371 48.14839 40.29105
# Shear Modulus (GPa) = 21.26847 33.68502 27.47674
#
# Velocity S-wave (km/s) = 2.95864 3.72343 3.36285
# Velocity P-wave (km/s) = 5.00204 6.18886 5.62682
#
# Compressibility (1/GPa) = 0.03083212
#
# Stress axis : x y z
#
# Youngs Moduli (GPa) = 113.45159 110.48024 70.27879
#
# Poissons Ratio (x) = 0.19802 -0.06695
# Poissons Ratio (y) = 0.20334 -0.01465
# Poissons Ratio (z) = -0.10807 -0.02303
#
# Static dielectric constant tensor:
#      x y z
#    x 2.050860 0.000000 -0.065530 
#    y 0.000000 2.075120 0.000000 
#    z -0.065530 0.000000 1.964970 
# 
# From -- ./inp_files/63366.got.cif
#   From: 2010.05.17/outbox.cif.g08.bks.cpg/sg15_32_cif.got.tgz:63366.got - 2010.06.03 18:47:42.
