data_PCOD9282991
_publ_section_title
;
Structure prediction by ZEFSAII (Michael W. Deem and Ramdas Pophale) SiO2 
 PCOD9282991
Probable space group: C 2/C
;
_chemical_formula_sum "Si O2"
_cell_formula_units_Z 64
_cell_length_a 26.889377
_cell_length_b 15.190349
_cell_length_c 12.968078
_cell_angle_alpha 90.000000
_cell_angle_beta 143.484129
_cell_angle_gamma 90.000000
_cell_volume 3151.913081
_symmetry_space_group_name_H-M "C 2/C"
_symmetry_group_IT_number 15
_symmetry_cell_setting 'monoclinic'
loop_
_space_group_symop_operation_xyz
x,y,z
-x,y,1/2-z
-x,-y,-z
x,-y,1/2+z
1/2+x,1/2+y,z
1/2-x,1/2+y,1/2-z
1/2-x,1/2-y,-z
1/2+x,1/2-y,1/2+z
loop_
_atom_site_type_symbol
_atom_site_label
_atom_site_fract_x
_atom_site_fract_y
_atom_site_fract_z
Si Si1 0.356202 0.846065 0.178745
Si Si2 0.160682 0.860515 0.824057
Si Si3 0.975838 0.425734 0.541812
Si Si4 0.089544 0.999097 0.350069
Si Si5 0.868042 0.325490 0.766986
Si Si6 0.300860 0.517121 0.277019
Si Si7 0.685639 0.370044 0.375387
Si Si8 0.612051 0.073706 0.987799
O O1 0.356470 0.740546 0.181038
O O2 0.401792 0.875391 0.358883
O O3 0.259066 0.876532 0.015791
O O4 0.399637 0.883857 0.146031
O O5 0.099027 0.921872 0.785434
O O6 0.155568 0.895400 0.698238
O O7 0.939368 0.484809 0.573290
O O8 0.000000 0.500000 0.500000
O O9 0.057931 0.363445 0.683833
O O10 0.120420 0.910585 0.346960
O O11 0.000000 0.991353 0.250000
O O12 0.153681 0.017935 0.547865
O O13 0.776975 0.362121 0.581033
O O14 0.851486 0.221376 0.728981
O O15 0.893720 0.357731 0.925375
O O16 0.303928 0.441874 0.196353
O O17 0.207583 0.543311 0.147614
#
# Coordination Sequence:
#
# PCOD9282991 Si02
#       8
#     8   8   8   8   8   8   8   8
#     4  10  21  41  65  94 129 160 210 260 304 383
#     4   9  22  40  65  92 125 166 204 265 309 366
#     4  10  23  38  62  91 131 162 199 264 316 361
#     4  11  23  40  63  91 121 160 215 258 315 371
#     4  10  22  42  61  91 126 165 210 254 309 372
#     4  10  21  39  67  88 125 166 203 256 320 372
#     4  10  23  43  64  87 127 165 209 260 304 376
#     4  10  21  39  66  92 125 165 208 249 320 380
#
# _framework density 20.305129000000001
#
# number of rings (size 3 to 8) (size 9 to 14) (size 15 to 20)
#    0.000    2.000    1.250    0.750   10.500    6.000 
#    4.500    2.500    0.000    0.000    0.000    0.000 
#    0.000    0.000    0.000    0.000    0.000    0.000 
#
# Total GULP energy -178541.227794 kJ/mol
# GULP energy per Si atom -5579.413369 kJ/mol
# Density = 2.025891 g / cm^3
# Si number density = 20.305129 Si / 1000 Ang^3
#
#
#
# Elastic Constant Matrix: (Units=GPa)
#
#
# Indices 1 2 3 4 5 6 
#
# 1 84.0057 31.3282 17.7181 0.0000 -6.3015 0.0000
# 2 31.3282 93.4338 29.6302 0.0000 1.1639 0.0000
# 3 17.7181 29.6302 51.6897 0.0000 -6.3148 0.0000
# 4 0.0000 0.0000 0.0000 -27.2130 0.0000 -46.2732
# 5 -6.3015 1.1639 -6.3148 0.0000 18.6579 0.0000
# 6 0.0000 0.0000 0.0000 -46.2732 0.0000 -35.5600
#
#
#
# Elastic Compliance Matrix: (Units=1/GPa)
#
#
# Indices 1 2 3 4 5 6 
#
# 1 0.014210 -0.004211 -0.001918 0.000000 0.004413 0.000000
# 2 -0.004211 0.014551 -0.007492 0.000000 -0.004866 0.000000
# 3 -0.001918 -0.007492 0.025323 0.000000 0.008390 0.000000
# 4 0.000000 0.000000 0.000000 0.030302 0.000000 -0.039431
# 5 0.004413 -0.004866 0.008390 0.000000 0.058230 0.000000
# 6 0.000000 0.000000 0.000000 -0.039431 0.000000 0.023189
#
#
# Mechanical properties :
#
#
# Convention : Reuss Voigt Hill
#
# Bulk Modulus (GPa) = 37.25474 42.94248 40.09861
# Shear Modulus (GPa) = 24.75292 1.20716 12.98004
#
# Velocity S-wave (km/s) = 3.49527 0.77188 2.53108
# Velocity P-wave (km/s) = 5.88868 4.68923 5.32285
#
# Compressibility (1/GPa) = 0.02684222
#
# Stress axis : x y z
#
# Youngs Moduli (GPa) = 70.37298 68.72183 39.48928
#
# Poissons Ratio (x) = 0.28942 0.07573
# Poissons Ratio (y) = 0.29637 0.29586
# Poissons Ratio (z) = 0.13495 0.51488
#
# Static dielectric constant tensor:
#      x y z
#    x 1.750610 0.000000 0.010990 
#    y 0.000000 0.766800 0.000000 
#    z 0.010990 0.000000 1.778560 
# 
# From -- ./inp_files/123555.got.cif
#   From: 2010.05.17/outbox.cif.g08.bks.cpg/sg15_62_cif.got.tgz:123555.got - 2010.06.03 18:47:42.
