data_PCOD9282735
_publ_section_title
;
Structure prediction by ZEFSAII (Michael W. Deem and Ramdas Pophale) SiO2 
 PCOD9282735
Probable space group: C 2/C
;
_chemical_formula_sum "Si O2"
_cell_formula_units_Z 56
_cell_length_a 19.676455
_cell_length_b 28.410740
_cell_length_c 5.099385
_cell_angle_alpha 90.000000
_cell_angle_beta 75.559487
_cell_angle_gamma 90.000000
_cell_volume 2760.610641
_symmetry_space_group_name_H-M "C 2/C"
_symmetry_group_IT_number 15
_symmetry_cell_setting 'monoclinic'
loop_
_space_group_symop_operation_xyz
x,y,z
-x,y,1/2-z
-x,-y,-z
x,-y,1/2+z
1/2+x,1/2+y,z
1/2-x,1/2+y,1/2-z
1/2-x,1/2-y,-z
1/2+x,1/2-y,1/2+z
loop_
_atom_site_type_symbol
_atom_site_label
_atom_site_fract_x
_atom_site_fract_y
_atom_site_fract_z
Si Si1 0.643763 0.124187 0.967672
Si Si2 0.629279 0.740268 0.057004
Si Si3 0.000000 0.111742 0.750000
Si Si4 0.000000 0.822225 0.750000
Si Si5 0.779017 0.470081 0.969734
Si Si6 0.613745 0.531751 0.660627
Si Si7 0.759758 0.293097 0.182898
Si Si8 0.072799 0.662773 0.520538
O O1 0.582855 0.136032 0.236177
O O2 0.671878 0.072300 0.988608
O O3 0.708033 0.160078 0.967958
O O4 0.621713 0.136256 0.690525
O O5 0.566562 0.711226 0.243791
O O6 0.681514 0.771677 0.181418
O O7 0.593338 0.782902 0.930593
O O8 0.682430 0.702591 0.878717
O O9 0.988184 0.144850 0.511324
O O10 0.066376 0.077062 0.655152
O O11 0.790831 0.512776 0.162232
O O12 0.696661 0.456794 0.071230
O O13 0.598865 0.492269 0.454658
O O14 0.750000 0.250000 0.000000
O O15 0.000000 0.664542 0.750000
#
# Coordination Sequence:
#
# PCOD9282735 Si02
#       8
#     8   8   4   4   8   8   8   8
#     4  11  23  38  67  94 120 165 201 259 309 370
#     4  10  23  41  57  89 129 171 209 255 312 364
#     4  12  26  41  58  94 122 172 216 253 310 364
#     4  12  28  39  60  90 136 176 202 259 310 366
#     4  10  22  41  64  94 123 157 204 263 319 369
#     4  10  21  41  66  86 118 162 210 264 311 363
#     4  10  21  39  64  91 125 164 212 264 311 365
#     4  11  22  41  64  91 124 162 210 243 298 382
#
# _framework density 20.285367000000001
#
# number of rings (size 3 to 8) (size 9 to 14) (size 15 to 20)
#    0.000    1.429    2.143    2.571    4.000    0.000 
#    0.000    0.000    0.000    8.571    0.000    0.000 
#    0.000    0.000    0.000    0.000    0.000    0.000 
#
# Total GULP energy -156185.621387 kJ/mol
# GULP energy per Si atom -5578.057907 kJ/mol
# Density = 2.023920 g / cm^3
# Si number density = 20.285367 Si / 1000 Ang^3
#
#
#
# Elastic Constant Matrix: (Units=GPa)
#
#
# Indices 1 2 3 4 5 6 
#
# 1 60.4271 24.9390 7.4181 0.0000 -19.9881 0.0000
# 2 24.9390 66.8879 0.0017 0.0000 -14.7089 0.0000
# 3 7.4181 0.0017 62.2640 0.0000 -1.5463 0.0000
# 4 0.0000 0.0000 0.0000 19.3569 0.0000 1.0401
# 5 -19.9881 -14.7089 -1.5463 0.0000 33.2939 0.0000
# 6 0.0000 0.0000 0.0000 1.0401 0.0000 22.8652
#
#
#
# Elastic Compliance Matrix: (Units=1/GPa)
#
#
# Indices 1 2 3 4 5 6 
#
# 1 0.023034 -0.006172 -0.002471 0.000000 0.010987 0.000000
# 2 -0.006172 0.018215 0.000844 0.000000 0.004381 0.000000
# 3 -0.002471 0.000844 0.016346 0.000000 -0.000352 0.000000
# 4 0.000000 0.000000 0.000000 0.051788 0.000000 -0.002356
# 5 0.010987 0.004381 -0.000352 0.000000 0.038551 0.000000
# 6 0.000000 0.000000 0.000000 -0.002356 0.000000 0.043842
#
#
# Mechanical properties :
#
#
# Convention : Reuss Voigt Hill
#
# Bulk Modulus (GPa) = 23.81182 28.25520 26.03351
# Shear Modulus (GPa) = 22.58633 25.58455 24.08544
#
# Velocity S-wave (km/s) = 3.34043 3.55524 3.44950
# Velocity P-wave (km/s) = 5.16158 5.55086 5.35975
#
# Compressibility (1/GPa) = 0.04199595
#
# Stress axis : x y z
#
# Youngs Moduli (GPa) = 43.41462 54.89988 61.17587
#
# Poissons Ratio (x) = 0.33884 0.15118
# Poissons Ratio (y) = 0.26795 -0.05161
# Poissons Ratio (z) = 0.10729 -0.04632
#
# Static dielectric constant tensor:
#      x y z
#    x 1.893910 0.000000 0.065490 
#    y 0.000000 1.732290 0.000000 
#    z 0.065490 0.000000 2.036770 
# 
# From -- ./inp_files/11514.got.cif
#   From: 2010.05.17/outbox.cif.g08.bks.cpg/sg15_6_cif.got.tgz:11514.got - 2010.06.03 18:47:42.
