data_PCOD9282184
_publ_section_title
;
Structure prediction by ZEFSAII (Michael W. Deem and Ramdas Pophale) SiO2 
 PCOD9282184
Probable space group: C 2/C
;
_chemical_formula_sum "Si O2"
_cell_formula_units_Z 48
_cell_length_a 12.957337
_cell_length_b 10.646819
_cell_length_c 16.084330
_cell_angle_alpha 90.000000
_cell_angle_beta 73.098850
_cell_angle_gamma 90.000000
_cell_volume 2123.064967
_symmetry_space_group_name_H-M "C 2/C"
_symmetry_group_IT_number 15
_symmetry_cell_setting 'monoclinic'
loop_
_space_group_symop_operation_xyz
x,y,z
-x,y,1/2-z
-x,-y,-z
x,-y,1/2+z
1/2+x,1/2+y,z
1/2-x,1/2+y,1/2-z
1/2-x,1/2-y,-z
1/2+x,1/2-y,1/2+z
loop_
_atom_site_type_symbol
_atom_site_label
_atom_site_fract_x
_atom_site_fract_y
_atom_site_fract_z
Si Si1 0.689434 0.698695 0.597102
Si Si2 0.254259 0.801212 0.406694
Si Si3 0.194583 0.052131 0.202323
Si Si4 0.888412 0.542179 0.764667
Si Si5 0.009491 0.855772 0.464622
Si Si6 0.389068 0.713642 0.153929
O O1 0.750000 0.750000 0.500000
O O2 0.689243 0.557491 0.635654
O O3 0.566179 0.696934 0.591855
O O4 0.765168 0.768956 0.648532
O O5 0.250000 0.750000 0.500000
O O6 0.294963 0.683717 0.345336
O O7 0.331147 0.916909 0.364037
O O8 0.132707 0.835556 0.411978
O O9 0.302416 0.025472 0.228119
O O10 0.105160 0.084435 0.294000
O O11 0.915456 0.668040 0.705633
O O12 0.000000 0.470574 0.750000
O O13 0.969260 0.784118 0.557297
O O14 0.000000 0.000000 0.500000
#
# Coordination Sequence:
#
# PCOD9282184 Si02
#       6
#     8   8   8   8   8   8
#     4   9  20  39  60  85 120 158 201 251 307 365
#     4  11  23  39  60  90 120 154 204 249 297 367
#     4  10  21  39  61  86 118 158 202 248 298 362
#     4  10  21  39  59  83 117 155 193 242 298 353
#     4  11  21  37  61  89 118 156 200 252 304 358
#     4   9  20  39  58  83 119 157 196 242 301 359
#
# _framework density 22.608823000000001
#
# number of rings (size 3 to 8) (size 9 to 14) (size 15 to 20)
#    0.000    2.000    0.000    3.000    0.000    4.000 
#    0.000   26.667    0.000    0.000    0.000    0.000 
#    0.000    0.000    0.000    0.000    0.000    0.000 
#
# Total GULP energy -133661.857308 kJ/mol
# GULP energy per Si atom -5569.244054 kJ/mol
# Density = 2.255736 g / cm^3
# Si number density = 22.608823 Si / 1000 Ang^3
#
#
#
# Elastic Constant Matrix: (Units=GPa)
#
#
# Indices 1 2 3 4 5 6 
#
# 1 83.1689 -30.4369 10.6769 0.0000 0.1176 0.0000
# 2 -30.4369 33.6298 4.0154 0.0000 3.7364 0.0000
# 3 10.6769 4.0154 66.2740 0.0000 1.6806 0.0000
# 4 0.0000 0.0000 0.0000 23.7103 0.0000 5.2292
# 5 0.1176 3.7364 1.6806 0.0000 31.5955 0.0000
# 6 0.0000 0.0000 0.0000 5.2292 0.0000 1.1614
#
#
#
# Elastic Compliance Matrix: (Units=1/GPa)
#
#
# Indices 1 2 3 4 5 6 
#
# 1 0.019167 0.018061 -0.004132 0.000000 -0.001987 0.000000
# 2 0.018061 0.047352 -0.005642 0.000000 -0.005367 0.000000
# 3 -0.004132 -0.005642 0.016101 0.000000 -0.000174 0.000000
# 4 0.000000 0.000000 0.000000 6.057885 0.000000-27.276547
# 5 -0.001987 -0.005367 -0.000174 0.000000 0.032301 0.000000
# 6 0.000000 0.000000 0.000000-27.276547 0.000000123.677854
#
#
# Mechanical properties :
#
#
# Convention : Reuss Voigt Hill
#
# Bulk Modulus (GPa) = 10.08137 16.84261 13.46199
# Shear Modulus (GPa) = 0.03850 24.54792 12.29321
#
# Velocity S-wave (km/s) = 0.13064 3.29867 2.33434
# Velocity P-wave (km/s) = 2.11931 4.68765 3.63769
#
# Compressibility (1/GPa) = 0.09919291
#
# Stress axis : x y z
#
# Youngs Moduli (GPa) = 52.17397 21.11854 62.10888
#
# Poissons Ratio (x) = -0.38142 0.25661
# Poissons Ratio (y) = -0.94232 0.35045
# Poissons Ratio (z) = 0.21557 0.11916
#
# Static dielectric constant tensor:
#      x y z
#    x 1.881930 0.000000 0.018500 
#    y 0.000000 1.833350 0.000000 
#    z 0.018500 0.000000 1.863940 
# 
# From -- ./inp_files/196527.got.cif
#   From: 2010.05.17/outbox.cif.g08.bks.cpg/sg15_99_cif.got.tgz:196527.got - 2010.06.03 18:47:42.
