data_PCOD9282501
_publ_section_title
;
Structure prediction by ZEFSAII (Michael W. Deem and Ramdas Pophale) SiO2 
 PCOD9282501
Probable space group: C 2/C
;
_chemical_formula_sum "Si O2"
_cell_formula_units_Z 52
_cell_length_a 24.501065
_cell_length_b 6.279043
_cell_length_c 15.532981
_cell_angle_alpha 90.000000
_cell_angle_beta 116.305072
_cell_angle_gamma 90.000000
_cell_volume 2142.189805
_symmetry_space_group_name_H-M "C 2/C"
_symmetry_group_IT_number 15
_symmetry_cell_setting 'monoclinic'
loop_
_space_group_symop_operation_xyz
x,y,z
-x,y,1/2-z
-x,-y,-z
x,-y,1/2+z
1/2+x,1/2+y,z
1/2-x,1/2+y,1/2-z
1/2-x,1/2-y,-z
1/2+x,1/2-y,1/2+z
loop_
_atom_site_type_symbol
_atom_site_label
_atom_site_fract_x
_atom_site_fract_y
_atom_site_fract_z
Si Si1 0.174893 0.547085 0.666077
Si Si2 0.759069 0.808146 0.382442
Si Si3 0.903630 0.712081 0.265404
Si Si4 0.003381 0.040157 0.397533
Si Si5 0.809327 0.618335 0.067744
Si Si6 0.869382 0.866604 0.979782
Si Si7 0.500000 0.102870 0.750000
O O1 0.216732 0.423222 0.625329
O O2 0.223913 0.607798 0.773131
O O3 0.123181 0.387665 0.665483
O O4 0.137176 0.762954 0.618819
O O5 0.709496 0.879993 0.419575
O O6 0.817707 0.954029 0.443815
O O7 0.841931 0.744601 0.168432
O O8 0.948516 0.903953 0.318426
O O9 0.942726 0.545290 0.235658
O O10 0.070578 0.947448 0.433867
O O11 0.006090 0.255247 0.341839
O O12 0.000000 0.000000 0.500000
O O13 0.750000 0.750000 0.000000
O O14 0.855045 0.652418 0.022655
#
# Coordination Sequence:
#
# PCOD9282501 Si02
#       7
#     8   8   8   8   8   8   4
#     4  11  22  40  67  97 132 179 231 290 356 429
#     4  10  21  39  62  93 134 177 227 287 355 429
#     4  11  25  45  70 101 143 187 245 298 364 444
#     4  12  27  47  73 108 149 195 251 316 377 446
#     4   9  21  41  64  97 136 181 228 294 361 430
#     4  11  22  40  65  96 138 177 233 294 358 436
#     4  12  26  48  76 102 146 200 246 306 380 440
#
# _framework density 24.274228000000001
#
# number of rings (size 3 to 8) (size 9 to 14) (size 15 to 20)
#    0.000    1.231    1.538    4.154    0.000    6.769 
#    0.000    7.692    0.000    0.000    0.000    0.000 
#    0.000    0.000    0.000    0.000    0.000    0.000 
#
# Total GULP energy -144919.776514 kJ/mol
# GULP energy per Si atom -5573.837558 kJ/mol
# Density = 2.421898 g / cm^3
# Si number density = 24.274228 Si / 1000 Ang^3
#
#
#
# Elastic Constant Matrix: (Units=GPa)
#
#
# Indices 1 2 3 4 5 6 
#
# 1 59.1256 23.9668 24.3064 0.0000 11.3277 0.0000
# 2 23.9668 69.0518 47.2612 0.0000 5.4383 0.0001
# 3 24.3064 47.2612 113.3733 0.0000 26.0522 0.0000
# 4 0.0000 0.0000 0.0000 43.3964 0.0000 3.2190
# 5 11.3277 5.4383 26.0522 0.0000 46.2630 0.0000
# 6 0.0000 0.0001 0.0000 3.2190 0.0000 30.9612
#
#
#
# Elastic Compliance Matrix: (Units=1/GPa)
#
#
# Indices 1 2 3 4 5 6 
#
# 1 0.020531 -0.006168 -0.000967 0.000000 -0.003757 0.000000
# 2 -0.006168 0.022421 -0.008920 0.000000 0.003898 0.000000
# 3 -0.000967 -0.008920 0.014301 0.000000 -0.006768 0.000000
# 4 0.000000 0.000000 0.000000 0.023222 0.000000 -0.002414
# 5 -0.003757 0.003898 -0.006768 0.000000 0.025889 0.000000
# 6 0.000000 0.000000 0.000000 -0.002414 0.000000 0.032549
#
#
# Mechanical properties :
#
#
# Convention : Reuss Voigt Hill
#
# Bulk Modulus (GPa) = 39.77198 48.06882 43.92040
# Shear Modulus (GPa) = 27.87005 33.85855 30.86430
#
# Velocity S-wave (km/s) = 3.39209 3.73880 3.56966
# Velocity P-wave (km/s) = 5.63575 6.20351 5.92644
#
# Compressibility (1/GPa) = 0.02514333
#
# Stress axis : x y z
#
# Youngs Moduli (GPa) = 48.70719 44.60175 69.92399
#
# Poissons Ratio (x) = 0.27511 0.06761
# Poissons Ratio (y) = 0.30044 0.62369
# Poissons Ratio (z) = 0.04710 0.39783
#
# Static dielectric constant tensor:
#      x y z
#    x 2.061500 0.000000 -0.099690 
#    y 0.000000 1.950660 0.000000 
#    z -0.099690 0.000000 2.115670 
# 
# From -- ./inp_files/221361.got.cif
#   From: 2010.05.17/outbox.cif.g08.bks.cpg/sg15_111_cif.got.tgz:221361.got - 2010.06.03 18:47:42.
