data_PCOD9282985
_publ_section_title
;
Structure prediction by ZEFSAII (Michael W. Deem and Ramdas Pophale) SiO2 
 PCOD9282985
Probable space group: C 2/C
;
_chemical_formula_sum "Si O2"
_cell_formula_units_Z 60
_cell_length_a 6.564836
_cell_length_b 23.874455
_cell_length_c 19.551794
_cell_angle_alpha 90.000000
_cell_angle_beta 93.059040
_cell_angle_gamma 90.000000
_cell_volume 3060.022940
_symmetry_space_group_name_H-M "C 2/C"
_symmetry_group_IT_number 15
_symmetry_cell_setting 'monoclinic'
loop_
_space_group_symop_operation_xyz
x,y,z
-x,y,1/2-z
-x,-y,-z
x,-y,1/2+z
1/2+x,1/2+y,z
1/2-x,1/2+y,1/2-z
1/2-x,1/2-y,-z
1/2+x,1/2-y,1/2+z
loop_
_atom_site_type_symbol
_atom_site_label
_atom_site_fract_x
_atom_site_fract_y
_atom_site_fract_z
Si Si1 0.500000 0.581224 0.750000
Si Si2 0.895525 0.683504 0.544641
Si Si3 0.909351 0.380766 0.823305
Si Si4 0.278944 0.851794 0.551360
Si Si5 0.132748 0.807401 0.910785
Si Si6 0.907813 0.950969 0.042243
Si Si7 0.282600 0.909629 0.142235
Si Si8 0.840195 0.488384 0.338021
O O1 0.347173 0.614750 0.796553
O O2 0.340349 0.541909 0.706981
O O3 0.833549 0.740998 0.580535
O O4 0.729369 0.668692 0.483322
O O5 0.907683 0.635758 0.601682
O O6 0.098430 0.685553 0.501812
O O7 0.733385 0.338778 0.848191
O O8 0.843583 0.445950 0.821223
O O9 0.000000 0.366624 0.750000
O O10 0.074474 0.375399 0.887093
O O11 0.181050 0.902187 0.506571
O O12 0.105422 0.818184 0.587526
O O13 0.727644 0.976363 0.085466
O O14 0.098942 0.930868 0.091163
O O15 0.000000 0.000000 0.000000
O O16 0.439949 0.958365 0.167596
#
# Coordination Sequence:
#
# PCOD9282985 Si02
#       8
#     4   8   8   8   8   8   8   8
#     4  10  24  40  60  92 120 170 200 244 304 376
#     4  10  21  39  66  91 120 160 200 261 310 362
#     4  11  25  41  62  89 126 170 205 250 308 378
#     4  11  21  39  63  93 121 159 209 257 312 365
#     4  10  22  41  62  91 122 155 210 255 310 364
#     4  11  22  33  59  96 125 155 197 253 310 362
#     4  11  21  39  61  91 125 157 203 248 309 366
#     4  11  23  40  61  88 129 162 206 249 308 378
#
# _framework density 19.607696000000001
#
# number of rings (size 3 to 8) (size 9 to 14) (size 15 to 20)
#    0.000    1.333    2.667    3.200    1.867    4.800 
#    1.200    0.000    2.933    0.000    0.000    0.000 
#    0.000    0.000    0.000    0.000    0.000    0.000 
#
# Total GULP energy -167324.415181 kJ/mol
# GULP energy per Si atom -5577.480506 kJ/mol
# Density = 1.956307 g / cm^3
# Si number density = 19.607696 Si / 1000 Ang^3
#
#
#
# Elastic Constant Matrix: (Units=GPa)
#
#
# Indices 1 2 3 4 5 6 
#
# 1 93.5324 11.9190 33.6807 0.0000 -19.0014 0.0000
# 2 11.9190 53.8111 35.2381 0.0000 -17.4515 0.0000
# 3 33.6807 35.2381 92.1058 0.0000 -27.2179 0.0000
# 4 0.0000 0.0000 0.0000 14.1304 0.0000 -5.7383
# 5 -19.0014 -17.4515 -27.2179 0.0000 41.8794 0.0000
# 6 0.0000 0.0000 0.0000 -5.7383 0.0000 24.4396
#
#
#
# Elastic Compliance Matrix: (Units=1/GPa)
#
#
# Indices 1 2 3 4 5 6 
#
# 1 0.012725 0.000933 -0.003947 0.000000 0.003597 0.000000
# 2 0.000933 0.025798 -0.008551 0.000000 0.005616 0.000000
# 3 -0.003947 -0.008551 0.017315 0.000000 0.005899 0.000000
# 4 0.000000 0.000000 0.000000 0.078229 0.000000 0.018368
# 5 0.003597 0.005616 0.005899 0.000000 0.031684 0.000000
# 6 0.000000 0.000000 0.000000 0.018368 0.000000 0.045230
#
#
# Mechanical properties :
#
#
# Convention : Reuss Voigt Hill
#
# Bulk Modulus (GPa) = 30.57502 44.56944 37.57223
# Shear Modulus (GPa) = 20.40695 26.66397 23.53546
#
# Velocity S-wave (km/s) = 3.22958 3.69165 3.46832
# Velocity P-wave (km/s) = 5.43454 6.39929 5.93654
#
# Compressibility (1/GPa) = 0.03270644
#
# Stress axis : x y z
#
# Youngs Moduli (GPa) = 78.58766 38.76253 57.75253
#
# Poissons Ratio (x) = -0.03616 0.22795
# Poissons Ratio (y) = -0.07330 0.49387
# Poissons Ratio (z) = 0.31019 0.33148
#
# Static dielectric constant tensor:
#      x y z
#    x 1.729140 0.000000 -0.008430 
#    y 0.000000 1.722470 0.000000 
#    z -0.008430 0.000000 1.722910 
# 
# From -- ./inp_files/186172.got.cif
#   From: 2010.05.17/outbox.cif.g08.bks.cpg/sg15_94_cif.got.tgz:186172.got - 2010.06.03 18:47:42.
