data_PCOD9282090
_publ_section_title
;
Structure prediction by ZEFSAII (Michael W. Deem and Ramdas Pophale) SiO2 
 PCOD9282090
Probable space group: C 2/C
;
_chemical_formula_sum "Si O2"
_cell_formula_units_Z 60
_cell_length_a 11.156501
_cell_length_b 16.579107
_cell_length_c 14.769231
_cell_angle_alpha 90.000000
_cell_angle_beta 78.071372
_cell_angle_gamma 90.000000
_cell_volume 2672.797518
_symmetry_space_group_name_H-M "C 2/C"
_symmetry_group_IT_number 15
_symmetry_cell_setting 'monoclinic'
loop_
_space_group_symop_operation_xyz
x,y,z
-x,y,1/2-z
-x,-y,-z
x,-y,1/2+z
1/2+x,1/2+y,z
1/2-x,1/2+y,1/2-z
1/2-x,1/2-y,-z
1/2+x,1/2-y,1/2+z
loop_
_atom_site_type_symbol
_atom_site_label
_atom_site_fract_x
_atom_site_fract_y
_atom_site_fract_z
Si Si1 0.280103 0.792730 0.848232
Si Si2 0.518320 0.777941 0.349218
Si Si3 0.699098 0.350148 0.049965
Si Si4 0.500000 0.499646 0.250000
Si Si5 0.086043 0.550788 0.918353
Si Si6 0.724084 0.076116 0.300467
Si Si7 0.305352 0.331004 0.954753
Si Si8 0.959843 0.077244 0.562108
O O1 0.332252 0.702622 0.855519
O O2 0.314829 0.864012 0.775107
O O3 0.145961 0.767568 0.837924
O O4 0.281811 0.819233 0.953085
O O5 0.500000 0.805810 0.250000
O O6 0.527090 0.861004 0.406192
O O7 0.422595 0.707222 0.386151
O O8 0.776837 0.428240 0.065487
O O9 0.567777 0.360302 0.026258
O O10 0.369162 0.548490 0.274263
O O11 0.525406 0.446711 0.335795
O O12 0.126654 0.496499 0.825910
O O13 0.000000 0.500000 0.000000
O O14 0.721048 0.125066 0.395159
O O15 0.250000 0.250000 0.000000
O O16 0.339208 0.387772 0.034569
O O17 0.000000 0.000000 0.500000
#
# Coordination Sequence:
#
# PCOD9282090 Si02
#       8
#     8   8   8   4   8   8   8   8
#     4  10  21  38  71  92 128 181 231 273 346 417
#     4  11  22  41  69  94 132 179 225 278 350 409
#     4  10  21  42  65  96 135 182 218 287 353 415
#     4  12  24  38  72 102 134 178 238 290 348 408
#     4  11  25  43  66  96 141 184 225 285 359 422
#     4  12  23  43  68 102 132 177 241 285 339 423
#     4  12  25  41  69 102 136 175 228 288 346 414
#     4  12  23  42  68 101 139 177 229 291 348 410
#
# _framework density 22.448388999999999
#
# number of rings (size 3 to 8) (size 9 to 14) (size 15 to 20)
#    0.000    0.800    5.333    2.400    0.000    3.200 
#    0.000    0.000    0.000    0.000    0.000    0.000 
#    0.000    0.000    0.000    0.000    0.000    0.000 
#
# Total GULP energy -167033.000217 kJ/mol
# GULP energy per Si atom -5567.766674 kJ/mol
# Density = 2.239730 g / cm^3
# Si number density = 22.448389 Si / 1000 Ang^3
#
#
#
# Elastic Constant Matrix: (Units=GPa)
#
#
# Indices 1 2 3 4 5 6 
#
# 1 13.6962 4.1499 10.9809 0.0000 6.1415 0.0000
# 2 4.1499 79.1775 42.9966 0.0000 3.2147 0.0000
# 3 10.9809 42.9966 108.4795 0.0000 23.0507 0.0000
# 4 0.0000 0.0000 0.0000 63.7729 0.0000 -1.4821
# 5 6.1415 3.2147 23.0507 0.0000 28.1792 0.0000
# 6 0.0000 0.0000 0.0000 -1.4821 0.0000 25.0960
#
#
#
# Elastic Compliance Matrix: (Units=1/GPa)
#
#
# Indices 1 2 3 4 5 6 
#
# 1 0.083667 -0.001057 -0.005085 0.000000 -0.013955 0.000000
# 2 -0.001057 0.016507 -0.007365 0.000000 0.004372 0.000000
# 3 -0.005085 -0.007365 0.014813 0.000000 -0.010168 0.000000
# 4 0.000000 0.000000 0.000000 0.015702 0.000000 0.000927
# 5 -0.013955 0.004372 -0.010168 0.000000 0.046348 0.000000
# 6 0.000000 0.000000 0.000000 0.000927 0.000000 0.039902
#
#
# Mechanical properties :
#
#
# Convention : Reuss Voigt Hill
#
# Bulk Modulus (GPa) = 11.36706 35.28979 23.32842
# Shear Modulus (GPa) = 18.29646 32.95800 25.62723
#
# Velocity S-wave (km/s) = 2.85800 3.83582 3.38243
# Velocity P-wave (km/s) = 3.99568 5.94749 5.06646
#
# Compressibility (1/GPa) = 0.08797352
#
# Stress axis : x y z
#
# Youngs Moduli (GPa) = 11.95209 60.58030 67.50953
#
# Poissons Ratio (x) = 0.06405 0.34328
# Poissons Ratio (y) = 0.01264 0.49718
# Poissons Ratio (z) = 0.06078 0.44615
#
# Static dielectric constant tensor:
#      x y z
#    x 1.734520 0.000000 -0.010350 
#    y 0.000000 1.747570 0.000000 
#    z -0.010350 0.000000 1.954010 
# 
# From -- ./inp_files/145618.got.cif
#   From: 2010.05.17/outbox.cif.g08.bks.cpg/sg15_73_cif.got.tgz:145618.got - 2010.06.03 18:47:42.
