data_PCOD9282964
_publ_section_title
;
Structure prediction by ZEFSAII (Michael W. Deem and Ramdas Pophale) SiO2 
 PCOD9282964
Probable space group: C 2/C
;
_chemical_formula_sum "Si O2"
_cell_formula_units_Z 32
_cell_length_a 9.669653
_cell_length_b 20.029624
_cell_length_c 7.023492
_cell_angle_alpha 90.000000
_cell_angle_beta 93.121855
_cell_angle_gamma 90.000000
_cell_volume 1358.287780
_symmetry_space_group_name_H-M "C 2/C"
_symmetry_group_IT_number 15
_symmetry_cell_setting 'monoclinic'
loop_
_space_group_symop_operation_xyz
x,y,z
-x,y,1/2-z
-x,-y,-z
x,-y,1/2+z
1/2+x,1/2+y,z
1/2-x,1/2+y,1/2-z
1/2-x,1/2-y,-z
1/2+x,1/2-y,1/2+z
loop_
_atom_site_type_symbol
_atom_site_label
_atom_site_fract_x
_atom_site_fract_y
_atom_site_fract_z
Si Si1 0.875345 0.900239 0.372927
Si Si2 0.000000 0.668014 0.250000
Si Si3 0.756984 0.760849 0.269958
Si Si4 0.917059 0.435156 0.060973
Si Si5 0.500000 0.674471 0.250000
O O1 0.800264 0.838009 0.257963
O O2 0.745002 0.947806 0.409608
O O3 0.941198 0.870824 0.573044
O O4 0.000000 0.926350 0.250000
O O5 0.876905 0.716807 0.186397
O O6 0.934519 0.620843 0.403837
O O7 0.750000 0.750000 0.500000
O O8 0.618134 0.725554 0.191121
O O9 0.000000 0.410057 0.250000
O O10 0.000000 0.500000 0.000000
#
# Coordination Sequence:
#
# PCOD9282964 Si02
#       5
#     8   4   8   8   4
#     4  11  25  44  70 111 142 188 241 294 371 432
#     4  12  22  46  73 104 151 182 248 296 358 434
#     4  10  21  39  66 108 146 188 221 290 365 421
#     4  12  28  48  76 100 137 198 254 297 358 436
#     4  10  22  40  63 104 159 178 226 290 360 428
#
# _framework density 23.559073999999999
#
# number of rings (size 3 to 8) (size 9 to 14) (size 15 to 20)
#    0.000    1.000    7.500    0.000    5.250    1.000 
#    0.000    1.250    2.750    0.000    0.000    0.000 
#    0.000    0.000    0.000    0.000    0.000    0.000 
#
# Total GULP energy -89491.116574 kJ/mol
# GULP energy per Si atom -5593.194786 kJ/mol
# Density = 2.350545 g / cm^3
# Si number density = 23.559074 Si / 1000 Ang^3
#
#
#
# Elastic Constant Matrix: (Units=GPa)
#
#
# Indices 1 2 3 4 5 6 
#
# 1 243.9057 42.3667 36.2471 0.0000 -11.5726 0.0000
# 2 42.3667 61.7462 5.8392 0.0000 -7.2262 0.0000
# 3 36.2471 5.8392 114.2469 0.0000 -4.3358 0.0000
# 4 0.0000 0.0000 0.0000 -10.6190 0.0000 2.8863
# 5 -11.5726 -7.2262 -4.3358 0.0000 39.0818 0.0000
# 6 0.0000 0.0000 0.0000 2.8863 0.0000 40.9880
#
#
#
# Elastic Compliance Matrix: (Units=1/GPa)
#
#
# Indices 1 2 3 4 5 6 
#
# 1 0.004881 -0.003137 -0.001361 0.000000 0.000714 0.000000
# 2 -0.003137 0.018631 0.000139 0.000000 0.002531 0.000000
# 3 -0.001361 0.000139 0.009202 0.000000 0.000644 0.000000
# 4 0.000000 0.000000 0.000000 -0.092403 0.000000 0.006507
# 5 0.000714 0.002531 0.000644 0.000000 0.026338 0.000000
# 6 0.000000 0.000000 0.000000 0.006507 0.000000 0.023939
#
#
# Mechanical properties :
#
#
# Convention : Reuss Voigt Hill
#
# Bulk Modulus (GPa) = 41.67341 65.42275 53.54808
# Shear Modulus (GPa) = 684.45217 36.25323 360.35270
#
# Velocity S-wave (km/s) = 17.06331 3.92704 12.38100
# Velocity P-wave (km/s) = 20.14786 6.95644 15.07196
#
# Compressibility (1/GPa) = 0.02399612
#
# Stress axis : x y z
#
# Youngs Moduli (GPa) = 204.87715 53.67491 108.67028
#
# Poissons Ratio (x) = 0.16836 0.14792
# Poissons Ratio (y) = 0.64264 -0.01511
# Poissons Ratio (z) = 0.27887 -0.00746
#
# Static dielectric constant tensor:
#      x y z
#    x 1.802510 0.000000 0.022170 
#    y 0.000000 3.231170 0.000000 
#    z 0.022170 0.000000 1.952060 
# 
# From -- ./inp_files/23186.got.cif
#   From: 2010.05.17/outbox.cif.g08.bks.cpg/sg15_12_cif.got.tgz:23186.got - 2010.06.03 18:47:42.
