data_PCOD9282623
_publ_section_title
;
Structure prediction by ZEFSAII (Michael W. Deem and Ramdas Pophale) SiO2 
 PCOD9282623
Probable space group: C 2/C
;
_chemical_formula_sum "Si O2"
_cell_formula_units_Z 44
_cell_length_a 13.551335
_cell_length_b 20.748962
_cell_length_c 7.757899
_cell_angle_alpha 90.000000
_cell_angle_beta 124.133382
_cell_angle_gamma 90.000000
_cell_volume 1805.565041
_symmetry_space_group_name_H-M "C 2/C"
_symmetry_group_IT_number 15
_symmetry_cell_setting 'monoclinic'
loop_
_space_group_symop_operation_xyz
x,y,z
-x,y,1/2-z
-x,-y,-z
x,-y,1/2+z
1/2+x,1/2+y,z
1/2-x,1/2+y,1/2-z
1/2-x,1/2-y,-z
1/2+x,1/2-y,1/2+z
loop_
_atom_site_type_symbol
_atom_site_label
_atom_site_fract_x
_atom_site_fract_y
_atom_site_fract_z
Si Si1 0.740595 0.102143 0.037627
Si Si2 0.092240 0.158829 0.551323
Si Si3 0.573047 0.195207 0.064178
Si Si4 0.500000 0.566543 0.750000
Si Si5 0.754585 0.475081 0.601838
Si Si6 0.661557 0.146063 0.504004
O O1 0.650540 0.159490 0.995341
O O2 0.748917 0.059095 0.217392
O O3 0.864309 0.131222 0.089175
O O4 0.701651 0.048261 0.860145
O O5 0.045005 0.231014 0.495718
O O6 0.015787 0.111593 0.597010
O O7 0.217767 0.162800 0.779487
O O8 0.645787 0.189262 0.315969
O O9 0.451708 0.158374 0.988468
O O10 0.380787 0.526028 0.603613
O O11 0.830508 0.426627 0.559262
#
# Coordination Sequence:
#
# PCOD9282623 Si02
#       6
#     8   8   8   4   8   8
#     4  11  24  40  61  88 124 156 201 254 296 358
#     4  11  22  39  61  92 124 158 199 245 299 362
#     4  10  21  39  63  93 122 159 196 243 305 356
#     4  10  22  40  66  88 120 162 200 248 302 356
#     4  10  22  41  61  90 120 159 205 247 298 353
#     4   9  20  39  64  89 123 159 197 243 295 364
#
# _framework density 24.369102999999999
#
# number of rings (size 3 to 8) (size 9 to 14) (size 15 to 20)
#    0.000    1.818    0.000    4.364    0.000    8.000 
#    0.000    5.455    0.000    0.000    0.000    0.000 
#    0.000    0.000    0.000    0.000    0.000    0.000 
#
# Total GULP energy -123224.908502 kJ/mol
# GULP energy per Si atom -5601.132205 kJ/mol
# Density = 2.431364 g / cm^3
# Si number density = 24.369103 Si / 1000 Ang^3
#
#
#
# Elastic Constant Matrix: (Units=GPa)
#
#
# Indices 1 2 3 4 5 6 
#
# 1 146.5779 55.4326 5.6500 0.0000 -32.3095 0.0000
# 2 55.4326 107.8488 -4.3638 0.0000 -14.3318 0.0000
# 3 5.6500 -4.3638 77.2179 0.0000 -18.7269 0.0000
# 4 0.0000 0.0000 0.0000 23.3720 0.0000 -5.6435
# 5 -32.3095 -14.3318 -18.7269 0.0000 39.0116 0.0000
# 6 0.0000 0.0000 0.0000 -5.6435 0.0000 24.4506
#
#
#
# Elastic Compliance Matrix: (Units=1/GPa)
#
#
# Indices 1 2 3 4 5 6 
#
# 1 0.009907 -0.004125 0.000752 0.000000 0.007051 0.000000
# 2 -0.004125 0.011645 0.001323 0.000000 0.001497 0.000000
# 3 0.000752 0.001323 0.014983 0.000000 0.008301 0.000000
# 4 0.000000 0.000000 0.000000 0.045312 0.000000 0.010458
# 5 0.007051 0.001497 0.008301 0.000000 0.036008 0.000000
# 6 0.000000 0.000000 0.000000 0.010458 0.000000 0.043313
#
#
# Mechanical properties :
#
#
# Convention : Reuss Voigt Hill
#
# Bulk Modulus (GPa) = 30.83031 49.45358 40.14195
# Shear Modulus (GPa) = 28.39625 35.69523 32.04574
#
# Velocity S-wave (km/s) = 3.41729 3.83139 3.63025
# Velocity P-wave (km/s) = 5.31501 6.31746 5.83779
#
# Compressibility (1/GPa) = 0.03243561
#
# Stress axis : x y z
#
# Youngs Moduli (GPa) = 100.93379 85.87532 66.74079
#
# Poissons Ratio (x) = 0.35422 -0.05019
# Poissons Ratio (y) = 0.41634 -0.08829
# Poissons Ratio (z) = -0.07590 -0.11360
#
# Static dielectric constant tensor:
#      x y z
#    x 1.893480 0.000000 -0.046090 
#    y 0.000000 1.881090 0.000000 
#    z -0.046090 0.000000 2.041220 
# 
# From -- ./inp_files/31001.got.cif
#   From: 2010.05.17/outbox.cif.g08.bks.cpg/sg15_16_cif.got.tgz:31001.got - 2010.06.03 18:47:42.
