data_PCOD9282809
_publ_section_title
;
Structure prediction by ZEFSAII (Michael W. Deem and Ramdas Pophale) SiO2 
 PCOD9282809
Probable space group: C 2/C
;
_chemical_formula_sum "Si O2"
_cell_formula_units_Z 44
_cell_length_a 23.238795
_cell_length_b 8.660827
_cell_length_c 12.721501
_cell_angle_alpha 90.000000
_cell_angle_beta 136.145989
_cell_angle_gamma 90.000000
_cell_volume 1773.918966
_symmetry_space_group_name_H-M "C 2/C"
_symmetry_group_IT_number 15
_symmetry_cell_setting 'monoclinic'
loop_
_space_group_symop_operation_xyz
x,y,z
-x,y,1/2-z
-x,-y,-z
x,-y,1/2+z
1/2+x,1/2+y,z
1/2-x,1/2+y,1/2-z
1/2-x,1/2-y,-z
1/2+x,1/2-y,1/2+z
loop_
_atom_site_type_symbol
_atom_site_label
_atom_site_fract_x
_atom_site_fract_y
_atom_site_fract_z
Si Si1 0.852777 0.293085 0.857057
Si Si2 0.348646 0.108955 0.576232
Si Si3 0.272469 0.408291 0.969756
Si Si4 0.019300 0.761912 0.650400
Si Si5 0.569748 0.399977 0.212296
Si Si6 0.500000 0.863341 0.750000
O O1 0.782870 0.396076 0.708733
O O2 0.869096 0.145799 0.803556
O O3 0.832026 0.284180 0.952956
O O4 0.950699 0.337558 0.999575
O O5 0.390105 0.191352 0.730926
O O6 0.264241 0.039465 0.505257
O O7 0.415849 0.969276 0.638326
O O8 0.250000 0.250000 0.000000
O O9 0.371352 0.422173 0.106554
O O10 0.000000 0.755121 0.750000
O O11 0.023029 0.941352 0.629622
O O12 0.513133 0.253514 0.169141
#
# Coordination Sequence:
#
# PCOD9282809 Si02
#       6
#     8   8   8   8   8   4
#     4  10  21  40  66  93 130 175 221 266 336 393
#     4  11  22  41  68  95 129 176 225 273 318 409
#     4  10  22  42  64  95 140 168 217 281 336 391
#     4  10  21  39  64  97 134 170 227 272 322 395
#     4  11  23  41  65  97 135 176 217 281 331 397
#     4  12  20  38  72  90 126 176 220 266 332 384
#
# _framework density 24.803839
#
# number of rings (size 3 to 8) (size 9 to 14) (size 15 to 20)
#    0.000    1.455    7.273    0.545    0.000    3.636 
#   13.091    0.000    0.000    0.000    0.000    0.000 
#    0.000    0.000    0.000    0.000    0.000    0.000 
#
# Total GULP energy -122512.608891 kJ/mol
# GULP energy per Si atom -5568.754950 kJ/mol
# Density = 2.474738 g / cm^3
# Si number density = 24.803839 Si / 1000 Ang^3
#
#
#
# Elastic Constant Matrix: (Units=GPa)
#
#
# Indices 1 2 3 4 5 6 
#
# 1 45.1138 9.0219 15.1703 0.0000 5.7069 0.0000
# 2 9.0219 73.8943 2.0486 0.0000 2.8979 0.0000
# 3 15.1703 2.0486 146.4812 0.0000 17.1289 0.0000
# 4 0.0000 0.0000 0.0000 7.8062 0.0000 19.0712
# 5 5.7069 2.8979 17.1289 0.0000 22.8695 0.0000
# 6 0.0000 0.0000 0.0000 19.0712 0.0000 32.6204
#
#
#
# Elastic Compliance Matrix: (Units=1/GPa)
#
#
# Indices 1 2 3 4 5 6 
#
# 1 0.023888 -0.002699 -0.001950 0.000000 -0.004159 0.000000
# 2 -0.002699 0.013905 0.000233 0.000000 -0.001263 0.000000
# 3 -0.001950 0.000233 0.007641 0.000000 -0.005266 0.000000
# 4 0.000000 0.000000 0.000000 -0.299087 0.000000 0.174857
# 5 -0.004159 -0.001263 -0.005266 0.000000 0.048868 0.000000
# 6 0.000000 0.000000 0.000000 0.174857 0.000000 -0.071573
#
#
# Mechanical properties :
#
#
# Convention : Reuss Voigt Hill
#
# Bulk Modulus (GPa) = 27.32127 35.33008 31.32567
# Shear Modulus (GPa) = -19.58304 28.60914 4.51305
#
# Velocity S-wave (km/s) = -2.81288 3.39988 1.35035
# Velocity P-wave (km/s) = 0.69936 5.44858 3.88433
#
# Compressibility (1/GPa) = 0.03660152
#
# Stress axis : x y z
#
# Youngs Moduli (GPa) = 41.86252 71.91410 130.86781
#
# Poissons Ratio (x) = 0.19412 0.25518
# Poissons Ratio (y) = 0.11300 -0.03046
# Poissons Ratio (z) = 0.08163 -0.01674
#
# Static dielectric constant tensor:
#      x y z
#    x 2.021230 0.000000 0.064100 
#    y 0.000000 2.006130 0.000000 
#    z 0.064100 0.000000 2.308400 
# 
# From -- ./inp_files/122119.got.cif
#   From: 2010.05.17/outbox.cif.g08.bks.cpg/sg15_62_cif.got.tgz:122119.got - 2010.06.03 18:47:42.
