data_PCOD9282578
_publ_section_title
;
Structure prediction by ZEFSAII (Michael W. Deem and Ramdas Pophale) SiO2 
 PCOD9282578
Probable space group: C 2/C
;
_chemical_formula_sum "Si O2"
_cell_formula_units_Z 56
_cell_length_a 22.995846
_cell_length_b 13.784809
_cell_length_c 25.733244
_cell_angle_alpha 90.000000
_cell_angle_beta 19.830620
_cell_angle_gamma 90.000000
_cell_volume 2767.276975
_symmetry_space_group_name_H-M "C 2/C"
_symmetry_group_IT_number 15
_symmetry_cell_setting 'monoclinic'
loop_
_space_group_symop_operation_xyz
x,y,z
-x,y,1/2-z
-x,-y,-z
x,-y,1/2+z
1/2+x,1/2+y,z
1/2-x,1/2+y,1/2-z
1/2-x,1/2-y,-z
1/2+x,1/2-y,1/2+z
loop_
_atom_site_type_symbol
_atom_site_label
_atom_site_fract_x
_atom_site_fract_y
_atom_site_fract_z
Si Si1 0.045152 0.502319 0.051539
Si Si2 0.129861 0.201083 0.557895
Si Si3 0.558169 0.506811 0.756074
Si Si4 0.940986 0.969282 0.631411
Si Si5 0.072097 0.368085 0.942236
Si Si6 0.339820 0.853832 0.780885
Si Si7 0.983739 0.149000 0.528572
O O1 0.034886 0.583647 0.014439
O O2 0.913448 0.540326 0.205279
O O3 0.236278 0.502901 0.913168
O O4 0.000178 0.402959 0.058838
O O5 0.250000 0.250000 0.500000
O O6 0.253601 0.158812 0.409393
O O7 0.015390 0.115836 0.678456
O O8 0.998612 0.279815 0.644527
O O9 0.500000 0.464151 0.750000
O O10 0.493605 0.461099 0.864803
O O11 0.755378 0.920505 0.786779
O O12 0.044023 0.914791 0.499717
O O13 0.926498 0.081310 0.624920
O O14 0.090674 0.254738 0.917506
O O15 0.186593 0.834448 0.869255
#
# Coordination Sequence:
#
# PCOD9282578 Si02
#       7
#     8   8   8   8   8   8   8
#     4  10  22  38  59  92 124 168 214 250 319 380
#     4  12  24  37  58  91 129 177 218 245 315 397
#     4  11  22  40  60  85 126 169 210 264 315 384
#     4  10  23  40  62  96 124 168 215 263 327 395
#     4  10  21  39  63  89 129 166 208 266 321 383
#     4  12  22  38  58  89 131 169 209 260 308 377
#     4  11  22  40  64  94 130 165 210 273 330 375
#
# _framework density 20.236501000000001
#
# number of rings (size 3 to 8) (size 9 to 14) (size 15 to 20)
#    0.000    1.143    2.857    4.714    0.000    3.429 
#    0.000    0.000    0.000    3.429    0.000    2.000 
#    0.000    0.000    0.000    0.000    0.000    0.000 
#
# Total GULP energy -156445.398631 kJ/mol
# GULP energy per Si atom -5587.335665 kJ/mol
# Density = 2.019044 g / cm^3
# Si number density = 20.236501 Si / 1000 Ang^3
#
#
#
# Elastic Constant Matrix: (Units=GPa)
#
#
# Indices 1 2 3 4 5 6 
#
# 1 167.1120 38.2422 43.4489 -0.0054 8.0580 0.0035
# 2 38.2422 103.5768 26.2880 -0.0216 2.7639 0.0109
# 3 43.4489 26.2880 64.6680 -0.0268 0.6135 0.0121
# 4 -0.0054 -0.0216 -0.0268 22.6491 -0.0008 4.4601
# 5 8.0580 2.7639 0.6135 -0.0008 41.4269 0.0021
# 6 0.0035 0.0109 0.0121 4.4601 0.0021 25.3291
#
#
#
# Elastic Compliance Matrix: (Units=1/GPa)
#
#
# Indices 1 2 3 4 5 6 
#
# 1 0.007567 -0.001641 -0.004405 -0.000006 -0.001297 0.000003
# 2 -0.001641 0.011139 -0.003422 0.000007 -0.000373 -0.000004
# 3 -0.004405 -0.003422 0.019807 0.000021 0.000792 -0.000011
# 4 -0.000006 0.000007 0.000021 0.045738 0.000002 -0.008054
# 5 -0.001297 -0.000373 0.000792 0.000002 0.024404 -0.000002
# 6 0.000003 -0.000004 -0.000011 -0.008054 -0.000002 0.040898
#
#
# Mechanical properties :
#
#
# Convention : Reuss Voigt Hill
#
# Bulk Modulus (GPa) = 51.08009 61.25722 56.16865
# Shear Modulus (GPa) = 28.56888 33.03954 30.80421
#
# Velocity S-wave (km/s) = 3.76140 4.04502 3.90578
# Velocity P-wave (km/s) = 6.64534 7.22167 6.93949
#
# Compressibility (1/GPa) = 0.01957710
#
# Stress axis : x y z
#
# Youngs Moduli (GPa) = 132.14504 89.77365 50.48837
#
# Poissons Ratio (x) = 0.14736 0.22239
# Poissons Ratio (y) = 0.21691 0.17276
# Poissons Ratio (z) = 0.58207 0.30718
#
# Static dielectric constant tensor:
#      x y z
#    x 1.743710 0.000000 0.051880 
#    y 0.000000 1.729980 0.000010 
#    z 0.051880 0.000010 1.794020 
# 
# From -- ./inp_files/302296.got.cif
#   From: 2010.05.17/outbox.cif.g08.bks.cpg/sg15_152_cif.got.tgz:302296.got - 2010.06.03 18:47:42.
