data_PCOD9282805
_publ_section_title
;
Structure prediction by ZEFSAII (Michael W. Deem and Ramdas Pophale) SiO2 
 PCOD9282805
Probable space group: C 2/C
;
_chemical_formula_sum "Si O2"
_cell_formula_units_Z 64
_cell_length_a 11.808043
_cell_length_b 29.360456
_cell_length_c 8.917682
_cell_angle_alpha 90.000000
_cell_angle_beta 112.934072
_cell_angle_gamma 90.000000
_cell_volume 2847.282562
_symmetry_space_group_name_H-M "C 2/C"
_symmetry_group_IT_number 15
_symmetry_cell_setting 'monoclinic'
loop_
_space_group_symop_operation_xyz
x,y,z
-x,y,1/2-z
-x,-y,-z
x,-y,1/2+z
1/2+x,1/2+y,z
1/2-x,1/2+y,1/2-z
1/2-x,1/2-y,-z
1/2+x,1/2-y,1/2+z
loop_
_atom_site_type_symbol
_atom_site_label
_atom_site_fract_x
_atom_site_fract_y
_atom_site_fract_z
Si Si1 0.833451 0.108718 0.303583
Si Si2 0.184343 0.678586 0.017294
Si Si3 0.832214 0.391039 0.235602
Si Si4 0.863557 0.011754 0.162765
Si Si5 0.700150 0.010957 0.829078
Si Si6 0.548341 0.642809 0.608661
Si Si7 0.617066 0.084630 0.400833
Si Si8 0.570055 0.730746 0.449033
O O1 0.851114 0.063084 0.216518
O O2 0.747305 0.100964 0.403062
O O3 0.967218 0.120818 0.434534
O O4 0.755179 0.145719 0.169859
O O5 0.126529 0.647909 0.857057
O O6 0.087652 0.717514 0.014315
O O7 0.297698 0.707649 0.010737
O O8 0.851084 0.439518 0.162861
O O9 0.686619 0.377615 0.175411
O O10 0.888692 0.399440 0.429624
O O11 0.000000 0.993079 0.250000
O O12 0.743829 0.989154 0.179463
O O13 0.833781 0.008246 0.973823
O O14 0.623549 0.968564 0.849364
O O15 0.500000 0.633708 0.750000
O O16 0.524357 0.696258 0.554230
O O17 0.500000 0.103946 0.250000
O O18 0.500000 0.729934 0.250000
#
# Coordination Sequence:
#
# PCOD9282805 Si02
#       8
#     8   8   8   8   8   8   8   8
#     4  11  22  41  66  96 129 172 211 262 322 385
#     4  10  22  39  66  96 126 160 210 257 319 393
#     4  11  22  41  66  94 129 170 218 265 316 388
#     4  11  22  35  60  97 131 167 207 268 325 375
#     4  11  22  40  59  90 131 169 220 262 320 370
#     4  11  22  40  69  98 130 166 206 263 336 393
#     4  11  26  45  61  88 130 178 226 265 310 373
#     4  10  21  39  64  97 128 161 201 261 319 384
#
# _framework density 22.477571999999999
#
# number of rings (size 3 to 8) (size 9 to 14) (size 15 to 20)
#    0.000    1.250    5.000    1.125    1.750    3.000 
#    0.000    3.125    0.000    0.000    0.000    0.000 
#    0.000    0.000    0.000    0.000    0.000    0.000 
#
# Total GULP energy -178368.142587 kJ/mol
# GULP energy per Si atom -5574.004456 kJ/mol
# Density = 2.242641 g / cm^3
# Si number density = 22.477572 Si / 1000 Ang^3
#
#
#
# Elastic Constant Matrix: (Units=GPa)
#
#
# Indices 1 2 3 4 5 6 
#
# 1 41.1827 10.3179 22.0154 0.0000 13.7104 0.0000
# 2 10.3179 103.0561 7.8550 0.0000 -1.3156 0.0000
# 3 22.0154 7.8550 100.2945 0.0000 18.6226 0.0000
# 4 0.0000 0.0000 0.0000 86.0275 0.0000 -126.6184
# 5 13.7104 -1.3156 18.6226 0.0000 33.9987 0.0000
# 6 0.0000 0.0000 0.0000 -126.6184 0.0000 281.1077
#
#
#
# Elastic Compliance Matrix: (Units=1/GPa)
#
#
# Indices 1 2 3 4 5 6 
#
# 1 0.030825 -0.002856 -0.004691 0.000000 -0.009972 0.000000
# 2 -0.002856 0.010050 -0.000497 0.000000 0.001813 0.000000
# 3 -0.004691 -0.000497 0.011902 0.000000 -0.004647 0.000000
# 4 0.000000 0.000000 0.000000 0.034488 0.000000 0.015535
# 5 -0.009972 0.001813 -0.004647 0.000000 0.036049 0.000000
# 6 0.000000 0.000000 0.000000 0.015535 0.000000 0.010555
#
#
# Mechanical properties :
#
#
# Convention : Reuss Voigt Hill
#
# Bulk Modulus (GPa) = 27.25557 36.10110 31.67834
# Shear Modulus (GPa) = 30.82849 93.84977 62.33913
#
# Velocity S-wave (km/s) = 3.70742 6.46864 5.27201
# Velocity P-wave (km/s) = 5.52075 8.47861 7.15421
#
# Compressibility (1/GPa) = 0.03668974
#
# Stress axis : x y z
#
# Youngs Moduli (GPa) = 32.44115 99.49857 84.01877
#
# Poissons Ratio (x) = 0.28416 0.39415
# Poissons Ratio (y) = 0.09265 0.04174
# Poissons Ratio (z) = 0.15219 0.04943
#
# Static dielectric constant tensor:
#      x y z
#    x 1.870580 0.000000 -0.001900 
#    y 0.000000 1.901940 0.000000 
#    z -0.001900 0.000000 1.831550 
# 
# From -- ./inp_files/44566.got.cif
#   From: 2010.05.17/outbox.cif.g08.bks.cpg/sg15_23_cif.got.tgz:44566.got - 2010.06.03 18:47:42.
