data_PCOD9282152
_publ_section_title
;
Structure prediction by ZEFSAII (Michael W. Deem and Ramdas Pophale) SiO2 
 PCOD9282152
Probable space group: C 2/C
;
_chemical_formula_sum "Si O2"
_cell_formula_units_Z 56
_cell_length_a 14.235120
_cell_length_b 7.287747
_cell_length_c 31.042779
_cell_angle_alpha 90.000000
_cell_angle_beta 125.506876
_cell_angle_gamma 90.000000
_cell_volume 2621.584527
_symmetry_space_group_name_H-M "C 2/C"
_symmetry_group_IT_number 15
_symmetry_cell_setting 'monoclinic'
loop_
_space_group_symop_operation_xyz
x,y,z
-x,y,1/2-z
-x,-y,-z
x,-y,1/2+z
1/2+x,1/2+y,z
1/2-x,1/2+y,1/2-z
1/2-x,1/2-y,-z
1/2+x,1/2-y,1/2+z
loop_
_atom_site_type_symbol
_atom_site_label
_atom_site_fract_x
_atom_site_fract_y
_atom_site_fract_z
Si Si1 0.629928 0.433385 0.667972
Si Si2 0.880258 0.553035 0.232363
Si Si3 0.881687 0.132978 0.234304
Si Si4 0.521901 0.159986 0.444917
Si Si5 0.868967 0.620565 0.329774
Si Si6 0.102264 0.061939 0.441442
Si Si7 0.161795 0.346827 0.531173
O O1 0.755913 0.370982 0.685457
O O2 0.616069 0.367018 0.713215
O O3 0.632356 0.656334 0.670920
O O4 0.522289 0.380370 0.610085
O O5 0.881348 0.342025 0.217443
O O6 0.881502 0.556782 0.284391
O O7 0.000000 0.640267 0.250000
O O8 0.757113 0.054915 0.188388
O O9 0.000000 0.045408 0.250000
O O10 0.473682 0.068729 0.388469
O O11 0.586911 0.348221 0.450185
O O12 0.406339 0.193578 0.442857
O O13 0.601924 0.023234 0.492896
O O14 0.138129 0.176078 0.493118
O O15 0.202339 0.105727 0.433153
#
# Coordination Sequence:
#
# PCOD9282152 Si02
#       7
#     8   8   8   8   8   8   8
#     4   9  19  34  52  78 110 141 178 228 283 332
#     4   9  18  35  53  79 111 142 182 223 274 345
#     4   9  18  31  53  78 106 140 178 220 271 340
#     4  10  21  39  58  83 120 147 195 249 288 348
#     4   9  19  34  52  77 110 144 175 231 283 329
#     4  10  21  39  59  85 116 148 197 246 289 351
#     4  10  22  38  61  85 109 160 194 238 305 344
#
# _framework density 21.361125999999999
#
# number of rings (size 3 to 8) (size 9 to 14) (size 15 to 20)
#    0.000    2.571    0.000    0.857    4.000    0.571 
#    0.000    7.143    0.000    0.000    0.000    0.000 
#    0.000    0.000    0.000    0.000    0.000    0.000 
#
# Total GULP energy -156199.838461 kJ/mol
# GULP energy per Si atom -5578.565659 kJ/mol
# Density = 2.131251 g / cm^3
# Si number density = 21.361126 Si / 1000 Ang^3
#
#
#
# Elastic Constant Matrix: (Units=GPa)
#
#
# Indices 1 2 3 4 5 6 
#
# 1 126.5866 2.4345 15.0942 0.0000 39.6355 0.0000
# 2 2.4345 91.3756 -2.1439 0.0000 11.0253 0.0000
# 3 15.0942 -2.1439 61.2622 0.0000 28.0648 0.0000
# 4 0.0000 0.0000 0.0000 -11.8744 0.0000 -46.2807
# 5 39.6355 11.0253 28.0648 0.0000 27.6379 0.0000
# 6 0.0000 0.0000 0.0000 -46.2807 0.0000 -56.4118
#
#
#
# Elastic Compliance Matrix: (Units=1/GPa)
#
#
# Indices 1 2 3 4 5 6 
#
# 1 0.022939 0.006644 0.020315 0.000000 -0.056176 0.000000
# 2 0.006644 0.014187 0.010877 0.000000 -0.026232 0.000000
# 3 0.020315 0.010877 0.050546 0.000000 -0.084800 0.000000
# 4 0.000000 0.000000 0.000000 0.038322 0.000000 -0.031440
# 5 -0.056176 -0.026232 -0.084800 0.000000 0.213319 0.000000
# 6 0.000000 0.000000 0.000000 -0.031440 0.000000 0.008067
#
#
# Mechanical properties :
#
#
# Convention : Reuss Voigt Hill
#
# Bulk Modulus (GPa) = 6.12206 34.44378 20.28292
# Shear Modulus (GPa) = 15.33009 9.45964 12.39486
#
# Velocity S-wave (km/s) = 2.68183 2.10667 2.41146
# Velocity P-wave (km/s) = 3.53013 4.69861 4.15564
#
# Compressibility (1/GPa) = 0.16334379
#
# Stress axis : x y z
#
# Youngs Moduli (GPa) = 43.59421 70.48627 19.78388
#
# Poissons Ratio (x) = -0.46829 -0.40192
# Poissons Ratio (y) = -0.28963 -0.21518
# Poissons Ratio (z) = -0.88564 -0.76665
#
# Static dielectric constant tensor:
#      x y z
#    x 1.809650 0.000000 0.053160 
#    y 0.000000 1.839950 0.000000 
#    z 0.053160 0.000000 1.783770 
# 
# From -- ./inp_files/272830.got.cif
#   From: 2010.05.17/outbox.cif.g08.bks.cpg/sg15_137_cif.got.tgz:272830.got - 2010.06.03 18:47:42.
