data_PCOD9282867
_publ_section_title
;
Structure prediction by ZEFSAII (Michael W. Deem and Ramdas Pophale) SiO2 
 PCOD9282867
Probable space group: C 2/C
;
_chemical_formula_sum "Si O2"
_cell_formula_units_Z 40
_cell_length_a 7.354779
_cell_length_b 15.057778
_cell_length_c 18.777947
_cell_angle_alpha 90.000000
_cell_angle_beta 125.850482
_cell_angle_gamma 90.000000
_cell_volume 1685.611263
_symmetry_space_group_name_H-M "C 2/C"
_symmetry_group_IT_number 15
_symmetry_cell_setting 'monoclinic'
loop_
_space_group_symop_operation_xyz
x,y,z
-x,y,1/2-z
-x,-y,-z
x,-y,1/2+z
1/2+x,1/2+y,z
1/2-x,1/2+y,1/2-z
1/2-x,1/2-y,-z
1/2+x,1/2-y,1/2+z
loop_
_atom_site_type_symbol
_atom_site_label
_atom_site_fract_x
_atom_site_fract_y
_atom_site_fract_z
Si Si1 0.018372 0.366240 0.478839
Si Si2 0.694215 0.731390 0.732957
Si Si3 0.520530 0.674502 0.090424
Si Si4 0.746907 0.049227 0.714639
Si Si5 0.953670 0.609708 0.119739
O O1 0.286974 0.376592 0.539134
O O2 0.990727 0.259599 0.464827
O O3 0.885781 0.406216 0.381934
O O4 0.924554 0.407716 0.529687
O O5 0.500000 0.726068 0.750000
O O6 0.744203 0.629332 0.725923
O O7 0.580576 0.795189 0.650315
O O8 0.904428 0.781627 0.817128
O O9 0.721417 0.615340 0.107422
O O10 0.000000 0.027071 0.750000
O O11 0.612537 0.959782 0.696094
#
# Coordination Sequence:
#
# PCOD9282867 Si02
#       5
#     8   8   8   8   8
#     4  10  21  39  65  92 123 166 205 260 315 370
#     4   8  18  38  60  86 128 165 200 262 311 363
#     4   9  20  38  62  90 128 158 207 257 309 368
#     4  10  22  39  60  95 128 163 211 264 310 371
#     4  11  21  37  70  90 120 173 210 250 317 375
#
# _framework density 23.730264999999999
#
# number of rings (size 3 to 8) (size 9 to 14) (size 15 to 20)
#    0.000    2.400    0.000    2.400    2.800    0.800 
#    0.000    0.000   39.600    0.000    0.000    0.000 
#    0.000    0.000    0.000    0.000    0.000    0.000 
#
# Total GULP energy -111838.741531 kJ/mol
# GULP energy per Si atom -5591.937077 kJ/mol
# Density = 2.367625 g / cm^3
# Si number density = 23.730265 Si / 1000 Ang^3
#
#
#
# Elastic Constant Matrix: (Units=GPa)
#
#
# Indices 1 2 3 4 5 6 
#
# 1 94.8040 23.1792 19.8729 0.0000 40.8004 0.0000
# 2 23.1792 72.5707 -1.4287 0.0000 5.3582 0.0000
# 3 19.8729 -1.4287 58.2100 0.0000 16.7067 0.0000
# 4 0.0000 0.0000 0.0000 31.2286 0.0000 13.4330
# 5 40.8004 5.3582 16.7067 0.0000 43.7446 0.0000
# 6 0.0000 0.0000 0.0000 13.4330 0.0000 25.2665
#
#
#
# Elastic Compliance Matrix: (Units=1/GPa)
#
#
# Indices 1 2 3 4 5 6 
#
# 1 0.019366 -0.004990 -0.001938 0.000000 -0.016712 0.000000
# 2 -0.004990 0.015236 0.001435 0.000000 0.002240 0.000000
# 3 -0.001938 0.001435 0.019551 0.000000 -0.005835 0.000000
# 4 0.000000 0.000000 0.000000 0.041516 0.000000 -0.022072
# 5 -0.016712 0.002240 -0.005835 0.000000 0.040401 0.000000
# 6 0.000000 0.000000 0.000000 -0.022072 0.000000 0.051313
#
#
# Mechanical properties :
#
#
# Convention : Reuss Voigt Hill
#
# Bulk Modulus (GPa) = 23.16570 34.31463 28.74017
# Shear Modulus (GPa) = 23.50080 32.31202 27.90641
#
# Velocity S-wave (km/s) = 3.15037 3.69404 3.43298
# Velocity P-wave (km/s) = 4.79754 5.71719 5.27743
#
# Compressibility (1/GPa) = 0.04316727
#
# Stress axis : x y z
#
# Youngs Moduli (GPa) = 51.63576 65.63264 51.14916
#
# Poissons Ratio (x) = 0.32750 0.09912
# Poissons Ratio (y) = 0.25766 -0.07338
# Poissons Ratio (z) = 0.10006 -0.09416
#
# Static dielectric constant tensor:
#      x y z
#    x 1.888600 0.000000 -0.018670 
#    y 0.000000 1.985730 0.000000 
#    z -0.018670 0.000000 1.897720 
# 
# From -- ./inp_files/133181.got.cif
#   From: 2010.05.17/outbox.cif.g08.bks.cpg/sg15_67_cif.got.tgz:133181.got - 2010.06.03 18:47:42.
