data_PCOD9282459
_publ_section_title
;
Structure prediction by ZEFSAII (Michael W. Deem and Ramdas Pophale) SiO2 
 PCOD9282459
Probable space group: C 2/C
;
_chemical_formula_sum "Si O2"
_cell_formula_units_Z 52
_cell_length_a 7.801262
_cell_length_b 23.332994
_cell_length_c 13.089629
_cell_angle_alpha 90.000000
_cell_angle_beta 76.664683
_cell_angle_gamma 90.000000
_cell_volume 2318.419251
_symmetry_space_group_name_H-M "C 2/C"
_symmetry_group_IT_number 15
_symmetry_cell_setting 'monoclinic'
loop_
_space_group_symop_operation_xyz
x,y,z
-x,y,1/2-z
-x,-y,-z
x,-y,1/2+z
1/2+x,1/2+y,z
1/2-x,1/2+y,1/2-z
1/2-x,1/2-y,-z
1/2+x,1/2-y,1/2+z
loop_
_atom_site_type_symbol
_atom_site_label
_atom_site_fract_x
_atom_site_fract_y
_atom_site_fract_z
Si Si1 0.342820 0.876704 0.345157
Si Si2 0.161528 0.150887 0.506708
Si Si3 0.607678 0.572126 0.335968
Si Si4 0.000000 0.420542 0.750000
Si Si5 0.613646 0.727126 0.836734
Si Si6 0.945784 0.659906 0.059065
Si Si7 0.498396 0.546893 0.627684
O O1 0.500000 0.897585 0.250000
O O2 0.271385 0.817970 0.301401
O O3 0.388336 0.863432 0.457067
O O4 0.183241 0.921402 0.373312
O O5 0.118967 0.129623 0.399399
O O6 0.351776 0.178571 0.485205
O O7 0.016928 0.192193 0.571622
O O8 0.151296 0.089745 0.568663
O O9 0.500000 0.585132 0.250000
O O10 0.809545 0.550439 0.293591
O O11 0.501914 0.519848 0.402056
O O12 0.960545 0.384373 0.651764
O O13 0.500000 0.738647 0.750000
O O14 0.663880 0.786180 0.884383
O O15 0.500000 0.545601 0.750000
#
# Coordination Sequence:
#
# PCOD9282459 Si02
#       7
#     8   8   8   4   8   8   8
#     4  11  23  38  62  95 126 163 218 268 315 382
#     4  10  21  39  62  91 118 166 212 262 319 370
#     4  10  23  41  65  91 132 171 218 262 322 387
#     4  10  24  42  62  96 128 174 214 268 326 382
#     4  11  22  40  64  88 125 169 210 259 325 386
#     4  11  22  42  61  90 131 162 213 268 319 386
#     4  10  21  40  64  89 125 168 207 263 321 381
#
# _framework density 22.429075000000001
#
# number of rings (size 3 to 8) (size 9 to 14) (size 15 to 20)
#    0.000    1.538    0.769    5.077    5.385    0.000 
#    0.000    1.538    0.000    0.000    0.000    0.000 
#    0.000    0.000    0.000    0.000    0.000    0.000 
#
# Total GULP energy -145185.936941 kJ/mol
# GULP energy per Si atom -5584.074498 kJ/mol
# Density = 2.237803 g / cm^3
# Si number density = 22.429075 Si / 1000 Ang^3
#
#
#
# Elastic Constant Matrix: (Units=GPa)
#
#
# Indices 1 2 3 4 5 6 
#
# 1 48.1736 9.0685 25.6519 0.0000 6.3817 0.0000
# 2 9.0685 51.6762 4.5108 0.0000 11.4636 0.0000
# 3 25.6519 4.5108 102.0822 0.0000 29.2697 0.0000
# 4 0.0000 0.0000 0.0000 -12.4233 0.0000 -8.1568
# 5 6.3817 11.4636 29.2697 0.0000 42.7322 0.0000
# 6 0.0000 0.0000 0.0000 -8.1568 0.0000 17.5016
#
#
#
# Elastic Compliance Matrix: (Units=1/GPa)
#
#
# Indices 1 2 3 4 5 6 
#
# 1 0.024811 -0.004210 -0.006608 0.000000 0.001950 0.000000
# 2 -0.004210 0.021348 0.001962 0.000000 -0.006442 0.000000
# 3 -0.006608 0.001962 0.013984 0.000000 -0.009118 0.000000
# 4 0.000000 0.000000 0.000000 -0.061634 0.000000 -0.028725
# 5 0.001950 -0.006442 -0.009118 0.000000 0.031084 0.000000
# 6 0.000000 0.000000 0.000000 -0.028725 0.000000 0.043750
#
#
# Mechanical properties :
#
#
# Convention : Reuss Voigt Hill
#
# Bulk Modulus (GPa) = 23.56770 31.15494 27.36132
# Shear Modulus (GPa) = 47.52905 20.40881 33.96893
#
# Velocity S-wave (km/s) = 4.60834 3.01977 3.89589
# Velocity P-wave (km/s) = 6.23267 5.10679 5.69761
#
# Compressibility (1/GPa) = 0.04243095
#
# Stress axis : x y z
#
# Youngs Moduli (GPa) = 40.30473 46.84321 71.50949
#
# Poissons Ratio (x) = 0.19720 0.47252
# Poissons Ratio (y) = 0.16968 -0.14027
# Poissons Ratio (z) = 0.26632 -0.09189
#
# Static dielectric constant tensor:
#      x y z
#    x 1.821990 0.000000 -0.017310 
#    y 0.000000 1.833520 0.000000 
#    z -0.017310 0.000000 1.727350 
# 
# From -- ./inp_files/80742.got.cif
#   From: 2010.05.17/outbox.cif.g08.bks.cpg/sg15_41_cif.got.tgz:80742.got - 2010.06.03 18:47:42.
