data_PCOD9282698
_publ_section_title
;
Structure prediction by ZEFSAII (Michael W. Deem and Ramdas Pophale) SiO2 
 PCOD9282698
Probable space group: C 2/C
;
_chemical_formula_sum "Si O2"
_cell_formula_units_Z 56
_cell_length_a 5.875815
_cell_length_b 28.451734
_cell_length_c 16.379354
_cell_angle_alpha 90.000000
_cell_angle_beta 117.290741
_cell_angle_gamma 90.000000
_cell_volume 2433.462007
_symmetry_space_group_name_H-M "C 2/C"
_symmetry_group_IT_number 15
_symmetry_cell_setting 'monoclinic'
loop_
_space_group_symop_operation_xyz
x,y,z
-x,y,1/2-z
-x,-y,-z
x,-y,1/2+z
1/2+x,1/2+y,z
1/2-x,1/2+y,1/2-z
1/2-x,1/2-y,-z
1/2+x,1/2-y,1/2+z
loop_
_atom_site_type_symbol
_atom_site_label
_atom_site_fract_x
_atom_site_fract_y
_atom_site_fract_z
Si Si1 0.144871 0.003366 0.355358
Si Si2 0.937380 0.720280 0.589345
Si Si3 0.311581 0.162646 0.009953
Si Si4 0.141865 0.475089 0.353537
Si Si5 0.214197 0.192925 0.170809
Si Si6 0.324680 0.387756 0.611864
Si Si7 0.806660 0.123749 0.914352
O O1 0.153515 0.059794 0.353816
O O2 0.000000 0.984652 0.250000
O O3 0.443328 0.986909 0.395002
O O4 0.941662 0.991087 0.394904
O O5 0.750000 0.750000 0.500000
O O6 0.805170 0.676270 0.612997
O O7 0.122194 0.695640 0.554237
O O8 0.073817 0.758440 0.668255
O O9 0.207518 0.190667 0.070705
O O10 0.556672 0.136628 0.088001
O O11 0.105210 0.126059 0.941783
O O12 0.159213 0.418815 0.350289
O O13 0.000000 0.495719 0.250000
O O14 0.500000 0.192825 0.250000
O O15 0.056914 0.146987 0.171780
O O16 0.310637 0.388286 0.511143
#
# Coordination Sequence:
#
# PCOD9282698 Si02
#       7
#     8   8   8   8   8   8   8
#     4  10  24  42  67  93 133 173 211 270 339 390
#     4  11  20  43  61  90 127 169 216 252 331 388
#     4  10  21  39  64  86 127 173 200 267 321 383
#     4  10  24  46  65  95 130 173 220 272 329 387
#     4  11  24  38  61  97 130 163 215 267 318 390
#     4  10  23  39  62  97 125 166 214 260 327 392
#     4  10  23  40  66  90 124 170 217 267 319 387
#
# _framework density 23.012484000000001
#
# number of rings (size 3 to 8) (size 9 to 14) (size 15 to 20)
#    0.000    1.714    4.286    0.429   10.000    1.714 
#    2.571    0.000    0.000    0.000    0.000    0.000 
#    0.000    0.000    0.000    0.000    0.000    0.000 
#
# Total GULP energy -156239.843145 kJ/mol
# GULP energy per Si atom -5579.994398 kJ/mol
# Density = 2.296011 g / cm^3
# Si number density = 23.012484 Si / 1000 Ang^3
#
#
#
# Elastic Constant Matrix: (Units=GPa)
#
#
# Indices 1 2 3 4 5 6 
#
# 1 148.0688 56.4967 29.7802 0.0000 32.9021 0.0000
# 2 56.4967 148.8194 24.4590 0.0000 40.2749 0.0000
# 3 29.7802 24.4590 59.9071 0.0000 13.6300 0.0000
# 4 0.0000 0.0000 0.0000 58.1975 0.0000 4.6890
# 5 32.9021 40.2749 13.6300 0.0000 33.9813 0.0000
# 6 0.0000 0.0000 0.0000 4.6890 0.0000 2.3051
#
#
#
# Elastic Compliance Matrix: (Units=1/GPa)
#
#
# Indices 1 2 3 4 5 6 
#
# 1 0.009181 -0.001377 -0.002587 0.000000 -0.006220 0.000000
# 2 -0.001377 0.010225 -0.001140 0.000000 -0.010328 0.000000
# 3 -0.002587 -0.001140 0.019331 0.000000 -0.003898 0.000000
# 4 0.000000 0.000000 0.000000 0.020551 0.000000 -0.041804
# 5 -0.006220 -0.010328 -0.003898 0.000000 0.049254 0.000000
# 6 0.000000 0.000000 0.000000 -0.041804 0.000000 0.518853
#
#
# Mechanical properties :
#
#
# Convention : Reuss Voigt Hill
#
# Bulk Modulus (GPa) = 35.05232 64.25191 49.65211
# Shear Modulus (GPa) = 7.72663 35.30075 21.51369
#
# Velocity S-wave (km/s) = 1.83436 3.92086 3.06088
# Velocity P-wave (km/s) = 4.44426 6.96266 5.84080
#
# Compressibility (1/GPa) = 0.02852878
#
# Stress axis : x y z
#
# Youngs Moduli (GPa) = 108.91488 97.80212 51.73116
#
# Poissons Ratio (x) = 0.13468 0.13381
# Poissons Ratio (y) = 0.14999 0.05899
# Poissons Ratio (z) = 0.28173 0.11152
#
# Static dielectric constant tensor:
#      x y z
#    x 1.986900 0.000000 0.024120 
#    y 0.000000 2.041810 0.000000 
#    z 0.024120 0.000000 1.870170 
# 
# From -- ./inp_files/186797.got.cif
#   From: 2010.05.17/outbox.cif.g08.bks.cpg/sg15_94_cif.got.tgz:186797.got - 2010.06.03 18:47:42.
