data_PCOD9282747
_publ_section_title
;
Structure prediction by ZEFSAII (Michael W. Deem and Ramdas Pophale) SiO2 
 PCOD9282747
Probable space group: C 2/C
;
_chemical_formula_sum "Si O2"
_cell_formula_units_Z 52
_cell_length_a 31.454549
_cell_length_b 17.411721
_cell_length_c 15.382635
_cell_angle_alpha 90.000000
_cell_angle_beta 17.555731
_cell_angle_gamma 90.000000
_cell_volume 2541.178794
_symmetry_space_group_name_H-M "C 2/C"
_symmetry_group_IT_number 15
_symmetry_cell_setting 'monoclinic'
loop_
_space_group_symop_operation_xyz
x,y,z
-x,y,1/2-z
-x,-y,-z
x,-y,1/2+z
1/2+x,1/2+y,z
1/2-x,1/2+y,1/2-z
1/2-x,1/2-y,-z
1/2+x,1/2-y,1/2+z
loop_
_atom_site_type_symbol
_atom_site_label
_atom_site_fract_x
_atom_site_fract_y
_atom_site_fract_z
Si Si1 0.000000 0.453027 0.250000
Si Si2 0.877677 0.057755 0.836324
Si Si3 0.206917 0.674746 0.396043
Si Si4 0.238511 0.659254 0.529804
Si Si5 0.500000 0.309615 0.750000
Si Si6 0.500000 0.338351 0.250000
Si Si7 0.536858 0.594188 0.010732
Si Si8 0.915231 0.532478 0.583828
O O1 0.868853 0.393071 0.511007
O O2 0.998938 0.508951 0.334761
O O3 0.922397 0.114476 0.824996
O O4 0.864893 0.097215 0.765988
O O5 0.004800 0.995431 0.588486
O O6 0.734835 0.011136 0.130342
O O7 0.205772 0.637963 0.494246
O O8 0.113370 0.751460 0.570782
O O9 0.364589 0.698295 0.061087
O O10 0.250000 0.750000 0.500000
O O11 0.389660 0.628541 0.263632
O O12 0.125093 0.620599 0.815207
O O13 0.433753 0.362119 0.956083
O O14 0.000000 0.500000 0.500000
#
# Coordination Sequence:
#
# PCOD9282747 Si02
#       8
#     4   8   8   8   4   4   8   8
#     4  11  22  42  68  98 127 174 222 280 329 394
#     4  10  22  38  66  98 121 166 220 280 325 381
#     4  11  23  39  68  91 131 176 217 269 339 399
#     4  11  21  41  64  89 129 175 213 262 334 402
#     4  11  23  42  64  94 132 178 218 260 339 415
#     4  12  21  40  64  96 129 162 224 274 318 393
#     4  10  21  39  64  92 124 165 218 266 327 393
#     4  11  23  41  66  98 132 171 223 278 339 393
#
# _framework density 20.462944
#
# number of rings (size 3 to 8) (size 9 to 14) (size 15 to 20)
#    0.000    1.231    6.154    0.462    0.000    0.000 
#    5.538    3.077    0.000    0.000    0.000    0.000 
#    0.000    0.000    0.000    0.000    0.000    0.000 
#
# Total GULP energy -144915.095648 kJ/mol
# GULP energy per Si atom -5573.657525 kJ/mol
# Density = 2.041637 g / cm^3
# Si number density = 20.462944 Si / 1000 Ang^3
#
#
#
# Elastic Constant Matrix: (Units=GPa)
#
#
# Indices 1 2 3 4 5 6 
#
# 1 99.6393 18.7792 4.1565 0.0000 21.5598 0.0000
# 2 18.7792 78.7533 15.4495 0.0001 16.6430 0.0000
# 3 4.1565 15.4495 64.3381 0.0000 7.5277 0.0001
# 4 0.0000 0.0001 0.0000 13.8358 0.0000 5.5822
# 5 21.5598 16.6430 7.5277 0.0000 33.2762 0.0000
# 6 0.0000 0.0000 0.0001 5.5822 0.0000 18.8577
#
#
#
# Elastic Compliance Matrix: (Units=1/GPa)
#
#
# Indices 1 2 3 4 5 6 
#
# 1 0.011807 -0.001407 0.000398 0.000000 -0.007037 0.000000
# 2 -0.001407 0.014820 -0.002781 0.000000 -0.005872 0.000000
# 3 0.000398 -0.002781 0.016489 0.000000 -0.002597 0.000000
# 4 0.000000 0.000000 0.000000 0.082079 0.000000 -0.024297
# 5 -0.007037 -0.005872 -0.002597 0.000000 0.038135 0.000000
# 6 0.000000 0.000000 0.000000 -0.024297 0.000000 0.060221
#
#
# Mechanical properties :
#
#
# Convention : Reuss Voigt Hill
#
# Bulk Modulus (GPa) = 28.13930 35.50013 31.81972
# Shear Modulus (GPa) = 20.57828 26.81697 23.69763
#
# Velocity S-wave (km/s) = 3.17462 3.62403 3.40674
# Velocity P-wave (km/s) = 5.21716 5.90742 5.57299
#
# Compressibility (1/GPa) = 0.03553748
#
# Stress axis : x y z
#
# Youngs Moduli (GPa) = 84.69377 67.47792 60.64717
#
# Poissons Ratio (x) = 0.09491 -0.02415
# Poissons Ratio (y) = 0.11913 0.16865
# Poissons Ratio (z) = -0.03373 0.18764
#
# Static dielectric constant tensor:
#      x y z
#    x 1.789060 0.000000 0.041240 
#    y 0.000000 1.750210 0.000000 
#    z 0.041240 0.000000 1.765340 
# 
# From -- ./inp_files/145080.got.cif
#   From: 2010.05.17/outbox.cif.g08.bks.cpg/sg15_73_cif.got.tgz:145080.got - 2010.06.03 18:47:42.
