data_PCOD9282916
_publ_section_title
;
Structure prediction by ZEFSAII (Michael W. Deem and Ramdas Pophale) SiO2 
 PCOD9282916
Probable space group: C 2/C
;
_chemical_formula_sum "Si O2"
_cell_formula_units_Z 40
_cell_length_a 7.546435
_cell_length_b 20.511483
_cell_length_c 10.726273
_cell_angle_alpha 90.000000
_cell_angle_beta 100.523480
_cell_angle_gamma 90.000000
_cell_volume 1632.378412
_symmetry_space_group_name_H-M "C 2/C"
_symmetry_group_IT_number 15
_symmetry_cell_setting 'monoclinic'
loop_
_space_group_symop_operation_xyz
x,y,z
-x,y,1/2-z
-x,-y,-z
x,-y,1/2+z
1/2+x,1/2+y,z
1/2-x,1/2+y,1/2-z
1/2-x,1/2-y,-z
1/2+x,1/2-y,1/2+z
loop_
_atom_site_type_symbol
_atom_site_label
_atom_site_fract_x
_atom_site_fract_y
_atom_site_fract_z
Si Si1 0.216593 0.476202 0.793293
Si Si2 0.181068 0.542984 0.024596
Si Si3 0.170306 0.842810 0.567043
Si Si4 0.254236 0.325549 0.462196
Si Si5 0.214249 0.207463 0.804985
O O1 0.288578 0.478481 0.661529
O O2 0.258116 0.406362 0.857074
O O3 0.000000 0.482412 0.750000
O O4 0.275263 0.528082 0.904554
O O5 0.141069 0.620224 0.021571
O O6 0.000000 0.500000 0.000000
O O7 0.245676 0.831130 0.437222
O O8 0.212715 0.779562 0.656634
O O9 0.957250 0.847030 0.518828
O O10 0.250000 0.250000 0.500000
O O11 0.208808 0.324809 0.309744
O O12 0.000000 0.212659 0.750000
#
# Coordination Sequence:
#
# PCOD9282916 Si02
#       5
#     8   8   8   8   8
#     4  10  22  42  64  93 129 171 220 268 330 403
#     4  10  24  43  65  95 132 177 221 279 333 403
#     4  10  21  39  65  95 131 179 212 286 343 395
#     4  11  24  42  63  98 136 175 233 280 337 410
#     4   9  20  38  63  98 133 174 225 276 344 414
#
# _framework density 24.504121000000001
#
# number of rings (size 3 to 8) (size 9 to 14) (size 15 to 20)
#    0.000    2.000    0.000    1.800    2.800   12.000 
#    7.200    0.000    0.000    0.000    0.000    0.000 
#    0.000    0.000    0.000    0.000    0.000    0.000 
#
# Total GULP energy -111890.068862 kJ/mol
# GULP energy per Si atom -5594.503443 kJ/mol
# Density = 2.444835 g / cm^3
# Si number density = 24.504121 Si / 1000 Ang^3
#
#
#
# Elastic Constant Matrix: (Units=GPa)
#
#
# Indices 1 2 3 4 5 6 
#
# 1 42.7864 8.2298 10.2543 0.0000 11.3278 0.0000
# 2 8.2298 106.4349 60.0434 0.0000 -8.3333 0.0000
# 3 10.2543 60.0434 196.1362 0.0000 2.9770 0.0000
# 4 0.0000 0.0000 0.0000 42.6219 0.0000 8.7775
# 5 11.3278 -8.3333 2.9770 0.0000 20.7437 0.0000
# 6 0.0000 0.0000 0.0000 8.7775 0.0000 30.6388
#
#
#
# Elastic Compliance Matrix: (Units=1/GPa)
#
#
# Indices 1 2 3 4 5 6 
#
# 1 0.028564 -0.003431 -0.000186 0.000000 -0.016950 0.000000
# 2 -0.003431 0.012328 -0.003706 0.000000 0.007358 0.000000
# 3 -0.000186 -0.003706 0.006278 0.000000 -0.002288 0.000000
# 4 0.000000 0.000000 0.000000 0.024933 0.000000 -0.007143
# 5 -0.016950 0.007358 -0.002288 0.000000 0.060748 0.000000
# 6 0.000000 0.000000 0.000000 -0.007143 0.000000 0.034685
#
#
# Mechanical properties :
#
#
# Convention : Reuss Voigt Hill
#
# Bulk Modulus (GPa) = 30.74721 55.82363 43.28542
# Shear Modulus (GPa) = 25.90386 36.58955 31.24670
#
# Velocity S-wave (km/s) = 3.25487 3.86839 3.57481
# Velocity P-wave (km/s) = 5.16726 6.54090 5.89423
#
# Compressibility (1/GPa) = 0.03252328
#
# Stress axis : x y z
#
# Youngs Moduli (GPa) = 35.00916 81.11919 159.29875
#
# Poissons Ratio (x) = 0.27831 0.02959
# Poissons Ratio (y) = 0.12011 0.59039
# Poissons Ratio (z) = 0.00650 0.30064
#
# Static dielectric constant tensor:
#      x y z
#    x 2.057930 0.000000 -0.125850 
#    y 0.000000 2.029680 0.000000 
#    z -0.125850 0.000000 2.006820 
# 
# From -- ./inp_files/76929.got.cif
#   From: 2010.05.17/outbox.cif.g08.bks.cpg/sg15_39_cif.got.tgz:76929.got - 2010.06.03 18:47:42.
