data_PCOD9282078
_publ_section_title
;
Structure prediction by ZEFSAII (Michael W. Deem and Ramdas Pophale) SiO2 
 PCOD9282078
Probable space group: C 2/C
;
_chemical_formula_sum "Si O2"
_cell_formula_units_Z 60
_cell_length_a 11.889948
_cell_length_b 21.204930
_cell_length_c 16.998826
_cell_angle_alpha 90.000000
_cell_angle_beta 144.104782
_cell_angle_gamma 90.000000
_cell_volume 2512.807025
_symmetry_space_group_name_H-M "C 2/C"
_symmetry_group_IT_number 15
_symmetry_cell_setting 'monoclinic'
loop_
_space_group_symop_operation_xyz
x,y,z
-x,y,1/2-z
-x,-y,-z
x,-y,1/2+z
1/2+x,1/2+y,z
1/2-x,1/2+y,1/2-z
1/2-x,1/2-y,-z
1/2+x,1/2-y,1/2+z
loop_
_atom_site_type_symbol
_atom_site_label
_atom_site_fract_x
_atom_site_fract_y
_atom_site_fract_z
Si Si1 0.708619 0.543414 0.960233
Si Si2 0.000000 0.679764 0.750000
Si Si3 0.032032 0.223182 0.388289
Si Si4 0.477677 0.241208 0.035793
Si Si5 0.752090 0.621947 0.322961
Si Si6 0.382992 0.327126 0.110983
Si Si7 0.759066 0.979281 0.207372
Si Si8 0.105418 0.580010 0.925740
O O1 0.737267 0.616304 0.996187
O O2 0.768122 0.533003 0.901912
O O3 0.483190 0.532252 0.847241
O O4 0.817100 0.486263 0.062147
O O5 0.915076 0.727113 0.766728
O O6 0.129464 0.632229 0.872829
O O7 0.250000 0.250000 0.500000
O O8 0.992702 0.232279 0.457105
O O9 0.949341 0.155937 0.312642
O O10 0.596282 0.176607 0.111080
O O11 0.517573 0.293394 0.124507
O O12 0.257600 0.222605 0.928547
O O13 0.777173 0.553679 0.296884
O O14 0.788674 0.604464 0.435347
O O15 0.500000 0.356194 0.250000
O O16 0.613887 0.934118 0.171748
#
# Coordination Sequence:
#
# PCOD9282078 Si02
#       8
#     8   4   8   8   8   8   8   8
#     4  10  21  38  70 104 132 179 234 292 364 433
#     4  12  28  44  70  96 152 190 246 294 362 428
#     4  12  28  45  67 104 143 196 243 303 355 424
#     4  11  24  42  67 102 138 188 235 296 358 429
#     4  11  23  44  73  96 143 185 245 291 361 433
#     4  11  22  41  72 101 141 177 234 296 369 435
#     4  10  21  39  72 102 133 182 237 296 360 431
#     4  11  24  45  69 104 141 191 241 302 359 435
#
# _framework density 23.877679000000001
#
# number of rings (size 3 to 8) (size 9 to 14) (size 15 to 20)
#    0.000    1.067    2.667    4.800    1.867    5.333 
#    2.400    0.667    2.933    0.000    0.000    0.000 
#    0.000    0.000    0.000    0.000    0.000    0.000 
#
# Total GULP energy -167637.964815 kJ/mol
# GULP energy per Si atom -5587.932161 kJ/mol
# Density = 2.382333 g / cm^3
# Si number density = 23.877679 Si / 1000 Ang^3
#
#
#
# Elastic Constant Matrix: (Units=GPa)
#
#
# Indices 1 2 3 4 5 6 
#
# 1 125.9262 52.7231 38.6764 -0.0002 5.8369 -0.0001
# 2 52.7231 137.0201 19.4372 0.0003 -14.4541 0.0002
# 3 38.6764 19.4372 62.6547 0.0003 1.5460 -0.0005
# 4 -0.0002 0.0003 0.0003 42.5291 -0.0001 15.4179
# 5 5.8369 -14.4541 1.5460 -0.0001 29.5572 -0.0003
# 6 -0.0001 0.0002 -0.0005 15.4179 -0.0003 21.7886
#
#
#
# Elastic Compliance Matrix: (Units=1/GPa)
#
#
# Indices 1 2 3 4 5 6 
#
# 1 0.011611 -0.004063 -0.005809 0.000000 -0.003976 0.000000
# 2 -0.004063 0.009523 -0.000582 0.000000 0.005490 0.000000
# 3 -0.005809 -0.000582 0.019731 0.000000 -0.000169 0.000001
# 4 0.000000 0.000000 0.000000 0.031626 0.000000 -0.022379
# 5 -0.003976 0.005490 -0.000169 0.000000 0.037311 0.000001
# 6 0.000000 0.000000 0.000001 -0.022379 0.000001 0.061731
#
#
# Mechanical properties :
#
#
# Convention : Reuss Voigt Hill
#
# Bulk Modulus (GPa) = 50.10555 60.80828 55.45692
# Shear Modulus (GPa) = 25.11388 33.09261 29.10325
#
# Velocity S-wave (km/s) = 3.24662 3.72684 3.49499
# Velocity P-wave (km/s) = 5.92317 6.63634 6.28987
#
# Compressibility (1/GPa) = 0.01995787
#
# Stress axis : x y z
#
# Youngs Moduli (GPa) = 86.12835 105.00655 50.68229
#
# Poissons Ratio (x) = 0.42664 0.29439
# Poissons Ratio (y) = 0.34994 0.02948
# Poissons Ratio (z) = 0.50028 0.06109
#
# Static dielectric constant tensor:
#      x y z
#    x 1.885980 0.000000 0.050100 
#    y 0.000000 1.948150 0.000000 
#    z 0.050100 0.000000 2.074170 
# 
# From -- ./inp_files/200546.got.cif
#   From: 2010.05.17/outbox.cif.g08.bks.cpg/sg15_101_cif.got.tgz:200546.got - 2010.06.03 18:47:42.
