data_PCOD9282606
_publ_section_title
;
Structure prediction by ZEFSAII (Michael W. Deem and Ramdas Pophale) SiO2 
 PCOD9282606
Probable space group: C 2/C
;
_chemical_formula_sum "Si O2"
_cell_formula_units_Z 40
_cell_length_a 17.094266
_cell_length_b 19.339307
_cell_length_c 5.110071
_cell_angle_alpha 90.000000
_cell_angle_beta 84.424749
_cell_angle_gamma 90.000000
_cell_volume 1681.353285
_symmetry_space_group_name_H-M "C 2/C"
_symmetry_group_IT_number 15
_symmetry_cell_setting 'monoclinic'
loop_
_space_group_symop_operation_xyz
x,y,z
-x,y,1/2-z
-x,-y,-z
x,-y,1/2+z
1/2+x,1/2+y,z
1/2-x,1/2+y,1/2-z
1/2-x,1/2-y,-z
1/2+x,1/2-y,1/2+z
loop_
_atom_site_type_symbol
_atom_site_label
_atom_site_fract_x
_atom_site_fract_y
_atom_site_fract_z
Si Si1 0.186743 0.714452 0.709709
Si Si2 0.174152 0.840584 0.102748
Si Si3 0.915674 0.449836 0.754349
Si Si4 0.948926 0.226168 0.517129
Si Si5 0.741774 0.452155 0.770128
O O1 0.250000 0.750000 0.500000
O O2 0.239467 0.652018 0.793796
O O3 0.105990 0.712167 0.578218
O O4 0.170831 0.766723 0.954979
O O5 0.107703 0.833689 0.344381
O O6 0.175183 0.897814 0.877967
O O7 0.916047 0.502065 0.510303
O O8 0.000000 0.411195 0.750000
O O9 0.829043 0.417188 0.758451
O O10 0.000000 0.247178 0.750000
O O11 0.000000 0.203358 0.250000
O O12 0.735395 0.511992 0.991909
#
# Coordination Sequence:
#
# PCOD9282606 Si02
#       5
#     8   8   8   8   8
#     4   9  20  37  64  91 117 163 195 257 313 373
#     4  10  21  39  63  91 127 163 203 258 312 362
#     4   8  14  28  49  71 100 141 186 229 276 330
#     4  11  21  37  63  93 121 160 204 250 317 379
#     4  10  22  35  58  89 119 163 210 249 292 365
#
# _framework density 23.790358000000001
#
# number of rings (size 3 to 8) (size 9 to 14) (size 15 to 20)
#    0.000    2.400    2.000    0.000    5.600    0.000 
#    0.000    0.000   13.200    4.800    0.000    0.000 
#    0.000    0.000    0.000    0.000    0.000    0.000 
#
# Total GULP energy -111522.659524 kJ/mol
# GULP energy per Si atom -5576.132976 kJ/mol
# Density = 2.373621 g / cm^3
# Si number density = 23.790358 Si / 1000 Ang^3
#
#
#
# Elastic Constant Matrix: (Units=GPa)
#
#
# Indices 1 2 3 4 5 6 
#
# 1 114.0939 16.7075 43.0012 0.0000 6.8175 0.0000
# 2 16.7075 52.5937 34.2929 0.0000 -10.5197 0.0000
# 3 43.0012 34.2929 173.1479 0.0000 -12.6511 0.0000
# 4 0.0000 0.0000 0.0000 36.7865 0.0000 -5.9048
# 5 6.8175 -10.5197 -12.6511 0.0000 61.7474 0.0000
# 6 0.0000 0.0000 0.0000 -5.9048 0.0000 8.8409
#
#
#
# Elastic Compliance Matrix: (Units=1/GPa)
#
#
# Indices 1 2 3 4 5 6 
#
# 1 0.010023 -0.002129 -0.002208 0.000000 -0.001922 0.000000
# 2 -0.002129 0.022801 -0.003742 0.000000 0.003353 0.000000
# 3 -0.002208 -0.003742 0.007143 0.000000 0.001070 0.000000
# 4 0.000000 0.000000 0.000000 0.030448 0.000000 0.020336
# 5 -0.001922 0.003353 0.001070 0.000000 0.017198 0.000000
# 6 0.000000 0.000000 0.000000 0.020336 0.000000 0.126693
#
#
# Mechanical properties :
#
#
# Convention : Reuss Voigt Hill
#
# Bulk Modulus (GPa) = 42.00077 58.64875 50.32476
# Shear Modulus (GPa) = 20.97314 37.86388 29.41851
#
# Velocity S-wave (km/s) = 2.97236 3.99377 3.52031
# Velocity P-wave (km/s) = 5.42889 6.78032 6.14189
#
# Compressibility (1/GPa) = 0.02380909
#
# Stress axis : x y z
#
# Youngs Moduli (GPa) = 99.76556 43.85859 139.99511
#
# Poissons Ratio (x) = 0.09337 0.30913
# Poissons Ratio (y) = 0.21238 0.52388
# Poissons Ratio (z) = 0.22029 0.16412
#
# Static dielectric constant tensor:
#      x y z
#    x 2.040060 0.000000 0.012930 
#    y 0.000000 1.912900 0.000000 
#    z 0.012930 0.000000 1.945890 
# 
# From -- ./inp_files/7274.got.cif
#   From: 2010.05.17/outbox.cif.g08.bks.cpg/sg15_4_cif.got.tgz:7274.got - 2010.06.03 18:47:42.
