data_PCOD9282068
_publ_section_title
;
Structure prediction by ZEFSAII (Michael W. Deem and Ramdas Pophale) SiO2 
 PCOD9282068
Probable space group: C 2/C
;
_chemical_formula_sum "Si O2"
_cell_formula_units_Z 64
_cell_length_a 9.459681
_cell_length_b 18.751045
_cell_length_c 29.921186
_cell_angle_alpha 90.000000
_cell_angle_beta 140.216665
_cell_angle_gamma 90.000000
_cell_volume 3396.123870
_symmetry_space_group_name_H-M "C 2/C"
_symmetry_group_IT_number 15
_symmetry_cell_setting 'monoclinic'
loop_
_space_group_symop_operation_xyz
x,y,z
-x,y,1/2-z
-x,-y,-z
x,-y,1/2+z
1/2+x,1/2+y,z
1/2-x,1/2+y,1/2-z
1/2-x,1/2-y,-z
1/2+x,1/2-y,1/2+z
loop_
_atom_site_type_symbol
_atom_site_label
_atom_site_fract_x
_atom_site_fract_y
_atom_site_fract_z
Si Si1 0.240152 0.465927 0.697177
Si Si2 0.781077 0.437533 0.225643
Si Si3 0.324520 0.039625 0.562475
Si Si4 0.258163 0.799194 0.800912
Si Si5 0.720601 0.700972 0.775309
Si Si6 0.021021 0.950973 0.074162
Si Si7 0.679592 0.207785 0.938881
Si Si8 0.008471 0.217546 0.938919
O O1 0.500000 0.475867 0.750000
O O2 0.199732 0.495574 0.736924
O O3 0.184182 0.382367 0.679781
O O4 0.075413 0.512260 0.626468
O O5 0.749331 0.368321 0.249873
O O6 0.597585 0.456165 0.143927
O O7 0.000000 0.423496 0.250000
O O8 0.299313 0.123223 0.547458
O O9 0.211953 0.028421 0.584332
O O10 0.187734 0.996259 0.492494
O O11 0.298064 0.769310 0.761294
O O12 0.392585 0.749255 0.867120
O O13 0.000000 0.791403 0.750000
O O14 0.500000 0.690459 0.750000
O O15 0.932177 0.713388 0.858639
O O16 0.974276 0.867473 0.057252
O O17 0.848441 0.233397 0.941573
O O18 0.750000 0.250000 0.000000
O O19 0.250000 0.250000 0.000000
#
# Coordination Sequence:
#
# PCOD9282068 Si02
#       8
#     8   8   8   8   8   8   8   8
#     4  11  24  41  65  96 133 173 215 281 334 390
#     4  12  21  41  70  95 125 176 227 265 328 405
#     4  10  21  43  62  96 136 167 214 280 329 393
#     4  11  23  43  67  94 133 172 227 280 333 396
#     4  12  25  43  70 100 132 173 227 283 334 396
#     4  10  21  38  69  95 121 174 222 266 327 399
#     4  11  25  42  66  97 138 175 213 277 344 395
#     4  11  22  41  67  93 127 174 222 266 329 406
#
# _framework density 18.845015
#
# number of rings (size 3 to 8) (size 9 to 14) (size 15 to 20)
#    0.000    1.000    5.000    2.250    1.750    1.500 
#    0.000    0.625    0.000    0.000    0.000    0.000 
#    0.000    0.000    0.000    0.000    0.000    0.000 
#
# Total GULP energy -178709.466703 kJ/mol
# GULP energy per Si atom -5584.670834 kJ/mol
# Density = 1.880212 g / cm^3
# Si number density = 18.845015 Si / 1000 Ang^3
#
#
#
# Elastic Constant Matrix: (Units=GPa)
#
#
# Indices 1 2 3 4 5 6 
#
# 1 110.9980 40.7138 60.7500 0.0000 6.2428 0.0000
# 2 40.7138 75.2057 55.0482 0.0001 0.0017 0.0000
# 3 60.7500 55.0482 169.3157 0.0002 -8.2823 0.0001
# 4 0.0000 0.0001 0.0002 38.9788 0.0001 -7.8467
# 5 6.2428 0.0017 -8.2823 0.0001 32.5011 0.0000
# 6 0.0000 0.0000 0.0001 -7.8467 0.0000 23.2993
#
#
#
# Elastic Compliance Matrix: (Units=1/GPa)
#
#
# Indices 1 2 3 4 5 6 
#
# 1 0.012592 -0.004454 -0.003229 0.000000 -0.003241 0.000000
# 2 -0.004454 0.019094 -0.004626 0.000000 -0.000324 0.000000
# 3 -0.003229 -0.004626 0.008707 0.000000 0.002839 0.000000
# 4 0.000000 0.000000 0.000000 0.027521 0.000000 0.009268
# 5 -0.003241 -0.000324 0.002839 0.000000 0.032114 0.000000
# 6 0.000000 0.000000 0.000000 0.009268 0.000000 0.046041
#
#
# Mechanical properties :
#
#
# Convention : Reuss Voigt Hill
#
# Bulk Modulus (GPa) = 63.38200 74.28259 68.83230
# Shear Modulus (GPa) = 28.41806 32.22299 30.32052
#
# Velocity S-wave (km/s) = 3.88750 4.13957 4.01551
# Velocity P-wave (km/s) = 7.33870 7.89628 7.62259
#
# Compressibility (1/GPa) = 0.01577735
#
# Stress axis : x y z
#
# Youngs Moduli (GPa) = 79.41506 52.37306 114.84565
#
# Poissons Ratio (x) = 0.23325 0.37079
# Poissons Ratio (y) = 0.35369 0.53124
# Poissons Ratio (z) = 0.25640 0.24226
#
# Static dielectric constant tensor:
#      x y z
#    x 1.645170 0.000000 0.000050 
#    y 0.000000 1.638870 0.000000 
#    z 0.000050 0.000000 1.649130 
# 
# From -- ./inp_files/308801.got.cif
#   From: 2010.05.17/outbox.cif.g08.bks.cpg/sg15_155_cif.got.tgz:308801.got - 2010.06.03 18:47:42.
