data_PCOD9282486
_publ_section_title
;
Structure prediction by ZEFSAII (Michael W. Deem and Ramdas Pophale) SiO2 
 PCOD9282486
Probable space group: C 2/C
;
_chemical_formula_sum "Si O2"
_cell_formula_units_Z 44
_cell_length_a 9.972219
_cell_length_b 25.983352
_cell_length_c 8.958478
_cell_angle_alpha 90.000000
_cell_angle_beta 130.956585
_cell_angle_gamma 90.000000
_cell_volume 1753.020217
_symmetry_space_group_name_H-M "C 2/C"
_symmetry_group_IT_number 15
_symmetry_cell_setting 'monoclinic'
loop_
_space_group_symop_operation_xyz
x,y,z
-x,y,1/2-z
-x,-y,-z
x,-y,1/2+z
1/2+x,1/2+y,z
1/2-x,1/2+y,1/2-z
1/2-x,1/2-y,-z
1/2+x,1/2-y,1/2+z
loop_
_atom_site_type_symbol
_atom_site_label
_atom_site_fract_x
_atom_site_fract_y
_atom_site_fract_z
Si Si1 0.500000 0.482915 0.250000
Si Si2 0.020445 0.392340 0.527782
Si Si3 0.500000 0.664087 0.250000
Si Si4 0.746957 0.903842 0.390582
Si Si5 0.000000 0.213306 0.750000
Si Si6 0.755638 0.698114 0.195879
Si Si7 0.745913 0.475882 0.676562
O O1 0.628990 0.452383 0.456495
O O2 0.378654 0.518096 0.268940
O O3 0.128667 0.392768 0.450523
O O4 0.100274 0.346577 0.680260
O O5 0.077932 0.445224 0.650975
O O6 0.824192 0.384693 0.321777
O O7 0.576641 0.625689 0.432701
O O8 0.644392 0.698273 0.269022
O O9 0.731619 0.965201 0.357261
O O10 0.137881 0.249940 0.760090
O O11 0.878052 0.186729 0.537470
#
# Coordination Sequence:
#
# PCOD9282486 Si02
#       7
#     4   8   4   8   4   8   8
#     4  10  23  31  60  86 130 180 240 260 325 366
#     4  10  22  40  62  93 131 174 226 265 328 387
#     4  10  23  44  73 102 126 180 229 266 326 404
#     4  10  21  39  62  92 139 172 221 274 309 380
#     4  10  24  51  69 100 138 162 207 286 363 402
#     4  10  24  45  74  99 133 171 214 278 341 411
#     4  11  20  39  56  92 133 187 218 274 314 381
#
# _framework density 25.099537000000002
#
# number of rings (size 3 to 8) (size 9 to 14) (size 15 to 20)
#    0.000    1.818    1.818    1.091    7.636    4.364 
#    3.273    1.818    0.000    0.000    0.000    0.000 
#    0.000    0.000    0.000    0.000    0.000    0.000 
#
# Total GULP energy -123018.312633 kJ/mol
# GULP energy per Si atom -5591.741483 kJ/mol
# Density = 2.504241 g / cm^3
# Si number density = 25.099537 Si / 1000 Ang^3
#
#
#
# Elastic Constant Matrix: (Units=GPa)
#
#
# Indices 1 2 3 4 5 6 
#
# 1 95.2727 17.9460 26.0970 0.0000 -32.6400 0.0000
# 2 17.9460 64.8190 59.1733 0.0000 -9.9499 0.0000
# 3 26.0970 59.1733 256.7727 0.0000 10.3940 0.0000
# 4 0.0000 0.0000 0.0000 53.6687 0.0000 -13.3911
# 5 -32.6400 -9.9499 10.3940 0.0000 37.4106 0.0000
# 6 0.0000 0.0000 0.0000 -13.3911 0.0000 24.3542
#
#
#
# Elastic Compliance Matrix: (Units=1/GPa)
#
#
# Indices 1 2 3 4 5 6 
#
# 1 0.016151 -0.000235 -0.002180 0.000000 0.014635 0.000000
# 2 -0.000235 0.021252 -0.005152 0.000000 0.006878 0.000000
# 3 -0.002180 -0.005152 0.005498 0.000000 -0.004799 0.000000
# 4 0.000000 0.000000 0.000000 0.021596 0.000000 0.011874
# 5 0.014635 0.006878 -0.004799 0.000000 0.042662 0.000000
# 6 0.000000 0.000000 0.000000 0.011874 0.000000 0.047590
#
#
# Mechanical properties :
#
#
# Convention : Reuss Voigt Hill
#
# Bulk Modulus (GPa) = 36.01446 69.25521 52.63484
# Shear Modulus (GPa) = 27.91150 43.99657 35.95403
#
# Velocity S-wave (km/s) = 3.33833 4.19129 3.78889
# Velocity P-wave (km/s) = 5.40732 7.14665 6.33695
#
# Compressibility (1/GPa) = 0.02776662
#
# Stress axis : x y z
#
# Youngs Moduli (GPa) = 61.91419 47.05480 181.89816
#
# Poissons Ratio (x) = 0.01108 0.39648
# Poissons Ratio (y) = 0.01457 0.93714
# Poissons Ratio (z) = 0.13495 0.24243
#
# Static dielectric constant tensor:
#      x y z
#    x 2.063680 0.000000 0.108100 
#    y 0.000000 1.978520 0.000000 
#    z 0.108100 0.000000 2.104520 
# 
# From -- ./inp_files/34517.got.cif
#   From: 2010.05.17/outbox.cif.g08.bks.cpg/sg15_18_cif.got.tgz:34517.got - 2010.06.03 18:47:42.
