data_PCOD9282001
_publ_section_title
;
Structure prediction by ZEFSAII (Michael W. Deem and Ramdas Pophale) SiO2 
 PCOD9282001
Probable space group: C 2/C
;
_chemical_formula_sum "Si O2"
_cell_formula_units_Z 44
_cell_length_a 18.650891
_cell_length_b 8.311579
_cell_length_c 14.513848
_cell_angle_alpha 90.000000
_cell_angle_beta 130.978559
_cell_angle_gamma 90.000000
_cell_volume 1698.583017
_symmetry_space_group_name_H-M "C 2/C"
_symmetry_group_IT_number 15
_symmetry_cell_setting 'monoclinic'
loop_
_space_group_symop_operation_xyz
x,y,z
-x,y,1/2-z
-x,-y,-z
x,-y,1/2+z
1/2+x,1/2+y,z
1/2-x,1/2+y,1/2-z
1/2-x,1/2-y,-z
1/2+x,1/2-y,1/2+z
loop_
_atom_site_type_symbol
_atom_site_label
_atom_site_fract_x
_atom_site_fract_y
_atom_site_fract_z
Si Si1 0.914183 0.374430 0.939378
Si Si2 0.269361 0.076162 0.472287
Si Si3 0.460905 0.387292 0.056812
Si Si4 0.500000 0.830837 0.750000
Si Si5 0.836767 0.487641 0.212142
Si Si6 0.877442 0.114663 0.297664
O O1 0.868602 0.396709 0.001403
O O2 0.958609 0.212281 0.934768
O O3 0.826263 0.417568 0.798082
O O4 0.000000 0.500000 0.000000
O O5 0.250000 0.250000 0.500000
O O6 0.270864 0.978553 0.568753
O O7 0.192047 0.023415 0.332058
O O8 0.441440 0.280480 0.129555
O O9 0.516611 0.546988 0.136696
O O10 0.379611 0.405134 0.911055
O O11 0.565454 0.942986 0.744648
O O12 0.853916 0.301077 0.254531
#
# Coordination Sequence:
#
# PCOD9282001 Si02
#       6
#     8   8   8   4   8   8
#     4  11  21  41  70  95 133 181 238 280 333 422
#     4  10  23  42  64 104 135 179 230 282 358 417
#     4  10  22  42  61 100 132 179 221 285 347 419
#     4  10  22  40  66  94 126 174 244 276 332 422
#     4  10  21  38  67  94 124 179 228 281 336 422
#     4  10  22  41  62  95 139 170 219 284 362 403
#
# _framework density 25.903943000000002
#
# number of rings (size 3 to 8) (size 9 to 14) (size 15 to 20)
#    0.000    1.818    1.818    2.182    0.000    3.636 
#   13.091    1.818    0.000    0.000    0.000    0.000 
#    0.000    0.000    0.000    0.000    0.000    0.000 
#
# Total GULP energy -122667.969357 kJ/mol
# GULP energy per Si atom -5575.816789 kJ/mol
# Density = 2.584498 g / cm^3
# Si number density = 25.903943 Si / 1000 Ang^3
#
#
#
# Elastic Constant Matrix: (Units=GPa)
#
#
# Indices 1 2 3 4 5 6 
#
# 1 95.0891 6.7499 37.5532 0.0000 -27.3473 0.0000
# 2 6.7499 31.2700 8.8295 0.0000 -3.5107 0.0000
# 3 37.5532 8.8295 230.8894 0.0000 -4.3918 0.0000
# 4 0.0000 0.0000 0.0000 39.5939 0.0000 -14.4776
# 5 -27.3473 -3.5107 -4.3918 0.0000 44.9663 0.0000
# 6 0.0000 0.0000 0.0000 -14.4776 0.0000 21.2257
#
#
#
# Elastic Compliance Matrix: (Units=1/GPa)
#
#
# Indices 1 2 3 4 5 6 
#
# 1 0.013733 -0.001491 -0.002024 0.000000 0.008038 0.000000
# 2 -0.001491 0.032753 -0.000980 0.000000 0.001555 0.000000
# 3 -0.002024 -0.000980 0.004682 0.000000 -0.000850 0.000000
# 4 0.000000 0.000000 0.000000 0.033648 0.000000 0.022951
# 5 0.008038 0.001555 -0.000850 0.000000 0.027166 0.000000
# 6 0.000000 0.000000 0.000000 0.022951 0.000000 0.062767
#
#
# Mechanical properties :
#
#
# Convention : Reuss Voigt Hill
#
# Bulk Modulus (GPa) = 23.70910 51.50151 37.60531
# Shear Modulus (GPa) = 25.27834 41.43156 33.35495
#
# Velocity S-wave (km/s) = 3.12725 4.00363 3.59226
# Velocity P-wave (km/s) = 4.71298 6.42627 5.63512
#
# Compressibility (1/GPa) = 0.04217789
#
# Stress axis : x y z
#
# Youngs Moduli (GPa) = 72.81599 30.53181 213.60410
#
# Poissons Ratio (x) = 0.04551 0.43228
# Poissons Ratio (y) = 0.10854 0.20944
# Poissons Ratio (z) = 0.14736 0.02994
#
# Static dielectric constant tensor:
#      x y z
#    x 2.000090 0.000000 0.044260 
#    y 0.000000 2.140390 0.000000 
#    z 0.044260 0.000000 2.210550 
# 
# From -- ./inp_files/172104.got.cif
#   From: 2010.05.17/outbox.cif.g08.bks.cpg/sg15_87_cif.got.tgz:172104.got - 2010.06.03 18:47:42.
