data_PCOD9282129
_publ_section_title
;
Structure prediction by ZEFSAII (Michael W. Deem and Ramdas Pophale) SiO2 
 PCOD9282129
Probable space group: C 2/C
;
_chemical_formula_sum "Si O2"
_cell_formula_units_Z 52
_cell_length_a 22.194775
_cell_length_b 13.169718
_cell_length_c 11.712869
_cell_angle_alpha 90.000000
_cell_angle_beta 134.702426
_cell_angle_gamma 90.000000
_cell_volume 2433.433083
_symmetry_space_group_name_H-M "C 2/C"
_symmetry_group_IT_number 15
_symmetry_cell_setting 'monoclinic'
loop_
_space_group_symop_operation_xyz
x,y,z
-x,y,1/2-z
-x,-y,-z
x,-y,1/2+z
1/2+x,1/2+y,z
1/2-x,1/2+y,1/2-z
1/2-x,1/2-y,-z
1/2+x,1/2-y,1/2+z
loop_
_atom_site_type_symbol
_atom_site_label
_atom_site_fract_x
_atom_site_fract_y
_atom_site_fract_z
Si Si1 0.407854 0.475087 0.428545
Si Si2 0.139845 0.841261 0.779207
Si Si3 0.221968 0.964444 0.059163
Si Si4 0.682833 0.157484 0.410092
Si Si5 0.500000 0.740664 0.250000
Si Si6 0.624796 0.237674 0.111682
Si Si7 0.810264 0.316734 0.327678
O O1 0.500000 0.500000 0.500000
O O2 0.354535 0.556522 0.286240
O O3 0.369935 0.490716 0.506636
O O4 0.394250 0.356229 0.388058
O O5 0.135598 0.744942 0.691182
O O6 0.056067 0.829400 0.743202
O O7 0.212078 0.863187 0.968764
O O8 0.280223 0.925083 0.239816
O O9 0.264731 0.056098 0.049483
O O10 0.750000 0.250000 0.500000
O O11 0.617649 0.175625 0.219460
O O12 0.649805 0.164129 0.495363
O O13 0.566725 0.794374 0.426169
O O14 0.725586 0.244583 0.220128
#
# Coordination Sequence:
#
# PCOD9282129 Si02
#       7
#     8   8   8   8   4   8   8
#     4  11  20  33  56  91 132 163 190 238 315 383
#     4  12  21  37  62  95 124 164 202 260 311 372
#     4  11  21  37  61  93 124 157 210 259 308 361
#     4  10  21  39  60  87 126 162 207 259 298 361
#     4  12  22  38  60  92 136 158 204 252 316 388
#     4  10  21  39  56  91 128 165 201 252 302 374
#     4  10  22  39  61  92 120 160 218 254 306 364
#
# _framework density 21.368987000000001
#
# number of rings (size 3 to 8) (size 9 to 14) (size 15 to 20)
#    0.000    1.231    4.615    5.077    0.000    0.000 
#    0.000    0.769    0.000    0.923    0.000    0.000 
#    0.000    0.000    0.000    0.000    0.000    0.000 
#
# Total GULP energy -144740.685598 kJ/mol
# GULP energy per Si atom -5566.949446 kJ/mol
# Density = 2.132035 g / cm^3
# Si number density = 21.368987 Si / 1000 Ang^3
#
#
#
# Elastic Constant Matrix: (Units=GPa)
#
#
# Indices 1 2 3 4 5 6 
#
# 1 111.5373 46.3147 31.3478 0.0000 -29.1434 0.0000
# 2 46.3147 57.6244 15.2299 0.0000 -10.3565 0.0000
# 3 31.3478 15.2299 109.6205 0.0000 -30.0628 0.0000
# 4 0.0000 0.0000 0.0000 25.1495 0.0000 -16.1246
# 5 -29.1434 -10.3565 -30.0628 0.0000 27.3694 0.0000
# 6 0.0000 0.0000 0.0000 -16.1246 0.0000 18.3039
#
#
#
# Elastic Compliance Matrix: (Units=1/GPa)
#
#
# Indices 1 2 3 4 5 6 
#
# 1 0.017487 -0.011542 0.000732 0.000000 0.015057 0.000000
# 2 -0.011542 0.026306 -0.001424 0.000000 -0.003900 0.000000
# 3 0.000732 -0.001424 0.013133 0.000000 0.014666 0.000000
# 4 0.000000 0.000000 0.000000 0.091368 0.000000 0.080490
# 5 0.015057 -0.003900 0.014666 0.000000 0.067204 0.000000
# 6 0.000000 0.000000 0.000000 0.080490 0.000000 0.125540
#
#
# Mechanical properties :
#
#
# Convention : Reuss Voigt Hill
#
# Bulk Modulus (GPa) = 30.80846 51.61855 41.21351
# Shear Modulus (GPa) = 13.28639 26.55721 19.92180
#
# Velocity S-wave (km/s) = 2.49622 3.52915 3.05663
# Velocity P-wave (km/s) = 4.77041 6.38865 5.63789
#
# Compressibility (1/GPa) = 0.03245861
#
# Stress axis : x y z
#
# Youngs Moduli (GPa) = 57.18597 38.01427 76.14448
#
# Poissons Ratio (x) = 0.43877 -0.05576
# Poissons Ratio (y) = 0.66005 0.10840
# Poissons Ratio (z) = -0.04188 0.05412
#
# Static dielectric constant tensor:
#      x y z
#    x 1.872640 0.000000 -0.003380 
#    y 0.000000 1.732990 0.000000 
#    z -0.003380 0.000000 1.908710 
# 
# From -- ./inp_files/112791.got.cif
#   From: 2010.05.17/outbox.cif.g08.bks.cpg/sg15_57_cif.got.tgz:112791.got - 2010.06.03 18:47:42.
