data_PCOD9282151
_publ_section_title
;
Structure prediction by ZEFSAII (Michael W. Deem and Ramdas Pophale) SiO2 
 PCOD9282151
Probable space group: C 2/C
;
_chemical_formula_sum "Si O2"
_cell_formula_units_Z 60
_cell_length_a 27.645972
_cell_length_b 5.286094
_cell_length_c 23.444596
_cell_angle_alpha 90.000000
_cell_angle_beta 115.353039
_cell_angle_gamma 90.000000
_cell_volume 3096.187976
_symmetry_space_group_name_H-M "C 2/C"
_symmetry_group_IT_number 15
_symmetry_cell_setting 'monoclinic'
loop_
_space_group_symop_operation_xyz
x,y,z
-x,y,1/2-z
-x,-y,-z
x,-y,1/2+z
1/2+x,1/2+y,z
1/2-x,1/2+y,1/2-z
1/2-x,1/2-y,-z
1/2+x,1/2-y,1/2+z
loop_
_atom_site_type_symbol
_atom_site_label
_atom_site_fract_x
_atom_site_fract_y
_atom_site_fract_z
Si Si1 0.959017 0.248974 0.525818
Si Si2 0.806710 0.842322 0.731507
Si Si3 0.461239 0.971257 0.307588
Si Si4 0.442520 0.741504 0.092021
Si Si5 0.000000 0.136310 0.750000
Si Si6 0.923766 0.421038 0.912349
Si Si7 0.895932 0.795586 0.685711
Si Si8 0.683549 0.162330 0.186408
O O1 0.940856 0.999597 0.549768
O O2 0.931720 0.322231 0.452201
O O3 0.023509 0.252410 0.547613
O O4 0.945701 0.500334 0.557017
O O5 0.841081 0.850880 0.690758
O O6 0.742959 0.839067 0.689673
O O7 0.820799 0.091163 0.775543
O O8 0.818935 0.592915 0.776034
O O9 0.500951 0.742960 0.344506
O O10 0.500027 0.189984 0.306202
O O11 0.430356 0.034620 0.348566
O O12 0.421442 0.932647 0.235176
O O13 0.397529 0.744525 0.118649
O O14 0.056934 0.997253 0.778634
O O15 0.863240 0.325965 0.884662
#
# Coordination Sequence:
#
# PCOD9282151 Si02
#       8
#     8   8   8   8   4   8   8   8
#     4  10  25  37  55  85 110 156 199 223 281 335
#     4  10  23  36  56  91 111 151 188 229 302 346
#     4  11  21  32  54  84 112 153 179 229 295 345
#     4  11  22  38  52  79 123 145 187 233 272 349
#     4  12  20  34  48  92 118 150 182 218 300 360
#     4  10  21  39  59  79 116 150 194 239 277 337
#     4  12  21  32  57  83 119 150 183 232 293 355
#     4  10  21  39  58  81 121 144 190 244 283 342
#
# _framework density 19.37867
#
# number of rings (size 3 to 8) (size 9 to 14) (size 15 to 20)
#    0.000    1.333    4.000    2.400    1.867    5.867 
#    0.000    0.000    0.000    1.600    0.000    0.000 
#    0.000    0.000    0.000    0.000    0.000    0.000 
#
# Total GULP energy -167289.065771 kJ/mol
# GULP energy per Si atom -5576.302192 kJ/mol
# Density = 1.933456 g / cm^3
# Si number density = 19.378670 Si / 1000 Ang^3
#
#
#
# Elastic Constant Matrix: (Units=GPa)
#
#
# Indices 1 2 3 4 5 6 
#
# 1 129.5988 18.2993 35.2789 0.0001 -2.9817 -0.0002
# 2 18.2993 93.1674 18.0760 -0.0017 -10.8858 0.0006
# 3 35.2789 18.0760 51.6356 0.0004 -4.9808 -0.0002
# 4 0.0001 -0.0017 0.0004 19.6044 -0.0001 -8.1711
# 5 -2.9817 -10.8858 -4.9808 -0.0001 36.9094 0.0003
# 6 -0.0002 0.0006 -0.0002 -8.1711 0.0003 14.8949
#
#
#
# Elastic Compliance Matrix: (Units=1/GPa)
#
#
# Indices 1 2 3 4 5 6 
#
# 1 0.009519 -0.000682 -0.006292 0.000000 -0.000281 0.000000
# 2 -0.000682 0.011877 -0.003404 0.000001 0.002988 0.000000
# 3 -0.006292 -0.003404 0.025037 -0.000001 0.001866 0.000000
# 4 0.000000 0.000001 -0.000001 0.066129 0.000000 0.036278
# 5 -0.000281 0.002988 0.001866 0.000000 0.028204 -0.000001
# 6 0.000000 0.000000 0.000000 0.036278 -0.000001 0.087038
#
#
# Mechanical properties :
#
#
# Convention : Reuss Voigt Hill
#
# Bulk Modulus (GPa) = 38.94417 46.41224 42.67821
# Shear Modulus (GPa) = 19.44633 27.79823 23.62228
#
# Velocity S-wave (km/s) = 3.17123 3.79156 3.49518
# Velocity P-wave (km/s) = 5.79215 6.57039 6.19350
#
# Compressibility (1/GPa) = 0.02567778
#
# Stress axis : x y z
#
# Youngs Moduli (GPa) = 105.05671 84.19766 39.94110
#
# Poissons Ratio (x) = 0.05740 0.25131
# Poissons Ratio (y) = 0.07162 0.13595
# Poissons Ratio (z) = 0.66101 0.28658
#
# Static dielectric constant tensor:
#      x y z
#    x 1.712620 0.000000 -0.010180 
#    y 0.000000 1.774710 0.000000 
#    z -0.010180 0.000000 1.736410 
# 
# From -- ./inp_files/283009.got.cif
#   From: 2010.05.17/outbox.cif.g08.bks.cpg/sg15_142_cif.got.tgz:283009.got - 2010.06.03 18:47:42.
