data_PCOD9282183
_publ_section_title
;
Structure prediction by ZEFSAII (Michael W. Deem and Ramdas Pophale) SiO2 
 PCOD9282183
Probable space group: C 2/C
;
_chemical_formula_sum "Si O2"
_cell_formula_units_Z 56
_cell_length_a 12.184587
_cell_length_b 28.139675
_cell_length_c 9.795660
_cell_angle_alpha 90.000000
_cell_angle_beta 128.910261
_cell_angle_gamma 90.000000
_cell_volume 2613.461637
_symmetry_space_group_name_H-M "C 2/C"
_symmetry_group_IT_number 15
_symmetry_cell_setting 'monoclinic'
loop_
_space_group_symop_operation_xyz
x,y,z
-x,y,1/2-z
-x,-y,-z
x,-y,1/2+z
1/2+x,1/2+y,z
1/2-x,1/2+y,1/2-z
1/2-x,1/2-y,-z
1/2+x,1/2-y,1/2+z
loop_
_atom_site_type_symbol
_atom_site_label
_atom_site_fract_x
_atom_site_fract_y
_atom_site_fract_z
Si Si1 0.681135 0.199369 0.289380
Si Si2 0.414794 0.226742 0.914652
Si Si3 0.879741 0.947275 0.274699
Si Si4 0.267127 0.633544 0.096310
Si Si5 0.000000 0.200486 0.250000
Si Si6 0.332327 0.897465 0.585346
Si Si7 0.000000 0.347303 0.250000
Si Si8 0.628988 0.556289 0.151616
O O1 0.732011 0.166011 0.201849
O O2 0.692324 0.159725 0.418248
O O3 0.775630 0.247224 0.364822
O O4 0.525490 0.215188 0.120273
O O5 0.471220 0.267249 0.857038
O O6 0.423643 0.183246 0.811874
O O7 0.000000 0.949405 0.250000
O O8 0.975461 0.928711 0.474280
O O9 0.850097 0.001122 0.298684
O O10 0.744145 0.918292 0.111723
O O11 0.371792 0.668050 0.100945
O O12 0.342919 0.585787 0.192432
O O13 0.121613 0.622899 0.912274
O O14 0.500000 0.904227 0.750000
O O15 0.245260 0.925613 0.633779
#
# Coordination Sequence:
#
# PCOD9282183 Si02
#       8
#     8   8   8   8   4   8   4   8
#     4   9  18  33  52  76 111 146 187 234 277 327
#     4   9  16  30  52  77 111 152 187 231 274 334
#     4   9  19  38  63  83 109 148 186 232 277 340
#     4   9  17  29  47  78 115 144 175 230 277 342
#     4   9  16  26  48  80 108 148 190 220 282 329
#     4  10  21  39  59  83 115 149 185 239 288 330
#     4   9  16  28  48  80 120 150 178 226 296 327
#     4   9  19  37  59  83 111 147 191 229 276 338
#
# _framework density 21.427520000000001
#
# number of rings (size 3 to 8) (size 9 to 14) (size 15 to 20)
#    0.000    2.857    0.000    0.857    1.000    4.000 
#    1.286   12.143    0.000    0.000    0.000    3.000 
#    0.000    0.000    0.000    0.000    0.000    0.000 
#
# Total GULP energy -155874.285739 kJ/mol
# GULP energy per Si atom -5566.938776 kJ/mol
# Density = 2.137875 g / cm^3
# Si number density = 21.427520 Si / 1000 Ang^3
#
#
#
# Elastic Constant Matrix: (Units=GPa)
#
#
# Indices 1 2 3 4 5 6 
#
# 1 44.5999 21.9270 38.1444 0.0000 4.6900 0.0000
# 2 21.9270 77.4201 76.1522 0.0000 10.3033 0.0000
# 3 38.1444 76.1522 160.6129 0.0000 22.2637 0.0000
# 4 0.0000 0.0000 0.0000 75.9156 0.0000 -28.6029
# 5 4.6900 10.3033 22.2637 0.0000 27.4758 0.0000
# 6 0.0000 0.0000 0.0000 -28.6029 0.0000 46.8802
#
#
#
# Elastic Compliance Matrix: (Units=1/GPa)
#
#
# Indices 1 2 3 4 5 6 
#
# 1 0.028433 -0.002640 -0.005594 0.000000 0.000669 0.000000
# 2 -0.002640 0.024452 -0.010993 0.000000 0.000189 0.000000
# 3 -0.005594 -0.010993 0.013589 0.000000 -0.005934 0.000000
# 4 0.000000 0.000000 0.000000 0.017105 0.000000 0.010436
# 5 0.000669 0.000189 -0.005934 0.000000 0.041019 0.000000
# 6 0.000000 0.000000 0.000000 0.010436 0.000000 0.027698
#
#
# Mechanical properties :
#
#
# Convention : Reuss Voigt Hill
#
# Bulk Modulus (GPa) = 35.68658 61.67557 48.68107
# Shear Modulus (GPa) = 24.98887 39.81493 32.40190
#
# Velocity S-wave (km/s) = 3.41868 4.31527 3.89287
# Velocity P-wave (km/s) = 5.68101 7.32629 6.55547
#
# Compressibility (1/GPa) = 0.02802174
#
# Stress axis : x y z
#
# Youngs Moduli (GPa) = 35.17018 40.89702 73.58752
#
# Poissons Ratio (x) = 0.10795 0.41164
# Poissons Ratio (y) = 0.09284 0.80892
# Poissons Ratio (z) = 0.19674 0.44957
#
# Static dielectric constant tensor:
#      x y z
#    x 1.880100 0.000000 -0.040970 
#    y 0.000000 1.748270 0.000000 
#    z -0.040970 0.000000 1.804990 
# 
# From -- ./inp_files/101151.got.cif
#   From: 2010.05.17/outbox.cif.g08.bks.cpg/sg15_51_cif.got.tgz:101151.got - 2010.06.03 18:47:42.
