data_PCOD9282171
_publ_section_title
;
Structure prediction by ZEFSAII (Michael W. Deem and Ramdas Pophale) SiO2 
 PCOD9282171
Probable space group: C 2/C
;
_chemical_formula_sum "Si O2"
_cell_formula_units_Z 48
_cell_length_a 15.914095
_cell_length_b 21.915939
_cell_length_c 8.380069
_cell_angle_alpha 90.000000
_cell_angle_beta 54.864704
_cell_angle_gamma 90.000000
_cell_volume 2390.200075
_symmetry_space_group_name_H-M "C 2/C"
_symmetry_group_IT_number 15
_symmetry_cell_setting 'monoclinic'
loop_
_space_group_symop_operation_xyz
x,y,z
-x,y,1/2-z
-x,-y,-z
x,-y,1/2+z
1/2+x,1/2+y,z
1/2-x,1/2+y,1/2-z
1/2-x,1/2-y,-z
1/2+x,1/2-y,1/2+z
loop_
_atom_site_type_symbol
_atom_site_label
_atom_site_fract_x
_atom_site_fract_y
_atom_site_fract_z
Si Si1 0.383623 0.070430 0.436207
Si Si2 0.252180 0.336349 0.851347
Si Si3 0.861083 0.213840 0.539086
Si Si4 0.802815 0.695300 0.538706
Si Si5 0.558788 0.699548 0.520479
Si Si6 0.380151 0.061765 0.825465
O O1 0.500000 0.072226 0.250000
O O2 0.334818 0.132693 0.423675
O O3 0.377591 0.070657 0.636366
O O4 0.343849 0.006660 0.409869
O O5 0.166344 0.285224 0.905510
O O6 0.340298 0.342299 0.619293
O O7 0.325646 0.304200 0.903066
O O8 0.192604 0.392263 0.996013
O O9 0.780824 0.178528 0.738429
O O10 0.973755 0.198164 0.475182
O O11 0.750000 0.750000 0.500000
O O12 0.899446 0.730629 0.510509
O O13 0.500000 0.685440 0.750000
O O14 0.500000 0.068520 0.750000
#
# Coordination Sequence:
#
# PCOD9282171 Si02
#       6
#     8   8   8   8   8   8
#     4  11  24  42  63  92 127 167 209 264 318 381
#     4  10  23  38  63  90 125 170 210 257 320 374
#     4  10  21  39  58  91 127 165 206 262 315 376
#     4  11  22  37  63  97 126 164 205 256 321 373
#     4  11  22  37  60  96 130 161 205 266 320 377
#     4  11  24  42  63  94 127 168 212 259 318 385
#
# _framework density 20.082000000000001
#
# number of rings (size 3 to 8) (size 9 to 14) (size 15 to 20)
#    0.000    1.333    3.333    3.000    2.333    4.000 
#    0.000    0.000    0.000    1.000    4.333    0.000 
#    0.000    0.000    0.000    0.000    0.000    0.000 
#
# Total GULP energy -133866.664040 kJ/mol
# GULP energy per Si atom -5577.777668 kJ/mol
# Density = 2.003629 g / cm^3
# Si number density = 20.082000 Si / 1000 Ang^3
#
#
#
# Elastic Constant Matrix: (Units=GPa)
#
#
# Indices 1 2 3 4 5 6 
#
# 1 70.9175 23.9631 23.1787 0.0000 8.1743 0.0000
# 2 23.9631 134.2635 53.4916 0.0000 -11.8754 0.0000
# 3 23.1787 53.4916 118.4611 0.0000 -25.4178 0.0000
# 4 0.0000 0.0000 0.0000 33.3998 0.0000 -1.2267
# 5 8.1743 -11.8754 -25.4178 0.0000 20.3343 0.0000
# 6 0.0000 0.0000 0.0000 -1.2267 0.0000 22.4096
#
#
#
# Elastic Compliance Matrix: (Units=1/GPa)
#
#
# Indices 1 2 3 4 5 6 
#
# 1 0.018859 -0.002372 -0.006208 0.000000 -0.016727 0.000000
# 2 -0.002372 0.009381 -0.003268 0.000000 0.002347 0.000000
# 3 -0.006208 -0.003268 0.015384 0.000000 0.019817 0.000000
# 4 0.000000 0.000000 0.000000 0.030001 0.000000 0.001642
# 5 -0.016727 0.002347 0.019817 0.000000 0.082044 0.000000
# 6 0.000000 0.000000 0.000000 0.001642 0.000000 0.044714
#
#
# Mechanical properties :
#
#
# Convention : Reuss Voigt Hill
#
# Bulk Modulus (GPa) = 50.18133 58.32322 54.25228
# Shear Modulus (GPa) = 21.67103 30.09597 25.88350
#
# Velocity S-wave (km/s) = 3.28857 3.87544 3.59401
# Velocity P-wave (km/s) = 6.28188 7.00935 6.65556
#
# Compressibility (1/GPa) = 0.01992773
#
# Stress axis : x y z
#
# Youngs Moduli (GPa) = 53.02379 106.59681 65.00163
#
# Poissons Ratio (x) = 0.25286 0.40353
# Poissons Ratio (y) = 0.12578 0.21245
# Poissons Ratio (z) = 0.32917 0.34840
#
# Static dielectric constant tensor:
#      x y z
#    x 1.764040 0.000000 0.074500 
#    y 0.000000 1.695370 0.000000 
#    z 0.074500 0.000000 1.861760 
# 
# From -- ./inp_files/50046.got.cif
#   From: 2010.05.17/outbox.cif.g08.bks.cpg/sg15_26_cif.got.tgz:50046.got - 2010.06.03 18:47:42.
