data_PCOD9282089
_publ_section_title
;
Structure prediction by ZEFSAII (Michael W. Deem and Ramdas Pophale) SiO2 
 PCOD9282089
Probable space group: C 2/C
;
_chemical_formula_sum "Si O2"
_cell_formula_units_Z 44
_cell_length_a 27.318004
_cell_length_b 13.259936
_cell_length_c 8.593287
_cell_angle_alpha 90.000000
_cell_angle_beta 143.503806
_cell_angle_gamma 90.000000
_cell_volume 1851.391717
_symmetry_space_group_name_H-M "C 2/C"
_symmetry_group_IT_number 15
_symmetry_cell_setting 'monoclinic'
loop_
_space_group_symop_operation_xyz
x,y,z
-x,y,1/2-z
-x,-y,-z
x,-y,1/2+z
1/2+x,1/2+y,z
1/2-x,1/2+y,1/2-z
1/2-x,1/2-y,-z
1/2+x,1/2-y,1/2+z
loop_
_atom_site_type_symbol
_atom_site_label
_atom_site_fract_x
_atom_site_fract_y
_atom_site_fract_z
Si Si1 0.793875 0.146497 0.742651
Si Si2 0.561151 0.538562 0.522674
Si Si3 0.180550 0.333754 0.502444
Si Si4 0.344824 0.646170 0.218776
Si Si5 0.383464 0.054177 0.198801
Si Si6 0.000000 0.463220 0.750000
O O1 0.856019 0.106044 0.769392
O O2 0.801812 0.265194 0.801497
O O3 0.700796 0.111034 0.484314
O O4 0.821215 0.102491 0.985239
O O5 0.500000 0.500000 0.500000
O O6 0.594557 0.431059 0.546091
O O7 0.500000 0.595253 0.250000
O O8 0.264640 0.346960 0.620603
O O9 0.126867 0.258169 0.255984
O O10 0.142221 0.441971 0.424204
O O11 0.443986 0.033154 0.496203
O O12 0.438314 0.099369 0.200987
#
# Coordination Sequence:
#
# PCOD9282089 Si02
#       6
#     8   8   8   8   8   4
#     4  10  21  38  71  91 129 183 222 276 335 409
#     4  12  22  38  61  97 135 175 222 279 346 403
#     4   9  19  39  67  94 125 173 231 267 328 405
#     4   9  19  38  62  95 119 176 222 272 328 392
#     4  11  21  45  67  93 138 164 235 270 344 405
#     4  10  26  38  66  98 126 186 206 290 340 392
#
# _framework density 23.765905
#
# number of rings (size 3 to 8) (size 9 to 14) (size 15 to 20)
#    1.091    0.727    3.636    1.091    0.000    0.000 
#    6.545    0.909    0.000    0.000    0.000    0.000 
#    0.000    0.000    0.000    0.000    0.000    0.000 
#
# Total GULP energy -122593.008214 kJ/mol
# GULP energy per Si atom -5572.409464 kJ/mol
# Density = 2.371181 g / cm^3
# Si number density = 23.765905 Si / 1000 Ang^3
#
#
#
# Elastic Constant Matrix: (Units=GPa)
#
#
# Indices 1 2 3 4 5 6 
#
# 1 175.9371 34.9943 44.6445 0.0000 22.0269 0.0000
# 2 34.9943 100.4945 31.3100 0.0000 12.4936 0.0000
# 3 44.6445 31.3100 111.0217 0.0000 23.1788 0.0000
# 4 0.0000 0.0000 0.0000 18.3902 0.0000 -15.6318
# 5 22.0269 12.4936 23.1788 0.0000 30.0187 0.0000
# 6 0.0000 0.0000 0.0000 -15.6318 0.0000 15.4938
#
#
#
# Elastic Compliance Matrix: (Units=1/GPa)
#
#
# Indices 1 2 3 4 5 6 
#
# 1 0.006784 -0.001458 -0.001674 0.000000 -0.003078 0.000000
# 2 -0.001458 0.011393 -0.002218 0.000000 -0.001960 0.000000
# 3 -0.001674 -0.002218 0.011751 0.000000 -0.006922 0.000000
# 4 0.000000 0.000000 0.000000 0.381790 0.000000 0.385189
# 5 -0.003078 -0.001960 -0.006922 0.000000 0.041732 0.000000
# 6 0.000000 0.000000 0.000000 0.385189 0.000000 0.453160
#
#
# Mechanical properties :
#
#
# Convention : Reuss Voigt Hill
#
# Bulk Modulus (GPa) = 52.00595 67.70567 59.85581
# Shear Modulus (GPa) = 5.41290 31.21419 18.31354
#
# Velocity S-wave (km/s) = 1.51081 3.62802 2.77894
# Velocity P-wave (km/s) = 4.99735 6.78973 5.96129
#
# Compressibility (1/GPa) = 0.01922857
#
# Stress axis : x y z
#
# Youngs Moduli (GPa) = 147.40364 87.77289 85.09887
#
# Poissons Ratio (x) = 0.12798 0.14247
# Poissons Ratio (y) = 0.21492 0.18872
# Poissons Ratio (z) = 0.24677 0.19465
#
# Static dielectric constant tensor:
#      x y z
#    x 2.001070 0.000000 -0.104440 
#    y 0.000000 1.870960 0.000000 
#    z -0.104440 0.000000 2.044880 
# 
# From -- ./inp_files/66343.got.cif
#   From: 2010.05.17/outbox.cif.g08.bks.cpg/sg15_34_cif.got.tgz:66343.got - 2010.06.03 18:47:42.
