data_PCOD9282205
_publ_section_title
;
Structure prediction by ZEFSAII (Michael W. Deem and Ramdas Pophale) SiO2 
 PCOD9282205
Probable space group: C 2/C
;
_chemical_formula_sum "Si O2"
_cell_formula_units_Z 64
_cell_length_a 17.004568
_cell_length_b 22.760506
_cell_length_c 17.272533
_cell_angle_alpha 90.000000
_cell_angle_beta 150.016532
_cell_angle_gamma 90.000000
_cell_volume 3340.845833
_symmetry_space_group_name_H-M "C 2/C"
_symmetry_group_IT_number 15
_symmetry_cell_setting 'monoclinic'
loop_
_space_group_symop_operation_xyz
x,y,z
-x,y,1/2-z
-x,-y,-z
x,-y,1/2+z
1/2+x,1/2+y,z
1/2-x,1/2+y,1/2-z
1/2-x,1/2-y,-z
1/2+x,1/2-y,1/2+z
loop_
_atom_site_type_symbol
_atom_site_label
_atom_site_fract_x
_atom_site_fract_y
_atom_site_fract_z
Si Si1 0.114590 0.125545 0.916337
Si Si2 0.398335 0.911708 0.392168
Si Si3 0.460485 0.206006 0.439149
Si Si4 0.540116 0.012433 0.407491
Si Si5 0.633862 0.801559 0.925454
Si Si6 0.892479 0.825627 0.916674
Si Si7 0.737799 0.493610 0.546632
Si Si8 0.425052 0.561613 0.966033
O O1 0.000000 0.144613 0.750000
O O2 0.283545 0.137100 0.022462
O O3 0.102717 0.159900 0.986890
O O4 0.107227 0.056925 0.927504
O O5 0.470648 0.846737 0.450464
O O6 0.496914 0.955183 0.421128
O O7 0.216993 0.917201 0.211225
O O8 0.416046 0.937244 0.494009
O O9 0.570726 0.204093 0.457106
O O10 0.282235 0.192795 0.259950
O O11 0.489861 0.271049 0.497668
O O12 0.675623 0.997492 0.461168
O O13 0.378668 0.027962 0.224091
O O14 0.500000 0.796012 0.750000
O O15 0.750000 0.750000 0.000000
O O16 0.948554 0.886182 0.925058
O O17 0.656139 0.547714 0.520604
O O18 0.500000 0.500000 0.000000
#
# Coordination Sequence:
#
# PCOD9282205 Si02
#       8
#     8   8   8   8   8   8   8   8
#     4  12  25  35  55  87 123 164 206 249 300 369
#     4  10  22  39  65  92 122 162 203 259 301 374
#     4  12  24  41  63  85 124 165 210 257 305 376
#     4   9  20  37  64  92 120 155 211 247 316 363
#     4  12  23  36  53  79 115 159 201 242 290 354
#     4  12  26  41  59  87 122 168 210 252 314 365
#     4  10  21  39  59  87 123 162 196 263 306 364
#     4  11  24  40  61  87 130 163 208 256 311 360
#
# _framework density 19.156825000000001
#
# number of rings (size 3 to 8) (size 9 to 14) (size 15 to 20)
#    0.000    1.000    3.750    2.625   10.500    0.000 
#    0.000    0.000    0.000    0.750    0.000    0.000 
#    0.000    0.000    0.000    0.000    0.000    0.000 
#
# Total GULP energy -178762.594953 kJ/mol
# GULP energy per Si atom -5586.331092 kJ/mol
# Density = 1.911322 g / cm^3
# Si number density = 19.156825 Si / 1000 Ang^3
#
#
#
# Elastic Constant Matrix: (Units=GPa)
#
#
# Indices 1 2 3 4 5 6 
#
# 1 76.6735 27.5045 19.2169 0.0000 3.8762 0.0000
# 2 27.5045 114.8515 40.7547 0.0000 7.9904 0.0000
# 3 19.2169 40.7547 93.8775 0.0002 8.7026 0.0002
# 4 0.0000 0.0000 0.0002 33.6863 0.0001 4.3836
# 5 3.8762 7.9904 8.7026 0.0001 22.7122 0.0001
# 6 0.0000 0.0000 0.0002 4.3836 0.0001 29.3124
#
#
#
# Elastic Compliance Matrix: (Units=1/GPa)
#
#
# Indices 1 2 3 4 5 6 
#
# 1 0.014517 -0.002826 -0.001666 0.000000 -0.000845 0.000000
# 2 -0.002826 0.010929 -0.003996 0.000000 -0.001831 0.000000
# 3 -0.001666 -0.003996 0.013034 0.000000 -0.003304 0.000000
# 4 0.000000 0.000000 0.000000 0.030275 0.000000 -0.004528
# 5 -0.000845 -0.001831 -0.003304 0.000000 0.046084 0.000000
# 6 0.000000 0.000000 0.000000 -0.004528 0.000000 0.034792
#
#
# Mechanical properties :
#
#
# Convention : Reuss Voigt Hill
#
# Bulk Modulus (GPa) = 46.50662 51.15052 48.82857
# Shear Modulus (GPa) = 28.77263 30.33729 29.55496
#
# Velocity S-wave (km/s) = 3.87971 3.98380 3.93210
# Velocity P-wave (km/s) = 6.66326 6.92241 6.79407
#
# Compressibility (1/GPa) = 0.02150231
#
# Stress axis : x y z
#
# Youngs Moduli (GPa) = 68.88705 91.49763 76.71961
#
# Poissons Ratio (x) = 0.25861 0.12783
# Poissons Ratio (y) = 0.19470 0.30660
# Poissons Ratio (z) = 0.11478 0.36566
#
# Static dielectric constant tensor:
#      x y z
#    x 1.685800 0.000000 0.006370 
#    y 0.000000 1.728800 0.000000 
#    z 0.006370 0.000000 1.693340 
# 
# From -- ./inp_files/211986.got.cif
#   From: 2010.05.17/outbox.cif.g08.bks.cpg/sg15_106_cif.got.tgz:211986.got - 2010.06.03 18:47:42.
