data_PCOD9282637
_publ_section_title
;
Structure prediction by ZEFSAII (Michael W. Deem and Ramdas Pophale) SiO2 
 PCOD9282637
Probable space group: C 2/C
;
_chemical_formula_sum "Si O2"
_cell_formula_units_Z 56
_cell_length_a 12.381611
_cell_length_b 14.399370
_cell_length_c 14.337289
_cell_angle_alpha 90.000000
_cell_angle_beta 74.366632
_cell_angle_gamma 90.000000
_cell_volume 2461.594905
_symmetry_space_group_name_H-M "C 2/C"
_symmetry_group_IT_number 15
_symmetry_cell_setting 'monoclinic'
loop_
_space_group_symop_operation_xyz
x,y,z
-x,y,1/2-z
-x,-y,-z
x,-y,1/2+z
1/2+x,1/2+y,z
1/2-x,1/2+y,1/2-z
1/2-x,1/2-y,-z
1/2+x,1/2-y,1/2+z
loop_
_atom_site_type_symbol
_atom_site_label
_atom_site_fract_x
_atom_site_fract_y
_atom_site_fract_z
Si Si1 0.498924 0.652226 0.508579
Si Si2 0.990089 0.708429 0.860405
Si Si3 0.028793 0.497655 0.884366
Si Si4 0.121043 0.998733 0.081738
Si Si5 0.248851 0.195545 0.864526
Si Si6 0.287918 0.008233 0.376482
Si Si7 0.761107 0.102154 0.282937
O O1 0.544441 0.732757 0.430710
O O2 0.465591 0.570581 0.444177
O O3 0.571012 0.603823 0.573884
O O4 0.380329 0.688254 0.576291
O O5 0.037772 0.605095 0.852772
O O6 0.854743 0.705823 0.911245
O O7 0.000000 0.741729 0.750000
O O8 0.916299 0.463751 0.858881
O O9 0.137993 0.437854 0.837999
O O10 0.000000 0.500000 0.000000
O O11 0.153848 0.041389 0.173610
O O12 0.231134 0.004195 0.990146
O O13 0.274401 0.090201 0.826165
O O14 0.261895 0.288546 0.801868
O O15 0.222687 0.081240 0.329221
#
# Coordination Sequence:
#
# PCOD9282637 Si02
#       7
#     8   8   8   8   8   8   8
#     4  10  21  39  63  93 130 167 215 269 321 381
#     4  11  22  37  65  98 127 167 228 269 311 395
#     4  11  21  39  63  93 127 166 216 272 323 382
#     4  10  22  39  62  97 129 165 216 273 326 387
#     4  10  22  42  67  91 122 179 223 254 319 404
#     4  10  23  41  64  96 130 163 223 278 318 394
#     4  12  22  41  69  93 129 174 217 267 335 388
#
# _framework density 22.749478
#
# number of rings (size 3 to 8) (size 9 to 14) (size 15 to 20)
#    0.000    1.429    2.857    3.429    4.000    0.000 
#    0.000   10.714    0.000    0.000    0.000    0.000 
#    0.000    0.000    0.000    0.000    0.000    0.000 
#
# Total GULP energy -156271.310171 kJ/mol
# GULP energy per Si atom -5581.118220 kJ/mol
# Density = 2.269770 g / cm^3
# Si number density = 22.749478 Si / 1000 Ang^3
#
#
#
# Elastic Constant Matrix: (Units=GPa)
#
#
# Indices 1 2 3 4 5 6 
#
# 1 95.3846 26.0750 10.0904 0.0000 -1.6990 0.0000
# 2 26.0750 84.1096 2.9053 0.0000 13.4006 0.0000
# 3 10.0904 2.9053 56.6802 0.0000 9.2401 0.0000
# 4 0.0000 0.0000 0.0000 10.4040 0.0000 12.4084
# 5 -1.6990 13.4006 9.2401 0.0000 28.4328 0.0000
# 6 0.0000 0.0000 0.0000 12.4084 0.0000 33.3766
#
#
#
# Elastic Compliance Matrix: (Units=1/GPa)
#
#
# Indices 1 2 3 4 5 6 
#
# 1 0.011950 -0.004175 -0.002482 0.000000 0.003488 0.000000
# 2 -0.004175 0.014319 0.001214 0.000000 -0.007393 0.000000
# 3 -0.002482 0.001214 0.019155 0.000000 -0.006946 0.000000
# 4 0.000000 0.000000 0.000000 0.172683 0.000000 -0.064198
# 5 0.003488 -0.007393 -0.006946 0.000000 0.041121 0.000000
# 6 0.000000 0.000000 0.000000 -0.064198 0.000000 0.053828
#
#
# Mechanical properties :
#
#
# Convention : Reuss Voigt Hill
#
# Bulk Modulus (GPa) = 28.95240 34.92396 31.93818
# Shear Modulus (GPa) = 14.90523 27.58295 21.24409
#
# Velocity S-wave (km/s) = 2.56245 3.48582 3.05917
# Velocity P-wave (km/s) = 4.63779 5.62016 5.15244
#
# Compressibility (1/GPa) = 0.03453945
#
# Stress axis : x y z
#
# Youngs Moduli (GPa) = 83.68374 69.83574 52.20644
#
# Poissons Ratio (x) = 0.29153 0.12958
# Poissons Ratio (y) = 0.34934 -0.06340
# Poissons Ratio (z) = 0.20770 -0.08481
#
# Static dielectric constant tensor:
#      x y z
#    x 1.882260 0.000000 -0.039940 
#    y 0.000000 1.866950 0.000000 
#    z -0.039940 0.000000 1.917830 
# 
# From -- ./inp_files/144249.got.cif
#   From: 2010.05.17/outbox.cif.g08.bks.cpg/sg15_73_cif.got.tgz:144249.got - 2010.06.03 18:47:42.
