data_PCOD9282058
_publ_section_title
;
Structure prediction by ZEFSAII (Michael W. Deem and Ramdas Pophale) SiO2 
 PCOD9282058
Probable space group: C 2/C
;
_chemical_formula_sum "Si O2"
_cell_formula_units_Z 40
_cell_length_a 13.933721
_cell_length_b 15.641798
_cell_length_c 9.444159
_cell_angle_alpha 90.000000
_cell_angle_beta 55.205574
_cell_angle_gamma 90.000000
_cell_volume 1690.318381
_symmetry_space_group_name_H-M "C 2/C"
_symmetry_group_IT_number 15
_symmetry_cell_setting 'monoclinic'
loop_
_space_group_symop_operation_xyz
x,y,z
-x,y,1/2-z
-x,-y,-z
x,-y,1/2+z
1/2+x,1/2+y,z
1/2-x,1/2+y,1/2-z
1/2-x,1/2-y,-z
1/2+x,1/2-y,1/2+z
loop_
_atom_site_type_symbol
_atom_site_label
_atom_site_fract_x
_atom_site_fract_y
_atom_site_fract_z
Si Si1 0.624061 0.637054 0.621324
Si Si2 0.112151 0.467828 0.485074
Si Si3 0.918208 0.275687 0.084366
Si Si4 0.750139 0.025896 0.599403
Si Si5 0.169177 0.202550 0.898341
O O1 0.500000 0.592884 0.750000
O O2 0.606842 0.704377 0.511785
O O3 0.705723 0.563375 0.497279
O O4 0.657496 0.682970 0.738917
O O5 0.091766 0.365269 0.494201
O O6 0.220733 0.484190 0.288213
O O7 0.000000 0.500000 0.500000
O O8 0.867451 0.526561 0.894815
O O9 0.051556 0.257933 0.027620
O O10 0.807557 0.269488 0.287895
O O11 0.828506 0.110701 0.523225
#
# Coordination Sequence:
#
# PCOD9282058 Si02
#       5
#     8   8   8   8   8
#     4  10  21  38  69 100 132 175 240 285 337 407
#     4  11  25  42  71  98 137 182 233 285 345 416
#     4  10  22  40  68 103 132 181 241 289 331 414
#     4  11  22  44  66 102 136 176 230 287 350 410
#     4  10  22  41  68 105 134 177 240 290 340 407
#
# _framework density 23.664180000000002
#
# number of rings (size 3 to 8) (size 9 to 14) (size 15 to 20)
#    0.000    1.600    4.000    1.200    2.800    6.400 
#    0.000    1.000    8.800    0.000    0.000    0.000 
#    0.000    0.000    0.000    0.000    0.000    0.000 
#
# Total GULP energy -111433.369382 kJ/mol
# GULP energy per Si atom -5571.668469 kJ/mol
# Density = 2.361032 g / cm^3
# Si number density = 23.664180 Si / 1000 Ang^3
#
#
#
# Elastic Constant Matrix: (Units=GPa)
#
#
# Indices 1 2 3 4 5 6 
#
# 1 101.5201 30.8210 22.4203 0.0000 -11.3757 0.0000
# 2 30.8210 59.3702 19.4672 0.0000 -11.5007 0.0000
# 3 22.4203 19.4672 68.6222 0.0000 -20.9815 0.0000
# 4 0.0000 0.0000 0.0000 -3.4725 0.0000 -4.1412
# 5 -11.3757 -11.5007 -20.9815 0.0000 40.7803 0.0000
# 6 0.0000 0.0000 0.0000 -4.1412 0.0000 45.4084
#
#
#
# Elastic Compliance Matrix: (Units=1/GPa)
#
#
# Indices 1 2 3 4 5 6 
#
# 1 0.012053 -0.005402 -0.002188 0.000000 0.000713 0.000000
# 2 -0.005402 0.021306 -0.003445 0.000000 0.002729 0.000000
# 3 -0.002188 -0.003445 0.018727 0.000000 0.008053 0.000000
# 4 0.000000 0.000000 0.000000 -0.259729 0.000000 -0.023687
# 5 0.000713 0.002729 0.008053 0.000000 0.029634 0.000000
# 6 0.000000 0.000000 0.000000 -0.023687 0.000000 0.019862
#
#
# Mechanical properties :
#
#
# Convention : Reuss Voigt Hill
#
# Bulk Modulus (GPa) = 33.31352 41.65882 37.48617
# Shear Modulus (GPa) = -39.65960 26.99684 -6.33138
#
# Velocity S-wave (km/s) = -4.09826 3.38128 -1.63747
# Velocity P-wave (km/s) = 2.87856 5.73467 3.50716
#
# Compressibility (1/GPa) = 0.03001784
#
# Stress axis : x y z
#
# Youngs Moduli (GPa) = 82.96516 46.93519 53.39931
#
# Poissons Ratio (x) = 0.25353 0.11681
# Poissons Ratio (y) = 0.44816 0.18395
# Poissons Ratio (z) = 0.18149 0.16168
#
# Static dielectric constant tensor:
#      x y z
#    x 2.076020 0.000000 -0.163920 
#    y 0.000000 1.884110 0.000000 
#    z -0.163920 0.000000 1.922330 
# 
# From -- ./inp_files/97682.got.cif
#   From: 2010.05.17/outbox.cif.g08.bks.cpg/sg15_49_cif.got.tgz:97682.got - 2010.06.03 18:47:42.
