data_PCOD9282280
_publ_section_title
;
Structure prediction by ZEFSAII (Michael W. Deem and Ramdas Pophale) SiO2 
 PCOD9282280
Probable space group: C 2/C
;
_chemical_formula_sum "Si O2"
_cell_formula_units_Z 44
_cell_length_a 8.067751
_cell_length_b 30.446089
_cell_length_c 8.001186
_cell_angle_alpha 90.000000
_cell_angle_beta 101.577023
_cell_angle_gamma 90.000000
_cell_volume 1925.359723
_symmetry_space_group_name_H-M "C 2/C"
_symmetry_group_IT_number 15
_symmetry_cell_setting 'monoclinic'
loop_
_space_group_symop_operation_xyz
x,y,z
-x,y,1/2-z
-x,-y,-z
x,-y,1/2+z
1/2+x,1/2+y,z
1/2-x,1/2+y,1/2-z
1/2-x,1/2-y,-z
1/2+x,1/2-y,1/2+z
loop_
_atom_site_type_symbol
_atom_site_label
_atom_site_fract_x
_atom_site_fract_y
_atom_site_fract_z
Si Si1 0.947402 0.763001 0.044334
Si Si2 0.046641 0.670640 0.575208
Si Si3 0.895192 0.141991 0.483153
Si Si4 0.642052 0.563427 0.563082
Si Si5 0.000000 0.001734 0.250000
Si Si6 0.143417 0.398988 0.667606
O O1 0.000000 0.764091 0.250000
O O2 0.750000 0.750000 0.000000
O O3 0.015803 0.720889 0.959645
O O4 0.978194 0.810312 0.967189
O O5 0.241987 0.656850 0.576503
O O6 0.000000 0.655980 0.750000
O O7 0.944335 0.644754 0.415576
O O8 0.802178 0.117045 0.310806
O O9 0.036670 0.107928 0.572774
O O10 0.538742 0.533835 0.409568
O O11 0.648835 0.532315 0.726753
O O12 0.805169 0.575108 0.488008
O O13 0.000000 0.422457 0.750000
#
# Coordination Sequence:
#
# PCOD9282280 Si02
#       6
#     8   8   8   8   4   8
#     4  10  21  39  60  91 130 175 219 265 314 380
#     4  10  22  37  59  91 131 167 209 262 309 370
#     4  10  21  39  64  89 124 170 213 250 317 386
#     4  11  22  42  66  91 121 159 205 260 322 379
#     4  10  24  40  66  92 122 150 210 266 320 384
#     4  10  21  41  64  89 128 169 206 257 319 379
#
# _framework density 22.852874
#
# number of rings (size 3 to 8) (size 9 to 14) (size 15 to 20)
#    0.000    1.818    1.818    2.727    3.818    2.909 
#    0.000    6.364    0.000    0.000    0.000    0.000 
#    0.000    0.000    0.000    0.000    0.000    0.000 
#
# Total GULP energy -122678.545740 kJ/mol
# GULP energy per Si atom -5576.297534 kJ/mol
# Density = 2.280086 g / cm^3
# Si number density = 22.852874 Si / 1000 Ang^3
#
#
#
# Elastic Constant Matrix: (Units=GPa)
#
#
# Indices 1 2 3 4 5 6 
#
# 1 55.1964 34.0663 19.6439 0.0000 -13.2131 0.0000
# 2 34.0663 129.3208 12.2031 0.0000 -21.3216 0.0000
# 3 19.6439 12.2031 83.0827 0.0000 -13.0326 0.0000
# 4 0.0000 0.0000 0.0000 11.3192 0.0000 -15.4784
# 5 -13.2131 -21.3216 -13.0326 0.0000 42.6447 0.0000
# 6 0.0000 0.0000 0.0000 -15.4784 0.0000 18.4126
#
#
#
# Elastic Compliance Matrix: (Units=1/GPa)
#
#
# Indices 1 2 3 4 5 6 
#
# 1 0.023721 -0.005283 -0.004300 0.000000 0.003394 0.000000
# 2 -0.005283 0.009633 0.000350 0.000000 0.003286 0.000000
# 3 -0.004300 0.000350 0.013465 0.000000 0.002958 0.000000
# 4 0.000000 0.000000 0.000000 -0.590789 0.000000 -0.496644
# 5 0.003394 0.003286 0.002958 0.000000 0.027048 0.000000
# 6 0.000000 0.000000 0.000000 -0.496644 0.000000 -0.363190
#
#
# Mechanical properties :
#
#
# Convention : Reuss Voigt Hill
#
# Bulk Modulus (GPa) = 35.27055 44.38072 39.82564
# Shear Modulus (GPa) = -5.86721 27.92108 11.02693
#
# Velocity S-wave (km/s) = -1.60404 3.49918 2.19901
# Velocity P-wave (km/s) = 3.46939 5.98231 4.89003
#
# Compressibility (1/GPa) = 0.02835226
#
# Stress axis : x y z
#
# Youngs Moduli (GPa) = 42.15728 103.80672 74.26395
#
# Poissons Ratio (x) = 0.54844 0.31934
# Poissons Ratio (y) = 0.22273 -0.02597
# Poissons Ratio (z) = 0.18128 -0.03631
#
# Static dielectric constant tensor:
#      x y z
#    x 1.938240 0.000000 -0.084270 
#    y 0.000000 1.920280 0.000000 
#    z -0.084270 0.000000 1.934960 
# 
# From -- ./inp_files/25610.got.cif
#   From: 2010.05.17/outbox.cif.g08.bks.cpg/sg15_13_cif.got.tgz:25610.got - 2010.06.03 18:47:42.
