data_PCOD9282473
_publ_section_title
;
Structure prediction by ZEFSAII (Michael W. Deem and Ramdas Pophale) SiO2 
 PCOD9282473
Probable space group: C 2/C
;
_chemical_formula_sum "Si O2"
_cell_formula_units_Z 52
_cell_length_a 7.056683
_cell_length_b 14.032678
_cell_length_c 27.699662
_cell_angle_alpha 90.000000
_cell_angle_beta 69.738818
_cell_angle_gamma 90.000000
_cell_volume 2573.213242
_symmetry_space_group_name_H-M "C 2/C"
_symmetry_group_IT_number 15
_symmetry_cell_setting 'monoclinic'
loop_
_space_group_symop_operation_xyz
x,y,z
-x,y,1/2-z
-x,-y,-z
x,-y,1/2+z
1/2+x,1/2+y,z
1/2-x,1/2+y,1/2-z
1/2-x,1/2-y,-z
1/2+x,1/2-y,1/2+z
loop_
_atom_site_type_symbol
_atom_site_label
_atom_site_fract_x
_atom_site_fract_y
_atom_site_fract_z
Si Si1 0.451912 0.388557 0.504965
Si Si2 0.285374 0.884590 0.823633
Si Si3 0.631807 0.344800 0.588984
Si Si4 0.737661 0.131638 0.597607
Si Si5 0.953556 0.433649 0.911497
Si Si6 0.717091 0.914174 0.211432
Si Si7 0.500000 0.716268 0.750000
O O1 0.500000 0.500000 0.500000
O O2 0.589078 0.347437 0.535715
O O3 0.541017 0.356096 0.446183
O O4 0.219288 0.380253 0.541338
O O5 0.431730 0.902920 0.857079
O O6 0.350874 0.787110 0.792302
O O7 0.064741 0.885320 0.867102
O O8 0.281834 0.970859 0.785514
O O9 0.642715 0.234909 0.602237
O O10 0.829703 0.404284 0.586808
O O11 0.747393 0.103868 0.652258
O O12 0.609463 0.046151 0.583379
O O13 0.500000 0.881707 0.250000
O O14 0.881068 0.853786 0.225138
#
# Coordination Sequence:
#
# PCOD9282473 Si02
#       7
#     8   8   8   8   8   8   4
#     4   9  20  39  59  89 129 163 205 265 310 369
#     4  10  23  42  62  92 131 155 208 273 308 379
#     4  11  21  38  64  94 119 171 209 244 327 386
#     4  10  21  39  62  91 128 159 212 267 306 383
#     4   9  21  40  63  88 128 165 202 262 319 369
#     4  11  24  44  64  93 125 163 214 264 322 383
#     4  12  24  44  70  90 124 174 210 264 334 376
#
# _framework density 20.208196000000001
#
# number of rings (size 3 to 8) (size 9 to 14) (size 15 to 20)
#    0.000    1.846    0.769    3.231    0.000    6.769 
#    4.154   10.769    0.000    0.000    0.000    0.000 
#    0.000    0.000    0.000    0.000    0.000    0.000 
#
# Total GULP energy -145065.017349 kJ/mol
# GULP energy per Si atom -5579.423744 kJ/mol
# Density = 2.016220 g / cm^3
# Si number density = 20.208196 Si / 1000 Ang^3
#
#
#
# Elastic Constant Matrix: (Units=GPa)
#
#
# Indices 1 2 3 4 5 6 
#
# 1 97.2059 28.5854 46.1958 0.0000 -14.8226 0.0000
# 2 28.5854 89.7638 23.5745 0.0000 2.7159 0.0000
# 3 46.1958 23.5745 99.4959 0.0000 -6.2843 0.0000
# 4 0.0000 0.0000 0.0000 45.8105 0.0000 6.1198
# 5 -14.8226 2.7159 -6.2843 0.0000 8.7957 0.0000
# 6 0.0000 0.0000 0.0000 6.1198 0.0000 15.2305
#
#
#
# Elastic Compliance Matrix: (Units=1/GPa)
#
#
# Indices 1 2 3 4 5 6 
#
# 1 0.019195 -0.005520 -0.005711 0.000000 0.029971 0.000000
# 2 -0.005520 0.013771 -0.001630 0.000000 -0.014718 0.000000
# 3 -0.005711 -0.001630 0.013104 0.000000 0.000241 0.000000
# 4 0.000000 0.000000 0.000000 0.023067 0.000000 -0.009269
# 5 0.029971 -0.014718 0.000241 0.000000 0.168916 0.000000
# 6 0.000000 0.000000 0.000000 -0.009269 0.000000 0.069382
#
#
# Mechanical properties :
#
#
# Convention : Reuss Voigt Hill
#
# Bulk Modulus (GPa) = 49.14336 53.68633 51.41485
# Shear Modulus (GPa) = 14.70848 26.50800 20.60824
#
# Velocity S-wave (km/s) = 2.70079 3.62573 3.19689
# Velocity P-wave (km/s) = 5.83927 6.64471 6.25497
#
# Compressibility (1/GPa) = 0.02034863
#
# Stress axis : x y z
#
# Youngs Moduli (GPa) = 52.09665 72.61420 76.31327
#
# Poissons Ratio (x) = 0.40079 0.43586
# Poissons Ratio (y) = 0.28755 0.12438
# Poissons Ratio (z) = 0.29755 0.11835
#
# Static dielectric constant tensor:
#      x y z
#    x 1.770700 0.000000 0.041470 
#    y 0.000000 1.752930 0.000000 
#    z 0.041470 0.000000 1.797460 
# 
# From -- ./inp_files/305354.got.cif
#   From: 2010.05.17/outbox.cif.g08.bks.cpg/sg15_153_cif.got.tgz:305354.got - 2010.06.03 18:47:42.
