data_PCOD9282975
_publ_section_title
;
Structure prediction by ZEFSAII (Michael W. Deem and Ramdas Pophale) SiO2 
 PCOD9282975
Probable space group: C 2/C
;
_chemical_formula_sum "Si O2"
_cell_formula_units_Z 52
_cell_length_a 26.629359
_cell_length_b 10.260911
_cell_length_c 11.303306
_cell_angle_alpha 90.000000
_cell_angle_beta 48.235326
_cell_angle_gamma 90.000000
_cell_volume 2303.695355
_symmetry_space_group_name_H-M "C 2/C"
_symmetry_group_IT_number 15
_symmetry_cell_setting 'monoclinic'
loop_
_space_group_symop_operation_xyz
x,y,z
-x,y,1/2-z
-x,-y,-z
x,-y,1/2+z
1/2+x,1/2+y,z
1/2-x,1/2+y,1/2-z
1/2-x,1/2-y,-z
1/2+x,1/2-y,1/2+z
loop_
_atom_site_type_symbol
_atom_site_label
_atom_site_fract_x
_atom_site_fract_y
_atom_site_fract_z
Si Si1 0.314656 0.674570 0.064892
Si Si2 0.000000 0.583676 0.250000
Si Si3 0.834903 0.730148 0.277730
Si Si4 0.016469 0.651704 0.472239
Si Si5 0.909647 0.345649 0.321645
Si Si6 0.159880 0.101380 0.934784
Si Si7 0.294709 0.822051 0.330679
O O1 0.232740 0.667842 0.171176
O O2 0.358419 0.542321 0.994347
O O3 0.324687 0.732280 0.180002
O O4 0.332876 0.760772 0.922171
O O5 0.002676 0.678214 0.132957
O O6 0.937905 0.477868 0.338853
O O7 0.904861 0.666451 0.133620
O O8 0.839945 0.872044 0.205977
O O9 0.971942 0.711210 0.646529
O O10 0.000000 0.500000 0.500000
O O11 0.877444 0.225475 0.446222
O O12 0.853320 0.388022 0.314043
O O13 0.238256 0.100398 0.848979
O O14 0.250000 0.750000 0.500000
#
# Coordination Sequence:
#
# PCOD9282975 Si02
#       7
#     8   4   8   8   8   8   8
#     4  10  23  41  66  96 128 172 210 269 332 376
#     4  10  22  38  64  98 124 172 212 266 330 370
#     4  10  23  43  62  97 132 162 222 273 308 394
#     4  10  22  39  64  92 127 171 211 267 324 371
#     4  10  21  40  61  94 129 163 219 263 314 393
#     4  10  21  39  66  89 130 173 209 262 327 379
#     4   9  21  39  61  94 129 162 212 264 307 394
#
# _framework density 22.572431000000002
#
# number of rings (size 3 to 8) (size 9 to 14) (size 15 to 20)
#    0.000    2.154    0.000    1.846   10.769    0.000 
#    0.000    0.769    6.769    0.000    0.000    0.000 
#    0.000    0.000    0.000    0.000    0.000    0.000 
#
# Total GULP energy -144788.779113 kJ/mol
# GULP energy per Si atom -5568.799197 kJ/mol
# Density = 2.252105 g / cm^3
# Si number density = 22.572431 Si / 1000 Ang^3
#
#
#
# Elastic Constant Matrix: (Units=GPa)
#
#
# Indices 1 2 3 4 5 6 
#
# 1 104.0091 20.6999 33.8740 0.0000 -4.7993 0.0000
# 2 20.6999 59.9395 17.7351 0.0000 2.5385 0.0000
# 3 33.8740 17.7351 102.5898 0.0000 3.8940 0.0000
# 4 0.0000 0.0000 0.0000 9.6448 0.0000 -3.3036
# 5 -4.7993 2.5385 3.8940 0.0000 49.4836 0.0000
# 6 0.0000 0.0000 0.0000 -3.3036 0.0000 16.5673
#
#
#
# Elastic Compliance Matrix: (Units=1/GPa)
#
#
# Indices 1 2 3 4 5 6 
#
# 1 0.011354 -0.003013 -0.003286 0.000000 0.001514 0.000000
# 2 -0.003013 0.018404 -0.002146 0.000000 -0.001067 0.000000
# 3 -0.003286 -0.002146 0.011245 0.000000 -0.001093 0.000000
# 4 0.000000 0.000000 0.000000 0.111283 0.000000 0.022191
# 5 0.001514 -0.001067 -0.001093 0.000000 0.020496 0.000000
# 6 0.000000 0.000000 0.000000 0.022191 0.000000 0.064785
#
#
# Mechanical properties :
#
#
# Convention : Reuss Voigt Hill
#
# Bulk Modulus (GPa) = 41.47044 45.68406 43.57725
# Shear Modulus (GPa) = 19.04793 28.08778 23.56786
#
# Velocity S-wave (km/s) = 2.90808 3.53135 3.23476
# Velocity P-wave (km/s) = 5.44866 6.07536 5.77053
#
# Compressibility (1/GPa) = 0.02411356
#
# Stress axis : x y z
#
# Youngs Moduli (GPa) = 88.07349 54.33521 88.92876
#
# Poissons Ratio (x) = 0.16372 0.29219
# Poissons Ratio (y) = 0.26537 0.19086
# Poissons Ratio (z) = 0.28938 0.11661
#
# Static dielectric constant tensor:
#      x y z
#    x 1.979140 0.000000 0.122020 
#    y 0.000000 1.850720 0.000000 
#    z 0.122020 0.000000 2.043480 
# 
# From -- ./inp_files/110932.got.cif
#   From: 2010.05.17/outbox.cif.g08.bks.cpg/sg15_56_cif.got.tgz:110932.got - 2010.06.03 18:47:42.
