data_PCOD9282763
_publ_section_title
;
Structure prediction by ZEFSAII (Michael W. Deem and Ramdas Pophale) SiO2 
 PCOD9282763
Probable space group: C 2/C
;
_chemical_formula_sum "Si O2"
_cell_formula_units_Z 60
_cell_length_a 13.608529
_cell_length_b 13.855224
_cell_length_c 14.122548
_cell_angle_alpha 90.000000
_cell_angle_beta 118.158903
_cell_angle_gamma 90.000000
_cell_volume 2347.632708
_symmetry_space_group_name_H-M "C 2/C"
_symmetry_group_IT_number 15
_symmetry_cell_setting 'monoclinic'
loop_
_space_group_symop_operation_xyz
x,y,z
-x,y,1/2-z
-x,-y,-z
x,-y,1/2+z
1/2+x,1/2+y,z
1/2-x,1/2+y,1/2-z
1/2-x,1/2-y,-z
1/2+x,1/2-y,1/2+z
loop_
_atom_site_type_symbol
_atom_site_label
_atom_site_fract_x
_atom_site_fract_y
_atom_site_fract_z
Si Si1 0.364002 0.749040 0.492907
Si Si2 0.167549 0.768204 0.052848
Si Si3 0.051540 0.608034 0.913419
Si Si4 0.237700 0.470151 0.365598
Si Si5 0.210450 0.848636 0.735278
Si Si6 0.348410 0.056323 0.916323
Si Si7 0.128851 0.928477 0.408897
Si Si8 0.000000 0.084662 0.250000
O O1 0.250000 0.750000 0.500000
O O2 0.329401 0.711788 0.373573
O O3 0.400700 0.859287 0.507769
O O4 0.430856 0.668238 0.581788
O O5 0.178714 0.878194 0.091687
O O6 0.201318 0.708424 0.161226
O O7 0.250000 0.750000 0.000000
O O8 0.060672 0.718884 0.954168
O O9 0.122605 0.577247 0.853859
O O10 0.923119 0.576483 0.858374
O O11 0.116935 0.544521 0.022739
O O12 0.246000 0.546253 0.281918
O O13 0.287371 0.537808 0.471252
O O14 0.104744 0.859450 0.756930
O O15 0.216152 0.077625 0.860556
O O16 0.043429 0.013094 0.350867
#
# Coordination Sequence:
#
# PCOD9282763 Si02
#       8
#     8   8   8   8   8   8   8   4
#     4   9  20  39  63  89 128 170 206 260 325 386
#     4  10  21  39  64  93 128 169 215 269 328 391
#     4   9  18  34  62  88 117 164 207 256 322 382
#     4   9  20  39  61  89 129 166 208 266 327 389
#     4  11  24  38  60  94 127 166 217 268 322 390
#     4   9  17  34  60  88 119 160 208 254 310 381
#     4   9  20  39  61  88 123 165 210 265 325 384
#     4  12  24  38  60  90 126 168 222 276 324 384
#
# _framework density 25.557662000000001
#
# number of rings (size 3 to 8) (size 9 to 14) (size 15 to 20)
#    0.000    2.400    0.000    3.200    0.000    9.600 
#    0.000    0.000    0.000   39.200    0.000    0.000 
#    0.000    0.000    0.000    0.000    0.000    0.000 
#
# Total GULP energy -167380.917990 kJ/mol
# GULP energy per Si atom -5579.363933 kJ/mol
# Density = 2.549949 g / cm^3
# Si number density = 25.557662 Si / 1000 Ang^3
#
#
#
# Elastic Constant Matrix: (Units=GPa)
#
#
# Indices 1 2 3 4 5 6 
#
# 1 72.7457 21.2603 11.5240 0.0000 1.7640 0.0000
# 2 21.2603 147.3886 35.7142 0.0000 -11.6449 0.0000
# 3 11.5240 35.7142 92.1512 0.0000 -25.8599 0.0000
# 4 0.0000 0.0000 0.0000 44.4057 0.0000 -13.7132
# 5 1.7640 -11.6449 -25.8599 0.0000 22.2119 0.0000
# 6 0.0000 0.0000 0.0000 -13.7132 0.0000 25.9064
#
#
#
# Elastic Compliance Matrix: (Units=1/GPa)
#
#
# Indices 1 2 3 4 5 6 
#
# 1 0.014841 -0.001929 -0.002559 0.000000 -0.005169 0.000000
# 2 -0.001929 0.007749 -0.002345 0.000000 0.001485 0.000000
# 3 -0.002559 -0.002345 0.017515 0.000000 0.019365 0.000000
# 4 0.000000 0.000000 0.000000 0.026920 0.000000 0.014250
# 5 -0.005169 0.001485 0.019365 0.000000 0.068756 0.000000
# 6 0.000000 0.000000 0.000000 0.014250 0.000000 0.046144
#
#
# Mechanical properties :
#
#
# Convention : Reuss Voigt Hill
#
# Bulk Modulus (GPa) = 37.82341 49.92029 43.87185
# Shear Modulus (GPa) = 24.46142 34.75726 29.60934
#
# Velocity S-wave (km/s) = 3.09707 3.69176 3.40741
# Velocity P-wave (km/s) = 5.25552 6.14385 5.71697
#
# Compressibility (1/GPa) = 0.02643865
#
# Stress axis : x y z
#
# Youngs Moduli (GPa) = 67.38078 129.05499 57.09398
#
# Poissons Ratio (x) = 0.24896 0.14610
# Poissons Ratio (y) = 0.12999 0.13388
# Poissons Ratio (z) = 0.17242 0.30263
#
# Static dielectric constant tensor:
#      x y z
#    x 2.146570 0.000000 -0.049950 
#    y 0.000000 2.079010 0.000000 
#    z -0.049950 0.000000 2.061590 
# 
# From -- ./inp_files/154043.got.cif
#   From: 2010.05.17/outbox.cif.g08.bks.cpg/sg15_78_cif.got.tgz:154043.got - 2010.06.03 18:47:42.
