data_PCOD9282444
_publ_section_title
;
Structure prediction by ZEFSAII (Michael W. Deem and Ramdas Pophale) SiO2 
 PCOD9282444
Probable space group: C 2/C
;
_chemical_formula_sum "Si O2"
_cell_formula_units_Z 56
_cell_length_a 11.594267
_cell_length_b 8.555411
_cell_length_c 26.988100
_cell_angle_alpha 90.000000
_cell_angle_beta 56.126476
_cell_angle_gamma 90.000000
_cell_volume 2222.674124
_symmetry_space_group_name_H-M "C 2/C"
_symmetry_group_IT_number 15
_symmetry_cell_setting 'monoclinic'
loop_
_space_group_symop_operation_xyz
x,y,z
-x,y,1/2-z
-x,-y,-z
x,-y,1/2+z
1/2+x,1/2+y,z
1/2-x,1/2+y,1/2-z
1/2-x,1/2-y,-z
1/2+x,1/2-y,1/2+z
loop_
_atom_site_type_symbol
_atom_site_label
_atom_site_fract_x
_atom_site_fract_y
_atom_site_fract_z
Si Si1 0.069559 0.623381 0.641986
Si Si2 0.259140 0.134813 0.720733
Si Si3 0.626573 0.873129 0.021270
Si Si4 0.296706 0.629451 0.944750
Si Si5 0.168300 0.797133 0.702724
Si Si6 0.835407 0.661259 0.339672
Si Si7 0.966759 0.927019 0.560920
O O1 0.116021 0.554206 0.578520
O O2 0.171649 0.747249 0.644035
O O3 0.052623 0.474309 0.681236
O O4 0.916302 0.688866 0.670064
O O5 0.257584 0.168871 0.779672
O O6 0.163469 0.249528 0.712095
O O7 0.227880 0.962140 0.707490
O O8 0.499583 0.756744 0.044897
O O9 0.750000 0.750000 0.000000
O O10 0.670851 0.003439 0.972100
O O11 0.335505 0.715215 0.884760
O O12 0.428522 0.522220 0.928853
O O13 0.250000 0.750000 0.000000
O O14 0.000000 0.798895 0.750000
O O15 0.690453 0.568102 0.383435
O O16 0.000000 0.000000 0.500000
#
# Coordination Sequence:
#
# PCOD9282444 Si02
#       7
#     8   8   8   8   8   8   8
#     4  11  23  44  64  98 134 170 215 274 321 392
#     4  11  25  45  70 100 125 169 218 270 343 398
#     4  10  21  39  62  89 140 178 217 265 323 377
#     4  11  22  39  59  91 130 179 225 265 309 385
#     4  10  25  46  72  95 130 163 215 278 338 398
#     4  12  24  40  64  95 134 170 222 268 320 392
#     4  11  22  40  59  89 133 181 221 268 318 377
#
# _framework density 25.194876000000001
#
# number of rings (size 3 to 8) (size 9 to 14) (size 15 to 20)
#    0.000    1.143    4.286    1.714    4.000    2.857 
#    2.571    0.000    0.000    0.000    0.000    0.000 
#    0.000    0.000    0.000    0.000    0.000    0.000 
#
# Total GULP energy -156502.529615 kJ/mol
# GULP energy per Si atom -5589.376058 kJ/mol
# Density = 2.513753 g / cm^3
# Si number density = 25.194876 Si / 1000 Ang^3
#
#
#
# Elastic Constant Matrix: (Units=GPa)
#
#
# Indices 1 2 3 4 5 6 
#
# 1 89.8981 42.2248 16.5821 0.0000 24.3418 0.0000
# 2 42.2248 121.8158 14.4428 0.0000 22.8623 0.0000
# 3 16.5821 14.4428 55.1417 0.0000 25.0750 0.0000
# 4 0.0000 0.0000 0.0000 43.1553 0.0000 11.5161
# 5 24.3418 22.8623 25.0750 0.0000 32.3212 0.0000
# 6 0.0000 0.0000 0.0000 11.5161 0.0000 61.7338
#
#
#
# Elastic Compliance Matrix: (Units=1/GPa)
#
#
# Indices 1 2 3 4 5 6 
#
# 1 0.015248 -0.003589 0.000652 0.000000 -0.009451 0.000000
# 2 -0.003589 0.010338 0.000723 0.000000 -0.005170 0.000000
# 3 0.000652 0.000723 0.028129 0.000000 -0.022825 0.000000
# 4 0.000000 0.000000 0.000000 0.024386 0.000000 -0.004549
# 5 -0.009451 -0.005170 -0.022825 0.000000 0.059423 0.000000
# 6 0.000000 0.000000 0.000000 -0.004549 0.000000 0.017047
#
#
# Mechanical properties :
#
#
# Convention : Reuss Voigt Hill
#
# Bulk Modulus (GPa) = 20.28916 45.92833 33.10875
# Shear Modulus (GPa) = 28.50171 40.34910 34.42541
#
# Velocity S-wave (km/s) = 3.36706 4.00619 3.70045
# Velocity P-wave (km/s) = 4.81523 6.29827 5.60601
#
# Compressibility (1/GPa) = 0.04928740
#
# Stress axis : x y z
#
# Youngs Moduli (GPa) = 65.58137 96.73224 35.55028
#
# Poissons Ratio (x) = 0.34717 -0.02320
# Poissons Ratio (y) = 0.23537 -0.02569
# Poissons Ratio (z) = -0.04279 -0.06990
#
# Static dielectric constant tensor:
#      x y z
#    x 1.790570 0.000000 -0.052850 
#    y 0.000000 1.767730 0.000000 
#    z -0.052850 0.000000 2.044490 
# 
# From -- ./inp_files/309935.got.cif
#   From: 2010.05.17/outbox.cif.g08.bks.cpg/sg15_155_cif.got.tgz:309935.got - 2010.06.03 18:47:42.
