data_PCOD9282035
_publ_section_title
;
Structure prediction by ZEFSAII (Michael W. Deem and Ramdas Pophale) SiO2 
 PCOD9282035
Probable space group: C 2/C
;
_chemical_formula_sum "Si O2"
_cell_formula_units_Z 56
_cell_length_a 29.158187
_cell_length_b 5.401665
_cell_length_c 14.614650
_cell_angle_alpha 90.000000
_cell_angle_beta 103.688993
_cell_angle_gamma 90.000000
_cell_volume 2236.462782
_symmetry_space_group_name_H-M "C 2/C"
_symmetry_group_IT_number 15
_symmetry_cell_setting 'monoclinic'
loop_
_space_group_symop_operation_xyz
x,y,z
-x,y,1/2-z
-x,-y,-z
x,-y,1/2+z
1/2+x,1/2+y,z
1/2-x,1/2+y,1/2-z
1/2-x,1/2-y,-z
1/2+x,1/2-y,1/2+z
loop_
_atom_site_type_symbol
_atom_site_label
_atom_site_fract_x
_atom_site_fract_y
_atom_site_fract_z
Si Si1 0.830010 0.379893 0.468497
Si Si2 0.328031 0.419768 0.782706
Si Si3 0.760273 0.221439 0.864210
Si Si4 0.078985 0.864213 0.215298
Si Si5 0.488768 0.260551 0.911947
Si Si6 0.000000 0.608509 0.250000
Si Si7 0.421309 0.100511 0.468511
Si Si8 0.750000 0.250000 0.500000
O O1 0.841639 0.225383 0.382936
O O2 0.779333 0.527699 0.425242
O O3 0.874296 0.554766 0.503803
O O4 0.809283 0.232277 0.543500
O O5 0.288778 0.275301 0.707443
O O6 0.300136 0.660911 0.807456
O O7 0.375216 0.471903 0.748830
O O8 0.755748 0.979732 0.924443
O O9 0.036390 0.015913 0.149036
O O10 0.050516 0.744622 0.284414
O O11 0.094193 0.679384 0.140836
O O12 0.493416 0.055810 0.835704
O O13 0.453842 0.142161 0.970612
O O14 0.541458 0.296699 0.973791
#
# Coordination Sequence:
#
# PCOD9282035 Si02
#       8
#     8   8   8   8   8   4   8   4
#     4  11  21  43  63  95 128 170 211 278 314 394
#     4  11  22  38  73  96 127 169 226 262 331 380
#     4  11  22  43  65  98 127 172 214 276 319 402
#     4  11  21  41  66  97 125 172 210 275 316 393
#     4  10  21  41  63  92 127 168 203 271 315 387
#     4  10  24  42  60  92 140 162 210 266 332 378
#     4  10  21  38  68  91 120 164 222 255 322 377
#     4  10  26  42  62  90 138 166 212 266 336 378
#
# _framework density 25.039542000000001
#
# number of rings (size 3 to 8) (size 9 to 14) (size 15 to 20)
#    0.000    1.429    4.286    1.286    0.000    0.000 
#    7.714    0.000    0.000    0.000    0.000    0.000 
#    0.000    0.000    0.000    0.000    0.000    0.000 
#
# Total GULP energy -156042.875216 kJ/mol
# GULP energy per Si atom -5572.959829 kJ/mol
# Density = 2.498255 g / cm^3
# Si number density = 25.039542 Si / 1000 Ang^3
#
#
#
# Elastic Constant Matrix: (Units=GPa)
#
#
# Indices 1 2 3 4 5 6 
#
# 1 203.8399 18.7393 20.0231 0.0000 4.4583 0.0000
# 2 18.7393 44.3400 1.9503 0.0000 -1.1213 0.0000
# 3 20.0231 1.9503 30.1104 0.0000 6.5974 0.0000
# 4 0.0000 0.0000 0.0000 22.2728 0.0000 -4.2231
# 5 4.4583 -1.1213 6.5974 0.0000 33.8179 0.0000
# 6 0.0000 0.0000 0.0000 -4.2231 0.0000 30.7122
#
#
#
# Elastic Compliance Matrix: (Units=1/GPa)
#
#
# Indices 1 2 3 4 5 6 
#
# 1 0.005446 -0.002152 -0.003457 0.000000 -0.000115 0.000000
# 2 -0.002152 0.023506 -0.000339 0.000000 0.001129 0.000000
# 3 -0.003457 -0.000339 0.037017 0.000000 -0.006777 0.000000
# 4 0.000000 0.000000 0.000000 0.046100 0.000000 0.006339
# 5 -0.000115 0.001129 -0.006777 0.000000 0.030945 0.000000
# 6 0.000000 0.000000 0.000000 0.006339 0.000000 0.033432
#
#
# Mechanical properties :
#
#
# Convention : Reuss Voigt Hill
#
# Bulk Modulus (GPa) = 18.49355 39.96841 29.23098
# Shear Modulus (GPa) = 24.22894 33.19910 28.71402
#
# Velocity S-wave (km/s) = 3.11405 3.64520 3.39004
# Velocity P-wave (km/s) = 4.50904 5.80632 5.19831
#
# Compressibility (1/GPa) = 0.05407291
#
# Stress axis : x y z
#
# Youngs Moduli (GPa) = 183.62936 42.54212 27.01491
#
# Poissons Ratio (x) = 0.09157 0.09338
# Poissons Ratio (y) = 0.39524 0.00915
# Poissons Ratio (z) = 0.63476 0.01441
#
# Static dielectric constant tensor:
#      x y z
#    x 1.747120 0.000000 0.268130 
#    y 0.000000 1.604680 0.000000 
#    z 0.268130 0.000000 1.758190 
# 
# From -- ./inp_files/221331.got.cif
#   From: 2010.05.17/outbox.cif.g08.bks.cpg/sg15_111_cif.got.tgz:221331.got - 2010.06.03 18:47:42.
