data_PCOD9282538
_publ_section_title
;
Structure prediction by ZEFSAII (Michael W. Deem and Ramdas Pophale) SiO2 
 PCOD9282538
Probable space group: C 2/C
;
_chemical_formula_sum "Si O2"
_cell_formula_units_Z 48
_cell_length_a 13.884018
_cell_length_b 31.604546
_cell_length_c 5.229908
_cell_angle_alpha 90.000000
_cell_angle_beta 87.162211
_cell_angle_gamma 90.000000
_cell_volume 2292.059418
_symmetry_space_group_name_H-M "C 2/C"
_symmetry_group_IT_number 15
_symmetry_cell_setting 'monoclinic'
loop_
_space_group_symop_operation_xyz
x,y,z
-x,y,1/2-z
-x,-y,-z
x,-y,1/2+z
1/2+x,1/2+y,z
1/2-x,1/2+y,1/2-z
1/2-x,1/2-y,-z
1/2+x,1/2-y,1/2+z
loop_
_atom_site_type_symbol
_atom_site_label
_atom_site_fract_x
_atom_site_fract_y
_atom_site_fract_z
Si Si1 0.789186 0.593899 0.765058
Si Si2 0.610643 0.529449 0.754104
Si Si3 0.115534 0.736970 0.222498
Si Si4 0.885547 0.789867 0.779502
Si Si5 0.224519 0.648623 0.233591
Si Si6 0.391149 0.016375 0.561424
O O1 0.692113 0.565542 0.757191
O O2 0.786761 0.628312 0.541937
O O3 0.876672 0.562096 0.684430
O O4 0.799361 0.615853 0.037855
O O5 0.500000 0.546192 0.750000
O O6 0.621403 0.499786 0.503593
O O7 0.142206 0.768432 0.449233
O O8 0.161682 0.691276 0.256362
O O9 0.000000 0.732352 0.250000
O O10 0.141573 0.758474 0.949338
O O11 0.832650 0.834248 0.756431
O O12 0.000000 0.795108 0.750000
O O13 0.500000 0.000000 0.500000
O O14 0.345893 0.986218 0.785257
#
# Coordination Sequence:
#
# PCOD9282538 Si02
#       6
#     8   8   8   8   8   8
#     4  12  24  38  59  91 127 152 197 260 311 354
#     4  10  21  39  63  85 114 160 204 244 298 369
#     4  10  21  41  62  85 118 165 209 246 289 370
#     4  10  21  39  66  87 116 164 210 240 292 377
#     4  12  24  38  59  94 127 156 192 259 319 350
#     4  10  21  41  63  82 109 159 214 240 286 363
#
# _framework density 20.941865
#
# number of rings (size 3 to 8) (size 9 to 14) (size 15 to 20)
#    0.000    1.333    0.000    6.000    0.000    1.333 
#    9.000    0.000    0.000    0.000    0.000    0.000 
#    0.000    0.000    0.000    0.000    0.000    0.000 
#
# Total GULP energy -134155.923375 kJ/mol
# GULP energy per Si atom -5589.830141 kJ/mol
# Density = 2.089420 g / cm^3
# Si number density = 20.941865 Si / 1000 Ang^3
#
#
#
# Elastic Constant Matrix: (Units=GPa)
#
#
# Indices 1 2 3 4 5 6 
#
# 1 77.6569 12.0479 -4.0393 0.0000 -1.2493 0.0000
# 2 12.0479 63.2099 6.0293 0.0000 -6.1959 0.0000
# 3 -4.0393 6.0293 126.2553 0.0000 0.1377 0.0000
# 4 0.0000 0.0000 0.0000 46.4010 0.0000 2.5686
# 5 -1.2493 -6.1959 0.1377 0.0000 15.4383 0.0000
# 6 0.0000 0.0000 0.0000 2.5686 0.0000 18.4030
#
#
#
# Elastic Compliance Matrix: (Units=1/GPa)
#
#
# Indices 1 2 3 4 5 6 
#
# 1 0.013307 -0.002585 0.000549 0.000000 0.000034 0.000000
# 2 -0.002585 0.017050 -0.000904 0.000000 0.006642 0.000000
# 3 0.000549 -0.000904 0.007982 0.000000 -0.000390 0.000000
# 4 0.000000 0.000000 0.000000 0.021719 0.000000 -0.003031
# 5 0.000034 0.006642 -0.000390 0.000000 0.067446 0.000000
# 6 0.000000 0.000000 0.000000 -0.003031 0.000000 0.054762
#
#
# Mechanical properties :
#
#
# Convention : Reuss Voigt Hill
#
# Bulk Modulus (GPa) = 30.80860 32.79977 31.80418
# Shear Modulus (GPa) = 25.12984 32.92073 29.02528
#
# Velocity S-wave (km/s) = 3.46783 3.96915 3.72693
# Velocity P-wave (km/s) = 5.54778 6.05821 5.80860
#
# Compressibility (1/GPa) = 0.03245847
#
# Stress axis : x y z
#
# Youngs Moduli (GPa) = 75.14621 58.64981 125.28767
#
# Poissons Ratio (x) = 0.15164 -0.06881
# Poissons Ratio (y) = 0.19429 0.11328
# Poissons Ratio (z) = -0.04127 0.05303
#
# Static dielectric constant tensor:
#      x y z
#    x 1.841320 0.000000 0.041690 
#    y 0.000000 1.708600 0.000000 
#    z 0.041690 0.000000 1.783670 
# 
# From -- ./inp_files/8250.got.cif
#   From: 2010.05.17/outbox.cif.g08.bks.cpg/sg15_5_cif.got.tgz:8250.got - 2010.06.03 18:47:42.
