data_PCOD9282592
_publ_section_title
;
Structure prediction by ZEFSAII (Michael W. Deem and Ramdas Pophale) SiO2 
 PCOD9282592
Probable space group: C 2/C
;
_chemical_formula_sum "Si O2"
_cell_formula_units_Z 40
_cell_length_a 28.410249
_cell_length_b 10.123779
_cell_length_c 22.410348
_cell_angle_alpha 90.000000
_cell_angle_beta 18.905578
_cell_angle_gamma 90.000000
_cell_volume 2088.449944
_symmetry_space_group_name_H-M "C 2/C"
_symmetry_group_IT_number 15
_symmetry_cell_setting 'monoclinic'
loop_
_space_group_symop_operation_xyz
x,y,z
-x,y,1/2-z
-x,-y,-z
x,-y,1/2+z
1/2+x,1/2+y,z
1/2-x,1/2+y,1/2-z
1/2-x,1/2-y,-z
1/2+x,1/2-y,1/2+z
loop_
_atom_site_type_symbol
_atom_site_label
_atom_site_fract_x
_atom_site_fract_y
_atom_site_fract_z
Si Si1 0.340549 0.281353 0.951595
Si Si2 0.091002 0.490370 0.582805
Si Si3 0.118933 0.526131 0.776221
Si Si4 0.149071 0.657347 0.345351
Si Si5 0.332396 0.544914 0.704206
O O1 0.500000 0.338960 0.750000
O O2 0.371447 0.142952 0.947349
O O3 0.250000 0.250000 0.000000
O O4 0.250130 0.384731 0.097553
O O5 0.245625 0.438093 0.371504
O O6 0.000000 0.439732 0.750000
O O7 0.977758 0.482582 0.664123
O O8 0.166901 0.401883 0.757853
O O9 0.015683 0.621613 0.939196
O O10 0.247095 0.569006 0.271124
O O11 0.178936 0.811886 0.313038
O O12 0.500000 0.500000 0.500000
#
# Coordination Sequence:
#
# PCOD9282592 Si02
#       5
#     8   8   8   8   8
#     4  11  20  35  62  97 125 167 219 263 324 395
#     4  10  21  39  63  90 130 172 209 266 336 379
#     4  10  21  40  63  87 133 165 218 268 323 382
#     4  10  25  41  66  94 128 174 217 273 331 384
#     4  11  25  42  69  97 131 169 227 269 329 399
#
# _framework density 19.152961000000001
#
# number of rings (size 3 to 8) (size 9 to 14) (size 15 to 20)
#    0.000    1.600    4.000    1.200   14.000    1.600 
#    0.000    2.000    0.000    0.000    0.000    0.000 
#    0.000    0.000    0.000    0.000    0.000    0.000 
#
# Total GULP energy -111513.825435 kJ/mol
# GULP energy per Si atom -5575.691272 kJ/mol
# Density = 1.910937 g / cm^3
# Si number density = 19.152961 Si / 1000 Ang^3
#
#
#
# Elastic Constant Matrix: (Units=GPa)
#
#
# Indices 1 2 3 4 5 6 
#
# 1 80.5192 13.9247 34.3488 0.0001 7.6461 0.0000
# 2 13.9247 102.4857 47.3395 0.0002 4.2024 0.0000
# 3 34.3488 47.3395 166.3632 0.0004 2.9290 -0.0001
# 4 0.0001 0.0002 0.0004 26.8620 -0.0001 8.5142
# 5 7.6461 4.2024 2.9290 -0.0001 29.5215 0.0000
# 6 0.0000 0.0000 -0.0001 8.5142 0.0000 28.4985
#
#
#
# Elastic Compliance Matrix: (Units=1/GPa)
#
#
# Indices 1 2 3 4 5 6 
#
# 1 0.013963 -0.000527 -0.002675 0.000000 -0.003276 0.000000
# 2 -0.000527 0.011303 -0.003087 0.000000 -0.001166 0.000000
# 3 -0.002675 -0.003087 0.007435 0.000000 0.000395 0.000000
# 4 0.000000 0.000000 0.000000 0.041121 0.000000 -0.012285
# 5 -0.003276 -0.001166 0.000395 0.000000 0.034849 0.000000
# 6 0.000000 0.000000 0.000000 -0.012285 0.000000 0.038760
#
#
# Mechanical properties :
#
#
# Convention : Reuss Voigt Hill
#
# Bulk Modulus (GPa) = 49.69700 60.06603 54.88151
# Shear Modulus (GPa) = 29.99106 33.89340 31.94223
#
# Velocity S-wave (km/s) = 3.96140 4.21124 4.08823
# Velocity P-wave (km/s) = 6.85035 7.42128 7.14153
#
# Compressibility (1/GPa) = 0.02012194
#
# Stress axis : x y z
#
# Youngs Moduli (GPa) = 71.61857 88.47386 134.50353
#
# Poissons Ratio (x) = 0.04663 0.35983
# Poissons Ratio (y) = 0.03775 0.41520
# Poissons Ratio (z) = 0.19160 0.27311
#
# Static dielectric constant tensor:
#      x y z
#    x 1.709520 0.000000 0.040490 
#    y 0.000000 1.623820 0.000000 
#    z 0.040490 0.000000 1.674390 
# 
# From -- ./inp_files/109679.got.cif
#   From: 2010.05.17/outbox.cif.g08.bks.cpg/sg15_55_cif.got.tgz:109679.got - 2010.06.03 18:47:42.
