data_PCOD9282009
_publ_section_title
;
Structure prediction by ZEFSAII (Michael W. Deem and Ramdas Pophale) SiO2 
 PCOD9282009
Probable space group: C 2/C
;
_chemical_formula_sum "Si O2"
_cell_formula_units_Z 56
_cell_length_a 14.279505
_cell_length_b 27.342894
_cell_length_c 10.453404
_cell_angle_alpha 90.000000
_cell_angle_beta 136.870357
_cell_angle_gamma 90.000000
_cell_volume 2790.294884
_symmetry_space_group_name_H-M "C 2/C"
_symmetry_group_IT_number 15
_symmetry_cell_setting 'monoclinic'
loop_
_space_group_symop_operation_xyz
x,y,z
-x,y,1/2-z
-x,-y,-z
x,-y,1/2+z
1/2+x,1/2+y,z
1/2-x,1/2+y,1/2-z
1/2-x,1/2-y,-z
1/2+x,1/2-y,1/2+z
loop_
_atom_site_type_symbol
_atom_site_label
_atom_site_fract_x
_atom_site_fract_y
_atom_site_fract_z
Si Si1 0.459268 0.680461 0.357821
Si Si2 0.452389 0.209284 0.845947
Si Si3 0.666007 0.800231 0.926886
Si Si4 0.309613 0.144147 0.302367
Si Si5 0.265657 0.647975 0.785216
Si Si6 0.082102 0.448841 0.705234
Si Si7 0.600345 0.057818 0.729465
O O1 0.500000 0.680513 0.250000
O O2 0.462695 0.736440 0.413409
O O3 0.310483 0.656770 0.221164
O O4 0.571848 0.650276 0.548747
O O5 0.500000 0.212973 0.750000
O O6 0.295519 0.192689 0.692415
O O7 0.546897 0.166750 0.002367
O O8 0.500000 0.794054 0.750000
O O9 0.716713 0.826774 0.851815
O O10 0.750000 0.750000 0.000000
O O11 0.705106 0.835008 0.086868
O O12 0.314174 0.089062 0.255518
O O13 0.209299 0.599316 0.799534
O O14 0.143823 0.501793 0.803608
O O15 0.000000 0.430711 0.750000
O O16 0.975932 0.450272 0.481730
O O17 0.500000 0.072273 0.750000
#
# Coordination Sequence:
#
# PCOD9282009 Si02
#       7
#     8   8   8   8   8   8   8
#     4  11  26  40  57  91 131 169 203 256 319 385
#     4  11  21  38  61  84 121 165 215 258 306 370
#     4  12  25  40  64  92 130 171 214 259 314 385
#     4  12  23  39  62  89 126 164 212 261 318 375
#     4  12  23  39  63  92 128 161 217 260 315 378
#     4  10  21  40  64  96 124 159 211 275 324 381
#     4  10  21  38  67  96 121 159 217 273 327 375
#
# _framework density 20.069562999999999
#
# number of rings (size 3 to 8) (size 9 to 14) (size 15 to 20)
#    0.000    0.857    2.857    5.143    4.000    2.286 
#    0.000    0.714    0.000    0.000    0.000    0.000 
#    0.000    0.000    0.000    0.000    0.000    0.000 
#
# Total GULP energy -156035.002391 kJ/mol
# GULP energy per Si atom -5572.678657 kJ/mol
# Density = 2.002388 g / cm^3
# Si number density = 20.069563 Si / 1000 Ang^3
#
#
#
# Elastic Constant Matrix: (Units=GPa)
#
#
# Indices 1 2 3 4 5 6 
#
# 1 93.1961 22.2935 11.4141 0.0000 -4.2383 0.0000
# 2 22.2935 114.5310 9.8772 0.0000 12.3529 0.0000
# 3 11.4141 9.8772 58.8295 0.0000 2.5866 0.0000
# 4 0.0000 0.0000 0.0000 -10.5350 0.0000 -13.0112
# 5 -4.2383 12.3529 2.5866 0.0000 31.8780 0.0000
# 6 0.0000 0.0000 0.0000 -13.0112 0.0000 22.9407
#
#
#
# Elastic Compliance Matrix: (Units=1/GPa)
#
#
# Indices 1 2 3 4 5 6 
#
# 1 0.011662 -0.002384 -0.001978 0.000000 0.002635 0.000000
# 2 -0.002384 0.009712 -0.000992 0.000000 -0.004000 0.000000
# 3 -0.001978 -0.000992 0.017606 0.000000 -0.001307 0.000000
# 4 0.000000 0.000000 0.000000 -0.055821 0.000000 -0.031660
# 5 0.002635 -0.004000 -0.001307 0.000000 0.033376 0.000000
# 6 0.000000 0.000000 0.000000 -0.031660 0.000000 0.025634
#
#
# Mechanical properties :
#
#
# Convention : Reuss Voigt Hill
#
# Bulk Modulus (GPa) = 35.37044 39.30289 37.33666
# Shear Modulus (GPa) = 80.25269 23.72153 51.98711
#
# Velocity S-wave (km/s) = 6.33041 3.44170 5.09507
# Velocity P-wave (km/s) = 8.43174 5.95144 7.29773
#
# Compressibility (1/GPa) = 0.02827220
#
# Stress axis : x y z
#
# Youngs Moduli (GPa) = 85.74575 102.96284 56.79816
#
# Poissons Ratio (x) = 0.24543 0.11237
# Poissons Ratio (y) = 0.20439 0.05636
# Poissons Ratio (z) = 0.16964 0.10217
#
# Static dielectric constant tensor:
#      x y z
#    x 1.703540 0.000000 -0.026420 
#    y 0.000000 1.692070 0.000000 
#    z -0.026420 0.000000 1.736210 
# 
# From -- ./inp_files/101140.got.cif
#   From: 2010.05.17/outbox.cif.g08.bks.cpg/sg15_51_cif.got.tgz:101140.got - 2010.06.03 18:47:42.
