data_PCOD9282411
_publ_section_title
;
Structure prediction by ZEFSAII (Michael W. Deem and Ramdas Pophale) SiO2 
 PCOD9282411
Probable space group: C 2/C
;
_chemical_formula_sum "Si O2"
_cell_formula_units_Z 44
_cell_length_a 8.390762
_cell_length_b 21.055876
_cell_length_c 12.138074
_cell_angle_alpha 90.000000
_cell_angle_beta 91.096953
_cell_angle_gamma 90.000000
_cell_volume 2144.099315
_symmetry_space_group_name_H-M "C 2/C"
_symmetry_group_IT_number 15
_symmetry_cell_setting 'monoclinic'
loop_
_space_group_symop_operation_xyz
x,y,z
-x,y,1/2-z
-x,-y,-z
x,-y,1/2+z
1/2+x,1/2+y,z
1/2-x,1/2+y,1/2-z
1/2-x,1/2-y,-z
1/2+x,1/2-y,1/2+z
loop_
_atom_site_type_symbol
_atom_site_label
_atom_site_fract_x
_atom_site_fract_y
_atom_site_fract_z
Si Si1 0.500000 0.597913 0.750000
Si Si2 0.472356 0.685607 0.965454
Si Si3 0.463993 0.045278 0.401277
Si Si4 0.646597 0.342500 0.680347
Si Si5 0.775980 0.979771 0.766819
Si Si6 0.150587 0.678106 0.107826
O O1 0.507463 0.640753 0.860521
O O2 0.357045 0.547716 0.769633
O O3 0.432949 0.755742 0.920479
O O4 0.616338 0.681485 0.056453
O O5 0.309939 0.669332 0.033483
O O6 0.282849 0.034286 0.357663
O O7 0.608717 0.025371 0.325304
O O8 0.467633 0.120296 0.420292
O O9 0.500000 0.000000 0.500000
O O10 0.500000 0.315496 0.750000
O O11 0.631836 0.419593 0.681050
O O12 0.795737 0.326652 0.762417
#
# Coordination Sequence:
#
# PCOD9282411 Si02
#       6
#     4   8   8   8   8   8
#     4  12  24  38  60 102 128 154 216 264 314 368
#     4  10  22  38  65  94 126 164 206 267 311 375
#     4  10  21  39  62  86 123 168 204 255 310 368
#     4   9  18  38  63  87 119 165 206 249 317 367
#     4  10  22  37  58  91 123 159 208 254 308 373
#     4   9  20  43  63  90 124 168 213 253 314 382
#
# _framework density 20.521436999999999
#
# number of rings (size 3 to 8) (size 9 to 14) (size 15 to 20)
#    0.000    2.182    0.909    1.091    2.545    3.636 
#    3.273    1.818    0.000    0.000    0.000    0.000 
#    0.000    0.000    0.000    0.000    0.000    0.000 
#
# Total GULP energy -122482.745771 kJ/mol
# GULP energy per Si atom -5567.397535 kJ/mol
# Density = 2.047473 g / cm^3
# Si number density = 20.521437 Si / 1000 Ang^3
#
#
#
# Elastic Constant Matrix: (Units=GPa)
#
#
# Indices 1 2 3 4 5 6 
#
# 1 63.7054 50.5093 32.1932 0.0000 -2.9426 0.0000
# 2 50.5093 165.9353 93.9211 0.0000 14.1587 0.0000
# 3 32.1932 93.9211 139.4542 0.0000 13.4255 0.0000
# 4 0.0000 0.0000 0.0000 28.2409 0.0000 9.2876
# 5 -2.9426 14.1587 13.4255 0.0000 22.6571 0.0000
# 6 0.0000 0.0000 0.0000 9.2876 0.0000 27.3758
#
#
#
# Elastic Compliance Matrix: (Units=1/GPa)
#
#
# Indices 1 2 3 4 5 6 
#
# 1 0.021963 -0.006554 -0.001405 0.000000 0.007781 0.000000
# 2 -0.006554 0.011812 -0.005992 0.000000 -0.004682 0.000000
# 3 -0.001405 -0.005992 0.011865 0.000000 -0.003469 0.000000
# 4 0.000000 0.000000 0.000000 0.039857 0.000000 -0.013522
# 5 0.007781 -0.004682 -0.003469 0.000000 0.050128 0.000000
# 6 0.000000 0.000000 0.000000 -0.013522 0.000000 0.041116
#
#
# Mechanical properties :
#
#
# Convention : Reuss Voigt Hill
#
# Bulk Modulus (GPa) = 56.37573 80.26022 68.31798
# Shear Modulus (GPa) = 23.74673 28.48618 26.11646
#
# Velocity S-wave (km/s) = 3.40541 3.72979 3.57128
# Velocity P-wave (km/s) = 6.55695 7.59893 7.09709
#
# Compressibility (1/GPa) = 0.01773813
#
# Stress axis : x y z
#
# Youngs Moduli (GPa) = 45.53091 84.65761 84.28487
#
# Poissons Ratio (x) = 0.55483 0.11845
# Poissons Ratio (y) = 0.29840 0.50501
# Poissons Ratio (z) = 0.06399 0.50724
#
# Static dielectric constant tensor:
#      x y z
#    x 2.111200 0.000000 1.135010 
#    y 0.000000 1.582540 0.000000 
#    z 1.135010 0.000000 6.156610 
# 
# From -- ./inp_files/78283.got.cif
#   From: 2010.05.17/outbox.cif.g08.bks.cpg/sg15_40_cif.got.tgz:78283.got - 2010.06.03 18:47:42.
