data_PCOD9282531
_publ_section_title
;
Structure prediction by ZEFSAII (Michael W. Deem and Ramdas Pophale) SiO2 
 PCOD9282531
Probable space group: C 2/C
;
_chemical_formula_sum "Si O2"
_cell_formula_units_Z 60
_cell_length_a 17.026609
_cell_length_b 13.596068
_cell_length_c 11.715973
_cell_angle_alpha 90.000000
_cell_angle_beta 65.205389
_cell_angle_gamma 90.000000
_cell_volume 2462.170531
_symmetry_space_group_name_H-M "C 2/C"
_symmetry_group_IT_number 15
_symmetry_cell_setting 'monoclinic'
loop_
_space_group_symop_operation_xyz
x,y,z
-x,y,1/2-z
-x,-y,-z
x,-y,1/2+z
1/2+x,1/2+y,z
1/2-x,1/2+y,1/2-z
1/2-x,1/2-y,-z
1/2+x,1/2-y,1/2+z
loop_
_atom_site_type_symbol
_atom_site_label
_atom_site_fract_x
_atom_site_fract_y
_atom_site_fract_z
Si Si1 0.094799 0.306302 0.131082
Si Si2 0.017019 0.218483 0.964444
Si Si3 0.438411 0.553409 0.886153
Si Si4 0.836061 0.786692 0.688558
Si Si5 0.500000 0.839734 0.750000
Si Si6 0.188010 0.005938 0.861175
Si Si7 0.789207 0.149330 0.850399
Si Si8 0.156081 0.523536 0.080039
O O1 0.158078 0.259296 0.188377
O O2 0.125380 0.413444 0.070336
O O3 0.000000 0.314844 0.250000
O O4 0.082599 0.240741 0.025866
O O5 0.999895 0.106181 0.939183
O O6 0.033701 0.276440 0.837147
O O7 0.923224 0.249664 0.072552
O O8 0.500000 0.512279 0.750000
O O9 0.374276 0.639942 0.877051
O O10 0.370980 0.484679 0.990418
O O11 0.838016 0.904968 0.687342
O O12 0.756201 0.750365 0.658290
O O13 0.424561 0.908432 0.843403
O O14 0.285313 0.990621 0.843794
O O15 0.183767 0.097385 0.782229
O O16 0.716541 0.079655 0.952334
#
# Coordination Sequence:
#
# PCOD9282531 Si02
#       8
#     8   8   8   8   4   8   8   8
#     4  10  21  39  62  99 141 177 213 269 338 401
#     4  10  22  37  65 104 133 174 225 269 332 412
#     4  10  23  44  69  94 126 173 231 285 329 385
#     4  10  21  42  67  94 139 183 216 277 335 396
#     4  12  22  34  64 100 140 178 216 268 340 414
#     4  10  24  42  67  99 131 176 229 275 337 399
#     4  11  23  42  67  94 138 176 228 277 330 400
#     4  11  23  37  63  99 141 177 216 272 339 410
#
# _framework density 24.368744
#
# number of rings (size 3 to 8) (size 9 to 14) (size 15 to 20)
#    0.000    1.600    4.000    0.000    3.733    2.667 
#    0.000    6.667    0.000    0.000    0.000    0.000 
#    0.000    0.000    0.000    0.000    0.000    0.000 
#
# Total GULP energy -167957.860443 kJ/mol
# GULP energy per Si atom -5598.595348 kJ/mol
# Density = 2.431328 g / cm^3
# Si number density = 24.368744 Si / 1000 Ang^3
#
#
#
# Elastic Constant Matrix: (Units=GPa)
#
#
# Indices 1 2 3 4 5 6 
#
# 1 90.9646 5.2435 17.9948 0.0000 3.1590 0.0000
# 2 5.2435 78.3456 20.1280 0.0000 -0.2813 0.0000
# 3 17.9948 20.1280 102.3475 0.0000 -2.3660 0.0000
# 4 0.0000 0.0000 0.0000 26.9168 0.0000 5.4127
# 5 3.1590 -0.2813 -2.3660 0.0000 41.5613 0.0000
# 6 0.0000 0.0000 0.0000 5.4127 0.0000 37.2395
#
#
#
# Elastic Compliance Matrix: (Units=1/GPa)
#
#
# Indices 1 2 3 4 5 6 
#
# 1 0.011435 -0.000260 -0.001982 0.000000 -0.000984 0.000000
# 2 -0.000260 0.013449 -0.002600 0.000000 -0.000037 0.000000
# 3 -0.001982 -0.002600 0.010648 0.000000 0.000739 0.000000
# 4 0.000000 0.000000 0.000000 0.038270 0.000000 -0.005562
# 5 -0.000984 -0.000037 0.000739 0.000000 0.024177 0.000000
# 6 0.000000 0.000000 0.000000 -0.005562 0.000000 0.027662
#
#
# Mechanical properties :
#
#
# Convention : Reuss Voigt Hill
#
# Bulk Modulus (GPa) = 38.68840 39.82114 39.25477
# Shear Modulus (GPa) = 34.73663 36.36293 35.54978
#
# Velocity S-wave (km/s) = 3.77962 3.86709 3.82360
# Velocity P-wave (km/s) = 5.91254 6.02625 5.96966
#
# Compressibility (1/GPa) = 0.02584754
#
# Stress axis : x y z
#
# Youngs Moduli (GPa) = 87.45446 74.35370 93.91807
#
# Poissons Ratio (x) = 0.01930 0.18616
# Poissons Ratio (y) = 0.02270 0.24420
# Poissons Ratio (z) = 0.17334 0.19333
#
# Static dielectric constant tensor:
#      x y z
#    x 1.945600 0.000000 -0.013670 
#    y 0.000000 1.930290 0.000000 
#    z -0.013670 0.000000 1.943290 
# 
# From -- ./inp_files/105697.got.cif
#   From: 2010.05.17/outbox.cif.g08.bks.cpg/sg15_53_cif.got.tgz:105697.got - 2010.06.03 18:47:42.
