data_PCOD9282019
_publ_section_title
;
Structure prediction by ZEFSAII (Michael W. Deem and Ramdas Pophale) SiO2 
 PCOD9282019
Probable space group: C 2/C
;
_chemical_formula_sum "Si O2"
_cell_formula_units_Z 64
_cell_length_a 20.909332
_cell_length_b 11.003871
_cell_length_c 14.835778
_cell_angle_alpha 90.000000
_cell_angle_beta 55.065548
_cell_angle_gamma 90.000000
_cell_volume 2798.388232
_symmetry_space_group_name_H-M "C 2/C"
_symmetry_group_IT_number 15
_symmetry_cell_setting 'monoclinic'
loop_
_space_group_symop_operation_xyz
x,y,z
-x,y,1/2-z
-x,-y,-z
x,-y,1/2+z
1/2+x,1/2+y,z
1/2-x,1/2+y,1/2-z
1/2-x,1/2-y,-z
1/2+x,1/2-y,1/2+z
loop_
_atom_site_type_symbol
_atom_site_label
_atom_site_fract_x
_atom_site_fract_y
_atom_site_fract_z
Si Si1 0.411766 0.650148 0.825626
Si Si2 0.326200 0.254541 0.733046
Si Si3 0.922129 0.322147 0.990610
Si Si4 0.089750 0.619304 0.290477
Si Si5 0.801428 0.964857 0.991252
Si Si6 0.584014 0.729663 0.151376
Si Si7 0.244870 0.509149 0.230432
Si Si8 0.628448 0.971454 0.078274
O O1 0.500000 0.599946 0.750000
O O2 0.411773 0.725026 0.918867
O O3 0.397598 0.743988 0.756121
O O4 0.343352 0.554440 0.887732
O O5 0.395575 0.235271 0.604874
O O6 0.365053 0.243423 0.799865
O O7 0.290248 0.390636 0.754290
O O8 0.267523 0.139516 0.757950
O O9 0.867502 0.433655 0.005459
O O10 0.008685 0.376061 0.908606
O O11 0.158324 0.564231 0.293297
O O12 0.093583 0.540812 0.194421
O O13 0.863680 0.858235 0.950732
O O14 0.716507 0.928372 0.025101
O O15 0.785039 0.027508 0.099808
O O16 0.500000 0.683177 0.250000
O O17 0.574488 0.856055 0.106767
#
# Coordination Sequence:
#
# PCOD9282019 Si02
#       8
#     8   8   8   8   8   8   8   8
#     4   9  18  35  65  96 133 173 231 276 330 415
#     4  12  27  47  67 108 142 183 224 295 351 409
#     4  10  21  38  68  97 134 177 225 287 346 387
#     4   9  19  39  64  99 128 175 227 285 329 411
#     4  11  22  41  67  98 131 188 228 275 343 422
#     4  12  26  46  68  96 141 186 232 279 343 422
#     4  11  26  44  69  99 145 173 235 286 349 414
#     4  10  21  38  67  97 133 173 237 281 328 415
#
# _framework density 22.870305999999999
#
# number of rings (size 3 to 8) (size 9 to 14) (size 15 to 20)
#    0.000    1.500    3.750    2.625    3.500    2.000 
#    2.250    0.625    0.000    0.000    0.000    0.000 
#    0.000    0.000    0.000    0.000    0.000    0.000 
#
# Total GULP energy -178684.964933 kJ/mol
# GULP energy per Si atom -5583.905154 kJ/mol
# Density = 2.281825 g / cm^3
# Si number density = 22.870306 Si / 1000 Ang^3
#
#
#
# Elastic Constant Matrix: (Units=GPa)
#
#
# Indices 1 2 3 4 5 6 
#
# 1 50.0574 19.4163 32.0738 0.0000 -9.7266 0.0000
# 2 19.4163 88.5167 18.2627 0.0000 -16.8490 0.0000
# 3 32.0738 18.2627 84.1819 0.0000 -21.2371 0.0000
# 4 0.0000 0.0000 0.0000 37.1174 0.0000 -1.5036
# 5 -9.7266 -16.8490 -21.2371 0.0000 24.8671 0.0000
# 6 0.0000 0.0000 0.0000 -1.5036 0.0000 42.2974
#
#
#
# Elastic Compliance Matrix: (Units=1/GPa)
#
#
# Indices 1 2 3 4 5 6 
#
# 1 0.027778 -0.004131 -0.009754 0.000000 -0.000264 0.000000
# 2 -0.004131 0.013623 0.000688 0.000000 0.008202 0.000000
# 3 -0.009754 0.000688 0.018611 0.000000 0.012545 0.000000
# 4 0.000000 0.000000 0.000000 0.026980 0.000000 0.000959
# 5 -0.000264 0.008202 0.012545 0.000000 0.056381 0.000000
# 6 0.000000 0.000000 0.000000 0.000959 0.000000 0.023676
#
#
# Mechanical properties :
#
#
# Convention : Reuss Voigt Hill
#
# Bulk Modulus (GPa) = 29.74678 40.25129 34.99903
# Shear Modulus (GPa) = 24.43201 31.05660 27.74430
#
# Velocity S-wave (km/s) = 3.27201 3.68903 3.48676
# Velocity P-wave (km/s) = 5.22587 5.98191 5.61662
#
# Compressibility (1/GPa) = 0.03361709
#
# Stress axis : x y z
#
# Youngs Moduli (GPa) = 35.99993 73.40670 53.73183
#
# Poissons Ratio (x) = 0.30324 0.52410
# Poissons Ratio (y) = 0.14871 -0.03695
# Poissons Ratio (z) = 0.35114 -0.05048
#
# Static dielectric constant tensor:
#      x y z
#    x 1.858640 0.000000 0.002110 
#    y 0.000000 1.904680 0.000000 
#    z 0.002110 0.000000 1.842550 
# 
# From -- ./inp_files/215040.got.cif
#   From: 2010.05.17/outbox.cif.g08.bks.cpg/sg15_108_cif.got.tgz:215040.got - 2010.06.03 18:47:42.
