data_PCOD9282335
_publ_section_title
;
Structure prediction by ZEFSAII (Michael W. Deem and Ramdas Pophale) SiO2 
 PCOD9282335
Probable space group: C 2/C
;
_chemical_formula_sum "Si O2"
_cell_formula_units_Z 56
_cell_length_a 17.377283
_cell_length_b 5.766231
_cell_length_c 26.766955
_cell_angle_alpha 90.000000
_cell_angle_beta 59.496992
_cell_angle_gamma 90.000000
_cell_volume 2310.892998
_symmetry_space_group_name_H-M "C 2/C"
_symmetry_group_IT_number 15
_symmetry_cell_setting 'monoclinic'
loop_
_space_group_symop_operation_xyz
x,y,z
-x,y,1/2-z
-x,-y,-z
x,-y,1/2+z
1/2+x,1/2+y,z
1/2-x,1/2+y,1/2-z
1/2-x,1/2-y,-z
1/2+x,1/2-y,1/2+z
loop_
_atom_site_type_symbol
_atom_site_label
_atom_site_fract_x
_atom_site_fract_y
_atom_site_fract_z
Si Si1 0.926798 0.245086 0.895758
Si Si2 0.580497 0.919614 0.007520
Si Si3 0.428008 0.870830 0.329225
Si Si4 0.527299 0.358273 0.888943
Si Si5 0.226232 0.860884 0.561571
Si Si6 0.192528 0.714522 0.710566
Si Si7 0.718239 0.786088 0.321706
O O1 0.909762 0.418552 0.946890
O O2 0.941117 0.360514 0.837130
O O3 0.021475 0.127987 0.879179
O O4 0.840565 0.078764 0.921088
O O5 0.546935 0.681182 0.043862
O O6 0.500000 0.000000 0.000000
O O7 0.675645 0.911951 0.949943
O O8 0.493158 0.747401 0.347511
O O9 0.330132 0.813402 0.386073
O O10 0.407570 0.799087 0.279530
O O11 0.618547 0.246137 0.875784
O O12 0.250000 0.750000 0.500000
O O13 0.233297 0.459894 0.682651
O O14 0.201270 0.714241 0.767455
O O15 0.234036 0.968104 0.681797
#
# Coordination Sequence:
#
# PCOD9282335 Si02
#       7
#     8   8   8   8   8   8   8
#     4  10  21  39  61  88 122 169 213 261 317 374
#     4  11  24  36  56  89 125 162 213 263 316 374
#     4  10  23  37  67  90 122 167 220 258 317 388
#     4  10  23  40  61  90 127 163 212 266 320 375
#     4  11  20  40  57  85 124 170 211 259 308 381
#     4  10  24  45  69  97 125 169 213 260 333 391
#     4  10  24  45  68  95 133 163 206 273 328 390
#
# _framework density 24.233058
#
# number of rings (size 3 to 8) (size 9 to 14) (size 15 to 20)
#    0.000    1.714    4.286    0.429   10.000    1.143 
#    0.000    0.000    0.000    0.000    0.000    0.000 
#    0.000    0.000    0.000    0.000    0.000    0.000 
#
# Total GULP energy -156132.480652 kJ/mol
# GULP energy per Si atom -5576.160023 kJ/mol
# Density = 2.417790 g / cm^3
# Si number density = 24.233058 Si / 1000 Ang^3
#
#
#
# Elastic Constant Matrix: (Units=GPa)
#
#
# Indices 1 2 3 4 5 6 
#
# 1 130.3790 30.9121 -18.3088 0.0068 8.1234 -0.0041
# 2 30.9121 99.3215 -6.6607 0.0198 0.8644 -0.0213
# 3 -18.3088 -6.6607 27.0598 -0.0034 14.9144 -0.0099
# 4 0.0068 0.0198 -0.0034 10.8625 0.0041 9.8701
# 5 8.1234 0.8644 14.9144 0.0041 24.1448 -0.0024
# 6 -0.0041 -0.0213 -0.0099 9.8701 -0.0024 33.1631
#
#
#
# Elastic Compliance Matrix: (Units=1/GPa)
#
#
# Indices 1 2 3 4 5 6 
#
# 1 0.010812 -0.002380 0.013173 0.000005 -0.011689 0.000001
# 2 -0.002380 0.010898 0.001283 -0.000033 -0.000382 0.000017
# 3 0.013173 0.001283 0.073766 0.000017 -0.050044 0.000016
# 4 0.000005 -0.000033 0.000017 0.126184 -0.000036 -0.037555
# 5 -0.011689 -0.000382 -0.050044 -0.000036 0.076276 0.000000
# 6 0.000001 0.000017 0.000016 -0.037555 0.000000 0.041331
#
#
# Mechanical properties :
#
#
# Convention : Reuss Voigt Hill
#
# Bulk Modulus (GPa) = 8.35929 29.84951 19.10440
# Shear Modulus (GPa) = 14.08479 30.35525 22.22002
#
# Velocity S-wave (km/s) = 2.41347 3.54310 3.03137
# Velocity P-wave (km/s) = 3.35015 5.39282 4.48921
#
# Compressibility (1/GPa) = 0.11962742
#
# Stress axis : x y z
#
# Youngs Moduli (GPa) = 92.48663 91.75649 13.55638
#
# Poissons Ratio (x) = 0.21838 -0.17857
# Poissons Ratio (y) = 0.22012 -0.01739
# Poissons Ratio (z) = -1.21830 -0.11769
#
# Static dielectric constant tensor:
#      x y z
#    x 1.973770 -0.000020 -0.012760 
#    y -0.000020 2.068730 -0.000030 
#    z -0.012760 -0.000030 2.024040 
# 
# From -- ./inp_files/297712.got.cif
#   From: 2010.05.17/outbox.cif.g08.bks.cpg/sg15_149_cif.got.tgz:297712.got - 2010.06.03 18:47:42.
