data_PCOD9282203
_publ_section_title
;
Structure prediction by ZEFSAII (Michael W. Deem and Ramdas Pophale) SiO2 
 PCOD9282203
Probable space group: C 2/C
;
_chemical_formula_sum "Si O2"
_cell_formula_units_Z 64
_cell_length_a 13.992021
_cell_length_b 29.416072
_cell_length_c 10.615718
_cell_angle_alpha 90.000000
_cell_angle_beta 137.862340
_cell_angle_gamma 90.000000
_cell_volume 2931.443072
_symmetry_space_group_name_H-M "C 2/C"
_symmetry_group_IT_number 15
_symmetry_cell_setting 'monoclinic'
loop_
_space_group_symop_operation_xyz
x,y,z
-x,y,1/2-z
-x,-y,-z
x,-y,1/2+z
1/2+x,1/2+y,z
1/2-x,1/2+y,1/2-z
1/2-x,1/2-y,-z
1/2+x,1/2-y,1/2+z
loop_
_atom_site_type_symbol
_atom_site_label
_atom_site_fract_x
_atom_site_fract_y
_atom_site_fract_z
Si Si1 0.786232 0.312025 0.825143
Si Si2 0.330064 0.954886 0.757500
Si Si3 0.417190 0.052663 0.798162
Si Si4 0.538035 0.749706 0.037912
Si Si5 0.158886 0.885735 0.055517
Si Si6 0.206146 0.188954 0.774512
Si Si7 0.846564 0.095796 0.241127
Si Si8 0.832395 0.639226 0.116077
O O1 0.642929 0.284005 0.717060
O O2 0.767269 0.363184 0.853876
O O3 0.796966 0.322340 0.685994
O O4 0.926016 0.283284 0.997900
O O5 0.207566 0.949234 0.743197
O O6 0.310702 0.911653 0.647991
O O7 0.346015 0.003186 0.706469
O O8 0.471529 0.949614 0.979406
O O9 0.500000 0.066264 0.750000
O O10 0.294762 0.085651 0.729040
O O11 0.653348 0.780360 0.079312
O O12 0.434949 0.718897 0.851551
O O13 0.197061 0.833855 0.126693
O O14 0.143922 0.903808 0.898857
O O15 0.998852 0.891742 0.950685
O O16 0.230628 0.149663 0.899213
O O17 0.000000 0.642892 0.250000
#
# Coordination Sequence:
#
# PCOD9282203 Si02
#       8
#     8   8   8   8   8   8   8   8
#     4  10  21  39  59  87 122 163 207 264 317 375
#     4  10  23  42  66  98 132 161 212 265 315 390
#     4  11  22  40  70 101 127 163 209 263 324 384
#     4  10  22  39  61  89 128 162 223 268 318 383
#     4  11  23  41  67  91 127 170 217 260 324 390
#     4  11  23  40  61  95 127 174 218 268 327 379
#     4  10  22  44  63  89 128 171 208 264 323 383
#     4  11  21  37  63  90 128 168 207 261 321 382
#
# _framework density 21.832249999999998
#
# number of rings (size 3 to 8) (size 9 to 14) (size 15 to 20)
#    0.000    1.500    3.750    1.125    1.750    5.000 
#    0.000    3.750    0.000    0.000    0.000    0.000 
#    0.000    0.000    0.000    0.000    0.000    0.000 
#
# Total GULP energy -178361.503084 kJ/mol
# GULP energy per Si atom -5573.796971 kJ/mol
# Density = 2.178256 g / cm^3
# Si number density = 21.832250 Si / 1000 Ang^3
#
#
#
# Elastic Constant Matrix: (Units=GPa)
#
#
# Indices 1 2 3 4 5 6 
#
# 1 46.6922 22.0626 28.4803 0.0000 21.9915 0.0000
# 2 22.0626 84.4438 18.8133 0.0000 20.0121 0.0000
# 3 28.4803 18.8133 53.4532 0.0000 18.7007 0.0000
# 4 0.0000 0.0000 0.0000 21.8254 0.0000 0.0317
# 5 21.9915 20.0121 18.7007 0.0000 19.2150 0.0000
# 6 0.0000 0.0000 0.0000 0.0317 0.0000 -1.4092
#
#
#
# Elastic Compliance Matrix: (Units=1/GPa)
#
#
# Indices 1 2 3 4 5 6 
#
# 1 0.049766 0.000554 -0.009981 0.000000 -0.047820 0.000000
# 2 0.000554 0.015732 0.000185 0.000000 -0.017199 0.000000
# 3 -0.009981 0.000185 0.030374 0.000000 -0.018330 0.000000
# 4 0.000000 0.000000 0.000000 0.045817 0.000000 0.001032
# 5 -0.047820 -0.017199 -0.018330 0.000000 0.142525 0.000000
# 6 0.000000 0.000000 0.000000 0.001032 0.000000 -0.709606
#
#
# Mechanical properties :
#
#
# Convention : Reuss Voigt Hill
#
# Bulk Modulus (GPa) = 12.92192 35.92239 24.42215
# Shear Modulus (GPa) = -13.11943 15.60842 1.24450
#
# Velocity S-wave (km/s) = -2.45403 2.67671 0.75582
# Velocity P-wave (km/s) = 1.44847 5.10319 3.46009
#
# Compressibility (1/GPa) = 0.07738786
#
# Stress axis : x y z
#
# Youngs Moduli (GPa) = 20.09424 63.56399 32.92342
#
# Poissons Ratio (x) = -0.03522 0.32859
# Poissons Ratio (y) = -0.01114 -0.00608
# Poissons Ratio (z) = 0.20055 -0.01174
#
# Static dielectric constant tensor:
#      x y z
#    x 1.886980 0.000000 -0.011700 
#    y 0.000000 1.823130 0.000000 
#    z -0.011700 0.000000 1.862440 
# 
# From -- ./inp_files/101370.got.cif
#   From: 2010.05.17/outbox.cif.g08.bks.cpg/sg15_51_cif.got.tgz:101370.got - 2010.06.03 18:47:42.
