data_PCOD9282011
_publ_section_title
;
Structure prediction by ZEFSAII (Michael W. Deem and Ramdas Pophale) SiO2 
 PCOD9282011
Probable space group: C 2/C
;
_chemical_formula_sum "Si O2"
_cell_formula_units_Z 48
_cell_length_a 20.994996
_cell_length_b 14.686744
_cell_length_c 10.733196
_cell_angle_alpha 90.000000
_cell_angle_beta 41.538772
_cell_angle_gamma 90.000000
_cell_volume 2194.658266
_symmetry_space_group_name_H-M "C 2/C"
_symmetry_group_IT_number 15
_symmetry_cell_setting 'monoclinic'
loop_
_space_group_symop_operation_xyz
x,y,z
-x,y,1/2-z
-x,-y,-z
x,-y,1/2+z
1/2+x,1/2+y,z
1/2-x,1/2+y,1/2-z
1/2-x,1/2-y,-z
1/2+x,1/2-y,1/2+z
loop_
_atom_site_type_symbol
_atom_site_label
_atom_site_fract_x
_atom_site_fract_y
_atom_site_fract_z
Si Si1 0.571975 0.253167 0.373933
Si Si2 0.100808 0.895177 0.116935
Si Si3 0.758241 0.340508 0.221626
Si Si4 0.863500 0.185874 0.203777
Si Si5 0.594961 0.077832 0.191543
Si Si6 0.258186 0.455993 0.033397
O O1 0.578264 0.306806 0.232962
O O2 0.666496 0.284253 0.309083
O O3 0.473255 0.289651 0.578984
O O4 0.571454 0.146507 0.340135
O O5 0.000000 0.947242 0.250000
O O6 0.176578 0.954806 0.079386
O O7 0.134988 0.866164 0.931190
O O8 0.812474 0.280093 0.245215
O O9 0.731356 0.430782 0.336688
O O10 0.831494 0.366746 0.005473
O O11 0.805026 0.124267 0.384688
O O12 0.500000 0.059090 0.250000
O O13 0.651295 0.987909 0.154081
#
# Coordination Sequence:
#
# PCOD9282011 Si02
#       6
#     8   8   8   8   8   8
#     4  11  22  43  77  94 126 186 235 278 333 419
#     4  10  21  38  67  96 126 162 222 279 336 397
#     4  12  24  44  68  97 138 183 228 282 348 423
#     4  11  24  45  65 100 136 179 231 281 347 419
#     4  12  23  47  73  99 134 188 243 283 333 421
#     4  12  27  40  64 105 143 170 218 296 358 397
#
# _framework density 21.871286000000001
#
# number of rings (size 3 to 8) (size 9 to 14) (size 15 to 20)
#    0.000    0.667    5.000    3.500    2.333    2.000 
#    3.000    0.000    0.000    0.000    0.000    0.000 
#    0.000    0.000    0.000    0.000    0.000    0.000 
#
# Total GULP energy -134177.291881 kJ/mol
# GULP energy per Si atom -5590.720495 kJ/mol
# Density = 2.182151 g / cm^3
# Si number density = 21.871286 Si / 1000 Ang^3
#
#
#
# Elastic Constant Matrix: (Units=GPa)
#
#
# Indices 1 2 3 4 5 6 
#
# 1 65.5736 -19.0122 57.0825 0.0000 -24.9918 0.0000
# 2 -19.0122 27.5772 46.3218 0.0000 9.4582 0.0000
# 3 57.0825 46.3218 60.2089 0.0000 -25.5711 0.0000
# 4 0.0000 0.0000 0.0000 24.9931 0.0000 -4.1301
# 5 -24.9918 9.4582 -25.5711 0.0000 25.3847 0.0000
# 6 0.0000 0.0000 0.0000 -4.1301 0.0000 29.1083
#
#
#
# Elastic Compliance Matrix: (Units=1/GPa)
#
#
# Indices 1 2 3 4 5 6 
#
# 1 0.014670 -0.013553 0.008385 0.000000 0.027939 0.000000
# 2 -0.013553 -0.002519 0.016636 0.000000 0.004354 0.000000
# 3 0.008385 0.016636 -0.005708 0.000000 -0.003694 0.000000
# 4 0.000000 0.000000 0.000000 0.040972 0.000000 0.005813
# 5 0.027939 0.004354 -0.003694 0.000000 0.061557 0.000000
# 6 0.000000 0.000000 0.000000 0.005813 0.000000 0.035179
#
#
# Mechanical properties :
#
#
# Convention : Reuss Voigt Hill
#
# Bulk Modulus (GPa) = 34.03874 35.79377 34.91625
# Shear Modulus (GPa) = 38.16595 20.49507 29.33051
#
# Velocity S-wave (km/s) = 4.18188 3.06449 3.66601
# Velocity P-wave (km/s) = 6.23815 5.37798 5.82397
#
# Compressibility (1/GPa) = 0.02937829
#
# Stress axis : x y z
#
# Youngs Moduli (GPa) = 68.16856 -396.99835 -175.17847
#
# Poissons Ratio (x) = -5.38051 1.46886
# Poissons Ratio (y) = 0.92389 2.91429
# Poissons Ratio (z) = -0.57159 6.60452
#
# Static dielectric constant tensor:
#      x y z
#    x 1.804710 0.000000 -0.021530 
#    y 0.000000 1.805970 0.000000 
#    z -0.021530 0.000000 1.817330 
# 
# From -- ./inp_files/96196.got.cif
#   From: 2010.05.17/outbox.cif.g08.bks.cpg/sg15_49_cif.got.tgz:96196.got - 2010.06.03 18:47:42.
