data_PCOD9282200
_publ_section_title
;
Structure prediction by ZEFSAII (Michael W. Deem and Ramdas Pophale) SiO2 
 PCOD9282200
Probable space group: C 2/C
;
_chemical_formula_sum "Si O2"
_cell_formula_units_Z 64
_cell_length_a 31.464005
_cell_length_b 14.328285
_cell_length_c 9.681427
_cell_angle_alpha 90.000000
_cell_angle_beta 128.960672
_cell_angle_gamma 90.000000
_cell_volume 3393.840372
_symmetry_space_group_name_H-M "C 2/C"
_symmetry_group_IT_number 15
_symmetry_cell_setting 'monoclinic'
loop_
_space_group_symop_operation_xyz
x,y,z
-x,y,1/2-z
-x,-y,-z
x,-y,1/2+z
1/2+x,1/2+y,z
1/2-x,1/2+y,1/2-z
1/2-x,1/2-y,-z
1/2+x,1/2-y,1/2+z
loop_
_atom_site_type_symbol
_atom_site_label
_atom_site_fract_x
_atom_site_fract_y
_atom_site_fract_z
Si Si1 0.666910 0.884617 0.662777
Si Si2 0.699109 0.413131 0.889321
Si Si3 0.868224 0.982456 0.487080
Si Si4 0.670992 0.946938 0.366143
Si Si5 0.882397 0.809890 0.330522
Si Si6 0.155285 0.265234 0.174370
Si Si7 0.219832 0.196475 0.058657
Si Si8 0.938960 0.159490 0.680001
O O1 0.652675 0.930287 0.486389
O O2 0.637501 0.785964 0.637474
O O3 0.732733 0.868763 0.786979
O O4 0.656857 0.953956 0.769915
O O5 0.669270 0.461679 0.698639
O O6 0.684253 0.303850 0.842914
O O7 0.670511 0.449462 0.968663
O O8 0.763277 0.433644 0.014358
O O9 0.891516 0.890807 0.459442
O O10 0.915548 0.053594 0.630022
O O11 0.646303 0.864855 0.221852
O O12 0.930989 0.800843 0.319036
O O13 0.832607 0.844129 0.127243
O O14 0.197028 0.264208 0.130084
O O15 0.100570 0.218500 0.002429
O O16 0.250000 0.250000 0.000000
O O17 0.000000 0.162330 0.750000
#
# Coordination Sequence:
#
# PCOD9282200 Si02
#       8
#     8   8   8   8   8   8   8   8
#     4  11  24  36  57  90 128 170 209 249 302 371
#     4  11  21  34  56  87 127 167 200 242 300 370
#     4  11  21  37  59  90 126 161 204 247 302 380
#     4  12  24  35  58  91 128 173 206 249 301 375
#     4  10  21  39  59  86 125 161 204 260 309 365
#     4  10  22  38  56  86 121 163 213 254 307 365
#     4   9  19  34  53  81 119 165 200 245 300 361
#     4  10  23  43  66  91 119 161 207 265 324 367
#
# _framework density 18.857693000000001
#
# number of rings (size 3 to 8) (size 9 to 14) (size 15 to 20)
#    0.000    1.500    2.500    2.625   10.500    0.500 
#    0.000    0.000    0.000    0.750    0.000    0.000 
#    0.000    0.000    0.000    0.000    0.000    0.000 
#
# Total GULP energy -178671.660373 kJ/mol
# GULP energy per Si atom -5583.489387 kJ/mol
# Density = 1.881477 g / cm^3
# Si number density = 18.857693 Si / 1000 Ang^3
#
#
#
# Elastic Constant Matrix: (Units=GPa)
#
#
# Indices 1 2 3 4 5 6 
#
# 1 121.7297 30.0276 33.4465 0.0000 -10.8996 0.0000
# 2 30.0276 82.7049 23.1948 0.0000 -0.7523 0.0000
# 3 33.4465 23.1948 51.3257 0.0000 -21.2893 0.0000
# 4 0.0000 0.0000 0.0000 29.3232 0.0000 -13.3003
# 5 -10.8996 -0.7523 -21.2893 0.0000 23.3006 0.0000
# 6 0.0000 0.0000 0.0000 -13.3003 0.0000 21.4083
#
#
#
# Elastic Compliance Matrix: (Units=1/GPa)
#
#
# Indices 1 2 3 4 5 6 
#
# 1 0.010335 -0.002026 -0.006185 0.000000 -0.000882 0.000000
# 2 -0.002026 0.015370 -0.009361 0.000000 -0.009004 0.000000
# 3 -0.006185 -0.009361 0.042541 0.000000 0.035673 0.000000
# 4 0.000000 0.000000 0.000000 0.047483 0.000000 0.029500
# 5 -0.000882 -0.009004 0.035673 0.000000 0.074808 0.000000
# 6 0.000000 0.000000 0.000000 0.029500 0.000000 0.065038
#
#
# Mechanical properties :
#
#
# Convention : Reuss Voigt Hill
#
# Bulk Modulus (GPa) = 30.20876 47.67756 38.94316
# Shear Modulus (GPa) = 16.56982 26.07919 21.32451
#
# Velocity S-wave (km/s) = 2.96746 3.72283 3.36640
# Velocity P-wave (km/s) = 5.27212 6.61944 5.98382
#
# Compressibility (1/GPa) = 0.03310298
#
# Stress axis : x y z
#
# Youngs Moduli (GPa) = 96.75745 65.06211 23.50655
#
# Poissons Ratio (x) = 0.13179 0.14540
# Poissons Ratio (y) = 0.19600 0.22003
# Poissons Ratio (z) = 0.59849 0.60902
#
# Static dielectric constant tensor:
#      x y z
#    x 1.622630 0.000000 -0.019410 
#    y 0.000000 1.697270 0.000000 
#    z -0.019410 0.000000 1.673670 
# 
# From -- ./inp_files/69948.got.cif
#   From: 2010.05.17/outbox.cif.g08.bks.cpg/sg15_35_cif.got.tgz:69948.got - 2010.06.03 18:47:42.
