data_PCOD9282266
_publ_section_title
;
Structure prediction by ZEFSAII (Michael W. Deem and Ramdas Pophale) SiO2 
 PCOD9282266
Probable space group: C 2/C
;
_chemical_formula_sum "Si O2"
_cell_formula_units_Z 48
_cell_length_a 5.159166
_cell_length_b 13.814672
_cell_length_c 25.203948
_cell_angle_alpha 90.000000
_cell_angle_beta 86.571660
_cell_angle_gamma 90.000000
_cell_volume 1793.125689
_symmetry_space_group_name_H-M "C 2/C"
_symmetry_group_IT_number 15
_symmetry_cell_setting 'monoclinic'
loop_
_space_group_symop_operation_xyz
x,y,z
-x,y,1/2-z
-x,-y,-z
x,-y,1/2+z
1/2+x,1/2+y,z
1/2-x,1/2+y,1/2-z
1/2-x,1/2-y,-z
1/2+x,1/2-y,1/2+z
loop_
_atom_site_type_symbol
_atom_site_label
_atom_site_fract_x
_atom_site_fract_y
_atom_site_fract_z
Si Si1 0.018052 0.156500 0.308609
Si Si2 0.527404 0.884164 0.308568
Si Si3 0.615342 0.345781 0.113080
Si Si4 0.021373 0.644127 0.372449
Si Si5 0.289067 0.029434 0.920691
Si Si6 0.005452 0.300295 0.474089
O O1 0.798999 0.108502 0.348436
O O2 0.000000 0.114882 0.250000
O O3 0.947587 0.271050 0.304714
O O4 0.306672 0.148433 0.328479
O O5 0.500000 0.926715 0.250000
O O6 0.821034 0.878177 0.328268
O O7 0.381930 0.938847 0.358943
O O8 0.430493 0.254088 0.110399
O O9 0.507835 0.433468 0.079009
O O10 0.877719 0.295893 0.087357
O O11 0.883716 0.580363 0.419304
O O12 0.415099 0.088233 0.967351
O O13 0.250000 0.250000 0.500000
O O14 0.750000 0.250000 0.500000
#
# Coordination Sequence:
#
# PCOD9282266 Si02
#       6
#     8   8   8   8   8   8
#     4  10  21  39  60  89 131 179 218 266 319 376
#     4   9  20  37  62  94 132 176 221 261 320 387
#     4  10  22  43  66  96 133 174 215 271 336 391
#     4  11  24  39  64  94 131 170 218 272 326 388
#     4  11  23  41  68  95 129 171 220 269 329 389
#     4  11  23  43  72  95 126 168 214 273 340 403
#
# _framework density 26.768899000000001
#
# number of rings (size 3 to 8) (size 9 to 14) (size 15 to 20)
#    0.000    1.667    3.333    0.500    4.667    2.000 
#    0.000    1.667    0.000    0.000    0.000    0.000 
#    0.000    0.000    0.000    0.000    0.000    0.000 
#
# Total GULP energy -133798.756081 kJ/mol
# GULP energy per Si atom -5574.948170 kJ/mol
# Density = 2.670797 g / cm^3
# Si number density = 26.768899 Si / 1000 Ang^3
#
#
#
# Elastic Constant Matrix: (Units=GPa)
#
#
# Indices 1 2 3 4 5 6 
#
# 1 142.7127 11.6292 24.5661 0.0000 3.4959 0.0000
# 2 11.6292 91.5038 -7.9544 0.0000 -4.1949 0.0000
# 3 24.5661 -7.9544 104.9519 0.0000 20.7088 0.0000
# 4 0.0000 0.0000 0.0000 29.8744 0.0000 -4.4583
# 5 3.4959 -4.1949 20.7088 0.0000 35.7040 0.0000
# 6 0.0000 0.0000 0.0000 -4.4583 0.0000 22.4667
#
#
#
# Elastic Compliance Matrix: (Units=1/GPa)
#
#
# Indices 1 2 3 4 5 6 
#
# 1 0.007411 -0.001093 -0.001862 0.000000 0.000226 0.000000
# 2 -0.001093 0.011189 0.000930 0.000000 0.000882 0.000000
# 3 -0.001862 0.000930 0.011266 0.000000 -0.006243 0.000000
# 4 0.000000 0.000000 0.000000 0.034495 0.000000 0.006845
# 5 0.000226 0.000882 -0.006243 0.000000 0.031711 0.000000
# 6 0.000000 0.000000 0.000000 0.006845 0.000000 0.045869
#
#
# Mechanical properties :
#
#
# Convention : Reuss Voigt Hill
#
# Bulk Modulus (GPa) = 38.73744 43.96112 41.34928
# Shear Modulus (GPa) = 32.34210 38.33751 35.33981
#
# Velocity S-wave (km/s) = 3.47968 3.78850 3.63737
# Velocity P-wave (km/s) = 5.53595 5.96616 5.75508
#
# Compressibility (1/GPa) = 0.02581482
#
# Stress axis : x y z
#
# Youngs Moduli (GPa) = 134.93090 89.37547 88.75951
#
# Poissons Ratio (x) = 0.09772 0.16529
# Poissons Ratio (y) = 0.14754 -0.08253
# Poissons Ratio (z) = 0.25127 -0.08311
#
# Static dielectric constant tensor:
#      x y z
#    x 2.292670 0.000000 -0.008220 
#    y 0.000000 2.235000 0.000000 
#    z -0.008220 0.000000 2.148810 
# 
# From -- ./inp_files/285558.got.cif
#   From: 2010.05.17/outbox.cif.g08.bks.cpg/sg15_143_cif.got.tgz:285558.got - 2010.06.03 18:47:42.
