data_PCOD9282992
_publ_section_title
;
Structure prediction by ZEFSAII (Michael W. Deem and Ramdas Pophale) SiO2 
 PCOD9282992
Probable space group: C 2/C
;
_chemical_formula_sum "Si O2"
_cell_formula_units_Z 40
_cell_length_a 7.282352
_cell_length_b 16.702741
_cell_length_c 24.674478
_cell_angle_alpha 90.000000
_cell_angle_beta 143.544045
_cell_angle_gamma 90.000000
_cell_volume 1783.378155
_symmetry_space_group_name_H-M "C 2/C"
_symmetry_group_IT_number 15
_symmetry_cell_setting 'monoclinic'
loop_
_space_group_symop_operation_xyz
x,y,z
-x,y,1/2-z
-x,-y,-z
x,-y,1/2+z
1/2+x,1/2+y,z
1/2-x,1/2+y,1/2-z
1/2-x,1/2-y,-z
1/2+x,1/2-y,1/2+z
loop_
_atom_site_type_symbol
_atom_site_label
_atom_site_fract_x
_atom_site_fract_y
_atom_site_fract_z
Si Si1 0.545016 0.758094 0.347266
Si Si2 0.020275 0.777525 0.360023
Si Si3 0.486832 0.632524 0.493133
Si Si4 0.359092 0.589219 0.345934
Si Si5 0.198916 0.944721 0.435649
O O1 0.782537 0.768910 0.353865
O O2 0.201066 0.774093 0.244341
O O3 0.542706 0.665962 0.366432
O O4 0.682777 0.823991 0.420686
O O5 0.251968 0.704760 0.423479
O O6 0.203735 0.859931 0.406796
O O7 0.456407 0.581507 0.431772
O O8 0.379571 0.584772 0.521346
O O9 0.440510 0.500377 0.345399
O O10 0.000000 0.604347 0.250000
O O11 0.500000 0.000000 0.500000
#
# Coordination Sequence:
#
# PCOD9282992 Si02
#       5
#     8   8   8   8   8
#     4  10  21  39  66  92 126 172 217 263 319 394
#     4  10  21  41  68  93 124 173 221 258 324 397
#     4  11  22  42  68  92 129 171 217 261 325 395
#     4  12  24  40  64  96 135 164 217 276 330 377
#     4  11  24  42  65  95 131 170 214 273 333 385
#
# _framework density 22.429341000000001
#
# number of rings (size 3 to 8) (size 9 to 14) (size 15 to 20)
#    0.000    1.200    2.000    6.000    5.600    0.000 
#    0.000    0.000    0.000    0.000    0.000    0.000 
#    0.000    0.000    0.000    0.000    0.000    0.000 
#
# Total GULP energy -111682.679231 kJ/mol
# GULP energy per Si atom -5584.133962 kJ/mol
# Density = 2.237829 g / cm^3
# Si number density = 22.429341 Si / 1000 Ang^3
#
#
#
# Elastic Constant Matrix: (Units=GPa)
#
#
# Indices 1 2 3 4 5 6 
#
# 1 66.4185 29.6779 25.4954 0.0004 7.9508 -0.0010
# 2 29.6779 159.6124 60.3038 0.0004 24.0972 -0.0005
# 3 25.4954 60.3038 134.5855 -0.0005 0.7812 0.0047
# 4 0.0004 0.0004 -0.0005 46.9820 -0.0001 -1.4217
# 5 7.9508 24.0972 0.7812 -0.0001 20.0649 -0.0007
# 6 -0.0010 -0.0005 0.0047 -1.4217 -0.0007 73.0708
#
#
#
# Elastic Compliance Matrix: (Units=1/GPa)
#
#
# Indices 1 2 3 4 5 6 
#
# 1 0.017308 -0.001494 -0.002581 0.000000 -0.004964 0.000000
# 2 -0.001494 0.009700 -0.004000 0.000000 -0.010902 0.000000
# 3 -0.002581 -0.004000 0.009680 0.000000 0.005450 -0.000001
# 4 0.000000 0.000000 0.000000 0.021297 0.000000 0.000414
# 5 -0.004964 -0.010902 0.005450 0.000000 0.064686 0.000000
# 6 0.000000 0.000000 -0.000001 0.000414 0.000000 0.013693
#
#
# Mechanical properties :
#
#
# Convention : Reuss Voigt Hill
#
# Bulk Modulus (GPa) = 48.68762 65.73008 57.20885
# Shear Modulus (GPa) = 31.37547 44.36616 37.87082
#
# Velocity S-wave (km/s) = 3.74419 4.45234 4.11353
# Velocity P-wave (km/s) = 6.35973 7.46995 6.93709
#
# Compressibility (1/GPa) = 0.02053910
#
# Stress axis : x y z
#
# Youngs Moduli (GPa) = 57.77547 103.09179 103.30814
#
# Poissons Ratio (x) = 0.15400 0.26661
# Poissons Ratio (y) = 0.08631 0.41324
# Poissons Ratio (z) = 0.14910 0.41237
#
# Static dielectric constant tensor:
#      x y z
#    x 1.903270 0.000000 -0.017940 
#    y 0.000000 1.801440 0.000000 
#    z -0.017940 0.000000 1.843460 
# 
# From -- ./inp_files/133266.got.cif
#   From: 2010.05.17/outbox.cif.g08.bks.cpg/sg15_67_cif.got.tgz:133266.got - 2010.06.03 18:47:42.
