data_PCOD9282246
_publ_section_title
;
Structure prediction by ZEFSAII (Michael W. Deem and Ramdas Pophale) SiO2 
 PCOD9282246
Probable space group: C 2/C
;
_chemical_formula_sum "Si O2"
_cell_formula_units_Z 52
_cell_length_a 11.240113
_cell_length_b 19.982770
_cell_length_c 13.165790
_cell_angle_alpha 90.000000
_cell_angle_beta 71.564976
_cell_angle_gamma 90.000000
_cell_volume 2805.397176
_symmetry_space_group_name_H-M "C 2/C"
_symmetry_group_IT_number 15
_symmetry_cell_setting 'monoclinic'
loop_
_space_group_symop_operation_xyz
x,y,z
-x,y,1/2-z
-x,-y,-z
x,-y,1/2+z
1/2+x,1/2+y,z
1/2-x,1/2+y,1/2-z
1/2-x,1/2-y,-z
1/2+x,1/2-y,1/2+z
loop_
_atom_site_type_symbol
_atom_site_label
_atom_site_fract_x
_atom_site_fract_y
_atom_site_fract_z
Si Si1 0.949384 0.301505 0.155101
Si Si2 0.288863 0.174363 0.005399
Si Si3 0.500000 0.637546 0.750000
Si Si4 0.123690 0.920200 0.412586
Si Si5 0.226751 0.182020 0.570698
Si Si6 0.368664 0.347971 0.750465
Si Si7 0.841148 0.926392 0.566709
O O1 0.824023 0.326206 0.136038
O O2 0.914547 0.223154 0.188850
O O3 0.000000 0.327270 0.250000
O O4 0.061512 0.320810 0.047961
O O5 0.221961 0.130961 0.935509
O O6 0.250000 0.250000 0.000000
O O7 0.226076 0.156659 0.130009
O O8 0.415170 0.594261 0.694203
O O9 0.589130 0.682852 0.656857
O O10 0.990070 0.914327 0.506747
O O11 0.174547 0.994513 0.420148
O O12 0.250000 0.250000 0.500000
O O13 0.228632 0.115453 0.501260
O O14 0.500000 0.380473 0.750000
O O15 0.306967 0.391563 0.680578
#
# Coordination Sequence:
#
# PCOD9282246 Si02
#       7
#     8   8   4   8   8   8   8
#     4  11  22  37  59  91 123 161 197 251 302 363
#     4  12  22  36  63  89 123 157 212 242 304 365
#     4  10  24  36  64  90 124 154 204 252 312 354
#     4  10  22  38  60  93 118 165 199 254 306 358
#     4  11  23  40  61  93 125 158 198 256 306 355
#     4  11  20  34  60  89 120 157 198 252 301 354
#     4  10  21  39  60  86 129 154 205 254 303 358
#
# _framework density 18.535699999999999
#
# number of rings (size 3 to 8) (size 9 to 14) (size 15 to 20)
#    0.000    1.231    6.154    0.923    3.231    1.231 
#    0.000    0.769    0.000    1.846    0.000    0.000 
#    0.000    0.000    0.000    0.000    0.000    0.000 
#
# Total GULP energy -144871.353999 kJ/mol
# GULP energy per Si atom -5571.975154 kJ/mol
# Density = 1.849351 g / cm^3
# Si number density = 18.535700 Si / 1000 Ang^3
#
#
#
# Elastic Constant Matrix: (Units=GPa)
#
#
# Indices 1 2 3 4 5 6 
#
# 1 74.2576 49.6111 21.7145 0.0000 13.3476 0.0000
# 2 49.6111 101.0422 46.2905 0.0000 18.6920 0.0000
# 3 21.7145 46.2905 108.4459 0.0000 4.1220 0.0000
# 4 0.0000 0.0000 0.0000 14.1100 0.0000 3.9432
# 5 13.3476 18.6920 4.1220 0.0000 36.9419 0.0000
# 6 0.0000 0.0000 0.0000 3.9432 0.0000 22.5692
#
#
#
# Elastic Compliance Matrix: (Units=1/GPa)
#
#
# Indices 1 2 3 4 5 6 
#
# 1 0.020252 -0.009529 0.000108 0.000000 -0.002508 0.000000
# 2 -0.009529 0.018091 -0.005621 0.000000 -0.005084 0.000000
# 3 0.000108 -0.005621 0.011541 0.000000 0.001517 0.000000
# 4 0.000000 0.000000 0.000000 0.074510 0.000000 -0.013018
# 5 -0.002508 -0.005084 0.001517 0.000000 0.030379 0.000000
# 6 0.000000 0.000000 0.000000 -0.013018 0.000000 0.046583
#
#
# Mechanical properties :
#
#
# Convention : Reuss Voigt Hill
#
# Bulk Modulus (GPa) = 50.50548 57.66420 54.08484
# Shear Modulus (GPa) = 21.00478 25.79952 23.40215
#
# Velocity S-wave (km/s) = 3.36997 3.73484 3.55709
# Velocity P-wave (km/s) = 6.51529 7.05522 6.79062
#
# Compressibility (1/GPa) = 0.01979983
#
# Stress axis : x y z
#
# Youngs Moduli (GPa) = 49.37710 55.27554 86.64541
#
# Poissons Ratio (x) = 0.52673 -0.00933
# Poissons Ratio (y) = 0.47052 0.48703
# Poissons Ratio (z) = -0.00532 0.31070
#
# Static dielectric constant tensor:
#      x y z
#    x 1.627960 0.000000 0.009750 
#    y 0.000000 1.626220 0.000000 
#    z 0.009750 0.000000 1.734020 
# 
# From -- ./inp_files/88855.got.cif
#   From: 2010.05.17/outbox.cif.g08.bks.cpg/sg15_45_cif.got.tgz:88855.got - 2010.06.03 18:47:42.
