data_PCOD9282178
_publ_section_title
;
Structure prediction by ZEFSAII (Michael W. Deem and Ramdas Pophale) SiO2 
 PCOD9282178
Probable space group: C 2/C
;
_chemical_formula_sum "Si O2"
_cell_formula_units_Z 36
_cell_length_a 8.592219
_cell_length_b 11.205749
_cell_length_c 18.757737
_cell_angle_alpha 90.000000
_cell_angle_beta 103.737243
_cell_angle_gamma 90.000000
_cell_volume 1754.375362
_symmetry_space_group_name_H-M "C 2/C"
_symmetry_group_IT_number 15
_symmetry_cell_setting 'monoclinic'
loop_
_space_group_symop_operation_xyz
x,y,z
-x,y,1/2-z
-x,-y,-z
x,-y,1/2+z
1/2+x,1/2+y,z
1/2-x,1/2+y,1/2-z
1/2-x,1/2-y,-z
1/2+x,1/2-y,1/2+z
loop_
_atom_site_type_symbol
_atom_site_label
_atom_site_fract_x
_atom_site_fract_y
_atom_site_fract_z
Si Si1 0.000000 0.665623 0.250000
Si Si2 0.872965 0.496766 0.921548
Si Si3 0.126714 0.102244 0.993711
Si Si4 0.168570 0.500016 0.861212
Si Si5 0.117041 0.237265 0.614451
O O1 0.854323 0.577536 0.212051
O O2 0.956938 0.740900 0.315328
O O3 0.725894 0.574596 0.932650
O O4 0.807502 0.363336 0.900281
O O5 0.988057 0.529984 0.868448
O O6 0.000000 0.500000 0.000000
O O7 0.017641 0.213773 0.961108
O O8 0.248907 0.090189 0.072642
O O9 0.000000 0.000000 0.000000
O O10 0.268707 0.621929 0.869863
#
# Coordination Sequence:
#
# PCOD9282178 Si02
#       5
#     4   8   8   8   8
#     4  10  22  36  54  82 114 148 188 224 274 340
#     4   9  19  34  56  85 111 137 180 227 274 332
#     4   9  19  36  60  85 108 141 189 232 275 330
#     4   9  20  38  56  82 114 145 188 230 276 337
#     4  10  21  39  59  79 114 150 180 234 281 317
#
# _framework density 20.520123999999999
#
# number of rings (size 3 to 8) (size 9 to 14) (size 15 to 20)
#    0.000    2.667    0.000    0.000    0.000   19.556 
#    0.000   11.111    0.000    0.000    0.000    0.000 
#    0.000    0.000    0.000    0.000    0.000    0.000 
#
# Total GULP energy -100207.996123 kJ/mol
# GULP energy per Si atom -5567.110896 kJ/mol
# Density = 2.047342 g / cm^3
# Si number density = 20.520124 Si / 1000 Ang^3
#
#
#
# Elastic Constant Matrix: (Units=GPa)
#
#
# Indices 1 2 3 4 5 6 
#
# 1 63.2782 20.8340 7.9980 0.0000 5.6964 0.0000
# 2 20.8340 93.2729 26.3622 0.0000 11.0491 0.0000
# 3 7.9980 26.3622 91.9254 0.0000 6.1924 0.0000
# 4 0.0000 0.0000 0.0000 38.1337 0.0000 0.2523
# 5 5.6964 11.0491 6.1924 0.0000 19.3299 0.0000
# 6 0.0000 0.0000 0.0000 0.2523 0.0000 35.4730
#
#
#
# Elastic Compliance Matrix: (Units=1/GPa)
#
#
# Indices 1 2 3 4 5 6 
#
# 1 0.017236 -0.003400 -0.000320 0.000000 -0.003033 0.000000
# 2 -0.003400 0.012991 -0.003063 0.000000 -0.005443 0.000000
# 3 -0.000320 -0.003063 0.011918 0.000000 -0.001973 0.000000
# 4 0.000000 0.000000 0.000000 0.026225 0.000000 -0.000187
# 5 -0.003033 -0.005443 -0.001973 0.000000 0.056370 0.000000
# 6 0.000000 0.000000 0.000000 -0.000187 0.000000 0.028192
#
#
# Mechanical properties :
#
#
# Convention : Reuss Voigt Hill
#
# Bulk Modulus (GPa) = 34.99203 39.87390 37.43296
# Shear Modulus (GPa) = 28.40511 31.47280 29.93896
#
# Velocity S-wave (km/s) = 3.72460 3.92056 3.82384
# Velocity P-wave (km/s) = 5.96543 6.32204 6.14632
#
# Compressibility (1/GPa) = 0.02857794
#
# Stress axis : x y z
#
# Youngs Moduli (GPa) = 58.01723 76.97526 83.90976
#
# Poissons Ratio (x) = 0.26173 0.02687
# Poissons Ratio (y) = 0.19727 0.25703
# Poissons Ratio (z) = 0.01858 0.23579
#
# Static dielectric constant tensor:
#      x y z
#    x 1.756480 0.000000 -0.000050 
#    y 0.000000 1.751220 0.000000 
#    z -0.000050 0.000000 1.765880 
# 
# From -- ./inp_files/187571.got.cif
#   From: 2010.05.17/outbox.cif.g08.bks.cpg/sg15_94_cif.got.tgz:187571.got - 2010.06.03 18:47:42.
