data_PCOD9282783
_publ_section_title
;
Structure prediction by ZEFSAII (Michael W. Deem and Ramdas Pophale) SiO2 
 PCOD9282783
Probable space group: C 2/C
;
_chemical_formula_sum "Si O2"
_cell_formula_units_Z 40
_cell_length_a 22.915120
_cell_length_b 7.358086
_cell_length_c 15.735800
_cell_angle_alpha 90.000000
_cell_angle_beta 49.318503
_cell_angle_gamma 90.000000
_cell_volume 2012.067674
_symmetry_space_group_name_H-M "C 2/C"
_symmetry_group_IT_number 15
_symmetry_cell_setting 'monoclinic'
loop_
_space_group_symop_operation_xyz
x,y,z
-x,y,1/2-z
-x,-y,-z
x,-y,1/2+z
1/2+x,1/2+y,z
1/2-x,1/2+y,1/2-z
1/2-x,1/2-y,-z
1/2+x,1/2-y,1/2+z
loop_
_atom_site_type_symbol
_atom_site_label
_atom_site_fract_x
_atom_site_fract_y
_atom_site_fract_z
Si Si1 0.176731 0.874783 0.893895
Si Si2 0.035314 0.758150 0.126743
Si Si3 0.513411 0.840520 0.330211
Si Si4 0.074377 0.197041 0.926040
Si Si5 0.335027 0.953545 0.225370
O O1 0.185447 0.701329 0.823758
O O2 0.130758 0.029489 0.885817
O O3 0.258747 0.961191 0.838762
O O4 0.121905 0.818921 0.024198
O O5 0.000000 0.816192 0.250000
O O6 0.027468 0.538910 0.131444
O O7 0.982382 0.825894 0.099481
O O8 0.500000 0.759808 0.250000
O O9 0.475395 0.729700 0.442324
O O10 0.602770 0.874216 0.267611
O O11 0.121625 0.381333 0.863111
#
# Coordination Sequence:
#
# PCOD9282783 Si02
#       5
#     8   8   8   8   8
#     4  12  22  39  65  94 126 166 209 260 321 370
#     4  10  21  39  64  95 126 165 215 256 309 375
#     4  10  21  41  65  92 127 169 215 260 305 374
#     4  11  21  40  66  88 124 173 212 261 304 377
#     4  11  22  40  62  94 129 160 211 263 317 368
#
# _framework density 19.880047999999999
#
# number of rings (size 3 to 8) (size 9 to 14) (size 15 to 20)
#    0.000    1.200    6.000    1.800    0.000    0.800 
#    0.000   12.000    0.000    0.000    0.000    0.000 
#    0.000    0.000    0.000    0.000    0.000    0.000 
#
# Total GULP energy -111800.647511 kJ/mol
# GULP energy per Si atom -5590.032376 kJ/mol
# Density = 1.983480 g / cm^3
# Si number density = 19.880048 Si / 1000 Ang^3
#
#
#
# Elastic Constant Matrix: (Units=GPa)
#
#
# Indices 1 2 3 4 5 6 
#
# 1 74.4676 25.2670 82.8448 -0.0001 -7.8179 -0.0008
# 2 25.2670 87.3035 31.0288 -0.0184 -6.7593 -0.0122
# 3 82.8448 31.0288 161.2443 -0.0014 -2.8713 -0.0025
# 4 -0.0001 -0.0184 -0.0014 -11.9196 -0.0006 -27.0275
# 5 -7.8179 -6.7593 -2.8713 -0.0006 42.1835 -0.0004
# 6 -0.0008 -0.0122 -0.0025 -27.0275 -0.0004 9.8626
#
#
#
# Elastic Compliance Matrix: (Units=1/GPa)
#
#
# Indices 1 2 3 4 5 6 
#
# 1 0.033252 -0.003469 -0.016337 0.000003 0.004495 0.000002
# 2 -0.003469 0.012797 -0.000656 -0.000008 0.001363 -0.000005
# 3 -0.016337 -0.000656 0.014684 -0.000001 -0.002133 0.000000
# 4 0.000003 -0.000008 -0.000001 -0.011630 -0.000001 -0.031870
# 5 0.004495 0.001363 -0.002133 -0.000001 0.024612 -0.000001
# 6 0.000002 -0.000005 0.000000 -0.031870 -0.000001 0.014055
#
#
# Mechanical properties :
#
#
# Convention : Reuss Voigt Hill
#
# Bulk Modulus (GPa) = 50.48248 66.81072 58.64660
# Shear Modulus (GPa) = 36.95549 20.28362 28.61956
#
# Velocity S-wave (km/s) = 4.31620 3.19768 3.79834
# Velocity P-wave (km/s) = 7.09141 6.87848 6.98575
#
# Compressibility (1/GPa) = 0.01980885
#
# Stress axis : x y z
#
# Youngs Moduli (GPa) = 30.07299 78.14345 68.10317
#
# Poissons Ratio (x) = 0.27111 1.11259
# Poissons Ratio (y) = 0.10434 0.04466
# Poissons Ratio (z) = 0.49130 0.05124
#
# Static dielectric constant tensor:
#      x y z
#    x 1.689040 0.000000 -0.013890 
#    y 0.000000 1.718460 0.000000 
#    z -0.013890 0.000000 1.693690 
# 
# From -- ./inp_files/166017.got.cif
#   From: 2010.05.17/outbox.cif.g08.bks.cpg/sg15_84_cif.got.tgz:166017.got - 2010.06.03 18:47:42.
