data_PCOD9282888
_publ_section_title
;
Structure prediction by ZEFSAII (Michael W. Deem and Ramdas Pophale) SiO2 
 PCOD9282888
Probable space group: C 2/C
;
_chemical_formula_sum "Si O2"
_cell_formula_units_Z 48
_cell_length_a 27.956141
_cell_length_b 7.767669
_cell_length_c 18.172331
_cell_angle_alpha 90.000000
_cell_angle_beta 147.231667
_cell_angle_gamma 90.000000
_cell_volume 2135.852745
_symmetry_space_group_name_H-M "C 2/C"
_symmetry_group_IT_number 15
_symmetry_cell_setting 'monoclinic'
loop_
_space_group_symop_operation_xyz
x,y,z
-x,y,1/2-z
-x,-y,-z
x,-y,1/2+z
1/2+x,1/2+y,z
1/2-x,1/2+y,1/2-z
1/2-x,1/2-y,-z
1/2+x,1/2-y,1/2+z
loop_
_atom_site_type_symbol
_atom_site_label
_atom_site_fract_x
_atom_site_fract_y
_atom_site_fract_z
Si Si1 0.077526 0.867780 0.085728
Si Si2 0.856638 0.817808 0.024381
Si Si3 0.280419 0.886313 0.190744
Si Si4 0.037028 0.249856 0.692148
Si Si5 0.228740 0.494850 0.663202
Si Si6 0.526864 0.911188 0.112500
O O1 0.083683 0.778781 0.174206
O O2 0.169641 0.954840 0.189976
O O3 0.040210 0.747100 0.973170
O O4 0.000000 0.000000 0.000000
O O5 0.899028 0.803007 0.159672
O O6 0.941797 0.839855 0.080463
O O7 0.810817 0.637315 0.942594
O O8 0.786698 0.972293 0.928245
O O9 0.233238 0.702465 0.143492
O O10 0.370346 0.857852 0.261019
O O11 0.312854 0.967963 0.310636
O O12 0.016430 0.453566 0.664310
O O13 0.500000 0.000000 0.000000
#
# Coordination Sequence:
#
# PCOD9282888 Si02
#       6
#     8   8   8   8   8   8
#     4  11  21  40  65  97 128 164 218 266 325 393
#     4  11  24  46  64  94 133 173 221 267 328 391
#     4  12  24  41  65  98 132 167 220 271 324 385
#     4  10  24  44  66  90 132 176 215 274 327 384
#     4  12  24  39  68  98 128 173 215 271 327 391
#     4  10  21  39  65  93 125 169 212 265 323 383
#
# _framework density 22.473459999999999
#
# number of rings (size 3 to 8) (size 9 to 14) (size 15 to 20)
#    0.000    1.000    3.333    5.000    2.333    2.667 
#    3.000    3.333    0.000    0.000    0.000    0.000 
#    0.000    0.000    0.000    0.000    0.000    0.000 
#
# Total GULP energy -134180.698192 kJ/mol
# GULP energy per Si atom -5590.862425 kJ/mol
# Density = 2.242231 g / cm^3
# Si number density = 22.473460 Si / 1000 Ang^3
#
#
#
# Elastic Constant Matrix: (Units=GPa)
#
#
# Indices 1 2 3 4 5 6 
#
# 1 59.6146 11.0356 30.7832 0.0000 16.2804 0.0000
# 2 11.0356 140.2666 66.9646 0.0000 0.8107 0.0000
# 3 30.7832 66.9646 134.3965 0.0000 13.6458 0.0000
# 4 0.0000 0.0000 0.0000 29.3416 0.0000 3.2086
# 5 16.2804 0.8107 13.6458 0.0000 36.2340 0.0000
# 6 0.0000 0.0000 0.0000 3.2086 0.0000 23.1801
#
#
#
# Elastic Compliance Matrix: (Units=1/GPa)
#
#
# Indices 1 2 3 4 5 6 
#
# 1 0.021027 0.000406 -0.004219 0.000000 -0.007868 0.000000
# 2 0.000406 0.009453 -0.004952 0.000000 0.001471 0.000000
# 3 -0.004219 -0.004952 0.011095 0.000000 -0.002172 0.000000
# 4 0.000000 0.000000 0.000000 0.034605 0.000000 -0.004790
# 5 -0.007868 0.001471 -0.002172 0.000000 0.031918 0.000000
# 6 0.000000 0.000000 0.000000 -0.004790 0.000000 0.043803
#
#
# Mechanical properties :
#
#
# Convention : Reuss Voigt Hill
#
# Bulk Modulus (GPa) = 41.59285 61.31606 51.45445
# Shear Modulus (GPa) = 28.17713 32.78409 30.48061
#
# Velocity S-wave (km/s) = 3.54474 3.82356 3.68678
# Velocity P-wave (km/s) = 5.94149 6.84367 6.40847
#
# Compressibility (1/GPa) = 0.02404259
#
# Stress axis : x y z
#
# Youngs Moduli (GPa) = 47.55861 105.78404 90.12876
#
# Poissons Ratio (x) = -0.04290 0.38029
# Poissons Ratio (y) = -0.01929 0.44636
# Poissons Ratio (z) = 0.20067 0.52389
#
# Static dielectric constant tensor:
#      x y z
#    x 1.902700 0.000000 0.030630 
#    y 0.000000 1.947750 0.000000 
#    z 0.030630 0.000000 1.798830 
# 
# From -- ./inp_files/258770.got.cif
#   From: 2010.05.17/outbox.cif.g08.bks.cpg/sg15_130_cif.got.tgz:258770.got - 2010.06.03 18:47:42.
