data_PCOD9282053
_publ_section_title
;
Structure prediction by ZEFSAII (Michael W. Deem and Ramdas Pophale) SiO2 
 PCOD9282053
Probable space group: C 2/C
;
_chemical_formula_sum "Si O2"
_cell_formula_units_Z 64
_cell_length_a 26.397269
_cell_length_b 16.612937
_cell_length_c 22.376691
_cell_angle_alpha 90.000000
_cell_angle_beta 17.917627
_cell_angle_gamma 90.000000
_cell_volume 3018.959575
_symmetry_space_group_name_H-M "C 2/C"
_symmetry_group_IT_number 15
_symmetry_cell_setting 'monoclinic'
loop_
_space_group_symop_operation_xyz
x,y,z
-x,y,1/2-z
-x,-y,-z
x,-y,1/2+z
1/2+x,1/2+y,z
1/2-x,1/2+y,1/2-z
1/2-x,1/2-y,-z
1/2+x,1/2-y,1/2+z
loop_
_atom_site_type_symbol
_atom_site_label
_atom_site_fract_x
_atom_site_fract_y
_atom_site_fract_z
Si Si1 0.652526 0.354340 0.222435
Si Si2 0.166884 0.878411 0.849565
Si Si3 0.509406 0.773815 0.668309
Si Si4 0.191048 0.292038 0.267171
Si Si5 0.691164 0.008209 0.402451
Si Si6 0.441891 0.117348 0.136542
Si Si7 0.518875 0.710403 0.350192
Si Si8 0.631182 0.150717 0.554617
O O1 0.518965 0.356349 0.424658
O O2 0.557742 0.314915 0.272489
O O3 0.729017 0.443710 0.140933
O O4 0.804596 0.293598 0.060840
O O5 0.233951 0.796394 0.744874
O O6 0.275603 0.894416 0.786304
O O7 0.185363 0.953872 0.784808
O O8 0.500000 0.789213 0.750000
O O9 0.415347 0.835550 0.729186
O O10 0.071127 0.335023 0.448544
O O11 0.096415 0.270637 0.312417
O O12 0.365783 0.333881 0.055106
O O13 0.539713 0.963725 0.541115
O O14 0.624986 0.085239 0.510310
O O15 0.435832 0.763591 0.392491
O O16 0.673795 0.660646 0.151172
O O17 0.500000 0.122856 0.750000
#
# Coordination Sequence:
#
# PCOD9282053 Si02
#       8
#     8   8   8   8   8   8   8   8
#     4  11  25  40  67  95 130 178 225 275 334 391
#     4  12  22  41  65  97 135 167 210 281 339 403
#     4  11  24  43  64  94 131 177 234 275 313 391
#     4  11  20  36  66  98 132 159 212 266 336 389
#     4  11  25  41  63  98 139 174 212 274 343 399
#     4  11  24  39  69  98 132 176 217 271 341 396
#     4  10  21  38  68  98 126 165 213 266 328 391
#     4  11  23  44  68  95 131 173 223 271 321 389
#
# _framework density 21.199356999999999
#
# number of rings (size 3 to 8) (size 9 to 14) (size 15 to 20)
#    0.000    1.000    5.000    2.250    5.250    3.000 
#    0.000    1.250    0.000    0.750    0.000    0.000 
#    0.000    0.000    0.000    0.000    0.000    0.000 
#
# Total GULP energy -178506.418743 kJ/mol
# GULP energy per Si atom -5578.325586 kJ/mol
# Density = 2.115111 g / cm^3
# Si number density = 21.199357 Si / 1000 Ang^3
#
#
#
# Elastic Constant Matrix: (Units=GPa)
#
#
# Indices 1 2 3 4 5 6 
#
# 1 65.0707 2.4356 22.8526 0.0206 11.6993 -0.0100
# 2 2.4356 51.7186 5.5430 0.0189 -4.6384 -0.0104
# 3 22.8526 5.5430 71.3715 0.0123 -4.6851 -0.0066
# 4 0.0206 0.0189 0.0123 10.2030 -0.0088 -1.3914
# 5 11.6993 -4.6384 -4.6851 -0.0088 20.4462 0.0090
# 6 -0.0100 -0.0104 -0.0066 -1.3914 0.0090 18.6239
#
#
#
# Elastic Compliance Matrix: (Units=1/GPa)
#
#
# Indices 1 2 3 4 5 6 
#
# 1 0.020465 -0.001406 -0.007344 -0.000040 -0.013712 0.000011
# 2 -0.001406 0.019945 -0.000760 -0.000028 0.005155 0.000006
# 3 -0.007344 -0.000760 0.016941 0.000002 0.007911 -0.000002
# 4 -0.000040 -0.000028 0.000002 0.099020 0.000056 0.007398
# 5 -0.013712 0.005155 0.007911 0.000056 0.059737 -0.000026
# 6 0.000011 0.000006 -0.000002 0.007398 -0.000026 0.054247
#
#
# Mechanical properties :
#
#
# Convention : Reuss Voigt Hill
#
# Bulk Modulus (GPa) = 26.08874 27.75814 26.92344
# Shear Modulus (GPa) = 16.54792 20.34325 18.44558
#
# Velocity S-wave (km/s) = 2.79693 3.10113 2.95295
# Velocity P-wave (km/s) = 4.77111 5.09362 4.93500
#
# Compressibility (1/GPa) = 0.03833072
#
# Stress axis : x y z
#
# Youngs Moduli (GPa) = 48.86421 50.13664 59.02870
#
# Poissons Ratio (x) = 0.07051 0.43348
# Poissons Ratio (y) = 0.06872 0.04488
# Poissons Ratio (z) = 0.35884 0.03812
#
# Static dielectric constant tensor:
#      x y z
#    x 1.816500 -0.000010 -0.016310 
#    y -0.000010 1.752980 0.000010 
#    z -0.016310 0.000010 1.849930 
# 
# From -- ./inp_files/255982.got.cif
#   From: 2010.05.17/outbox.cif.g08.bks.cpg/sg15_128_cif.got.tgz:255982.got - 2010.06.03 18:47:42.
