data_PCOD9282997
_publ_section_title
;
Structure prediction by ZEFSAII (Michael W. Deem and Ramdas Pophale) SiO2 
 PCOD9282997
Probable space group: C 2/C
;
_chemical_formula_sum "Si O2"
_cell_formula_units_Z 48
_cell_length_a 19.307445
_cell_length_b 7.211906
_cell_length_c 18.081922
_cell_angle_alpha 90.000000
_cell_angle_beta 117.645409
_cell_angle_gamma 90.000000
_cell_volume 2230.349078
_symmetry_space_group_name_H-M "C 2/C"
_symmetry_group_IT_number 15
_symmetry_cell_setting 'monoclinic'
loop_
_space_group_symop_operation_xyz
x,y,z
-x,y,1/2-z
-x,-y,-z
x,-y,1/2+z
1/2+x,1/2+y,z
1/2-x,1/2+y,1/2-z
1/2-x,1/2-y,-z
1/2+x,1/2-y,1/2+z
loop_
_atom_site_type_symbol
_atom_site_label
_atom_site_fract_x
_atom_site_fract_y
_atom_site_fract_z
Si Si1 0.152783 0.389355 0.905651
Si Si2 0.914779 0.486636 0.383727
Si Si3 0.316880 0.662274 0.295833
Si Si4 0.665547 0.438587 0.523046
Si Si5 0.583031 0.169939 0.968384
Si Si6 0.857265 0.225973 0.761738
O O1 0.243160 0.455659 0.954100
O O2 0.102663 0.567554 0.902020
O O3 0.138700 0.299651 0.819177
O O4 0.136650 0.230994 0.958561
O O5 0.860189 0.356376 0.307110
O O6 0.879488 0.554032 0.444459
O O7 0.925171 0.678070 0.343670
O O8 0.991211 0.362752 0.435796
O O9 0.333672 0.608386 0.389626
O O10 0.224882 0.702482 0.243289
O O11 0.349873 0.495248 0.263321
O O12 0.615587 0.623552 0.486089
#
# Coordination Sequence:
#
# PCOD9282997 Si02
#       6
#     8   8   8   8   8   8
#     4  10  23  40  62  96 128 160 213 268 314 366
#     4  11  24  39  64  94 124 171 211 255 315 386
#     4  11  21  40  65  92 122 160 218 257 314 374
#     4  10  21  39  66  93 119 170 212 260 311 377
#     4  11  23  41  63  91 131 166 211 257 314 386
#     4  11  23  39  65  93 125 162 207 273 312 367
#
# _framework density 21.521294000000001
#
# number of rings (size 3 to 8) (size 9 to 14) (size 15 to 20)
#    0.000    1.333    5.000    0.500    0.000    4.000 
#    0.000    0.000    0.000    0.000    0.000    0.000 
#    0.000    0.000    0.000    0.000    0.000    0.000 
#
# Total GULP energy -134030.374072 kJ/mol
# GULP energy per Si atom -5584.598920 kJ/mol
# Density = 2.147231 g / cm^3
# Si number density = 21.521294 Si / 1000 Ang^3
#
#
#
# Elastic Constant Matrix: (Units=GPa)
#
#
# Indices 1 2 3 4 5 6 
#
# 1 24.9501 6.9100 -0.0198 0.0000 4.1197 0.0000
# 2 6.9100 75.5709 -1.0181 0.0000 21.4361 0.0000
# 3 -0.0198 -1.0181 46.7829 0.0000 -1.7263 0.0000
# 4 0.0000 0.0000 0.0000 35.5271 0.0000 -2.9483
# 5 4.1197 21.4361 -1.7263 0.0000 6.8624 0.0000
# 6 0.0000 0.0000 0.0000 -2.9483 0.0000 30.8708
#
#
#
# Elastic Compliance Matrix: (Units=1/GPa)
#
#
# Indices 1 2 3 4 5 6 
#
# 1 0.055606 0.041064 -0.005095 0.000000 -0.162936 0.000000
# 2 0.041064 0.152299 -0.015275 0.000000 -0.504229 0.000000
# 3 -0.005095 -0.015275 0.023129 0.000000 0.056591 0.000000
# 4 0.000000 0.000000 0.000000 0.028372 0.000000 0.002710
# 5 -0.162936 -0.504229 0.056591 0.000000 1.832825 0.000000
# 6 0.000000 0.000000 0.000000 0.002710 0.000000 0.032652
#
#
# Mechanical properties :
#
#
# Convention : Reuss Voigt Hill
#
# Bulk Modulus (GPa) = 3.67077 17.67203 10.67140
# Shear Modulus (GPa) = 2.29959 24.08085 13.19022
#
# Velocity S-wave (km/s) = 1.03481 3.34867 2.47835
# Velocity P-wave (km/s) = 1.77119 4.81464 3.62752
#
# Compressibility (1/GPa) = 0.27242271
#
# Stress axis : x y z
#
# Youngs Moduli (GPa) = 17.98357 6.56603 43.23570
#
# Poissons Ratio (x) = -0.26963 0.22030
# Poissons Ratio (y) = -0.73848 0.66042
# Poissons Ratio (z) = 0.09163 0.10030
#
# Static dielectric constant tensor:
#      x y z
#    x 1.794440 0.000000 0.027900 
#    y 0.000000 1.769450 0.000000 
#    z 0.027900 0.000000 1.820030 
# 
# From -- ./inp_files/254472.got.cif
#   From: 2010.05.17/outbox.cif.g08.bks.cpg/sg15_128_cif.got.tgz:254472.got - 2010.06.03 18:47:42.
