data_PCOD9282650
_publ_section_title
;
Structure prediction by ZEFSAII (Michael W. Deem and Ramdas Pophale) SiO2 
 PCOD9282650
Probable space group: C 2/C
;
_chemical_formula_sum "Si O2"
_cell_formula_units_Z 40
_cell_length_a 11.679714
_cell_length_b 10.156860
_cell_length_c 18.121531
_cell_angle_alpha 90.000000
_cell_angle_beta 129.020321
_cell_angle_gamma 90.000000
_cell_volume 1670.184230
_symmetry_space_group_name_H-M "C 2/C"
_symmetry_group_IT_number 15
_symmetry_cell_setting 'monoclinic'
loop_
_space_group_symop_operation_xyz
x,y,z
-x,y,1/2-z
-x,-y,-z
x,-y,1/2+z
1/2+x,1/2+y,z
1/2-x,1/2+y,1/2-z
1/2-x,1/2-y,-z
1/2+x,1/2-y,1/2+z
loop_
_atom_site_type_symbol
_atom_site_label
_atom_site_fract_x
_atom_site_fract_y
_atom_site_fract_z
Si Si1 0.709791 0.669745 0.821538
Si Si2 0.939550 0.934282 0.383815
Si Si3 0.851577 0.459346 0.651494
Si Si4 0.484251 0.290220 0.543343
Si Si5 0.846061 0.466586 0.979257
O O1 0.609243 0.627947 0.712432
O O2 0.655800 0.803047 0.837501
O O3 0.876885 0.712106 0.866133
O O4 0.727674 0.547879 0.884325
O O5 0.018058 0.834109 0.472158
O O6 0.787879 0.975251 0.364387
O O7 0.028100 0.072266 0.418310
O O8 0.852599 0.485576 0.565475
O O9 0.000000 0.510052 0.750000
O O10 0.347492 0.191778 0.481239
O O11 0.000000 0.500000 0.000000
#
# Coordination Sequence:
#
# PCOD9282650 Si02
#       5
#     8   8   8   8   8
#     4  10  22  38  68  95 132 177 223 272 334 398
#     4  10  22  41  66  98 131 179 222 273 334 393
#     4  11  23  39  65  98 131 176 226 272 329 409
#     4   9  21  39  67  91 136 174 222 272 332 391
#     4  10  21  39  63  94 129 174 218 272 328 383
#
# _framework density 23.949455
#
# number of rings (size 3 to 8) (size 9 to 14) (size 15 to 20)
#    0.000    2.000    0.000    3.000   11.200    0.800 
#    3.600    0.000    0.000    0.000    0.000    0.000 
#    0.000    0.000    0.000    0.000    0.000    0.000 
#
# Total GULP energy -111908.516027 kJ/mol
# GULP energy per Si atom -5595.425801 kJ/mol
# Density = 2.389495 g / cm^3
# Si number density = 23.949455 Si / 1000 Ang^3
#
#
#
# Elastic Constant Matrix: (Units=GPa)
#
#
# Indices 1 2 3 4 5 6 
#
# 1 83.8274 23.0700 22.7298 0.0000 -7.8106 0.0000
# 2 23.0700 136.0901 59.2822 0.0000 -23.0535 0.0000
# 3 22.7298 59.2822 180.4670 0.0000 -17.5699 0.0000
# 4 0.0000 0.0000 0.0000 46.5590 0.0000 4.9953
# 5 -7.8106 -23.0535 -17.5699 0.0000 45.2044 0.0000
# 6 0.0000 0.0000 0.0000 4.9953 0.0000 42.8134
#
#
#
# Elastic Compliance Matrix: (Units=1/GPa)
#
#
# Indices 1 2 3 4 5 6 
#
# 1 0.012721 -0.001551 -0.000993 0.000000 0.001021 0.000000
# 2 -0.001551 0.009301 -0.002520 0.000000 0.003496 0.000000
# 3 -0.000993 -0.002520 0.006602 0.000000 0.001109 0.000000
# 4 0.000000 0.000000 0.000000 0.021750 0.000000 -0.002538
# 5 0.001021 0.003496 0.001109 0.000000 0.024512 0.000000
# 6 0.000000 0.000000 0.000000 -0.002538 0.000000 0.023653
#
#
# Mechanical properties :
#
#
# Convention : Reuss Voigt Hill
#
# Bulk Modulus (GPa) = 54.06586 67.83871 60.95229
# Shear Modulus (GPa) = 43.54200 46.60220 45.07210
#
# Velocity S-wave (km/s) = 4.26852 4.41597 4.34287
# Velocity P-wave (km/s) = 6.84965 7.37485 7.11709
#
# Compressibility (1/GPa) = 0.01849596
#
# Stress axis : x y z
#
# Youngs Moduli (GPa) = 78.61319 107.51872 151.47017
#
# Poissons Ratio (x) = 0.16673 0.15046
# Poissons Ratio (y) = 0.12191 0.38164
# Poissons Ratio (z) = 0.07809 0.27090
#
# Static dielectric constant tensor:
#      x y z
#    x 1.989310 0.000000 0.046550 
#    y 0.000000 1.942650 0.000000 
#    z 0.046550 0.000000 1.845160 
# 
# From -- ./inp_files/150952.got.cif
#   From: 2010.05.17/outbox.cif.g08.bks.cpg/sg15_76_cif.got.tgz:150952.got - 2010.06.03 18:47:42.
