data_PCOD9282008
_publ_section_title
;
Structure prediction by ZEFSAII (Michael W. Deem and Ramdas Pophale) SiO2 
 PCOD9282008
Probable space group: C 2/C
;
_chemical_formula_sum "Si O2"
_cell_formula_units_Z 60
_cell_length_a 17.368693
_cell_length_b 28.228795
_cell_length_c 5.404474
_cell_angle_alpha 90.000000
_cell_angle_beta 72.528216
_cell_angle_gamma 90.000000
_cell_volume 2527.550191
_symmetry_space_group_name_H-M "C 2/C"
_symmetry_group_IT_number 15
_symmetry_cell_setting 'monoclinic'
loop_
_space_group_symop_operation_xyz
x,y,z
-x,y,1/2-z
-x,-y,-z
x,-y,1/2+z
1/2+x,1/2+y,z
1/2-x,1/2+y,1/2-z
1/2-x,1/2-y,-z
1/2+x,1/2-y,1/2+z
loop_
_atom_site_type_symbol
_atom_site_label
_atom_site_fract_x
_atom_site_fract_y
_atom_site_fract_z
Si Si1 0.275016 0.986909 0.396746
Si Si2 0.789532 0.212172 0.738469
Si Si3 0.120865 0.742066 0.774792
Si Si4 0.000000 0.969659 0.250000
Si Si5 0.046803 0.641992 0.947276
Si Si6 0.581820 0.663535 0.518616
Si Si7 0.770446 0.614187 0.772096
Si Si8 0.839351 0.073198 0.042153
O O1 0.254793 0.931532 0.459619
O O2 0.319632 0.008711 0.588966
O O3 0.198677 0.020168 0.388752
O O4 0.837666 0.250931 0.532397
O O5 0.699816 0.233675 0.877947
O O6 0.850470 0.185254 0.861671
O O7 0.760373 0.165165 0.607052
O O8 0.064708 0.697680 0.881366
O O9 0.073251 0.790812 0.855072
O O10 0.081192 0.939731 0.192515
O O11 0.000000 0.000000 0.500000
O O12 0.134912 0.618970 0.865837
O O13 0.000000 0.624063 0.750000
O O14 0.000000 0.635837 0.250000
O O15 0.500000 0.654998 0.750000
O O16 0.617762 0.616618 0.349277
O O17 0.727673 0.598887 0.559321
#
# Coordination Sequence:
#
# PCOD9282008 Si02
#       8
#     8   8   8   4   8   8   8   8
#     4  10  21  38  67  95 128 170 218 269 330 398
#     4   9  21  40  60  93 126 174 231 277 334 405
#     4  10  22  39  63  91 129 179 223 282 337 403
#     4  12  24  44  66  96 138 180 226 278 328 398
#     4  11  26  46  71 102 138 179 229 287 350 416
#     4  11  22  37  59  90 134 174 223 276 336 398
#     4   9  21  44  69  99 135 182 229 284 345 415
#     4  10  22  42  63  98 132 178 228 276 340 402
#
# _framework density 23.738399999999999
#
# number of rings (size 3 to 8) (size 9 to 14) (size 15 to 20)
#    0.000    1.867    0.667    2.400    5.600    2.133 
#   12.000    0.000    0.000    9.600    0.000    0.000 
#    0.000    0.000    0.000    0.000    0.000    0.000 
#
# Total GULP energy -167041.489656 kJ/mol
# GULP energy per Si atom -5568.049655 kJ/mol
# Density = 2.368437 g / cm^3
# Si number density = 23.738400 Si / 1000 Ang^3
#
#
#
# Elastic Constant Matrix: (Units=GPa)
#
#
# Indices 1 2 3 4 5 6 
#
# 1 118.2750 23.0183 29.6659 0.0000 -8.4890 0.0000
# 2 23.0183 136.5935 5.4539 0.0000 -18.1084 0.0000
# 3 29.6659 5.4539 48.0407 0.0000 -6.3658 0.0000
# 4 0.0000 0.0000 0.0000 25.6879 0.0000 -5.5600
# 5 -8.4890 -18.1084 -6.3658 0.0000 32.6310 0.0000
# 6 0.0000 0.0000 0.0000 -5.5600 0.0000 23.8116
#
#
#
# Elastic Compliance Matrix: (Units=1/GPa)
#
#
# Indices 1 2 3 4 5 6 
#
# 1 0.010312 -0.001399 -0.006114 0.000000 0.000713 0.000000
# 2 -0.001399 0.008097 0.000505 0.000000 0.004228 0.000000
# 3 -0.006114 0.000505 0.025007 0.000000 0.003568 0.000000
# 4 0.000000 0.000000 0.000000 0.041001 0.000000 0.009574
# 5 0.000713 0.004228 0.003568 0.000000 0.033874 0.000000
# 6 0.000000 0.000000 0.000000 0.009574 0.000000 0.044232
#
#
# Mechanical properties :
#
#
# Convention : Reuss Voigt Hill
#
# Bulk Modulus (GPa) = 34.01485 46.57613 40.29549
# Shear Modulus (GPa) = 26.83277 32.74418 29.78847
#
# Velocity S-wave (km/s) = 3.36572 3.71802 3.54625
# Velocity P-wave (km/s) = 5.42810 6.17210 5.81201
#
# Compressibility (1/GPa) = 0.02939893
#
# Stress axis : x y z
#
# Youngs Moduli (GPa) = 96.97455 123.50097 39.98897
#
# Poissons Ratio (x) = 0.17278 0.24451
# Poissons Ratio (y) = 0.13567 -0.02019
# Poissons Ratio (z) = 0.59295 -0.06236
#
# Static dielectric constant tensor:
#      x y z
#    x 1.876490 0.000000 0.038540 
#    y 0.000000 2.011950 0.000000 
#    z 0.038540 0.000000 2.083330 
# 
# From -- ./inp_files/12146.got.cif
#   From: 2010.05.17/outbox.cif.g08.bks.cpg/sg15_7_cif.got.tgz:12146.got - 2010.06.03 18:47:42.
