data_PCOD9282046
_publ_section_title
;
Structure prediction by ZEFSAII (Michael W. Deem and Ramdas Pophale) SiO2 
 PCOD9282046
Probable space group: C 2/C
;
_chemical_formula_sum "Si O2"
_cell_formula_units_Z 56
_cell_length_a 17.895950
_cell_length_b 14.972017
_cell_length_c 11.038039
_cell_angle_alpha 90.000000
_cell_angle_beta 121.023924
_cell_angle_gamma 90.000000
_cell_volume 2534.449117
_symmetry_space_group_name_H-M "C 2/C"
_symmetry_group_IT_number 15
_symmetry_cell_setting 'monoclinic'
loop_
_space_group_symop_operation_xyz
x,y,z
-x,y,1/2-z
-x,-y,-z
x,-y,1/2+z
1/2+x,1/2+y,z
1/2-x,1/2+y,1/2-z
1/2-x,1/2-y,-z
1/2+x,1/2-y,1/2+z
loop_
_atom_site_type_symbol
_atom_site_label
_atom_site_fract_x
_atom_site_fract_y
_atom_site_fract_z
Si Si1 0.103138 0.060947 0.622482
Si Si2 0.446998 0.022378 0.078743
Si Si3 0.751544 0.703457 0.697028
Si Si4 0.500000 0.653449 0.750000
Si Si5 0.000000 0.247569 0.250000
Si Si6 0.941221 0.876788 0.871806
Si Si7 0.349479 0.851895 0.035370
Si Si8 0.392862 0.227629 0.011287
O O1 0.182092 0.127091 0.669268
O O2 0.045250 0.088636 0.690081
O O3 0.035582 0.076791 0.455991
O O4 0.124373 0.955832 0.651345
O O5 0.500000 0.009957 0.250000
O O6 0.364214 0.955253 0.016288
O O7 0.421018 0.125900 0.047037
O O8 0.500000 0.000000 0.000000
O O9 0.707457 0.791912 0.602883
O O10 0.813210 0.662784 0.641744
O O11 0.801987 0.727177 0.863083
O O12 0.418143 0.720546 0.654494
O O13 0.072234 0.178918 0.259998
O O14 0.052655 0.310513 0.383855
O O15 0.946759 0.795196 0.970154
#
# Coordination Sequence:
#
# PCOD9282046 Si02
#       8
#     8   8   8   4   4   8   8   8
#     4  10  22  41  64  95 134 180 231 285 351 429
#     4  12  25  44  76 105 139 193 255 301 350 439
#     4  11  24  43  66 102 144 178 231 311 373 422
#     4  10  23  43  66  96 136 186 247 285 360 450
#     4  12  17  39  72  92 122 170 237 291 328 428
#     4  10  21  38  68  95 125 179 233 280 334 434
#     4  11  24  42  71 104 132 183 244 297 362 429
#     4  11  23  43  64  97 142 182 230 294 372 430
#
# _framework density 22.095531999999999
#
# number of rings (size 3 to 8) (size 9 to 14) (size 15 to 20)
#    0.000    1.143    4.286    2.143    2.000    1.714 
#    0.000    1.429    0.000    0.000    0.000    0.000 
#    0.000    0.000    0.000    0.000    0.000    0.000 
#
# Total GULP energy -155969.128164 kJ/mol
# GULP energy per Si atom -5570.326006 kJ/mol
# Density = 2.204524 g / cm^3
# Si number density = 22.095532 Si / 1000 Ang^3
#
#
#
# Elastic Constant Matrix: (Units=GPa)
#
#
# Indices 1 2 3 4 5 6 
#
# 1 68.3723 40.2291 13.7561 0.0000 -0.2570 0.0000
# 2 40.2291 173.8855 38.0308 0.0000 -7.7727 0.0000
# 3 13.7561 38.0308 90.3821 0.0000 11.5414 0.0000
# 4 0.0000 0.0000 0.0000 37.2156 0.0000 0.3559
# 5 -0.2570 -7.7727 11.5414 0.0000 24.6742 0.0000
# 6 0.0000 0.0000 0.0000 0.3559 0.0000 11.1162
#
#
#
# Elastic Compliance Matrix: (Units=1/GPa)
#
#
# Indices 1 2 3 4 5 6 
#
# 1 0.017024 -0.003759 -0.000937 0.000000 -0.000569 0.000000
# 2 -0.003759 0.007452 -0.003040 0.000000 0.003730 0.000000
# 3 -0.000937 -0.003040 0.013410 0.000000 -0.007240 0.000000
# 4 0.000000 0.000000 0.000000 0.026879 0.000000 -0.000860
# 5 -0.000569 0.003730 -0.007240 0.000000 0.045084 0.000000
# 6 0.000000 0.000000 0.000000 -0.000860 0.000000 0.089986
#
#
# Mechanical properties :
#
#
# Convention : Reuss Voigt Hill
#
# Bulk Modulus (GPa) = 44.61283 57.40800 51.01041
# Shear Modulus (GPa) = 22.44385 30.64280 26.54332
#
# Velocity S-wave (km/s) = 3.19056 3.72806 3.46973
# Velocity P-wave (km/s) = 5.81443 6.67603 6.26007
#
# Compressibility (1/GPa) = 0.02241508
#
# Stress axis : x y z
#
# Youngs Moduli (GPa) = 58.74089 134.18830 74.56915
#
# Poissons Ratio (x) = 0.50443 0.06985
# Poissons Ratio (y) = 0.22081 0.22669
# Poissons Ratio (z) = 0.05502 0.40792
#
# Static dielectric constant tensor:
#      x y z
#    x 1.854660 0.000000 -0.069850 
#    y 0.000000 1.828410 0.000000 
#    z -0.069850 0.000000 1.998210 
# 
# From -- ./inp_files/105835.got.cif
#   From: 2010.05.17/outbox.cif.g08.bks.cpg/sg15_53_cif.got.tgz:105835.got - 2010.06.03 18:47:42.
