data_PCOD9282397
_publ_section_title
;
Structure prediction by ZEFSAII (Michael W. Deem and Ramdas Pophale) SiO2 
 PCOD9282397
Probable space group: C 2/C
;
_chemical_formula_sum "Si O2"
_cell_formula_units_Z 56
_cell_length_a 12.349242
_cell_length_b 21.420484
_cell_length_c 9.230901
_cell_angle_alpha 90.000000
_cell_angle_beta 101.180238
_cell_angle_gamma 90.000000
_cell_volume 2395.479514
_symmetry_space_group_name_H-M "C 2/C"
_symmetry_group_IT_number 15
_symmetry_cell_setting 'monoclinic'
loop_
_space_group_symop_operation_xyz
x,y,z
-x,y,1/2-z
-x,-y,-z
x,-y,1/2+z
1/2+x,1/2+y,z
1/2-x,1/2+y,1/2-z
1/2-x,1/2-y,-z
1/2+x,1/2-y,1/2+z
loop_
_atom_site_type_symbol
_atom_site_label
_atom_site_fract_x
_atom_site_fract_y
_atom_site_fract_z
Si Si1 0.821769 0.474787 0.675729
Si Si2 0.881938 0.876947 0.581283
Si Si3 0.355354 0.740619 0.922973
Si Si4 0.900315 0.581144 0.901018
Si Si5 0.604207 0.408427 0.581024
Si Si6 0.630636 0.881768 0.551108
Si Si7 0.775460 0.187505 0.597705
O O1 0.849503 0.538227 0.763610
O O2 0.883097 0.459577 0.542985
O O3 0.692372 0.464422 0.607649
O O4 0.858657 0.421802 0.800130
O O5 0.922851 0.810504 0.529838
O O6 0.882769 0.878047 0.755326
O O7 0.752890 0.886374 0.510801
O O8 0.974219 0.923496 0.542533
O O9 0.397253 0.810416 0.914391
O O10 0.326026 0.710174 0.762278
O O11 0.250000 0.750000 0.000000
O O12 0.970937 0.596288 0.571885
O O13 0.832568 0.645402 0.899983
O O14 0.645640 0.359843 0.470788
O O15 0.750000 0.250000 0.500000
#
# Coordination Sequence:
#
# PCOD9282397 Si02
#       7
#     8   8   8   8   8   8   8
#     4  10  22  42  66  96 135 174 237 282 353 426
#     4   9  19  39  65  93 132 182 233 285 349 423
#     4  10  21  39  61  97 139 176 232 288 347 433
#     4  11  24  42  70 100 133 187 229 297 358 428
#     4   9  20  40  66  93 132 183 226 289 349 417
#     4  10  21  40  64  98 135 178 226 289 357 413
#     4  11  23  40  65 101 137 180 232 292 365 428
#
# _framework density 23.377367
#
# number of rings (size 3 to 8) (size 9 to 14) (size 15 to 20)
#    0.000    2.000    0.000    4.286    2.000    4.000 
#    0.000    5.000    0.000   60.000    0.000    0.000 
#    0.000    0.000    0.000    0.000    0.000    0.000 
#
# Total GULP energy -156534.634326 kJ/mol
# GULP energy per Si atom -5590.522654 kJ/mol
# Density = 2.332416 g / cm^3
# Si number density = 23.377367 Si / 1000 Ang^3
#
#
#
# Elastic Constant Matrix: (Units=GPa)
#
#
# Indices 1 2 3 4 5 6 
#
# 1 181.1788 65.8541 43.7885 0.0000 3.1135 0.0000
# 2 65.8541 139.2254 66.3171 0.0000 4.7720 0.0000
# 3 43.7885 66.3171 85.4095 0.0000 -11.5052 0.0000
# 4 0.0000 0.0000 0.0000 44.7476 0.0000 10.4683
# 5 3.1135 4.7720 -11.5052 0.0000 19.3183 0.0000
# 6 0.0000 0.0000 0.0000 10.4683 0.0000 24.9793
#
#
#
# Elastic Compliance Matrix: (Units=1/GPa)
#
#
# Indices 1 2 3 4 5 6 
#
# 1 0.006844 -0.002209 -0.002032 0.000000 -0.001767 0.000000
# 2 -0.002209 0.013673 -0.010754 0.000000 -0.009426 0.000000
# 3 -0.002032 -0.010754 0.023377 0.000000 0.016906 0.000000
# 4 0.000000 0.000000 0.000000 0.024777 0.000000 -0.010383
# 5 -0.001767 -0.009426 0.016906 0.000000 0.064446 0.000000
# 6 0.000000 0.000000 0.000000 -0.010383 0.000000 0.044385
#
#
# Mechanical properties :
#
#
# Convention : Reuss Voigt Hill
#
# Bulk Modulus (GPa) = 71.91549 84.19257 78.05403
# Shear Modulus (GPa) = 23.57111 33.13264 28.35188
#
# Velocity S-wave (km/s) = 3.17880 3.76878 3.48629
# Velocity P-wave (km/s) = 6.65603 7.41829 7.04747
#
# Compressibility (1/GPa) = 0.01390521
#
# Stress axis : x y z
#
# Youngs Moduli (GPa) = 146.12101 73.13865 42.77690
#
# Poissons Ratio (x) = 0.16154 0.08691
# Poissons Ratio (y) = 0.32274 0.46001
# Poissons Ratio (z) = 0.29689 0.78651
#
# Static dielectric constant tensor:
#      x y z
#    x 1.942740 0.000000 -0.001630 
#    y 0.000000 1.952030 0.000000 
#    z -0.001630 0.000000 1.845420 
# 
# From -- ./inp_files/49750.got.cif
#   From: 2010.05.17/outbox.cif.g08.bks.cpg/sg15_25_cif.got.tgz:49750.got - 2010.06.03 18:47:42.
