data_PCOD9282576
_publ_section_title
;
Structure prediction by ZEFSAII (Michael W. Deem and Ramdas Pophale) SiO2 
 PCOD9282576
Probable space group: C 2/C
;
_chemical_formula_sum "Si O2"
_cell_formula_units_Z 48
_cell_length_a 16.439857
_cell_length_b 6.612860
_cell_length_c 20.576195
_cell_angle_alpha 90.000000
_cell_angle_beta 77.611194
_cell_angle_gamma 90.000000
_cell_volume 2184.841511
_symmetry_space_group_name_H-M "C 2/C"
_symmetry_group_IT_number 15
_symmetry_cell_setting 'monoclinic'
loop_
_space_group_symop_operation_xyz
x,y,z
-x,y,1/2-z
-x,-y,-z
x,-y,1/2+z
1/2+x,1/2+y,z
1/2-x,1/2+y,1/2-z
1/2-x,1/2-y,-z
1/2+x,1/2-y,1/2+z
loop_
_atom_site_type_symbol
_atom_site_label
_atom_site_fract_x
_atom_site_fract_y
_atom_site_fract_z
Si Si1 0.209749 0.455428 0.149158
Si Si2 0.829943 0.822527 0.025816
Si Si3 0.027712 0.884264 0.312938
Si Si4 0.308007 0.786574 0.728150
Si Si5 0.559072 0.734875 0.105102
Si Si6 0.923500 0.549834 0.108596
O O1 0.289135 0.467270 0.086972
O O2 0.231333 0.276576 0.196860
O O3 0.202059 0.649842 0.196237
O O4 0.127416 0.387073 0.124465
O O5 0.872956 0.636097 0.056510
O O6 0.750000 0.750000 0.000000
O O7 0.895884 0.888735 0.960421
O O8 0.977317 0.085231 0.334804
O O9 0.000000 0.785954 0.250000
O O10 0.127487 0.901509 0.288897
O O11 0.018092 0.732834 0.375040
O O12 0.358135 0.961757 0.679986
O O13 0.480820 0.857825 0.090058
#
# Coordination Sequence:
#
# PCOD9282576 Si02
#       6
#     8   8   8   8   8   8
#     4  10  21  39  63  89 128 166 204 259 317 376
#     4   9  20  41  62  91 125 169 211 249 313 385
#     4  10  23  37  60  97 124 155 215 258 311 372
#     4   9  22  38  59  91 124 161 208 257 315 372
#     4  11  22  36  70  86 126 167 206 262 316 364
#     4   9  21  40  61  94 121 162 209 265 305 370
#
# _framework density 21.969557999999999
#
# number of rings (size 3 to 8) (size 9 to 14) (size 15 to 20)
#    1.000    1.333    0.000    1.500    4.667    0.667 
#    0.000    0.000    7.333    5.000    0.000    0.000 
#    0.000    0.000    0.000    0.000    0.000    0.000 
#
# Total GULP energy -133639.135990 kJ/mol
# GULP energy per Si atom -5568.297333 kJ/mol
# Density = 2.191955 g / cm^3
# Si number density = 21.969558 Si / 1000 Ang^3
#
#
#
# Elastic Constant Matrix: (Units=GPa)
#
#
# Indices 1 2 3 4 5 6 
#
# 1 86.7826 21.9312 43.1132 0.0000 8.5386 0.0000
# 2 21.9312 18.9464 13.1816 0.0000 -13.8429 0.0000
# 3 43.1132 13.1816 109.5116 0.0000 0.4033 0.0000
# 4 0.0000 0.0000 0.0000 25.4388 0.0000 -6.7215
# 5 8.5386 -13.8429 0.4033 0.0000 34.9578 0.0000
# 6 0.0000 0.0000 0.0000 -6.7215 0.0000 22.0643
#
#
#
# Elastic Compliance Matrix: (Units=1/GPa)
#
#
# Indices 1 2 3 4 5 6 
#
# 1 0.029610 -0.050200 -0.005515 0.000000 -0.027047 0.000000
# 2 -0.050200 0.169570 -0.000940 0.000000 0.079420 0.000000
# 3 -0.005515 -0.000940 0.011413 0.000000 0.000843 0.000000
# 4 0.000000 0.000000 0.000000 0.042751 0.000000 0.013023
# 5 -0.027047 0.079420 0.000843 0.000000 0.066652 0.000000
# 6 0.000000 0.000000 0.000000 0.013023 0.000000 0.049289
#
#
# Mechanical properties :
#
#
# Convention : Reuss Voigt Hill
#
# Bulk Modulus (GPa) = 10.27932 41.29918 25.78925
# Shear Modulus (GPa) = 9.70830 25.62650 17.66740
#
# Velocity S-wave (km/s) = 2.10442 3.41905 2.83888
# Velocity P-wave (km/s) = 3.25481 5.86734 4.74444
#
# Compressibility (1/GPa) = 0.09728272
#
# Stress axis : x y z
#
# Youngs Moduli (GPa) = 33.77201 5.89727 87.62129
#
# Poissons Ratio (x) = 0.29604 0.48324
# Poissons Ratio (y) = 1.69535 0.08239
# Poissons Ratio (z) = 0.18626 0.00555
#
# Static dielectric constant tensor:
#      x y z
#    x 1.840880 0.000000 -0.017520 
#    y 0.000000 1.829810 0.000000 
#    z -0.017520 0.000000 1.867270 
# 
# From -- ./inp_files/275634.got.cif
#   From: 2010.05.17/outbox.cif.g08.bks.cpg/sg15_138_cif.got.tgz:275634.got - 2010.06.03 18:47:42.
