data_PCOD9282540
_publ_section_title
;
Structure prediction by ZEFSAII (Michael W. Deem and Ramdas Pophale) SiO2 
 PCOD9282540
Probable space group: C 2/C
;
_chemical_formula_sum "Si O2"
_cell_formula_units_Z 40
_cell_length_a 8.087755
_cell_length_b 27.618611
_cell_length_c 8.429176
_cell_angle_alpha 90.000000
_cell_angle_beta 58.060858
_cell_angle_gamma 90.000000
_cell_volume 1597.803376
_symmetry_space_group_name_H-M "C 2/C"
_symmetry_group_IT_number 15
_symmetry_cell_setting 'monoclinic'
loop_
_space_group_symop_operation_xyz
x,y,z
-x,y,1/2-z
-x,-y,-z
x,-y,1/2+z
1/2+x,1/2+y,z
1/2-x,1/2+y,1/2-z
1/2-x,1/2-y,-z
1/2+x,1/2-y,1/2+z
loop_
_atom_site_type_symbol
_atom_site_label
_atom_site_fract_x
_atom_site_fract_y
_atom_site_fract_z
Si Si1 0.177765 0.308816 0.284754
Si Si2 0.085207 0.585961 0.956099
Si Si3 0.726816 0.602936 0.311827
Si Si4 0.925055 0.204412 0.106135
Si Si5 0.915012 0.951002 0.114930
O O1 0.153448 0.359248 0.385608
O O2 0.000000 0.309539 0.250000
O O3 0.150659 0.258269 0.389500
O O4 0.388847 0.306335 0.097084
O O5 0.186334 0.553284 0.770869
O O6 0.174682 0.577812 0.085291
O O7 0.853242 0.585326 0.098646
O O8 0.730780 0.661063 0.322308
O O9 0.502004 0.588590 0.449378
O O10 0.000000 0.204111 0.250000
O O11 0.000000 0.943453 0.250000
O O12 0.000000 0.000000 0.000000
#
# Coordination Sequence:
#
# PCOD9282540 Si02
#       5
#     8   8   8   8   8
#     4  11  21  36  56  87 125 163 201 249 294 355
#     4  10  21  40  61  86 121 157 204 247 302 358
#     4  10  21  39  63  86 119 161 196 253 299 356
#     4  11  21  35  57  86 126 162 205 246 295 357
#     4  10  22  42  64  89 120 156 201 255 311 363
#
# _framework density 25.034369000000002
#
# number of rings (size 3 to 8) (size 9 to 14) (size 15 to 20)
#    0.000    1.600    2.000    4.800    0.000    2.400 
#    3.600    0.000    0.000    0.000    0.000    0.000 
#    0.000    0.000    0.000    0.000    0.000    0.000 
#
# Total GULP energy -111757.487246 kJ/mol
# GULP energy per Si atom -5587.874362 kJ/mol
# Density = 2.497739 g / cm^3
# Si number density = 25.034369 Si / 1000 Ang^3
#
#
#
# Elastic Constant Matrix: (Units=GPa)
#
#
# Indices 1 2 3 4 5 6 
#
# 1 66.6224 -15.0201 30.3694 0.0000 -3.6588 0.0000
# 2 -15.0201 106.0578 55.7517 0.0000 -8.0445 0.0000
# 3 30.3694 55.7517 243.2971 0.0000 -40.5269 0.0000
# 4 0.0000 0.0000 0.0000 66.4722 0.0000 -19.6987
# 5 -3.6588 -8.0445 -40.5269 0.0000 30.5282 0.0000
# 6 0.0000 0.0000 0.0000 -19.6987 0.0000 33.5365
#
#
#
# Elastic Compliance Matrix: (Units=1/GPa)
#
#
# Indices 1 2 3 4 5 6 
#
# 1 0.017382 0.004112 -0.003318 0.000000 -0.001238 0.000000
# 2 0.004112 0.011700 -0.003337 0.000000 -0.000853 0.000000
# 3 -0.003318 -0.003337 0.006517 0.000000 0.007375 0.000000
# 4 0.000000 0.000000 0.000000 0.018214 0.000000 0.010699
# 5 -0.001238 -0.000853 0.007375 0.000000 0.042174 0.000000
# 6 0.000000 0.000000 0.000000 0.010699 0.000000 0.036103
#
#
# Mechanical properties :
#
#
# Convention : Reuss Voigt Hill
#
# Bulk Modulus (GPa) = 32.77196 62.01993 47.39594
# Shear Modulus (GPa) = 33.93342 49.09912 41.51627
#
# Velocity S-wave (km/s) = 3.68567 4.43343 4.07673
# Velocity P-wave (km/s) = 5.58851 7.14386 6.41351
#
# Compressibility (1/GPa) = 0.03051389
#
# Stress axis : x y z
#
# Youngs Moduli (GPa) = 57.53217 85.46731 153.43348
#
# Poissons Ratio (x) = -0.35144 0.50912
# Poissons Ratio (y) = -0.23657 0.51194
# Poissons Ratio (z) = 0.19090 0.28517
#
# Static dielectric constant tensor:
#      x y z
#    x 2.112090 0.000000 -0.047660 
#    y 0.000000 1.995030 0.000000 
#    z -0.047660 0.000000 1.995450 
# 
# From -- ./inp_files/30513.got.cif
#   From: 2010.05.17/outbox.cif.g08.bks.cpg/sg15_16_cif.got.tgz:30513.got - 2010.06.03 18:47:42.
