data_PCOD9282701
_publ_section_title
;
Structure prediction by ZEFSAII (Michael W. Deem and Ramdas Pophale) SiO2 
 PCOD9282701
Probable space group: C 2/C
;
_chemical_formula_sum "Si O2"
_cell_formula_units_Z 36
_cell_length_a 9.278088
_cell_length_b 36.560138
_cell_length_c 5.406497
_cell_angle_alpha 90.000000
_cell_angle_beta 120.862849
_cell_angle_gamma 90.000000
_cell_volume 1574.239590
_symmetry_space_group_name_H-M "C 2/C"
_symmetry_group_IT_number 15
_symmetry_cell_setting 'monoclinic'
loop_
_space_group_symop_operation_xyz
x,y,z
-x,y,1/2-z
-x,-y,-z
x,-y,1/2+z
1/2+x,1/2+y,z
1/2-x,1/2+y,1/2-z
1/2-x,1/2-y,-z
1/2+x,1/2-y,1/2+z
loop_
_atom_site_type_symbol
_atom_site_label
_atom_site_fract_x
_atom_site_fract_y
_atom_site_fract_z
Si Si1 0.500000 0.748319 0.750000
Si Si2 0.202866 0.864924 0.936017
Si Si3 0.774872 0.784301 0.698229
Si Si4 0.795190 0.093628 0.564563
Si Si5 0.691748 0.013789 0.624956
O O1 0.646901 0.775898 0.807345
O O2 0.453955 0.721223 0.486025
O O3 0.258077 0.823243 0.946948
O O4 0.254625 0.889261 0.743892
O O5 0.000000 0.864626 0.750000
O O6 0.252630 0.880753 0.245492
O O7 0.750000 0.750000 0.500000
O O8 0.710168 0.054748 0.542599
O O9 0.000000 0.089363 0.750000
O O10 0.500000 0.000000 0.500000
O O11 0.768766 0.989946 0.467818
#
# Coordination Sequence:
#
# PCOD9282701 Si02
#       5
#     4   8   8   8   8
#     4  10  24  38  64  92 128 166 240 278 330 394
#     4  10  22  38  64  90 130 171 209 268 337 383
#     4  11  23  41  65  93 130 179 230 280 334 398
#     4  10  22  39  61  96 124 160 215 265 322 392
#     4  10  21  39  64  87 121 161 204 248 318 388
#
# _framework density 22.868182999999998
#
# number of rings (size 3 to 8) (size 9 to 14) (size 15 to 20)
#    0.000    1.778    0.000    3.333   10.889    0.889 
#    0.000    6.667    0.000    0.000    0.000    0.000 
#    0.000    0.000    0.000    0.000    0.000    0.000 
#
# Total GULP energy -100542.708496 kJ/mol
# GULP energy per Si atom -5585.706028 kJ/mol
# Density = 2.281613 g / cm^3
# Si number density = 22.868183 Si / 1000 Ang^3
#
#
#
# Elastic Constant Matrix: (Units=GPa)
#
#
# Indices 1 2 3 4 5 6 
#
# 1 57.9476 55.1993 34.6745 0.0000 -26.3090 0.0000
# 2 55.1993 178.5663 39.0409 0.0000 -35.5483 0.0000
# 3 34.6745 39.0409 111.9885 0.0000 -43.5686 0.0000
# 4 0.0000 0.0000 0.0000 39.8984 0.0000 -16.2492
# 5 -26.3090 -35.5483 -43.5686 0.0000 39.9797 0.0000
# 6 0.0000 0.0000 0.0000 -16.2492 0.0000 36.1484
#
#
#
# Elastic Compliance Matrix: (Units=1/GPa)
#
#
# Indices 1 2 3 4 5 6 
#
# 1 0.030117 -0.006513 -0.002773 0.000000 0.011007 0.000000
# 2 -0.006513 0.008213 0.000568 0.000000 0.003636 0.000000
# 3 -0.002773 0.000568 0.015757 0.000000 0.015852 0.000000
# 4 0.000000 0.000000 0.000000 0.030680 0.000000 0.013791
# 5 0.011007 0.003636 0.015852 0.000000 0.052763 0.000000
# 6 0.000000 0.000000 0.000000 0.013791 0.000000 0.033863
#
#
# Mechanical properties :
#
#
# Convention : Reuss Voigt Hill
#
# Bulk Modulus (GPa) = 27.28344 67.37021 47.32682
# Shear Modulus (GPa) = 24.86996 37.84449 31.35722
#
# Velocity S-wave (km/s) = 3.30136 4.07246 3.70701
# Velocity P-wave (km/s) = 5.14671 7.18592 6.25004
#
# Compressibility (1/GPa) = 0.03665227
#
# Stress axis : x y z
#
# Youngs Moduli (GPa) = 33.20408 121.75801 63.46326
#
# Poissons Ratio (x) = 0.79296 0.17595
# Poissons Ratio (y) = 0.21624 -0.03603
# Poissons Ratio (z) = 0.09206 -0.06913
#
# Static dielectric constant tensor:
#      x y z
#    x 2.118220 0.000000 0.005330 
#    y 0.000000 1.821100 0.000000 
#    z 0.005330 0.000000 2.024610 
# 
# From -- ./inp_files/5136.got.cif
#   From: 2010.05.17/outbox.cif.g08.bks.cpg/sg15_3_cif.got.tgz:5136.got - 2010.06.03 18:47:42.
