data_PCOD9282932
_publ_section_title
;
Structure prediction by ZEFSAII (Michael W. Deem and Ramdas Pophale) SiO2 
 PCOD9282932
Probable space group: C 2/C
;
_chemical_formula_sum "Si O2"
_cell_formula_units_Z 40
_cell_length_a 28.365081
_cell_length_b 11.465892
_cell_length_c 21.627793
_cell_angle_alpha 90.000000
_cell_angle_beta 13.988200
_cell_angle_gamma 90.000000
_cell_volume 1700.279679
_symmetry_space_group_name_H-M "C 2/C"
_symmetry_group_IT_number 15
_symmetry_cell_setting 'monoclinic'
loop_
_space_group_symop_operation_xyz
x,y,z
-x,y,1/2-z
-x,-y,-z
x,-y,1/2+z
1/2+x,1/2+y,z
1/2-x,1/2+y,1/2-z
1/2-x,1/2-y,-z
1/2+x,1/2-y,1/2+z
loop_
_atom_site_type_symbol
_atom_site_label
_atom_site_fract_x
_atom_site_fract_y
_atom_site_fract_z
Si Si1 0.589761 0.750375 0.758390
Si Si2 0.669970 0.578939 0.483742
Si Si3 0.814200 0.644815 0.028608
Si Si4 0.627780 0.354301 0.454389
Si Si5 0.812294 0.921820 0.255172
O O1 0.750000 0.750000 0.500000
O O2 0.408396 0.691950 0.953940
O O3 0.634170 0.876789 0.732127
O O4 0.631975 0.658613 0.758713
O O5 0.500000 0.550079 0.750000
O O6 0.688957 0.469271 0.414518
O O7 0.804524 0.741226 0.094488
O O8 0.000000 0.671973 0.750000
O O9 0.608553 0.646547 0.253295
O O10 0.839811 0.516837 0.025962
O O11 0.719917 0.357757 0.268816
O O12 0.000000 0.000000 0.000000
#
# Coordination Sequence:
#
# PCOD9282932 Si02
#       5
#     8   8   8   8   8
#     4  10  21  39  65  97 129 171 217 273 330 389
#     4  10  21  40  64  96 133 168 221 274 330 392
#     4  11  24  44  71  95 135 183 226 272 336 405
#     4  11  24  45  68  99 137 178 223 281 335 398
#     4  10  22  43  70  94 139 173 218 281 340 388
#
# _framework density 23.525542000000002
#
# number of rings (size 3 to 8) (size 9 to 14) (size 15 to 20)
#    0.000    1.600    4.000    1.200    2.800    2.400 
#    3.600    1.000    0.000    0.000    0.000    0.000 
#    0.000    0.000    0.000    0.000    0.000    0.000 
#
# Total GULP energy -111752.708825 kJ/mol
# GULP energy per Si atom -5587.635441 kJ/mol
# Density = 2.347200 g / cm^3
# Si number density = 23.525542 Si / 1000 Ang^3
#
#
#
# Elastic Constant Matrix: (Units=GPa)
#
#
# Indices 1 2 3 4 5 6 
#
# 1 105.3788 -13.7815 35.0614 -0.0108 10.9657 0.0100
# 2 -13.7815 -94.2462 29.3571 -0.0142 -18.7533 0.0210
# 3 35.0614 29.3571 57.5706 -0.0118 -1.3789 0.0148
# 4 -0.0108 -0.0142 -0.0118 32.3942 0.0022 3.8244
# 5 10.9657 -18.7533 -1.3789 0.0022 41.8045 -0.0023
# 6 0.0100 0.0210 0.0148 3.8244 -0.0023 72.3294
#
#
#
# Elastic Compliance Matrix: (Units=1/GPa)
#
#
# Indices 1 2 3 4 5 6 
#
# 1 0.011532 -0.002617 -0.005793 0.000001 -0.004390 0.000000
# 2 -0.002617 -0.007952 0.005584 -0.000002 -0.002696 0.000002
# 3 -0.005793 0.005584 0.018161 0.000007 0.004624 -0.000005
# 4 0.000001 -0.000002 0.000007 0.031064 -0.000003 -0.001642
# 5 -0.004390 -0.002696 0.004624 -0.000003 0.024015 0.000001
# 6 0.000000 0.000002 -0.000005 -0.001642 0.000001 0.013912
#
#
# Mechanical properties :
#
#
# Convention : Reuss Voigt Hill
#
# Bulk Modulus (GPa) = 62.15697 18.88633 40.52165
# Shear Modulus (GPa) = 49.14071 30.51004 39.82538
#
# Velocity S-wave (km/s) = 4.57532 3.60514 4.11890
# Velocity P-wave (km/s) = 7.37495 5.03735 6.31525
#
# Compressibility (1/GPa) = 0.01608830
#
# Stress axis : x y z
#
# Youngs Moduli (GPa) = 86.71750 -125.75809 55.06170
#
# Poissons Ratio (x) = -0.32915 0.31900
# Poissons Ratio (y) = 0.22697 -0.30748
# Poissons Ratio (z) = 0.50240 0.70227
#
# Static dielectric constant tensor:
#      x y z
#    x 1.910270 0.000000 -0.005410 
#    y 0.000000 1.903710 0.000010 
#    z -0.005410 0.000010 2.075190 
# 
# From -- ./inp_files/257359.got.cif
#   From: 2010.05.17/outbox.cif.g08.bks.cpg/sg15_129_cif.got.tgz:257359.got - 2010.06.03 18:47:42.
