data_PCOD9282483
_publ_section_title
;
Structure prediction by ZEFSAII (Michael W. Deem and Ramdas Pophale) SiO2 
 PCOD9282483
Probable space group: C 2/C
;
_chemical_formula_sum "Si O2"
_cell_formula_units_Z 60
_cell_length_a 9.119694
_cell_length_b 14.918375
_cell_length_c 22.722189
_cell_angle_alpha 90.000000
_cell_angle_beta 76.784406
_cell_angle_gamma 90.000000
_cell_volume 3009.507068
_symmetry_space_group_name_H-M "C 2/C"
_symmetry_group_IT_number 15
_symmetry_cell_setting 'monoclinic'
loop_
_space_group_symop_operation_xyz
x,y,z
-x,y,1/2-z
-x,-y,-z
x,-y,1/2+z
1/2+x,1/2+y,z
1/2-x,1/2+y,1/2-z
1/2-x,1/2-y,-z
1/2+x,1/2-y,1/2+z
loop_
_atom_site_type_symbol
_atom_site_label
_atom_site_fract_x
_atom_site_fract_y
_atom_site_fract_z
Si Si1 0.324925 0.399034 0.844055
Si Si2 0.962205 0.733661 0.689506
Si Si3 0.348709 0.417731 0.398584
Si Si4 0.885124 0.243489 0.813162
Si Si5 0.758503 0.145533 0.481120
Si Si6 0.002932 0.411602 0.089560
Si Si7 0.500000 0.500000 0.000000
Si Si8 0.021128 0.567491 0.314466
O O1 0.457976 0.330131 0.819545
O O2 0.380047 0.499865 0.850927
O O3 0.194838 0.402867 0.807275
O O4 0.247308 0.366338 0.911999
O O5 0.784249 0.737113 0.695389
O O6 0.000000 0.694097 0.750000
O O7 0.024555 0.673431 0.630669
O O8 0.404747 0.326328 0.364212
O O9 0.422638 0.444519 0.452732
O O10 0.167190 0.411047 0.419175
O O11 0.000000 0.222619 0.750000
O O12 0.919897 0.344327 0.829708
O O13 0.750000 0.250000 0.500000
O O14 0.623902 0.094337 0.527141
O O15 0.909349 0.092991 0.486321
O O16 0.016838 0.496705 0.131425
O O17 0.000000 0.532391 0.250000
#
# Coordination Sequence:
#
# PCOD9282483 Si02
#       8
#     8   8   8   8   8   8   4   8
#     4  10  22  40  63  91 131 167 217 267 325 392
#     4  11  21  37  61  92 125 166 215 264 327 392
#     4   9  22  42  63  91 127 162 216 266 326 390
#     4  10  22  39  61  91 127 164 212 266 325 390
#     4  11  23  43  68  95 135 176 226 274 334 397
#     4  10  22  42  66  91 129 175 213 272 329 391
#     4  10  24  40  64  94 124 164 222 264 322 394
#     4  10  21  39  62  92 128 166 217 267 328 395
#
# _framework density 19.936820000000001
#
# number of rings (size 3 to 8) (size 9 to 14) (size 15 to 20)
#    0.000    1.867    1.333    2.000    1.867    8.533 
#    0.000    3.333    0.000    0.000    0.000    0.000 
#    0.000    0.000    0.000    0.000    0.000    0.000 
#
# Total GULP energy -167048.491184 kJ/mol
# GULP energy per Si atom -5568.283039 kJ/mol
# Density = 1.989144 g / cm^3
# Si number density = 19.936820 Si / 1000 Ang^3
#
#
#
# Elastic Constant Matrix: (Units=GPa)
#
#
# Indices 1 2 3 4 5 6 
#
# 1 74.3602 21.6301 45.3308 0.0000 25.4536 0.0000
# 2 21.6301 84.9321 15.9182 0.0000 -5.0793 0.0000
# 3 45.3308 15.9182 98.8118 0.0000 6.3482 0.0000
# 4 0.0000 0.0000 0.0000 27.1042 0.0000 -3.7898
# 5 25.4536 -5.0793 6.3482 0.0000 37.3177 0.0000
# 6 0.0000 0.0000 0.0000 -3.7898 0.0000 27.6380
#
#
#
# Elastic Compliance Matrix: (Units=1/GPa)
#
#
# Indices 1 2 3 4 5 6 
#
# 1 0.027939 -0.006200 -0.010657 0.000000 -0.018088 0.000000
# 2 -0.006200 0.013667 0.000254 0.000000 0.006046 0.000000
# 3 -0.010657 0.000254 0.014659 0.000000 0.004810 0.000000
# 4 0.000000 0.000000 0.000000 0.037616 0.000000 0.005158
# 5 -0.018088 0.006046 0.004810 0.000000 0.039139 0.000000
# 6 0.000000 0.000000 0.000000 0.005158 0.000000 0.036889
#
#
# Mechanical properties :
#
#
# Convention : Reuss Voigt Hill
#
# Bulk Modulus (GPa) = 43.36362 47.09580 45.22971
# Shear Modulus (GPa) = 23.71899 30.09363 26.90631
#
# Velocity S-wave (km/s) = 3.45296 3.88938 3.67765
# Velocity P-wave (km/s) = 6.13962 6.62144 6.38508
#
# Compressibility (1/GPa) = 0.02306080
#
# Stress axis : x y z
#
# Youngs Moduli (GPa) = 35.79172 73.16884 68.21689
#
# Poissons Ratio (x) = 0.45364 0.72696
# Poissons Ratio (y) = 0.22191 -0.01734
# Poissons Ratio (z) = 0.38142 -0.01860
#
# Static dielectric constant tensor:
#      x y z
#    x 1.692660 0.000000 0.005000 
#    y 0.000000 1.723270 0.000000 
#    z 0.005000 0.000000 1.760170 
# 
# From -- ./inp_files/264286.got.cif
#   From: 2010.05.17/outbox.cif.g08.bks.cpg/sg15_133_cif.got.tgz:264286.got - 2010.06.03 18:47:42.
