data_PCOD9282420
_publ_section_title
;
Structure prediction by ZEFSAII (Michael W. Deem and Ramdas Pophale) SiO2 
 PCOD9282420
Probable space group: C 2/C
;
_chemical_formula_sum "Si O2"
_cell_formula_units_Z 56
_cell_length_a 26.872931
_cell_length_b 7.848852
_cell_length_c 14.121783
_cell_angle_alpha 90.000000
_cell_angle_beta 57.465681
_cell_angle_gamma 90.000000
_cell_volume 2511.158177
_symmetry_space_group_name_H-M "C 2/C"
_symmetry_group_IT_number 15
_symmetry_cell_setting 'monoclinic'
loop_
_space_group_symop_operation_xyz
x,y,z
-x,y,1/2-z
-x,-y,-z
x,-y,1/2+z
1/2+x,1/2+y,z
1/2-x,1/2+y,1/2-z
1/2-x,1/2-y,-z
1/2+x,1/2-y,1/2+z
loop_
_atom_site_type_symbol
_atom_site_label
_atom_site_fract_x
_atom_site_fract_y
_atom_site_fract_z
Si Si1 0.146457 0.989565 0.338696
Si Si2 0.158145 0.357418 0.232507
Si Si3 0.047068 0.292739 0.972119
Si Si4 0.791374 0.100377 0.547801
Si Si5 0.534966 0.954720 0.312032
Si Si6 0.266821 0.388470 0.405528
Si Si7 0.157097 0.551286 0.425289
O O1 0.086252 0.879373 0.418319
O O2 0.182961 0.024421 0.398061
O O3 0.189650 0.872910 0.228575
O O4 0.142219 0.175104 0.295209
O O5 0.221908 0.363347 0.120559
O O6 0.104016 0.415902 0.222856
O O7 0.166204 0.497009 0.307232
O O8 0.033948 0.381356 0.884271
O O9 0.086874 0.427678 0.992649
O O10 0.989624 0.297424 0.097487
O O11 0.822228 0.270272 0.552395
O O12 0.801679 0.027470 0.433938
O O13 0.500000 0.974080 0.250000
O O14 0.250000 0.250000 0.500000
O O15 0.202161 0.431444 0.432793
#
# Coordination Sequence:
#
# PCOD9282420 Si02
#       7
#     8   8   8   8   8   8   8
#     4  11  24  42  63  96 136 164 210 272 334 399
#     4  11  21  38  67  89 129 171 210 272 329 378
#     4   9  23  43  65  91 124 176 217 275 326 385
#     4  11  22  38  62  94 134 169 210 256 334 405
#     4  10  23  42  67  92 122 172 236 268 322 389
#     4  12  25  34  59  98 132 170 210 258 327 402
#     4  10  21  39  62  87 130 166 208 259 321 399
#
# _framework density 22.300466
#
# number of rings (size 3 to 8) (size 9 to 14) (size 15 to 20)
#    0.000    1.429    2.857    1.286    8.000    1.714 
#    0.000    2.143    0.000    0.000    0.000    0.000 
#    0.000    0.000    0.000    0.000    0.000    0.000 
#
# Total GULP energy -155957.070462 kJ/mol
# GULP energy per Si atom -5569.895374 kJ/mol
# Density = 2.224971 g / cm^3
# Si number density = 22.300466 Si / 1000 Ang^3
#
#
#
# Elastic Constant Matrix: (Units=GPa)
#
#
# Indices 1 2 3 4 5 6 
#
# 1 165.6758 25.1648 38.2624 0.0000 33.4643 0.0000
# 2 25.1648 67.6336 12.0825 0.0000 15.1702 0.0001
# 3 38.2624 12.0825 78.5652 0.0000 14.7663 0.0000
# 4 0.0000 0.0000 0.0000 24.9154 0.0000 1.3169
# 5 33.4643 15.1702 14.7663 0.0000 41.8549 0.0000
# 6 0.0000 0.0001 0.0000 1.3169 0.0000 33.9474
#
#
#
# Elastic Compliance Matrix: (Units=1/GPa)
#
#
# Indices 1 2 3 4 5 6 
#
# 1 0.007840 -0.001352 -0.002704 0.000000 -0.004825 0.000000
# 2 -0.001352 0.016489 -0.001025 0.000000 -0.004534 0.000000
# 3 -0.002704 -0.001025 0.014701 0.000000 -0.002653 0.000000
# 4 0.000000 0.000000 0.000000 0.040218 0.000000 -0.001560
# 5 -0.004825 -0.004534 -0.002653 0.000000 0.030329 0.000000
# 6 0.000000 0.000000 0.000000 -0.001560 0.000000 0.029518
#
#
# Mechanical properties :
#
#
# Convention : Reuss Voigt Hill
#
# Bulk Modulus (GPa) = 34.63983 51.43265 43.03624
# Shear Modulus (GPa) = 31.47041 35.90120 33.68581
#
# Velocity S-wave (km/s) = 3.76067 4.01669 3.89079
# Velocity P-wave (km/s) = 5.86718 6.68022 6.28686
#
# Compressibility (1/GPa) = 0.02886851
#
# Stress axis : x y z
#
# Youngs Moduli (GPa) = 127.54908 60.64784 68.02110
#
# Poissons Ratio (x) = 0.08199 0.18390
# Poissons Ratio (y) = 0.17244 0.06974
# Poissons Ratio (z) = 0.34484 0.06218
#
# Static dielectric constant tensor:
#      x y z
#    x 1.820490 0.000000 -0.075180 
#    y 0.000000 2.010950 0.000000 
#    z -0.075180 0.000000 1.654510 
# 
# From -- ./inp_files/171818.got.cif
#   From: 2010.05.17/outbox.cif.g08.bks.cpg/sg15_86_cif.got.tgz:171818.got - 2010.06.03 18:47:42.
