data_PCOD9282465
_publ_section_title
;
Structure prediction by ZEFSAII (Michael W. Deem and Ramdas Pophale) SiO2 
 PCOD9282465
Probable space group: C 2/C
;
_chemical_formula_sum "Si O2"
_cell_formula_units_Z 32
_cell_length_a 27.885624
_cell_length_b 9.359720
_cell_length_c 13.990064
_cell_angle_alpha 90.000000
_cell_angle_beta 23.565228
_cell_angle_gamma 90.000000
_cell_volume 1459.815356
_symmetry_space_group_name_H-M "C 2/C"
_symmetry_group_IT_number 15
_symmetry_cell_setting 'monoclinic'
loop_
_space_group_symop_operation_xyz
x,y,z
-x,y,1/2-z
-x,-y,-z
x,-y,1/2+z
1/2+x,1/2+y,z
1/2-x,1/2+y,1/2-z
1/2-x,1/2-y,-z
1/2+x,1/2-y,1/2+z
loop_
_atom_site_type_symbol
_atom_site_label
_atom_site_fract_x
_atom_site_fract_y
_atom_site_fract_z
Si Si1 0.862717 0.358971 0.983458
Si Si2 0.681433 0.553983 0.677110
Si Si3 0.541084 0.574405 0.277270
Si Si4 0.795672 0.672495 0.085994
O O1 0.000000 0.322028 0.750000
O O2 0.801065 0.360646 0.989930
O O3 0.846913 0.527430 0.039254
O O4 0.780931 0.263056 0.200079
O O5 0.631892 0.535685 0.661867
O O6 0.712537 0.391997 0.654325
O O7 0.571882 0.598071 0.946540
O O8 0.500000 0.516967 0.250000
O O9 0.604688 0.724121 0.138977
#
# Coordination Sequence:
#
# PCOD9282465 Si02
#       4
#     8   8   8   8
#     4  10  22  37  62  93 127 157 205 250 304 366
#     4   9  23  35  64  99 115 160 214 245 302 372
#     4  11  18  39  68  87 120 166 206 252 303 358
#     4  10  21  39  62  91 124 163 201 251 306 364
#
# _framework density 21.920580000000001
#
# number of rings (size 3 to 8) (size 9 to 14) (size 15 to 20)
#    1.500    0.500    2.500    1.500    0.000    3.000 
#    0.000    1.250    5.500    9.000    0.000    0.000 
#    0.000    0.000    0.000    0.000    0.000    0.000 
#
# Total GULP energy -89250.424909 kJ/mol
# GULP energy per Si atom -5578.151557 kJ/mol
# Density = 2.187069 g / cm^3
# Si number density = 21.920580 Si / 1000 Ang^3
#
#
#
# Elastic Constant Matrix: (Units=GPa)
#
#
# Indices 1 2 3 4 5 6 
#
# 1 125.5842 12.0353 6.3528 0.0000 -19.1094 0.0000
# 2 12.0353 106.9002 38.6087 0.0000 -1.1024 0.0000
# 3 6.3528 38.6087 67.7374 0.0000 -19.4488 0.0000
# 4 0.0000 0.0000 0.0000 44.8213 0.0000 40.7803
# 5 -19.1094 -1.1024 -19.4488 0.0000 30.8175 0.0000
# 6 0.0000 0.0000 0.0000 40.7803 0.0000 58.0867
#
#
#
# Elastic Compliance Matrix: (Units=1/GPa)
#
#
# Indices 1 2 3 4 5 6 
#
# 1 0.009068 -0.001709 0.002101 0.000000 0.006888 0.000000
# 2 -0.001709 0.012676 -0.008841 0.000000 -0.006186 0.000000
# 3 0.002101 -0.008841 0.024289 0.000000 0.016316 0.000000
# 4 0.000000 0.000000 0.000000 0.061762 0.000000 -0.043361
# 5 0.006888 -0.006186 0.016316 0.000000 0.046796 0.000000
# 6 0.000000 0.000000 0.000000 -0.043361 0.000000 0.047657
#
#
# Mechanical properties :
#
#
# Convention : Reuss Voigt Hill
#
# Bulk Modulus (GPa) = 34.32054 46.02393 40.17223
# Shear Modulus (GPa) = 21.84756 42.96011 32.40384
#
# Velocity S-wave (km/s) = 3.16043 4.43177 3.84896
# Velocity P-wave (km/s) = 5.38596 6.87232 6.17403
#
# Compressibility (1/GPa) = 0.02913707
#
# Stress axis : x y z
#
# Youngs Moduli (GPa) = 110.27342 78.88842 41.17013
#
# Poissons Ratio (x) = 0.13481 -0.08651
# Poissons Ratio (y) = 0.18844 0.36398
# Poissons Ratio (z) = -0.23171 0.69744
#
# Static dielectric constant tensor:
#      x y z
#    x 1.883250 0.000000 -0.040000 
#    y 0.000000 1.799680 0.000000 
#    z -0.040000 0.000000 1.792090 
# 
# From -- ./inp_files/141184.got.cif
#   From: 2010.05.17/outbox.cif.g08.bks.cpg/sg15_71_cif.got.tgz:141184.got - 2010.06.03 18:47:42.
