data_PCOD9282727
_publ_section_title
;
Structure prediction by ZEFSAII (Michael W. Deem and Ramdas Pophale) SiO2 
 PCOD9282727
Probable space group: C 2/C
;
_chemical_formula_sum "Si O2"
_cell_formula_units_Z 48
_cell_length_a 28.123567
_cell_length_b 15.809556
_cell_length_c 4.999916
_cell_angle_alpha 90.000000
_cell_angle_beta 66.852285
_cell_angle_gamma 90.000000
_cell_volume 2044.098854
_symmetry_space_group_name_H-M "C 2/C"
_symmetry_group_IT_number 15
_symmetry_cell_setting 'monoclinic'
loop_
_space_group_symop_operation_xyz
x,y,z
-x,y,1/2-z
-x,-y,-z
x,-y,1/2+z
1/2+x,1/2+y,z
1/2-x,1/2+y,1/2-z
1/2-x,1/2-y,-z
1/2+x,1/2-y,1/2+z
loop_
_atom_site_type_symbol
_atom_site_label
_atom_site_fract_x
_atom_site_fract_y
_atom_site_fract_z
Si Si1 0.894505 0.445610 0.345502
Si Si2 0.776596 0.061403 0.766656
Si Si3 0.941267 0.059547 0.929108
Si Si4 0.750000 0.750000 0.000000
Si Si5 0.500000 0.936670 0.250000
Si Si6 0.314844 0.164070 0.311365
Si Si7 0.653542 0.674724 0.521396
O O1 0.895848 0.470233 0.032068
O O2 0.945082 0.392874 0.327436
O O3 0.843418 0.401195 0.558127
O O4 0.724019 0.118649 0.894245
O O5 0.775980 0.984907 0.984487
O O6 0.822812 0.117321 0.790784
O O7 0.897147 0.128412 0.973794
O O8 0.000000 0.091769 0.750000
O O9 0.935485 0.981762 0.733207
O O10 0.778782 0.717291 0.200077
O O11 0.698060 0.691034 0.203371
O O12 0.500000 0.000000 0.500000
O O13 0.354143 0.228846 0.361397
#
# Coordination Sequence:
#
# PCOD9282727 Si02
#       7
#     8   8   8   4   4   8   8
#     4  10  21  39  64  90 122 165 212 259 311 380
#     4  11  24  39  62  89 122 168 220 259 313 393
#     4  10  23  46  76 104 134 178 236 290 337 403
#     4  10  24  40  58  84 134 176 212 262 330 404
#     4   8  16  34  60  86 114 150 200 252 300 358
#     4  11  25  39  61  90 133 169 214 268 331 390
#     4  11  25  41  66  95 138 174 218 277 348 402
#
# _framework density 23.482230000000001
#
# number of rings (size 3 to 8) (size 9 to 14) (size 15 to 20)
#    0.000    1.667    0.000    4.000   14.000    0.000 
#    0.000    1.667    1.833    0.000    0.000    0.000 
#    0.000    0.000    0.000    0.000    0.000    0.000 
#
# Total GULP energy -133718.525656 kJ/mol
# GULP energy per Si atom -5571.605236 kJ/mol
# Density = 2.342878 g / cm^3
# Si number density = 23.482230 Si / 1000 Ang^3
#
#
#
# Elastic Constant Matrix: (Units=GPa)
#
#
# Indices 1 2 3 4 5 6 
#
# 1 114.5273 33.2227 22.7357 0.0000 -18.2935 0.0000
# 2 33.2227 75.7956 4.6754 0.0000 -8.7674 0.0000
# 3 22.7357 4.6754 56.2080 0.0000 -0.7020 0.0000
# 4 0.0000 0.0000 0.0000 1.0218 0.0000 -7.8772
# 5 -18.2935 -8.7674 -0.7020 0.0000 40.5400 0.0000
# 6 0.0000 0.0000 0.0000 -7.8772 0.0000 41.2475
#
#
#
# Elastic Compliance Matrix: (Units=1/GPa)
#
#
# Indices 1 2 3 4 5 6 
#
# 1 0.011485 -0.004289 -0.004236 0.000000 0.004181 0.000000
# 2 -0.004289 0.015201 0.000487 0.000000 0.001360 0.000000
# 3 -0.004236 0.000487 0.019446 0.000000 -0.001470 0.000000
# 4 0.000000 0.000000 0.000000 -2.072233 0.000000 -0.395742
# 5 0.004181 0.001360 -0.001470 0.000000 0.026823 0.000000
# 6 0.000000 0.000000 0.000000 -0.395742 0.000000 -0.051333
#
#
# Mechanical properties :
#
#
# Convention : Reuss Voigt Hill
#
# Bulk Modulus (GPa) = 33.27227 40.86651 37.06939
# Shear Modulus (GPa) = -2.46972 28.95499 13.24264
#
# Velocity S-wave (km/s) = -1.02666 3.51530 2.37732
# Velocity P-wave (km/s) = 3.57694 5.82387 4.83280
#
# Compressibility (1/GPa) = 0.03005506
#
# Stress axis : x y z
#
# Youngs Moduli (GPa) = 87.07292 65.78687 51.42506
#
# Poissons Ratio (x) = 0.28216 0.21786
# Poissons Ratio (y) = 0.37345 -0.02507
# Poissons Ratio (z) = 0.36888 -0.03207
#
# Static dielectric constant tensor:
#      x y z
#    x 1.903610 0.000000 -0.074120 
#    y 0.000000 1.866560 0.000000 
#    z -0.074120 0.000000 1.944640 
# 
# From -- ./inp_files/18187.got.cif
#   From: 2010.05.17/outbox.cif.g08.bks.cpg/sg15_10_cif.got.tgz:18187.got - 2010.06.03 18:47:42.
