data_PCOD9282313
_publ_section_title
;
Structure prediction by ZEFSAII (Michael W. Deem and Ramdas Pophale) SiO2 
 PCOD9282313
Probable space group: C 2/C
;
_chemical_formula_sum "Si O2"
_cell_formula_units_Z 48
_cell_length_a 7.514625
_cell_length_b 18.472207
_cell_length_c 20.797685
_cell_angle_alpha 90.000000
_cell_angle_beta 45.579983
_cell_angle_gamma 90.000000
_cell_volume 2061.949807
_symmetry_space_group_name_H-M "C 2/C"
_symmetry_group_IT_number 15
_symmetry_cell_setting 'monoclinic'
loop_
_space_group_symop_operation_xyz
x,y,z
-x,y,1/2-z
-x,-y,-z
x,-y,1/2+z
1/2+x,1/2+y,z
1/2-x,1/2+y,1/2-z
1/2-x,1/2-y,-z
1/2+x,1/2-y,1/2+z
loop_
_atom_site_type_symbol
_atom_site_label
_atom_site_fract_x
_atom_site_fract_y
_atom_site_fract_z
Si Si1 0.619917 0.610517 0.333862
Si Si2 0.051641 0.668142 0.138966
Si Si3 0.607707 0.186547 0.455300
Si Si4 0.340007 0.840384 0.412044
Si Si5 0.367031 0.672287 0.718246
Si Si6 0.720332 0.454174 0.349730
O O1 0.833744 0.618149 0.225435
O O2 0.372422 0.649031 0.372285
O O3 0.587885 0.529057 0.366939
O O4 0.717674 0.652644 0.372641
O O5 0.072136 0.662626 0.057043
O O6 0.967076 0.750176 0.172490
O O7 0.560678 0.161806 0.540132
O O8 0.652747 0.273106 0.448124
O O9 0.573866 0.822946 0.307134
O O10 0.245054 0.919729 0.414547
O O11 0.500000 0.650483 0.750000
O O12 0.406507 0.610752 0.656580
O O13 0.000000 0.463946 0.250000
#
# Coordination Sequence:
#
# PCOD9282313 Si02
#       6
#     8   8   8   8   8   8
#     4  11  22  39  64  90 120 157 205 251 303 354
#     4  11  20  38  64  92 113 158 205 255 283 360
#     4  11  22  39  63  90 125 162 202 244 310 364
#     4  10  22  39  59  91 124 161 199 249 306 363
#     4  11  20  38  64  89 117 156 212 248 293 358
#     4  10  21  39  61  86 123 156 198 258 300 347
#
# _framework density 23.278939000000001
#
# number of rings (size 3 to 8) (size 9 to 14) (size 15 to 20)
#    0.000    1.333    6.667    0.500    0.000    2.000 
#    3.000    3.333    0.000    0.000    0.000    0.000 
#    0.000    0.000    0.000    0.000    0.000    0.000 
#
# Total GULP energy -134249.744443 kJ/mol
# GULP energy per Si atom -5593.739352 kJ/mol
# Density = 2.322595 g / cm^3
# Si number density = 23.278939 Si / 1000 Ang^3
#
#
#
# Elastic Constant Matrix: (Units=GPa)
#
#
# Indices 1 2 3 4 5 6 
#
# 1 51.1522 -1.1204 32.6864 0.0011 33.5954 0.0017
# 2 -1.1204 128.6601 27.7415 0.0001 6.8141 0.0004
# 3 32.6864 27.7415 80.1299 0.0001 32.6950 -0.0002
# 4 0.0011 0.0001 0.0001 9.0374 -0.0006 -1.1628
# 5 33.5954 6.8141 32.6950 -0.0006 46.9852 -0.0005
# 6 0.0017 0.0004 -0.0002 -1.1628 -0.0005 5.7500
#
#
#
# Elastic Compliance Matrix: (Units=1/GPa)
#
#
# Indices 1 2 3 4 5 6 
#
# 1 0.040286 0.003307 -0.007861 -0.000008 -0.023815 -0.000016
# 2 0.003307 0.008714 -0.004029 -0.000001 -0.000825 -0.000002
# 3 -0.007861 -0.004029 0.020319 0.000001 -0.007933 0.000003
# 4 -0.000008 -0.000001 0.000001 0.113608 0.000007 0.022974
# 5 -0.023815 -0.000825 -0.007933 0.000007 0.043951 0.000012
# 6 -0.000016 -0.000002 0.000003 0.022974 0.000012 0.178559
#
#
# Mechanical properties :
#
#
# Convention : Reuss Voigt Hill
#
# Bulk Modulus (GPa) = 19.17496 42.06190 30.61843
# Shear Modulus (GPa) = 11.36396 25.73015 18.54705
#
# Velocity S-wave (km/s) = 2.21184 3.32821 2.82570
# Velocity P-wave (km/s) = 3.84421 5.73386 4.88135
#
# Compressibility (1/GPa) = 0.05215135
#
# Stress axis : x y z
#
# Youngs Moduli (GPa) = 24.82231 114.76193 49.21609
#
# Poissons Ratio (x) = -0.37954 0.38691
# Poissons Ratio (y) = -0.08209 0.19831
# Poissons Ratio (z) = 0.19514 0.46242
#
# Static dielectric constant tensor:
#      x y z
#    x 1.885690 0.000000 -0.030590 
#    y 0.000000 1.825750 0.000000 
#    z -0.030590 0.000000 1.948920 
# 
# From -- ./inp_files/232006.got.cif
#   From: 2010.05.17/outbox.cif.g08.bks.cpg/sg15_117_cif.got.tgz:232006.got - 2010.06.03 18:47:42.
