data_PCOD9282920
_publ_section_title
;
Structure prediction by ZEFSAII (Michael W. Deem and Ramdas Pophale) SiO2 
 PCOD9282920
Probable space group: C 2/C
;
_chemical_formula_sum "Si O2"
_cell_formula_units_Z 48
_cell_length_a 14.938488
_cell_length_b 8.960588
_cell_length_c 21.021629
_cell_angle_alpha 90.000000
_cell_angle_beta 54.255006
_cell_angle_gamma 90.000000
_cell_volume 2283.836179
_symmetry_space_group_name_H-M "C 2/C"
_symmetry_group_IT_number 15
_symmetry_cell_setting 'monoclinic'
loop_
_space_group_symop_operation_xyz
x,y,z
-x,y,1/2-z
-x,-y,-z
x,-y,1/2+z
1/2+x,1/2+y,z
1/2-x,1/2+y,1/2-z
1/2-x,1/2-y,-z
1/2+x,1/2-y,1/2+z
loop_
_atom_site_type_symbol
_atom_site_label
_atom_site_fract_x
_atom_site_fract_y
_atom_site_fract_z
Si Si1 0.812149 0.468827 0.947164
Si Si2 0.718293 0.304943 0.111419
Si Si3 0.153631 0.099117 0.342760
Si Si4 0.776952 0.451743 0.667570
Si Si5 0.855616 0.165292 0.567237
Si Si6 0.487939 0.841795 0.088437
O O1 0.854215 0.326511 0.888562
O O2 0.716344 0.566838 0.952718
O O3 0.911838 0.577208 0.919764
O O4 0.769300 0.395308 0.030686
O O5 0.801279 0.201475 0.118279
O O6 0.688049 0.435307 0.173006
O O7 0.248592 0.065040 0.253114
O O8 0.066720 0.210695 0.346984
O O9 0.107890 0.949028 0.392750
O O10 0.782273 0.294719 0.629711
O O11 0.895803 0.533624 0.610616
O O12 0.957243 0.250110 0.492500
#
# Coordination Sequence:
#
# PCOD9282920 Si02
#       6
#     8   8   8   8   8   8
#     4  10  21  39  65  96 122 156 208 262 311 365
#     4   9  20  39  65  85 128 159 196 251 316 364
#     4  10  23  40  61  91 128 163 208 256 314 370
#     4  11  22  40  64  89 127 167 206 256 317 370
#     4  11  21  38  64  94 126 160 209 261 304 370
#     4  11  22  39  65  93 115 168 213 256 308 368
#
# _framework density 21.017268999999999
#
# number of rings (size 3 to 8) (size 9 to 14) (size 15 to 20)
#    0.000    1.667    1.667    3.500    2.333    0.000 
#    3.000    7.500    3.667    0.000    0.000    0.000 
#    0.000    0.000    0.000    0.000    0.000    0.000 
#
# Total GULP energy -133694.224481 kJ/mol
# GULP energy per Si atom -5570.592687 kJ/mol
# Density = 2.096943 g / cm^3
# Si number density = 21.017269 Si / 1000 Ang^3
#
#
#
# Elastic Constant Matrix: (Units=GPa)
#
#
# Indices 1 2 3 4 5 6 
#
# 1 -79.3095 45.2542 84.8789 0.0000 81.1948 0.0000
# 2 45.2542 158.5245 53.3451 0.0000 5.5135 0.0000
# 3 84.8789 53.3451 53.8466 0.0000 -22.4191 0.0000
# 4 0.0000 0.0000 0.0000 15.8440 0.0000 5.8325
# 5 81.1948 5.5135 -22.4191 0.0000 -27.7789 0.0000
# 6 0.0000 0.0000 0.0000 5.8325 0.0000 38.5094
#
#
#
# Elastic Compliance Matrix: (Units=1/GPa)
#
#
# Indices 1 2 3 4 5 6 
#
# 1 0.007440 -0.002838 -0.000072 0.000000 0.021240 0.000000
# 2 -0.002838 0.008995 -0.005350 0.000000 -0.002193 0.000000
# 3 -0.000072 -0.005350 0.017556 0.000000 -0.015441 0.000000
# 4 0.000000 0.000000 0.000000 0.066842 0.000000 -0.010124
# 5 0.021240 -0.002193 -0.015441 0.000000 0.038111 0.000000
# 6 0.000000 0.000000 0.000000 -0.010124 0.000000 0.027501
#
#
# Mechanical properties :
#
#
# Convention : Reuss Voigt Hill
#
# Bulk Modulus (GPa) = 57.24128 55.55756 56.39942
# Shear Modulus (GPa) = 26.48452 1.95380 14.21916
#
# Velocity S-wave (km/s) = 3.55368 0.96521 2.60387
# Velocity P-wave (km/s) = 6.64325 5.26629 5.99444
#
# Compressibility (1/GPa) = 0.01746991
#
# Stress axis : x y z
#
# Youngs Moduli (GPa) = 134.41362 111.17135 56.95986
#
# Poissons Ratio (x) = 0.31554 0.00410
# Poissons Ratio (y) = 0.38151 0.30475
# Poissons Ratio (z) = 0.00967 0.59480
#
# Static dielectric constant tensor:
#      x y z
#    x 1.842880 0.000000 0.017260 
#    y 0.000000 1.797600 0.000000 
#    z 0.017260 0.000000 1.761730 
# 
# From -- ./inp_files/247259.got.cif
#   From: 2010.05.17/outbox.cif.g08.bks.cpg/sg15_124_cif.got.tgz:247259.got - 2010.06.03 18:47:42.
