data_PCOD9282930
_publ_section_title
;
Structure prediction by ZEFSAII (Michael W. Deem and Ramdas Pophale) SiO2 
 PCOD9282930
Probable space group: C 2/C
;
_chemical_formula_sum "Si O2"
_cell_formula_units_Z 56
_cell_length_a 17.128054
_cell_length_b 28.338895
_cell_length_c 9.406905
_cell_angle_alpha 90.000000
_cell_angle_beta 141.751505
_cell_angle_gamma 90.000000
_cell_volume 2826.700412
_symmetry_space_group_name_H-M "C 2/C"
_symmetry_group_IT_number 15
_symmetry_cell_setting 'monoclinic'
loop_
_space_group_symop_operation_xyz
x,y,z
-x,y,1/2-z
-x,-y,-z
x,-y,1/2+z
1/2+x,1/2+y,z
1/2-x,1/2+y,1/2-z
1/2-x,1/2-y,-z
1/2+x,1/2-y,1/2+z
loop_
_atom_site_type_symbol
_atom_site_label
_atom_site_fract_x
_atom_site_fract_y
_atom_site_fract_z
Si Si1 0.262152 0.301192 0.088651
Si Si2 0.940209 0.319623 0.470155
Si Si3 0.362958 0.460590 0.979681
Si Si4 0.757821 0.845749 0.551141
Si Si5 0.872373 0.053176 0.155725
Si Si6 0.496391 0.723149 0.408844
Si Si7 0.813054 0.628824 0.241062
O O1 0.136037 0.314520 0.993474
O O2 0.377278 0.303592 0.363335
O O3 0.250000 0.250000 0.000000
O O4 0.276130 0.338471 0.983007
O O5 0.995049 0.268426 0.508626
O O6 0.044682 0.360882 0.608977
O O7 0.836078 0.326355 0.199513
O O8 0.500000 0.450116 0.250000
O O9 0.317525 0.509560 0.986299
O O10 0.385612 0.462137 0.841033
O O11 0.254877 0.421778 0.854148
O O12 0.801054 0.897361 0.561214
O O13 0.688600 0.852144 0.601425
O O14 0.875983 0.811071 0.747214
O O15 0.000000 0.062669 0.250000
O O16 0.500000 0.738602 0.250000
#
# Coordination Sequence:
#
# PCOD9282930 Si02
#       7
#     8   8   8   8   8   8   8
#     4  12  26  42  63  93 131 169 219 272 319 379
#     4  12  25  43  64  90 134 175 215 262 319 395
#     4  10  22  40  65  95 128 168 211 274 330 384
#     4  11  24  41  67  94 125 175 216 268 316 392
#     4  10  21  39  65  97 128 161 217 273 328 378
#     4  12  24  41  65  93 126 172 225 261 321 380
#     4  11  25  41  63  94 132 170 210 263 330 388
#
# _framework density 19.811086
#
# number of rings (size 3 to 8) (size 9 to 14) (size 15 to 20)
#    0.000    0.857    2.857    5.143    4.000    2.286 
#    0.000    0.714    0.000    1.714    0.000    0.000 
#    0.000    0.000    0.000    0.000    0.000    0.000 
#
# Total GULP energy -156330.846800 kJ/mol
# GULP energy per Si atom -5583.244529 kJ/mol
# Density = 1.976599 g / cm^3
# Si number density = 19.811086 Si / 1000 Ang^3
#
#
#
# Elastic Constant Matrix: (Units=GPa)
#
#
# Indices 1 2 3 4 5 6 
#
# 1 115.2333 44.3176 29.0572 0.0000 -10.7472 0.0000
# 2 44.3176 70.6249 13.8627 0.0000 7.1344 0.0000
# 3 29.0572 13.8627 88.0842 0.0000 5.2206 0.0000
# 4 0.0000 0.0000 0.0000 -3.1979 0.0000 -9.5037
# 5 -10.7472 7.1344 5.2206 0.0000 36.9000 0.0000
# 6 0.0000 0.0000 0.0000 -9.5037 0.0000 3.6440
#
#
#
# Elastic Compliance Matrix: (Units=1/GPa)
#
#
# Indices 1 2 3 4 5 6 
#
# 1 0.013273 -0.008256 -0.003432 0.000000 0.005948 0.000000
# 2 -0.008256 0.019983 -0.000050 0.000000 -0.006261 0.000000
# 3 -0.003432 -0.000050 0.012658 0.000000 -0.002781 0.000000
# 4 0.000000 0.000000 0.000000 -0.035735 0.000000 -0.093198
# 5 0.005948 -0.006261 -0.002781 0.000000 0.030437 0.000000
# 6 0.000000 0.000000 0.000000 -0.093198 0.000000 0.031360
#
#
# Mechanical properties :
#
#
# Convention : Reuss Voigt Hill
#
# Bulk Modulus (GPa) = 44.56937 49.82417 47.19677
# Shear Modulus (GPa) = 48.57648 19.91622 34.24635
#
# Velocity S-wave (km/s) = 4.95712 3.17410 4.16221
# Velocity P-wave (km/s) = 7.43708 6.21590 6.85374
#
# Compressibility (1/GPa) = 0.02243693
#
# Stress axis : x y z
#
# Youngs Moduli (GPa) = 75.33829 50.04353 79.00424
#
# Poissons Ratio (x) = 0.41318 0.27112
# Poissons Ratio (y) = 0.62202 0.00396
# Poissons Ratio (z) = 0.25854 0.00251
#
# Static dielectric constant tensor:
#      x y z
#    x 1.713160 0.000000 0.019480 
#    y 0.000000 1.719640 0.000000 
#    z 0.019480 0.000000 1.722890 
# 
# From -- ./inp_files/52349.got.cif
#   From: 2010.05.17/outbox.cif.g08.bks.cpg/sg15_27_cif.got.tgz:52349.got - 2010.06.03 18:47:42.
