data_PCOD9282320
_publ_section_title
;
Structure prediction by ZEFSAII (Michael W. Deem and Ramdas Pophale) SiO2 
 PCOD9282320
Probable space group: C 2/C
;
_chemical_formula_sum "Si O2"
_cell_formula_units_Z 48
_cell_length_a 7.384990
_cell_length_b 8.612532
_cell_length_c 28.910725
_cell_angle_alpha 90.000000
_cell_angle_beta 87.566466
_cell_angle_gamma 90.000000
_cell_volume 1837.163877
_symmetry_space_group_name_H-M "C 2/C"
_symmetry_group_IT_number 15
_symmetry_cell_setting 'monoclinic'
loop_
_space_group_symop_operation_xyz
x,y,z
-x,y,1/2-z
-x,-y,-z
x,-y,1/2+z
1/2+x,1/2+y,z
1/2-x,1/2+y,1/2-z
1/2-x,1/2-y,-z
1/2+x,1/2-y,1/2+z
loop_
_atom_site_type_symbol
_atom_site_label
_atom_site_fract_x
_atom_site_fract_y
_atom_site_fract_z
Si Si1 0.839714 0.819308 0.906178
Si Si2 0.157549 0.527037 0.650083
Si Si3 0.249448 0.505604 0.819415
Si Si4 0.742659 0.816657 0.572057
Si Si5 0.718615 0.192917 0.737655
Si Si6 0.295216 0.511817 0.984984
O O1 0.768634 0.661207 0.884597
O O2 0.849673 0.942364 0.863609
O O3 0.042533 0.805251 0.922297
O O4 0.730871 0.872255 0.952886
O O5 0.168431 0.367211 0.622451
O O6 0.245897 0.557190 0.698830
O O7 0.945642 0.558160 0.659939
O O8 0.226124 0.353981 0.786641
O O9 0.314098 0.641064 0.784151
O O10 0.694431 0.654252 0.550659
O O11 0.690870 0.941999 0.532690
O O12 0.500000 0.202136 0.750000
O O13 0.500000 0.500000 0.000000
#
# Coordination Sequence:
#
# PCOD9282320 Si02
#       6
#     8   8   8   8   8   8
#     4  10  21  39  61  87 120 156 198 245 295 351
#     4  10  22  39  60  88 120 153 195 245 292 349
#     4  10  21  40  62  86 117 154 195 242 297 353
#     4  10  21  40  61  86 122 156 197 250 295 350
#     4   9  21  40  58  85 120 149 190 244 293 351
#     4   9  20  38  60  87 120 160 201 243 295 353
#
# _framework density 26.127227999999999
#
# number of rings (size 3 to 8) (size 9 to 14) (size 15 to 20)
#    0.000    2.333    0.000    1.000    0.000   11.333 
#    0.000   22.500    0.000    0.000    0.000    0.000 
#    0.000    0.000    0.000    0.000    0.000    0.000 
#
# Total GULP energy -134242.121430 kJ/mol
# GULP energy per Si atom -5593.421726 kJ/mol
# Density = 2.606776 g / cm^3
# Si number density = 26.127228 Si / 1000 Ang^3
#
#
#
# Elastic Constant Matrix: (Units=GPa)
#
#
# Indices 1 2 3 4 5 6 
#
# 1 49.6110 6.3599 20.2337 0.0000 10.2152 0.0000
# 2 6.3599 37.2903 62.8560 0.0000 12.2250 0.0000
# 3 20.2337 62.8560 143.7011 0.0000 16.5842 0.0000
# 4 0.0000 0.0000 0.0000 86.3810 0.0000 0.0890
# 5 10.2152 12.2250 16.5842 0.0000 35.7018 0.0000
# 6 0.0000 0.0000 0.0000 0.0890 0.0000 19.6251
#
#
#
# Elastic Compliance Matrix: (Units=1/GPa)
#
#
# Indices 1 2 3 4 5 6 
#
# 1 0.023012 0.009265 -0.006516 0.000000 -0.006730 0.000000
# 2 0.009265 0.114041 -0.049001 0.000000 -0.018939 0.000000
# 3 -0.006516 -0.049001 0.028697 0.000000 0.005313 0.000000
# 4 0.000000 0.000000 0.000000 0.011577 0.000000 -0.000052
# 5 -0.006730 -0.018939 0.005313 0.000000 0.033952 0.000000
# 6 0.000000 0.000000 0.000000 -0.000052 0.000000 0.050955
#
#
# Mechanical properties :
#
#
# Convention : Reuss Voigt Hill
#
# Bulk Modulus (GPa) = 13.65275 45.50017 29.57646
# Shear Modulus (GPa) = 13.18727 37.75175 25.46951
#
# Velocity S-wave (km/s) = 2.24906 3.80533 3.12561
# Velocity P-wave (km/s) = 3.46139 6.06301 4.93666
#
# Compressibility (1/GPa) = 0.07324533
#
# Stress axis : x y z
#
# Youngs Moduli (GPa) = 43.45471 8.76881 34.84725
#
# Poissons Ratio (x) = -0.08124 0.22707
# Poissons Ratio (y) = -0.40261 1.70755
# Poissons Ratio (z) = 0.28316 0.42968
#
# Static dielectric constant tensor:
#      x y z
#    x 2.028000 0.000000 -0.040890 
#    y 0.000000 2.103400 0.000000 
#    z -0.040890 0.000000 2.029420 
# 
# From -- ./inp_files/306686.got.cif
#   From: 2010.05.17/outbox.cif.g08.bks.cpg/sg15_154_cif.got.tgz:306686.got - 2010.06.03 18:47:42.
