data_PCOD9282980
_publ_section_title
;
Structure prediction by ZEFSAII (Michael W. Deem and Ramdas Pophale) SiO2 
 PCOD9282980
Probable space group: C 2/C
;
_chemical_formula_sum "Si O2"
_cell_formula_units_Z 60
_cell_length_a 18.704299
_cell_length_b 9.454174
_cell_length_c 27.315443
_cell_angle_alpha 90.000000
_cell_angle_beta 138.578653
_cell_angle_gamma 90.000000
_cell_volume 3195.678319
_symmetry_space_group_name_H-M "C 2/C"
_symmetry_group_IT_number 15
_symmetry_cell_setting 'monoclinic'
loop_
_space_group_symop_operation_xyz
x,y,z
-x,y,1/2-z
-x,-y,-z
x,-y,1/2+z
1/2+x,1/2+y,z
1/2-x,1/2+y,1/2-z
1/2-x,1/2-y,-z
1/2+x,1/2-y,1/2+z
loop_
_atom_site_type_symbol
_atom_site_label
_atom_site_fract_x
_atom_site_fract_y
_atom_site_fract_z
Si Si1 0.354098 0.137247 0.102980
Si Si2 0.518700 0.362043 0.618796
Si Si3 0.500000 0.708651 0.750000
Si Si4 0.900214 0.154273 0.541732
Si Si5 0.406233 0.566723 0.238513
Si Si6 0.173394 0.541367 0.070727
Si Si7 0.157705 0.367478 0.456986
Si Si8 0.962836 0.268038 0.472388
O O1 0.408895 0.195919 0.179333
O O2 0.412433 0.227311 0.089855
O O3 0.361845 0.970848 0.098045
O O4 0.226483 0.161865 0.035709
O O5 0.439756 0.499043 0.578281
O O6 0.591170 0.378579 0.704568
O O7 0.450203 0.220229 0.590891
O O8 0.564160 0.333852 0.587431
O O9 0.557790 0.598506 0.742775
O O10 0.960643 0.188944 0.522758
O O11 0.500000 0.629624 0.250000
O O12 0.288554 0.576901 0.153627
O O13 0.121972 0.398320 0.066345
O O14 0.186771 0.533948 0.018662
O O15 0.082083 0.662178 0.029608
O O16 0.250000 0.250000 0.500000
#
# Coordination Sequence:
#
# PCOD9282980 Si02
#       8
#     8   8   4   8   8   8   8   8
#     4  11  22  37  66  92 125 163 212 269 323 370
#     4  11  22  39  60  93 124 165 209 259 319 381
#     4  10  22  38  58  96 124 162 196 260 328 380
#     4  11  20  39  64  91 120 168 215 263 305 377
#     4  10  21  39  66  90 126 159 206 264 327 373
#     4  10  21  41  62  90 124 173 207 259 325 371
#     4  11  21  38  64  93 121 161 219 268 315 371
#     4  10  22  38  65  86 125 169 219 254 301 391
#
# _framework density 18.775357
#
# number of rings (size 3 to 8) (size 9 to 14) (size 15 to 20)
#    0.400    1.067    4.000    2.000    1.867    0.000 
#    6.000    0.000    0.000    0.000    0.000    0.000 
#    0.000    0.000    0.000    0.000    0.000    0.000 
#
# Total GULP energy -167166.647055 kJ/mol
# GULP energy per Si atom -5572.221569 kJ/mol
# Density = 1.873262 g / cm^3
# Si number density = 18.775357 Si / 1000 Ang^3
#
#
#
# Elastic Constant Matrix: (Units=GPa)
#
#
# Indices 1 2 3 4 5 6 
#
# 1 48.2559 10.4779 15.0698 0.0000 3.1278 0.0000
# 2 10.4779 72.6141 21.4226 0.0000 -4.5834 0.0000
# 3 15.0698 21.4226 104.7856 0.0000 2.9274 0.0000
# 4 0.0000 0.0000 0.0000 25.6395 0.0000 -9.5946
# 5 3.1278 -4.5834 2.9274 0.0000 19.8053 0.0000
# 6 0.0000 0.0000 0.0000 -9.5946 0.0000 33.2584
#
#
#
# Elastic Compliance Matrix: (Units=1/GPa)
#
#
# Indices 1 2 3 4 5 6 
#
# 1 0.022354 -0.002710 -0.002555 0.000000 -0.003780 0.000000
# 2 -0.002710 0.015282 -0.002857 0.000000 0.004387 0.000000
# 3 -0.002555 -0.002857 0.010546 0.000000 -0.001816 0.000000
# 4 0.000000 0.000000 0.000000 0.043722 0.000000 0.012613
# 5 -0.003780 0.004387 -0.001816 0.000000 0.052372 0.000000
# 6 0.000000 0.000000 0.000000 0.012613 0.000000 0.033706
#
#
# Mechanical properties :
#
#
# Convention : Reuss Voigt Hill
#
# Bulk Modulus (GPa) = 31.31173 35.51069 33.41121
# Shear Modulus (GPa) = 24.40520 27.65299 26.02910
#
# Velocity S-wave (km/s) = 3.60926 3.84192 3.72740
# Velocity P-wave (km/s) = 5.83800 6.21570 6.02981
#
# Compressibility (1/GPa) = 0.03193691
#
# Stress axis : x y z
#
# Youngs Moduli (GPa) = 44.73410 65.43497 94.82600
#
# Poissons Ratio (x) = 0.17735 0.24230
# Poissons Ratio (y) = 0.12125 0.27093
# Poissons Ratio (z) = 0.11430 0.18696
#
# Static dielectric constant tensor:
#      x y z
#    x 1.723930 0.000000 -0.036800 
#    y 0.000000 1.665700 0.000000 
#    z -0.036800 0.000000 1.632390 
# 
# From -- ./inp_files/300523.got.cif
#   From: 2010.05.17/outbox.cif.g08.bks.cpg/sg15_151_cif.got.tgz:300523.got - 2010.06.03 18:47:42.
