data_PCOD9282028
_publ_section_title
;
Structure prediction by ZEFSAII (Michael W. Deem and Ramdas Pophale) SiO2 
 PCOD9282028
Probable space group: C 2/C
;
_chemical_formula_sum "Si O2"
_cell_formula_units_Z 36
_cell_length_a 7.478361
_cell_length_b 19.356715
_cell_length_c 12.743251
_cell_angle_alpha 90.000000
_cell_angle_beta 57.978560
_cell_angle_gamma 90.000000
_cell_volume 1564.001665
_symmetry_space_group_name_H-M "C 2/C"
_symmetry_group_IT_number 15
_symmetry_cell_setting 'monoclinic'
loop_
_space_group_symop_operation_xyz
x,y,z
-x,y,1/2-z
-x,-y,-z
x,-y,1/2+z
1/2+x,1/2+y,z
1/2-x,1/2+y,1/2-z
1/2-x,1/2-y,-z
1/2+x,1/2-y,1/2+z
loop_
_atom_site_type_symbol
_atom_site_label
_atom_site_fract_x
_atom_site_fract_y
_atom_site_fract_z
Si Si1 0.969510 0.672041 0.884737
Si Si2 0.000000 0.043655 0.750000
Si Si3 0.443326 0.017576 0.645436
Si Si4 0.493441 0.676231 0.123975
Si Si5 0.643692 0.435580 0.991498
O O1 0.071782 0.744983 0.885270
O O2 0.000000 0.673827 0.750000
O O3 0.054442 0.597517 0.889383
O O4 0.730458 0.670367 0.002877
O O5 0.204063 0.995388 0.701589
O O6 0.029971 0.087474 0.634744
O O7 0.500000 0.019383 0.750000
O O8 0.370516 0.968092 0.950201
O O9 0.500000 0.668591 0.250000
O O10 0.358141 0.621056 0.099461
O O11 0.500000 0.500000 0.000000
#
# Coordination Sequence:
#
# PCOD9282028 Si02
#       5
#     8   4   8   8   8
#     4   9  18  38  67 100 134 182 233 281 347 410
#     4  12  26  44  66  94 142 182 226 280 352 416
#     4  11  22  42  70  97 133 182 228 284 344 415
#     4  10  21  38  68 104 140 180 229 290 346 410
#     4  12  23  40  66 100 138 178 229 286 350 411
#
# _framework density 23.017878
#
# number of rings (size 3 to 8) (size 9 to 14) (size 15 to 20)
#    0.000    1.333    4.444    2.000    1.556    0.000 
#    4.000    1.111    2.444    0.000    0.000    0.000 
#    0.000    0.000    0.000    0.000    0.000    0.000 
#
# Total GULP energy -100398.153907 kJ/mol
# GULP energy per Si atom -5577.675217 kJ/mol
# Density = 2.296549 g / cm^3
# Si number density = 23.017878 Si / 1000 Ang^3
#
#
#
# Elastic Constant Matrix: (Units=GPa)
#
#
# Indices 1 2 3 4 5 6 
#
# 1 143.0740 58.9315 36.9657 0.0000 -14.2267 0.0000
# 2 58.9315 161.8134 56.3471 0.0000 13.6051 0.0000
# 3 36.9657 56.3471 166.6760 0.0000 8.4663 0.0000
# 4 0.0000 0.0000 0.0000 18.2831 0.0000 -19.5788
# 5 -14.2267 13.6051 8.4663 0.0000 34.0157 0.0000
# 6 0.0000 0.0000 0.0000 -19.5788 0.0000 -11.8930
#
#
#
# Elastic Compliance Matrix: (Units=1/GPa)
#
#
# Indices 1 2 3 4 5 6 
#
# 1 0.009255 -0.003427 -0.001175 0.000000 0.005534 0.000000
# 2 -0.003427 0.008446 -0.001875 0.000000 -0.004345 0.000000
# 3 -0.001175 -0.001875 0.006969 0.000000 -0.001476 0.000000
# 4 0.000000 0.000000 0.000000 0.019796 0.000000 -0.032589
# 5 0.005534 -0.004345 -0.001476 0.000000 0.033818 0.000000
# 6 0.000000 0.000000 0.000000 -0.032589 0.000000 -0.030433
#
#
# Mechanical properties :
#
#
# Convention : Reuss Voigt Hill
#
# Bulk Modulus (GPa) = 85.34687 86.22799 85.78743
# Shear Modulus (GPa) = 77.26865 29.36909 53.31887
#
# Velocity S-wave (km/s) = 5.80016 3.57588 4.81813
# Velocity P-wave (km/s) = 9.05620 7.38863 8.26458
#
# Compressibility (1/GPa) = 0.01171689
#
# Stress axis : x y z
#
# Youngs Moduli (GPa) = 108.05398 118.39987 143.49173
#
# Poissons Ratio (x) = 0.40570 0.16863
# Poissons Ratio (y) = 0.37025 0.26900
# Poissons Ratio (z) = 0.12699 0.22196
#
# Static dielectric constant tensor:
#      x y z
#    x 1.947880 0.000000 -0.033320 
#    y 0.000000 1.883160 0.000000 
#    z -0.033320 0.000000 2.079240 
# 
# From -- ./inp_files/77581.got.cif
#   From: 2010.05.17/outbox.cif.g08.bks.cpg/sg15_39_cif.got.tgz:77581.got - 2010.06.03 18:47:42.
