data_PCOD9282491
_publ_section_title
;
Structure prediction by ZEFSAII (Michael W. Deem and Ramdas Pophale) SiO2 
 PCOD9282491
Probable space group: C 2/C
;
_chemical_formula_sum "Si O2"
_cell_formula_units_Z 44
_cell_length_a 13.695089
_cell_length_b 13.331851
_cell_length_c 14.951927
_cell_angle_alpha 90.000000
_cell_angle_beta 134.557045
_cell_angle_gamma 90.000000
_cell_volume 1945.222107
_symmetry_space_group_name_H-M "C 2/C"
_symmetry_group_IT_number 15
_symmetry_cell_setting 'monoclinic'
loop_
_space_group_symop_operation_xyz
x,y,z
-x,y,1/2-z
-x,-y,-z
x,-y,1/2+z
1/2+x,1/2+y,z
1/2-x,1/2+y,1/2-z
1/2-x,1/2-y,-z
1/2+x,1/2-y,1/2+z
loop_
_atom_site_type_symbol
_atom_site_label
_atom_site_fract_x
_atom_site_fract_y
_atom_site_fract_z
Si Si1 0.026173 0.203327 0.629124
Si Si2 0.801625 0.592915 0.821399
Si Si3 0.165571 0.595176 0.276201
Si Si4 0.431590 0.705542 0.377487
Si Si5 0.000000 0.922475 0.750000
Si Si6 0.227457 0.921814 0.464539
O O1 0.137591 0.113933 0.711961
O O2 0.073982 0.305544 0.706816
O O3 0.030447 0.220848 0.525272
O O4 0.882020 0.165244 0.577913
O O5 0.855581 0.493477 0.808748
O O6 0.869717 0.686668 0.816286
O O7 0.824228 0.602971 0.942594
O O8 0.314606 0.636587 0.345257
O O9 0.183338 0.556882 0.389487
O O10 0.477860 0.648101 0.320608
O O11 0.130512 0.989141 0.864922
#
# Coordination Sequence:
#
# PCOD9282491 Si02
#       6
#     8   8   8   8   4   8
#     4  10  21  39  62  93 124 158 207 256 299 363
#     4  11  21  40  61  94 123 159 203 254 311 358
#     4  10  22  40  61  95 127 159 203 261 301 365
#     4  10  23  38  65  88 126 161 207 252 304 364
#     4  12  20  42  64  92 118 168 208 252 300 370
#     4  11  21  38  69  91 117 164 210 249 303 363
#
# _framework density 22.619524999999999
#
# number of rings (size 3 to 8) (size 9 to 14) (size 15 to 20)
#    0.000    1.455    3.636    1.091    0.000   11.636 
#    3.273    2.727    8.000    0.000    0.000    0.000 
#    0.000    0.000    0.000    0.000    0.000    0.000 
#
# Total GULP energy -122925.282793 kJ/mol
# GULP energy per Si atom -5587.512854 kJ/mol
# Density = 2.256804 g / cm^3
# Si number density = 22.619525 Si / 1000 Ang^3
#
#
#
# Elastic Constant Matrix: (Units=GPa)
#
#
# Indices 1 2 3 4 5 6 
#
# 1 69.8766 46.6683 49.4043 0.0000 -22.9970 0.0000
# 2 46.6683 108.0906 39.1099 0.0000 -28.5888 0.0000
# 3 49.4043 39.1099 128.4265 0.0000 -37.1043 0.0000
# 4 0.0000 0.0000 0.0000 20.2709 0.0000 -17.9444
# 5 -22.9970 -28.5888 -37.1043 0.0000 27.4334 0.0000
# 6 0.0000 0.0000 0.0000 -17.9444 0.0000 23.3604
#
#
#
# Elastic Compliance Matrix: (Units=1/GPa)
#
#
# Indices 1 2 3 4 5 6 
#
# 1 0.025129 -0.007253 -0.005836 0.000000 0.005613 0.000000
# 2 -0.007253 0.014866 0.001612 0.000000 0.011592 0.000000
# 3 -0.005836 0.001612 0.014137 0.000000 0.015908 0.000000
# 4 0.000000 0.000000 0.000000 0.154160 0.000000 0.118419
# 5 0.005613 0.011592 0.015908 0.000000 0.074753 0.000000
# 6 0.000000 0.000000 0.000000 0.118419 0.000000 0.133772
#
#
# Mechanical properties :
#
#
# Convention : Reuss Voigt Hill
#
# Bulk Modulus (GPa) = 32.07519 64.08428 48.07974
# Shear Modulus (GPa) = 11.10710 25.62702 18.36706
#
# Velocity S-wave (km/s) = 2.21835 3.36960 2.85265
# Velocity P-wave (km/s) = 4.55769 6.59787 5.67029
#
# Compressibility (1/GPa) = 0.03117675
#
# Stress axis : x y z
#
# Youngs Moduli (GPa) = 39.79527 67.26898 70.73733
#
# Poissons Ratio (x) = 0.48791 0.41285
# Poissons Ratio (y) = 0.28864 -0.11405
# Poissons Ratio (z) = 0.23226 -0.10846
#
# Static dielectric constant tensor:
#      x y z
#    x 1.841210 0.000000 0.015800 
#    y 0.000000 1.816690 0.000000 
#    z 0.015800 0.000000 1.948450 
# 
# From -- ./inp_files/96129.got.cif
#   From: 2010.05.17/outbox.cif.g08.bks.cpg/sg15_49_cif.got.tgz:96129.got - 2010.06.03 18:47:42.
