data_PCOD9282069
_publ_section_title
;
Structure prediction by ZEFSAII (Michael W. Deem and Ramdas Pophale) SiO2 
 PCOD9282069
Probable space group: C 2/C
;
_chemical_formula_sum "Si O2"
_cell_formula_units_Z 56
_cell_length_a 12.085431
_cell_length_b 28.656573
_cell_length_c 9.345544
_cell_angle_alpha 90.000000
_cell_angle_beta 117.493464
_cell_angle_gamma 90.000000
_cell_volume 2871.082635
_symmetry_space_group_name_H-M "C 2/C"
_symmetry_group_IT_number 15
_symmetry_cell_setting 'monoclinic'
loop_
_space_group_symop_operation_xyz
x,y,z
-x,y,1/2-z
-x,-y,-z
x,-y,1/2+z
1/2+x,1/2+y,z
1/2-x,1/2+y,1/2-z
1/2-x,1/2-y,-z
1/2+x,1/2-y,1/2+z
loop_
_atom_site_type_symbol
_atom_site_label
_atom_site_fract_x
_atom_site_fract_y
_atom_site_fract_z
Si Si1 0.771469 0.089066 0.999154
Si Si2 0.851156 0.755630 0.691920
Si Si3 0.369866 0.899580 0.592835
Si Si4 0.942941 0.887417 0.364771
Si Si5 0.686186 0.154298 0.716132
Si Si6 0.170641 0.145916 0.185140
Si Si7 0.901955 0.503240 0.567237
O O1 0.680082 0.125318 0.861052
O O2 0.872038 0.077991 0.933238
O O3 0.697164 0.044185 0.004930
O O4 0.829491 0.115758 0.168640
O O5 0.750000 0.750000 0.500000
O O6 0.846730 0.707323 0.776196
O O7 0.810167 0.800806 0.757276
O O8 0.000000 0.763424 0.750000
O O9 0.500000 0.902573 0.750000
O O10 0.384149 0.872077 0.452620
O O11 0.275945 0.873702 0.642402
O O12 0.333436 0.953410 0.543084
O O13 0.167907 0.851461 0.239902
O O14 0.044265 0.861493 0.521393
O O15 0.000000 0.905694 0.250000
O O16 0.000000 0.513851 0.750000
O O17 0.000000 0.500000 0.500000
#
# Coordination Sequence:
#
# PCOD9282069 Si02
#       7
#     8   8   8   8   8   8   8
#     4  10  21  38  69  95 126 174 226 265 334 392
#     4  12  25  43  67 102 131 175 227 285 341 408
#     4  11  25  42  64 100 135 173 217 280 339 397
#     4  10  21  44  66  91 133 180 211 272 337 398
#     4  10  23  42  67  94 132 170 228 270 333 403
#     4  12  22  43  67  94 138 172 223 275 339 398
#     4  11  23  41  66  95 139 175 217 275 345 398
#
# _framework density 19.504836999999998
#
# number of rings (size 3 to 8) (size 9 to 14) (size 15 to 20)
#    0.857    0.286    2.857    4.714    2.000    2.286 
#    0.000    0.714    3.143    0.857    0.000    0.000 
#    0.000    0.000    0.000    0.000    0.000    0.000 
#
# Total GULP energy -156103.987716 kJ/mol
# GULP energy per Si atom -5575.142418 kJ/mol
# Density = 1.946044 g / cm^3
# Si number density = 19.504837 Si / 1000 Ang^3
#
#
#
# Elastic Constant Matrix: (Units=GPa)
#
#
# Indices 1 2 3 4 5 6 
#
# 1 46.2701 33.8114 -5.7864 0.0000 -10.7144 0.0000
# 2 33.8114 137.2733 27.5201 0.0000 0.5805 0.0000
# 3 -5.7864 27.5201 109.6563 0.0000 -2.7848 0.0000
# 4 0.0000 0.0000 0.0000 12.1830 0.0000 -16.2740
# 5 -10.7144 0.5805 -2.7848 0.0000 25.9738 0.0000
# 6 0.0000 0.0000 0.0000 -16.2740 0.0000 15.6416
#
#
#
# Elastic Compliance Matrix: (Units=1/GPa)
#
#
# Indices 1 2 3 4 5 6 
#
# 1 0.031671 -0.008701 0.004203 0.000000 0.013710 0.000000
# 2 -0.008701 0.010065 -0.003090 0.000000 -0.004146 0.000000
# 3 0.004203 -0.003090 0.010190 0.000000 0.002895 0.000000
# 4 0.000000 0.000000 0.000000 -0.210568 0.000000 -0.219082
# 5 0.013710 -0.004146 0.002895 0.000000 0.044559 0.000000
# 6 0.000000 0.000000 0.000000 -0.219082 0.000000 -0.164008
#
#
# Mechanical properties :
#
#
# Convention : Reuss Voigt Hill
#
# Bulk Modulus (GPa) = 27.21171 44.92111 36.06641
# Shear Modulus (GPa) = -19.94698 26.60331 3.32817
#
# Velocity S-wave (km/s) = -3.20139 3.69715 1.30768
# Velocity P-wave (km/s) = 0.56247 6.42698 4.56193
#
# Compressibility (1/GPa) = 0.03674889
#
# Stress axis : x y z
#
# Youngs Moduli (GPa) = 31.57481 99.35399 98.13236
#
# Poissons Ratio (x) = 0.86451 -0.41246
# Poissons Ratio (y) = 0.27474 0.30327
# Poissons Ratio (z) = -0.13271 0.30705
#
# Static dielectric constant tensor:
#      x y z
#    x 1.728910 0.000000 -0.014120 
#    y 0.000000 1.665990 0.000000 
#    z -0.014120 0.000000 1.577440 
# 
# From -- ./inp_files/34342.got.cif
#   From: 2010.05.17/outbox.cif.g08.bks.cpg/sg15_18_cif.got.tgz:34342.got - 2010.06.03 18:47:42.
