data_PCOD9282720
_publ_section_title
;
Structure prediction by ZEFSAII (Michael W. Deem and Ramdas Pophale) SiO2 
 PCOD9282720
Probable space group: C 2/C
;
_chemical_formula_sum "Si O2"
_cell_formula_units_Z 32
_cell_length_a 29.900378
_cell_length_b 7.810046
_cell_length_c 15.678530
_cell_angle_alpha 90.000000
_cell_angle_beta 20.303771
_cell_angle_gamma 90.000000
_cell_volume 1270.462371
_symmetry_space_group_name_H-M "C 2/C"
_symmetry_group_IT_number 15
_symmetry_cell_setting 'monoclinic'
loop_
_space_group_symop_operation_xyz
x,y,z
-x,y,1/2-z
-x,-y,-z
x,-y,1/2+z
1/2+x,1/2+y,z
1/2-x,1/2+y,1/2-z
1/2-x,1/2-y,-z
1/2+x,1/2-y,1/2+z
loop_
_atom_site_type_symbol
_atom_site_label
_atom_site_fract_x
_atom_site_fract_y
_atom_site_fract_z
Si Si1 0.223638 0.577539 0.391497
Si Si2 0.118351 0.400902 0.420019
Si Si3 0.501217 0.550439 0.849578
Si Si4 0.772611 0.552542 0.436947
O O1 0.134382 0.502826 0.478187
O O2 0.258976 0.771346 0.305823
O O3 0.179166 0.550399 0.566891
O O4 0.493038 0.758102 0.877868
O O5 0.365740 0.487115 0.130431
O O6 0.134267 0.520710 0.309819
O O7 0.500000 0.522679 0.750000
O O8 0.629405 0.487602 0.665809
O O9 0.750000 0.750000 0.500000
#
# Coordination Sequence:
#
# PCOD9282720 Si02
#       4
#     8   8   8   8
#     4  10  21  39  64  89 126 168 209 263 319 375
#     4  10  22  39  65  90 125 170 211 259 322 374
#     4  10  21  39  65  87 128 164 214 253 319 377
#     4  12  22  40  63  91 130 168 211 266 315 379
#
# _framework density 25.18768
#
# number of rings (size 3 to 8) (size 9 to 14) (size 15 to 20)
#    1.500    0.000    2.500    4.500    0.000    1.000 
#    0.000    0.000   11.000    0.000    0.000    0.000 
#    0.000    0.000    0.000    0.000    0.000    0.000 
#
# Total GULP energy -89455.270869 kJ/mol
# GULP energy per Si atom -5590.954429 kJ/mol
# Density = 2.513035 g / cm^3
# Si number density = 25.187680 Si / 1000 Ang^3
#
#
#
# Elastic Constant Matrix: (Units=GPa)
#
#
# Indices 1 2 3 4 5 6 
#
# 1 162.2743 26.1214 53.0810 0.0000 38.4094 0.0000
# 2 26.1214 75.2952 -4.8186 0.0000 9.1742 0.0000
# 3 53.0810 -4.8186 87.2148 0.0000 7.0687 0.0000
# 4 0.0000 0.0000 0.0000 39.1096 0.0000 6.5921
# 5 38.4094 9.1742 7.0687 0.0000 36.4492 0.0000
# 6 0.0000 0.0000 0.0000 6.5921 0.0000 26.2308
#
#
#
# Elastic Compliance Matrix: (Units=1/GPa)
#
#
# Indices 1 2 3 4 5 6 
#
# 1 0.010864 -0.002992 -0.006005 0.000000 -0.009531 0.000000
# 2 -0.002992 0.014621 0.002714 0.000000 -0.001054 0.000000
# 3 -0.006005 0.002714 0.015050 0.000000 0.002726 0.000000
# 4 0.000000 0.000000 0.000000 0.026700 0.000000 -0.006710
# 5 -0.009531 -0.001054 0.002726 0.000000 0.037215 0.000000
# 6 0.000000 0.000000 0.000000 -0.006710 0.000000 0.039809
#
#
# Mechanical properties :
#
#
# Convention : Reuss Voigt Hill
#
# Bulk Modulus (GPa) = 35.75342 52.61689 44.18515
# Shear Modulus (GPa) = 30.09344 37.05126 33.57235
#
# Velocity S-wave (km/s) = 3.46029 3.83953 3.65483
# Velocity P-wave (km/s) = 5.49458 6.37113 5.94902
#
# Compressibility (1/GPa) = 0.02796936
#
# Stress axis : x y z
#
# Youngs Moduli (GPa) = 92.04503 68.39418 66.44613
#
# Poissons Ratio (x) = 0.20464 0.39901
# Poissons Ratio (y) = 0.27540 -0.18035
# Poissons Ratio (z) = 0.55274 -0.18564
#
# Static dielectric constant tensor:
#      x y z
#    x 1.931600 0.000000 -0.024310 
#    y 0.000000 1.952860 0.000000 
#    z -0.024310 0.000000 2.006500 
# 
# From -- ./inp_files/149791.got.cif
#   From: 2010.05.17/outbox.cif.g08.bks.cpg/sg15_75_cif.got.tgz:149791.got - 2010.06.03 18:47:42.
