data_PCOD9282051
_publ_section_title
;
Structure prediction by ZEFSAII (Michael W. Deem and Ramdas Pophale) SiO2 
 PCOD9282051
Probable space group: C 2/C
;
_chemical_formula_sum "Si O2"
_cell_formula_units_Z 64
_cell_length_a 19.724592
_cell_length_b 8.081179
_cell_length_c 19.166697
_cell_angle_alpha 90.000000
_cell_angle_beta 93.866965
_cell_angle_gamma 90.000000
_cell_volume 3048.176843
_symmetry_space_group_name_H-M "C 2/C"
_symmetry_group_IT_number 15
_symmetry_cell_setting 'monoclinic'
loop_
_space_group_symop_operation_xyz
x,y,z
-x,y,1/2-z
-x,-y,-z
x,-y,1/2+z
1/2+x,1/2+y,z
1/2-x,1/2+y,1/2-z
1/2-x,1/2-y,-z
1/2+x,1/2-y,1/2+z
loop_
_atom_site_type_symbol
_atom_site_label
_atom_site_fract_x
_atom_site_fract_y
_atom_site_fract_z
Si Si1 0.904765 0.200513 0.402886
Si Si2 0.067085 0.547071 0.051294
Si Si3 0.151337 0.476080 0.359688
Si Si4 0.957967 0.958252 0.613981
Si Si5 0.769547 0.088594 0.455353
Si Si6 0.014144 0.678913 0.333160
Si Si7 0.423741 0.229889 0.744148
Si Si8 0.845093 0.187949 0.024234
O O1 0.892715 0.375813 0.439827
O O2 0.843509 0.092195 0.425322
O O3 0.905541 0.207556 0.318960
O O4 0.981511 0.139452 0.420897
O O5 0.043009 0.582236 0.128184
O O6 0.112947 0.700288 0.028748
O O7 0.000000 0.500000 0.000000
O O8 0.216013 0.578788 0.388114
O O9 0.084161 0.588541 0.360096
O O10 0.136372 0.390858 0.284635
O O11 0.156012 0.321409 0.412956
O O12 0.936259 0.867893 0.685027
O O13 0.894377 0.954228 0.558711
O O14 0.983083 0.138274 0.634941
O O15 0.750000 0.250000 0.500000
O O16 0.777395 0.915455 0.499244
O O17 0.000000 0.693458 0.250000
O O18 0.500000 0.149923 0.750000
#
# Coordination Sequence:
#
# PCOD9282051 Si02
#       8
#     8   8   8   8   8   8   8   8
#     4  11  22  41  62  92 126 163 210 266 325 385
#     4  12  22  38  66  98 123 164 214 274 336 382
#     4  11  22  41  61  87 124 169 209 252 318 386
#     4  10  21  38  68  97 127 159 207 274 339 382
#     4  12  27  42  60  87 130 175 215 259 313 390
#     4  12  23  38  66  98 128 161 214 275 330 389
#     4   9  19  41  67  92 121 159 209 268 332 376
#     4  11  23  41  65  92 123 167 213 272 321 386
#
# _framework density 20.996158999999999
#
# number of rings (size 3 to 8) (size 9 to 14) (size 15 to 20)
#    0.000    1.000    2.500    6.375    1.750    1.000 
#    0.000    7.500    0.000    0.000    0.000    0.000 
#    0.000    0.000    0.000    0.000    0.000    0.000 
#
# Total GULP energy -178435.221680 kJ/mol
# GULP energy per Si atom -5576.100678 kJ/mol
# Density = 2.094837 g / cm^3
# Si number density = 20.996159 Si / 1000 Ang^3
#
#
#
# Elastic Constant Matrix: (Units=GPa)
#
#
# Indices 1 2 3 4 5 6 
#
# 1 50.0898 6.4450 27.2168 0.0000 24.8724 0.0000
# 2 6.4450 84.1230 3.4609 0.0000 7.3029 0.0000
# 3 27.2168 3.4609 68.7160 0.0000 13.2663 0.0000
# 4 0.0000 0.0000 0.0000 17.3358 0.0000 2.8015
# 5 24.8724 7.3029 13.2663 0.0000 35.1077 0.0000
# 6 0.0000 0.0000 0.0000 2.8015 0.0000 39.7415
#
#
#
# Elastic Compliance Matrix: (Units=1/GPa)
#
#
# Indices 1 2 3 4 5 6 
#
# 1 0.036402 -0.000474 -0.010177 0.000000 -0.021845 0.000000
# 2 -0.000474 0.012113 -0.000001 0.000000 -0.002184 0.000000
# 3 -0.010177 -0.000001 0.018544 0.000000 0.000202 0.000000
# 4 0.000000 0.000000 0.000000 0.058349 0.000000 -0.004113
# 5 -0.021845 -0.002184 0.000202 0.000000 0.044338 0.000000
# 6 0.000000 0.000000 0.000000 -0.004113 0.000000 0.025453
#
#
# Mechanical properties :
#
#
# Convention : Reuss Voigt Hill
#
# Bulk Modulus (GPa) = 21.85449 30.79712 26.32581
# Shear Modulus (GPa) = 21.57456 29.49074 25.53265
#
# Velocity S-wave (km/s) = 3.20902 3.75184 3.49099
# Velocity P-wave (km/s) = 4.91546 5.78517 5.36796
#
# Compressibility (1/GPa) = 0.04575719
#
# Stress axis : x y z
#
# Youngs Moduli (GPa) = 27.47085 82.55416 53.92485
#
# Poissons Ratio (x) = 0.03911 0.54878
# Poissons Ratio (y) = 0.01302 0.00004
# Poissons Ratio (z) = 0.27956 0.00007
#
# Static dielectric constant tensor:
#      x y z
#    x 1.769270 0.000000 0.008960 
#    y 0.000000 1.826220 0.000000 
#    z 0.008960 0.000000 1.758520 
# 
# From -- ./inp_files/247468.got.cif
#   From: 2010.05.17/outbox.cif.g08.bks.cpg/sg15_124_cif.got.tgz:247468.got - 2010.06.03 18:47:42.
