data_PCOD9282801
_publ_section_title
;
Structure prediction by ZEFSAII (Michael W. Deem and Ramdas Pophale) SiO2 
 PCOD9282801
Probable space group: C 2/C
;
_chemical_formula_sum "Si O2"
_cell_formula_units_Z 48
_cell_length_a 27.758294
_cell_length_b 14.256210
_cell_length_c 5.290598
_cell_angle_alpha 90.000000
_cell_angle_beta 80.500253
_cell_angle_gamma 90.000000
_cell_volume 2064.926666
_symmetry_space_group_name_H-M "C 2/C"
_symmetry_group_IT_number 15
_symmetry_cell_setting 'monoclinic'
loop_
_space_group_symop_operation_xyz
x,y,z
-x,y,1/2-z
-x,-y,-z
x,-y,1/2+z
1/2+x,1/2+y,z
1/2-x,1/2+y,1/2-z
1/2-x,1/2-y,-z
1/2+x,1/2-y,1/2+z
loop_
_atom_site_type_symbol
_atom_site_label
_atom_site_fract_x
_atom_site_fract_y
_atom_site_fract_z
Si Si1 0.362159 0.895166 0.008646
Si Si2 0.267408 0.694070 0.233970
Si Si3 0.676202 0.104305 0.454868
Si Si4 0.141908 0.061836 0.380216
Si Si5 0.030654 0.134354 0.471570
Si Si6 0.029082 0.360665 0.472893
O O1 0.331310 0.850102 0.262890
O O2 0.417074 0.901135 0.054437
O O3 0.342027 0.999314 0.981963
O O4 0.356660 0.848608 0.737562
O O5 0.250000 0.750000 0.500000
O O6 0.230213 0.605511 0.297456
O O7 0.320869 0.649265 0.168780
O O8 0.250000 0.750000 0.000000
O O9 0.085205 0.093829 0.425780
O O10 0.150560 0.004835 0.631142
O O11 0.034748 0.247728 0.460251
O O12 0.000000 0.106031 0.250000
O O13 0.000000 0.110794 0.750000
O O14 0.000000 0.390355 0.250000
O O15 0.000000 0.385039 0.750000
#
# Coordination Sequence:
#
# PCOD9282801 Si02
#       6
#     8   8   8   8   8   8
#     4  10  21  40  65  98 128 186 216 271 343 408
#     4  12  28  48  72 106 137 186 234 291 348 415
#     4  10  23  39  65  92 133 178 217 277 333 412
#     4  12  28  47  74 108 145 182 234 300 353 423
#     4  10  23  43  69 102 140 182 228 287 355 415
#     4  10  21  39  64  96 137 175 226 286 329 401
#
# _framework density 23.245377000000001
#
# number of rings (size 3 to 8) (size 9 to 14) (size 15 to 20)
#    0.000    1.333    0.000    4.000    9.333    2.000 
#    0.000   10.000    0.000    0.000    0.000    0.000 
#    0.000    0.000    0.000    0.000    0.000    0.000 
#
# Total GULP energy -134237.222022 kJ/mol
# GULP energy per Si atom -5593.217584 kJ/mol
# Density = 2.319247 g / cm^3
# Si number density = 23.245377 Si / 1000 Ang^3
#
#
#
# Elastic Constant Matrix: (Units=GPa)
#
#
# Indices 1 2 3 4 5 6 
#
# 1 124.9217 38.4088 55.7044 0.0000 -14.0152 0.0000
# 2 38.4088 106.0877 42.1865 0.0000 -12.9175 0.0000
# 3 55.7044 42.1865 204.4038 0.0000 18.6487 0.0000
# 4 0.0000 0.0000 0.0000 16.6085 0.0000 -14.9702
# 5 -14.0152 -12.9175 18.6487 0.0000 47.2197 0.0000
# 6 0.0000 0.0000 0.0000 -14.9702 0.0000 28.3787
#
#
#
# Elastic Compliance Matrix: (Units=1/GPa)
#
#
# Indices 1 2 3 4 5 6 
#
# 1 0.010267 -0.002238 -0.002654 0.000000 0.003483 0.000000
# 2 -0.002238 0.011452 -0.002053 0.000000 0.003279 0.000000
# 3 -0.002654 -0.002053 0.006393 0.000000 -0.003874 0.000000
# 4 0.000000 0.000000 0.000000 0.114791 0.000000 0.060554
# 5 0.003483 0.003279 -0.003874 0.000000 0.024639 0.000000
# 6 0.000000 0.000000 0.000000 0.060554 0.000000 0.067181
#
#
# Mechanical properties :
#
#
# Convention : Reuss Voigt Hill
#
# Bulk Modulus (GPa) = 70.31031 78.66807 74.48919
# Shear Modulus (GPa) = 19.73530 38.38225 29.05877
#
# Velocity S-wave (km/s) = 2.91692 4.06788 3.53949
# Velocity P-wave (km/s) = 6.45424 7.48194 6.98701
#
# Compressibility (1/GPa) = 0.01422266
#
# Stress axis : x y z
#
# Youngs Moduli (GPa) = 97.39642 87.32102 156.42830
#
# Poissons Ratio (x) = 0.19540 0.41517
# Poissons Ratio (y) = 0.21795 0.32114
# Poissons Ratio (z) = 0.25849 0.17926
#
# Static dielectric constant tensor:
#      x y z
#    x 1.900700 0.000000 0.050480 
#    y 0.000000 1.995370 0.000000 
#    z 0.050480 0.000000 1.923070 
# 
# From -- ./inp_files/15414.got.cif
#   From: 2010.05.17/outbox.cif.g08.bks.cpg/sg15_8_cif.got.tgz:15414.got - 2010.06.03 18:47:42.
