data_PCOD9282389
_publ_section_title
;
Structure prediction by ZEFSAII (Michael W. Deem and Ramdas Pophale) SiO2 
 PCOD9282389
Probable space group: C 2/C
;
_chemical_formula_sum "Si O2"
_cell_formula_units_Z 44
_cell_length_a 10.842416
_cell_length_b 25.297214
_cell_length_c 8.585040
_cell_angle_alpha 90.000000
_cell_angle_beta 118.589969
_cell_angle_gamma 90.000000
_cell_volume 2067.610004
_symmetry_space_group_name_H-M "C 2/C"
_symmetry_group_IT_number 15
_symmetry_cell_setting 'monoclinic'
loop_
_space_group_symop_operation_xyz
x,y,z
-x,y,1/2-z
-x,-y,-z
x,-y,1/2+z
1/2+x,1/2+y,z
1/2-x,1/2+y,1/2-z
1/2-x,1/2-y,-z
1/2+x,1/2-y,1/2+z
loop_
_atom_site_type_symbol
_atom_site_label
_atom_site_fract_x
_atom_site_fract_y
_atom_site_fract_z
Si Si1 0.142849 0.340512 0.150907
Si Si2 0.500000 0.510081 0.250000
Si Si3 0.589651 0.041073 0.654915
Si Si4 0.675215 0.804292 0.501742
Si Si5 0.188394 0.957502 0.601709
Si Si6 0.330079 0.154891 0.162158
O O1 0.116413 0.402327 0.096418
O O2 0.208379 0.338912 0.364928
O O3 0.219845 0.322489 0.037436
O O4 0.995082 0.309165 0.082051
O O5 0.616176 0.472419 0.396608
O O6 0.433448 0.545775 0.343687
O O7 0.500000 0.055652 0.750000
O O8 0.500000 0.000000 0.500000
O O9 0.721239 0.008275 0.795160
O O10 0.750000 0.750000 0.500000
O O11 0.720655 0.818835 0.706061
O O12 0.280552 0.905494 0.653465
O O13 0.500000 0.158112 0.250000
#
# Coordination Sequence:
#
# PCOD9282389 Si02
#       6
#     8   4   8   8   8   8
#     4  10  21  39  61  95 131 155 213 270 324 389
#     4  10  24  38  52  80 136 192 216 234 302 396
#     4  12  21  34  63 103 131 165 213 273 338 382
#     4  10  21  39  63  88 124 164 206 267 330 379
#     4  11  22  38  59  89 135 180 213 256 315 400
#     4  10  21  39  67 100 125 159 216 279 332 378
#
# _framework density 21.280608000000001
#
# number of rings (size 3 to 8) (size 9 to 14) (size 15 to 20)
#    0.000    1.455    1.818    6.000    2.545    0.727 
#    0.000    1.818    0.000    0.000    2.364    0.000 
#    0.000    0.000    0.000    0.000    0.000    0.000 
#
# Total GULP energy -122559.992106 kJ/mol
# GULP energy per Si atom -5570.908732 kJ/mol
# Density = 2.123217 g / cm^3
# Si number density = 21.280608 Si / 1000 Ang^3
#
#
#
# Elastic Constant Matrix: (Units=GPa)
#
#
# Indices 1 2 3 4 5 6 
#
# 1 64.3222 43.4810 37.4925 0.0000 -35.1080 0.0000
# 2 43.4810 101.2116 35.6316 0.0000 -13.3398 0.0000
# 3 37.4925 35.6316 134.2681 0.0000 -41.6436 0.0000
# 4 0.0000 0.0000 0.0000 16.5583 0.0000 -8.6515
# 5 -35.1080 -13.3398 -41.6436 0.0000 58.1661 0.0000
# 6 0.0000 0.0000 0.0000 -8.6515 0.0000 17.7306
#
#
#
# Elastic Compliance Matrix: (Units=1/GPa)
#
#
# Indices 1 2 3 4 5 6 
#
# 1 0.033053 -0.011666 -0.000997 0.000000 0.016561 0.000000
# 2 -0.011666 0.015030 -0.002373 0.000000 -0.005293 0.000000
# 3 -0.000997 -0.002373 0.010284 0.000000 0.006217 0.000000
# 4 0.000000 0.000000 0.000000 0.081058 0.000000 0.039552
# 5 0.016561 -0.005293 0.006217 0.000000 0.030425 0.000000
# 6 0.000000 0.000000 0.000000 0.039552 0.000000 0.075699
#
#
# Mechanical properties :
#
#
# Convention : Reuss Voigt Hill
#
# Bulk Modulus (GPa) = 35.34201 59.22358 47.28280
# Shear Modulus (GPa) = 17.54063 30.70411 24.12237
#
# Velocity S-wave (km/s) = 2.87410 3.80257 3.37046
# Velocity P-wave (km/s) = 5.25905 6.86801 6.11667
#
# Compressibility (1/GPa) = 0.02829494
#
# Stress axis : x y z
#
# Youngs Moduli (GPa) = 30.25420 66.53502 97.23796
#
# Poissons Ratio (x) = 0.77619 0.09699
# Poissons Ratio (y) = 0.35294 0.23071
# Poissons Ratio (z) = 0.03018 0.15786
#
# Static dielectric constant tensor:
#      x y z
#    x 1.785300 0.000000 -0.044950 
#    y 0.000000 1.829940 0.000000 
#    z -0.044950 0.000000 1.915520 
# 
# From -- ./inp_files/32740.got.cif
#   From: 2010.05.17/outbox.cif.g08.bks.cpg/sg15_17_cif.got.tgz:32740.got - 2010.06.03 18:47:42.
