data_PCOD9282612
_publ_section_title
;
Structure prediction by ZEFSAII (Michael W. Deem and Ramdas Pophale) SiO2 
 PCOD9282612
Probable space group: C 2/C
;
_chemical_formula_sum "Si O2"
_cell_formula_units_Z 40
_cell_length_a 8.090401
_cell_length_b 14.371970
_cell_length_c 23.874810
_cell_angle_alpha 90.000000
_cell_angle_beta 40.035234
_cell_angle_gamma 90.000000
_cell_volume 1785.713791
_symmetry_space_group_name_H-M "C 2/C"
_symmetry_group_IT_number 15
_symmetry_cell_setting 'monoclinic'
loop_
_space_group_symop_operation_xyz
x,y,z
-x,y,1/2-z
-x,-y,-z
x,-y,1/2+z
1/2+x,1/2+y,z
1/2-x,1/2+y,1/2-z
1/2-x,1/2-y,-z
1/2+x,1/2-y,1/2+z
loop_
_atom_site_type_symbol
_atom_site_label
_atom_site_fract_x
_atom_site_fract_y
_atom_site_fract_z
Si Si1 0.081830 0.676361 0.794734
Si Si2 0.034835 0.100142 0.964033
Si Si3 0.910628 0.080674 0.866781
Si Si4 0.525517 0.219025 0.515588
Si Si5 0.576472 0.633450 0.165556
O O1 0.341954 0.619515 0.729690
O O2 0.112123 0.783529 0.806605
O O3 0.000000 0.682932 0.750000
O O4 0.838620 0.625032 0.884941
O O5 0.944107 0.101657 0.923818
O O6 0.893826 0.183395 0.033740
O O7 0.000000 0.000000 0.000000
O O8 0.911862 0.969641 0.861722
O O9 0.660366 0.138856 0.913621
O O10 0.750000 0.250000 0.500000
O O11 0.655412 0.179572 0.424492
O O12 0.500000 0.621237 0.250000
#
# Coordination Sequence:
#
# PCOD9282612 Si02
#       5
#     8   8   8   8   8
#     4   8  19  38  57  86 123 156 202 258 316 383
#     4  10  21  39  63  92 126 164 210 270 329 395
#     4  11  22  39  65  91 121 169 216 266 331 394
#     4  11  24  42  63  92 129 170 221 273 326 399
#     4  10  22  40  61  89 127 167 210 267 330 397
#
# _framework density 22.400006000000001
#
# number of rings (size 3 to 8) (size 9 to 14) (size 15 to 20)
#    0.000    2.000    0.000    3.600    0.000    6.400 
#    0.000    2.000    0.000    0.000    0.000    0.000 
#    0.000    0.000    0.000    0.000    0.000    0.000 
#
# Total GULP energy -111596.680174 kJ/mol
# GULP energy per Si atom -5579.834009 kJ/mol
# Density = 2.234902 g / cm^3
# Si number density = 22.400006 Si / 1000 Ang^3
#
#
#
# Elastic Constant Matrix: (Units=GPa)
#
#
# Indices 1 2 3 4 5 6 
#
# 1 85.3853 39.1612 23.8453 -0.0030 0.7691 0.0047
# 2 39.1612 219.3110 37.2039 0.0005 -16.1795 -0.0006
# 3 23.8453 37.2039 85.2036 -0.0018 -3.4281 0.0094
# 4 -0.0030 0.0005 -0.0018 52.9488 0.0022 6.4824
# 5 0.7691 -16.1795 -3.4281 0.0022 28.3711 -0.0034
# 6 0.0047 -0.0006 0.0094 6.4824 -0.0034 18.0357
#
#
#
# Elastic Compliance Matrix: (Units=1/GPa)
#
#
# Indices 1 2 3 4 5 6 
#
# 1 0.013494 -0.002047 -0.002959 0.000001 -0.001891 -0.000003
# 2 -0.002047 0.005427 -0.001678 -0.000001 0.002948 0.000002
# 3 -0.002959 -0.001678 0.013327 0.000001 0.000733 -0.000007
# 4 0.000001 -0.000001 0.000001 0.019755 -0.000003 -0.007101
# 5 -0.001891 0.002948 0.000733 -0.000003 0.037068 0.000008
# 6 -0.000003 0.000002 -0.000007 -0.007101 0.000008 0.057998
#
#
# Mechanical properties :
#
#
# Convention : Reuss Voigt Hill
#
# Bulk Modulus (GPa) = 52.96600 65.59119 59.27860
# Shear Modulus (GPa) = 29.98841 39.18373 34.58607
#
# Velocity S-wave (km/s) = 3.66289 4.18697 3.93367
# Velocity P-wave (km/s) = 6.44871 7.26083 6.86679
#
# Compressibility (1/GPa) = 0.01888004
#
# Stress axis : x y z
#
# Youngs Moduli (GPa) = 74.10821 184.24780 75.03581
#
# Poissons Ratio (x) = 0.37717 0.22200
# Poissons Ratio (y) = 0.15171 0.12594
# Poissons Ratio (z) = 0.21926 0.30924
#
# Static dielectric constant tensor:
#      x y z
#    x 1.876010 0.000000 0.038050 
#    y 0.000000 1.826330 0.000000 
#    z 0.038050 0.000000 1.880310 
# 
# From -- ./inp_files/310472.got.cif
#   From: 2010.05.17/outbox.cif.g08.bks.cpg/sg15_156_cif.got.tgz:310472.got - 2010.06.03 18:47:42.
