data_PCOD9282935
_publ_section_title
;
Structure prediction by ZEFSAII (Michael W. Deem and Ramdas Pophale) SiO2 
 PCOD9282935
Probable space group: C 2/C
;
_chemical_formula_sum "Si O2"
_cell_formula_units_Z 40
_cell_length_a 24.088578
_cell_length_b 14.338243
_cell_length_c 9.335005
_cell_angle_alpha 90.000000
_cell_angle_beta 144.934880
_cell_angle_gamma 90.000000
_cell_volume 1852.324367
_symmetry_space_group_name_H-M "C 2/C"
_symmetry_group_IT_number 15
_symmetry_cell_setting 'monoclinic'
loop_
_space_group_symop_operation_xyz
x,y,z
-x,y,1/2-z
-x,-y,-z
x,-y,1/2+z
1/2+x,1/2+y,z
1/2-x,1/2+y,1/2-z
1/2-x,1/2-y,-z
1/2+x,1/2-y,1/2+z
loop_
_atom_site_type_symbol
_atom_site_label
_atom_site_fract_x
_atom_site_fract_y
_atom_site_fract_z
Si Si1 0.718434 0.563922 0.383173
Si Si2 0.650391 0.018307 0.091091
Si Si3 0.445954 0.425310 0.483992
Si Si4 0.500000 0.130618 0.250000
Si Si5 0.000000 0.661280 0.750000
Si Si6 0.061249 0.773715 0.619101
O O1 0.784346 0.574731 0.383310
O O2 0.784278 0.534874 0.655882
O O3 0.657176 0.470846 0.215910
O O4 0.647391 0.651840 0.268239
O O5 0.584768 0.938915 0.876843
O O6 0.573174 0.092917 0.988973
O O7 0.500000 0.500000 0.500000
O O8 0.461140 0.331716 0.426570
O O9 0.500000 0.417560 0.750000
O O10 0.547328 0.197198 0.468601
O O11 0.935838 0.722870 0.721692
#
# Coordination Sequence:
#
# PCOD9282935 Si02
#       6
#     8   8   8   4   4   8
#     4  11  24  42  70 100 129 171 222 278 318 396
#     4  11  25  45  66  95 137 175 217 265 343 385
#     4  10  21  39  65  97 134 168 204 269 340 381
#     4  11  26  44  65  96 136 182 211 266 336 399
#     4  11  24  46  67  92 138 180 205 276 338 393
#     4  11  24  42  69  99 131 173 225 269 329 388
#
# _framework density 21.594488999999999
#
# number of rings (size 3 to 8) (size 9 to 14) (size 15 to 20)
#    0.000    1.200    1.000    4.800    8.400    6.400 
#    0.000    2.000    0.000    0.000    0.000    0.000 
#    0.000    0.000    0.000    0.000    0.000    0.000 
#
# Total GULP energy -111530.334689 kJ/mol
# GULP energy per Si atom -5576.516734 kJ/mol
# Density = 2.154534 g / cm^3
# Si number density = 21.594489 Si / 1000 Ang^3
#
#
#
# Elastic Constant Matrix: (Units=GPa)
#
#
# Indices 1 2 3 4 5 6 
#
# 1 39.7312 3.4940 20.4979 0.0000 2.4060 0.0000
# 2 3.4940 96.2119 29.9130 0.0000 11.7316 0.0000
# 3 20.4979 29.9130 87.6058 0.0000 10.3096 0.0000
# 4 0.0000 0.0000 0.0000 15.3238 0.0000 28.4755
# 5 2.4060 11.7316 10.3096 0.0000 32.2260 0.0000
# 6 0.0000 0.0000 0.0000 28.4755 0.0000 16.6574
#
#
#
# Elastic Compliance Matrix: (Units=1/GPa)
#
#
# Indices 1 2 3 4 5 6 
#
# 1 0.028745 0.001201 -0.007099 0.000000 -0.000312 0.000000
# 2 0.001201 0.011980 -0.003998 0.000000 -0.003172 0.000000
# 3 -0.007099 -0.003998 0.014763 0.000000 -0.002737 0.000000
# 4 0.000000 0.000000 0.000000 -0.029981 0.000000 0.051252
# 5 -0.000312 -0.003172 -0.002737 0.000000 0.033085 0.000000
# 6 0.000000 0.000000 0.000000 0.051252 0.000000 -0.027581
#
#
# Mechanical properties :
#
#
# Convention : Reuss Voigt Hill
#
# Bulk Modulus (GPa) = 28.01452 36.81763 32.41607
# Shear Modulus (GPa) = 79.74195 24.15105 51.94650
#
# Velocity S-wave (km/s) = 6.08335 3.34786 4.90996
# Velocity P-wave (km/s) = 7.89582 5.65958 6.86931
#
# Compressibility (1/GPa) = 0.03569578
#
# Stress axis : x y z
#
# Youngs Moduli (GPa) = 34.78872 83.47261 67.73592
#
# Poissons Ratio (x) = -0.10028 0.48087
# Poissons Ratio (y) = -0.04179 0.27084
# Poissons Ratio (z) = 0.24697 0.33376
#
# Static dielectric constant tensor:
#      x y z
#    x 2.052270 0.000000 0.301120 
#    y 0.000000 1.843870 0.000000 
#    z 0.301120 0.000000 2.083210 
# 
# From -- ./inp_files/37926.got.cif
#   From: 2010.05.17/outbox.cif.g08.bks.cpg/sg15_19_cif.got.tgz:37926.got - 2010.06.03 18:47:42.
