data_PCOD9282734
_publ_section_title
;
Structure prediction by ZEFSAII (Michael W. Deem and Ramdas Pophale) SiO2 
 PCOD9282734
Probable space group: C 2/C
;
_chemical_formula_sum "Si O2"
_cell_formula_units_Z 40
_cell_length_a 11.283530
_cell_length_b 31.943612
_cell_length_c 5.095727
_cell_angle_alpha 90.000000
_cell_angle_beta 113.184024
_cell_angle_gamma 90.000000
_cell_volume 1688.365655
_symmetry_space_group_name_H-M "C 2/C"
_symmetry_group_IT_number 15
_symmetry_cell_setting 'monoclinic'
loop_
_space_group_symop_operation_xyz
x,y,z
-x,y,1/2-z
-x,-y,-z
x,-y,1/2+z
1/2+x,1/2+y,z
1/2-x,1/2+y,1/2-z
1/2-x,1/2-y,-z
1/2+x,1/2-y,1/2+z
loop_
_atom_site_type_symbol
_atom_site_label
_atom_site_fract_x
_atom_site_fract_y
_atom_site_fract_z
Si Si1 0.879495 0.120795 0.839409
Si Si2 0.628704 0.714596 0.692207
Si Si3 0.723343 0.109166 0.186306
Si Si4 0.643035 0.019153 0.109271
Si Si5 0.132163 0.303038 0.706286
O O1 0.891998 0.169110 0.947254
O O2 0.765850 0.113481 0.527341
O O3 0.000000 0.111687 0.750000
O O4 0.838590 0.099909 0.078304
O O5 0.500000 0.720280 0.750000
O O6 0.632572 0.759125 0.545971
O O7 0.752370 0.706315 0.986240
O O8 0.634286 0.068754 0.083045
O O9 0.661049 0.154562 0.073435
O O10 0.711363 0.003639 0.429817
O O11 0.500000 0.000000 0.000000
O O12 0.000000 0.309194 0.750000
#
# Coordination Sequence:
#
# PCOD9282734 Si02
#       5
#     8   8   8   8   8
#     4  10  21  39  64  91 124 167 213 257 303 382
#     4   8  16  34  55  83 126 176 210 250 319 368
#     4  11  22  38  63  93 122 162 211 263 317 380
#     4  10  22  40  62  87 121 164 194 252 324 407
#     4   9  18  32  56  90 129 164 213 269 306 376
#
# _framework density 23.691552000000001
#
# number of rings (size 3 to 8) (size 9 to 14) (size 15 to 20)
#    0.000    2.400    0.000    1.800    2.800    0.800 
#    3.600    0.000    0.000   28.800    0.000    0.000 
#    0.000    0.000    0.000    0.000    0.000    0.000 
#
# Total GULP energy -111382.302066 kJ/mol
# GULP energy per Si atom -5569.115103 kJ/mol
# Density = 2.363763 g / cm^3
# Si number density = 23.691552 Si / 1000 Ang^3
#
#
#
# Elastic Constant Matrix: (Units=GPa)
#
#
# Indices 1 2 3 4 5 6 
#
# 1 126.8255 50.2001 26.4463 0.0000 -3.9173 0.0000
# 2 50.2001 163.9808 17.0201 0.0000 -8.8476 0.0000
# 3 26.4463 17.0201 87.7686 0.0000 -22.3401 0.0000
# 4 0.0000 0.0000 0.0000 -15.8485 0.0000 14.9726
# 5 -3.9173 -8.8476 -22.3401 0.0000 38.6541 0.0000
# 6 0.0000 0.0000 0.0000 14.9726 0.0000 24.8622
#
#
#
# Elastic Compliance Matrix: (Units=1/GPa)
#
#
# Indices 1 2 3 4 5 6 
#
# 1 0.009460 -0.002687 -0.002629 0.000000 -0.001176 0.000000
# 2 -0.002687 0.007011 -0.000247 0.000000 0.001190 0.000000
# 3 -0.002629 -0.000247 0.014247 0.000000 0.007911 0.000000
# 4 0.000000 0.000000 0.000000 -0.040217 0.000000 0.024219
# 5 -0.001176 0.001190 0.007911 0.000000 0.030596 0.000000
# 6 0.000000 0.000000 0.000000 0.024219 0.000000 0.025636
#
#
# Mechanical properties :
#
#
# Convention : Reuss Voigt Hill
#
# Bulk Modulus (GPa) = 51.03892 62.87866 56.95879
# Shear Modulus (GPa) = 77.65241 28.52746 53.08994
#
# Velocity S-wave (km/s) = 5.73128 3.47381 4.73893
# Velocity P-wave (km/s) = 8.08620 6.53360 7.35101
#
# Compressibility (1/GPa) = 0.01959289
#
# Stress axis : x y z
#
# Youngs Moduli (GPa) = 105.70687 142.64145 70.18883
#
# Poissons Ratio (x) = 0.38323 0.18451
# Poissons Ratio (y) = 0.28400 0.01735
# Poissons Ratio (z) = 0.27787 0.03526
#
# Static dielectric constant tensor:
#      x y z
#    x 1.801040 0.000000 -0.013000 
#    y 0.000000 1.983490 0.000000 
#    z -0.013000 0.000000 1.847080 
# 
# From -- ./inp_files/5928.got.cif
#   From: 2010.05.17/outbox.cif.g08.bks.cpg/sg15_3_cif.got.tgz:5928.got - 2010.06.03 18:47:42.
