data_PCOD9282634
_publ_section_title
;
Structure prediction by ZEFSAII (Michael W. Deem and Ramdas Pophale) SiO2 
 PCOD9282634
Probable space group: C 2/C
;
_chemical_formula_sum "Si O2"
_cell_formula_units_Z 48
_cell_length_a 24.922396
_cell_length_b 20.401663
_cell_length_c 8.040697
_cell_angle_alpha 90.000000
_cell_angle_beta 35.099888
_cell_angle_gamma 90.000000
_cell_volume 2350.821545
_symmetry_space_group_name_H-M "C 2/C"
_symmetry_group_IT_number 15
_symmetry_cell_setting 'monoclinic'
loop_
_space_group_symop_operation_xyz
x,y,z
-x,y,1/2-z
-x,-y,-z
x,-y,1/2+z
1/2+x,1/2+y,z
1/2-x,1/2+y,1/2-z
1/2-x,1/2-y,-z
1/2+x,1/2-y,1/2+z
loop_
_atom_site_type_symbol
_atom_site_label
_atom_site_fract_x
_atom_site_fract_y
_atom_site_fract_z
Si Si1 0.131631 0.405080 0.544418
Si Si2 0.651707 0.214522 0.761296
Si Si3 0.500000 0.684776 0.750000
Si Si4 0.500000 0.463029 0.750000
Si Si5 0.685807 0.966946 0.754887
Si Si6 0.389923 0.425413 0.334003
Si Si7 0.549333 0.120593 0.788991
O O1 0.152003 0.332539 0.423407
O O2 0.180385 0.433817 0.587203
O O3 0.168662 0.455087 0.307977
O O4 0.024344 0.399878 0.881357
O O5 0.750000 0.250000 0.500000
O O6 0.625920 0.167892 0.673065
O O7 0.567938 0.267033 0.977614
O O8 0.571673 0.637365 0.665816
O O9 0.563830 0.422176 0.464813
O O10 0.566348 0.510994 0.686901
O O11 0.781237 0.940910 0.593241
O O12 0.599993 0.941746 0.083031
O O13 0.500000 0.151381 0.750000
#
# Coordination Sequence:
#
# PCOD9282634 Si02
#       7
#     8   8   4   4   8   8   8
#     4  11  23  41  66  97 138 166 217 278 337 395
#     4  12  25  45  66  90 133 185 227 265 326 398
#     4  11  24  44  62  88 132 179 216 272 320 401
#     4   9  20  38  60  88 128 167 210 280 330 383
#     4  11  22  38  69 103 129 165 219 279 342 398
#     4  10  21  39  63  93 129 167 219 270 337 389
#     4  10  22  43  65  97 130 170 216 276 335 392
#
# _framework density 20.418392999999998
#
# number of rings (size 3 to 8) (size 9 to 14) (size 15 to 20)
#    0.000    1.333    1.667    3.500    0.000    8.000 
#    4.500    2.500    0.000    0.000    0.000    0.000 
#    0.000    0.000    0.000    0.000    0.000    0.000 
#
# Total GULP energy -133940.097504 kJ/mol
# GULP energy per Si atom -5580.837396 kJ/mol
# Density = 2.037192 g / cm^3
# Si number density = 20.418393 Si / 1000 Ang^3
#
#
#
# Elastic Constant Matrix: (Units=GPa)
#
#
# Indices 1 2 3 4 5 6 
#
# 1 98.0550 24.6110 34.8511 0.0000 -10.1981 0.0000
# 2 24.6110 89.5043 26.6067 0.0000 -4.3874 0.0000
# 3 34.8511 26.6067 85.3218 0.0000 -11.8651 0.0000
# 4 0.0000 0.0000 0.0000 13.2594 0.0000 -2.3377
# 5 -10.1981 -4.3874 -11.8651 0.0000 41.1897 0.0000
# 6 0.0000 0.0000 0.0000 -2.3377 0.0000 4.3342
#
#
#
# Elastic Compliance Matrix: (Units=1/GPa)
#
#
# Indices 1 2 3 4 5 6 
#
# 1 0.012376 -0.002081 -0.004179 0.000000 0.001639 0.000000
# 2 -0.002081 0.012666 -0.003108 0.000000 -0.000061 0.000000
# 3 -0.004179 -0.003108 0.014799 0.000000 0.002897 0.000000
# 4 0.000000 0.000000 0.000000 0.083343 0.000000 0.044952
# 5 0.001639 -0.000061 0.002897 0.000000 0.025512 0.000000
# 6 0.000000 0.000000 0.000000 0.044952 0.000000 0.254967
#
#
# Mechanical properties :
#
#
# Convention : Reuss Voigt Hill
#
# Bulk Modulus (GPa) = 47.37923 49.44654 48.41288
# Shear Modulus (GPa) = 11.64323 24.21082 17.92703
#
# Velocity S-wave (km/s) = 2.39055 3.44719 2.96629
# Velocity P-wave (km/s) = 5.55645 6.33351 5.95766
#
# Compressibility (1/GPa) = 0.02110629
#
# Stress axis : x y z
#
# Youngs Moduli (GPa) = 80.80042 78.95306 67.57054
#
# Poissons Ratio (x) = 0.16427 0.28234
# Poissons Ratio (y) = 0.16811 0.21003
# Poissons Ratio (z) = 0.33763 0.24542
#
# Static dielectric constant tensor:
#      x y z
#    x 1.782440 0.000000 0.013660 
#    y 0.000000 1.712180 0.000000 
#    z 0.013660 0.000000 1.719770 
# 
# From -- ./inp_files/40706.got.cif
#   From: 2010.05.17/outbox.cif.g08.bks.cpg/sg15_21_cif.got.tgz:40706.got - 2010.06.03 18:47:42.
