data_PCOD9282764
_publ_section_title
;
Structure prediction by ZEFSAII (Michael W. Deem and Ramdas Pophale) SiO2 
 PCOD9282764
Probable space group: C 2/C
;
_chemical_formula_sum "Si O2"
_cell_formula_units_Z 32
_cell_length_a 11.604676
_cell_length_b 9.182735
_cell_length_c 22.375442
_cell_angle_alpha 90.000000
_cell_angle_beta 150.346720
_cell_angle_gamma 90.000000
_cell_volume 1179.675820
_symmetry_space_group_name_H-M "C 2/C"
_symmetry_group_IT_number 15
_symmetry_cell_setting 'monoclinic'
loop_
_space_group_symop_operation_xyz
x,y,z
-x,y,1/2-z
-x,-y,-z
x,-y,1/2+z
1/2+x,1/2+y,z
1/2-x,1/2+y,1/2-z
1/2-x,1/2-y,-z
1/2+x,1/2-y,1/2+z
loop_
_atom_site_type_symbol
_atom_site_label
_atom_site_fract_x
_atom_site_fract_y
_atom_site_fract_z
Si Si1 0.860601 0.908259 0.009051
Si Si2 0.530380 0.738248 0.696909
Si Si3 0.037924 0.156791 0.161904
Si Si4 0.353371 0.144483 0.419629
O O1 0.009294 0.791869 0.038035
O O2 0.866821 0.855363 0.080719
O O3 0.988784 0.057995 0.081150
O O4 0.595229 0.897717 0.866292
O O5 0.500000 0.692532 0.750000
O O6 0.789015 0.724473 0.788585
O O7 0.199713 0.106175 0.291154
O O8 0.801812 0.184130 0.091921
O O9 0.500000 0.000000 0.500000
#
# Coordination Sequence:
#
# PCOD9282764 Si02
#       4
#     8   8   8   8
#     4  10  22  40  65  95 128 167 224 267 326 396
#     4  10  22  40  61  90 127 169 208 268 333 384
#     4  10  21  39  64  93 129 167 218 267 324 395
#     4  10  21  39  68  96 127 176 223 267 325 399
#
# _framework density 27.126096
#
# number of rings (size 3 to 8) (size 9 to 14) (size 15 to 20)
#    0.000    2.000    0.000    4.500    7.000    1.000 
#    9.000    1.250    5.500    0.000    0.000    0.000 
#    0.000    0.000    0.000    0.000    0.000    0.000 
#
# Total GULP energy -89340.379841 kJ/mol
# GULP energy per Si atom -5583.773740 kJ/mol
# Density = 2.706436 g / cm^3
# Si number density = 27.126096 Si / 1000 Ang^3
#
#
#
# Elastic Constant Matrix: (Units=GPa)
#
#
# Indices 1 2 3 4 5 6 
#
# 1 231.2836 70.4964 60.6400 0.0000 14.3645 0.0000
# 2 70.4964 75.3146 48.0781 0.0000 -6.1140 0.0000
# 3 60.6400 48.0781 96.5321 -0.0004 3.8928 -0.0001
# 4 0.0000 0.0000 -0.0004 26.3542 0.0000 -2.2920
# 5 14.3645 -6.1140 3.8928 0.0000 52.6838 0.0000
# 6 0.0000 0.0000 -0.0001 -2.2920 0.0000 46.1992
#
#
#
# Elastic Compliance Matrix: (Units=1/GPa)
#
#
# Indices 1 2 3 4 5 6 
#
# 1 0.006448 -0.005417 -0.001260 0.000000 -0.002294 0.000000
# 2 -0.005417 0.024498 -0.008999 0.000000 0.004985 0.000000
# 3 -0.001260 -0.008999 0.015708 0.000000 -0.001862 0.000000
# 4 0.000000 0.000000 0.000000 0.038109 0.000000 0.001891
# 5 -0.002294 0.004985 -0.001862 0.000000 0.020323 0.000000
# 6 0.000000 0.000000 0.000000 0.001891 0.000000 0.021739
#
#
# Mechanical properties :
#
#
# Convention : Reuss Voigt Hill
#
# Bulk Modulus (GPa) = 65.35599 84.61770 74.98684
# Shear Modulus (GPa) = 30.62294 39.97516 35.29905
#
# Velocity S-wave (km/s) = 3.36357 3.84302 3.61126
# Velocity P-wave (km/s) = 6.26343 7.13818 6.71506
#
# Compressibility (1/GPa) = 0.01530082
#
# Stress axis : x y z
#
# Youngs Moduli (GPa) = 155.09628 40.82030 63.66275
#
# Poissons Ratio (x) = 0.22113 0.08020
# Poissons Ratio (y) = 0.84017 0.57291
# Poissons Ratio (z) = 0.19539 0.36735
#
# Static dielectric constant tensor:
#      x y z
#    x 2.152220 0.000000 0.152020 
#    y 0.000000 2.551210 0.000000 
#    z 0.152020 0.000000 2.299870 
# 
# From -- ./inp_files/83850.got.cif
#   From: 2010.05.17/outbox.cif.g08.bks.cpg/sg15_42_cif.got.tgz:83850.got - 2010.06.03 18:47:42.
