data_PCOD9282636
_publ_section_title
;
Structure prediction by ZEFSAII (Michael W. Deem and Ramdas Pophale) SiO2 
 PCOD9282636
Probable space group: C 2/C
;
_chemical_formula_sum "Si O2"
_cell_formula_units_Z 56
_cell_length_a 22.079758
_cell_length_b 9.009767
_cell_length_c 14.889391
_cell_angle_alpha 90.000000
_cell_angle_beta 83.933540
_cell_angle_gamma 90.000000
_cell_volume 2945.411040
_symmetry_space_group_name_H-M "C 2/C"
_symmetry_group_IT_number 15
_symmetry_cell_setting 'monoclinic'
loop_
_space_group_symop_operation_xyz
x,y,z
-x,y,1/2-z
-x,-y,-z
x,-y,1/2+z
1/2+x,1/2+y,z
1/2-x,1/2+y,1/2-z
1/2-x,1/2-y,-z
1/2+x,1/2-y,1/2+z
loop_
_atom_site_type_symbol
_atom_site_label
_atom_site_fract_x
_atom_site_fract_y
_atom_site_fract_z
Si Si1 0.704539 0.158965 0.700401
Si Si2 0.500000 0.614168 0.250000
Si Si3 0.745727 0.955133 0.539265
Si Si4 0.078265 0.871100 0.145679
Si Si5 0.082805 0.372973 0.312276
Si Si6 0.500000 0.882043 0.750000
Si Si7 0.707773 0.493371 0.170896
Si Si8 0.146365 0.749501 0.974695
O O1 0.636493 0.103303 0.731779
O O2 0.703832 0.336006 0.700146
O O3 0.747313 0.095561 0.771802
O O4 0.729141 0.093201 0.603302
O O5 0.533000 0.507212 0.173135
O O6 0.547650 0.722719 0.290958
O O7 0.767291 0.991401 0.435057
O O8 0.802220 0.861800 0.571597
O O9 0.686277 0.851720 0.536404
O O10 0.047326 0.725399 0.192262
O O11 0.141831 0.916588 0.182238
O O12 0.096580 0.838454 0.040151
O O13 0.036173 0.509235 0.311939
O O14 0.114993 0.346652 0.402611
#
# Coordination Sequence:
#
# PCOD9282636 Si02
#       8
#     8   4   8   8   8   4   8   8
#     4  12  23  39  67  95 126 167 204 266 320 382
#     4  10  22  42  62  86 122 168 216 252 302 376
#     4  10  22  38  60  98 134 157 207 255 327 382
#     4  10  22  42  62  87 126 163 212 259 311 370
#     4  11  22  40  64  92 123 165 211 257 315 364
#     4  10  24  40  64  90 120 170 218 256 302 374
#     4  11  24  39  65  95 125 166 205 264 324 376
#     4  10  21  39  63  93 130 164 201 267 311 374
#
# _framework density 19.012626999999998
#
# number of rings (size 3 to 8) (size 9 to 14) (size 15 to 20)
#    0.000    1.429    2.857    2.143    6.000    1.143 
#    0.000    0.000    3.143    0.000    0.000    0.000 
#    0.000    0.000    0.000    0.000    0.000    0.000 
#
# Total GULP energy -156407.062645 kJ/mol
# GULP energy per Si atom -5585.966523 kJ/mol
# Density = 1.896935 g / cm^3
# Si number density = 19.012627 Si / 1000 Ang^3
#
#
#
# Elastic Constant Matrix: (Units=GPa)
#
#
# Indices 1 2 3 4 5 6 
#
# 1 115.6722 58.7923 48.6460 0.0000 -5.3392 0.0000
# 2 58.7923 126.9187 41.3810 0.0000 -0.0207 0.0000
# 3 48.6460 41.3810 79.3467 0.0000 -5.7242 0.0000
# 4 0.0000 0.0000 0.0000 27.8557 0.0000 -5.0221
# 5 -5.3392 -0.0207 -5.7242 0.0000 25.6994 0.0000
# 6 0.0000 0.0000 0.0000 -5.0221 0.0000 34.9715
#
#
#
# Elastic Compliance Matrix: (Units=1/GPa)
#
#
# Indices 1 2 3 4 5 6 
#
# 1 0.013344 -0.004275 -0.005846 0.000000 0.001467 0.000000
# 2 -0.004275 0.010894 -0.003175 0.000000 -0.001587 0.000000
# 3 -0.005846 -0.003175 0.018045 0.000000 0.002802 0.000000
# 4 0.000000 0.000000 0.000000 0.036853 0.000000 0.005292
# 5 0.001467 -0.001587 0.002802 0.000000 0.039839 0.000000
# 6 0.000000 0.000000 0.000000 0.005292 0.000000 0.029355
#
#
# Mechanical properties :
#
#
# Convention : Reuss Voigt Hill
#
# Bulk Modulus (GPa) = 63.72863 68.84179 66.28521
# Shear Modulus (GPa) = 27.75422 29.24655 28.50038
#
# Velocity S-wave (km/s) = 3.82485 3.92633 3.87592
# Velocity P-wave (km/s) = 7.28683 7.53935 7.41417
#
# Compressibility (1/GPa) = 0.01569153
#
# Stress axis : x y z
#
# Youngs Moduli (GPa) = 74.93913 91.79012 55.41768
#
# Poissons Ratio (x) = 0.39242 0.32395
# Poissons Ratio (y) = 0.32038 0.17595
# Poissons Ratio (z) = 0.43807 0.29144
#
# Static dielectric constant tensor:
#      x y z
#    x 1.658920 0.000000 -0.011890 
#    y 0.000000 1.657320 0.000000 
#    z -0.011890 0.000000 1.656130 
# 
# From -- ./inp_files/166708.got.cif
#   From: 2010.05.17/outbox.cif.g08.bks.cpg/sg15_84_cif.got.tgz:166708.got - 2010.06.03 18:47:42.
