data_PCOD9282574
_publ_section_title
;
Structure prediction by ZEFSAII (Michael W. Deem and Ramdas Pophale) SiO2 
 PCOD9282574
Probable space group: C 2/C
;
_chemical_formula_sum "Si O2"
_cell_formula_units_Z 56
_cell_length_a 15.667350
_cell_length_b 11.933643
_cell_length_c 15.505648
_cell_angle_alpha 90.000000
_cell_angle_beta 115.840153
_cell_angle_gamma 90.000000
_cell_volume 2609.201086
_symmetry_space_group_name_H-M "C 2/C"
_symmetry_group_IT_number 15
_symmetry_cell_setting 'monoclinic'
loop_
_space_group_symop_operation_xyz
x,y,z
-x,y,1/2-z
-x,-y,-z
x,-y,1/2+z
1/2+x,1/2+y,z
1/2-x,1/2+y,1/2-z
1/2-x,1/2-y,-z
1/2+x,1/2-y,1/2+z
loop_
_atom_site_type_symbol
_atom_site_label
_atom_site_fract_x
_atom_site_fract_y
_atom_site_fract_z
Si Si1 0.523238 0.390032 0.361285
Si Si2 0.781247 0.129056 0.479037
Si Si3 0.111526 0.532008 0.947947
Si Si4 0.162449 0.988212 0.145569
Si Si5 0.712327 0.801017 0.393811
Si Si6 0.720616 0.900122 0.670070
Si Si7 0.029827 0.639924 0.164257
O O1 0.500000 0.396752 0.250000
O O2 0.632487 0.418977 0.425424
O O3 0.445974 0.461040 0.379906
O O4 0.510664 0.259665 0.383689
O O5 0.750000 0.250000 0.500000
O O6 0.686765 0.057483 0.445546
O O7 0.821938 0.103435 0.401272
O O8 0.118457 0.632655 0.881714
O O9 0.013640 0.465836 0.905263
O O10 0.157135 0.569182 0.058631
O O11 0.211015 0.888541 0.111634
O O12 0.221814 0.000802 0.259933
O O13 0.750000 0.750000 0.500000
O O14 0.707797 0.697981 0.326461
O O15 0.642392 0.856598 0.703236
O O16 0.000000 0.626047 0.250000
#
# Coordination Sequence:
#
# PCOD9282574 Si02
#       7
#     8   8   8   8   8   8   8
#     4  11  23  39  63  92 133 171 217 264 333 388
#     4  11  22  39  63  94 124 165 218 266 319 396
#     4  10  21  39  63  89 126 170 215 269 329 380
#     4  11  23  40  65  93 130 172 217 277 334 386
#     4   9  20  39  60  87 124 171 210 262 330 393
#     4  11  22  38  65  91 125 165 222 264 332 392
#     4  11  21  37  61  93 126 168 217 273 318 382
#
# _framework density 21.462506999999999
#
# number of rings (size 3 to 8) (size 9 to 14) (size 15 to 20)
#    0.000    1.429    2.857    3.429    2.000    1.143 
#    0.000    0.000    0.000    5.143    0.000    0.000 
#    0.000    0.000    0.000    0.000    0.000    0.000 
#
# Total GULP energy -156231.959877 kJ/mol
# GULP energy per Si atom -5579.712853 kJ/mol
# Density = 2.141366 g / cm^3
# Si number density = 21.462507 Si / 1000 Ang^3
#
#
#
# Elastic Constant Matrix: (Units=GPa)
#
#
# Indices 1 2 3 4 5 6 
#
# 1 86.4428 31.5758 27.1298 0.0000 -11.5801 0.0000
# 2 31.5758 81.0472 20.9129 0.0000 -17.6457 0.0000
# 3 27.1298 20.9129 72.6055 0.0000 -7.8082 0.0000
# 4 0.0000 0.0000 0.0000 35.0774 0.0000 -10.4300
# 5 -11.5801 -17.6457 -7.8082 0.0000 32.9810 0.0000
# 6 0.0000 0.0000 0.0000 -10.4300 0.0000 34.0773
#
#
#
# Elastic Compliance Matrix: (Units=1/GPa)
#
#
# Indices 1 2 3 4 5 6 
#
# 1 0.014644 -0.004246 -0.004043 0.000000 0.001913 0.000000
# 2 -0.004246 0.016013 -0.002324 0.000000 0.006527 0.000000
# 3 -0.004043 -0.002324 0.016076 0.000000 0.001143 0.000000
# 4 0.000000 0.000000 0.000000 0.031363 0.000000 0.009599
# 5 0.001913 0.006527 0.001143 0.000000 0.034755 0.000000
# 6 0.000000 0.000000 0.000000 0.009599 0.000000 0.032283
#
#
# Mechanical properties :
#
#
# Convention : Reuss Voigt Hill
#
# Bulk Modulus (GPa) = 39.20374 44.37026 41.78700
# Shear Modulus (GPa) = 28.59379 31.12560 29.85970
#
# Velocity S-wave (km/s) = 3.65398 3.81232 3.73399
# Velocity P-wave (km/s) = 6.00899 6.33219 6.17271
#
# Compressibility (1/GPa) = 0.02550777
#
# Stress axis : x y z
#
# Youngs Moduli (GPa) = 68.28508 62.44839 62.20352
#
# Poissons Ratio (x) = 0.26513 0.25152
# Poissons Ratio (y) = 0.28991 0.14456
# Poissons Ratio (z) = 0.27611 0.14513
#
# Static dielectric constant tensor:
#      x y z
#    x 1.773260 0.000000 -0.014030 
#    y 0.000000 1.834670 0.000000 
#    z -0.014030 0.000000 1.862420 
# 
# From -- ./inp_files/161424.got.cif
#   From: 2010.05.17/outbox.cif.g08.bks.cpg/sg15_81_cif.got.tgz:161424.got - 2010.06.03 18:47:42.
