data_PCOD9282668
_publ_section_title
;
Structure prediction by ZEFSAII (Michael W. Deem and Ramdas Pophale) SiO2 
 PCOD9282668
Probable space group: C 2/C
;
_chemical_formula_sum "Si O2"
_cell_formula_units_Z 52
_cell_length_a 12.141720
_cell_length_b 19.183433
_cell_length_c 19.937248
_cell_angle_alpha 90.000000
_cell_angle_beta 30.265475
_cell_angle_gamma 90.000000
_cell_volume 2340.499521
_symmetry_space_group_name_H-M "C 2/C"
_symmetry_group_IT_number 15
_symmetry_cell_setting 'monoclinic'
loop_
_space_group_symop_operation_xyz
x,y,z
-x,y,1/2-z
-x,-y,-z
x,-y,1/2+z
1/2+x,1/2+y,z
1/2-x,1/2+y,1/2-z
1/2-x,1/2-y,-z
1/2+x,1/2-y,1/2+z
loop_
_atom_site_type_symbol
_atom_site_label
_atom_site_fract_x
_atom_site_fract_y
_atom_site_fract_z
Si Si1 0.205938 0.400734 0.680532
Si Si2 0.499181 0.100489 0.678256
Si Si3 0.640541 0.751646 0.742853
Si Si4 0.439997 0.531536 0.409170
Si Si5 0.000000 0.867723 0.750000
Si Si6 0.020134 0.117239 0.893065
Si Si7 0.375350 0.210029 0.994512
O O1 0.114465 0.334330 0.770834
O O2 0.366875 0.445726 0.641585
O O3 0.355074 0.373592 0.540988
O O4 0.000000 0.434221 0.750000
O O5 0.500000 0.138668 0.750000
O O6 0.245136 0.085830 0.803913
O O7 0.541731 0.143319 0.588973
O O8 0.705354 0.048594 0.566728
O O9 0.500000 0.738927 0.750000
O O10 0.563656 0.691306 0.834578
O O11 0.903659 0.745193 0.596774
O O12 0.478366 0.582065 0.325451
O O13 0.440171 0.449329 0.391383
O O14 0.208295 0.816039 0.638702
O O15 0.250000 0.250000 0.000000
#
# Coordination Sequence:
#
# PCOD9282668 Si02
#       7
#     8   8   8   8   4   8   8
#     4  11  25  42  68 101 133 178 228 275 346 401
#     4  10  21  39  63  96 125 165 227 274 332 393
#     4  10  24  44  64  99 138 180 227 265 352 411
#     4  11  24  43  67 100 134 178 228 280 341 400
#     4  10  24  42  62 100 134 172 228 284 344 396
#     4  11  25  41  69  97 134 180 221 287 330 405
#     4  10  22  39  66  97 126 180 222 278 337 396
#
# _framework density 22.217479999999998
#
# number of rings (size 3 to 8) (size 9 to 14) (size 15 to 20)
#    0.000    1.538    1.538    2.308    4.308    6.154 
#    0.000    2.308    0.000    0.000    0.000    0.000 
#    0.000    0.000    0.000    0.000    0.000    0.000 
#
# Total GULP energy -144853.821505 kJ/mol
# GULP energy per Si atom -5571.300827 kJ/mol
# Density = 2.216691 g / cm^3
# Si number density = 22.217480 Si / 1000 Ang^3
#
#
#
# Elastic Constant Matrix: (Units=GPa)
#
#
# Indices 1 2 3 4 5 6 
#
# 1 82.5995 27.5315 39.2007 -0.0213 -21.6208 0.0045
# 2 27.5315 90.4219 19.5601 -0.0727 -1.6825 0.0325
# 3 39.2007 19.5601 104.3092 -0.1376 -8.3688 0.0333
# 4 -0.0213 -0.0727 -0.1376 13.3693 0.0247 23.1698
# 5 -21.6208 -1.6825 -8.3688 0.0247 37.3949 0.0036
# 6 0.0045 0.0325 0.0333 23.1698 0.0036 1.7265
#
#
#
# Elastic Compliance Matrix: (Units=1/GPa)
#
#
# Indices 1 2 3 4 5 6 
#
# 1 0.018551 -0.004303 -0.005417 0.000012 0.009320 -0.000046
# 2 -0.004303 0.012525 -0.000902 -0.000018 -0.002126 0.000043
# 3 -0.005417 -0.000902 0.011748 -0.000020 -0.000543 0.000074
# 4 0.000012 -0.000018 -0.000020 -0.003361 0.000000 0.045099
# 5 0.009320 -0.002126 -0.000543 0.000000 0.031913 -0.000035
# 6 -0.000046 0.000043 0.000074 0.045099 -0.000035 -0.026022
#
#
# Mechanical properties :
#
#
# Convention : Reuss Voigt Hill
#
# Bulk Modulus (GPa) = 46.33977 49.99055 48.16516
# Shear Modulus (GPa) = 67.75693 23.23404 45.49548
#
# Velocity S-wave (km/s) = 5.52841 3.23732 4.53010
# Velocity P-wave (km/s) = 7.85199 6.04343 7.00631
#
# Compressibility (1/GPa) = 0.02157974
#
# Stress axis : x y z
#
# Youngs Moduli (GPa) = 53.90439 79.83997 85.11932
#
# Poissons Ratio (x) = 0.34357 0.46110
# Poissons Ratio (y) = 0.23196 0.07679
# Poissons Ratio (z) = 0.29201 0.07203
#
# Static dielectric constant tensor:
#      x y z
#    x 1.927500 -0.000020 -0.098290 
#    y -0.000020 1.875960 0.000030 
#    z -0.098290 0.000030 1.844780 
# 
# From -- ./inp_files/89518.got.cif
#   From: 2010.05.17/outbox.cif.g08.bks.cpg/sg15_45_cif.got.tgz:89518.got - 2010.06.03 18:47:42.
