data_PCOD9282798
_publ_section_title
;
Structure prediction by ZEFSAII (Michael W. Deem and Ramdas Pophale) SiO2 
 PCOD9282798
Probable space group: C 2/C
;
_chemical_formula_sum "Si O2"
_cell_formula_units_Z 56
_cell_length_a 21.060603
_cell_length_b 13.310327
_cell_length_c 16.764535
_cell_angle_alpha 90.000000
_cell_angle_beta 28.785103
_cell_angle_gamma 90.000000
_cell_volume 2262.927369
_symmetry_space_group_name_H-M "C 2/C"
_symmetry_group_IT_number 15
_symmetry_cell_setting 'monoclinic'
loop_
_space_group_symop_operation_xyz
x,y,z
-x,y,1/2-z
-x,-y,-z
x,-y,1/2+z
1/2+x,1/2+y,z
1/2-x,1/2+y,1/2-z
1/2-x,1/2-y,-z
1/2+x,1/2-y,1/2+z
loop_
_atom_site_type_symbol
_atom_site_label
_atom_site_fract_x
_atom_site_fract_y
_atom_site_fract_z
Si Si1 0.347389 0.525397 0.504356
Si Si2 0.500000 0.332336 0.750000
Si Si3 0.500000 0.003124 0.250000
Si Si4 0.154682 0.982904 0.312408
Si Si5 0.696570 0.296489 0.762082
Si Si6 0.790914 0.352371 0.914630
Si Si7 0.368022 0.838883 0.316385
Si Si8 0.913119 0.770945 0.144091
O O1 0.478842 0.591261 0.347274
O O2 0.293799 0.531057 0.653192
O O3 0.332318 0.413309 0.488001
O O4 0.255341 0.587469 0.545546
O O5 0.612012 0.247995 0.640792
O O6 0.623815 0.076912 0.121382
O O7 0.485377 0.922108 0.193903
O O8 0.210367 0.087677 0.220181
O O9 0.154777 0.879841 0.262750
O O10 0.000000 0.000000 0.500000
O O11 0.650315 0.222599 0.743890
O O12 0.832408 0.261778 0.653501
O O13 0.569019 0.289292 0.961442
O O14 0.884254 0.315827 0.739189
O O15 0.750000 0.250000 0.000000
#
# Coordination Sequence:
#
# PCOD9282798 Si02
#       8
#     8   4   4   8   8   8   8   8
#     4  11  22  42  62  96 135 172 228 280 339 409
#     4  11  22  37  68  96 130 185 222 279 342 414
#     4   9  24  47  66  92 138 177 228 283 334 408
#     4  10  21  39  64  96 135 173 221 285 339 404
#     4  11  23  43  72 100 140 183 229 290 350 410
#     4  11  26  44  67  95 134 182 228 284 340 414
#     4  10  22  43  67  97 134 175 226 285 347 403
#     4  11  24  44  69 101 141 183 230 289 348 411
#
# _framework density 24.746707000000001
#
# number of rings (size 3 to 8) (size 9 to 14) (size 15 to 20)
#    0.000    1.429    2.857    2.143    2.000    4.000 
#    2.571    3.571    0.000    0.000    0.000    0.000 
#    0.000    0.000    0.000    0.000    0.000    0.000 
#
# Total GULP energy -156127.020187 kJ/mol
# GULP energy per Si atom -5575.965007 kJ/mol
# Density = 2.469038 g / cm^3
# Si number density = 24.746707 Si / 1000 Ang^3
#
#
#
# Elastic Constant Matrix: (Units=GPa)
#
#
# Indices 1 2 3 4 5 6 
#
# 1 62.9239 30.1421 5.9536 0.0000 -13.9780 0.0000
# 2 30.1421 174.0830 18.5334 0.0000 -3.2809 0.0000
# 3 5.9536 18.5334 43.3128 0.0000 -8.7121 0.0000
# 4 0.0000 0.0000 0.0000 31.9369 0.0000 -3.6104
# 5 -13.9780 -3.2809 -8.7121 0.0000 26.3620 0.0000
# 6 0.0000 0.0000 0.0000 -3.6104 0.0000 48.2050
#
#
#
# Elastic Compliance Matrix: (Units=1/GPa)
#
#
# Indices 1 2 3 4 5 6 
#
# 1 0.019682 -0.003296 0.000773 0.000000 0.010281 0.000000
# 2 -0.003296 0.006571 -0.002727 0.000000 -0.001831 0.000000
# 3 0.000773 -0.002727 0.025883 0.000000 0.008624 0.000000
# 4 0.000000 0.000000 0.000000 0.031579 0.000000 0.002365
# 5 0.010281 -0.001831 0.008624 0.000000 0.046007 0.000000
# 6 0.000000 0.000000 0.000000 0.002365 0.000000 0.020922
#
#
# Mechanical properties :
#
#
# Convention : Reuss Voigt Hill
#
# Bulk Modulus (GPa) = 24.01786 43.28645 33.65215
# Shear Modulus (GPa) = 28.56762 36.34682 32.45722
#
# Velocity S-wave (km/s) = 3.40133 3.83659 3.62550
# Velocity P-wave (km/s) = 5.01517 6.09555 5.58156
#
# Compressibility (1/GPa) = 0.04163569
#
# Stress axis : x y z
#
# Youngs Moduli (GPa) = 50.80776 152.18476 38.63513
#
# Poissons Ratio (x) = 0.50167 -0.02987
# Poissons Ratio (y) = 0.16748 0.10536
# Poissons Ratio (z) = -0.03928 0.41500
#
# Static dielectric constant tensor:
#      x y z
#    x 2.092590 0.000000 -0.069550 
#    y 0.000000 1.958950 0.000000 
#    z -0.069550 0.000000 2.215270 
# 
# From -- ./inp_files/255464.got.cif
#   From: 2010.05.17/outbox.cif.g08.bks.cpg/sg15_128_cif.got.tgz:255464.got - 2010.06.03 18:47:42.
