data_PCOD9282109
_publ_section_title
;
Structure prediction by ZEFSAII (Michael W. Deem and Ramdas Pophale) SiO2 
 PCOD9282109
Probable space group: C 2/C
;
_chemical_formula_sum "Si O2"
_cell_formula_units_Z 40
_cell_length_a 11.440637
_cell_length_b 30.941314
_cell_length_c 5.385288
_cell_angle_alpha 90.000000
_cell_angle_beta 100.098871
_cell_angle_gamma 90.000000
_cell_volume 1876.793716
_symmetry_space_group_name_H-M "C 2/C"
_symmetry_group_IT_number 15
_symmetry_cell_setting 'monoclinic'
loop_
_space_group_symop_operation_xyz
x,y,z
-x,y,1/2-z
-x,-y,-z
x,-y,1/2+z
1/2+x,1/2+y,z
1/2-x,1/2+y,1/2-z
1/2-x,1/2-y,-z
1/2+x,1/2-y,1/2+z
loop_
_atom_site_type_symbol
_atom_site_label
_atom_site_fract_x
_atom_site_fract_y
_atom_site_fract_z
Si Si1 0.134506 0.481879 0.555841
Si Si2 0.894488 0.698096 0.519788
Si Si3 0.325318 0.277558 0.223753
Si Si4 0.365245 0.374598 0.186194
Si Si5 0.283917 0.112317 0.356371
O O1 0.192239 0.497228 0.320943
O O2 0.138154 0.430494 0.579087
O O3 0.000000 0.500000 0.500000
O O4 0.771801 0.706684 0.615155
O O5 0.912288 0.743492 0.387477
O O6 0.866033 0.655029 0.354751
O O7 0.000000 0.689936 0.750000
O O8 0.373658 0.322539 0.138857
O O9 0.250000 0.250000 0.000000
O O10 0.500000 0.391109 0.250000
O O11 0.296304 0.382807 0.421896
O O12 0.294130 0.392204 0.921649
#
# Coordination Sequence:
#
# PCOD9282109 Si02
#       5
#     8   8   8   8   8
#     4  10  22  41  68  98 131 172 198 264 344 412
#     4  10  23  36  59  87 130 176 215 278 319 385
#     4  10  21  39  53  88 129 173 229 259 322 373
#     4  11  24  41  70  91 133 184 223 277 318 382
#     4  11  23  44  64 101 134 163 228 269 327 408
#
# _framework density 21.312946
#
# number of rings (size 3 to 8) (size 9 to 14) (size 15 to 20)
#    0.000    1.600    2.000    1.800    5.600    0.000 
#    3.600    0.000    0.000   12.000    0.000    0.000 
#    0.000    0.000    0.000    0.000    0.000    0.000 
#
# Total GULP energy -111621.860395 kJ/mol
# GULP energy per Si atom -5581.093020 kJ/mol
# Density = 2.126444 g / cm^3
# Si number density = 21.312946 Si / 1000 Ang^3
#
#
#
# Elastic Constant Matrix: (Units=GPa)
#
#
# Indices 1 2 3 4 5 6 
#
# 1 73.6136 19.7607 25.4923 0.0000 7.6060 0.0000
# 2 19.7607 112.5104 13.3663 0.0000 6.9671 0.0000
# 3 25.4923 13.3663 130.9983 0.0000 0.5500 0.0000
# 4 0.0000 0.0000 0.0000 18.8143 0.0000 27.5338
# 5 7.6060 6.9671 0.5500 0.0000 34.6596 0.0000
# 6 0.0000 0.0000 0.0000 27.5338 0.0000 -13.4154
#
#
#
# Elastic Compliance Matrix: (Units=1/GPa)
#
#
# Indices 1 2 3 4 5 6 
#
# 1 0.015433 -0.002202 -0.002766 0.000000 -0.002900 0.000000
# 2 -0.002202 0.009424 -0.000527 0.000000 -0.001403 0.000000
# 3 -0.002766 -0.000527 0.008223 0.000000 0.000583 0.000000
# 4 0.000000 0.000000 0.000000 0.013276 0.000000 0.027247
# 5 -0.002900 -0.001403 0.000583 0.000000 0.029761 0.000000
# 6 0.000000 0.000000 0.000000 0.027247 0.000000 -0.018619
#
#
# Mechanical properties :
#
#
# Convention : Reuss Voigt Hill
#
# Bulk Modulus (GPa) = 45.27107 48.26235 46.76671
# Shear Modulus (GPa) = 65.91565 25.24522 45.58043
#
# Velocity S-wave (km/s) = 5.56728 3.44539 4.62955
# Velocity P-wave (km/s) = 7.91287 6.20656 7.11108
#
# Compressibility (1/GPa) = 0.02208916
#
# Stress axis : x y z
#
# Youngs Moduli (GPa) = 64.79491 106.10791 121.60458
#
# Poissons Ratio (x) = 0.23369 0.33641
# Poissons Ratio (y) = 0.14270 0.06410
# Poissons Ratio (z) = 0.17925 0.05593
#
# Static dielectric constant tensor:
#      x y z
#    x 1.769920 0.000000 -0.017060 
#    y 0.000000 1.837920 0.000000 
#    z -0.017060 0.000000 1.874650 
# 
# From -- ./inp_files/4899.got.cif
#   From: 2010.05.17/outbox.cif.g08.bks.cpg/sg15_3_cif.got.tgz:4899.got - 2010.06.03 18:47:42.
