data_PCOD9282180
_publ_section_title
;
Structure prediction by ZEFSAII (Michael W. Deem and Ramdas Pophale) SiO2 
 PCOD9282180
Probable space group: C 2/C
;
_chemical_formula_sum "Si O2"
_cell_formula_units_Z 40
_cell_length_a 29.651709
_cell_length_b 4.995637
_cell_length_c 12.314619
_cell_angle_alpha 90.000000
_cell_angle_beta 63.874993
_cell_angle_gamma 90.000000
_cell_volume 1637.790489
_symmetry_space_group_name_H-M "C 2/C"
_symmetry_group_IT_number 15
_symmetry_cell_setting 'monoclinic'
loop_
_space_group_symop_operation_xyz
x,y,z
-x,y,1/2-z
-x,-y,-z
x,-y,1/2+z
1/2+x,1/2+y,z
1/2-x,1/2+y,1/2-z
1/2-x,1/2-y,-z
1/2+x,1/2-y,1/2+z
loop_
_atom_site_type_symbol
_atom_site_label
_atom_site_fract_x
_atom_site_fract_y
_atom_site_fract_z
Si Si1 0.597274 0.412247 0.317905
Si Si2 0.924574 0.378354 0.285929
Si Si3 0.687019 0.155827 0.358754
Si Si4 0.977139 0.719846 0.942600
Si Si5 0.725311 0.346634 0.914820
O O1 0.613719 0.676257 0.233758
O O2 0.641619 0.282300 0.340726
O O3 0.552196 0.438283 0.454797
O O4 0.581318 0.178141 0.250760
O O5 0.934206 0.381410 0.403667
O O6 0.974764 0.235505 0.184198
O O7 0.702007 0.359568 0.438839
O O8 0.731625 0.146419 0.222788
O O9 0.683762 0.864773 0.416194
O O10 0.000000 0.500000 0.000000
O O11 0.750000 0.250000 0.000000
#
# Coordination Sequence:
#
# PCOD9282180 Si02
#       5
#     8   8   8   8   8
#     4  11  22  37  57  84 113 143 186 232 271 325
#     4  10  22  37  57  82 112 150 186 224 277 328
#     4  10  22  37  57  85 111 142 186 227 272 333
#     4   9  21  39  58  81 114 150 186 229 276 324
#     4  10  21  39  59  80 112 147 179 225 281 330
#
# _framework density 24.423151000000001
#
# number of rings (size 3 to 8) (size 9 to 14) (size 15 to 20)
#    0.000    2.000    0.000    2.400    0.000   12.800 
#    0.000    0.000    0.000    0.000    0.000    0.000 
#    0.000    0.000    0.000    0.000    0.000    0.000 
#
# Total GULP energy -111611.306464 kJ/mol
# GULP energy per Si atom -5580.565323 kJ/mol
# Density = 2.436756 g / cm^3
# Si number density = 24.423151 Si / 1000 Ang^3
#
#
#
# Elastic Constant Matrix: (Units=GPa)
#
#
# Indices 1 2 3 4 5 6 
#
# 1 44.5823 -18.0089 5.5925 0.0000 9.6721 0.0000
# 2 -18.0089 82.6868 18.4738 0.0000 -0.0146 0.0000
# 3 5.5925 18.4738 77.4972 0.0000 31.1009 0.0000
# 4 0.0000 0.0000 0.0000 14.7701 0.0000 4.9449
# 5 9.6721 -0.0146 31.1009 0.0000 43.4519 0.0000
# 6 0.0000 0.0000 0.0000 4.9449 0.0000 24.5395
#
#
#
# Elastic Compliance Matrix: (Units=1/GPa)
#
#
# Indices 1 2 3 4 5 6 
#
# 1 0.026064 0.005983 -0.001374 0.000000 -0.004816 0.000000
# 2 0.005983 0.014445 -0.004690 0.000000 0.002030 0.000000
# 3 -0.001374 -0.004690 0.019640 0.000000 -0.013753 0.000000
# 4 0.000000 0.000000 0.000000 0.072602 0.000000 -0.014630
# 5 -0.004816 0.002030 -0.013753 0.000000 0.033931 0.000000
# 6 0.000000 0.000000 0.000000 -0.014630 0.000000 0.043699
#
#
# Mechanical properties :
#
#
# Convention : Reuss Voigt Hill
#
# Bulk Modulus (GPa) = 16.67014 24.09788 20.38401
# Shear Modulus (GPa) = 21.68828 29.79956 25.74392
#
# Velocity S-wave (km/s) = 2.98320 3.49683 3.25018
# Velocity P-wave (km/s) = 4.32508 5.11782 4.73806
#
# Compressibility (1/GPa) = 0.05998748
#
# Stress axis : x y z
#
# Youngs Moduli (GPa) = 38.36636 69.22792 50.91590
#
# Poissons Ratio (x) = -0.41419 0.06998
# Poissons Ratio (y) = -0.22954 0.23878
# Poissons Ratio (z) = 0.05273 0.32466
#
# Static dielectric constant tensor:
#      x y z
#    x 2.120490 0.000000 -0.030980 
#    y 0.000000 2.004770 0.000000 
#    z -0.030980 0.000000 1.962980 
# 
# From -- ./inp_files/120719.got.cif
#   From: 2010.05.17/outbox.cif.g08.bks.cpg/sg15_61_cif.got.tgz:120719.got - 2010.06.03 18:47:42.
