data_PCOD9282904
_publ_section_title
;
Structure prediction by ZEFSAII (Michael W. Deem and Ramdas Pophale) SiO2 
 PCOD9282904
Probable space group: C 2/C
;
_chemical_formula_sum "Si O2"
_cell_formula_units_Z 44
_cell_length_a 34.436589
_cell_length_b 8.190643
_cell_length_c 8.454487
_cell_angle_alpha 90.000000
_cell_angle_beta 120.804966
_cell_angle_gamma 90.000000
_cell_volume 2048.216366
_symmetry_space_group_name_H-M "C 2/C"
_symmetry_group_IT_number 15
_symmetry_cell_setting 'monoclinic'
loop_
_space_group_symop_operation_xyz
x,y,z
-x,y,1/2-z
-x,-y,-z
x,-y,1/2+z
1/2+x,1/2+y,z
1/2-x,1/2+y,1/2-z
1/2-x,1/2-y,-z
1/2+x,1/2-y,1/2+z
loop_
_atom_site_type_symbol
_atom_site_label
_atom_site_fract_x
_atom_site_fract_y
_atom_site_fract_z
Si Si1 0.500000 0.105007 0.250000
Si Si2 0.709595 0.671789 0.312934
Si Si3 0.985845 0.821268 0.532075
Si Si4 0.727766 0.113369 0.563072
Si Si5 0.645864 0.132942 0.844938
Si Si6 0.586430 0.096400 0.013479
O O1 0.503555 0.205745 0.422935
O O2 0.455708 0.990599 0.162758
O O3 0.750000 0.750000 0.500000
O O4 0.704626 0.788176 0.154157
O O5 0.729561 0.499544 0.300159
O O6 0.664208 0.694788 0.317998
O O7 0.934419 0.752062 0.438751
O O8 0.000000 0.817987 0.750000
O O9 0.000000 0.000000 0.500000
O O10 0.750000 0.250000 0.500000
O O11 0.688248 0.993067 0.422358
O O12 0.625780 0.149909 0.976788
O O13 0.607425 0.044983 0.664522
#
# Coordination Sequence:
#
# PCOD9282904 Si02
#       6
#     4   8   8   8   8   8
#     4  12  24  46  78 100 138 198 246 302 378 440
#     4  10  21  39  65  94 133 180 226 278 350 424
#     4  12  25  45  72 104 143 188 246 305 372 439
#     4  11  23  42  68  98 139 185 228 288 359 433
#     4  11  23  41  70 105 139 177 237 300 353 436
#     4  12  23  45  73 101 137 187 244 296 366 441
#
# _framework density 21.482102999999999
#
# number of rings (size 3 to 8) (size 9 to 14) (size 15 to 20)
#    0.000    0.727    5.455    3.818    2.545    0.000 
#    0.000    5.455    0.000    0.000    0.000    0.000 
#    0.000    0.000    0.000    0.000    0.000    0.000 
#
# Total GULP energy -122535.094627 kJ/mol
# GULP energy per Si atom -5569.777028 kJ/mol
# Density = 2.143321 g / cm^3
# Si number density = 21.482103 Si / 1000 Ang^3
#
#
#
# Elastic Constant Matrix: (Units=GPa)
#
#
# Indices 1 2 3 4 5 6 
#
# 1 134.3733 43.4854 17.1587 0.0000 -17.9316 0.0000
# 2 43.4854 101.6116 14.0001 0.0000 1.9111 0.0000
# 3 17.1587 14.0001 61.7346 0.0000 -6.2287 0.0000
# 4 0.0000 0.0000 0.0000 23.3614 0.0000 -9.9251
# 5 -17.9316 1.9111 -6.2287 0.0000 43.6758 0.0000
# 6 0.0000 0.0000 0.0000 -9.9251 0.0000 47.4462
#
#
#
# Elastic Compliance Matrix: (Units=1/GPa)
#
#
# Indices 1 2 3 4 5 6 
#
# 1 0.009388 -0.003906 -0.001337 0.000000 0.003835 0.000000
# 2 -0.003906 0.011810 -0.001833 0.000000 -0.002382 0.000000
# 3 -0.001337 -0.001833 0.017186 0.000000 0.001982 0.000000
# 4 0.000000 0.000000 0.000000 0.046981 0.000000 0.009828
# 5 0.003835 -0.002382 0.001982 0.000000 0.024857 0.000000
# 6 0.000000 0.000000 0.000000 0.009828 0.000000 0.023132
#
#
# Mechanical properties :
#
#
# Convention : Reuss Voigt Hill
#
# Bulk Modulus (GPa) = 41.26593 49.66756 45.46674
# Shear Modulus (GPa) = 32.13703 37.76835 34.95269
#
# Velocity S-wave (km/s) = 3.87200 4.19756 4.03806
# Velocity P-wave (km/s) = 6.26426 6.83105 6.55379
#
# Compressibility (1/GPa) = 0.02423307
#
# Stress axis : x y z
#
# Youngs Moduli (GPa) = 106.51498 84.67226 58.18817
#
# Poissons Ratio (x) = 0.33071 0.07778
# Poissons Ratio (y) = 0.41602 0.10666
# Poissons Ratio (z) = 0.14239 0.15521
#
# Static dielectric constant tensor:
#      x y z
#    x 1.843920 0.000000 -0.059210 
#    y 0.000000 1.891460 0.000000 
#    z -0.059210 0.000000 1.896260 
# 
# From -- ./inp_files/68410.got.cif
#   From: 2010.05.17/outbox.cif.g08.bks.cpg/sg15_35_cif.got.tgz:68410.got - 2010.06.03 18:47:42.
