data_PCOD9282115
_publ_section_title
;
Structure prediction by ZEFSAII (Michael W. Deem and Ramdas Pophale) SiO2 
 PCOD9282115
Probable space group: C 2/C
;
_chemical_formula_sum "Si O2"
_cell_formula_units_Z 48
_cell_length_a 15.455919
_cell_length_b 28.670252
_cell_length_c 5.475347
_cell_angle_alpha 90.000000
_cell_angle_beta 58.768924
_cell_angle_gamma 90.000000
_cell_volume 2074.657204
_symmetry_space_group_name_H-M "C 2/C"
_symmetry_group_IT_number 15
_symmetry_cell_setting 'monoclinic'
loop_
_space_group_symop_operation_xyz
x,y,z
-x,y,1/2-z
-x,-y,-z
x,-y,1/2+z
1/2+x,1/2+y,z
1/2-x,1/2+y,1/2-z
1/2-x,1/2-y,-z
1/2+x,1/2-y,1/2+z
loop_
_atom_site_type_symbol
_atom_site_label
_atom_site_fract_x
_atom_site_fract_y
_atom_site_fract_z
Si Si1 0.613532 0.483054 0.557470
Si Si2 0.960787 0.553072 0.057896
Si Si3 0.211046 0.609766 0.282001
Si Si4 0.306358 0.280747 0.120100
Si Si5 0.893806 0.698064 0.265242
Si Si6 0.174143 0.882141 0.387701
O O1 0.500000 0.503412 0.750000
O O2 0.662542 0.505812 0.246634
O O3 0.607519 0.427960 0.520954
O O4 0.842586 0.561746 0.217242
O O5 0.000000 0.575063 0.250000
O O6 0.000000 0.574603 0.750000
O O7 0.000000 0.500000 0.000000
O O8 0.132195 0.652438 0.355805
O O9 0.241860 0.609478 0.520470
O O10 0.294464 0.617323 0.945773
O O11 0.207621 0.296379 0.421307
O O12 0.386477 0.245947 0.124586
O O13 0.360161 0.330034 0.989406
O O14 0.250000 0.250000 0.000000
O O15 0.000000 0.694173 0.250000
#
# Coordination Sequence:
#
# PCOD9282115 Si02
#       6
#     8   8   8   8   8   8
#     4  10  22  45  68  95 131 168 217 280 339 405
#     4  10  21  39  55  81 123 163 205 265 307 354
#     4  11  22  40  64  91 132 173 220 263 320 400
#     4  10  21  43  63  94 140 166 220 282 319 401
#     4  10  22  40  65  94 131 183 218 265 339 398
#     4  11  23  42  67  97 127 173 217 269 336 390
#
# _framework density 23.136353
#
# number of rings (size 3 to 8) (size 9 to 14) (size 15 to 20)
#    0.000    1.667    1.667    2.500    0.000    2.000 
#   21.000    0.833    0.000    0.000    0.000    0.000 
#    0.000    0.000    0.000    0.000    0.000    0.000 
#
# Total GULP energy -133700.703823 kJ/mol
# GULP energy per Si atom -5570.862659 kJ/mol
# Density = 2.308369 g / cm^3
# Si number density = 23.136353 Si / 1000 Ang^3
#
#
#
# Elastic Constant Matrix: (Units=GPa)
#
#
# Indices 1 2 3 4 5 6 
#
# 1 58.2839 -5.6287 3.0201 0.0000 3.8779 0.0000
# 2 -5.6287 126.1679 15.8584 0.0000 -11.5169 0.0000
# 3 3.0201 15.8584 79.6768 0.0000 27.9895 0.0000
# 4 0.0000 0.0000 0.0000 12.7789 0.0000 -8.1038
# 5 3.8779 -11.5169 27.9895 0.0000 28.0141 0.0000
# 6 0.0000 0.0000 0.0000 -8.1038 0.0000 30.7333
#
#
#
# Elastic Compliance Matrix: (Units=1/GPa)
#
#
# Indices 1 2 3 4 5 6 
#
# 1 0.017357 0.000581 -0.000021 0.000000 -0.002143 0.000000
# 2 0.000581 0.009369 -0.004949 0.000000 0.008716 0.000000
# 3 -0.000021 -0.004949 0.021956 0.000000 -0.023969 0.000000
# 4 0.000000 0.000000 0.000000 0.093966 0.000000 0.024777
# 5 -0.002143 0.008716 -0.023969 0.000000 0.063524 0.000000
# 6 0.000000 0.000000 0.000000 0.024777 0.000000 0.039071
#
#
# Mechanical properties :
#
#
# Convention : Reuss Voigt Hill
#
# Bulk Modulus (GPa) = 25.05838 32.29201 28.67519
# Shear Modulus (GPa) = 18.70401 31.03051 24.86726
#
# Velocity S-wave (km/s) = 2.84637 3.66621 3.28199
# Velocity P-wave (km/s) = 4.65367 5.64881 5.17522
#
# Compressibility (1/GPa) = 0.03990682
#
# Stress axis : x y z
#
# Youngs Moduli (GPa) = 57.61294 106.72961 45.54504
#
# Poissons Ratio (x) = -0.06205 0.00095
# Poissons Ratio (y) = -0.03349 0.22538
# Poissons Ratio (z) = 0.00120 0.52816
#
# Static dielectric constant tensor:
#      x y z
#    x 1.880280 0.000000 0.002080 
#    y 0.000000 1.926230 0.000000 
#    z 0.002080 0.000000 1.946720 
# 
# From -- ./inp_files/11187.got.cif
#   From: 2010.05.17/outbox.cif.g08.bks.cpg/sg15_6_cif.got.tgz:11187.got - 2010.06.03 18:47:42.
