data_PCOD9282232
_publ_section_title
;
Structure prediction by ZEFSAII (Michael W. Deem and Ramdas Pophale) SiO2 
 PCOD9282232
Probable space group: C 2/C
;
_chemical_formula_sum "Si O2"
_cell_formula_units_Z 60
_cell_length_a 14.280755
_cell_length_b 13.899142
_cell_length_c 12.498521
_cell_angle_alpha 90.000000
_cell_angle_beta 111.479200
_cell_angle_gamma 90.000000
_cell_volume 2308.541882
_symmetry_space_group_name_H-M "C 2/C"
_symmetry_group_IT_number 15
_symmetry_cell_setting 'monoclinic'
loop_
_space_group_symop_operation_xyz
x,y,z
-x,y,1/2-z
-x,-y,-z
x,-y,1/2+z
1/2+x,1/2+y,z
1/2-x,1/2+y,1/2-z
1/2-x,1/2-y,-z
1/2+x,1/2-y,1/2+z
loop_
_atom_site_type_symbol
_atom_site_label
_atom_site_fract_x
_atom_site_fract_y
_atom_site_fract_z
Si Si1 0.986016 0.741433 0.122737
Si Si2 0.151145 0.586983 0.124993
Si Si3 0.091017 0.118810 0.503170
Si Si4 0.826342 0.957677 0.823308
Si Si5 0.776342 0.269462 0.150460
Si Si6 0.144599 0.732135 0.605905
Si Si7 0.543805 0.112963 0.872978
Si Si8 0.000000 0.947193 0.750000
O O1 0.063223 0.652234 0.138741
O O2 0.021888 0.828695 0.061866
O O3 0.000000 0.769990 0.250000
O O4 0.874176 0.718609 0.028826
O O5 0.210633 0.524126 0.237762
O O6 0.244037 0.658327 0.136042
O O7 0.101956 0.554131 0.991223
O O8 0.189257 0.182596 0.547415
O O9 0.039949 0.111939 0.367806
O O10 0.131353 0.016347 0.558533
O O11 0.844037 0.845880 0.862739
O O12 0.900290 0.993546 0.758527
O O13 0.771334 0.303072 0.273960
O O14 0.879274 0.310260 0.146456
O O15 0.044946 0.674869 0.607947
O O16 0.500000 0.058979 0.750000
#
# Coordination Sequence:
#
# PCOD9282232 Si02
#       8
#     8   8   8   8   8   8   8   4
#     4  10  21  39  60  83 118 154 196 237 278 342
#     4   9  19  34  52  82 113 150 194 235 278 333
#     4  11  24  39  56  88 117 157 191 232 291 348
#     4  11  23  36  56  84 119 153 192 231 289 353
#     4   9  18  33  53  83 118 146 186 238 288 340
#     4   9  19  33  57  86 113 145 190 237 287 339
#     4   9  16  28  55  85 111 137 179 241 297 333
#     4  12  24  36  60  84 124 152 182 236 296 348
#
# _framework density 25.990432999999999
#
# number of rings (size 3 to 8) (size 9 to 14) (size 15 to 20)
#    0.000    2.133    1.333    1.600    5.600    0.000 
#    0.000    7.333    0.000    9.600    0.000    0.000 
#    0.000    0.000    0.000    0.000    0.000    0.000 
#
# Total GULP energy -167296.076099 kJ/mol
# GULP energy per Si atom -5576.535870 kJ/mol
# Density = 2.593128 g / cm^3
# Si number density = 25.990433 Si / 1000 Ang^3
#
#
#
# Elastic Constant Matrix: (Units=GPa)
#
#
# Indices 1 2 3 4 5 6 
#
# 1 28.9805 6.8688 31.3074 0.0000 16.3698 0.0000
# 2 6.8688 65.1161 20.5735 0.0000 7.3236 0.0000
# 3 31.3074 20.5735 292.3359 0.0000 30.0538 0.0000
# 4 0.0000 0.0000 0.0000 -26.9116 0.0000 -16.7115
# 5 16.3698 7.3236 30.0538 0.0000 38.6760 0.0000
# 6 0.0000 0.0000 0.0000 -16.7115 0.0000 4.7571
#
#
#
# Elastic Compliance Matrix: (Units=1/GPa)
#
#
# Indices 1 2 3 4 5 6 
#
# 1 0.048431 -0.002110 -0.003230 0.000000 -0.017589 0.000000
# 2 -0.002110 0.015989 -0.000739 0.000000 -0.001560 0.000000
# 3 -0.003230 -0.000739 0.003982 0.000000 -0.001587 0.000000
# 4 0.000000 0.000000 0.000000 -0.011680 0.000000 -0.041030
# 5 -0.017589 -0.001560 -0.001587 0.000000 0.034829 0.000000
# 6 0.000000 0.000000 0.000000 -0.041030 0.000000 0.066074
#
#
# Mechanical properties :
#
#
# Convention : Reuss Voigt Hill
#
# Bulk Modulus (GPa) = 17.77975 55.99243 36.88609
# Shear Modulus (GPa) = 26.52098 25.14981 25.83539
#
# Velocity S-wave (km/s) = 3.19786 3.11409 3.15625
# Velocity P-wave (km/s) = 4.52667 5.87540 5.24457
#
# Compressibility (1/GPa) = 0.05624375
#
# Stress axis : x y z
#
# Youngs Moduli (GPa) = 20.64806 62.54420 251.14359
#
# Poissons Ratio (x) = 0.13197 0.81116
# Poissons Ratio (y) = 0.04357 0.18555
# Poissons Ratio (z) = 0.06669 0.04621
#
# Static dielectric constant tensor:
#      x y z
#    x 2.111860 0.000000 -0.029290 
#    y 0.000000 2.215820 0.000000 
#    z -0.029290 0.000000 2.161110 
# 
# From -- ./inp_files/106715.got.cif
#   From: 2010.05.17/outbox.cif.g08.bks.cpg/sg15_54_cif.got.tgz:106715.got - 2010.06.03 18:47:42.
