data_PCOD9282609
_publ_section_title
;
Structure prediction by ZEFSAII (Michael W. Deem and Ramdas Pophale) SiO2 
 PCOD9282609
Probable space group: C 2/C
;
_chemical_formula_sum "Si O2"
_cell_formula_units_Z 60
_cell_length_a 12.536349
_cell_length_b 20.944021
_cell_length_c 18.554175
_cell_angle_alpha 90.000000
_cell_angle_beta 38.078625
_cell_angle_gamma 90.000000
_cell_volume 3004.529631
_symmetry_space_group_name_H-M "C 2/C"
_symmetry_group_IT_number 15
_symmetry_cell_setting 'monoclinic'
loop_
_space_group_symop_operation_xyz
x,y,z
-x,y,1/2-z
-x,-y,-z
x,-y,1/2+z
1/2+x,1/2+y,z
1/2-x,1/2+y,1/2-z
1/2-x,1/2-y,-z
1/2+x,1/2-y,1/2+z
loop_
_atom_site_type_symbol
_atom_site_label
_atom_site_fract_x
_atom_site_fract_y
_atom_site_fract_z
Si Si1 0.183056 0.875662 0.036626
Si Si2 0.821257 0.495605 0.800766
Si Si3 0.991601 0.549296 0.572062
Si Si4 0.345470 0.475222 0.966520
Si Si5 0.000000 0.212512 0.750000
Si Si6 0.648854 0.286175 0.919034
Si Si7 0.491671 0.844697 0.544372
Si Si8 0.842772 0.115636 0.197972
O O1 0.071419 0.833826 0.150785
O O2 0.130469 0.949528 0.061799
O O3 0.163041 0.839585 0.972562
O O4 0.380098 0.869138 0.960633
O O5 0.756357 0.427102 0.809128
O O6 0.000000 0.489373 0.750000
O O7 0.856318 0.531840 0.706882
O O8 0.692345 0.528100 0.926972
O O9 0.175815 0.546322 0.513653
O O10 0.954849 0.617002 0.555613
O O11 0.000000 0.500000 0.500000
O O12 0.503700 0.430772 0.859762
O O13 0.840147 0.255645 0.808745
O O14 0.591458 0.320808 0.876691
O O15 0.526419 0.229500 0.012305
O O16 0.298024 0.864411 0.668115
#
# Coordination Sequence:
#
# PCOD9282609 Si02
#       8
#     8   8   8   8   4   8   8   8
#     4  11  21  39  63  92 131 157 215 268 321 377
#     4  10  21  39  63  91 131 166 206 257 320 380
#     4  11  21  41  67  93 124 166 210 263 323 377
#     4  11  24  40  62  98 125 166 211 266 322 371
#     4  10  22  34  58  94 124 166 206 270 314 368
#     4  11  23  39  60  89 129 177 209 250 317 390
#     4  11  23  41  62  95 127 171 207 259 326 376
#     4  12  23  38  63  92 130 167 210 261 315 383
#
# _framework density 19.969847999999999
#
# number of rings (size 3 to 8) (size 9 to 14) (size 15 to 20)
#    0.000    1.067    4.000    4.400    0.933    3.733 
#    2.400    0.667    0.000    0.000    0.000    0.000 
#    0.000    0.000    0.000    0.000    0.000    0.000 
#
# Total GULP energy -167660.615772 kJ/mol
# GULP energy per Si atom -5588.687192 kJ/mol
# Density = 1.992440 g / cm^3
# Si number density = 19.969848 Si / 1000 Ang^3
#
#
#
# Elastic Constant Matrix: (Units=GPa)
#
#
# Indices 1 2 3 4 5 6 
#
# 1 33.9877 25.0521 6.1753 -0.0006 8.8288 0.0137
# 2 25.0521 112.4441 16.1444 0.0009 -8.4841 0.0426
# 3 6.1753 16.1444 48.8748 -0.0013 -7.9237 0.0546
# 4 -0.0006 0.0009 -0.0013 22.1558 0.0029 6.3013
# 5 8.8288 -8.4841 -7.9237 0.0029 30.2065 -0.0250
# 6 0.0137 0.0426 0.0546 6.3013 -0.0250 -13.3860
#
#
#
# Elastic Compliance Matrix: (Units=1/GPa)
#
#
# Indices 1 2 3 4 5 6 
#
# 1 0.041731 -0.009852 -0.004642 -0.000003 -0.016182 0.000021
# 2 -0.009852 0.011767 -0.001712 -0.000004 0.005735 0.000008
# 3 -0.004642 -0.001712 0.022721 -0.000017 0.006836 0.000062
# 4 -0.000003 -0.000004 -0.000017 0.039806 0.000007 0.018738
# 5 -0.016182 0.005735 0.006836 0.000007 0.041239 -0.000044
# 6 0.000021 0.000008 0.000062 0.018738 -0.000044 -0.065884
#
#
# Mechanical properties :
#
#
# Convention : Reuss Voigt Hill
#
# Bulk Modulus (GPa) = 22.82767 32.22781 27.52774
# Shear Modulus (GPa) = 36.12869 17.65759 26.89314
#
# Velocity S-wave (km/s) = 4.25804 2.97680 3.67370
# Velocity P-wave (km/s) = 5.96912 5.29040 5.63998
#
# Compressibility (1/GPa) = 0.04380649
#
# Stress axis : x y z
#
# Youngs Moduli (GPa) = 23.96287 84.98420 44.01277
#
# Poissons Ratio (x) = 0.83727 0.20430
# Poissons Ratio (y) = 0.23608 0.07536
# Poissons Ratio (z) = 0.11123 0.14551
#
# Static dielectric constant tensor:
#      x y z
#    x 1.704640 0.000000 0.007820 
#    y 0.000000 1.700470 0.000010 
#    z 0.007820 0.000010 1.783280 
# 
# From -- ./inp_files/200507.got.cif
#   From: 2010.05.17/outbox.cif.g08.bks.cpg/sg15_101_cif.got.tgz:200507.got - 2010.06.03 18:47:42.
