data_PCOD9282761
_publ_section_title
;
Structure prediction by ZEFSAII (Michael W. Deem and Ramdas Pophale) SiO2 
 PCOD9282761
Probable space group: C 2/C
;
_chemical_formula_sum "Si O2"
_cell_formula_units_Z 52
_cell_length_a 18.607246
_cell_length_b 28.836459
_cell_length_c 5.110198
_cell_angle_alpha 90.000000
_cell_angle_beta 61.967452
_cell_angle_gamma 90.000000
_cell_volume 2420.278907
_symmetry_space_group_name_H-M "C 2/C"
_symmetry_group_IT_number 15
_symmetry_cell_setting 'monoclinic'
loop_
_space_group_symop_operation_xyz
x,y,z
-x,y,1/2-z
-x,-y,-z
x,-y,1/2+z
1/2+x,1/2+y,z
1/2-x,1/2+y,1/2-z
1/2-x,1/2-y,-z
1/2+x,1/2-y,1/2+z
loop_
_atom_site_type_symbol
_atom_site_label
_atom_site_fract_x
_atom_site_fract_y
_atom_site_fract_z
Si Si1 0.575838 0.692797 0.778931
Si Si2 0.903734 0.528677 0.398697
Si Si3 0.764608 0.411368 0.307876
Si Si4 0.384845 0.471198 0.946185
Si Si5 0.806100 0.260264 0.654997
Si Si6 0.500000 0.612314 0.250000
Si Si7 0.761162 0.851764 0.651248
O O1 0.500000 0.714406 0.750000
O O2 0.615310 0.728139 0.924947
O O3 0.651672 0.674622 0.472778
O O4 0.538024 0.646848 0.973841
O O5 0.883798 0.487714 0.639963
O O6 0.854520 0.573038 0.578317
O O7 0.000000 0.536577 0.250000
O O8 0.709114 0.457018 0.378605
O O9 0.749498 0.391904 0.620885
O O10 0.739191 0.372479 0.139589
O O11 0.405501 0.489957 0.198047
O O12 0.430063 0.423840 0.788344
O O13 0.750000 0.250000 0.500000
O O14 0.812076 0.315762 0.664383
O O15 0.750000 0.250000 0.000000
#
# Coordination Sequence:
#
# PCOD9282761 Si02
#       7
#     8   8   8   8   8   4   8
#     4  11  25  42  70  99 134 184 238 291 339 421
#     4  10  21  39  64  93 125 163 217 276 332 404
#     4  12  22  41  68  94 131 177 227 269 349 419
#     4  12  26  42  61  92 138 183 231 287 339 395
#     4  10  23  43  68  96 129 168 223 280 347 397
#     4  12  26  42  66  94 140 186 242 286 344 404
#     4  11  23  42  67  98 131 174 222 284 334 421
#
# _framework density 21.485129000000001
#
# number of rings (size 3 to 8) (size 9 to 14) (size 15 to 20)
#    0.000    0.923    1.538    6.000    6.462    0.000 
#    0.000    0.769    0.000    0.000    0.000    0.000 
#    0.000    0.000    0.000    0.000    0.000    0.000 
#
# Total GULP energy -145215.266753 kJ/mol
# GULP energy per Si atom -5585.202567 kJ/mol
# Density = 2.143623 g / cm^3
# Si number density = 21.485129 Si / 1000 Ang^3
#
#
#
# Elastic Constant Matrix: (Units=GPa)
#
#
# Indices 1 2 3 4 5 6 
#
# 1 86.7113 32.0791 22.4577 0.0000 -5.4985 0.0000
# 2 32.0791 46.7136 14.3245 0.0000 -11.0353 0.0000
# 3 22.4577 14.3245 79.2730 0.0000 0.5761 0.0000
# 4 0.0000 0.0000 0.0000 34.7477 0.0000 5.2820
# 5 -5.4985 -11.0353 0.5761 0.0000 30.3039 0.0000
# 6 0.0000 0.0000 0.0000 5.2820 0.0000 28.3711
#
#
#
# Elastic Compliance Matrix: (Units=1/GPa)
#
#
# Indices 1 2 3 4 5 6 
#
# 1 0.016005 -0.010371 -0.002654 0.000000 -0.000822 0.000000
# 2 -0.010371 0.031702 -0.002861 0.000000 0.009717 0.000000
# 3 -0.002654 -0.002861 0.013896 0.000000 -0.001788 0.000000
# 4 0.000000 0.000000 0.000000 0.029617 0.000000 -0.005514
# 5 -0.000822 0.009717 -0.001788 0.000000 0.036422 0.000000
# 6 0.000000 0.000000 0.000000 -0.005514 0.000000 0.036274
#
#
# Mechanical properties :
#
#
# Convention : Reuss Voigt Hill
#
# Bulk Modulus (GPa) = 33.52249 38.93560 36.22905
# Shear Modulus (GPa) = 24.31535 28.27365 26.29450
#
# Velocity S-wave (km/s) = 3.36777 3.63156 3.50215
# Velocity P-wave (km/s) = 5.54608 5.97877 5.76649
#
# Compressibility (1/GPa) = 0.02983072
#
# Stress axis : x y z
#
# Youngs Moduli (GPa) = 62.48227 31.54399 71.96073
#
# Poissons Ratio (x) = 0.32714 0.19099
# Poissons Ratio (y) = 0.64800 0.20588
# Poissons Ratio (z) = 0.16583 0.09025
#
# Static dielectric constant tensor:
#      x y z
#    x 1.859170 0.000000 -0.014420 
#    y 0.000000 1.812230 0.000000 
#    z -0.014420 0.000000 1.781040 
# 
# From -- ./inp_files/11434.got.cif
#   From: 2010.05.17/outbox.cif.g08.bks.cpg/sg15_6_cif.got.tgz:11434.got - 2010.06.03 18:47:42.
