data_PCOD9282589
_publ_section_title
;
Structure prediction by ZEFSAII (Michael W. Deem and Ramdas Pophale) SiO2 
 PCOD9282589
Probable space group: C 2/C
;
_chemical_formula_sum "Si O2"
_cell_formula_units_Z 64
_cell_length_a 25.246642
_cell_length_b 11.532555
_cell_length_c 14.202592
_cell_angle_alpha 90.000000
_cell_angle_beta 132.344263
_cell_angle_gamma 90.000000
_cell_volume 3056.373342
_symmetry_space_group_name_H-M "C 2/C"
_symmetry_group_IT_number 15
_symmetry_cell_setting 'monoclinic'
loop_
_space_group_symop_operation_xyz
x,y,z
-x,y,1/2-z
-x,-y,-z
x,-y,1/2+z
1/2+x,1/2+y,z
1/2-x,1/2+y,1/2-z
1/2-x,1/2-y,-z
1/2+x,1/2-y,1/2+z
loop_
_atom_site_type_symbol
_atom_site_label
_atom_site_fract_x
_atom_site_fract_y
_atom_site_fract_z
Si Si1 0.507149 0.841248 0.873022
Si Si2 0.211194 0.751473 0.289181
Si Si3 0.513704 0.391552 0.655419
Si Si4 0.065879 0.125696 0.625594
Si Si5 0.143245 0.273485 0.314314
Si Si6 0.136565 0.466241 0.776492
Si Si7 0.282995 0.165960 0.404876
Si Si8 0.661502 0.917163 0.025756
O O1 0.500000 0.833833 0.750000
O O2 0.491333 0.715759 0.898461
O O3 0.444464 0.923158 0.840098
O O4 0.586580 0.888770 0.986077
O O5 0.144214 0.826996 0.243939
O O6 0.194267 0.621319 0.302180
O O7 0.208800 0.748032 0.174123
O O8 0.285417 0.808217 0.408186
O O9 0.500000 0.411313 0.750000
O O10 0.553844 0.501754 0.658188
O O11 0.447797 0.376568 0.503537
O O12 0.565072 0.280023 0.710880
O O13 0.148983 0.398876 0.272005
O O14 0.202763 0.184893 0.346997
O O15 0.163714 0.296382 0.447788
O O16 0.144119 0.446694 0.897101
O O17 0.299702 0.034394 0.394210
#
# Coordination Sequence:
#
# PCOD9282589 Si02
#       8
#     8   8   8   8   8   8   8   8
#     4   9  19  38  63  91 123 158 204 265 308 370
#     4  11  22  38  62  88 125 160 206 259 311 371
#     4  11  23  40  64  87 122 168 207 253 320 369
#     4  10  23  40  59  93 124 157 216 258 301 380
#     4  10  22  42  60  87 126 164 202 258 314 378
#     4   9  21  39  62  91 123 160 210 256 312 376
#     4  10  23  38  60  90 124 159 210 254 309 382
#     4  10  21  39  63  90 124 165 205 257 322 369
#
# _framework density 20.939848999999999
#
# number of rings (size 3 to 8) (size 9 to 14) (size 15 to 20)
#    0.000    2.000    0.000    2.250    3.500    3.500 
#    0.000    6.250    0.000    0.000    0.000    0.000 
#    0.000    0.000    0.000    0.000    0.000    0.000 
#
# Total GULP energy -178690.110232 kJ/mol
# GULP energy per Si atom -5584.065945 kJ/mol
# Density = 2.089219 g / cm^3
# Si number density = 20.939849 Si / 1000 Ang^3
#
#
#
# Elastic Constant Matrix: (Units=GPa)
#
#
# Indices 1 2 3 4 5 6 
#
# 1 43.6684 25.0698 21.7883 0.0000 10.2404 0.0000
# 2 25.0698 89.8768 29.8235 0.0000 13.7001 0.0000
# 3 21.7883 29.8235 52.5441 0.0000 11.5499 0.0000
# 4 0.0000 0.0000 0.0000 10.8444 0.0000 -0.5734
# 5 10.2404 13.7001 11.5499 0.0000 26.7290 0.0000
# 6 0.0000 0.0000 0.0000 -0.5734 0.0000 22.1882
#
#
#
# Elastic Compliance Matrix: (Units=1/GPa)
#
#
# Indices 1 2 3 4 5 6 
#
# 1 0.031578 -0.004945 -0.009044 0.000000 -0.005655 0.000000
# 2 -0.004945 0.014891 -0.005680 0.000000 -0.003284 0.000000
# 3 -0.009044 -0.005680 0.027186 0.000000 -0.005371 0.000000
# 4 0.000000 0.000000 0.000000 0.092340 0.000000 0.002386
# 5 -0.005655 -0.003284 -0.005371 0.000000 0.043583 0.000000
# 6 0.000000 0.000000 0.000000 0.002386 0.000000 0.045131
#
#
# Mechanical properties :
#
#
# Convention : Reuss Voigt Hill
#
# Bulk Modulus (GPa) = 29.14004 37.71693 33.42849
# Shear Modulus (GPa) = 16.36740 19.24617 17.80678
#
# Velocity S-wave (km/s) = 2.79881 3.03498 2.91929
# Velocity P-wave (km/s) = 4.93870 5.50751 5.23084
#
# Compressibility (1/GPa) = 0.03431704
#
# Stress axis : x y z
#
# Youngs Moduli (GPa) = 31.66803 67.15550 36.78302
#
# Poissons Ratio (x) = 0.33207 0.33268
# Poissons Ratio (y) = 0.15659 0.20891
# Poissons Ratio (z) = 0.28642 0.38142
#
# Static dielectric constant tensor:
#      x y z
#    x 1.746340 0.000000 -0.006020 
#    y 0.000000 1.741540 0.000000 
#    z -0.006020 0.000000 1.763740 
# 
# From -- ./inp_files/177848.got.cif
#   From: 2010.05.17/outbox.cif.g08.bks.cpg/sg15_89_cif.got.tgz:177848.got - 2010.06.03 18:47:42.
