data_PCOD9282095
_publ_section_title
;
Structure prediction by ZEFSAII (Michael W. Deem and Ramdas Pophale) SiO2 
 PCOD9282095
Probable space group: C 2/C
;
_chemical_formula_sum "Si O2"
_cell_formula_units_Z 56
_cell_length_a 27.823329
_cell_length_b 9.050176
_cell_length_c 11.214087
_cell_angle_alpha 90.000000
_cell_angle_beta 68.711461
_cell_angle_gamma 90.000000
_cell_volume 2631.091212
_symmetry_space_group_name_H-M "C 2/C"
_symmetry_group_IT_number 15
_symmetry_cell_setting 'monoclinic'
loop_
_space_group_symop_operation_xyz
x,y,z
-x,y,1/2-z
-x,-y,-z
x,-y,1/2+z
1/2+x,1/2+y,z
1/2-x,1/2+y,1/2-z
1/2-x,1/2-y,-z
1/2+x,1/2-y,1/2+z
loop_
_atom_site_type_symbol
_atom_site_label
_atom_site_fract_x
_atom_site_fract_y
_atom_site_fract_z
Si Si1 0.444756 0.139210 0.863452
Si Si2 0.250949 0.446839 0.613853
Si Si3 0.987961 0.830755 0.022114
Si Si4 0.291783 0.612533 0.814792
Si Si5 0.410118 0.830279 0.007138
Si Si6 0.859029 0.571302 0.768192
Si Si7 0.602110 0.740979 0.738913
O O1 0.500000 0.117448 0.750000
O O2 0.396398 0.163079 0.820426
O O3 0.430643 0.988804 0.944503
O O4 0.452650 0.271578 0.947368
O O5 0.274226 0.518494 0.714589
O O6 0.280404 0.450456 0.459225
O O7 0.235052 0.276163 0.657243
O O8 0.197948 0.537604 0.637896
O O9 0.954990 0.799123 0.169563
O O10 0.041430 0.743257 0.972620
O O11 0.000000 0.000000 0.000000
O O12 0.353075 0.640523 0.748376
O O13 0.394308 0.738408 0.906534
O O14 0.362144 0.854692 0.136712
O O15 0.886347 0.410327 0.734555
#
# Coordination Sequence:
#
# PCOD9282095 Si02
#       7
#     8   8   8   8   8   8   8
#     4  11  21  38  64  93 123 167 223 271 319 390
#     4  10  24  43  71 104 138 178 228 290 347 407
#     4  12  25  41  60  93 140 171 213 267 334 414
#     4  10  24  46  70 100 141 179 232 284 344 411
#     4  11  21  40  67  93 125 170 226 276 323 387
#     4  10  21  38  71  98 122 166 229 280 321 390
#     4  10  23  42  67  95 129 178 219 274 339 400
#
# _framework density 21.283944999999999
#
# number of rings (size 3 to 8) (size 9 to 14) (size 15 to 20)
#    0.000    1.429    2.857    2.571    8.000    2.857 
#    0.000    0.000    0.000    0.000    0.000    0.000 
#    0.000    0.000    0.000    0.000    0.000    0.000 
#
# Total GULP energy -156405.498319 kJ/mol
# GULP energy per Si atom -5585.910654 kJ/mol
# Density = 2.123550 g / cm^3
# Si number density = 21.283945 Si / 1000 Ang^3
#
#
#
# Elastic Constant Matrix: (Units=GPa)
#
#
# Indices 1 2 3 4 5 6 
#
# 1 76.7555 28.1841 30.4858 0.0000 12.8270 0.0000
# 2 28.1841 42.2186 21.1450 0.0000 16.5543 0.0000
# 3 30.4858 21.1450 68.4284 0.0000 17.7624 0.0000
# 4 0.0000 0.0000 0.0000 14.7725 0.0000 3.7269
# 5 12.8270 16.5543 17.7624 0.0000 31.3862 0.0000
# 6 0.0000 0.0000 0.0000 3.7269 0.0000 32.0387
#
#
#
# Elastic Compliance Matrix: (Units=1/GPa)
#
#
# Indices 1 2 3 4 5 6 
#
# 1 0.018771 -0.010096 -0.005432 0.000000 0.000728 0.000000
# 2 -0.010096 0.037573 -0.003563 0.000000 -0.013675 0.000000
# 3 -0.005432 -0.003563 0.020010 0.000000 -0.007225 0.000000
# 4 0.000000 0.000000 0.000000 0.069740 0.000000 -0.008112
# 5 0.000728 -0.013675 -0.007225 0.000000 0.042865 0.000000
# 6 0.000000 0.000000 0.000000 -0.008112 0.000000 0.032156
#
#
# Mechanical properties :
#
#
# Convention : Reuss Voigt Hill
#
# Bulk Modulus (GPa) = 26.19671 38.55915 32.37793
# Shear Modulus (GPa) = 18.38090 22.81199 20.59645
#
# Velocity S-wave (km/s) = 2.94190 3.27738 3.11416
# Velocity P-wave (km/s) = 4.88617 5.69890 5.30811
#
# Compressibility (1/GPa) = 0.03817273
#
# Stress axis : x y z
#
# Youngs Moduli (GPa) = 53.27230 26.61520 49.97429
#
# Poissons Ratio (x) = 0.26871 0.27146
# Poissons Ratio (y) = 0.53784 0.17804
# Poissons Ratio (z) = 0.28938 0.09482
#
# Static dielectric constant tensor:
#      x y z
#    x 1.784980 0.000000 0.027600 
#    y 0.000000 1.738180 0.000000 
#    z 0.027600 0.000000 1.819800 
# 
# From -- ./inp_files/125836.got.cif
#   From: 2010.05.17/outbox.cif.g08.bks.cpg/sg15_63_cif.got.tgz:125836.got - 2010.06.03 18:47:42.
