data_PCOD9282661
_publ_section_title
;
Structure prediction by ZEFSAII (Michael W. Deem and Ramdas Pophale) SiO2 
 PCOD9282661
Probable space group: C 2/C
;
_chemical_formula_sum "Si O2"
_cell_formula_units_Z 56
_cell_length_a 19.231348
_cell_length_b 5.503677
_cell_length_c 22.659400
_cell_angle_alpha 90.000000
_cell_angle_beta 94.273435
_cell_angle_gamma 90.000000
_cell_volume 2391.673873
_symmetry_space_group_name_H-M "C 2/C"
_symmetry_group_IT_number 15
_symmetry_cell_setting 'monoclinic'
loop_
_space_group_symop_operation_xyz
x,y,z
-x,y,1/2-z
-x,-y,-z
x,-y,1/2+z
1/2+x,1/2+y,z
1/2-x,1/2+y,1/2-z
1/2-x,1/2-y,-z
1/2+x,1/2-y,1/2+z
loop_
_atom_site_type_symbol
_atom_site_label
_atom_site_fract_x
_atom_site_fract_y
_atom_site_fract_z
Si Si1 0.060458 0.478381 0.921655
Si Si2 0.482862 0.796530 0.317504
Si Si3 0.937246 0.794594 0.292327
Si Si4 0.215201 0.829439 0.226148
Si Si5 0.810210 0.436479 0.516608
Si Si6 0.559069 0.324849 0.027786
Si Si7 0.801108 0.790908 0.415598
O O1 0.127008 0.314053 0.941260
O O2 0.048431 0.601742 0.858232
O O3 0.987078 0.360899 0.935689
O O4 0.080807 0.685289 0.969663
O O5 0.500000 0.765018 0.250000
O O6 0.458552 0.526273 0.334271
O O7 0.429211 0.022688 0.318272
O O8 0.864685 0.860228 0.257780
O O9 0.000000 0.766087 0.250000
O O10 0.246087 0.580966 0.255364
O O11 0.209782 0.795071 0.154817
O O12 0.750000 0.250000 0.500000
O O13 0.822595 0.543410 0.451138
O O14 0.770045 0.625425 0.557469
O O15 0.627583 0.436526 0.062499
O O16 0.500000 0.500000 0.000000
#
# Coordination Sequence:
#
# PCOD9282661 Si02
#       7
#     8   8   8   8   8   8   8
#     4  10  22  36  63  96 125 168 226 276 344 406
#     4  10  22  41  65 103 134 176 223 286 341 410
#     4  10  23  45  70  96 142 183 234 282 343 417
#     4  12  28  47  71 108 147 194 235 294 364 439
#     4  10  22  44  66  94 133 187 234 295 348 419
#     4  10  21  39  63  95 125 165 220 284 344 400
#     4  10  24  42  65  98 136 179 236 287 355 418
#
# _framework density 23.414563000000001
#
# number of rings (size 3 to 8) (size 9 to 14) (size 15 to 20)
#    0.000    1.714    0.000    2.571    6.000    4.571 
#    0.000    0.000    0.000    0.000    0.000    0.000 
#    0.000    0.000    0.000    0.000    0.000    0.000 
#
# Total GULP energy -155971.859885 kJ/mol
# GULP energy per Si atom -5570.423567 kJ/mol
# Density = 2.336127 g / cm^3
# Si number density = 23.414563 Si / 1000 Ang^3
#
#
#
# Elastic Constant Matrix: (Units=GPa)
#
#
# Indices 1 2 3 4 5 6 
#
# 1 121.4648 -2.2456 36.0203 0.0000 14.4710 0.0000
# 2 -2.2456 91.9340 17.4805 0.0000 4.3948 0.0000
# 3 36.0203 17.4805 143.4861 0.0000 11.4650 0.0000
# 4 0.0000 0.0000 0.0000 25.1554 0.0000 8.5076
# 5 14.4710 4.3948 11.4650 0.0000 37.1690 0.0000
# 6 0.0000 0.0000 0.0000 8.5076 0.0000 28.7727
#
#
#
# Elastic Compliance Matrix: (Units=1/GPa)
#
#
# Indices 1 2 3 4 5 6 
#
# 1 0.009253 0.000784 -0.002177 0.000000 -0.003024 0.000000
# 2 0.000784 0.011233 -0.001471 0.000000 -0.001180 0.000000
# 3 -0.002177 -0.001471 0.007806 0.000000 -0.001386 0.000000
# 4 0.000000 0.000000 0.000000 0.044170 0.000000 -0.013060
# 5 -0.003024 -0.001180 -0.001386 0.000000 0.028649 0.000000
# 6 0.000000 0.000000 0.000000 -0.013060 0.000000 0.038617
#
#
# Mechanical properties :
#
#
# Convention : Reuss Voigt Hill
#
# Bulk Modulus (GPa) = 44.31717 51.04394 47.68055
# Shear Modulus (GPa) = 32.68500 38.59473 35.63986
#
# Velocity S-wave (km/s) = 3.74026 4.06436 3.90567
# Velocity P-wave (km/s) = 6.13360 6.62365 6.38333
#
# Compressibility (1/GPa) = 0.02256462
#
# Stress axis : x y z
#
# Youngs Moduli (GPa) = 108.07154 89.02615 128.11030
#
# Poissons Ratio (x) = -0.06984 0.27888
# Poissons Ratio (y) = -0.08478 0.18846
# Poissons Ratio (z) = 0.23525 0.13097
#
# Static dielectric constant tensor:
#      x y z
#    x 1.722580 0.000000 -0.262340 
#    y 0.000000 2.064110 0.000000 
#    z -0.262340 0.000000 1.855030 
# 
# From -- ./inp_files/278971.got.cif
#   From: 2010.05.17/outbox.cif.g08.bks.cpg/sg15_140_cif.got.tgz:278971.got - 2010.06.03 18:47:42.
