data_PCOD9282133
_publ_section_title
;
Structure prediction by ZEFSAII (Michael W. Deem and Ramdas Pophale) SiO2 
 PCOD9282133
Probable space group: C 2/C
;
_chemical_formula_sum "Si O2"
_cell_formula_units_Z 52
_cell_length_a 15.274848
_cell_length_b 24.950711
_cell_length_c 17.153432
_cell_angle_alpha 90.000000
_cell_angle_beta 159.310822
_cell_angle_gamma 90.000000
_cell_volume 2309.682125
_symmetry_space_group_name_H-M "C 2/C"
_symmetry_group_IT_number 15
_symmetry_cell_setting 'monoclinic'
loop_
_space_group_symop_operation_xyz
x,y,z
-x,y,1/2-z
-x,-y,-z
x,-y,1/2+z
1/2+x,1/2+y,z
1/2-x,1/2+y,1/2-z
1/2-x,1/2-y,-z
1/2+x,1/2-y,1/2+z
loop_
_atom_site_type_symbol
_atom_site_label
_atom_site_fract_x
_atom_site_fract_y
_atom_site_fract_z
Si Si1 0.581743 0.121187 0.732657
Si Si2 0.000000 0.384809 0.750000
Si Si3 0.067763 0.663185 0.551647
Si Si4 0.737203 0.526616 0.394105
Si Si5 0.730836 0.200197 0.542825
Si Si6 0.974508 0.073915 0.855168
Si Si7 0.622766 0.411921 0.647576
O O1 0.500000 0.140535 0.750000
O O2 0.530113 0.159684 0.614252
O O3 0.458046 0.061979 0.614840
O O4 0.872631 0.111994 0.974208
O O5 0.963646 0.343138 0.649576
O O6 0.747278 0.417752 0.546324
O O7 0.149621 0.712915 0.564052
O O8 0.305586 0.625460 0.731946
O O9 0.822467 0.635503 0.312991
O O10 0.500000 0.540815 0.250000
O O11 0.697858 0.463870 0.341956
O O12 0.727382 0.547745 0.297984
O O13 0.750000 0.250000 0.500000
O O14 0.000000 0.174547 0.750000
O O15 0.055294 0.058905 0.010855
#
# Coordination Sequence:
#
# PCOD9282133 Si02
#       7
#     8   4   8   8   8   8   8
#     4  10  21  41  62  85 124 169 230 279 321 372
#     4  12  24  40  64  90 128 174 214 260 336 394
#     4  10  23  39  62  92 126 164 219 267 331 405
#     4  11  23  35  55  86 118 171 227 279 315 366
#     4  12  24  43  67  99 131 163 202 257 331 419
#     4  11  24  37  58  83 126 171 217 271 318 393
#     4  10  21  39  57  82 123 164 223 271 330 365
#
# _framework density 22.513921
#
# number of rings (size 3 to 8) (size 9 to 14) (size 15 to 20)
#    0.000    1.231    5.385    0.462    2.154    8.000 
#    0.000    0.000    0.000    0.000    0.000    1.077 
#    0.000    0.000    0.000    0.000    0.000    0.000 
#
# Total GULP energy -144781.302406 kJ/mol
# GULP energy per Si atom -5568.511631 kJ/mol
# Density = 2.246268 g / cm^3
# Si number density = 22.513921 Si / 1000 Ang^3
#
#
#
# Elastic Constant Matrix: (Units=GPa)
#
#
# Indices 1 2 3 4 5 6 
#
# 1 204.6546 42.1767 36.4487 0.0006 5.5513 -0.0004
# 2 42.1767 26.8782 5.4060 0.0015 1.8581 -0.0006
# 3 36.4487 5.4060 84.8294 0.0107 8.3360 0.0029
# 4 0.0006 0.0015 0.0107 12.9675 0.0022 6.0103
# 5 5.5513 1.8581 8.3360 0.0022 32.7174 -0.0012
# 6 -0.0004 -0.0006 0.0029 6.0103 -0.0012 17.6142
#
#
#
# Elastic Compliance Matrix: (Units=1/GPa)
#
#
# Indices 1 2 3 4 5 6 
#
# 1 0.007744 -0.011632 -0.002587 0.000004 0.000006 -0.000001
# 2 -0.011632 0.055238 0.001633 -0.000009 -0.001580 0.000004
# 3 -0.002587 0.001633 0.013089 -0.000011 -0.002989 0.000001
# 4 0.000004 -0.000009 -0.000011 0.091603 -0.000005 -0.031257
# 5 0.000006 -0.001580 -0.002989 -0.000005 0.031415 0.000004
# 6 -0.000001 0.000004 0.000001 -0.031257 0.000004 0.067438
#
#
# Mechanical properties :
#
#
# Convention : Reuss Voigt Hill
#
# Bulk Modulus (GPa) = 19.64622 53.82498 36.73560
# Shear Modulus (GPa) = 16.19874 28.14853 22.17363
#
# Velocity S-wave (km/s) = 2.68526 3.53975 3.14169
# Velocity P-wave (km/s) = 4.28478 6.37697 5.43255
#
# Compressibility (1/GPa) = 0.05090037
#
# Stress axis : x y z
#
# Youngs Moduli (GPa) = 129.13253 18.10342 76.39751
#
# Poissons Ratio (x) = 0.21058 0.19761
# Poissons Ratio (y) = 1.50205 -0.12475
# Poissons Ratio (z) = 0.33402 -0.02956
#
# Static dielectric constant tensor:
#      x y z
#    x 1.952410 0.000000 -0.069600 
#    y 0.000000 1.944350 0.000000 
#    z -0.069600 0.000000 1.913700 
# 
# From -- ./inp_files/207625.got.cif
#   From: 2010.05.17/outbox.cif.g08.bks.cpg/sg15_104_cif.got.tgz:207625.got - 2010.06.03 18:47:42.
