data_PCOD9282791
_publ_section_title
;
Structure prediction by ZEFSAII (Michael W. Deem and Ramdas Pophale) SiO2 
 PCOD9282791
Probable space group: C 2/C
;
_chemical_formula_sum "Si O2"
_cell_formula_units_Z 44
_cell_length_a 11.803502
_cell_length_b 21.031621
_cell_length_c 7.991451
_cell_angle_alpha 90.000000
_cell_angle_beta 88.476600
_cell_angle_gamma 90.000000
_cell_volume 1983.150792
_symmetry_space_group_name_H-M "C 2/C"
_symmetry_group_IT_number 15
_symmetry_cell_setting 'monoclinic'
loop_
_space_group_symop_operation_xyz
x,y,z
-x,y,1/2-z
-x,-y,-z
x,-y,1/2+z
1/2+x,1/2+y,z
1/2-x,1/2+y,1/2-z
1/2-x,1/2-y,-z
1/2+x,1/2-y,1/2+z
loop_
_atom_site_type_symbol
_atom_site_label
_atom_site_fract_x
_atom_site_fract_y
_atom_site_fract_z
Si Si1 0.500000 0.785690 0.750000
Si Si2 0.376174 0.421550 0.827615
Si Si3 0.404737 0.772203 0.106680
Si Si4 0.879093 0.580353 0.668923
Si Si5 0.249957 0.000725 0.924914
Si Si6 0.244319 0.700358 0.348487
O O1 0.545806 0.752316 0.577002
O O2 0.385706 0.819554 0.685031
O O3 0.500000 0.414889 0.750000
O O4 0.291208 0.442846 0.685131
O O5 0.325651 0.356669 0.896723
O O6 0.357005 0.476800 0.962458
O O7 0.500000 0.766239 0.250000
O O8 0.372717 0.847374 0.103953
O O9 0.299905 0.731659 0.180759
O O10 0.789261 0.560885 0.815129
O O11 0.851879 0.527494 0.530631
O O12 0.000000 0.572745 0.750000
O O13 0.250000 0.750000 0.500000
#
# Coordination Sequence:
#
# PCOD9282791 Si02
#       6
#     4   8   8   8   8   8
#     4  12  26  42  72  98 144 176 226 286 342 412
#     4  11  24  43  71  95 138 177 228 282 339 407
#     4  11  23  44  68  99 140 180 229 284 345 413
#     4  10  21  39  64  95 138 175 222 281 338 409
#     4  10  22  41  63 101 129 180 229 277 337 407
#     4  12  25  46  71 104 138 184 231 286 352 414
#
# _framework density 22.186916
#
# number of rings (size 3 to 8) (size 9 to 14) (size 15 to 20)
#    0.000    1.091    1.818    4.364    2.545    0.000 
#    8.182    0.000    6.000    0.000    0.000    0.000 
#    0.000    0.000    0.000    0.000    0.000    0.000 
#
# Total GULP energy -122818.736746 kJ/mol
# GULP energy per Si atom -5582.669852 kJ/mol
# Density = 2.213642 g / cm^3
# Si number density = 22.186916 Si / 1000 Ang^3
#
#
#
# Elastic Constant Matrix: (Units=GPa)
#
#
# Indices 1 2 3 4 5 6 
#
# 1 89.3056 10.5816 3.8253 0.0000 -17.1259 0.0000
# 2 10.5816 80.9882 20.3207 0.0000 -8.4127 0.0000
# 3 3.8253 20.3207 107.1770 0.0000 -5.3503 0.0000
# 4 0.0000 0.0000 0.0000 26.6018 0.0000 -5.9946
# 5 -17.1259 -8.4127 -5.3503 0.0000 29.1754 0.0000
# 6 0.0000 0.0000 0.0000 -5.9946 0.0000 21.5696
#
#
#
# Elastic Compliance Matrix: (Units=1/GPa)
#
#
# Indices 1 2 3 4 5 6 
#
# 1 0.012683 -0.000931 0.000083 0.000000 0.007192 0.000000
# 2 -0.000931 0.013359 -0.002356 0.000000 0.002873 0.000000
# 3 0.000083 -0.002356 0.009833 0.000000 0.001172 0.000000
# 4 0.000000 0.000000 0.000000 0.040103 0.000000 0.011145
# 5 0.007192 0.002873 0.001172 0.000000 0.039541 0.000000
# 6 0.000000 0.000000 0.000000 0.011145 0.000000 0.049459
#
#
# Mechanical properties :
#
#
# Convention : Reuss Voigt Hill
#
# Bulk Modulus (GPa) = 33.93687 38.54734 36.24211
# Shear Modulus (GPa) = 27.59258 31.65224 29.62241
#
# Velocity S-wave (km/s) = 3.53036 3.78116 3.65791
# Velocity P-wave (km/s) = 5.65217 6.03941 5.84899
#
# Compressibility (1/GPa) = 0.02946647
#
# Stress axis : x y z
#
# Youngs Moduli (GPa) = 78.84296 74.85724 101.70193
#
# Poissons Ratio (x) = 0.06968 -0.00842
# Poissons Ratio (y) = 0.07339 0.23962
# Poissons Ratio (z) = -0.00653 0.17637
#
# Static dielectric constant tensor:
#      x y z
#    x 1.808000 0.000000 0.019470 
#    y 0.000000 1.802050 0.000000 
#    z 0.019470 0.000000 1.885560 
# 
# From -- ./inp_files/30741.got.cif
#   From: 2010.05.17/outbox.cif.g08.bks.cpg/sg15_16_cif.got.tgz:30741.got - 2010.06.03 18:47:42.
