data_PCOD9282546
_publ_section_title
;
Structure prediction by ZEFSAII (Michael W. Deem and Ramdas Pophale) SiO2 
 PCOD9282546
Probable space group: C 2/C
;
_chemical_formula_sum "Si O2"
_cell_formula_units_Z 40
_cell_length_a 7.883029
_cell_length_b 26.335484
_cell_length_c 8.571416
_cell_angle_alpha 90.000000
_cell_angle_beta 97.580281
_cell_angle_gamma 90.000000
_cell_volume 1763.904310
_symmetry_space_group_name_H-M "C 2/C"
_symmetry_group_IT_number 15
_symmetry_cell_setting 'monoclinic'
loop_
_space_group_symop_operation_xyz
x,y,z
-x,y,1/2-z
-x,-y,-z
x,-y,1/2+z
1/2+x,1/2+y,z
1/2-x,1/2+y,1/2-z
1/2-x,1/2-y,-z
1/2+x,1/2-y,1/2+z
loop_
_atom_site_type_symbol
_atom_site_label
_atom_site_fract_x
_atom_site_fract_y
_atom_site_fract_z
Si Si1 0.816529 0.629777 0.676700
Si Si2 0.193054 0.563563 0.231259
Si Si3 0.666669 0.531323 0.575641
Si Si4 0.183706 0.668019 0.181557
Si Si5 0.201780 0.231017 0.819030
O O1 0.673416 0.584991 0.668434
O O2 0.829843 0.653600 0.502863
O O3 0.782665 0.676909 0.787605
O O4 0.000000 0.606966 0.750000
O O5 0.243403 0.513518 0.324748
O O6 0.278868 0.618815 0.268552
O O7 0.000000 0.573266 0.250000
O O8 0.225136 0.548428 0.058962
O O9 0.500000 0.500000 0.500000
O O10 0.267076 0.722632 0.217801
O O11 0.000000 0.673069 0.250000
O O12 0.000000 0.224421 0.750000
O O13 0.250000 0.250000 0.000000
#
# Coordination Sequence:
#
# PCOD9282546 Si02
#       5
#     8   8   8   8   8
#     4  11  23  42  68  97 131 178 230 286 348 417
#     4  10  21  39  63  87 120 168 219 272 331 403
#     4  11  24  40  60  93 130 169 221 283 346 410
#     4   9  20  39  62  92 128 170 221 275 333 401
#     4  11  24  42  66 101 140 185 232 286 348 413
#
# _framework density 22.676966
#
# number of rings (size 3 to 8) (size 9 to 14) (size 15 to 20)
#    0.000    1.600    0.000    4.800    0.000    8.000 
#    0.000    4.000    0.000    0.000    0.000    0.000 
#    0.000    0.000    0.000    0.000    0.000    0.000 
#
# Total GULP energy -111384.530722 kJ/mol
# GULP energy per Si atom -5569.226536 kJ/mol
# Density = 2.262535 g / cm^3
# Si number density = 22.676966 Si / 1000 Ang^3
#
#
#
# Elastic Constant Matrix: (Units=GPa)
#
#
# Indices 1 2 3 4 5 6 
#
# 1 93.5787 36.6254 -18.8815 0.0000 0.0919 0.0000
# 2 36.6254 204.4710 27.5577 0.0000 12.6111 0.0000
# 3 -18.8815 27.5577 134.6067 0.0000 12.4612 0.0000
# 4 0.0000 0.0000 0.0000 39.7923 0.0000 -9.0302
# 5 0.0919 12.6111 12.4612 0.0000 22.5889 0.0000
# 6 0.0000 0.0000 0.0000 -9.0302 0.0000 24.7091
#
#
#
# Elastic Compliance Matrix: (Units=1/GPa)
#
#
# Indices 1 2 3 4 5 6 
#
# 1 0.012094 -0.002469 0.002191 0.000000 0.000121 0.000000
# 2 -0.002469 0.005656 -0.001278 0.000000 -0.002442 0.000000
# 3 0.002191 -0.001278 0.008360 0.000000 -0.003907 0.000000
# 4 0.000000 0.000000 0.000000 0.027403 0.000000 0.010015
# 5 0.000121 -0.002442 -0.003907 0.000000 0.047788 0.000000
# 6 0.000000 0.000000 0.000000 0.010015 0.000000 0.044131
#
#
# Mechanical properties :
#
#
# Convention : Reuss Voigt Hill
#
# Bulk Modulus (GPa) = 43.48350 58.13994 50.81172
# Shear Modulus (GPa) = 32.00806 43.24172 37.62489
#
# Velocity S-wave (km/s) = 3.76104 4.37149 4.07771
# Velocity P-wave (km/s) = 6.17069 7.15360 6.68024
#
# Compressibility (1/GPa) = 0.02299723
#
# Stress axis : x y z
#
# Youngs Moduli (GPa) = 82.68224 176.80807 119.62113
#
# Poissons Ratio (x) = 0.43656 -0.26207
# Poissons Ratio (y) = 0.20415 0.15289
# Poissons Ratio (z) = -0.18114 0.22599
#
# Static dielectric constant tensor:
#      x y z
#    x 1.807980 0.000000 -0.055480 
#    y 0.000000 1.594120 0.000000 
#    z -0.055480 0.000000 1.757510 
# 
# From -- ./inp_files/23662.got.cif
#   From: 2010.05.17/outbox.cif.g08.bks.cpg/sg15_12_cif.got.tgz:23662.got - 2010.06.03 18:47:42.
