data_PCOD9282161
_publ_section_title
;
Structure prediction by ZEFSAII (Michael W. Deem and Ramdas Pophale) SiO2 
 PCOD9282161
Probable space group: C 2/C
;
_chemical_formula_sum "Si O2"
_cell_formula_units_Z 56
_cell_length_a 25.814871
_cell_length_b 11.797049
_cell_length_c 8.727692
_cell_angle_alpha 90.000000
_cell_angle_beta 111.595859
_cell_angle_gamma 90.000000
_cell_volume 2471.347058
_symmetry_space_group_name_H-M "C 2/C"
_symmetry_group_IT_number 15
_symmetry_cell_setting 'monoclinic'
loop_
_space_group_symop_operation_xyz
x,y,z
-x,y,1/2-z
-x,-y,-z
x,-y,1/2+z
1/2+x,1/2+y,z
1/2-x,1/2+y,1/2-z
1/2-x,1/2-y,-z
1/2+x,1/2-y,1/2+z
loop_
_atom_site_type_symbol
_atom_site_label
_atom_site_fract_x
_atom_site_fract_y
_atom_site_fract_z
Si Si1 0.144273 0.033743 0.978415
Si Si2 0.679135 0.931499 0.038237
Si Si3 0.625220 0.350229 0.731719
Si Si4 0.204397 0.153136 0.766166
Si Si5 0.438626 0.153543 0.670421
Si Si6 0.742702 0.159086 0.121956
Si Si7 0.898667 0.447788 0.812405
O O1 0.180379 0.937663 0.114779
O O2 0.105740 0.112296 0.042799
O O3 0.110255 0.951306 0.830035
O O4 0.179360 0.113804 0.900925
O O5 0.712946 0.046150 0.030456
O O6 0.642702 0.968772 0.141584
O O7 0.728935 0.852409 0.142235
O O8 0.637541 0.890998 0.861936
O O9 0.604954 0.236338 0.790726
O O10 0.692268 0.360518 0.769595
O O11 0.201319 0.280939 0.698331
O O12 0.500000 0.204565 0.750000
O O13 0.424038 0.128194 0.476287
O O14 0.438766 0.033638 0.762688
O O15 0.750000 0.250000 0.000000
#
# Coordination Sequence:
#
# PCOD9282161 Si02
#       7
#     8   8   8   8   8   8   8
#     4  10  21  39  58  86 134 172 222 258 316 381
#     4  11  20  36  56  91 134 173 207 254 310 400
#     4  11  23  42  61  94 126 177 220 272 324 392
#     4  11  20  35  55  87 133 189 213 252 303 380
#     4  11  24  48  72  92 123 167 224 294 341 377
#     4  12  20  32  58  87 132 178 218 246 310 387
#     4  10  23  39  64  96 129 164 215 266 335 400
#
# _framework density 22.659707000000001
#
# number of rings (size 3 to 8) (size 9 to 14) (size 15 to 20)
#    0.000    1.143    4.286    4.714    0.000    0.571 
#    5.143    0.714    0.000    0.000    0.000    0.000 
#    0.000    0.000    0.000    0.000    0.000    0.000 
#
# Total GULP energy -156180.881580 kJ/mol
# GULP energy per Si atom -5577.888628 kJ/mol
# Density = 2.260813 g / cm^3
# Si number density = 22.659707 Si / 1000 Ang^3
#
#
#
# Elastic Constant Matrix: (Units=GPa)
#
#
# Indices 1 2 3 4 5 6 
#
# 1 46.7382 -1.3988 16.0307 0.0000 2.1450 0.0000
# 2 -1.3988 69.3433 8.8226 0.0000 1.6068 0.0000
# 3 16.0307 8.8226 100.1435 0.0000 -11.5537 0.0000
# 4 0.0000 0.0000 0.0000 25.5343 0.0000 -12.8949
# 5 2.1450 1.6068 -11.5537 0.0000 24.2382 0.0000
# 6 0.0000 0.0000 0.0000 -12.8949 0.0000 16.3449
#
#
#
# Elastic Compliance Matrix: (Units=1/GPa)
#
#
# Indices 1 2 3 4 5 6 
#
# 1 0.023085 0.001105 -0.004272 0.000000 -0.004152 0.000000
# 2 0.001105 0.014702 -0.001689 0.000000 -0.001877 0.000000
# 3 -0.004272 -0.001689 0.011508 0.000000 0.005975 0.000000
# 4 0.000000 0.000000 0.000000 0.065099 0.000000 0.051358
# 5 -0.004152 -0.001877 0.005975 0.000000 0.044597 0.000000
# 6 0.000000 0.000000 0.000000 0.051358 0.000000 0.101699
#
#
# Mechanical properties :
#
#
# Convention : Reuss Voigt Hill
#
# Bulk Modulus (GPa) = 25.26297 29.23711 27.25004
# Shear Modulus (GPa) = 17.63084 26.07486 21.85285
#
# Velocity S-wave (km/s) = 2.79242 3.39590 3.10884
# Velocity P-wave (km/s) = 4.64433 5.32042 4.99383
#
# Compressibility (1/GPa) = 0.03958363
#
# Stress axis : x y z
#
# Youngs Moduli (GPa) = 43.31893 68.01946 86.89873
#
# Poissons Ratio (x) = -0.07519 0.37121
# Poissons Ratio (y) = -0.04788 0.14675
# Poissons Ratio (z) = 0.18505 0.11487
#
# Static dielectric constant tensor:
#      x y z
#    x 1.909630 0.000000 0.031510 
#    y 0.000000 1.965800 0.000000 
#    z 0.031510 0.000000 2.019450 
# 
# From -- ./inp_files/69166.got.cif
#   From: 2010.05.17/outbox.cif.g08.bks.cpg/sg15_35_cif.got.tgz:69166.got - 2010.06.03 18:47:42.
