data_PCOD9282247
_publ_section_title
;
Structure prediction by ZEFSAII (Michael W. Deem and Ramdas Pophale) SiO2 
 PCOD9282247
Probable space group: C 2/C
;
_chemical_formula_sum "Si O2"
_cell_formula_units_Z 60
_cell_length_a 9.150621
_cell_length_b 25.835140
_cell_length_c 13.525513
_cell_angle_alpha 90.000000
_cell_angle_beta 82.387442
_cell_angle_gamma 90.000000
_cell_volume 3169.352352
_symmetry_space_group_name_H-M "C 2/C"
_symmetry_group_IT_number 15
_symmetry_cell_setting 'monoclinic'
loop_
_space_group_symop_operation_xyz
x,y,z
-x,y,1/2-z
-x,-y,-z
x,-y,1/2+z
1/2+x,1/2+y,z
1/2-x,1/2+y,1/2-z
1/2-x,1/2-y,-z
1/2+x,1/2-y,1/2+z
loop_
_atom_site_type_symbol
_atom_site_label
_atom_site_fract_x
_atom_site_fract_y
_atom_site_fract_z
Si Si1 0.685129 0.200854 0.876329
Si Si2 0.669522 0.602806 0.716317
Si Si3 0.142715 0.001836 0.852074
Si Si4 0.407037 0.208607 0.396523
Si Si5 0.803680 0.985798 0.426010
Si Si6 0.500000 0.272743 0.750000
Si Si7 0.798574 0.672425 0.201808
Si Si8 0.148218 0.557315 0.299849
O O1 0.728722 0.152983 0.802181
O O2 0.829461 0.235975 0.886797
O O3 0.569633 0.237091 0.829159
O O4 0.623922 0.188079 0.990889
O O5 0.500000 0.618904 0.750000
O O6 0.689875 0.556247 0.795105
O O7 0.694663 0.573593 0.609197
O O8 0.217921 0.955910 0.785669
O O9 0.196416 0.997652 0.959166
O O10 0.965634 0.997001 0.870759
O O11 0.335089 0.173488 0.316297
O O12 0.580334 0.209783 0.358115
O O13 0.671927 0.015943 0.384379
O O14 0.365546 0.307956 0.799921
O O15 0.832417 0.614993 0.162211
O O16 0.000000 0.551646 0.250000
#
# Coordination Sequence:
#
# PCOD9282247 Si02
#       8
#     8   8   8   8   8   4   8   8
#     4  10  21  39  61  86 113 160 193 245 292 359
#     4   9  19  35  60  87 116 159 194 235 298 352
#     4   9  20  40  59  86 119 153 199 240 291 356
#     4   9  20  40  61  82 117 150 207 233 292 359
#     4   9  20  39  60  86 117 155 200 244 283 361
#     4  10  24  38  56  88 120 150 194 250 304 330
#     4  10  21  39  60  87 115 155 190 250 294 354
#     4  11  21  35  59  88 115 152 192 242 300 349
#
# _framework density 18.931311999999998
#
# number of rings (size 3 to 8) (size 9 to 14) (size 15 to 20)
#    0.000    2.400    1.333    1.200    7.467    1.067 
#    7.200    1.333    0.000    0.000    0.000    0.000 
#    0.000    0.000    0.000    0.000    0.000    0.000 
#
# Total GULP energy -167141.225616 kJ/mol
# GULP energy per Si atom -5571.374187 kJ/mol
# Density = 1.888822 g / cm^3
# Si number density = 18.931312 Si / 1000 Ang^3
#
#
#
# Elastic Constant Matrix: (Units=GPa)
#
#
# Indices 1 2 3 4 5 6 
#
# 1 100.4495 31.2745 14.9661 0.0000 7.3651 0.0000
# 2 31.2745 33.5852 9.9586 0.0000 3.9902 0.0000
# 3 14.9661 9.9586 76.8476 0.0000 2.8319 0.0000
# 4 0.0000 0.0000 0.0000 14.1343 0.0000 -1.0915
# 5 7.3651 3.9902 2.8319 0.0000 17.5122 0.0000
# 6 0.0000 0.0000 0.0000 -1.0915 0.0000 26.0967
#
#
#
# Elastic Compliance Matrix: (Units=1/GPa)
#
#
# Indices 1 2 3 4 5 6 
#
# 1 0.014253 -0.012616 -0.001032 0.000000 -0.002953 0.000000
# 2 -0.012616 0.042872 -0.002952 0.000000 -0.003985 0.000000
# 3 -0.001032 -0.002952 0.013637 0.000000 -0.001099 0.000000
# 4 0.000000 0.000000 0.000000 0.070979 0.000000 0.002969
# 5 -0.002953 -0.003985 -0.001099 0.000000 0.059431 0.000000
# 6 0.000000 0.000000 0.000000 0.002969 0.000000 0.038443
#
#
# Mechanical properties :
#
#
# Convention : Reuss Voigt Hill
#
# Bulk Modulus (GPa) = 26.62263 35.92008 31.27136
# Shear Modulus (GPa) = 17.52325 21.86086 19.69206
#
# Velocity S-wave (km/s) = 3.04571 3.40184 3.22869
# Velocity P-wave (km/s) = 5.14409 5.86900 5.51846
#
# Compressibility (1/GPa) = 0.03756203
#
# Stress axis : x y z
#
# Youngs Moduli (GPa) = 70.15848 23.32543 73.33098
#
# Poissons Ratio (x) = 0.29427 0.07569
# Poissons Ratio (y) = 0.88511 0.21647
# Poissons Ratio (z) = 0.07241 0.06885
#
# Static dielectric constant tensor:
#      x y z
#    x 1.658360 0.000000 0.004370 
#    y 0.000000 1.649670 0.000000 
#    z 0.004370 0.000000 1.684820 
# 
# From -- ./inp_files/138231.got.cif
#   From: 2010.05.17/outbox.cif.g08.bks.cpg/sg15_70_cif.got.tgz:138231.got - 2010.06.03 18:47:42.
