data_PCOD9282648
_publ_section_title
;
Structure prediction by ZEFSAII (Michael W. Deem and Ramdas Pophale) SiO2 
 PCOD9282648
Probable space group: C 2/C
;
_chemical_formula_sum "Si O2"
_cell_formula_units_Z 44
_cell_length_a 13.383932
_cell_length_b 6.458147
_cell_length_c 26.079903
_cell_angle_alpha 90.000000
_cell_angle_beta 117.134128
_cell_angle_gamma 90.000000
_cell_volume 2006.129585
_symmetry_space_group_name_H-M "C 2/C"
_symmetry_group_IT_number 15
_symmetry_cell_setting 'monoclinic'
loop_
_space_group_symop_operation_xyz
x,y,z
-x,y,1/2-z
-x,-y,-z
x,-y,1/2+z
1/2+x,1/2+y,z
1/2-x,1/2+y,1/2-z
1/2-x,1/2-y,-z
1/2+x,1/2-y,1/2+z
loop_
_atom_site_type_symbol
_atom_site_label
_atom_site_fract_x
_atom_site_fract_y
_atom_site_fract_z
Si Si1 0.760559 0.586257 0.681449
Si Si2 0.936685 0.172649 0.551523
Si Si3 0.263525 0.330540 0.927380
Si Si4 0.000000 0.705691 0.750000
Si Si5 0.134180 0.469100 0.612938
Si Si6 0.546595 0.648687 0.154904
O O1 0.759650 0.482420 0.624947
O O2 0.886094 0.578484 0.731643
O O3 0.667430 0.460719 0.691199
O O4 0.716155 0.819034 0.663728
O O5 0.844410 0.301628 0.562317
O O6 0.869728 0.097843 0.486011
O O7 0.041455 0.322032 0.565124
O O8 0.981340 0.989416 0.598119
O O9 0.298573 0.109392 0.911523
O O10 0.015499 0.834560 0.805657
O O11 0.070911 0.628867 0.635665
#
# Coordination Sequence:
#
# PCOD9282648 Si02
#       6
#     8   8   8   4   8   8
#     4  10  24  42  63  96 124 166 220 262 323 382
#     4  10  21  39  63  94 129 165 207 259 320 389
#     4  10  21  39  63  94 129 165 207 259 320 389
#     4  12  24  44  68  86 128 174 212 274 318 366
#     4  10  21  40  62  92 126 162 211 262 318 388
#     4  10  24  42  63  96 124 166 220 262 323 382
#
# _framework density 21.932782
#
# number of rings (size 3 to 8) (size 9 to 14) (size 15 to 20)
#    0.000    1.818    0.000    2.727    2.545    8.000 
#    0.000   11.818    0.000    0.000    0.000    0.000 
#    0.000    0.000    0.000    0.000    0.000    0.000 
#
# Total GULP energy -123073.572388 kJ/mol
# GULP energy per Si atom -5594.253290 kJ/mol
# Density = 2.188286 g / cm^3
# Si number density = 21.932782 Si / 1000 Ang^3
#
#
#
# Elastic Constant Matrix: (Units=GPa)
#
#
# Indices 1 2 3 4 5 6 
#
# 1 52.6647 6.2182 6.0584 0.0000 21.2626 0.0000
# 2 6.2182 80.6474 25.2324 0.0000 14.7683 0.0000
# 3 6.0584 25.2324 69.1448 0.0000 20.2193 0.0000
# 4 0.0000 0.0000 0.0000 -1.1256 0.0000 9.4936
# 5 21.2626 14.7683 20.2193 0.0000 41.4761 0.0000
# 6 0.0000 0.0000 0.0000 9.4936 0.0000 13.7833
#
#
#
# Elastic Compliance Matrix: (Units=1/GPa)
#
#
# Indices 1 2 3 4 5 6 
#
# 1 0.024125 0.000015 0.001748 0.000000 -0.013225 0.000000
# 2 0.000015 0.014305 -0.004350 0.000000 -0.002981 0.000000
# 3 0.001748 -0.004350 0.018317 0.000000 -0.008277 0.000000
# 4 0.000000 0.000000 0.000000 -0.130472 0.000000 0.089866
# 5 -0.013225 -0.002981 -0.008277 0.000000 0.035986 0.000000
# 6 0.000000 0.000000 0.000000 0.089866 0.000000 0.010654
#
#
# Mechanical properties :
#
#
# Convention : Reuss Voigt Hill
#
# Bulk Modulus (GPa) = 19.39025 30.83055 25.11040
# Shear Modulus (GPa) = -1059.43859 21.82330 -518.80765
#
# Velocity S-wave (km/s) = -22.00199 3.15780 -15.39668
# Velocity P-wave (km/s) = 25.23074 5.23287 17.45290
#
# Compressibility (1/GPa) = 0.05157231
#
# Stress axis : x y z
#
# Youngs Moduli (GPa) = 41.45160 69.90394 54.59441
#
# Poissons Ratio (x) = -0.00103 -0.09543
# Poissons Ratio (y) = -0.00061 0.23749
# Poissons Ratio (z) = -0.07246 0.30408
#
# Static dielectric constant tensor:
#      x y z
#    x 1.799750 0.000000 -0.002510 
#    y 0.000000 1.762000 0.000000 
#    z -0.002510 0.000000 1.835780 
# 
# From -- ./inp_files/260418.got.cif
#   From: 2010.05.17/outbox.cif.g08.bks.cpg/sg15_131_cif.got.tgz:260418.got - 2010.06.03 18:47:42.
