data_PCOD9282340
_publ_section_title
;
Structure prediction by ZEFSAII (Michael W. Deem and Ramdas Pophale) SiO2 
 PCOD9282340
Probable space group: C 2/C
;
_chemical_formula_sum "Si O2"
_cell_formula_units_Z 28
_cell_length_a 17.643234
_cell_length_b 8.283780
_cell_length_c 11.714005
_cell_angle_alpha 90.000000
_cell_angle_beta 46.881943
_cell_angle_gamma 90.000000
_cell_volume 1249.693257
_symmetry_space_group_name_H-M "C 2/C"
_symmetry_group_IT_number 15
_symmetry_cell_setting 'monoclinic'
loop_
_space_group_symop_operation_xyz
x,y,z
-x,y,1/2-z
-x,-y,-z
x,-y,1/2+z
1/2+x,1/2+y,z
1/2-x,1/2+y,1/2-z
1/2-x,1/2-y,-z
1/2+x,1/2-y,1/2+z
loop_
_atom_site_type_symbol
_atom_site_label
_atom_site_fract_x
_atom_site_fract_y
_atom_site_fract_z
Si Si1 0.000000 0.220424 0.250000
Si Si2 0.815126 0.972963 0.428694
Si Si3 0.272674 0.767861 0.789319
Si Si4 0.860110 0.410917 0.255014
O O1 0.031635 0.333703 0.323175
O O2 0.097601 0.102396 0.134954
O O3 0.811461 0.836054 0.531529
O O4 0.825239 0.884932 0.297382
O O5 0.701847 0.052089 0.563169
O O6 0.211496 0.712213 0.741861
O O7 0.351726 0.917708 0.699175
#
# Coordination Sequence:
#
# PCOD9282340 Si02
#       4
#     4   8   8   8
#     4  12  22  36  64  92 122 154 204 242 294 356
#     4   9  22  41  62  85 125 156 198 248 294 352
#     4   9  20  43  63  80 125 159 194 245 303 344
#     4  10  21  39  61  89 118 160 195 246 296 350
#
# _framework density 22.405497
#
# number of rings (size 3 to 8) (size 9 to 14) (size 15 to 20)
#    1.714    0.571    0.000    2.571    0.000    2.286 
#    0.000    2.857    0.000    0.000    0.000    0.000 
#    0.000    0.000    0.000    0.000    0.000    0.000 
#
# Total GULP energy -78014.616240 kJ/mol
# GULP energy per Si atom -5572.472589 kJ/mol
# Density = 2.235450 g / cm^3
# Si number density = 22.405497 Si / 1000 Ang^3
#
#
#
# Elastic Constant Matrix: (Units=GPa)
#
#
# Indices 1 2 3 4 5 6 
#
# 1 140.0183 87.9242 10.5660 0.0000 -10.4317 0.0000
# 2 87.9242 140.1393 15.8701 -0.0001 -10.8460 0.0001
# 3 10.5660 15.8701 33.4042 0.0000 -9.1454 0.0000
# 4 0.0000 -0.0001 0.0000 33.8694 0.0000 -24.7789
# 5 -10.4317 -10.8460 -9.1454 0.0000 20.8903 0.0000
# 6 0.0000 0.0001 0.0000 -24.7789 0.0000 91.1245
#
#
#
# Elastic Compliance Matrix: (Units=1/GPa)
#
#
# Indices 1 2 3 4 5 6 
#
# 1 0.011880 -0.007316 0.000343 0.000000 0.002284 0.000000
# 2 -0.007316 0.012180 -0.003115 0.000000 0.001307 0.000000
# 3 0.000343 -0.003115 0.035121 0.000000 0.013930 0.000000
# 4 0.000000 0.000000 0.000000 0.036858 0.000000 0.010022
# 5 0.002284 0.001307 0.013930 0.000000 0.055786 0.000000
# 6 0.000000 0.000000 0.000000 0.010022 0.000000 0.013699
#
#
# Mechanical properties :
#
#
# Convention : Reuss Voigt Hill
#
# Bulk Modulus (GPa) = 25.63656 60.25361 42.94509
# Shear Modulus (GPa) = 25.16349 42.45695 33.81022
#
# Velocity S-wave (km/s) = 3.35490 4.35781 3.88882
# Velocity P-wave (km/s) = 5.14529 7.22989 6.27477
#
# Compressibility (1/GPa) = 0.03900680
#
# Stress axis : x y z
#
# Youngs Moduli (GPa) = 84.17433 82.10496 28.47282
#
# Poissons Ratio (x) = 0.60066 -0.00977
# Poissons Ratio (y) = 0.61580 0.08868
# Poissons Ratio (z) = -0.02890 0.25573
#
# Static dielectric constant tensor:
#      x y z
#    x 1.796650 0.000000 0.038820 
#    y 0.000000 1.899220 0.000000 
#    z 0.038820 0.000000 1.831900 
# 
# From -- ./inp_files/92991.got.cif
#   From: 2010.05.17/outbox.cif.g08.bks.cpg/sg15_47_cif.got.tgz:92991.got - 2010.06.03 18:47:42.
