data_PCOD9282331
_publ_section_title
;
Structure prediction by ZEFSAII (Michael W. Deem and Ramdas Pophale) SiO2 
 PCOD9282331
Probable space group: C 2/C
;
_chemical_formula_sum "Si O2"
_cell_formula_units_Z 48
_cell_length_a 21.987034
_cell_length_b 8.633010
_cell_length_c 19.900447
_cell_angle_alpha 90.000000
_cell_angle_beta 153.824510
_cell_angle_gamma 90.000000
_cell_volume 1666.289373
_symmetry_space_group_name_H-M "C 2/C"
_symmetry_group_IT_number 15
_symmetry_cell_setting 'monoclinic'
loop_
_space_group_symop_operation_xyz
x,y,z
-x,y,1/2-z
-x,-y,-z
x,-y,1/2+z
1/2+x,1/2+y,z
1/2-x,1/2+y,1/2-z
1/2-x,1/2-y,-z
1/2+x,1/2-y,1/2+z
loop_
_atom_site_type_symbol
_atom_site_label
_atom_site_fract_x
_atom_site_fract_y
_atom_site_fract_z
Si Si1 0.911363 0.793101 0.346557
Si Si2 0.500000 0.610453 0.250000
Si Si3 0.678910 0.813344 0.575033
Si Si4 0.089952 0.370700 0.232608
Si Si5 0.270299 0.415088 0.071042
Si Si6 0.500000 0.882822 0.750000
Si Si7 0.694493 0.564858 0.169631
O O1 0.857202 0.846591 0.219601
O O2 0.842107 0.621912 0.285629
O O3 0.072724 0.838490 0.512249
O O4 0.849990 0.891513 0.350255
O O5 0.536491 0.722851 0.224438
O O6 0.370897 0.496544 0.117934
O O7 0.749001 0.652169 0.623275
O O8 0.521007 0.848633 0.437329
O O9 0.787015 0.871396 0.736619
O O10 0.696416 0.931876 0.530050
O O11 0.067034 0.515260 0.257606
O O12 0.138933 0.311817 0.918574
#
# Coordination Sequence:
#
# PCOD9282331 Si02
#       7
#     8   4   8   8   8   4   8
#     4  10  22  40  62  88 119 154 195 242 293 348
#     4   9  16  28  48  75 110 148 184 226 280 338
#     4   9  16  27  47  77 110 141 179 231 290 341
#     4   9  15  24  44  76 110 143 179 229 290 340
#     4   9  18  32  51  77 108 144 187 235 282 333
#     4   9  16  28  46  73 110 144 186 238 280 332
#     4  10  21  39  61  88 121 154 193 242 291 348
#
# _framework density 28.806522000000001
#
# number of rings (size 3 to 8) (size 9 to 14) (size 15 to 20)
#    0.000    2.667    0.000    2.000    0.000    6.000 
#    0.000    1.667    0.000    3.000    0.000    0.000 
#    0.000    1.333    0.000    0.000    0.000    0.667 
#
# Total GULP energy -133999.363084 kJ/mol
# GULP energy per Si atom -5583.306795 kJ/mol
# Density = 2.874096 g / cm^3
# Si number density = 28.806522 Si / 1000 Ang^3
#
#
#
# Elastic Constant Matrix: (Units=GPa)
#
#
# Indices 1 2 3 4 5 6 
#
# 1 91.7715 -13.2753 40.0845 0.0000 8.4218 0.0000
# 2 -13.2753 88.3217 28.1493 0.0000 3.8876 0.0000
# 3 40.0845 28.1493 228.0195 0.0001 -5.4381 0.0000
# 4 0.0000 0.0000 0.0001 -23.4145 0.0000 48.4628
# 5 8.4218 3.8876 -5.4381 0.0000 43.3357 0.0000
# 6 0.0000 0.0000 0.0000 48.4628 0.0000 6.9752
#
#
#
# Elastic Compliance Matrix: (Units=1/GPa)
#
#
# Indices 1 2 3 4 5 6 
#
# 1 0.012769 0.002908 -0.002677 0.000000 -0.003078 0.000000
# 2 0.002908 0.012515 -0.002103 0.000000 -0.001952 0.000000
# 3 -0.002677 -0.002103 0.005148 0.000000 0.001355 0.000000
# 4 0.000000 0.000000 0.000000 -0.002777 0.000000 0.019293
# 5 -0.003078 -0.001952 0.001355 0.000000 0.024019 0.000000
# 6 0.000000 0.000000 0.000000 0.019293 0.000000 0.009321
#
#
# Mechanical properties :
#
#
# Convention : Reuss Voigt Hill
#
# Bulk Modulus (GPa) = 37.46887 57.55885 47.51386
# Shear Modulus (GPa) = 67.90132 28.92290 48.41211
#
# Velocity S-wave (km/s) = 4.86032 3.17210 4.10395
# Velocity P-wave (km/s) = 6.67325 5.78280 6.24392
#
# Compressibility (1/GPa) = 0.02668882
#
# Stress axis : x y z
#
# Youngs Moduli (GPa) = 78.31387 79.90130 194.24553
#
# Poissons Ratio (x) = -0.23235 0.52002
# Poissons Ratio (y) = -0.22774 0.40846
# Poissons Ratio (z) = 0.20966 0.16802
#
# Static dielectric constant tensor:
#      x y z
#    x 2.413420 0.000000 0.000660 
#    y 0.000000 2.386460 0.000000 
#    z 0.000660 0.000000 2.330990 
# 
# From -- ./inp_files/60698.got.cif
#   From: 2010.05.17/outbox.cif.g08.bks.cpg/sg15_31_cif.got.tgz:60698.got - 2010.06.03 18:47:42.
