data_PCOD9282906
_publ_section_title
;
Structure prediction by ZEFSAII (Michael W. Deem and Ramdas Pophale) SiO2 
 PCOD9282906
Probable space group: C 2/C
;
_chemical_formula_sum "Si O2"
_cell_formula_units_Z 48
_cell_length_a 5.004417
_cell_length_b 17.749988
_cell_length_c 24.808293
_cell_angle_alpha 90.000000
_cell_angle_beta 75.841803
_cell_angle_gamma 90.000000
_cell_volume 2136.740708
_symmetry_space_group_name_H-M "C 2/C"
_symmetry_group_IT_number 15
_symmetry_cell_setting 'monoclinic'
loop_
_space_group_symop_operation_xyz
x,y,z
-x,y,1/2-z
-x,-y,-z
x,-y,1/2+z
1/2+x,1/2+y,z
1/2-x,1/2+y,1/2-z
1/2-x,1/2-y,-z
1/2+x,1/2-y,1/2+z
loop_
_atom_site_type_symbol
_atom_site_label
_atom_site_fract_x
_atom_site_fract_y
_atom_site_fract_z
Si Si1 0.270904 0.803342 0.596046
Si Si2 0.026896 0.076963 0.186905
Si Si3 0.786384 0.280807 0.060135
Si Si4 0.271951 0.061082 0.023849
Si Si5 0.958001 0.073891 0.580476
Si Si6 0.465428 0.973705 0.313455
O O1 0.118337 0.851684 0.648392
O O2 0.531987 0.758506 0.603697
O O3 0.380327 0.868793 0.551046
O O4 0.066975 0.749601 0.572227
O O5 0.248344 0.006487 0.176600
O O6 0.000000 0.099391 0.250000
O O7 0.731109 0.046017 0.184037
O O8 0.713507 0.368667 0.073328
O O9 0.750000 0.250000 0.000000
O O10 0.147558 0.090244 0.974565
O O11 0.051796 0.013559 0.069662
O O12 0.500000 0.000000 0.000000
O O13 0.714622 0.077682 0.636730
O O14 0.500000 0.943477 0.250000
#
# Coordination Sequence:
#
# PCOD9282906 Si02
#       6
#     8   8   8   8   8   8
#     4  12  24  42  64  93 128 169 217 256 327 393
#     4  10  21  40  67  95 124 160 219 274 323 377
#     4  12  26  42  60  92 138 175 206 260 335 396
#     4  11  23  37  66  93 128 166 221 271 312 387
#     4  11  24  39  61  97 128 170 216 268 325 387
#     4  10  21  39  65  95 125 162 213 278 328 381
#
# _framework density 22.464120000000001
#
# number of rings (size 3 to 8) (size 9 to 14) (size 15 to 20)
#    0.000    1.000    3.333    3.500    4.667    0.000 
#    0.000    0.833    0.000    0.000    0.000    0.000 
#    0.000    0.000    0.000    0.000    0.000    0.000 
#
# Total GULP energy -134164.912599 kJ/mol
# GULP energy per Si atom -5590.204692 kJ/mol
# Density = 2.241299 g / cm^3
# Si number density = 22.464120 Si / 1000 Ang^3
#
#
#
# Elastic Constant Matrix: (Units=GPa)
#
#
# Indices 1 2 3 4 5 6 
#
# 1 66.8180 13.4621 -1.1010 0.0000 -12.5589 0.0000
# 2 13.4621 101.2315 30.0537 0.0000 -8.2743 0.0000
# 3 -1.1010 30.0537 125.7961 0.0000 -11.7915 0.0000
# 4 0.0000 0.0000 0.0000 29.9596 0.0000 -15.0404
# 5 -12.5589 -8.2743 -11.7915 0.0000 29.1118 0.0000
# 6 0.0000 0.0000 0.0000 -15.0404 0.0000 41.1788
#
#
#
# Elastic Compliance Matrix: (Units=1/GPa)
#
#
# Indices 1 2 3 4 5 6 
#
# 1 0.016745 -0.002027 0.001303 0.000000 0.007175 0.000000
# 2 -0.002027 0.010999 -0.002531 0.000000 0.001227 0.000000
# 3 0.001303 -0.002531 0.008888 0.000000 0.003443 0.000000
# 4 0.000000 0.000000 0.000000 0.040873 0.000000 0.014929
# 5 0.007175 0.001227 0.003443 0.000000 0.039189 0.000000
# 6 0.000000 0.000000 0.000000 0.014929 0.000000 0.029737
#
#
# Mechanical properties :
#
#
# Convention : Reuss Voigt Hill
#
# Bulk Modulus (GPa) = 33.19674 42.07502 37.63588
# Shear Modulus (GPa) = 30.67842 36.81209 33.74525
#
# Velocity S-wave (km/s) = 3.69950 4.05248 3.88001
# Velocity P-wave (km/s) = 5.74962 6.37710 6.07147
#
# Compressibility (1/GPa) = 0.03012344
#
# Stress axis : x y z
#
# Youngs Moduli (GPa) = 59.72066 90.91328 112.50998
#
# Poissons Ratio (x) = 0.18430 -0.14665
# Poissons Ratio (y) = 0.12107 0.28472
# Poissons Ratio (z) = -0.07784 0.23007
#
# Static dielectric constant tensor:
#      x y z
#    x 1.865240 0.000000 -0.039300 
#    y 0.000000 1.842570 0.000000 
#    z -0.039300 0.000000 1.923720 
# 
# From -- ./inp_files/260900.got.cif
#   From: 2010.05.17/outbox.cif.g08.bks.cpg/sg15_131_cif.got.tgz:260900.got - 2010.06.03 18:47:42.
