data_PCOD9282277
_publ_section_title
;
Structure prediction by ZEFSAII (Michael W. Deem and Ramdas Pophale) SiO2 
 PCOD9282277
Probable space group: C 2/C
;
_chemical_formula_sum "Si O2"
_cell_formula_units_Z 64
_cell_length_a 29.899668
_cell_length_b 8.407794
_cell_length_c 14.352032
_cell_angle_alpha 90.000000
_cell_angle_beta 50.108400
_cell_angle_gamma 90.000000
_cell_volume 2768.241141
_symmetry_space_group_name_H-M "C 2/C"
_symmetry_group_IT_number 15
_symmetry_cell_setting 'monoclinic'
loop_
_space_group_symop_operation_xyz
x,y,z
-x,y,1/2-z
-x,-y,-z
x,-y,1/2+z
1/2+x,1/2+y,z
1/2-x,1/2+y,1/2-z
1/2-x,1/2-y,-z
1/2+x,1/2-y,1/2+z
loop_
_atom_site_type_symbol
_atom_site_label
_atom_site_fract_x
_atom_site_fract_y
_atom_site_fract_z
Si Si1 0.681090 0.172122 0.836061
Si Si2 0.696871 0.637681 0.485121
Si Si3 0.799355 0.437515 0.388865
Si Si4 0.908584 0.905708 0.642387
Si Si5 0.036374 0.762280 0.451189
Si Si6 0.858233 0.825371 0.913367
Si Si7 0.087938 0.562273 0.538069
Si Si8 0.405344 0.858820 0.801239
O O1 0.712279 0.122546 0.699794
O O2 0.633336 0.302770 0.867519
O O3 0.716674 0.255784 0.871243
O O4 0.647682 0.017462 0.920535
O O5 0.751027 0.571736 0.473671
O O6 0.665535 0.473751 0.498384
O O7 0.644551 0.732671 0.604127
O O8 0.806666 0.296092 0.452626
O O9 0.865005 0.510010 0.302892
O O10 0.884302 0.887961 0.780359
O O11 0.972108 0.825986 0.554413
O O12 0.918709 0.088519 0.598655
O O13 0.049905 0.617038 0.502240
O O14 0.047062 0.707243 0.331632
O O15 0.901771 0.721703 0.916081
O O16 0.068416 0.433705 0.640349
#
# Coordination Sequence:
#
# PCOD9282277 Si02
#       8
#     8   8   8   8   8   8   8   8
#     4  10  22  41  57  93 130 157 219 265 313 397
#     4  11  21  38  64  90 124 167 208 264 324 381
#     4  10  21  39  60  91 125 166 210 265 327 385
#     4  10  23  41  65  92 124 173 214 262 326 389
#     4  11  21  43  68  89 131 175 212 264 333 384
#     4  10  21  40  60  90 130 160 217 269 316 387
#     4  10  22  39  64  92 127 169 211 264 324 382
#     4  10  21  41  64  95 130 162 215 273 316 390
#
# _framework density 23.119373
#
# number of rings (size 3 to 8) (size 9 to 14) (size 15 to 20)
#    0.000    1.750    2.500    1.500    0.000    2.000 
#    4.500    4.375    0.000    0.000    0.000    0.000 
#    0.000    0.000    0.000    0.000    0.000    0.000 
#
# Total GULP energy -178807.745146 kJ/mol
# GULP energy per Si atom -5587.742036 kJ/mol
# Density = 2.306675 g / cm^3
# Si number density = 23.119373 Si / 1000 Ang^3
#
#
#
# Elastic Constant Matrix: (Units=GPa)
#
#
# Indices 1 2 3 4 5 6 
#
# 1 50.9036 26.4524 33.5887 0.0000 11.1231 0.0001
# 2 26.4524 97.0306 30.5895 0.0000 7.4627 0.0002
# 3 33.5887 30.5895 65.5612 0.0000 12.8614 0.0000
# 4 0.0000 0.0000 0.0000 29.5849 0.0000 8.7354
# 5 11.1231 7.4627 12.8614 0.0000 30.8329 0.0000
# 6 0.0001 0.0002 0.0000 8.7354 0.0000 37.2004
#
#
#
# Elastic Compliance Matrix: (Units=1/GPa)
#
#
# Indices 1 2 3 4 5 6 
#
# 1 0.031622 -0.004033 -0.013366 0.000000 -0.004856 0.000000
# 2 -0.004033 0.012609 -0.003816 0.000000 -0.000005 0.000000
# 3 -0.013366 -0.003816 0.024782 0.000000 -0.004592 0.000000
# 4 0.000000 0.000000 0.000000 0.036319 0.000000 -0.008528
# 5 -0.004856 -0.000005 -0.004592 0.000000 0.036101 0.000000
# 6 0.000000 0.000000 0.000000 -0.008528 0.000000 0.028884
#
#
# Mechanical properties :
#
#
# Convention : Reuss Voigt Hill
#
# Bulk Modulus (GPa) = 37.61926 43.86186 40.74056
# Shear Modulus (GPa) = 22.56235 27.71461 25.13848
#
# Velocity S-wave (km/s) = 3.12734 3.46607 3.30105
# Velocity P-wave (km/s) = 5.41733 5.91872 5.67357
#
# Compressibility (1/GPa) = 0.02658213
#
# Stress axis : x y z
#
# Youngs Moduli (GPa) = 31.62390 79.30889 40.35219
#
# Poissons Ratio (x) = 0.31989 0.53935
# Poissons Ratio (y) = 0.12755 0.15397
# Poissons Ratio (z) = 0.42269 0.30261
#
# Static dielectric constant tensor:
#      x y z
#    x 1.875410 0.000000 -0.014910 
#    y 0.000000 1.914420 0.000000 
#    z -0.014910 0.000000 1.839560 
# 
# From -- ./inp_files/181127.got.cif
#   From: 2010.05.17/outbox.cif.g08.bks.cpg/sg15_91_cif.got.tgz:181127.got - 2010.06.03 18:47:42.
