data_PCOD9282372
_publ_section_title
;
Structure prediction by ZEFSAII (Michael W. Deem and Ramdas Pophale) SiO2 
 PCOD9282372
Probable space group: C 2/C
;
_chemical_formula_sum "Si O2"
_cell_formula_units_Z 56
_cell_length_a 10.449592
_cell_length_b 19.293733
_cell_length_c 11.941409
_cell_angle_alpha 90.000000
_cell_angle_beta 88.646353
_cell_angle_gamma 90.000000
_cell_volume 2406.855157
_symmetry_space_group_name_H-M "C 2/C"
_symmetry_group_IT_number 15
_symmetry_cell_setting 'monoclinic'
loop_
_space_group_symop_operation_xyz
x,y,z
-x,y,1/2-z
-x,-y,-z
x,-y,1/2+z
1/2+x,1/2+y,z
1/2-x,1/2+y,1/2-z
1/2-x,1/2-y,-z
1/2+x,1/2-y,1/2+z
loop_
_atom_site_type_symbol
_atom_site_label
_atom_site_fract_x
_atom_site_fract_y
_atom_site_fract_z
Si Si1 0.617467 0.053074 0.168233
Si Si2 0.269519 0.089508 0.793693
Si Si3 0.571333 0.625519 0.472532
Si Si4 0.317092 0.955333 0.064197
Si Si5 0.785664 0.177242 0.236145
Si Si6 0.218549 0.894150 0.535152
Si Si7 0.119128 0.201213 0.686035
O O1 0.500000 0.035705 0.250000
O O2 0.671056 0.127196 0.198782
O O3 0.724740 0.992371 0.177231
O O4 0.583277 0.054188 0.038001
O O5 0.351697 0.086337 0.676390
O O6 0.144450 0.127870 0.748355
O O7 0.288847 0.122838 0.916036
O O8 0.686537 0.577210 0.514510
O O9 0.599657 0.650089 0.345358
O O10 0.431595 0.592509 0.488433
O O11 0.584537 0.689734 0.558119
O O12 0.282474 0.036042 0.083191
O O13 0.789744 0.163939 0.368604
O O14 0.746004 0.254434 0.204262
O O15 0.000000 0.235787 0.750000
#
# Coordination Sequence:
#
# PCOD9282372 Si02
#       7
#     8   8   8   8   8   8   8
#     4  10  21  40  62  89 123 167 210 253 312 375
#     4  10  21  40  60  93 123 160 211 258 313 372
#     4  10  21  39  61  92 124 166 208 259 316 373
#     4   9  20  36  62  91 126 159 207 263 306 380
#     4  11  23  39  62  93 127 162 213 258 308 380
#     4  11  20  38  61  94 130 160 205 265 316 365
#     4  11  22  42  66  87 123 169 210 256 318 379
#
# _framework density 23.266874000000001
#
# number of rings (size 3 to 8) (size 9 to 14) (size 15 to 20)
#    0.000    1.714    2.857    1.714    0.000    1.143 
#    2.571    1.429    0.000    0.000    0.000    0.000 
#    0.000    0.000    0.000    0.000    0.000    0.000 
#
# Total GULP energy -156004.820324 kJ/mol
# GULP energy per Si atom -5571.600726 kJ/mol
# Density = 2.321392 g / cm^3
# Si number density = 23.266874 Si / 1000 Ang^3
#
#
#
# Elastic Constant Matrix: (Units=GPa)
#
#
# Indices 1 2 3 4 5 6 
#
# 1 61.0291 23.4667 21.0226 0.0000 -4.8422 0.0000
# 2 23.4667 52.1660 27.0427 0.0000 -5.9575 0.0000
# 3 21.0226 27.0427 211.5526 0.0000 -6.3317 0.0000
# 4 0.0000 0.0000 0.0000 17.5081 0.0000 5.7182
# 5 -4.8422 -5.9575 -6.3317 0.0000 28.8780 0.0000
# 6 0.0000 0.0000 0.0000 5.7182 0.0000 24.3934
#
#
#
# Elastic Compliance Matrix: (Units=1/GPa)
#
#
# Indices 1 2 3 4 5 6 
#
# 1 0.020028 -0.008392 -0.000874 0.000000 0.001435 0.000000
# 2 -0.008392 0.024443 -0.002196 0.000000 0.003154 0.000000
# 3 -0.000874 -0.002196 0.005110 0.000000 0.000521 0.000000
# 4 0.000000 0.000000 0.000000 0.061852 0.000000 -0.014499
# 5 0.001435 0.003154 0.000521 0.000000 0.035634 0.000000
# 6 0.000000 0.000000 0.000000 -0.014499 0.000000 0.044394
#
#
# Mechanical properties :
#
#
# Convention : Reuss Voigt Hill
#
# Bulk Modulus (GPa) = 37.51563 51.97907 44.74735
# Shear Modulus (GPa) = 22.39423 31.03692 26.71558
#
# Velocity S-wave (km/s) = 3.10577 3.65629 3.39222
# Velocity P-wave (km/s) = 5.38704 6.34141 5.88361
#
# Compressibility (1/GPa) = 0.02665556
#
# Stress axis : x y z
#
# Youngs Moduli (GPa) = 49.93095 40.91068 195.68757
#
# Poissons Ratio (x) = 0.34333 0.17113
# Poissons Ratio (y) = 0.41903 0.42978
# Poissons Ratio (z) = 0.04366 0.08985
#
# Static dielectric constant tensor:
#      x y z
#    x 1.890220 0.000000 0.002310 
#    y 0.000000 1.849120 0.000000 
#    z 0.002310 0.000000 1.970560 
# 
# From -- ./inp_files/88892.got.cif
#   From: 2010.05.17/outbox.cif.g08.bks.cpg/sg15_45_cif.got.tgz:88892.got - 2010.06.03 18:47:42.
