data_PCOD9282976
_publ_section_title
;
Structure prediction by ZEFSAII (Michael W. Deem and Ramdas Pophale) SiO2 
 PCOD9282976
Probable space group: C 2/C
;
_chemical_formula_sum "Si O2"
_cell_formula_units_Z 60
_cell_length_a 18.104172
_cell_length_b 9.019717
_cell_length_c 20.270545
_cell_angle_alpha 90.000000
_cell_angle_beta 117.228126
_cell_angle_gamma 90.000000
_cell_volume 2943.286188
_symmetry_space_group_name_H-M "C 2/C"
_symmetry_group_IT_number 15
_symmetry_cell_setting 'monoclinic'
loop_
_space_group_symop_operation_xyz
x,y,z
-x,y,1/2-z
-x,-y,-z
x,-y,1/2+z
1/2+x,1/2+y,z
1/2-x,1/2+y,1/2-z
1/2-x,1/2-y,-z
1/2+x,1/2-y,1/2+z
loop_
_atom_site_type_symbol
_atom_site_label
_atom_site_fract_x
_atom_site_fract_y
_atom_site_fract_z
Si Si1 0.500000 0.676137 0.750000
Si Si2 0.230257 0.030990 0.647760
Si Si3 0.821234 0.344253 0.065288
Si Si4 0.550749 0.355005 0.033462
Si Si5 0.767344 0.819071 0.739548
Si Si6 0.910055 0.888429 0.693472
Si Si7 0.971244 0.579577 0.555047
Si Si8 0.926142 0.645296 0.337575
O O1 0.436353 0.559005 0.689041
O O2 0.553055 0.778339 0.722978
O O3 0.292259 0.046780 0.612014
O O4 0.145721 0.095997 0.582563
O O5 0.261959 0.145846 0.717458
O O6 0.217211 0.875500 0.679613
O O7 0.874506 0.215154 0.122259
O O8 0.875772 0.439598 0.036868
O O9 0.750000 0.250000 0.000000
O O10 0.534588 0.258473 0.092532
O O11 0.500000 0.500000 0.000000
O O12 0.527934 0.251047 0.962841
O O13 0.840231 0.885618 0.722881
O O14 0.671638 0.868095 0.687264
O O15 0.000000 0.822996 0.750000
O O16 0.000000 0.500000 0.500000
O O17 0.029493 0.512357 0.634996
#
# Coordination Sequence:
#
# PCOD9282976 Si02
#       8
#     4   8   8   8   8   8   8   8
#     4  10  22  42  60  96 130 170 214 276 320 398
#     4  10  22  38  64  91 128 169 215 266 333 389
#     4  11  22  40  67  94 133 175 222 274 336 397
#     4  10  21  39  66  90 120 171 216 262 318 398
#     4  10  21  41  61  95 129 165 212 274 329 387
#     4   9  22  39  67  94 128 167 230 272 321 389
#     4  10  23  41  62  92 130 169 213 270 333 394
#     4  10  23  39  66  92 135 167 208 274 339 381
#
# _framework density 20.385377999999999
#
# number of rings (size 3 to 8) (size 9 to 14) (size 15 to 20)
#    0.400    1.600    1.333    1.600    5.600    3.200 
#    0.000    0.000    0.000    2.400    0.000    0.000 
#    0.000    0.000    0.000    0.000    0.000    0.000 
#
# Total GULP energy -167029.860116 kJ/mol
# GULP energy per Si atom -5567.662004 kJ/mol
# Density = 2.033898 g / cm^3
# Si number density = 20.385378 Si / 1000 Ang^3
#
#
#
# Elastic Constant Matrix: (Units=GPa)
#
#
# Indices 1 2 3 4 5 6 
#
# 1 139.8358 39.3602 44.4034 0.0000 -10.8187 0.0000
# 2 39.3602 61.0247 36.0242 0.0000 -1.7461 0.0000
# 3 44.4034 36.0242 64.4000 0.0000 3.5429 0.0000
# 4 0.0000 0.0000 0.0000 38.2994 0.0000 3.9601
# 5 -10.8187 -1.7461 3.5429 0.0000 36.7118 0.0000
# 6 0.0000 0.0000 0.0000 3.9601 0.0000 21.6725
#
#
#
# Elastic Compliance Matrix: (Units=1/GPa)
#
#
# Indices 1 2 3 4 5 6 
#
# 1 0.009988 -0.003248 -0.005251 0.000000 0.003296 0.000000
# 2 -0.003248 0.025752 -0.012245 0.000000 0.001449 0.000000
# 3 -0.005251 -0.012245 0.026255 0.000000 -0.004664 0.000000
# 4 0.000000 0.000000 0.000000 0.026613 0.000000 -0.004863
# 5 0.003296 0.001449 -0.004664 0.000000 0.028729 0.000000
# 6 0.000000 0.000000 0.000000 -0.004863 0.000000 0.047030
#
#
# Mechanical properties :
#
#
# Convention : Reuss Voigt Hill
#
# Bulk Modulus (GPa) = 48.76657 56.09292 52.42975
# Shear Modulus (GPa) = 23.50827 29.03492 26.27159
#
# Velocity S-wave (km/s) = 3.39955 3.77809 3.59381
# Velocity P-wave (km/s) = 6.27563 6.82700 6.55711
#
# Compressibility (1/GPa) = 0.02050585
#
# Stress axis : x y z
#
# Youngs Moduli (GPa) = 100.12180 38.83203 38.08805
#
# Poissons Ratio (x) = 0.12612 0.20000
# Poissons Ratio (y) = 0.32519 0.46641
# Poissons Ratio (z) = 0.52574 0.47552
#
# Static dielectric constant tensor:
#      x y z
#    x 1.806340 0.000000 -0.037860 
#    y 0.000000 1.749010 0.000000 
#    z -0.037860 0.000000 1.770490 
# 
# From -- ./inp_files/247546.got.cif
#   From: 2010.05.17/outbox.cif.g08.bks.cpg/sg15_124_cif.got.tgz:247546.got - 2010.06.03 18:47:42.
