data_PCOD9282839
_publ_section_title
;
Structure prediction by ZEFSAII (Michael W. Deem and Ramdas Pophale) SiO2 
 PCOD9282839
Probable space group: C 2/C
;
_chemical_formula_sum "Si O2"
_cell_formula_units_Z 44
_cell_length_a 14.435948
_cell_length_b 15.943803
_cell_length_c 7.947653
_cell_angle_alpha 90.000000
_cell_angle_beta 100.007838
_cell_angle_gamma 90.000000
_cell_volume 1801.428813
_symmetry_space_group_name_H-M "C 2/C"
_symmetry_group_IT_number 15
_symmetry_cell_setting 'monoclinic'
loop_
_space_group_symop_operation_xyz
x,y,z
-x,y,1/2-z
-x,-y,-z
x,-y,1/2+z
1/2+x,1/2+y,z
1/2-x,1/2+y,1/2-z
1/2-x,1/2-y,-z
1/2+x,1/2-y,1/2+z
loop_
_atom_site_type_symbol
_atom_site_label
_atom_site_fract_x
_atom_site_fract_y
_atom_site_fract_z
Si Si1 0.000000 0.385070 0.750000
Si Si2 0.545185 0.232467 0.582440
Si Si3 0.711436 0.717026 0.314618
Si Si4 0.797169 0.578181 0.175361
Si Si5 0.069864 0.894632 0.981581
Si Si6 0.338254 0.455020 0.160354
O O1 0.990255 0.325885 0.580196
O O2 0.906654 0.442806 0.702561
O O3 0.500000 0.209250 0.750000
O O4 0.655613 0.227579 0.662731
O O5 0.517338 0.330254 0.534314
O O6 0.750000 0.750000 0.500000
O O7 0.796891 0.669389 0.257901
O O8 0.633943 0.652216 0.362951
O O9 0.738706 0.513920 0.271071
O O10 0.727925 0.587812 0.996336
O O11 0.116443 0.899572 0.179713
O O12 0.080594 0.989781 0.910114
#
# Coordination Sequence:
#
# PCOD9282839 Si02
#       6
#     4   8   8   8   8   8
#     4  12  26  40  66  94 126 164 216 268 310 376
#     4  10  23  42  60  98 131 161 206 262 321 370
#     4  10  21  39  65  89 128 168 206 260 314 378
#     4  10  22  40  60  94 119 166 217 250 321 367
#     4   9  19  39  63  90 126 160 207 256 315 376
#     4   9  20  40  65  89 126 167 205 256 309 384
#
# _framework density 24.425056000000001
#
# number of rings (size 3 to 8) (size 9 to 14) (size 15 to 20)
#    0.000    2.182    0.000    2.182    5.091    1.455 
#    3.273   24.545    0.000    0.000    0.000    0.000 
#    0.000    0.000    0.000    0.000    0.000    0.000 
#
# Total GULP energy -122703.871751 kJ/mol
# GULP energy per Si atom -5577.448716 kJ/mol
# Density = 2.436946 g / cm^3
# Si number density = 24.425056 Si / 1000 Ang^3
#
#
#
# Elastic Constant Matrix: (Units=GPa)
#
#
# Indices 1 2 3 4 5 6 
#
# 1 99.1338 8.4475 30.9259 0.0000 19.8535 0.0000
# 2 8.4475 37.8848 32.7040 0.0000 1.2916 0.0000
# 3 30.9259 32.7040 179.5076 0.0000 19.0721 0.0000
# 4 0.0000 0.0000 0.0000 30.5292 0.0000 -6.1284
# 5 19.8535 1.2916 19.0721 0.0000 40.9197 0.0000
# 6 0.0000 0.0000 0.0000 -6.1284 0.0000 6.7123
#
#
#
# Elastic Compliance Matrix: (Units=1/GPa)
#
#
# Indices 1 2 3 4 5 6 
#
# 1 0.011586 -0.001364 -0.001215 0.000000 -0.005012 0.000000
# 2 -0.001364 0.031603 -0.005773 0.000000 0.002355 0.000000
# 3 -0.001215 -0.005773 0.007102 0.000000 -0.002538 0.000000
# 4 0.000000 0.000000 0.000000 0.040106 0.000000 0.036617
# 5 -0.005012 0.002355 -0.002538 0.000000 0.027979 0.000000
# 6 0.000000 0.000000 0.000000 0.036617 0.000000 0.182412
#
#
# Mechanical properties :
#
#
# Convention : Reuss Voigt Hill
#
# Bulk Modulus (GPa) = 29.77292 51.18677 40.47984
# Shear Modulus (GPa) = 15.21204 31.92883 23.57043
#
# Velocity S-wave (km/s) = 2.49831 3.61947 3.10983
# Velocity P-wave (km/s) = 4.53189 6.20238 5.43174
#
# Compressibility (1/GPa) = 0.03358757
#
# Stress axis : x y z
#
# Youngs Moduli (GPa) = 86.30774 31.64251 140.81398
#
# Poissons Ratio (x) = 0.04315 0.17111
# Poissons Ratio (y) = 0.11769 0.81291
# Poissons Ratio (z) = 0.10488 0.18267
#
# Static dielectric constant tensor:
#      x y z
#    x 2.163880 0.000000 0.148810 
#    y 0.000000 2.088600 0.000000 
#    z 0.148810 0.000000 2.082420 
# 
# From -- ./inp_files/39077.got.cif
#   From: 2010.05.17/outbox.cif.g08.bks.cpg/sg15_20_cif.got.tgz:39077.got - 2010.06.03 18:47:42.
