data_PCOD9282857
_publ_section_title
;
Structure prediction by ZEFSAII (Michael W. Deem and Ramdas Pophale) SiO2 
 PCOD9282857
Probable space group: C 2/C
;
_chemical_formula_sum "Si O2"
_cell_formula_units_Z 40
_cell_length_a 12.822680
_cell_length_b 8.386540
_cell_length_c 18.741535
_cell_angle_alpha 90.000000
_cell_angle_beta 73.932530
_cell_angle_gamma 90.000000
_cell_volume 1936.695979
_symmetry_space_group_name_H-M "C 2/C"
_symmetry_group_IT_number 15
_symmetry_cell_setting 'monoclinic'
loop_
_space_group_symop_operation_xyz
x,y,z
-x,y,1/2-z
-x,-y,-z
x,-y,1/2+z
1/2+x,1/2+y,z
1/2-x,1/2+y,1/2-z
1/2-x,1/2-y,-z
1/2+x,1/2-y,1/2+z
loop_
_atom_site_type_symbol
_atom_site_label
_atom_site_fract_x
_atom_site_fract_y
_atom_site_fract_z
Si Si1 0.687301 0.657848 0.897382
Si Si2 0.519041 0.307574 0.165126
Si Si3 0.923911 0.570743 0.830601
Si Si4 0.351240 0.630256 0.987252
Si Si5 0.544747 0.833391 0.017194
O O1 0.594449 0.672571 0.855081
O O2 0.801488 0.625916 0.838674
O O3 0.677688 0.513819 0.955839
O O4 0.659110 0.805178 0.955387
O O5 0.500000 0.357283 0.250000
O O6 0.558928 0.120746 0.158798
O O7 0.606649 0.403207 0.101000
O O8 0.950094 0.660877 0.899137
O O9 0.000000 0.611378 0.750000
O O10 0.456377 0.708688 0.005341
O O11 0.250000 0.750000 0.000000
O O12 0.500000 0.000000 0.000000
#
# Coordination Sequence:
#
# PCOD9282857 Si02
#       5
#     8   8   8   8   8
#     4  11  22  42  68  91 130 174 215 270 328 399
#     4  10  21  39  65  91 132 168 217 270 339 390
#     4  11  23  41  62  96 130 165 218 274 334 389
#     4  11  21  39  65  94 128 173 220 265 326 400
#     4  11  20  39  64  94 126 169 220 262 324 398
#
# _framework density 20.653732000000002
#
# number of rings (size 3 to 8) (size 9 to 14) (size 15 to 20)
#    0.000    1.200    6.000    3.000    0.000    1.600 
#    0.000    4.000    0.000    0.000    0.000    0.000 
#    0.000    0.000    0.000    0.000    0.000    0.000 
#
# Total GULP energy -111605.523637 kJ/mol
# GULP energy per Si atom -5580.276182 kJ/mol
# Density = 2.060672 g / cm^3
# Si number density = 20.653732 Si / 1000 Ang^3
#
#
#
# Elastic Constant Matrix: (Units=GPa)
#
#
# Indices 1 2 3 4 5 6 
#
# 1 132.0867 22.0367 61.8102 0.0000 -21.5517 0.0000
# 2 22.0367 49.0931 12.5146 0.0000 -12.4320 0.0000
# 3 61.8102 12.5146 185.7718 0.0000 -18.6828 0.0000
# 4 0.0000 0.0000 0.0000 15.6280 0.0000 -3.7330
# 5 -21.5517 -12.4320 -18.6828 0.0000 47.8679 0.0000
# 6 0.0000 0.0000 0.0000 -3.7330 0.0000 37.1935
#
#
#
# Elastic Compliance Matrix: (Units=1/GPa)
#
#
# Indices 1 2 3 4 5 6 
#
# 1 0.009803 -0.003046 -0.002802 0.000000 0.002529 0.000000
# 2 -0.003046 0.022907 -0.000072 0.000000 0.004550 0.000000
# 3 -0.002802 -0.000072 0.006444 0.000000 0.001235 0.000000
# 4 0.000000 0.000000 0.000000 0.065560 0.000000 0.006580
# 5 0.002529 0.004550 0.001235 0.000000 0.023693 0.000000
# 6 0.000000 0.000000 0.000000 0.006580 0.000000 0.027547
#
#
# Mechanical properties :
#
#
# Convention : Reuss Voigt Hill
#
# Bulk Modulus (GPa) = 36.61063 62.18607 49.39835
# Shear Modulus (GPa) = 28.26485 38.17723 33.22104
#
# Velocity S-wave (km/s) = 3.70335 4.30402 4.01493
# Velocity P-wave (km/s) = 6.00423 7.40767 6.74257
#
# Compressibility (1/GPa) = 0.02731447
#
# Stress axis : x y z
#
# Youngs Moduli (GPa) = 102.01214 43.65448 155.17549
#
# Poissons Ratio (x) = 0.13295 0.43482
# Poissons Ratio (y) = 0.31068 0.01121
# Poissons Ratio (z) = 0.28585 0.00315
#
# Static dielectric constant tensor:
#      x y z
#    x 1.767020 0.000000 -0.007590 
#    y 0.000000 1.699780 0.000000 
#    z -0.007590 0.000000 1.730160 
# 
# From -- ./inp_files/195067.got.cif
#   From: 2010.05.17/outbox.cif.g08.bks.cpg/sg15_98_cif.got.tgz:195067.got - 2010.06.03 18:47:42.
