data_PCOD9282243
_publ_section_title
;
Structure prediction by ZEFSAII (Michael W. Deem and Ramdas Pophale) SiO2 
 PCOD9282243
Probable space group: C 2/C
;
_chemical_formula_sum "Si O2"
_cell_formula_units_Z 40
_cell_length_a 25.776672
_cell_length_b 4.996856
_cell_length_c 15.646897
_cell_angle_alpha 90.000000
_cell_angle_beta 105.957808
_cell_angle_gamma 90.000000
_cell_volume 1937.693653
_symmetry_space_group_name_H-M "C 2/C"
_symmetry_group_IT_number 15
_symmetry_cell_setting 'monoclinic'
loop_
_space_group_symop_operation_xyz
x,y,z
-x,y,1/2-z
-x,-y,-z
x,-y,1/2+z
1/2+x,1/2+y,z
1/2-x,1/2+y,1/2-z
1/2-x,1/2-y,-z
1/2+x,1/2-y,1/2+z
loop_
_atom_site_type_symbol
_atom_site_label
_atom_site_fract_x
_atom_site_fract_y
_atom_site_fract_z
Si Si1 0.624050 0.926606 0.617050
Si Si2 0.279817 0.362244 0.430212
Si Si3 0.562790 0.562212 0.023226
Si Si4 0.639625 0.615610 0.914885
Si Si5 0.166363 0.609249 0.817868
O O1 0.679311 0.848810 0.592876
O O2 0.592478 0.645500 0.599954
O O3 0.584127 0.141832 0.555830
O O4 0.640431 0.041022 0.716011
O O5 0.250000 0.250000 0.500000
O O6 0.316822 0.592236 0.488271
O O7 0.231052 0.442173 0.346230
O O8 0.500000 0.500000 0.000000
O O9 0.585032 0.523485 0.936669
O O10 0.655779 0.408074 0.847540
O O11 0.641117 0.908437 0.876375
#
# Coordination Sequence:
#
# PCOD9282243 Si02
#       5
#     8   8   8   8   8
#     4  11  24  39  61  94 122 154 207 256 302 364
#     4   9  20  36  59  86 121 162 192 228 294 367
#     4  11  23  44  65  84 115 163 211 258 306 362
#     4  10  21  39  60  86 120 163 205 239 295 374
#     4  11  22  38  59  92 128 156 192 253 305 359
#
# _framework density 20.643096
#
# number of rings (size 3 to 8) (size 9 to 14) (size 15 to 20)
#    0.000    1.600    0.000    6.000    0.000   11.200 
#    0.000    6.000    0.000    0.000    0.000    0.000 
#    0.000    0.000    0.000    0.000    0.000    0.000 
#
# Total GULP energy -111680.970614 kJ/mol
# GULP energy per Si atom -5584.048531 kJ/mol
# Density = 2.059611 g / cm^3
# Si number density = 20.643096 Si / 1000 Ang^3
#
#
#
# Elastic Constant Matrix: (Units=GPa)
#
#
# Indices 1 2 3 4 5 6 
#
# 1 141.9352 -0.4518 27.8596 0.0000 12.7769 0.0000
# 2 -0.4518 67.1914 6.5420 0.0000 4.6581 0.0000
# 3 27.8596 6.5420 76.1572 0.0000 5.6115 0.0000
# 4 0.0000 0.0000 0.0000 28.8604 0.0000 -4.2259
# 5 12.7769 4.6581 5.6115 0.0000 12.3974 0.0000
# 6 0.0000 0.0000 0.0000 -4.2259 0.0000 22.5335
#
#
#
# Elastic Compliance Matrix: (Units=1/GPa)
#
#
# Indices 1 2 3 4 5 6 
#
# 1 0.008232 0.000831 -0.002519 0.000000 -0.007656 0.000000
# 2 0.000831 0.015427 -0.001178 0.000000 -0.006120 0.000000
# 3 -0.002519 -0.001178 0.014410 0.000000 -0.003484 0.000000
# 4 0.000000 0.000000 0.000000 0.035628 0.000000 0.006682
# 5 -0.007656 -0.006120 -0.003484 0.000000 0.092429 0.000000
# 6 0.000000 0.000000 0.000000 0.006682 0.000000 0.045632
#
#
# Mechanical properties :
#
#
# Convention : Reuss Voigt Hill
#
# Bulk Modulus (GPa) = 30.92354 39.24259 35.08307
# Shear Modulus (GPa) = 21.90405 29.51385 25.70895
#
# Velocity S-wave (km/s) = 3.26096 3.78527 3.53285
# Velocity P-wave (km/s) = 5.40288 6.17702 5.80288
#
# Compressibility (1/GPa) = 0.03233782
#
# Stress axis : x y z
#
# Youngs Moduli (GPa) = 121.48213 64.81947 69.39621
#
# Poissons Ratio (x) = -0.05389 0.17478
# Poissons Ratio (y) = -0.10099 0.08178
# Poissons Ratio (z) = 0.30596 0.07638
#
# Static dielectric constant tensor:
#      x y z
#    x 1.764480 0.000000 0.005820 
#    y 0.000000 1.753280 0.000000 
#    z 0.005820 0.000000 1.741410 
# 
# From -- ./inp_files/170603.got.cif
#   From: 2010.05.17/outbox.cif.g08.bks.cpg/sg15_86_cif.got.tgz:170603.got - 2010.06.03 18:47:42.
