data_PCOD9282062
_publ_section_title
;
Structure prediction by ZEFSAII (Michael W. Deem and Ramdas Pophale) SiO2 
 PCOD9282062
Probable space group: C 2/C
;
_chemical_formula_sum "Si O2"
_cell_formula_units_Z 48
_cell_length_a 16.615363
_cell_length_b 8.774611
_cell_length_c 23.709271
_cell_angle_alpha 90.000000
_cell_angle_beta 30.808458
_cell_angle_gamma 90.000000
_cell_volume 1770.393286
_symmetry_space_group_name_H-M "C 2/C"
_symmetry_group_IT_number 15
_symmetry_cell_setting 'monoclinic'
loop_
_space_group_symop_operation_xyz
x,y,z
-x,y,1/2-z
-x,-y,-z
x,-y,1/2+z
1/2+x,1/2+y,z
1/2-x,1/2+y,1/2-z
1/2-x,1/2-y,-z
1/2+x,1/2-y,1/2+z
loop_
_atom_site_type_symbol
_atom_site_label
_atom_site_fract_x
_atom_site_fract_y
_atom_site_fract_z
Si Si1 0.506238 0.553985 0.648427
Si Si2 0.097783 0.335629 0.478264
Si Si3 0.676831 0.596483 0.851436
Si Si4 0.000000 0.821082 0.750000
Si Si5 0.217440 0.898689 0.450574
Si Si6 0.250000 0.250000 0.500000
Si Si7 0.959092 0.354409 0.106805
O O1 0.404804 0.522346 0.653812
O O2 0.454943 0.441152 0.727935
O O3 0.695470 0.518182 0.515442
O O4 0.547546 0.729394 0.631765
O O5 0.220140 0.278149 0.449765
O O6 0.152998 0.322393 0.380031
O O7 0.930069 0.247014 0.577613
O O8 0.056009 0.503335 0.525102
O O9 0.679439 0.526461 0.912421
O O10 0.852992 0.621913 0.725002
O O11 0.132319 0.706013 0.648095
O O12 0.083806 0.775295 0.543798
#
# Coordination Sequence:
#
# PCOD9282062 Si02
#       7
#     8   8   8   4   8   4   8
#     4  11  25  43  68  98 140 177 227 282 340 416
#     4   9  21  39  61  92 124 170 216 276 327 403
#     4  10  23  40  67  96 127 177 221 276 345 401
#     4  12  26  42  74 102 134 182 232 278 352 404
#     4  11  24  44  66  98 134 176 226 289 336 401
#     4  10  22  44  60  90 136 174 212 274 352 388
#     4  10  21  38  69  90 127 167 230 273 327 404
#
# _framework density 27.112621000000001
#
# number of rings (size 3 to 8) (size 9 to 14) (size 15 to 20)
#    0.000    1.667    0.000    3.000   11.667    1.333 
#    0.000    0.833    0.000    0.000    0.000    0.000 
#    0.000    0.000    0.000    0.000    0.000    0.000 
#
# Total GULP energy -133887.511529 kJ/mol
# GULP energy per Si atom -5578.646314 kJ/mol
# Density = 2.705091 g / cm^3
# Si number density = 27.112621 Si / 1000 Ang^3
#
#
#
# Elastic Constant Matrix: (Units=GPa)
#
#
# Indices 1 2 3 4 5 6 
#
# 1 151.9298 -7.0178 11.9593 -0.0001 26.9318 0.0000
# 2 -7.0178 51.4809 -1.6133 -0.0001 0.6487 0.0000
# 3 11.9593 -1.6133 115.7719 -0.0005 13.6171 -0.0001
# 4 -0.0001 -0.0001 -0.0005 23.4563 0.0001 6.7413
# 5 26.9318 0.6487 13.6171 0.0001 48.3561 0.0000
# 6 0.0000 0.0000 -0.0001 6.7413 0.0000 28.9547
#
#
#
# Elastic Compliance Matrix: (Units=1/GPa)
#
#
# Indices 1 2 3 4 5 6 
#
# 1 0.007368 0.001047 -0.000271 0.000000 -0.004041 0.000000
# 2 0.001047 0.019588 0.000273 0.000000 -0.000923 0.000000
# 3 -0.000271 0.000273 0.008949 0.000000 -0.002373 0.000000
# 4 0.000000 0.000000 0.000000 0.045690 0.000000 -0.010638
# 5 -0.004041 -0.000923 -0.002373 0.000000 0.023611 0.000000
# 6 0.000000 0.000000 0.000000 -0.010638 0.000000 0.037013
#
#
# Mechanical properties :
#
#
# Convention : Reuss Voigt Hill
#
# Bulk Modulus (GPa) = 26.31428 36.20432 31.25930
# Shear Modulus (GPa) = 32.72511 41.21038 36.96774
#
# Velocity S-wave (km/s) = 3.47797 3.90291 3.69655
# Velocity P-wave (km/s) = 5.08478 5.80453 5.45653
#
# Compressibility (1/GPa) = 0.03800218
#
# Stress axis : x y z
#
# Youngs Moduli (GPa) = 135.72073 51.05280 111.74992
#
# Poissons Ratio (x) = -0.05344 0.03031
# Poissons Ratio (y) = -0.14208 -0.03055
# Poissons Ratio (z) = 0.03681 -0.01396
#
# Static dielectric constant tensor:
#      x y z
#    x 2.046300 0.000000 0.039400 
#    y 0.000000 0.699160 0.000000 
#    z 0.039400 0.000000 2.211680 
# 
# From -- ./inp_files/277230.got.cif
#   From: 2010.05.17/outbox.cif.g08.bks.cpg/sg15_139_cif.got.tgz:277230.got - 2010.06.03 18:47:42.
