data_PCOD9282176
_publ_section_title
;
Structure prediction by ZEFSAII (Michael W. Deem and Ramdas Pophale) SiO2 
 PCOD9282176
Probable space group: C 2/C
;
_chemical_formula_sum "Si O2"
_cell_formula_units_Z 44
_cell_length_a 16.705391
_cell_length_b 10.181987
_cell_length_c 11.218107
_cell_angle_alpha 90.000000
_cell_angle_beta 113.881711
_cell_angle_gamma 90.000000
_cell_volume 1744.765295
_symmetry_space_group_name_H-M "C 2/C"
_symmetry_group_IT_number 15
_symmetry_cell_setting 'monoclinic'
loop_
_space_group_symop_operation_xyz
x,y,z
-x,y,1/2-z
-x,-y,-z
x,-y,1/2+z
1/2+x,1/2+y,z
1/2-x,1/2+y,1/2-z
1/2-x,1/2-y,-z
1/2+x,1/2-y,1/2+z
loop_
_atom_site_type_symbol
_atom_site_label
_atom_site_fract_x
_atom_site_fract_y
_atom_site_fract_z
Si Si1 0.180959 0.705570 0.313561
Si Si2 0.244178 0.467435 0.059592
Si Si3 0.974978 0.769903 0.437436
Si Si4 0.853906 0.327122 0.324943
Si Si5 0.633610 0.687690 0.390078
Si Si6 0.000000 0.977805 0.250000
O O1 0.190026 0.598572 0.420976
O O2 0.181902 0.853113 0.374255
O O3 0.091069 0.691460 0.188644
O O4 0.274583 0.721219 0.301403
O O5 0.189007 0.458979 0.148380
O O6 0.274827 0.611696 0.045036
O O7 0.060658 0.703954 0.545506
O O8 0.003722 0.891748 0.372173
O O9 0.912590 0.804016 0.511175
O O10 0.872925 0.314134 0.197441
O O11 0.579560 0.579024 0.282796
#
# Coordination Sequence:
#
# PCOD9282176 Si02
#       6
#     8   8   8   8   8   4
#     4   9  20  37  55  86 127 176 206 259 323 396
#     4   9  20  39  55  87 136 172 208 260 339 401
#     4  12  22  36  64  95 130 167 220 273 334 384
#     4  10  21  39  58  94 134 164 216 268 332 392
#     4  12  23  35  62  97 133 165 211 280 333 390
#     4  12  20  30  54  98 124 150 202 270 330 382
#
# _framework density 25.218291000000001
#
# number of rings (size 3 to 8) (size 9 to 14) (size 15 to 20)
#    1.091    0.364    3.636    2.727    2.545    0.727 
#    0.000    0.000    0.000    1.091    4.727    0.000 
#    5.455    0.000    0.000    0.000    0.000    0.000 
#
# Total GULP energy -122914.130469 kJ/mol
# GULP energy per Si atom -5587.005930 kJ/mol
# Density = 2.516089 g / cm^3
# Si number density = 25.218291 Si / 1000 Ang^3
#
#
#
# Elastic Constant Matrix: (Units=GPa)
#
#
# Indices 1 2 3 4 5 6 
#
# 1 106.5217 23.8157 55.4080 0.0000 -9.2699 0.0000
# 2 23.8157 70.2729 15.2968 0.0000 0.6286 0.0000
# 3 55.4080 15.2968 102.2960 0.0000 22.4495 0.0000
# 4 0.0000 0.0000 0.0000 23.3305 0.0000 -1.8570
# 5 -9.2699 0.6286 22.4495 0.0000 62.2153 0.0000
# 6 0.0000 0.0000 0.0000 -1.8570 0.0000 44.7815
#
#
#
# Elastic Compliance Matrix: (Units=1/GPa)
#
#
# Indices 1 2 3 4 5 6 
#
# 1 0.015292 -0.003270 -0.009015 0.000000 0.005565 0.000000
# 2 -0.003270 0.015436 -0.000430 0.000000 -0.000488 0.000000
# 3 -0.009015 -0.000430 0.016308 0.000000 -0.007223 0.000000
# 4 0.000000 0.000000 0.000000 0.043004 0.000000 0.001783
# 5 0.005565 -0.000488 -0.007223 0.000000 0.019514 0.000000
# 6 0.000000 0.000000 0.000000 0.001783 0.000000 0.022405
#
#
# Mechanical properties :
#
#
# Convention : Reuss Voigt Hill
#
# Bulk Modulus (GPa) = 46.28241 52.01461 49.14851
# Shear Modulus (GPa) = 30.37807 38.37013 34.37410
#
# Velocity S-wave (km/s) = 3.47451 3.90490 3.69597
# Velocity P-wave (km/s) = 5.87272 6.40324 6.14371
#
# Compressibility (1/GPa) = 0.02160648
#
# Stress axis : x y z
#
# Youngs Moduli (GPa) = 65.39161 64.78180 61.31895
#
# Poissons Ratio (x) = 0.21184 0.55281
# Poissons Ratio (y) = 0.21383 0.02637
# Poissons Ratio (z) = 0.58952 0.02785
#
# Static dielectric constant tensor:
#      x y z
#    x 2.092540 0.000000 0.041800 
#    y 0.000000 2.011570 0.000000 
#    z 0.041800 0.000000 2.001570 
# 
# From -- ./inp_files/104606.got.cif
#   From: 2010.05.17/outbox.cif.g08.bks.cpg/sg15_53_cif.got.tgz:104606.got - 2010.06.03 18:47:42.
