data_PCOD9282314
_publ_section_title
;
Structure prediction by ZEFSAII (Michael W. Deem and Ramdas Pophale) SiO2 
 PCOD9282314
Probable space group: C 2/C
;
_chemical_formula_sum "Si O2"
_cell_formula_units_Z 48
_cell_length_a 28.324617
_cell_length_b 6.615301
_cell_length_c 13.590965
_cell_angle_alpha 90.000000
_cell_angle_beta 111.144701
_cell_angle_gamma 90.000000
_cell_volume 2375.161088
_symmetry_space_group_name_H-M "C 2/C"
_symmetry_group_IT_number 15
_symmetry_cell_setting 'monoclinic'
loop_
_space_group_symop_operation_xyz
x,y,z
-x,y,1/2-z
-x,-y,-z
x,-y,1/2+z
1/2+x,1/2+y,z
1/2-x,1/2+y,1/2-z
1/2-x,1/2-y,-z
1/2+x,1/2-y,1/2+z
loop_
_atom_site_type_symbol
_atom_site_label
_atom_site_fract_x
_atom_site_fract_y
_atom_site_fract_z
Si Si1 0.309690 0.949888 0.574826
Si Si2 0.104601 0.664951 0.506316
Si Si3 0.007715 0.071207 0.870266
Si Si4 0.962643 0.685630 0.495692
Si Si5 0.325558 0.765268 0.262623
Si Si6 0.758524 0.914387 0.149669
O O1 0.352913 0.833383 0.545956
O O2 0.272107 0.028662 0.460658
O O3 0.278152 0.792801 0.617103
O O4 0.332412 0.113756 0.666279
O O5 0.058147 0.807452 0.440858
O O6 0.087033 0.431358 0.506724
O O7 0.127347 0.732479 0.628061
O O8 0.000000 0.093425 0.750000
O O9 0.962357 0.175076 0.898160
O O10 0.015118 0.838746 0.906952
O O11 0.000000 0.500000 0.500000
O O12 0.280354 0.869800 0.291646
O O13 0.305371 0.544114 0.222069
#
# Coordination Sequence:
#
# PCOD9282314 Si02
#       6
#     8   8   8   8   8   8
#     4  10  22  39  60  92 125 165 212 258 305 370
#     4  10  24  40  62  99 125 157 213 265 310 375
#     4  10  22  43  69  91 124 167 202 258 324 385
#     4   9  21  44  64  91 125 158 205 254 320 386
#     4  11  21  39  63  88 125 169 207 256 308 364
#     4  10  21  39  61  86 124 168 212 250 312 365
#
# _framework density 20.209154999999999
#
# number of rings (size 3 to 8) (size 9 to 14) (size 15 to 20)
#    0.000    2.000    1.667    0.500    2.333    5.333 
#   12.000    0.000    0.000    0.000    0.000    0.000 
#    0.000    0.000    0.000    0.000    0.000    0.000 
#
# Total GULP energy -133931.015916 kJ/mol
# GULP energy per Si atom -5580.458997 kJ/mol
# Density = 2.016316 g / cm^3
# Si number density = 20.209155 Si / 1000 Ang^3
#
#
#
# Elastic Constant Matrix: (Units=GPa)
#
#
# Indices 1 2 3 4 5 6 
#
# 1 43.3110 0.6281 14.3687 0.0000 -2.6011 0.0000
# 2 0.6281 60.3862 27.0138 0.0000 12.3197 0.0000
# 3 14.3687 27.0138 93.8701 0.0000 -2.3594 0.0000
# 4 0.0000 0.0000 0.0000 22.3616 0.0000 3.3066
# 5 -2.6011 12.3197 -2.3594 0.0000 23.0314 0.0000
# 6 0.0000 0.0000 0.0000 3.3066 0.0000 28.7381
#
#
#
# Elastic Compliance Matrix: (Units=1/GPa)
#
#
# Indices 1 2 3 4 5 6 
#
# 1 0.024520 0.001213 -0.004060 0.000000 0.001704 0.000000
# 2 0.001213 0.022156 -0.006874 0.000000 -0.012419 0.000000
# 3 -0.004060 -0.006874 0.013368 0.000000 0.004588 0.000000
# 4 0.000000 0.000000 0.000000 0.045494 0.000000 -0.005234
# 5 0.001704 -0.012419 0.004588 0.000000 0.050724 0.000000
# 6 0.000000 0.000000 0.000000 -0.005234 0.000000 0.035399
#
#
# Mechanical properties :
#
#
# Convention : Reuss Voigt Hill
#
# Bulk Modulus (GPa) = 24.62818 31.28762 27.95790
# Shear Modulus (GPa) = 22.25817 25.19666 23.72742
#
# Velocity S-wave (km/s) = 3.32232 3.53483 3.43022
# Velocity P-wave (km/s) = 5.18943 5.67235 5.43625
#
# Compressibility (1/GPa) = 0.04060389
#
# Stress axis : x y z
#
# Youngs Moduli (GPa) = 40.78237 45.13435 74.80596
#
# Poissons Ratio (x) = -0.05476 0.30369
# Poissons Ratio (y) = -0.04948 0.51421
# Poissons Ratio (z) = 0.16556 0.31025
#
# Static dielectric constant tensor:
#      x y z
#    x 1.764630 0.000000 0.010160 
#    y 0.000000 1.718310 0.000000 
#    z 0.010160 0.000000 1.702900 
# 
# From -- ./inp_files/180219.got.cif
#   From: 2010.05.17/outbox.cif.g08.bks.cpg/sg15_91_cif.got.tgz:180219.got - 2010.06.03 18:47:42.
