data_PCOD9282450
_publ_section_title
;
Structure prediction by ZEFSAII (Michael W. Deem and Ramdas Pophale) SiO2 
 PCOD9282450
Probable space group: C 2/C
;
_chemical_formula_sum "Si O2"
_cell_formula_units_Z 32
_cell_length_a 7.051582
_cell_length_b 12.256404
_cell_length_c 19.005039
_cell_angle_alpha 90.000000
_cell_angle_beta 66.083056
_cell_angle_gamma 90.000000
_cell_volume 1501.510263
_symmetry_space_group_name_H-M "C 2/C"
_symmetry_group_IT_number 15
_symmetry_cell_setting 'monoclinic'
loop_
_space_group_symop_operation_xyz
x,y,z
-x,y,1/2-z
-x,-y,-z
x,-y,1/2+z
1/2+x,1/2+y,z
1/2-x,1/2+y,1/2-z
1/2-x,1/2-y,-z
1/2+x,1/2-y,1/2+z
loop_
_atom_site_type_symbol
_atom_site_label
_atom_site_fract_x
_atom_site_fract_y
_atom_site_fract_z
Si Si1 0.146996 0.576786 0.379928
Si Si2 0.264683 0.512884 0.512761
Si Si3 0.228349 0.894434 0.240867
Si Si4 0.349370 0.811285 0.367012
O O1 0.235724 0.509494 0.433511
O O2 0.213481 0.511971 0.300365
O O3 0.244064 0.695570 0.371311
O O4 0.898630 0.570980 0.427626
O O5 0.500000 0.500000 0.500000
O O6 0.192369 0.631208 0.552642
O O7 0.253470 0.889481 0.320802
O O8 0.404622 0.812758 0.184453
O O9 0.000000 0.864760 0.250000
#
# Coordination Sequence:
#
# PCOD9282450 Si02
#       4
#     8   8   8   8
#     4  10  22  39  63  87 126 161 199 264 301 360
#     4  10  21  39  62  90 124 159 208 254 306 369
#     4  10  22  39  58  89 124 157 209 252 302 369
#     4  10  22  40  59  93 121 164 211 248 313 369
#
# _framework density 21.311874
#
# number of rings (size 3 to 8) (size 9 to 14) (size 15 to 20)
#    0.000    2.000    0.000    2.250    3.500    3.000 
#    9.000    0.000    0.000    0.000    0.000    0.000 
#    0.000    0.000    0.000    0.000    0.000    0.000 
#
# Total GULP energy -89384.440500 kJ/mol
# GULP energy per Si atom -5586.527531 kJ/mol
# Density = 2.126337 g / cm^3
# Si number density = 21.311874 Si / 1000 Ang^3
#
#
#
# Elastic Constant Matrix: (Units=GPa)
#
#
# Indices 1 2 3 4 5 6 
#
# 1 173.3763 15.3545 6.5357 0.0000 -9.3506 0.0000
# 2 15.3545 98.6740 15.0658 0.0000 -15.6915 0.0000
# 3 6.5357 15.0658 57.6183 0.0000 9.1357 0.0000
# 4 0.0000 0.0000 0.0000 17.9040 0.0000 8.1126
# 5 -9.3506 -15.6915 9.1357 0.0000 24.1136 0.0000
# 6 0.0000 0.0000 0.0000 8.1126 0.0000 35.5772
#
#
#
# Elastic Compliance Matrix: (Units=1/GPa)
#
#
# Indices 1 2 3 4 5 6 
#
# 1 0.005970 -0.000398 -0.000956 0.000000 0.002418 0.000000
# 2 -0.000398 0.012478 -0.004767 0.000000 0.009771 0.000000
# 3 -0.000956 -0.004767 0.020492 0.000000 -0.011236 0.000000
# 4 0.000000 0.000000 0.000000 0.062289 0.000000 -0.014204
# 5 0.002418 0.009771 -0.011236 0.000000 0.053023 0.000000
# 6 0.000000 0.000000 0.000000 -0.014204 0.000000 0.031347
#
#
# Mechanical properties :
#
#
# Convention : Reuss Voigt Hill
#
# Bulk Modulus (GPa) = 37.45797 44.84228 41.15013
# Shear Modulus (GPa) = 24.18482 35.03313 29.60898
#
# Velocity S-wave (km/s) = 3.37234 4.05882 3.73140
# Velocity P-wave (km/s) = 5.72519 6.56140 6.15751
#
# Compressibility (1/GPa) = 0.02669658
#
# Stress axis : x y z
#
# Youngs Moduli (GPa) = 167.51714 80.14075 48.79940
#
# Poissons Ratio (x) = 0.03193 0.04667
# Poissons Ratio (y) = 0.06674 0.23262
# Poissons Ratio (z) = 0.16020 0.38202
#
# Static dielectric constant tensor:
#      x y z
#    x 1.771230 0.000000 -0.016000 
#    y 0.000000 1.752690 0.000000 
#    z -0.016000 0.000000 1.813140 
# 
# From -- ./inp_files/183867.got.cif
#   From: 2010.05.17/outbox.cif.g08.bks.cpg/sg15_92_cif.got.tgz:183867.got - 2010.06.03 18:47:42.
