data_PCOD9282132
_publ_section_title
;
Structure prediction by ZEFSAII (Michael W. Deem and Ramdas Pophale) SiO2 
 PCOD9282132
Probable space group: C 2/C
;
_chemical_formula_sum "Si O2"
_cell_formula_units_Z 56
_cell_length_a 13.633637
_cell_length_b 25.730999
_cell_length_c 12.083914
_cell_angle_alpha 90.000000
_cell_angle_beta 46.193807
_cell_angle_gamma 90.000000
_cell_volume 3059.313101
_symmetry_space_group_name_H-M "C 2/C"
_symmetry_group_IT_number 15
_symmetry_cell_setting 'monoclinic'
loop_
_space_group_symop_operation_xyz
x,y,z
-x,y,1/2-z
-x,-y,-z
x,-y,1/2+z
1/2+x,1/2+y,z
1/2-x,1/2+y,1/2-z
1/2-x,1/2-y,-z
1/2+x,1/2-y,1/2+z
loop_
_atom_site_type_symbol
_atom_site_label
_atom_site_fract_x
_atom_site_fract_y
_atom_site_fract_z
Si Si1 0.692418 0.380591 0.371622
Si Si2 0.967841 0.804776 0.642962
Si Si3 0.207341 0.634916 0.315929
Si Si4 0.705472 0.034003 0.853587
Si Si5 0.337525 0.554121 0.383002
Si Si6 0.032035 0.682181 0.853868
Si Si7 0.068764 0.550972 0.312188
O O1 0.566779 0.342840 0.497404
O O2 0.693772 0.421857 0.270209
O O3 0.706266 0.417487 0.469629
O O4 0.819774 0.342841 0.249623
O O5 0.815225 0.819098 0.726516
O O6 0.983416 0.743532 0.611422
O O7 0.000000 0.813711 0.750000
O O8 0.287698 0.592354 0.325383
O O9 0.153710 0.604490 0.250248
O O10 0.078284 0.653457 0.485939
O O11 0.768241 0.000449 0.904916
O O12 0.663958 0.994390 0.786902
O O13 0.559993 0.056358 0.004729
O O14 0.500000 0.549089 0.250000
O O15 0.000000 0.674449 0.750000
O O16 0.000000 0.538565 0.250000
#
# Coordination Sequence:
#
# PCOD9282132 Si02
#       7
#     8   8   8   8   8   8   8
#     4  12  20  37  58  83 127 154 187 244 284 348
#     4  11  21  37  55  91 125 152 189 235 306 362
#     4  11  19  37  57  82 118 153 188 239 293 340
#     4  10  23  36  58  84 114 157 200 230 292 346
#     4  11  21  37  54  84 124 155 190 236 287 354
#     4  11  21  32  61  91 117 154 193 238 296 358
#     4  10  21  39  57  82 111 151 203 244 277 348
#
# _framework density 18.304763000000001
#
# number of rings (size 3 to 8) (size 9 to 14) (size 15 to 20)
#    0.000    1.143    5.714    1.714    0.000    3.429 
#    2.571    0.000    0.000    0.857    0.000    0.000 
#    0.000    0.000    0.000    0.000    0.000    0.000 
#
# Total GULP energy -156115.058627 kJ/mol
# GULP energy per Si atom -5575.537808 kJ/mol
# Density = 1.826310 g / cm^3
# Si number density = 18.304763 Si / 1000 Ang^3
#
#
#
# Elastic Constant Matrix: (Units=GPa)
#
#
# Indices 1 2 3 4 5 6 
#
# 1 39.6278 33.0957 33.2530 0.0000 -13.4545 0.0000
# 2 33.0957 89.1877 38.1523 0.0000 -7.9908 0.0000
# 3 33.2530 38.1523 68.1862 0.0000 -21.3218 0.0000
# 4 0.0000 0.0000 0.0000 40.5465 0.0000 -2.3792
# 5 -13.4545 -7.9908 -21.3218 0.0000 26.5121 0.0000
# 6 0.0000 0.0000 0.0000 -2.3792 0.0000 17.6821
#
#
#
# Elastic Compliance Matrix: (Units=1/GPa)
#
#
# Indices 1 2 3 4 5 6 
#
# 1 0.051172 -0.011520 -0.015330 0.000000 0.010168 0.000000
# 2 -0.011520 0.017506 -0.005818 0.000000 -0.005249 0.000000
# 3 -0.015330 -0.005818 0.029948 0.000000 0.014551 0.000000
# 4 0.000000 0.000000 0.000000 0.024859 0.000000 0.003345
# 5 0.010168 -0.005249 0.014551 0.000000 0.052999 0.000000
# 6 0.000000 0.000000 0.000000 0.003345 0.000000 0.057005
#
#
# Mechanical properties :
#
#
# Convention : Reuss Voigt Hill
#
# Bulk Modulus (GPa) = 30.04057 45.11152 37.57605
# Shear Modulus (GPa) = 16.13304 23.11485 19.62395
#
# Velocity S-wave (km/s) = 2.97199 3.55741 3.27780
# Velocity P-wave (km/s) = 5.31262 6.44762 5.90744
#
# Compressibility (1/GPa) = 0.03328832
#
# Stress axis : x y z
#
# Youngs Moduli (GPa) = 19.54176 57.12369 33.39144
#
# Poissons Ratio (x) = 0.65807 0.51190
# Poissons Ratio (y) = 0.22512 0.19429
# Poissons Ratio (z) = 0.29958 0.33237
#
# Static dielectric constant tensor:
#      x y z
#    x 1.668970 0.000000 -0.014150 
#    y 0.000000 1.643020 0.000000 
#    z -0.014150 0.000000 1.655090 
# 
# From -- ./inp_files/34155.got.cif
#   From: 2010.05.17/outbox.cif.g08.bks.cpg/sg15_18_cif.got.tgz:34155.got - 2010.06.03 18:47:42.
