data_PCOD9282659
_publ_section_title
;
Structure prediction by ZEFSAII (Michael W. Deem and Ramdas Pophale) SiO2 
 PCOD9282659
Probable space group: C 2/C
;
_chemical_formula_sum "Si O2"
_cell_formula_units_Z 60
_cell_length_a 22.877400
_cell_length_b 28.190475
_cell_length_c 8.604876
_cell_angle_alpha 90.000000
_cell_angle_beta 147.711202
_cell_angle_gamma 90.000000
_cell_volume 2964.469974
_symmetry_space_group_name_H-M "C 2/C"
_symmetry_group_IT_number 15
_symmetry_cell_setting 'monoclinic'
loop_
_space_group_symop_operation_xyz
x,y,z
-x,y,1/2-z
-x,-y,-z
x,-y,1/2+z
1/2+x,1/2+y,z
1/2-x,1/2+y,1/2-z
1/2-x,1/2-y,-z
1/2+x,1/2-y,1/2+z
loop_
_atom_site_type_symbol
_atom_site_label
_atom_site_fract_x
_atom_site_fract_y
_atom_site_fract_z
Si Si1 0.500000 0.615811 0.250000
Si Si2 0.871902 0.048977 0.501764
Si Si3 0.617764 0.114161 0.531053
Si Si4 0.667015 0.270008 0.594280
Si Si5 0.849928 0.145862 0.636326
Si Si6 0.891334 0.299225 0.263009
Si Si7 0.675586 0.447331 0.961425
Si Si8 0.134374 0.311669 0.788865
O O1 0.578454 0.644962 0.544207
O O2 0.424580 0.582942 0.191055
O O3 0.850409 0.093691 0.564069
O O4 0.819804 0.054442 0.214639
O O5 0.000000 0.045724 0.750000
O O6 0.836524 0.000849 0.506917
O O7 0.629472 0.148807 0.707211
O O8 0.618813 0.150841 0.392261
O O9 0.715137 0.077741 0.734893
O O10 0.500000 0.089899 0.250000
O O11 0.608611 0.317011 0.399403
O O12 0.606895 0.239893 0.593877
O O13 0.677637 0.235149 0.471707
O O14 0.786901 0.283912 0.928364
O O15 0.727215 0.164393 0.393799
O O16 0.011144 0.300873 0.454675
#
# Coordination Sequence:
#
# PCOD9282659 Si02
#       8
#     4   8   8   8   8   8   8   8
#     4  12  24  42  68  98 136 174 216 274 332 380
#     4  12  25  41  68  97 133 173 216 271 338 394
#     4   9  19  39  67  91 128 176 219 267 326 390
#     4  10  21  39  63  94 133 170 225 267 319 387
#     4  12  25  41  62 100 134 169 221 274 325 397
#     4   9  20  41  66  94 130 180 218 265 331 388
#     4  12  23  44  68  97 133 174 219 271 333 396
#     4  10  21  39  64  91 131 176 213 271 326 379
#
# _framework density 20.239706000000002
#
# number of rings (size 3 to 8) (size 9 to 14) (size 15 to 20)
#    0.000    1.333    3.333    3.600    0.000    2.667 
#    4.800    0.667    2.933    0.000    0.000    0.000 
#    0.000    0.000    0.000    0.000    0.000    0.000 
#
# Total GULP energy -167559.114653 kJ/mol
# GULP energy per Si atom -5585.303822 kJ/mol
# Density = 2.019364 g / cm^3
# Si number density = 20.239706 Si / 1000 Ang^3
#
#
#
# Elastic Constant Matrix: (Units=GPa)
#
#
# Indices 1 2 3 4 5 6 
#
# 1 80.8443 30.7104 57.1115 0.0000 12.6260 0.0000
# 2 30.7104 112.7264 55.3666 0.0000 13.5991 0.0000
# 3 57.1115 55.3666 93.3699 0.0000 10.4798 0.0000
# 4 0.0000 0.0000 0.0000 15.9034 0.0000 -0.6218
# 5 12.6260 13.5991 10.4798 0.0000 40.2004 0.0000
# 6 0.0000 0.0000 0.0000 -0.6218 0.0000 29.1013
#
#
#
# Elastic Compliance Matrix: (Units=1/GPa)
#
#
# Indices 1 2 3 4 5 6 
#
# 1 0.022380 0.001235 -0.013995 0.000000 -0.003799 0.000000
# 2 0.001235 0.012807 -0.008056 0.000000 -0.002620 0.000000
# 3 -0.013995 -0.008056 0.023949 0.000000 0.000878 0.000000
# 4 0.000000 0.000000 0.000000 0.062932 0.000000 0.001345
# 5 -0.003799 -0.002620 0.000878 0.000000 0.026726 0.000000
# 6 0.000000 0.000000 0.000000 0.001345 0.000000 0.034391
#
#
# Mechanical properties :
#
#
# Convention : Reuss Voigt Hill
#
# Bulk Modulus (GPa) = 57.12830 63.70195 60.41512
# Shear Modulus (GPa) = 21.67749 26.62451 24.15100
#
# Velocity S-wave (km/s) = 3.27622 3.63086 3.45809
# Velocity P-wave (km/s) = 6.52676 7.00854 6.77194
#
# Compressibility (1/GPa) = 0.01750446
#
# Stress axis : x y z
#
# Youngs Moduli (GPa) = 44.68182 78.07990 41.75508
#
# Poissons Ratio (x) = -0.09643 0.58438
# Poissons Ratio (y) = -0.05518 0.33637
# Poissons Ratio (z) = 0.62534 0.62900
#
# Static dielectric constant tensor:
#      x y z
#    x 1.797880 0.000000 -0.031700 
#    y 0.000000 1.691300 0.000000 
#    z -0.031700 0.000000 1.811770 
# 
# From -- ./inp_files/64124.got.cif
#   From: 2010.05.17/outbox.cif.g08.bks.cpg/sg15_33_cif.got.tgz:64124.got - 2010.06.03 18:47:42.
