data_PCOD9282416
_publ_section_title
;
Structure prediction by ZEFSAII (Michael W. Deem and Ramdas Pophale) SiO2 
 PCOD9282416
Probable space group: C 2/C
;
_chemical_formula_sum "Si O2"
_cell_formula_units_Z 44
_cell_length_a 21.113950
_cell_length_b 14.471613
_cell_length_c 15.318217
_cell_angle_alpha 90.000000
_cell_angle_beta 154.558130
_cell_angle_gamma 90.000000
_cell_volume 2010.731190
_symmetry_space_group_name_H-M "C 2/C"
_symmetry_group_IT_number 15
_symmetry_cell_setting 'monoclinic'
loop_
_space_group_symop_operation_xyz
x,y,z
-x,y,1/2-z
-x,-y,-z
x,-y,1/2+z
1/2+x,1/2+y,z
1/2-x,1/2+y,1/2-z
1/2-x,1/2-y,-z
1/2+x,1/2-y,1/2+z
loop_
_atom_site_type_symbol
_atom_site_label
_atom_site_fract_x
_atom_site_fract_y
_atom_site_fract_z
Si Si1 0.667728 0.100893 0.083354
Si Si2 0.660629 0.710642 0.471262
Si Si3 0.027108 0.836561 0.464941
Si Si4 0.000000 0.731752 0.250000
Si Si5 0.794260 0.412959 0.432194
Si Si6 0.416687 0.861476 0.395333
O O1 0.826085 0.107965 0.327753
O O2 0.674625 0.021254 0.018752
O O3 0.635265 0.199459 0.999851
O O4 0.543037 0.085602 0.000765
O O5 0.500000 0.671437 0.250000
O O6 0.750000 0.750000 0.500000
O O7 0.766856 0.640444 0.653396
O O8 0.027598 0.795959 0.367587
O O9 0.878054 0.893171 0.291517
O O10 0.028461 0.745174 0.527415
O O11 0.137084 0.659727 0.413828
O O12 0.874947 0.390454 0.440947
#
# Coordination Sequence:
#
# PCOD9282416 Si02
#       6
#     8   8   8   4   8   8
#     4  11  23  39  61  90 126 155 198 261 308 351
#     4  11  22  38  62  86 120 161 206 246 294 365
#     4  10  21  41  62  89 120 164 205 246 300 373
#     4  10  22  38  66  90 120 162 210 246 300 372
#     4  11  23  38  64  91 121 156 203 255 308 353
#     4  10  21  39  62  87 121 163 202 239 307 368
#
# _framework density 21.882587000000001
#
# number of rings (size 3 to 8) (size 9 to 14) (size 15 to 20)
#    0.000    1.455    1.818    4.909    3.818    1.455 
#    0.000    1.818    0.000    0.000    0.000    0.000 
#    0.000    0.000    0.000    0.000    0.000    0.000 
#
# Total GULP energy -122970.022809 kJ/mol
# GULP energy per Si atom -5589.546491 kJ/mol
# Density = 2.183278 g / cm^3
# Si number density = 21.882587 Si / 1000 Ang^3
#
#
#
# Elastic Constant Matrix: (Units=GPa)
#
#
# Indices 1 2 3 4 5 6 
#
# 1 59.3212 0.4906 4.3330 0.0000 1.3618 0.0000
# 2 0.4906 54.6750 13.2373 0.0000 10.7013 0.0000
# 3 4.3330 13.2373 110.3581 0.0000 11.4151 0.0000
# 4 0.0000 0.0000 0.0000 -19.3891 0.0000 0.1079
# 5 1.3618 10.7013 11.4151 0.0000 32.4154 0.0000
# 6 0.0000 0.0000 0.0000 0.1079 0.0000 20.5626
#
#
#
# Elastic Compliance Matrix: (Units=1/GPa)
#
#
# Indices 1 2 3 4 5 6 
#
# 1 0.016914 0.000102 -0.000622 0.000000 -0.000525 0.000000
# 2 0.000102 0.019882 -0.001774 0.000000 -0.005943 0.000000
# 3 -0.000622 -0.001774 0.009584 0.000000 -0.002763 0.000000
# 4 0.000000 0.000000 0.000000 -0.051574 0.000000 0.000271
# 5 -0.000525 -0.005943 -0.002763 0.000000 0.033807 0.000000
# 6 0.000000 0.000000 0.000000 0.000271 0.000000 0.048631
#
#
# Mechanical properties :
#
#
# Convention : Reuss Voigt Hill
#
# Bulk Modulus (GPa) = 23.92839 28.94177 26.43508
# Shear Modulus (GPa) = 52.21235 20.47068 36.34151
#
# Velocity S-wave (km/s) = 4.88999 3.06188 4.07965
# Velocity P-wave (km/s) = 6.54533 5.07492 5.85645
#
# Compressibility (1/GPa) = 0.04179136
#
# Stress axis : x y z
#
# Youngs Moduli (GPa) = 59.12253 50.29752 104.33555
#
# Poissons Ratio (x) = -0.00511 0.06489
# Poissons Ratio (y) = -0.00601 0.18509
# Poissons Ratio (z) = 0.03677 0.08923
#
# Static dielectric constant tensor:
#      x y z
#    x 1.784910 0.000000 -0.016700 
#    y 0.000000 1.839260 0.000000 
#    z -0.016700 0.000000 1.806730 
# 
# From -- ./inp_files/39236.got.cif
#   From: 2010.05.17/outbox.cif.g08.bks.cpg/sg15_20_cif.got.tgz:39236.got - 2010.06.03 18:47:42.
