data_PCOD9282305
_publ_section_title
;
Structure prediction by ZEFSAII (Michael W. Deem and Ramdas Pophale) SiO2 
 PCOD9282305
Probable space group: C 2/C
;
_chemical_formula_sum "Si O2"
_cell_formula_units_Z 32
_cell_length_a 8.990705
_cell_length_b 19.600599
_cell_length_c 9.344811
_cell_angle_alpha 90.000000
_cell_angle_beta 126.478071
_cell_angle_gamma 90.000000
_cell_volume 1324.144201
_symmetry_space_group_name_H-M "C 2/C"
_symmetry_group_IT_number 15
_symmetry_cell_setting 'monoclinic'
loop_
_space_group_symop_operation_xyz
x,y,z
-x,y,1/2-z
-x,-y,-z
x,-y,1/2+z
1/2+x,1/2+y,z
1/2-x,1/2+y,1/2-z
1/2-x,1/2-y,-z
1/2+x,1/2-y,1/2+z
loop_
_atom_site_type_symbol
_atom_site_label
_atom_site_fract_x
_atom_site_fract_y
_atom_site_fract_z
Si Si1 0.828575 0.220746 0.258397
Si Si2 0.673010 0.960842 0.240846
Si Si3 0.069435 0.606150 0.133520
Si Si4 0.568131 0.348614 0.130086
O O1 0.672206 0.167852 0.114368
O O2 0.730821 0.292342 0.227609
O O3 0.000000 0.226395 0.250000
O O4 0.906554 0.185688 0.445874
O O5 0.500000 0.956289 0.250000
O O6 0.846944 0.917018 0.389362
O O7 0.703155 0.040791 0.231908
O O8 0.401006 0.074778 0.946635
O O9 0.000000 0.629115 0.250000
O O10 0.500000 0.363318 0.250000
#
# Coordination Sequence:
#
# PCOD9282305 Si02
#       4
#     8   8   8   8
#     4  12  24  39  60  85 116 151 192 237 282 336
#     4  10  21  39  61  85 116 151 187 231 285 340
#     4  10  21  39  61  85 116 151 187 231 285 340
#     4  12  24  39  60  85 116 151 192 237 282 336
#
# _framework density 24.166553
#
# number of rings (size 3 to 8) (size 9 to 14) (size 15 to 20)
#    0.000    1.000    0.000    7.500    0.000    2.000 
#    0.000    0.000    0.000    0.000    0.000    0.000 
#    0.000    0.000    0.000    0.000    0.000    0.000 
#
# Total GULP energy -89678.455969 kJ/mol
# GULP energy per Si atom -5604.903498 kJ/mol
# Density = 2.411155 g / cm^3
# Si number density = 24.166553 Si / 1000 Ang^3
#
#
#
# Elastic Constant Matrix: (Units=GPa)
#
#
# Indices 1 2 3 4 5 6 
#
# 1 103.1590 42.0858 -9.0053 0.0000 -1.1778 0.0000
# 2 42.0858 135.7268 -20.4819 0.0000 24.8186 0.0000
# 3 -9.0053 -20.4819 48.2969 0.0000 3.3736 0.0000
# 4 0.0000 0.0000 0.0000 16.4257 0.0000 13.7037
# 5 -1.1778 24.8186 3.3736 0.0000 35.2181 0.0000
# 6 0.0000 0.0000 0.0000 13.7037 0.0000 27.2614
#
#
#
# Elastic Compliance Matrix: (Units=1/GPa)
#
#
# Indices 1 2 3 4 5 6 
#
# 1 0.011424 -0.004116 0.000156 0.000000 0.003268 0.000000
# 2 -0.004116 0.010799 0.004383 0.000000 -0.008168 0.000000
# 3 0.000156 0.004383 0.022962 0.000000 -0.005283 0.000000
# 4 0.000000 0.000000 0.000000 0.104852 0.000000 -0.052707
# 5 0.003268 -0.008168 -0.005283 0.000000 0.034766 0.000000
# 6 0.000000 0.000000 0.000000 -0.052707 0.000000 0.063176
#
#
# Mechanical properties :
#
#
# Convention : Reuss Voigt Hill
#
# Bulk Modulus (GPa) = 21.72494 34.70888 28.21691
# Shear Modulus (GPa) = 19.04922 34.08664 26.56793
#
# Velocity S-wave (km/s) = 2.81062 3.75972 3.31927
# Velocity P-wave (km/s) = 4.42063 5.76549 5.13726
#
# Compressibility (1/GPa) = 0.04603005
#
# Stress axis : x y z
#
# Youngs Moduli (GPa) = 87.53455 92.60115 43.55018
#
# Poissons Ratio (x) = 0.38118 -0.00680
# Poissons Ratio (y) = 0.36032 -0.19087
# Poissons Ratio (z) = -0.01367 -0.40584
#
# Static dielectric constant tensor:
#      x y z
#    x 1.878150 0.000000 0.024390 
#    y 0.000000 1.892340 0.000000 
#    z 0.024390 0.000000 2.004620 
# 
# From -- ./inp_files/77449.got.cif
#   From: 2010.05.17/outbox.cif.g08.bks.cpg/sg15_39_cif.got.tgz:77449.got - 2010.06.03 18:47:42.
