data_PCOD9282957
_publ_section_title
;
Structure prediction by ZEFSAII (Michael W. Deem and Ramdas Pophale) SiO2 
 PCOD9282957
Probable space group: C 2/C
;
_chemical_formula_sum "Si O2"
_cell_formula_units_Z 44
_cell_length_a 14.037490
_cell_length_b 5.009165
_cell_length_c 24.853462
_cell_angle_alpha 90.000000
_cell_angle_beta 102.874607
_cell_angle_gamma 90.000000
_cell_volume 1703.664051
_symmetry_space_group_name_H-M "C 2/C"
_symmetry_group_IT_number 15
_symmetry_cell_setting 'monoclinic'
loop_
_space_group_symop_operation_xyz
x,y,z
-x,y,1/2-z
-x,-y,-z
x,-y,1/2+z
1/2+x,1/2+y,z
1/2-x,1/2+y,1/2-z
1/2-x,1/2-y,-z
1/2+x,1/2-y,1/2+z
loop_
_atom_site_type_symbol
_atom_site_label
_atom_site_fract_x
_atom_site_fract_y
_atom_site_fract_z
Si Si1 0.550608 0.790641 0.060755
Si Si2 0.000000 0.302806 0.250000
Si Si3 0.371109 0.335422 0.227791
Si Si4 0.806107 0.952410 0.834872
Si Si5 0.218535 0.666460 0.082937
Si Si6 0.642320 0.489806 0.977994
O O1 0.604976 0.627724 0.115025
O O2 0.436674 0.731049 0.050723
O O3 0.607304 0.066300 0.075506
O O4 0.580250 0.707589 0.003179
O O5 0.916190 0.536790 0.246055
O O6 0.940906 0.064040 0.209719
O O7 0.344116 0.460143 0.281960
O O8 0.272192 0.279488 0.183279
O O9 0.751853 0.186549 0.859771
O O10 0.290515 0.450317 0.064968
O O11 0.210900 0.884344 0.034591
#
# Coordination Sequence:
#
# PCOD9282957 Si02
#       6
#     8   4   8   8   8   8
#     4  10  21  39  66 101 134 190 236 300 373 451
#     4  10  26  48  74 100 136 196 252 304 384 428
#     4  11  25  48  73 101 150 192 246 322 364 447
#     4  11  26  42  68 101 138 193 248 299 380 440
#     4  10  21  39  66 101 134 190 236 300 373 451
#     4   9  20  41  64  95 144 175 240 304 366 448
#
# _framework density 25.826688999999998
#
# number of rings (size 3 to 8) (size 9 to 14) (size 15 to 20)
#    0.000    1.818    0.000    2.182    7.636    1.455 
#    6.545    0.000    0.000    0.000    0.000    0.000 
#    0.000    0.000    0.000    0.000    0.000    0.000 
#
# Total GULP energy -122531.400170 kJ/mol
# GULP energy per Si atom -5569.609099 kJ/mol
# Density = 2.576791 g / cm^3
# Si number density = 25.826689 Si / 1000 Ang^3
#
#
#
# Elastic Constant Matrix: (Units=GPa)
#
#
# Indices 1 2 3 4 5 6 
#
# 1 102.0880 34.5894 31.4955 0.0000 24.5975 0.0000
# 2 34.5894 150.4781 32.3355 0.0000 6.1795 0.0000
# 3 31.4955 32.3355 79.2810 0.0000 4.3484 0.0000
# 4 0.0000 0.0000 0.0000 39.7606 0.0000 19.8471
# 5 24.5975 6.1795 4.3484 0.0000 32.2752 0.0000
# 6 0.0000 0.0000 0.0000 19.8471 0.0000 41.4287
#
#
#
# Elastic Compliance Matrix: (Units=1/GPa)
#
#
# Indices 1 2 3 4 5 6 
#
# 1 0.014140 -0.001924 -0.004294 0.000000 -0.009830 0.000000
# 2 -0.001924 0.007578 -0.002345 0.000000 0.000331 0.000000
# 3 -0.004294 -0.002345 0.015183 0.000000 0.001675 0.000000
# 4 0.000000 0.000000 0.000000 0.033055 0.000000 -0.015836
# 5 -0.009830 0.000331 0.001675 0.000000 0.038186 0.000000
# 6 0.000000 0.000000 0.000000 -0.015836 0.000000 0.031724
#
#
# Mechanical properties :
#
#
# Convention : Reuss Voigt Hill
#
# Bulk Modulus (GPa) = 50.56282 58.74309 54.65296
# Shear Modulus (GPa) = 30.56539 38.25468 34.41004
#
# Velocity S-wave (km/s) = 3.44391 3.85282 3.65409
# Velocity P-wave (km/s) = 5.95267 6.52586 6.24584
#
# Compressibility (1/GPa) = 0.01977738
#
# Stress axis : x y z
#
# Youngs Moduli (GPa) = 70.71913 131.96169 65.86139
#
# Poissons Ratio (x) = 0.25390 0.28278
# Poissons Ratio (y) = 0.13607 0.15442
# Poissons Ratio (z) = 0.30364 0.30939
#
# Static dielectric constant tensor:
#      x y z
#    x 2.165490 0.000000 0.011700 
#    y 0.000000 2.157540 0.000000 
#    z 0.011700 0.000000 2.012200 
# 
# From -- ./inp_files/294301.got.cif
#   From: 2010.05.17/outbox.cif.g08.bks.cpg/sg15_148_cif.got.tgz:294301.got - 2010.06.03 18:47:42.
