data_PCOD9282939
_publ_section_title
;
Structure prediction by ZEFSAII (Michael W. Deem and Ramdas Pophale) SiO2 
 PCOD9282939
Probable space group: C 2/C
;
_chemical_formula_sum "Si O2"
_cell_formula_units_Z 40
_cell_length_a 13.823075
_cell_length_b 25.365230
_cell_length_c 5.170400
_cell_angle_alpha 90.000000
_cell_angle_beta 108.226194
_cell_angle_gamma 90.000000
_cell_volume 1721.920558
_symmetry_space_group_name_H-M "C 2/C"
_symmetry_group_IT_number 15
_symmetry_cell_setting 'monoclinic'
loop_
_space_group_symop_operation_xyz
x,y,z
-x,y,1/2-z
-x,-y,-z
x,-y,1/2+z
1/2+x,1/2+y,z
1/2-x,1/2+y,1/2-z
1/2-x,1/2-y,-z
1/2+x,1/2-y,1/2+z
loop_
_atom_site_type_symbol
_atom_site_label
_atom_site_fract_x
_atom_site_fract_y
_atom_site_fract_z
Si Si1 0.500000 0.724323 0.750000
Si Si2 0.381097 0.032000 0.612919
Si Si3 0.169380 0.853897 0.612082
Si Si4 0.202104 0.357540 0.291276
Si Si5 0.114270 0.025040 0.090191
Si Si6 0.000000 0.707474 0.750000
O O1 0.411686 0.687294 0.563155
O O2 0.532386 0.759007 0.529716
O O3 0.500000 0.047002 0.750000
O O4 0.317643 0.082509 0.641680
O O5 0.366927 0.015541 0.304296
O O6 0.256842 0.855965 0.466305
O O7 0.118001 0.912121 0.591166
O O8 0.214325 0.838278 0.928659
O O9 0.097425 0.326201 0.241098
O O10 0.164400 0.999369 0.380623
O O11 0.000000 0.000000 0.000000
#
# Coordination Sequence:
#
# PCOD9282939 Si02
#       6
#     4   8   8   8   8   4
#     4  12  28  50  72 102 134 182 234 296 366 406
#     4  10  21  39  65  97 138 180 221 271 329 403
#     4  12  27  44  72 105 143 180 233 289 341 426
#     4  12  26  46  71 106 139 182 235 286 354 411
#     4  10  21  39  65  97 141 183 218 263 328 403
#     4  12  28  50  76  96 136 180 236 302 358 416
#
# _framework density 23.229876000000001
#
# number of rings (size 3 to 8) (size 9 to 14) (size 15 to 20)
#    0.000    0.800    1.000    6.000    0.000   12.800 
#    0.000    0.000    0.000    0.000    0.000    0.000 
#    0.000    0.000    0.000    0.000    0.000    0.000 
#
# Total GULP energy -112036.729388 kJ/mol
# GULP energy per Si atom -5601.836469 kJ/mol
# Density = 2.317700 g / cm^3
# Si number density = 23.229876 Si / 1000 Ang^3
#
#
#
# Elastic Constant Matrix: (Units=GPa)
#
#
# Indices 1 2 3 4 5 6 
#
# 1 66.6531 6.4594 -3.3840 0.0000 10.3380 0.0000
# 2 6.4594 78.1884 11.3163 0.0000 13.6800 0.0000
# 3 -3.3840 11.3163 129.1831 0.0000 -4.3357 0.0000
# 4 0.0000 0.0000 0.0000 25.4451 0.0000 -9.8859
# 5 10.3380 13.6800 -4.3357 0.0000 43.2169 0.0000
# 6 0.0000 0.0000 0.0000 -9.8859 0.0000 21.4512
#
#
#
# Elastic Compliance Matrix: (Units=1/GPa)
#
#
# Indices 1 2 3 4 5 6 
#
# 1 0.015631 -0.000736 0.000357 0.000000 -0.003470 0.000000
# 2 -0.000736 0.013807 -0.001374 0.000000 -0.004332 0.000000
# 3 0.000357 -0.001374 0.007909 0.000000 0.001143 0.000000
# 4 0.000000 0.000000 0.000000 0.047872 0.000000 0.022062
# 5 -0.003470 -0.004332 0.001143 0.000000 0.025455 0.000000
# 6 0.000000 0.000000 0.000000 0.022062 0.000000 0.056785
#
#
# Mechanical properties :
#
#
# Convention : Reuss Voigt Hill
#
# Bulk Modulus (GPa) = 29.54917 33.64532 31.59724
# Shear Modulus (GPa) = 27.43563 35.33150 31.38356
#
# Velocity S-wave (km/s) = 3.44037 3.90417 3.67958
# Velocity P-wave (km/s) = 5.34130 5.90241 5.62885
#
# Compressibility (1/GPa) = 0.03384190
#
# Stress axis : x y z
#
# Youngs Moduli (GPa) = 63.97639 72.42537 126.43738
#
# Poissons Ratio (x) = 0.05330 -0.04519
# Poissons Ratio (y) = 0.04708 0.17375
# Poissons Ratio (z) = -0.02287 0.09953
#
# Static dielectric constant tensor:
#      x y z
#    x 1.800480 0.000000 -0.001510 
#    y 0.000000 1.826160 0.000000 
#    z -0.001510 0.000000 1.995030 
# 
# From -- ./inp_files/10824.got.cif
#   From: 2010.05.17/outbox.cif.g08.bks.cpg/sg15_6_cif.got.tgz:10824.got - 2010.06.03 18:47:42.
