data_PCOD9282619
_publ_section_title
;
Structure prediction by ZEFSAII (Michael W. Deem and Ramdas Pophale) SiO2 
 PCOD9282619
Probable space group: C 2/C
;
_chemical_formula_sum "Si O2"
_cell_formula_units_Z 64
_cell_length_a 24.698214
_cell_length_b 17.165556
_cell_length_c 13.531207
_cell_angle_alpha 90.000000
_cell_angle_beta 29.653336
_cell_angle_gamma 90.000000
_cell_volume 2838.224154
_symmetry_space_group_name_H-M "C 2/C"
_symmetry_group_IT_number 15
_symmetry_cell_setting 'monoclinic'
loop_
_space_group_symop_operation_xyz
x,y,z
-x,y,1/2-z
-x,-y,-z
x,-y,1/2+z
1/2+x,1/2+y,z
1/2-x,1/2+y,1/2-z
1/2-x,1/2-y,-z
1/2+x,1/2-y,1/2+z
loop_
_atom_site_type_symbol
_atom_site_label
_atom_site_fract_x
_atom_site_fract_y
_atom_site_fract_z
Si Si1 0.752073 0.105388 0.317273
Si Si2 0.782960 0.264459 0.335262
Si Si3 0.908462 0.363409 0.604825
Si Si4 0.579760 0.519705 0.990957
Si Si5 0.226336 0.662794 0.006036
Si Si6 0.133716 0.587956 0.705978
Si Si7 0.359386 0.692860 0.614658
Si Si8 0.155507 0.021577 0.593305
O O1 0.823944 0.183640 0.222692
O O2 0.694473 0.112639 0.302150
O O3 0.824039 0.028263 0.216360
O O4 0.661061 0.108756 0.548319
O O5 0.750000 0.250000 0.500000
O O6 0.855025 0.340980 0.233216
O O7 0.678905 0.286951 0.434378
O O8 0.882175 0.364789 0.763781
O O9 0.919153 0.270508 0.560830
O O10 0.004110 0.422404 0.421249
O O11 0.576670 0.612604 0.985787
O O12 0.544116 0.505256 0.829762
O O13 0.615522 0.496146 0.046007
O O14 0.315011 0.607530 0.916976
O O15 0.250000 0.750000 0.000000
O O16 0.250353 0.669070 0.851516
O O17 0.231934 0.528149 0.573572
#
# Coordination Sequence:
#
# PCOD9282619 Si02
#       8
#     8   8   8   8   8   8   8   8
#     4  10  21  39  63  92 129 177 219 273 344 408
#     4   9  20  38  62  95 134 170 219 278 330 407
#     4  10  22  41  64  95 135 179 221 281 344 419
#     4  11  23  42  69  94 138 173 224 291 346 415
#     4  10  22  42  68  91 132 181 227 274 335 413
#     4  11  22  39  64  96 133 171 224 276 346 409
#     4  10  21  41  67  96 133 176 228 278 346 412
#     4  11  24  42  65 100 131 178 225 286 350 412
#
# _framework density 22.549310999999999
#
# number of rings (size 3 to 8) (size 9 to 14) (size 15 to 20)
#    0.000    1.750    2.500    1.125    0.000    7.500 
#    2.250    0.625    0.000    0.000    0.000    0.000 
#    0.000    0.000    0.000    0.000    0.000    0.000 
#
# Total GULP energy -178191.671452 kJ/mol
# GULP energy per Si atom -5568.489733 kJ/mol
# Density = 2.249799 g / cm^3
# Si number density = 22.549311 Si / 1000 Ang^3
#
#
#
# Elastic Constant Matrix: (Units=GPa)
#
#
# Indices 1 2 3 4 5 6 
#
# 1 77.6007 37.4193 30.9376 0.0000 -0.6960 0.0000
# 2 37.4193 116.9273 27.6765 0.0000 -21.1210 0.0000
# 3 30.9376 27.6765 119.7141 0.0000 -1.2737 0.0000
# 4 0.0000 0.0000 0.0000 24.9628 0.0000 3.6994
# 5 -0.6960 -21.1210 -1.2737 0.0000 22.9999 0.0000
# 6 0.0000 0.0000 0.0000 3.6994 0.0000 17.5033
#
#
#
# Elastic Compliance Matrix: (Units=1/GPa)
#
#
# Indices 1 2 3 4 5 6 
#
# 1 0.016716 -0.005459 -0.003108 0.000000 -0.004679 0.000000
# 2 -0.005459 0.012693 -0.001402 0.000000 0.011413 0.000000
# 3 -0.003108 -0.001402 0.009471 0.000000 -0.000857 0.000000
# 4 0.000000 0.000000 0.000000 0.041355 0.000000 -0.008741
# 5 -0.004679 0.011413 -0.000857 0.000000 0.053770 0.000000
# 6 0.000000 0.000000 0.000000 -0.008741 0.000000 0.058979
#
#
# Mechanical properties :
#
#
# Convention : Reuss Voigt Hill
#
# Bulk Modulus (GPa) = 52.79203 56.25655 54.52429
# Shear Modulus (GPa) = 22.80646 27.64047 25.22346
#
# Velocity S-wave (km/s) = 3.18371 3.50491 3.34816
# Velocity P-wave (km/s) = 6.08090 6.43285 6.25935
#
# Compressibility (1/GPa) = 0.01894225
#
# Stress axis : x y z
#
# Youngs Moduli (GPa) = 59.82360 78.78460 105.58133
#
# Poissons Ratio (x) = 0.43009 0.32810
# Poissons Ratio (y) = 0.32658 0.14805
# Poissons Ratio (z) = 0.18590 0.11047
#
# Static dielectric constant tensor:
#      x y z
#    x 1.874650 0.000000 0.052820 
#    y 0.000000 1.895800 0.000000 
#    z 0.052820 0.000000 1.991460 
# 
# From -- ./inp_files/119711.got.cif
#   From: 2010.05.17/outbox.cif.g08.bks.cpg/sg15_60_cif.got.tgz:119711.got - 2010.06.03 18:47:42.
