data_PCOD9282542
_publ_section_title
;
Structure prediction by ZEFSAII (Michael W. Deem and Ramdas Pophale) SiO2 
 PCOD9282542
Probable space group: C 2/C
;
_chemical_formula_sum "Si O2"
_cell_formula_units_Z 36
_cell_length_a 12.698492
_cell_length_b 8.153451
_cell_length_c 16.939959
_cell_angle_alpha 90.000000
_cell_angle_beta 125.628103
_cell_angle_gamma 90.000000
_cell_volume 1425.600219
_symmetry_space_group_name_H-M "C 2/C"
_symmetry_group_IT_number 15
_symmetry_cell_setting 'monoclinic'
loop_
_space_group_symop_operation_xyz
x,y,z
-x,y,1/2-z
-x,-y,-z
x,-y,1/2+z
1/2+x,1/2+y,z
1/2-x,1/2+y,1/2-z
1/2-x,1/2-y,-z
1/2+x,1/2-y,1/2+z
loop_
_atom_site_type_symbol
_atom_site_label
_atom_site_fract_x
_atom_site_fract_y
_atom_site_fract_z
Si Si1 0.781835 0.627651 0.699881
Si Si2 0.396718 0.345805 0.886206
Si Si3 0.000000 0.367760 0.750000
Si Si4 0.144195 0.334061 0.529245
Si Si5 0.077765 0.673316 0.447903
O O1 0.645804 0.530648 0.647683
O O2 0.818075 0.730834 0.792278
O O3 0.888108 0.488831 0.732015
O O4 0.769008 0.745943 0.618529
O O5 0.546821 0.293768 0.944373
O O6 0.365759 0.299487 0.963820
O O7 0.944989 0.272069 0.650875
O O8 0.156339 0.502395 0.487545
O O9 0.061235 0.375366 0.573015
#
# Coordination Sequence:
#
# PCOD9282542 Si02
#       5
#     8   8   4   8   8
#     4  12  22  37  66  85 120 149 203 230 301 334
#     4  10  21  39  63  87 108 165 192 241 269 371
#     4  12  22  36  56  92 120 160 176 256 290 336
#     4   9  19  41  61  86 111 160 195 238 273 370
#     4   9  19  39  59  84 121 143 200 233 296 324
#
# _framework density 25.252523
#
# number of rings (size 3 to 8) (size 9 to 14) (size 15 to 20)
#    1.333    0.444    2.222    3.333    0.000    1.778 
#    0.000    0.000    0.000    4.000    0.000    0.000 
#    0.000    0.000    0.000    0.000    0.000    0.000 
#
# Total GULP energy -100641.418603 kJ/mol
# GULP energy per Si atom -5591.189922 kJ/mol
# Density = 2.519505 g / cm^3
# Si number density = 25.252523 Si / 1000 Ang^3
#
#
#
# Elastic Constant Matrix: (Units=GPa)
#
#
# Indices 1 2 3 4 5 6 
#
# 1 57.1274 11.0274 31.1750 0.0000 -14.0347 0.0000
# 2 11.0274 71.3577 66.0957 0.0000 -13.9753 0.0000
# 3 31.1750 66.0957 215.1753 0.0000 -14.3722 0.0000
# 4 0.0000 0.0000 0.0000 31.2409 0.0000 19.6195
# 5 -14.0347 -13.9753 -14.3722 0.0000 24.4378 0.0000
# 6 0.0000 0.0000 0.0000 19.6195 0.0000 20.8513
#
#
#
# Elastic Compliance Matrix: (Units=1/GPa)
#
#
# Indices 1 2 3 4 5 6 
#
# 1 0.021608 0.001565 -0.002834 0.000000 0.011638 0.000000
# 2 0.001565 0.021317 -0.006142 0.000000 0.009477 0.000000
# 3 -0.002834 -0.006142 0.006871 0.000000 -0.001099 0.000000
# 4 0.000000 0.000000 0.000000 0.078245 0.000000 -0.073623
# 5 0.011638 0.009477 -0.001099 0.000000 0.052378 0.000000
# 6 0.000000 0.000000 0.000000 -0.073623 0.000000 0.117233
#
#
# Mechanical properties :
#
#
# Convention : Reuss Voigt Hill
#
# Bulk Modulus (GPa) = 28.59172 62.25072 45.42122
# Shear Modulus (GPa) = 15.42584 30.99683 23.21134
#
# Velocity S-wave (km/s) = 2.47425 3.50733 3.03507
# Velocity P-wave (km/s) = 4.41695 6.41145 5.50527
#
# Compressibility (1/GPa) = 0.03497516
#
# Stress axis : x y z
#
# Youngs Moduli (GPa) = 46.27835 46.91098 145.53639
#
# Poissons Ratio (x) = -0.07342 0.41246
# Poissons Ratio (y) = -0.07243 0.89384
# Poissons Ratio (z) = 0.13116 0.28811
#
# Static dielectric constant tensor:
#      x y z
#    x 2.121250 0.000000 0.031430 
#    y 0.000000 1.948640 0.000000 
#    z 0.031430 0.000000 1.970760 
# 
# From -- ./inp_files/208779.got.cif
#   From: 2010.05.17/outbox.cif.g08.bks.cpg/sg15_105_cif.got.tgz:208779.got - 2010.06.03 18:47:42.
