data_PCOD9282169
_publ_section_title
;
Structure prediction by ZEFSAII (Michael W. Deem and Ramdas Pophale) SiO2 
 PCOD9282169
Probable space group: C 2/C
;
_chemical_formula_sum "Si O2"
_cell_formula_units_Z 52
_cell_length_a 14.240942
_cell_length_b 27.833388
_cell_length_c 8.735075
_cell_angle_alpha 90.000000
_cell_angle_beta 134.318739
_cell_angle_gamma 90.000000
_cell_volume 2477.190364
_symmetry_space_group_name_H-M "C 2/C"
_symmetry_group_IT_number 15
_symmetry_cell_setting 'monoclinic'
loop_
_space_group_symop_operation_xyz
x,y,z
-x,y,1/2-z
-x,-y,-z
x,-y,1/2+z
1/2+x,1/2+y,z
1/2-x,1/2+y,1/2-z
1/2-x,1/2-y,-z
1/2+x,1/2-y,1/2+z
loop_
_atom_site_type_symbol
_atom_site_label
_atom_site_fract_x
_atom_site_fract_y
_atom_site_fract_z
Si Si1 0.544149 0.119141 0.480175
Si Si2 0.744290 0.455856 0.358014
Si Si3 0.000000 0.912832 0.250000
Si Si4 0.500000 0.256905 0.250000
Si Si5 0.500000 0.287960 0.750000
Si Si6 0.374140 0.967352 0.827063
Si Si7 0.133353 0.833916 0.617191
Si Si8 0.087887 0.705192 0.069719
O O1 0.681790 0.089797 0.637752
O O2 0.432945 0.084847 0.428941
O O3 0.538769 0.169785 0.562980
O O4 0.500000 0.125996 0.250000
O O5 0.603223 0.442058 0.264155
O O6 0.836461 0.465992 0.607990
O O7 0.755168 0.504981 0.274222
O O8 0.084186 0.879961 0.465123
O O9 0.585525 0.289769 0.457750
O O10 0.592691 0.226517 0.245804
O O11 0.570360 0.322795 0.709618
O O12 0.417389 0.249530 0.553628
O O13 0.500000 0.000000 0.000000
O O14 0.287249 0.827857 0.812921
#
# Coordination Sequence:
#
# PCOD9282169 Si02
#       8
#     8   8   4   4   4   8   8   8
#     4   9  17  33  59  87 114 151 202 249 294 350
#     4  10  21  39  58  91 121 156 204 242 305 369
#     4  11  24  40  64  87 118 172 211 250 290 377
#     4   9  20  32  60  88 111 159 204 248 306 363
#     4  10  24  40  54  91 125 165 199 262 324 366
#     4   9  18  36  62  87 121 154 191 254 306 351
#     4  10  21  40  58  84 123 161 206 250 316 359
#     4  11  19  37  59  88 119 157 204 258 303 367
#
# _framework density 20.991524999999999
#
# number of rings (size 3 to 8) (size 9 to 14) (size 15 to 20)
#    0.000    2.154    0.769    4.154    0.000    0.615 
#   13.846    1.538    0.000    0.000    0.000    0.000 
#    0.000    0.000    0.000    0.000    0.000    0.000 
#
# Total GULP energy -144851.388689 kJ/mol
# GULP energy per Si atom -5571.207257 kJ/mol
# Density = 2.094375 g / cm^3
# Si number density = 20.991525 Si / 1000 Ang^3
#
#
#
# Elastic Constant Matrix: (Units=GPa)
#
#
# Indices 1 2 3 4 5 6 
#
# 1 136.2340 50.7227 23.9002 0.0000 5.1509 0.0000
# 2 50.7227 57.4900 -12.6580 0.0000 -2.1430 0.0000
# 3 23.9002 -12.6580 26.7608 0.0000 0.0844 0.0000
# 4 0.0000 0.0000 0.0000 1.3236 0.0000 -20.6976
# 5 5.1509 -2.1430 0.0844 0.0000 25.8594 0.0000
# 6 0.0000 0.0000 0.0000 -20.6976 0.0000 -9.0849
#
#
#
# Elastic Compliance Matrix: (Units=1/GPa)
#
#
# Indices 1 2 3 4 5 6 
#
# 1 0.026358 -0.032062 -0.038682 0.000000 -0.007781 0.000000
# 2 -0.032062 0.058482 0.056262 0.000000 0.011049 0.000000
# 3 -0.038682 0.056262 0.098489 0.000000 0.012046 0.000000
# 4 0.000000 0.000000 0.000000 0.020628 0.000000 -0.046996
# 5 -0.007781 0.011049 0.012046 0.000000 0.041097 0.000000
# 6 0.000000 0.000000 0.000000 -0.046996 0.000000 -0.003005
#
#
# Mechanical properties :
#
#
# Convention : Reuss Voigt Hill
#
# Bulk Modulus (GPa) = 6.47809 38.26827 22.37318
# Shear Modulus (GPa) = 15.50547 14.18761 14.84654
#
# Velocity S-wave (km/s) = 2.72077 2.60258 2.66233
# Velocity P-wave (km/s) = 3.60040 5.22505 4.48687
#
# Compressibility (1/GPa) = 0.15436641
#
# Stress axis : x y z
#
# Youngs Moduli (GPa) = 37.93916 17.09930 10.15340
#
# Poissons Ratio (x) = 0.54824 0.39275
# Poissons Ratio (y) = 1.21641 -0.57125
# Poissons Ratio (z) = 1.46754 -0.96205
#
# Static dielectric constant tensor:
#      x y z
#    x 1.956160 0.000000 0.002660 
#    y 0.000000 1.789730 0.000000 
#    z 0.002660 0.000000 1.747870 
# 
# From -- ./inp_files/44950.got.cif
#   From: 2010.05.17/outbox.cif.g08.bks.cpg/sg15_23_cif.got.tgz:44950.got - 2010.06.03 18:47:42.
