data_PCOD9282639
_publ_section_title
;
Structure prediction by ZEFSAII (Michael W. Deem and Ramdas Pophale) SiO2 
 PCOD9282639
Probable space group: C 2/C
;
_chemical_formula_sum "Si O2"
_cell_formula_units_Z 44
_cell_length_a 7.903737
_cell_length_b 16.426381
_cell_length_c 13.480674
_cell_angle_alpha 90.000000
_cell_angle_beta 81.515656
_cell_angle_gamma 90.000000
_cell_volume 1731.039409
_symmetry_space_group_name_H-M "C 2/C"
_symmetry_group_IT_number 15
_symmetry_cell_setting 'monoclinic'
loop_
_space_group_symop_operation_xyz
x,y,z
-x,y,1/2-z
-x,-y,-z
x,-y,1/2+z
1/2+x,1/2+y,z
1/2-x,1/2+y,1/2-z
1/2-x,1/2-y,-z
1/2+x,1/2-y,1/2+z
loop_
_atom_site_type_symbol
_atom_site_label
_atom_site_fract_x
_atom_site_fract_y
_atom_site_fract_z
Si Si1 0.274304 0.133682 0.609613
Si Si2 0.000000 0.785807 0.750000
Si Si3 0.213876 0.390642 0.764467
Si Si4 0.130170 0.687342 0.564381
Si Si5 0.000000 0.757140 0.250000
Si Si6 0.000000 0.468958 0.250000
Si Si7 0.202358 0.523778 0.476425
O O1 0.431659 0.182167 0.545100
O O2 0.128380 0.187568 0.673832
O O3 0.385344 0.084669 0.685670
O O4 0.206388 0.063623 0.541297
O O5 0.123398 0.847188 0.797369
O O6 0.107506 0.726428 0.673320
O O7 0.246390 0.433180 0.867142
O O8 0.098725 0.312577 0.803676
O O9 0.134366 0.460647 0.701183
O O10 0.250000 0.750000 0.500000
O O11 0.215687 0.597928 0.552657
O O12 0.000000 0.500000 0.500000
#
# Coordination Sequence:
#
# PCOD9282639 Si02
#       7
#     8   4   8   8   4   4   8
#     4  10  21  39  63  93 133 176 208 274 331 386
#     4  12  21  37  73  95 122 168 224 266 329 375
#     4  10  21  39  64  95 129 170 217 270 316 391
#     4  11  21  38  67  98 125 170 221 268 326 393
#     4  11  22  37  65 103 130 170 232 267 318 401
#     4   9  21  38  62  92 130 166 216 259 335 378
#     4   9  20  38  59  87 131 172 204 266 332 381
#
# _framework density 25.418253
#
# number of rings (size 3 to 8) (size 9 to 14) (size 15 to 20)
#    0.000    1.818    3.636    0.545    0.000    2.909 
#    0.000    3.636    4.000    2.182    0.000    0.000 
#    0.000    0.000    0.000    0.000    0.000    0.000 
#
# Total GULP energy -122512.018945 kJ/mol
# GULP energy per Si atom -5568.728134 kJ/mol
# Density = 2.536040 g / cm^3
# Si number density = 25.418253 Si / 1000 Ang^3
#
#
#
# Elastic Constant Matrix: (Units=GPa)
#
#
# Indices 1 2 3 4 5 6 
#
# 1 47.4828 57.7035 17.1306 0.0000 -16.2628 0.0000
# 2 57.7035 185.4372 53.7057 0.0000 -33.9716 0.0000
# 3 17.1306 53.7057 92.3058 0.0000 -29.6533 0.0000
# 4 0.0000 0.0000 0.0000 44.6066 0.0000 -12.2306
# 5 -16.2628 -33.9716 -29.6533 0.0000 32.1892 0.0000
# 6 0.0000 0.0000 0.0000 -12.2306 0.0000 34.5236
#
#
#
# Elastic Compliance Matrix: (Units=1/GPa)
#
#
# Indices 1 2 3 4 5 6 
#
# 1 0.035677 -0.010009 0.002272 0.000000 0.009554 0.000000
# 2 -0.010009 0.009858 -0.003068 0.000000 0.002520 0.000000
# 3 0.002272 -0.003068 0.016370 0.000000 0.012990 0.000000
# 4 0.000000 0.000000 0.000000 0.024830 0.000000 0.008796
# 5 0.009554 0.002520 0.012990 0.000000 0.050519 0.000000
# 6 0.000000 0.000000 0.000000 0.008796 0.000000 0.032082
#
#
# Mechanical properties :
#
#
# Convention : Reuss Voigt Hill
#
# Bulk Modulus (GPa) = 24.81824 64.70061 44.75942
# Shear Modulus (GPa) = 24.46434 35.37626 29.92030
#
# Velocity S-wave (km/s) = 3.10574 3.73469 3.43464
# Velocity P-wave (km/s) = 4.75878 6.64130 5.77723
#
# Compressibility (1/GPa) = 0.04029295
#
# Stress axis : x y z
#
# Youngs Moduli (GPa) = 28.02933 101.44431 61.08654
#
# Poissons Ratio (x) = 1.01541 -0.13878
# Poissons Ratio (y) = 0.28056 0.18743
# Poissons Ratio (z) = -0.06368 0.31126
#
# Static dielectric constant tensor:
#      x y z
#    x 2.192070 0.000000 0.079140 
#    y 0.000000 2.046960 0.000000 
#    z 0.079140 0.000000 2.155710 
# 
# From -- ./inp_files/188802.got.cif
#   From: 2010.05.17/outbox.cif.g08.bks.cpg/sg15_95_cif.got.tgz:188802.got - 2010.06.03 18:47:42.
