data_PCOD9282587
_publ_section_title
;
Structure prediction by ZEFSAII (Michael W. Deem and Ramdas Pophale) SiO2 
 PCOD9282587
Probable space group: C 2/C
;
_chemical_formula_sum "Si O2"
_cell_formula_units_Z 56
_cell_length_a 11.796978
_cell_length_b 27.341319
_cell_length_c 9.174582
_cell_angle_alpha 90.000000
_cell_angle_beta 94.889356
_cell_angle_gamma 90.000000
_cell_volume 2948.446841
_symmetry_space_group_name_H-M "C 2/C"
_symmetry_group_IT_number 15
_symmetry_cell_setting 'monoclinic'
loop_
_space_group_symop_operation_xyz
x,y,z
-x,y,1/2-z
-x,-y,-z
x,-y,1/2+z
1/2+x,1/2+y,z
1/2-x,1/2+y,1/2-z
1/2-x,1/2-y,-z
1/2+x,1/2-y,1/2+z
loop_
_atom_site_type_symbol
_atom_site_label
_atom_site_fract_x
_atom_site_fract_y
_atom_site_fract_z
Si Si1 0.500000 0.996046 0.250000
Si Si2 0.118232 0.435623 0.005656
Si Si3 0.959933 0.332856 0.400248
Si Si4 0.474517 0.654671 0.580600
Si Si5 0.227845 0.781255 0.359080
Si Si6 0.500000 0.499877 0.250000
Si Si7 0.885574 0.059751 0.475310
Si Si8 0.875512 0.749730 0.442253
O O1 0.579946 0.962754 0.152578
O O2 0.568370 0.031289 0.368905
O O3 0.070448 0.379898 0.005369
O O4 0.253567 0.432382 0.996554
O O5 0.849958 0.302308 0.332618
O O6 0.000000 0.353677 0.250000
O O7 0.046492 0.294626 0.489098
O O8 0.500000 0.638949 0.750000
O O9 0.349960 0.675733 0.591360
O O10 0.461445 0.608861 0.475558
O O11 0.556657 0.698418 0.535163
O O12 0.250000 0.750000 0.500000
O O13 0.156556 0.750864 0.232552
O O14 0.407102 0.531135 0.328392
O O15 0.562794 0.469326 0.381695
O O16 0.750000 0.750000 0.500000
#
# Coordination Sequence:
#
# PCOD9282587 Si02
#       8
#     4   8   8   8   8   4   8   8
#     4  10  24  44  62 100 130 162 216 268 320 390
#     4  11  23  42  70  93 129 170 212 266 325 383
#     4  12  23  41  66  97 127 171 217 261 325 384
#     4  10  21  39  63  90 123 165 207 251 314 383
#     4  11  22  40  64  87 127 170 205 262 316 374
#     4  10  24  40  66  94 126 156 210 268 314 384
#     4  11  21  43  65  94 123 165 209 260 322 376
#     4  11  24  41  61  94 129 166 212 260 309 383
#
# _framework density 18.993051999999999
#
# number of rings (size 3 to 8) (size 9 to 14) (size 15 to 20)
#    0.000    1.143    5.714    0.857    0.000    1.143 
#    3.857    1.429    0.000    0.000    0.000    0.000 
#    0.000    0.000    0.000    0.000    0.000    0.000 
#
# Total GULP energy -155952.945603 kJ/mol
# GULP energy per Si atom -5569.748057 kJ/mol
# Density = 1.894982 g / cm^3
# Si number density = 18.993052 Si / 1000 Ang^3
#
#
#
# Elastic Constant Matrix: (Units=GPa)
#
#
# Indices 1 2 3 4 5 6 
#
# 1 119.7073 57.3236 32.2235 0.0000 3.3871 0.0000
# 2 57.3236 106.3398 63.9707 0.0000 8.1196 0.0000
# 3 32.2235 63.9707 83.6373 0.0000 -0.6254 0.0000
# 4 0.0000 0.0000 0.0000 22.7546 0.0000 -6.6964
# 5 3.3871 8.1196 -0.6254 0.0000 28.2512 0.0000
# 6 0.0000 0.0000 0.0000 -6.6964 0.0000 22.0408
#
#
#
# Elastic Compliance Matrix: (Units=1/GPa)
#
#
# Indices 1 2 3 4 5 6 
#
# 1 0.011282 -0.006501 0.000629 0.000000 0.000530 0.000000
# 2 -0.006501 0.021996 -0.014363 0.000000 -0.005860 0.000000
# 3 0.000629 -0.014363 0.022734 0.000000 0.004556 0.000000
# 4 0.000000 0.000000 0.000000 0.048262 0.000000 0.014663
# 5 0.000530 -0.005860 0.004556 0.000000 0.037118 0.000000
# 6 0.000000 0.000000 0.000000 0.014663 0.000000 0.049825
#
#
# Mechanical properties :
#
#
# Convention : Reuss Voigt Hill
#
# Bulk Modulus (GPa) = 64.33781 68.52446 66.43114
# Shear Modulus (GPa) = 21.10878 25.02042 23.06460
#
# Velocity S-wave (km/s) = 3.33738 3.63346 3.48856
# Velocity P-wave (km/s) = 6.98561 7.33211 7.16095
#
# Compressibility (1/GPa) = 0.01554296
#
# Stress axis : x y z
#
# Youngs Moduli (GPa) = 88.63377 45.46264 43.98768
#
# Poissons Ratio (x) = 0.29555 -0.02769
# Poissons Ratio (y) = 0.57621 0.63180
# Poissons Ratio (z) = -0.05579 0.65298
#
# Static dielectric constant tensor:
#      x y z
#    x 1.632580 0.000000 0.009520 
#    y 0.000000 1.230100 0.000000 
#    z 0.009520 0.000000 1.634500 
# 
# From -- ./inp_files/34380.got.cif
#   From: 2010.05.17/outbox.cif.g08.bks.cpg/sg15_18_cif.got.tgz:34380.got - 2010.06.03 18:47:42.
