data_PCOD9282517
_publ_section_title
;
Structure prediction by ZEFSAII (Michael W. Deem and Ramdas Pophale) SiO2 
 PCOD9282517
Probable space group: C 2/C
;
_chemical_formula_sum "Si O2"
_cell_formula_units_Z 56
_cell_length_a 14.110338
_cell_length_b 21.629357
_cell_length_c 12.801280
_cell_angle_alpha 90.000000
_cell_angle_beta 40.852169
_cell_angle_gamma 90.000000
_cell_volume 2555.553287
_symmetry_space_group_name_H-M "C 2/C"
_symmetry_group_IT_number 15
_symmetry_cell_setting 'monoclinic'
loop_
_space_group_symop_operation_xyz
x,y,z
-x,y,1/2-z
-x,-y,-z
x,-y,1/2+z
1/2+x,1/2+y,z
1/2-x,1/2+y,1/2-z
1/2-x,1/2-y,-z
1/2+x,1/2-y,1/2+z
loop_
_atom_site_type_symbol
_atom_site_label
_atom_site_fract_x
_atom_site_fract_y
_atom_site_fract_z
Si Si1 0.850954 0.099603 0.166273
Si Si2 0.168808 0.574720 0.131296
Si Si3 0.666874 0.607511 0.814778
Si Si4 0.155219 0.655727 0.646138
Si Si5 0.841073 0.003132 0.839175
Si Si6 0.173567 0.189664 0.614456
Si Si7 0.140930 0.204791 0.200857
O O1 0.714783 0.077591 0.213217
O O2 0.849640 0.171205 0.197216
O O3 0.855851 0.062301 0.270681
O O4 0.999251 0.091669 0.979039
O O5 0.000000 0.582296 0.250000
O O6 0.230491 0.512778 0.025908
O O7 0.259935 0.631486 0.004508
O O8 0.745814 0.616457 0.859062
O O9 0.713732 0.549798 0.705066
O O10 0.691616 0.667916 0.720747
O O11 0.134042 0.722073 0.720240
O O12 0.228125 0.679160 0.478280
O O13 0.000000 0.627129 0.750000
O O14 0.000000 0.021103 0.750000
O O15 0.250000 0.250000 0.500000
O O16 0.000000 0.195344 0.750000
O O17 0.000000 0.187819 0.250000
#
# Coordination Sequence:
#
# PCOD9282517 Si02
#       7
#     8   8   8   8   8   8   8
#     4  12  23  41  74  94 128 191 227 276 352 408
#     4  11  25  45  63 100 143 171 231 295 339 412
#     4  11  22  41  69  98 131 178 227 273 341 413
#     4  10  23  40  61  96 138 168 216 287 337 407
#     4  11  24  43  70 100 131 173 237 286 330 417
#     4  11  23  43  68 102 138 181 231 284 344 415
#     4  10  21  39  62  95 129 172 231 271 330 416
#
# _framework density 21.913063000000001
#
# number of rings (size 3 to 8) (size 9 to 14) (size 15 to 20)
#    0.000    1.143    4.286    2.143    2.000    2.857 
#    0.000    1.429    0.000    0.000    0.000    0.000 
#    0.000    0.000    0.000    0.000    0.000    0.000 
#
# Total GULP energy -156378.495146 kJ/mol
# GULP energy per Si atom -5584.946255 kJ/mol
# Density = 2.186319 g / cm^3
# Si number density = 21.913063 Si / 1000 Ang^3
#
#
#
# Elastic Constant Matrix: (Units=GPa)
#
#
# Indices 1 2 3 4 5 6 
#
# 1 119.0394 13.4558 23.1356 -0.0006 -19.4074 -0.0001
# 2 13.4558 69.6987 24.3814 -0.0002 6.5035 0.0000
# 3 23.1356 24.3814 50.8050 -0.0014 -26.2602 0.0006
# 4 -0.0006 -0.0002 -0.0014 34.6704 0.0015 12.0748
# 5 -19.4074 6.5035 -26.2602 0.0015 36.9306 -0.0004
# 6 -0.0001 0.0000 0.0006 12.0748 -0.0004 19.5046
#
#
#
# Elastic Compliance Matrix: (Units=1/GPa)
#
#
# Indices 1 2 3 4 5 6 
#
# 1 0.009574 -0.001909 -0.001059 0.000000 0.004615 0.000000
# 2 -0.001909 0.023982 -0.021094 0.000000 -0.020226 0.000000
# 3 -0.001059 -0.021094 0.050471 0.000001 0.039047 -0.000001
# 4 0.000000 0.000000 0.000001 0.036771 -0.000002 -0.022764
# 5 0.004615 -0.020226 0.039047 -0.000002 0.060830 0.000001
# 6 0.000000 0.000000 -0.000001 -0.022764 0.000001 0.065363
#
#
# Mechanical properties :
#
#
# Convention : Reuss Voigt Hill
#
# Bulk Modulus (GPa) = 27.85188 40.16542 34.00865
# Shear Modulus (GPa) = 16.28221 30.12579 23.20400
#
# Velocity S-wave (km/s) = 2.72883 3.71183 3.25762
# Velocity P-wave (km/s) = 4.76093 6.06131 5.45004
#
# Compressibility (1/GPa) = 0.03590422
#
# Stress axis : x y z
#
# Youngs Moduli (GPa) = 104.44454 41.69742 19.81325
#
# Poissons Ratio (x) = 0.07958 0.02098
# Poissons Ratio (y) = 0.19935 0.41795
# Poissons Ratio (z) = 0.11059 0.87959
#
# Static dielectric constant tensor:
#      x y z
#    x 1.778720 0.000000 0.015390 
#    y 0.000000 1.838210 0.000000 
#    z 0.015390 0.000000 1.863650 
# 
# From -- ./inp_files/92004.got.cif
#   From: 2010.05.17/outbox.cif.g08.bks.cpg/sg15_47_cif.got.tgz:92004.got - 2010.06.03 18:47:42.
