data_PCOD9282630
_publ_section_title
;
Structure prediction by ZEFSAII (Michael W. Deem and Ramdas Pophale) SiO2 
 PCOD9282630
Probable space group: C 2/C
;
_chemical_formula_sum "Si O2"
_cell_formula_units_Z 64
_cell_length_a 23.885239
_cell_length_b 12.061880
_cell_length_c 12.546772
_cell_angle_alpha 90.000000
_cell_angle_beta 119.123093
_cell_angle_gamma 90.000000
_cell_volume 3157.747224
_symmetry_space_group_name_H-M "C 2/C"
_symmetry_group_IT_number 15
_symmetry_cell_setting 'monoclinic'
loop_
_space_group_symop_operation_xyz
x,y,z
-x,y,1/2-z
-x,-y,-z
x,-y,1/2+z
1/2+x,1/2+y,z
1/2-x,1/2+y,1/2-z
1/2-x,1/2-y,-z
1/2+x,1/2-y,1/2+z
loop_
_atom_site_type_symbol
_atom_site_label
_atom_site_fract_x
_atom_site_fract_y
_atom_site_fract_z
Si Si1 0.472855 0.683706 0.116262
Si Si2 0.933566 0.364487 0.646386
Si Si3 0.906105 0.720640 0.891968
Si Si4 0.348085 0.366306 0.371731
Si Si5 0.780005 0.327444 0.939855
Si Si6 0.806622 0.730311 0.137684
Si Si7 0.292840 0.604451 0.316240
Si Si8 0.099930 0.608477 0.837740
O O1 0.500000 0.624912 0.250000
O O2 0.533338 0.711960 0.098305
O O3 0.439388 0.794777 0.136317
O O4 0.419467 0.630968 0.988950
O O5 0.927436 0.350321 0.513648
O O6 0.870350 0.312751 0.640117
O O7 0.933607 0.491607 0.683474
O O8 0.000000 0.312417 0.750000
O O9 0.848527 0.802238 0.874243
O O10 0.887507 0.646688 0.771912
O O11 0.314979 0.262761 0.398828
O O12 0.331866 0.333436 0.233879
O O13 0.316910 0.483953 0.369560
O O14 0.727654 0.394064 0.826257
O O15 0.750000 0.250000 0.000000
O O16 0.832792 0.404778 0.040411
O O17 0.770831 0.640219 0.179438
O O18 0.750000 0.750000 0.000000
#
# Coordination Sequence:
#
# PCOD9282630 Si02
#       8
#     8   8   8   8   8   8   8   8
#     4   9  20  43  65  95 135 168 222 284 313 387
#     4  12  26  42  68  97 133 180 214 270 344 396
#     4  11  22  42  65  92 134 167 225 269 322 393
#     4  10  24  41  64  94 128 174 221 264 337 390
#     4  10  21  39  63  93 126 163 218 272 320 385
#     4  11  25  45  61  96 141 169 218 281 326 394
#     4  11  24  40  69  95 127 178 218 267 328 395
#     4  10  23  40  68  98 125 173 219 272 327 389
#
# _framework density 20.267613999999998
#
# number of rings (size 3 to 8) (size 9 to 14) (size 15 to 20)
#    0.000    1.500    2.500    1.875    3.500    5.500 
#    0.000    0.625    0.000    0.000    0.000    0.000 
#    0.000    0.000    0.000    0.000    0.000    0.000 
#
# Total GULP energy -178408.827460 kJ/mol
# GULP energy per Si atom -5575.275858 kJ/mol
# Density = 2.022148 g / cm^3
# Si number density = 20.267614 Si / 1000 Ang^3
#
#
#
# Elastic Constant Matrix: (Units=GPa)
#
#
# Indices 1 2 3 4 5 6 
#
# 1 98.3169 21.2039 32.7135 0.0000 4.8640 0.0000
# 2 21.2039 52.5812 35.4267 0.0000 7.5986 0.0000
# 3 32.7135 35.4267 111.5171 0.0000 15.4196 0.0000
# 4 0.0000 0.0000 0.0000 11.3417 0.0000 9.3715
# 5 4.8640 7.5986 15.4196 0.0000 40.0767 0.0000
# 6 0.0000 0.0000 0.0000 9.3715 0.0000 16.2441
#
#
#
# Elastic Compliance Matrix: (Units=1/GPa)
#
#
# Indices 1 2 3 4 5 6 
#
# 1 0.011643 -0.003053 -0.002461 0.000000 0.000113 0.000000
# 2 -0.003053 0.025111 -0.006838 0.000000 -0.001760 0.000000
# 3 -0.002461 -0.006838 0.012295 0.000000 -0.003135 0.000000
# 4 0.000000 0.000000 0.000000 0.168489 0.000000 -0.097204
# 5 0.000113 -0.001760 -0.003135 0.000000 0.026478 0.000000
# 6 0.000000 0.000000 0.000000 -0.097204 0.000000 0.117639
#
#
# Mechanical properties :
#
#
# Convention : Reuss Voigt Hill
#
# Bulk Modulus (GPa) = 41.07824 49.01152 45.04488
# Shear Modulus (GPa) = 12.67505 25.07058 18.87281
#
# Velocity S-wave (km/s) = 2.50348 3.52088 3.05484
# Velocity P-wave (km/s) = 5.35430 6.38463 5.89203
#
# Compressibility (1/GPa) = 0.02434379
#
# Stress axis : x y z
#
# Youngs Moduli (GPa) = 85.88844 39.82310 81.33317
#
# Poissons Ratio (x) = 0.12159 0.20017
# Poissons Ratio (y) = 0.26224 0.55618
# Poissons Ratio (z) = 0.21138 0.27232
#
# Static dielectric constant tensor:
#      x y z
#    x 1.799580 0.000000 -0.001220 
#    y 0.000000 1.698620 0.000000 
#    z -0.001220 0.000000 1.744130 
# 
# From -- ./inp_files/118018.got.cif
#   From: 2010.05.17/outbox.cif.g08.bks.cpg/sg15_60_cif.got.tgz:118018.got - 2010.06.03 18:47:42.
