data_PCOD9282762
_publ_section_title
;
Structure prediction by ZEFSAII (Michael W. Deem and Ramdas Pophale) SiO2 
 PCOD9282762
Probable space group: C 2/C
;
_chemical_formula_sum "Si O2"
_cell_formula_units_Z 32
_cell_length_a 31.633506
_cell_length_b 4.952741
_cell_length_c 19.900567
_cell_angle_alpha 90.000000
_cell_angle_beta 152.244812
_cell_angle_gamma 90.000000
_cell_volume 1451.976698
_symmetry_space_group_name_H-M "C 2/C"
_symmetry_group_IT_number 15
_symmetry_cell_setting 'monoclinic'
loop_
_space_group_symop_operation_xyz
x,y,z
-x,y,1/2-z
-x,-y,-z
x,-y,1/2+z
1/2+x,1/2+y,z
1/2-x,1/2+y,1/2-z
1/2-x,1/2-y,-z
1/2+x,1/2-y,1/2+z
loop_
_atom_site_type_symbol
_atom_site_label
_atom_site_fract_x
_atom_site_fract_y
_atom_site_fract_z
Si Si1 0.865764 0.505185 0.665480
Si Si2 0.486779 0.753153 0.530838
Si Si3 0.305270 0.431508 0.845860
Si Si4 0.817461 0.008852 0.017011
O O1 0.943637 0.337426 0.812247
O O2 0.829739 0.297269 0.558822
O O3 0.786401 0.574337 0.607524
O O4 0.881932 0.785730 0.649134
O O5 0.500000 0.500000 0.500000
O O6 0.389760 0.705019 0.427933
O O7 0.500000 0.000000 0.500000
O O8 0.270123 0.695480 0.757300
O O9 0.329653 0.526513 0.955026
#
# Coordination Sequence:
#
# PCOD9282762 Si02
#       4
#     8   8   8   8
#     4  10  21  39  64  93 127 167 211 264 328 394
#     4  12  25  43  67  97 134 177 227 281 338 403
#     4  12  25  43  67  97 134 177 227 281 339 404
#     4  10  21  39  64  93 127 167 211 264 328 395
#
# _framework density 22.038919
#
# number of rings (size 3 to 8) (size 9 to 14) (size 15 to 20)
#    0.000    1.000    0.000    7.500    0.000    5.000 
#    0.000    2.500    0.000    0.000    0.000    0.000 
#    0.000    0.000    0.000    0.000    0.000    0.000 
#
# Total GULP energy -89407.431541 kJ/mol
# GULP energy per Si atom -5587.964471 kJ/mol
# Density = 2.198876 g / cm^3
# Si number density = 22.038919 Si / 1000 Ang^3
#
#
#
# Elastic Constant Matrix: (Units=GPa)
#
#
# Indices 1 2 3 4 5 6 
#
# 1 110.6913 37.3252 33.7712 0.0006 -14.5528 -0.0003
# 2 37.3252 154.1156 28.2138 -0.0030 -8.9399 0.0003
# 3 33.7712 28.2138 74.0736 -0.0008 -8.8553 -0.0004
# 4 0.0006 -0.0030 -0.0008 40.9471 -0.0001 -9.6850
# 5 -14.5528 -8.9399 -8.8553 -0.0001 24.1300 -0.0001
# 6 -0.0003 0.0003 -0.0004 -9.6850 -0.0001 32.6769
#
#
#
# Elastic Compliance Matrix: (Units=1/GPa)
#
#
# Indices 1 2 3 4 5 6 
#
# 1 0.011479 -0.001772 -0.003984 0.000000 0.004804 0.000000
# 2 -0.001772 0.007315 -0.001864 0.000001 0.000957 0.000000
# 3 -0.003984 -0.001864 0.016375 0.000000 0.002916 0.000000
# 4 0.000000 0.000001 0.000000 0.026263 0.000000 0.007784
# 5 0.004804 0.000957 0.002916 0.000000 0.045764 0.000000
# 6 0.000000 0.000000 0.000000 0.007784 0.000000 0.032910
#
#
# Mechanical properties :
#
#
# Convention : Reuss Voigt Hill
#
# Bulk Modulus (GPa) = 50.17878 59.72230 54.95054
# Shear Modulus (GPa) = 30.86653 35.52215 33.19434
#
# Velocity S-wave (km/s) = 3.74645 4.01907 3.88515
# Velocity P-wave (km/s) = 6.44455 6.97815 6.71665
#
# Compressibility (1/GPa) = 0.01992874
#
# Stress axis : x y z
#
# Youngs Moduli (GPa) = 87.11716 136.71451 61.06889
#
# Poissons Ratio (x) = 0.24226 0.24330
# Poissons Ratio (y) = 0.15437 0.11381
# Poissons Ratio (z) = 0.34708 0.25479
#
# Static dielectric constant tensor:
#      x y z
#    x 2.985040 -0.000040 -1.686600 
#    y -0.000040 1.769000 0.000060 
#    z -1.686600 0.000060 4.228140 
# 
# From -- ./inp_files/223984.got.cif
#   From: 2010.05.17/outbox.cif.g08.bks.cpg/sg15_112_cif.got.tgz:223984.got - 2010.06.03 18:47:42.
