data_PCOD9282409
_publ_section_title
;
Structure prediction by ZEFSAII (Michael W. Deem and Ramdas Pophale) SiO2 
 PCOD9282409
Probable space group: C 2/C
;
_chemical_formula_sum "Si O2"
_cell_formula_units_Z 64
_cell_length_a 15.274411
_cell_length_b 21.400156
_cell_length_c 8.840787
_cell_angle_alpha 90.000000
_cell_angle_beta 83.982191
_cell_angle_gamma 90.000000
_cell_volume 2873.905467
_symmetry_space_group_name_H-M "C 2/C"
_symmetry_group_IT_number 15
_symmetry_cell_setting 'monoclinic'
loop_
_space_group_symop_operation_xyz
x,y,z
-x,y,1/2-z
-x,-y,-z
x,-y,1/2+z
1/2+x,1/2+y,z
1/2-x,1/2+y,1/2-z
1/2-x,1/2-y,-z
1/2+x,1/2-y,1/2+z
loop_
_atom_site_type_symbol
_atom_site_label
_atom_site_fract_x
_atom_site_fract_y
_atom_site_fract_z
Si Si1 0.400125 0.709159 0.226907
Si Si2 0.766927 0.499980 0.215982
Si Si3 0.413988 0.572704 0.699993
Si Si4 0.178248 0.406809 0.525425
Si Si5 0.317333 0.195012 0.946090
Si Si6 0.680591 0.392788 0.545099
Si Si7 0.658374 0.682367 0.593621
Si Si8 0.399091 0.196612 0.255749
O O1 0.500000 0.696235 0.250000
O O2 0.375134 0.776366 0.302337
O O3 0.341235 0.655585 0.317458
O O4 0.385396 0.705385 0.052822
O O5 0.674322 0.467227 0.271127
O O6 0.799673 0.541453 0.349921
O O7 0.734060 0.549735 0.098696
O O8 0.831865 0.449631 0.124119
O O9 0.500000 0.539636 0.750000
O O10 0.409577 0.591838 0.525491
O O11 0.402279 0.634297 0.803716
O O12 0.256962 0.358604 0.468026
O O13 0.110841 0.360466 0.623706
O O14 0.250095 0.139982 0.918761
O O15 0.372890 0.179269 0.087720
O O16 0.250000 0.250000 0.000000
O O17 0.666224 0.746142 0.687853
O O18 0.500000 0.219010 0.250000
#
# Coordination Sequence:
#
# PCOD9282409 Si02
#       8
#     8   8   8   8   8   8   8   8
#     4  11  21  34  57  90 127 158 199 257 317 366
#     4  11  22  41  63  85 123 168 217 254 298 381
#     4  11  24  39  62  93 127 166 207 257 319 368
#     4  11  23  43  64  93 122 173 214 260 308 380
#     4  10  21  39  62  85 123 172 203 244 321 378
#     4  11  21  39  60  81 119 169 206 248 308 377
#     4  11  22  39  62  97 129 158 207 258 317 390
#     4  12  24  42  68  97 131 161 211 272 325 367
#
# _framework density 22.269348000000001
#
# number of rings (size 3 to 8) (size 9 to 14) (size 15 to 20)
#    0.000    1.000    3.750    4.500    0.000    3.000 
#    0.000    0.625    0.000    0.000    0.000    0.000 
#    0.000    0.000    0.000    0.000    0.000    0.000 
#
# Total GULP energy -178663.743825 kJ/mol
# GULP energy per Si atom -5583.241995 kJ/mol
# Density = 2.221866 g / cm^3
# Si number density = 22.269348 Si / 1000 Ang^3
#
#
#
# Elastic Constant Matrix: (Units=GPa)
#
#
# Indices 1 2 3 4 5 6 
#
# 1 30.2038 8.8160 4.0700 0.0000 2.2402 0.0000
# 2 8.8160 97.1153 20.7997 0.0000 -13.7442 0.0000
# 3 4.0700 20.7997 71.7150 0.0000 -0.4355 0.0000
# 4 0.0000 0.0000 0.0000 42.8353 0.0000 -3.6082
# 5 2.2402 -13.7442 -0.4355 0.0000 22.1705 0.0000
# 6 0.0000 0.0000 0.0000 -3.6082 0.0000 16.4700
#
#
#
# Elastic Compliance Matrix: (Units=1/GPa)
#
#
# Indices 1 2 3 4 5 6 
#
# 1 0.034775 -0.003795 -0.000909 0.000000 -0.005884 0.000000
# 2 -0.003795 0.012504 -0.003362 0.000000 0.008069 0.000000
# 3 -0.000909 -0.003362 0.014960 0.000000 -0.001699 0.000000
# 4 0.000000 0.000000 0.000000 0.023784 0.000000 0.005211
# 5 -0.005884 0.008069 -0.001699 0.000000 0.050668 0.000000
# 6 0.000000 0.000000 0.000000 0.005211 0.000000 0.061858
#
#
# Mechanical properties :
#
#
# Convention : Reuss Voigt Hill
#
# Bulk Modulus (GPa) = 21.68841 29.60062 25.64452
# Shear Modulus (GPa) = 21.73440 27.31838 24.52639
#
# Velocity S-wave (km/s) = 3.12745 3.50626 3.32226
# Velocity P-wave (km/s) = 4.77510 5.45094 5.12418
#
# Compressibility (1/GPa) = 0.04610757
#
# Stress axis : x y z
#
# Youngs Moduli (GPa) = 28.75632 79.97734 66.84298
#
# Poissons Ratio (x) = 0.30351 0.06074
# Poissons Ratio (y) = 0.10913 0.22473
# Poissons Ratio (z) = 0.02613 0.26889
#
# Static dielectric constant tensor:
#      x y z
#    x 1.799190 0.000000 -0.013190 
#    y 0.000000 1.916500 0.000000 
#    z -0.013190 0.000000 1.945980 
# 
# From -- ./inp_files/50253.got.cif
#   From: 2010.05.17/outbox.cif.g08.bks.cpg/sg15_26_cif.got.tgz:50253.got - 2010.06.03 18:47:42.
