data_PCOD9282767
_publ_section_title
;
Structure prediction by ZEFSAII (Michael W. Deem and Ramdas Pophale) SiO2 
 PCOD9282767
Probable space group: C 2/C
;
_chemical_formula_sum "Si O2"
_cell_formula_units_Z 32
_cell_length_a 8.749552
_cell_length_b 19.944999
_cell_length_c 15.819583
_cell_angle_alpha 90.000000
_cell_angle_beta 150.321709
_cell_angle_gamma 90.000000
_cell_volume 1366.890363
_symmetry_space_group_name_H-M "C 2/C"
_symmetry_group_IT_number 15
_symmetry_cell_setting 'monoclinic'
loop_
_space_group_symop_operation_xyz
x,y,z
-x,y,1/2-z
-x,-y,-z
x,-y,1/2+z
1/2+x,1/2+y,z
1/2-x,1/2+y,1/2-z
1/2-x,1/2-y,-z
1/2+x,1/2-y,1/2+z
loop_
_atom_site_type_symbol
_atom_site_label
_atom_site_fract_x
_atom_site_fract_y
_atom_site_fract_z
Si Si1 0.336054 0.402291 0.760296
Si Si2 0.723913 0.853915 0.934185
Si Si3 0.212014 0.964006 0.169608
Si Si4 0.690771 0.302210 0.046403
O O1 0.500000 0.402638 0.750000
O O2 0.231902 0.478302 0.733846
O O3 0.579446 0.369472 0.943287
O O4 0.035090 0.353968 0.618409
O O5 0.500000 0.882347 0.750000
O O6 0.901056 0.793184 0.972631
O O7 0.004961 0.901332 0.098896
O O8 0.500000 0.945567 0.250000
O O9 0.000000 0.000000 0.000000
O O10 0.750000 0.250000 0.000000
O O11 0.000000 0.303975 0.250000
#
# Coordination Sequence:
#
# PCOD9282767 Si02
#       4
#     8   8   8   8
#     4  11  24  41  63  98 140 175 221 274 325 401
#     4  10  21  39  64  93 132 175 216 272 332 397
#     4  12  18  36  66  93 133 178 214 260 339 397
#     4  11  23  43  70  92 122 170 224 277 334 395
#
# _framework density 23.410803999999999
#
# number of rings (size 3 to 8) (size 9 to 14) (size 15 to 20)
#    0.000    1.000    7.500    1.500    0.000    2.000 
#    0.000   21.250    0.000    0.000    0.000    0.000 
#    0.000    0.000    0.000    0.000    0.000    0.000 
#
# Total GULP energy -89121.441923 kJ/mol
# GULP energy per Si atom -5570.090120 kJ/mol
# Density = 2.335752 g / cm^3
# Si number density = 23.410804 Si / 1000 Ang^3
#
#
#
# Elastic Constant Matrix: (Units=GPa)
#
#
# Indices 1 2 3 4 5 6 
#
# 1 216.0424 57.8965 65.5998 -0.0104 40.6333 -0.0024
# 2 57.8965 106.5267 38.7490 -0.0285 6.6919 -0.0145
# 3 65.5998 38.7490 123.4766 -0.0886 33.4796 -0.0196
# 4 -0.0104 -0.0285 -0.0886 15.1383 0.0182 -2.6760
# 5 40.6333 6.6919 33.4796 0.0182 34.7547 0.0081
# 6 -0.0024 -0.0145 -0.0196 -2.6760 0.0081 26.4678
#
#
#
# Elastic Compliance Matrix: (Units=1/GPa)
#
#
# Indices 1 2 3 4 5 6 
#
# 1 0.006983 -0.003030 -0.000952 0.000002 -0.006664 0.000000
# 2 -0.003030 0.011976 -0.003362 -0.000004 0.004475 0.000002
# 3 -0.000952 -0.003362 0.012429 0.000081 -0.010212 0.000019
# 4 0.000002 -0.000004 0.000081 0.067260 -0.000116 0.006800
# 5 -0.006664 0.004475 -0.010212 -0.000116 0.045539 -0.000031
# 6 0.000000 0.000002 0.000019 0.006800 -0.000031 0.038469
#
#
# Mechanical properties :
#
#
# Convention : Reuss Voigt Hill
#
# Bulk Modulus (GPa) = 59.88395 85.61516 72.74955
# Shear Modulus (GPa) = 24.64121 34.19219 29.41670
#
# Velocity S-wave (km/s) = 3.24783 3.82583 3.54862
# Velocity P-wave (km/s) = 6.30077 7.49441 6.92336
#
# Compressibility (1/GPa) = 0.01669897
#
# Stress axis : x y z
#
# Youngs Moduli (GPa) = 143.19945 83.50032 80.46006
#
# Poissons Ratio (x) = 0.25304 0.07662
# Poissons Ratio (y) = 0.43395 0.27049
# Poissons Ratio (z) = 0.13636 0.28071
#
# Static dielectric constant tensor:
#      x y z
#    x 2.035010 -0.000030 0.077420 
#    y -0.000030 2.035220 -0.000070 
#    z 0.077420 -0.000070 1.993600 
# 
# From -- ./inp_files/138026.got.cif
#   From: 2010.05.17/outbox.cif.g08.bks.cpg/sg15_70_cif.got.tgz:138026.got - 2010.06.03 18:47:42.
