data_PCOD9282323
_publ_section_title
;
Structure prediction by ZEFSAII (Michael W. Deem and Ramdas Pophale) SiO2 
 PCOD9282323
Probable space group: C 2/C
;
_chemical_formula_sum "Si O2"
_cell_formula_units_Z 56
_cell_length_a 27.413057
_cell_length_b 4.838661
_cell_length_c 22.030045
_cell_angle_alpha 90.000000
_cell_angle_beta 120.844969
_cell_angle_gamma 90.000000
_cell_volume 2508.808794
_symmetry_space_group_name_H-M "C 2/C"
_symmetry_group_IT_number 15
_symmetry_cell_setting 'monoclinic'
loop_
_space_group_symop_operation_xyz
x,y,z
-x,y,1/2-z
-x,-y,-z
x,-y,1/2+z
1/2+x,1/2+y,z
1/2-x,1/2+y,1/2-z
1/2-x,1/2-y,-z
1/2+x,1/2-y,1/2+z
loop_
_atom_site_type_symbol
_atom_site_label
_atom_site_fract_x
_atom_site_fract_y
_atom_site_fract_z
Si Si1 0.841560 0.105544 0.643738
Si Si2 0.997173 0.711538 0.817474
Si Si3 0.216500 0.010049 0.655334
Si Si4 0.575667 0.304278 0.199654
Si Si5 0.126187 0.385199 0.413006
Si Si6 0.826973 0.497083 0.304061
Si Si7 0.778799 0.658406 0.954524
O O1 0.879239 0.053301 0.726343
O O2 0.853561 0.419895 0.630300
O O3 0.776396 0.022252 0.611955
O O4 0.861777 0.925319 0.599839
O O5 0.958690 0.439752 0.789603
O O6 0.000000 0.825722 0.750000
O O7 0.058841 0.609532 0.878707
O O8 0.968810 0.948657 0.841297
O O9 0.178027 0.814161 0.674933
O O10 0.281571 0.971715 0.719955
O O11 0.207853 0.909304 0.581706
O O12 0.198080 0.318277 0.657737
O O13 0.613253 0.133037 0.175353
O O14 0.166249 0.483376 0.493197
O O15 0.750000 0.750000 0.000000
#
# Coordination Sequence:
#
# PCOD9282323 Si02
#       7
#     8   8   8   8   8   8   8
#     4  11  20  36  56  86 120 153 187 242 299 359
#     4  12  22  35  58  86 121 162 193 251 294 352
#     4  10  21  39  61  87 121 151 200 245 299 355
#     4  12  21  37  60  85 121 150 202 250 296 346
#     4  11  23  36  54  85 124 157 193 228 305 364
#     4  10  22  38  61  89 114 159 199 250 293 343
#     4  10  23  40  62  92 126 159 190 245 311 370
#
# _framework density 22.321349999999999
#
# number of rings (size 3 to 8) (size 9 to 14) (size 15 to 20)
#    0.000    1.143    4.286    2.571    0.000    4.571 
#    0.000    0.000    0.000    5.143    0.000    0.000 
#    0.000    0.000    0.000    0.000    0.000    0.000 
#
# Total GULP energy -156477.664609 kJ/mol
# GULP energy per Si atom -5588.488022 kJ/mol
# Density = 2.227055 g / cm^3
# Si number density = 22.321350 Si / 1000 Ang^3
#
#
#
# Elastic Constant Matrix: (Units=GPa)
#
#
# Indices 1 2 3 4 5 6 
#
# 1 114.9818 16.0534 36.1392 0.0026 23.9149 -0.0010
# 2 16.0534 68.6649 4.8722 0.0070 5.9510 0.0022
# 3 36.1392 4.8722 58.9403 0.0032 9.9349 -0.0015
# 4 0.0026 0.0070 0.0032 19.4567 0.0006 -2.5062
# 5 23.9149 5.9510 9.9349 0.0006 39.5287 -0.0010
# 6 -0.0010 0.0022 -0.0015 -2.5062 -0.0010 37.0597
#
#
#
# Elastic Compliance Matrix: (Units=1/GPa)
#
#
# Indices 1 2 3 4 5 6 
#
# 1 0.012084 -0.001905 -0.006336 0.000000 -0.005432 0.000000
# 2 -0.001905 0.015100 0.000113 -0.000005 -0.001149 -0.000001
# 3 -0.006336 0.000113 0.021092 -0.000002 -0.001485 0.000000
# 4 0.000000 -0.000005 -0.000002 0.051848 0.000001 0.003506
# 5 -0.005432 -0.001149 -0.001485 0.000001 0.029130 0.000001
# 6 0.000000 -0.000001 0.000000 0.003506 0.000001 0.027221
#
#
# Mechanical properties :
#
#
# Convention : Reuss Voigt Hill
#
# Bulk Modulus (GPa) = 31.22916 39.63519 35.43217
# Shear Modulus (GPa) = 27.26200 31.57717 29.41958
#
# Velocity S-wave (km/s) = 3.49856 3.76528 3.63437
# Velocity P-wave (km/s) = 5.50827 6.05791 5.78961
#
# Compressibility (1/GPa) = 0.03202135
#
# Stress axis : x y z
#
# Youngs Moduli (GPa) = 82.75215 66.22344 47.41045
#
# Poissons Ratio (x) = 0.12615 0.30041
# Poissons Ratio (y) = 0.15763 -0.00538
# Poissons Ratio (z) = 0.52436 -0.00751
#
# Static dielectric constant tensor:
#      x y z
#    x 1.858510 -0.000010 0.002560 
#    y -0.000010 1.831080 0.000000 
#    z 0.002560 0.000000 1.845450 
# 
# From -- ./inp_files/256613.got.cif
#   From: 2010.05.17/outbox.cif.g08.bks.cpg/sg15_129_cif.got.tgz:256613.got - 2010.06.03 18:47:42.
