data_PCOD9282124
_publ_section_title
;
Structure prediction by ZEFSAII (Michael W. Deem and Ramdas Pophale) SiO2 
 PCOD9282124
Probable space group: C 2/C
;
_chemical_formula_sum "Si O2"
_cell_formula_units_Z 36
_cell_length_a 5.309489
_cell_length_b 20.155759
_cell_length_c 13.573533
_cell_angle_alpha 90.000000
_cell_angle_beta 102.023152
_cell_angle_gamma 90.000000
_cell_volume 1420.730948
_symmetry_space_group_name_H-M "C 2/C"
_symmetry_group_IT_number 15
_symmetry_cell_setting 'monoclinic'
loop_
_space_group_symop_operation_xyz
x,y,z
-x,y,1/2-z
-x,-y,-z
x,-y,1/2+z
1/2+x,1/2+y,z
1/2-x,1/2+y,1/2-z
1/2-x,1/2-y,-z
1/2+x,1/2-y,1/2+z
loop_
_atom_site_type_symbol
_atom_site_label
_atom_site_fract_x
_atom_site_fract_y
_atom_site_fract_z
Si Si1 0.670228 0.977162 0.638705
Si Si2 0.500000 0.141364 0.250000
Si Si3 0.060778 0.184354 0.593703
Si Si4 0.576207 0.263499 0.631993
Si Si5 0.667598 0.531448 0.632360
O O1 0.420348 0.018366 0.588738
O O2 0.750610 0.011718 0.749503
O O3 0.926315 0.982765 0.595843
O O4 0.573305 0.904552 0.662369
O O5 0.756976 0.182314 0.294946
O O6 0.321099 0.223872 0.646872
O O7 0.089252 0.107282 0.618110
O O8 0.801427 0.211291 0.623012
O O9 0.020276 0.199602 0.474993
#
# Coordination Sequence:
#
# PCOD9282124 Si02
#       5
#     8   4   8   8   8
#     4   9  20  33  53  83 111 146 194 234 274 340
#     4  10  22  40  58  86 120 156 190 238 302 348
#     4  10  21  39  56  85 114 152 195 236 292 339
#     4  10  23  37  58  83 119 151 189 240 287 357
#     4   9  17  34  55  75 111 145 184 243 274 321
#
# _framework density 25.339071000000001
#
# number of rings (size 3 to 8) (size 9 to 14) (size 15 to 20)
#    0.000    2.667    0.000    1.333    0.000   13.333 
#    0.000    5.556    0.000    0.000    0.000    1.556 
#    0.000    0.000    0.000    0.000    0.000    0.000 
#
# Total GULP energy -100710.134553 kJ/mol
# GULP energy per Si atom -5595.007475 kJ/mol
# Density = 2.528140 g / cm^3
# Si number density = 25.339071 Si / 1000 Ang^3
#
#
#
# Elastic Constant Matrix: (Units=GPa)
#
#
# Indices 1 2 3 4 5 6 
#
# 1 166.8075 24.9021 31.2550 0.0000 32.4281 0.0000
# 2 24.9021 117.5808 35.2093 0.0000 21.6836 0.0000
# 3 31.2550 35.2093 78.2208 0.0000 40.8296 0.0000
# 4 0.0000 0.0000 0.0000 14.3910 0.0000 7.3270
# 5 32.4281 21.6836 40.8296 0.0000 55.8097 0.0000
# 6 0.0000 0.0000 0.0000 7.3270 0.0000 14.8103
#
#
#
# Elastic Compliance Matrix: (Units=1/GPa)
#
#
# Indices 1 2 3 4 5 6 
#
# 1 0.006852 -0.000628 -0.000816 0.000000 -0.003140 0.000000
# 2 -0.000628 0.009918 -0.003871 0.000000 -0.000657 0.000000
# 3 -0.000816 -0.003871 0.022358 0.000000 -0.014379 0.000000
# 4 0.000000 0.000000 0.000000 0.092884 0.000000 -0.045952
# 5 -0.003140 -0.000657 -0.014379 0.000000 0.030517 0.000000
# 6 0.000000 0.000000 0.000000 -0.045952 0.000000 0.090254
#
#
# Mechanical properties :
#
#
# Convention : Reuss Voigt Hill
#
# Bulk Modulus (GPa) = 35.08844 60.59353 47.84098
# Shear Modulus (GPa) = 18.32094 35.08504 26.70299
#
# Velocity S-wave (km/s) = 2.69184 3.72509 3.24979
# Velocity P-wave (km/s) = 4.85170 6.51665 5.74481
#
# Compressibility (1/GPa) = 0.02849942
#
# Stress axis : x y z
#
# Youngs Moduli (GPa) = 145.94123 100.82756 44.72641
#
# Poissons Ratio (x) = 0.06328 0.03650
# Poissons Ratio (y) = 0.09160 0.17312
# Poissons Ratio (z) = 0.11911 0.39026
#
# Static dielectric constant tensor:
#      x y z
#    x 1.976390 0.000000 0.061420 
#    y 0.000000 1.905260 0.000000 
#    z 0.061420 0.000000 1.906770 
# 
# From -- ./inp_files/184538.got.cif
#   From: 2010.05.17/outbox.cif.g08.bks.cpg/sg15_93_cif.got.tgz:184538.got - 2010.06.03 18:47:42.
