data_PCOD9282689
_publ_section_title
;
Structure prediction by ZEFSAII (Michael W. Deem and Ramdas Pophale) SiO2 
 PCOD9282689
Probable space group: C 2/C
;
_chemical_formula_sum "Si O2"
_cell_formula_units_Z 64
_cell_length_a 20.579949
_cell_length_b 7.205586
_cell_length_c 17.503776
_cell_angle_alpha 90.000000
_cell_angle_beta 69.888849
_cell_angle_gamma 90.000000
_cell_volume 2437.381941
_symmetry_space_group_name_H-M "C 2/C"
_symmetry_group_IT_number 15
_symmetry_cell_setting 'monoclinic'
loop_
_space_group_symop_operation_xyz
x,y,z
-x,y,1/2-z
-x,-y,-z
x,-y,1/2+z
1/2+x,1/2+y,z
1/2-x,1/2+y,1/2-z
1/2-x,1/2-y,-z
1/2+x,1/2-y,1/2+z
loop_
_atom_site_type_symbol
_atom_site_label
_atom_site_fract_x
_atom_site_fract_y
_atom_site_fract_z
Si Si1 0.141854 0.329115 0.692450
Si Si2 0.301634 0.678118 0.412667
Si Si3 0.732650 0.790904 0.409906
Si Si4 0.967278 0.363256 0.586405
Si Si5 0.950627 0.361345 0.335790
Si Si6 0.229827 0.389677 0.232102
Si Si7 0.409811 0.786836 0.068017
Si Si8 0.613808 0.467643 0.308272
O O1 0.080179 0.457627 0.694086
O O2 0.176919 0.438038 0.748948
O O3 0.123593 0.115133 0.718116
O O4 0.205003 0.354582 0.607008
O O5 0.250000 0.750000 0.500000
O O6 0.270605 0.470909 0.424771
O O7 0.383888 0.737955 0.390276
O O8 0.289926 0.753354 0.329442
O O9 0.724748 0.822772 0.321152
O O10 0.655185 0.732801 0.459654
O O11 0.006758 0.529436 0.615916
O O12 0.019452 0.267229 0.506676
O O13 0.906257 0.488418 0.575653
O O14 0.937543 0.192537 0.644002
O O15 0.000000 0.268809 0.250000
O O16 0.309497 0.442892 0.188333
O O17 0.409887 0.662945 0.145672
#
# Coordination Sequence:
#
# PCOD9282689 Si02
#       8
#     8   8   8   8   8   8   8   8
#     4  10  21  39  64 101 128 177 237 304 344 429
#     4  11  25  44  69 108 150 191 240 312 391 446
#     4  11  21  41  69 104 129 177 251 306 353 438
#     4  11  24  44  65  99 147 186 230 297 369 450
#     4  11  24  45  68  97 150 201 234 295 380 456
#     4  10  21  39  70  99 133 179 244 308 359 429
#     4  11  24  41  71 103 135 182 240 305 370 426
#     4  11  21  40  69 100 137 174 242 295 363 426
#
# _framework density 26.257681000000002
#
# number of rings (size 3 to 8) (size 9 to 14) (size 15 to 20)
#    0.000    1.250    2.500    4.125    3.500    1.000 
#    4.500    2.500    0.000    0.000    0.000    0.000 
#    0.000    0.000    0.000    0.000    0.000    0.000 
#
# Total GULP energy -178299.088532 kJ/mol
# GULP energy per Si atom -5571.846517 kJ/mol
# Density = 2.619792 g / cm^3
# Si number density = 26.257681 Si / 1000 Ang^3
#
#
#
# Elastic Constant Matrix: (Units=GPa)
#
#
# Indices 1 2 3 4 5 6 
#
# 1 79.5346 16.7357 33.5881 0.0000 -10.7619 0.0000
# 2 16.7357 86.4184 20.3561 0.0000 -11.4670 -0.0001
# 3 33.5881 20.3561 117.3302 0.0000 -23.0435 0.0000
# 4 0.0000 0.0000 0.0000 50.3296 0.0000 -11.5562
# 5 -10.7619 -11.4670 -23.0435 0.0000 40.8774 0.0000
# 6 0.0000 -0.0001 0.0000 -11.5562 0.0000 40.7034
#
#
#
# Elastic Compliance Matrix: (Units=1/GPa)
#
#
# Indices 1 2 3 4 5 6 
#
# 1 0.014663 -0.001812 -0.003626 0.000000 0.001308 0.000000
# 2 -0.001812 0.012516 -0.001188 0.000000 0.002364 0.000000
# 3 -0.003626 -0.001188 0.010699 0.000000 0.004743 0.000000
# 4 0.000000 0.000000 0.000000 0.021255 0.000000 0.006034
# 5 0.001308 0.002364 0.004743 0.000000 0.028145 0.000000
# 6 0.000000 0.000000 0.000000 0.006034 0.000000 0.026281
#
#
# Mechanical properties :
#
#
# Convention : Reuss Voigt Hill
#
# Bulk Modulus (GPa) = 40.61017 47.18255 43.89636
# Shear Modulus (GPa) = 37.03167 40.55564 38.79366
#
# Velocity S-wave (km/s) = 3.75949 3.93431 3.84789
# Velocity P-wave (km/s) = 5.86043 6.21662 6.04115
#
# Compressibility (1/GPa) = 0.02462437
#
# Stress axis : x y z
#
# Youngs Moduli (GPa) = 68.19989 79.89685 93.46864
#
# Poissons Ratio (x) = 0.14476 0.33895
# Poissons Ratio (y) = 0.12357 0.11109
# Poissons Ratio (z) = 0.24731 0.09496
#
# Static dielectric constant tensor:
#      x y z
#    x 2.277970 0.000000 -0.013220 
#    y 0.000000 2.133530 0.000000 
#    z -0.013220 0.000000 2.244500 
# 
# From -- ./inp_files/251887.got.cif
#   From: 2010.05.17/outbox.cif.g08.bks.cpg/sg15_126_cif.got.tgz:251887.got - 2010.06.03 18:47:42.
