data_PCOD9282261
_publ_section_title
;
Structure prediction by ZEFSAII (Michael W. Deem and Ramdas Pophale) SiO2 
 PCOD9282261
Probable space group: C 2/C
;
_chemical_formula_sum "Si O2"
_cell_formula_units_Z 60
_cell_length_a 23.247350
_cell_length_b 8.157567
_cell_length_c 14.253589
_cell_angle_alpha 90.000000
_cell_angle_beta 113.614192
_cell_angle_gamma 90.000000
_cell_volume 2476.730424
_symmetry_space_group_name_H-M "C 2/C"
_symmetry_group_IT_number 15
_symmetry_cell_setting 'monoclinic'
loop_
_space_group_symop_operation_xyz
x,y,z
-x,y,1/2-z
-x,-y,-z
x,-y,1/2+z
1/2+x,1/2+y,z
1/2-x,1/2+y,1/2-z
1/2-x,1/2-y,-z
1/2+x,1/2-y,1/2+z
loop_
_atom_site_type_symbol
_atom_site_label
_atom_site_fract_x
_atom_site_fract_y
_atom_site_fract_z
Si Si1 0.629601 0.892293 0.740098
Si Si2 0.500000 0.639857 0.250000
Si Si3 0.246012 0.273886 0.109988
Si Si4 0.925011 0.052557 0.843952
Si Si5 0.427578 0.043409 0.968363
Si Si6 0.116525 0.882585 0.505935
Si Si7 0.116968 0.640374 0.889368
Si Si8 0.823568 0.938823 0.636228
O O1 0.583930 0.742088 0.685872
O O2 0.698966 0.814043 0.794799
O O3 0.611430 0.032953 0.653929
O O4 0.619433 0.972648 0.834010
O O5 0.516337 0.526264 0.171612
O O6 0.442583 0.756056 0.184831
O O7 0.180870 0.191006 0.092215
O O8 0.259493 0.469051 0.122023
O O9 0.250000 0.250000 0.000000
O O10 0.916063 0.013176 0.946939
O O11 0.867376 0.959572 0.754826
O O12 0.425539 0.219595 0.017800
O O13 0.500000 0.000000 0.000000
O O14 0.393996 0.908832 0.011545
O O15 0.138873 0.959172 0.421582
O O16 0.176281 0.754072 0.901414
#
# Coordination Sequence:
#
# PCOD9282261 Si02
#       8
#     8   4   8   8   8   8   8   8
#     4  11  24  41  64  97 129 171 225 280 345 412
#     4  10  22  40  64  88 126 180 222 274 334 402
#     4   9  20  42  67  92 126 169 218 276 334 399
#     4  10  21  39  60  89 123 166 221 271 329 402
#     4  12  25  39  61  96 135 178 228 283 345 419
#     4  11  22  42  65  92 131 175 223 279 339 408
#     4  11  21  40  62  92 132 171 219 278 340 406
#     4   9  20  39  63  91 125 167 215 275 342 404
#
# _framework density 24.225486
#
# number of rings (size 3 to 8) (size 9 to 14) (size 15 to 20)
#    0.000    1.600    0.000    6.400    0.000    5.867 
#    0.000   12.000    0.000    0.000    0.000    0.000 
#    0.000    0.000    0.000    0.000    0.000    0.000 
#
# Total GULP energy -167686.670455 kJ/mol
# GULP energy per Si atom -5589.555682 kJ/mol
# Density = 2.417035 g / cm^3
# Si number density = 24.225486 Si / 1000 Ang^3
#
#
#
# Elastic Constant Matrix: (Units=GPa)
#
#
# Indices 1 2 3 4 5 6 
#
# 1 80.6105 26.5970 23.9109 0.0000 1.8179 0.0000
# 2 26.5970 105.5873 5.4551 0.0000 -12.3550 0.0000
# 3 23.9109 5.4551 89.3870 0.0000 -10.4520 0.0000
# 4 0.0000 0.0000 0.0000 43.9398 0.0000 -9.8572
# 5 1.8179 -12.3550 -10.4520 0.0000 33.6843 0.0000
# 6 0.0000 0.0000 0.0000 -9.8572 0.0000 31.1600
#
#
#
# Elastic Compliance Matrix: (Units=1/GPa)
#
#
# Indices 1 2 3 4 5 6 
#
# 1 0.015049 -0.003993 -0.004201 0.000000 -0.003580 0.000000
# 2 -0.003993 0.010958 0.000928 0.000000 0.004523 0.000000
# 3 -0.004201 0.000928 0.012785 0.000000 0.004534 0.000000
# 4 0.000000 0.000000 0.000000 0.024497 0.000000 0.007749
# 5 -0.003580 0.004523 0.004534 0.000000 0.032946 0.000000
# 6 0.000000 0.000000 0.000000 0.007749 0.000000 0.034544
#
#
# Mechanical properties :
#
#
# Convention : Reuss Voigt Hill
#
# Bulk Modulus (GPa) = 41.21794 43.05674 42.13734
# Shear Modulus (GPa) = 32.59520 36.39826 34.49673
#
# Velocity S-wave (km/s) = 3.67207 3.88039 3.77767
# Velocity P-wave (km/s) = 5.91862 6.15536 6.03815
#
# Compressibility (1/GPa) = 0.02426128
#
# Stress axis : x y z
#
# Youngs Moduli (GPa) = 66.44746 91.25863 78.21962
#
# Poissons Ratio (x) = 0.36438 0.32857
# Poissons Ratio (y) = 0.26531 -0.07260
# Poissons Ratio (z) = 0.27912 -0.08470
#
# Static dielectric constant tensor:
#      x y z
#    x 1.981810 0.000000 -0.018000 
#    y 0.000000 1.971930 0.000000 
#    z -0.018000 0.000000 1.978700 
# 
# From -- ./inp_files/171895.got.cif
#   From: 2010.05.17/outbox.cif.g08.bks.cpg/sg15_86_cif.got.tgz:171895.got - 2010.06.03 18:47:42.
