data_PCOD9282534
_publ_section_title
;
Structure prediction by ZEFSAII (Michael W. Deem and Ramdas Pophale) SiO2 
 PCOD9282534
Probable space group: C 2/C
;
_chemical_formula_sum "Si O2"
_cell_formula_units_Z 56
_cell_length_a 19.070014
_cell_length_b 10.877352
_cell_length_c 11.265333
_cell_angle_alpha 90.000000
_cell_angle_beta 93.698974
_cell_angle_gamma 90.000000
_cell_volume 2331.914115
_symmetry_space_group_name_H-M "C 2/C"
_symmetry_group_IT_number 15
_symmetry_cell_setting 'monoclinic'
loop_
_space_group_symop_operation_xyz
x,y,z
-x,y,1/2-z
-x,-y,-z
x,-y,1/2+z
1/2+x,1/2+y,z
1/2-x,1/2+y,1/2-z
1/2-x,1/2-y,-z
1/2+x,1/2-y,1/2+z
loop_
_atom_site_type_symbol
_atom_site_label
_atom_site_fract_x
_atom_site_fract_y
_atom_site_fract_z
Si Si1 0.102321 0.742186 0.448439
Si Si2 0.288261 0.336791 0.347127
Si Si3 0.921261 0.498831 0.193310
Si Si4 0.663774 0.135104 0.000115
Si Si5 0.497805 0.666988 0.113789
Si Si6 0.392712 0.502730 0.986753
Si Si7 0.194857 0.601294 0.632562
O O1 0.095910 0.638956 0.348228
O O2 0.111741 0.886683 0.424959
O O3 0.164101 0.706255 0.545697
O O4 0.032096 0.740310 0.523220
O O5 0.340109 0.227010 0.389854
O O6 0.214724 0.307710 0.406208
O O7 0.325688 0.456975 0.404367
O O8 0.262191 0.355138 0.211900
O O9 0.866222 0.446462 0.283804
O O10 0.000000 0.492288 0.250000
O O11 0.904550 0.417492 0.073446
O O12 0.705801 0.016875 0.052576
O O13 0.500000 0.707178 0.250000
O O14 0.422683 0.618444 0.062725
O O15 0.549027 0.547392 0.101269
#
# Coordination Sequence:
#
# PCOD9282534 Si02
#       7
#     8   8   8   8   8   8   8
#     4   9  21  41  60  88 128 150 211 254 305 371
#     4  10  21  39  63  81 127 159 200 258 303 358
#     4  10  22  41  62  87 123 163 200 257 311 365
#     4   9  22  41  57  92 120 157 214 245 299 388
#     4   9  20  39  62  91 124 156 203 253 313 366
#     4   9  21  39  59  95 117 157 209 255 301 371
#     4  10  22  39  59  90 120 164 204 248 312 371
#
# _framework density 24.014607999999999
#
# number of rings (size 3 to 8) (size 9 to 14) (size 15 to 20)
#    0.857    1.714    0.000    0.000    2.000   10.286 
#    5.143    2.143    0.000    0.000    0.000    0.000 
#    0.000    0.000    0.000    0.000    0.000    0.000 
#
# Total GULP energy -156280.576275 kJ/mol
# GULP energy per Si atom -5581.449153 kJ/mol
# Density = 2.395995 g / cm^3
# Si number density = 24.014608 Si / 1000 Ang^3
#
#
#
# Elastic Constant Matrix: (Units=GPa)
#
#
# Indices 1 2 3 4 5 6 
#
# 1 76.5825 18.9971 54.9855 0.0000 17.9136 0.0000
# 2 18.9971 71.0920 20.9600 0.0000 24.9782 0.0000
# 3 54.9855 20.9600 105.7903 0.0000 32.8169 0.0000
# 4 0.0000 0.0000 0.0000 4.7653 0.0000 10.1094
# 5 17.9136 24.9782 32.8169 0.0000 53.1833 0.0000
# 6 0.0000 0.0000 0.0000 10.1094 0.0000 17.4573
#
#
#
# Elastic Compliance Matrix: (Units=1/GPa)
#
#
# Indices 1 2 3 4 5 6 
#
# 1 0.021289 -0.002791 -0.010753 0.000000 0.000775 0.000000
# 2 -0.002791 0.017315 0.000311 0.000000 -0.007384 0.000000
# 3 -0.010753 0.000311 0.017193 0.000000 -0.007133 0.000000
# 4 0.000000 0.000000 0.000000 -0.918306 0.000000 0.531786
# 5 0.000775 -0.007384 -0.007133 0.000000 0.026411 0.000000
# 6 0.000000 0.000000 0.000000 0.531786 0.000000 -0.250672
#
#
# Mechanical properties :
#
#
# Convention : Reuss Voigt Hill
#
# Bulk Modulus (GPa) = 34.09443 49.26112 41.67778
# Shear Modulus (GPa) = -4.75952 25.64933 10.44491
#
# Velocity S-wave (km/s) = -1.40934 3.27168 2.08778
# Velocity P-wave (km/s) = 3.40292 5.90164 4.81712
#
# Compressibility (1/GPa) = 0.02933030
#
# Stress axis : x y z
#
# Youngs Moduli (GPa) = 46.97216 57.75424 58.16462
#
# Poissons Ratio (x) = 0.16119 0.62543
# Poissons Ratio (y) = 0.13110 -0.01806
# Poissons Ratio (z) = 0.50508 -0.01793
#
# Static dielectric constant tensor:
#      x y z
#    x 1.954470 0.000000 -0.030360 
#    y 0.000000 1.936710 0.000000 
#    z -0.030360 0.000000 1.922520 
# 
# From -- ./inp_files/111688.got.cif
#   From: 2010.05.17/outbox.cif.g08.bks.cpg/sg15_56_cif.got.tgz:111688.got - 2010.06.03 18:47:42.
