data_PCOD9282999
_publ_section_title
;
Structure prediction by ZEFSAII (Michael W. Deem and Ramdas Pophale) SiO2 
 PCOD9282999
Probable space group: C 2/C
;
_chemical_formula_sum "Si O2"
_cell_formula_units_Z 56
_cell_length_a 16.893464
_cell_length_b 8.839948
_cell_length_c 19.740325
_cell_angle_alpha 90.000000
_cell_angle_beta 97.794969
_cell_angle_gamma 90.000000
_cell_volume 2920.727743
_symmetry_space_group_name_H-M "C 2/C"
_symmetry_group_IT_number 15
_symmetry_cell_setting 'monoclinic'
loop_
_space_group_symop_operation_xyz
x,y,z
-x,y,1/2-z
-x,-y,-z
x,-y,1/2+z
1/2+x,1/2+y,z
1/2-x,1/2+y,1/2-z
1/2-x,1/2-y,-z
1/2+x,1/2-y,1/2+z
loop_
_atom_site_type_symbol
_atom_site_label
_atom_site_fract_x
_atom_site_fract_y
_atom_site_fract_z
Si Si1 0.742783 0.850306 0.166240
Si Si2 0.072595 0.855788 0.112845
Si Si3 0.615071 0.321412 0.563556
Si Si4 0.959056 0.651091 0.521496
Si Si5 0.783951 0.297454 0.809338
Si Si6 0.813339 0.748700 0.568659
Si Si7 0.112128 0.083200 0.909217
O O1 0.681369 0.781273 0.105419
O O2 0.745677 0.752014 0.234418
O O3 0.829203 0.852852 0.140758
O O4 0.718314 0.022211 0.181147
O O5 0.127241 0.771571 0.173766
O O6 0.980799 0.894158 0.119836
O O7 0.113653 0.012251 0.095486
O O8 0.069651 0.747531 0.046684
O O9 0.528257 0.247594 0.565204
O O10 0.624717 0.338452 0.483822
O O11 0.881895 0.627435 0.559360
O O12 0.000000 0.500000 0.500000
O O13 0.733419 0.230415 0.866698
O O14 0.750000 0.750000 0.500000
O O15 0.860553 0.908822 0.577777
#
# Coordination Sequence:
#
# PCOD9282999 Si02
#       7
#     8   8   8   8   8   8   8
#     4  11  25  42  62  90 123 170 208 256 312 381
#     4  11  20  41  64  91 126 157 202 265 308 370
#     4  11  20  39  66  93 126 153 208 259 313 367
#     4  11  21  36  60  99 125 157 199 259 313 369
#     4  11  24  42  64  87 127 163 213 253 315 373
#     4  11  20  39  66  93 124 165 204 254 316 374
#     4  10  21  39  66  93 121 164 210 253 316 366
#
# _framework density 19.173304999999999
#
# number of rings (size 3 to 8) (size 9 to 14) (size 15 to 20)
#    0.000    1.143    4.286    3.000    2.000    0.571 
#   10.286    0.714    3.143    0.000    0.000    0.000 
#    0.000    0.000    0.000    0.000    0.000    0.000 
#
# Total GULP energy -156457.511265 kJ/mol
# GULP energy per Si atom -5587.768259 kJ/mol
# Density = 1.912967 g / cm^3
# Si number density = 19.173305 Si / 1000 Ang^3
#
#
#
# Elastic Constant Matrix: (Units=GPa)
#
#
# Indices 1 2 3 4 5 6 
#
# 1 106.4610 32.7519 38.3971 0.0000 -3.8456 0.0000
# 2 32.7519 88.6988 13.5772 0.0000 -1.0055 0.0000
# 3 38.3971 13.5772 60.8980 0.0000 -6.6354 0.0000
# 4 0.0000 0.0000 0.0000 30.1413 0.0000 4.7729
# 5 -3.8456 -1.0055 -6.6354 0.0000 22.2579 0.0000
# 6 0.0000 0.0000 0.0000 4.7729 0.0000 28.8869
#
#
#
# Elastic Compliance Matrix: (Units=1/GPa)
#
#
# Indices 1 2 3 4 5 6 
#
# 1 0.013259 -0.003743 -0.007539 0.000000 -0.000126 0.000000
# 2 -0.003743 0.012731 -0.000502 0.000000 -0.000221 0.000000
# 3 -0.007539 -0.000502 0.021852 0.000000 0.005189 0.000000
# 4 0.000000 0.000000 0.000000 0.034068 0.000000 -0.005629
# 5 -0.000126 -0.000221 0.005189 0.000000 0.046443 0.000000
# 6 0.000000 0.000000 0.000000 -0.005629 0.000000 0.035548
#
#
# Mechanical properties :
#
#
# Convention : Reuss Voigt Hill
#
# Bulk Modulus (GPa) = 41.19941 47.27892 44.23917
# Shear Modulus (GPa) = 25.56736 27.67934 26.62335
#
# Velocity S-wave (km/s) = 3.65566 3.80365 3.73039
# Velocity P-wave (km/s) = 6.27320 6.63344 6.45583
#
# Compressibility (1/GPa) = 0.02427219
#
# Stress axis : x y z
#
# Youngs Moduli (GPa) = 75.41819 78.55026 45.76250
#
# Poissons Ratio (x) = 0.29404 0.34502
# Poissons Ratio (y) = 0.28232 0.02298
# Poissons Ratio (z) = 0.56861 0.03945
#
# Static dielectric constant tensor:
#      x y z
#    x 1.691090 0.000000 -0.003160 
#    y 0.000000 1.685910 0.000000 
#    z -0.003160 0.000000 1.634580 
# 
# From -- ./inp_files/209648.got.cif
#   From: 2010.05.17/outbox.cif.g08.bks.cpg/sg15_105_cif.got.tgz:209648.got - 2010.06.03 18:47:42.
