data_PCOD9282952
_publ_section_title
;
Structure prediction by ZEFSAII (Michael W. Deem and Ramdas Pophale) SiO2 
 PCOD9282952
Probable space group: C 2/C
;
_chemical_formula_sum "Si O2"
_cell_formula_units_Z 64
_cell_length_a 12.387471
_cell_length_b 13.133442
_cell_length_c 25.849913
_cell_angle_alpha 90.000000
_cell_angle_beta 46.861966
_cell_angle_gamma 90.000000
_cell_volume 3068.808084
_symmetry_space_group_name_H-M "C 2/C"
_symmetry_group_IT_number 15
_symmetry_cell_setting 'monoclinic'
loop_
_space_group_symop_operation_xyz
x,y,z
-x,y,1/2-z
-x,-y,-z
x,-y,1/2+z
1/2+x,1/2+y,z
1/2-x,1/2+y,1/2-z
1/2-x,1/2-y,-z
1/2+x,1/2-y,1/2+z
loop_
_atom_site_type_symbol
_atom_site_label
_atom_site_fract_x
_atom_site_fract_y
_atom_site_fract_z
Si Si1 0.830709 0.194363 0.251161
Si Si2 0.672876 0.907280 0.974107
Si Si3 0.832391 0.268787 0.362182
Si Si4 0.584059 0.286652 0.278075
Si Si5 0.273429 0.971864 0.209589
Si Si6 0.660840 0.107273 0.926379
Si Si7 0.193116 0.290827 0.574025
Si Si8 0.616228 0.975460 0.108979
O O1 0.776244 0.242029 0.323277
O O2 0.728113 0.215377 0.235159
O O3 0.993844 0.239117 0.190858
O O4 0.816317 0.075346 0.265675
O O5 0.758204 0.807132 0.928061
O O6 0.738194 0.015767 0.933240
O O7 0.510684 0.896222 0.001716
O O8 0.642424 0.923174 0.044436
O O9 0.818396 0.389436 0.375049
O O10 0.500000 0.290973 0.250000
O O11 0.657623 0.392634 0.271028
O O12 0.471562 0.245375 0.357736
O O13 0.310080 0.925360 0.141486
O O14 0.438977 0.986514 0.178332
O O15 0.712125 0.221879 0.918026
O O16 0.250000 0.250000 0.500000
O O17 0.189561 0.412560 0.582685
#
# Coordination Sequence:
#
# PCOD9282952 Si02
#       8
#     8   8   8   8   8   8   8   8
#     4  11  25  43  69  98 133 181 227 283 344 417
#     4  10  21  39  70  94 133 180 224 289 332 402
#     4  11  24  42  68 102 138 175 231 278 350 414
#     4  12  26  45  68 103 137 177 236 291 341 406
#     4  11  22  43  67  98 132 177 239 285 335 409
#     4  10  21  39  66 100 128 177 236 281 334 400
#     4  12  25  41  69 100 140 183 231 280 344 417
#     4  11  23  43  64  97 143 180 220 279 359 408
#
# _framework density 20.855003
#
# number of rings (size 3 to 8) (size 9 to 14) (size 15 to 20)
#    0.000    1.000    6.250    0.375    5.250    0.000 
#    4.500    0.625    0.000    0.000    0.000    0.000 
#    0.000    0.000    0.000    0.000    0.000    0.000 
#
# Total GULP energy -178370.610780 kJ/mol
# GULP energy per Si atom -5574.081587 kJ/mol
# Density = 2.080754 g / cm^3
# Si number density = 20.855003 Si / 1000 Ang^3
#
#
#
# Elastic Constant Matrix: (Units=GPa)
#
#
# Indices 1 2 3 4 5 6 
#
# 1 41.4657 23.9537 5.4750 0.0000 -11.9254 0.0000
# 2 23.9537 187.0350 48.8690 0.0000 -2.8890 0.0000
# 3 5.4750 48.8690 54.1288 0.0000 -13.1572 0.0000
# 4 0.0000 0.0000 0.0000 32.8665 0.0000 -5.3386
# 5 -11.9254 -2.8890 -13.1572 0.0000 13.1174 0.0000
# 6 0.0000 0.0000 0.0000 -5.3386 0.0000 24.9884
#
#
#
# Elastic Compliance Matrix: (Units=1/GPa)
#
#
# Indices 1 2 3 4 5 6 
#
# 1 0.042515 -0.009026 0.016875 0.000000 0.053589 0.000000
# 2 -0.009026 0.009337 -0.011916 0.000000 -0.018102 0.000000
# 3 0.016875 -0.011916 0.040489 0.000000 0.053328 0.000000
# 4 0.000000 0.000000 0.000000 0.031520 0.000000 0.006734
# 5 0.053589 -0.018102 0.053328 0.000000 0.174457 0.000000
# 6 0.000000 0.000000 0.000000 0.006734 0.000000 0.041457
#
#
# Mechanical properties :
#
#
# Convention : Reuss Voigt Hill
#
# Bulk Modulus (GPa) = 11.87585 48.80275 30.33930
# Shear Modulus (GPa) = 13.29865 27.81658 20.55762
#
# Velocity S-wave (km/s) = 2.52796 3.65610 3.14306
# Velocity P-wave (km/s) = 3.77195 6.42452 5.26793
#
# Compressibility (1/GPa) = 0.08420448
#
# Stress axis : x y z
#
# Youngs Moduli (GPa) = 23.52129 107.10592 24.69821
#
# Poissons Ratio (x) = 0.96677 -0.41678
# Poissons Ratio (y) = 0.21231 0.29432
# Poissons Ratio (z) = -0.39692 1.27633
#
# Static dielectric constant tensor:
#      x y z
#    x 1.799990 0.000000 0.002100 
#    y 0.000000 1.800010 0.000000 
#    z 0.002100 0.000000 1.789140 
# 
# From -- ./inp_files/313599.got.cif
#   From: 2010.05.17/outbox.cif.g08.bks.cpg/sg15_157_cif.got.tgz:313599.got - 2010.06.03 18:47:42.
