data_PCOD9282079
_publ_section_title
;
Structure prediction by ZEFSAII (Michael W. Deem and Ramdas Pophale) SiO2 
 PCOD9282079
Probable space group: C 2/C
;
_chemical_formula_sum "Si O2"
_cell_formula_units_Z 40
_cell_length_a 20.929416
_cell_length_b 7.592458
_cell_length_c 24.913119
_cell_angle_alpha 90.000000
_cell_angle_beta 154.929337
_cell_angle_gamma 90.000000
_cell_volume 1677.500495
_symmetry_space_group_name_H-M "C 2/C"
_symmetry_group_IT_number 15
_symmetry_cell_setting 'monoclinic'
loop_
_space_group_symop_operation_xyz
x,y,z
-x,y,1/2-z
-x,-y,-z
x,-y,1/2+z
1/2+x,1/2+y,z
1/2-x,1/2+y,1/2-z
1/2-x,1/2-y,-z
1/2+x,1/2-y,1/2+z
loop_
_atom_site_type_symbol
_atom_site_label
_atom_site_fract_x
_atom_site_fract_y
_atom_site_fract_z
Si Si1 0.554817 0.665397 0.576752
Si Si2 0.433162 0.749610 0.800629
Si Si3 0.348125 0.744532 0.021420
Si Si4 0.678639 0.854499 0.292502
Si Si5 0.310161 0.131775 0.951401
O O1 0.500000 0.500000 0.500000
O O2 0.603133 0.630351 0.675043
O O3 0.701114 0.729117 0.656584
O O4 0.416589 0.799576 0.482920
O O5 0.358315 0.679034 0.690831
O O6 0.368246 0.947136 0.761024
O O7 0.612446 0.770896 0.939431
O O8 0.267340 0.617755 0.916600
O O9 0.328129 0.927999 0.974925
O O10 0.250000 0.750000 0.000000
O O11 0.523712 0.742148 0.172795
#
# Coordination Sequence:
#
# PCOD9282079 Si02
#       5
#     8   8   8   8   8
#     4  10  21  38  70 104 149 173 223 298 383 438
#     4   9  20  38  63 104 140 178 224 282 368 436
#     4  11  26  45  64  95 141 196 253 294 341 424
#     4  11  23  40  68 100 140 189 237 296 364 429
#     4   9  21  40  67  98 140 180 229 291 364 433
#
# _framework density 23.844999999999999
#
# number of rings (size 3 to 8) (size 9 to 14) (size 15 to 20)
#    1.200    0.800    2.000    0.600    2.800    5.600 
#    0.000    1.000    0.000    2.400    0.000    0.000 
#    0.000    0.000    0.000    0.000    0.000    0.000 
#
# Total GULP energy -111495.469698 kJ/mol
# GULP energy per Si atom -5574.773485 kJ/mol
# Density = 2.379073 g / cm^3
# Si number density = 23.845000 Si / 1000 Ang^3
#
#
#
# Elastic Constant Matrix: (Units=GPa)
#
#
# Indices 1 2 3 4 5 6 
#
# 1 88.7112 35.9877 37.4301 -0.0001 20.9237 0.0000
# 2 35.9877 73.5295 27.2842 0.0001 -1.8974 0.0003
# 3 37.4301 27.2842 170.4808 0.0000 -9.2332 0.0006
# 4 -0.0001 0.0001 0.0000 41.3852 0.0001 -19.5818
# 5 20.9237 -1.8974 -9.2332 0.0001 34.7326 0.0005
# 6 0.0000 0.0003 0.0006 -19.5818 0.0005 -22.3312
#
#
#
# Elastic Compliance Matrix: (Units=1/GPa)
#
#
# Indices 1 2 3 4 5 6 
#
# 1 0.019287 -0.008444 -0.003589 0.000000 -0.013034 0.000000
# 2 -0.008444 0.018157 -0.000733 0.000000 0.005884 0.000000
# 3 -0.003589 -0.000733 0.006987 0.000000 0.003979 0.000000
# 4 0.000000 0.000000 0.000000 0.017078 0.000000 -0.014975
# 5 -0.013034 0.005884 0.003979 0.000000 0.038023 0.000001
# 6 0.000000 0.000000 0.000000 -0.014975 0.000001 -0.031649
#
#
# Mechanical properties :
#
#
# Convention : Reuss Voigt Hill
#
# Bulk Modulus (GPa) = 52.91758 59.34729 56.13243
# Shear Modulus (GPa) = 50.14397 26.22530 38.18464
#
# Velocity S-wave (km/s) = 4.59073 3.31996 4.00605
# Velocity P-wave (km/s) = 7.09508 6.29595 6.70743
#
# Compressibility (1/GPa) = 0.01889731
#
# Stress axis : x y z
#
# Youngs Moduli (GPa) = 51.84940 55.07607 143.13080
#
# Poissons Ratio (x) = 0.46507 0.51370
# Poissons Ratio (y) = 0.43782 0.10495
# Poissons Ratio (z) = 0.18609 0.04038
#
# Static dielectric constant tensor:
#      x y z
#    x 1.884230 0.000000 -0.027490 
#    y 0.000000 2.121070 0.000000 
#    z -0.027490 0.000000 2.014300 
# 
# From -- ./inp_files/300407.got.cif
#   From: 2010.05.17/outbox.cif.g08.bks.cpg/sg15_151_cif.got.tgz:300407.got - 2010.06.03 18:47:42.
