data_PCOD9282300
_publ_section_title
;
Structure prediction by ZEFSAII (Michael W. Deem and Ramdas Pophale) SiO2 
 PCOD9282300
Probable space group: C 2/C
;
_chemical_formula_sum "Si O2"
_cell_formula_units_Z 36
_cell_length_a 30.404043
_cell_length_b 5.099220
_cell_length_c 11.193068
_cell_angle_alpha 90.000000
_cell_angle_beta 130.268760
_cell_angle_gamma 90.000000
_cell_volume 1324.099581
_symmetry_space_group_name_H-M "C 2/C"
_symmetry_group_IT_number 15
_symmetry_cell_setting 'monoclinic'
loop_
_space_group_symop_operation_xyz
x,y,z
-x,y,1/2-z
-x,-y,-z
x,-y,1/2+z
1/2+x,1/2+y,z
1/2-x,1/2+y,1/2-z
1/2-x,1/2-y,-z
1/2+x,1/2-y,1/2+z
loop_
_atom_site_type_symbol
_atom_site_label
_atom_site_fract_x
_atom_site_fract_y
_atom_site_fract_z
Si Si1 0.409263 0.999046 0.905960
Si Si2 0.179606 0.814070 0.085126
Si Si3 0.785996 0.673963 0.948183
Si Si4 0.062691 0.001895 0.671883
Si Si5 0.500000 0.815064 0.250000
O O1 0.360352 0.853491 0.896504
O O2 0.417563 0.799648 0.809409
O O3 0.401433 0.294047 0.846003
O O4 0.466260 0.981048 0.090630
O O5 0.188095 0.613199 0.991186
O O6 0.239100 0.854641 0.260758
O O7 0.168766 0.101270 0.011743
O O8 0.750000 0.750000 0.000000
O O9 0.048377 0.870683 0.773622
O O10 0.000000 0.000000 0.500000
#
# Coordination Sequence:
#
# PCOD9282300 Si02
#       5
#     8   8   8   8   4
#     4  11  23  38  58  85 115 149 191 233 279 336
#     4  10  22  38  58  87 115 145 190 235 278 340
#     4  10  21  39  61  84 115 149 185 234 288 336
#     4  10  22  38  56  81 113 150 191 235 277 330
#     4  10  22  38  58  80 114 152 186 230 282 330
#
# _framework density 27.188288
#
# number of rings (size 3 to 8) (size 9 to 14) (size 15 to 20)
#    0.000    1.778    0.000    4.667    0.000   11.556 
#    0.000    0.000    0.000    0.000    0.000    0.000 
#    0.000    0.000    0.000    0.000    0.000    0.000 
#
# Total GULP energy -100787.411054 kJ/mol
# GULP energy per Si atom -5599.300614 kJ/mol
# Density = 2.712641 g / cm^3
# Si number density = 27.188288 Si / 1000 Ang^3
#
#
#
# Elastic Constant Matrix: (Units=GPa)
#
#
# Indices 1 2 3 4 5 6 
#
# 1 65.6041 -13.9144 2.3315 0.0000 -6.1004 0.0000
# 2 -13.9144 110.3081 42.0653 0.0000 2.9436 0.0000
# 3 2.3315 42.0653 82.6735 0.0000 7.6673 0.0000
# 4 0.0000 0.0000 0.0000 19.2157 0.0000 -6.1442
# 5 -6.1004 2.9436 7.6673 0.0000 40.4929 0.0000
# 6 0.0000 0.0000 0.0000 -6.1442 0.0000 52.0223
#
#
#
# Elastic Compliance Matrix: (Units=1/GPa)
#
#
# Indices 1 2 3 4 5 6 
#
# 1 0.016150 0.002772 -0.002110 0.000000 0.002631 0.000000
# 2 0.002772 0.011727 -0.006112 0.000000 0.000722 0.000000
# 3 -0.002110 -0.006112 0.015526 0.000000 -0.002813 0.000000
# 4 0.000000 0.000000 0.000000 0.054083 0.000000 0.006388
# 5 0.002631 0.000722 -0.002813 0.000000 0.025572 0.000000
# 6 0.000000 0.000000 0.000000 0.006388 0.000000 0.019977
#
#
# Mechanical properties :
#
#
# Convention : Reuss Voigt Hill
#
# Bulk Modulus (GPa) = 30.76630 35.50560 33.13595
# Shear Modulus (GPa) = 30.34543 37.55306 33.94924
#
# Velocity S-wave (km/s) = 3.34446 3.72051 3.53749
# Velocity P-wave (km/s) = 5.12391 5.61638 5.37579
#
# Compressibility (1/GPa) = 0.03250310
#
# Stress axis : x y z
#
# Youngs Moduli (GPa) = 61.91789 85.27681 64.40845
#
# Poissons Ratio (x) = -0.23635 0.13588
# Poissons Ratio (y) = -0.17161 0.39365
# Poissons Ratio (z) = 0.13063 0.52119
#
# Static dielectric constant tensor:
#      x y z
#    x 2.193730 0.000000 0.015980 
#    y 0.000000 2.090580 0.000000 
#    z 0.015980 0.000000 2.185140 
# 
# From -- ./inp_files/115707.got.cif
#   From: 2010.05.17/outbox.cif.g08.bks.cpg/sg15_58_cif.got.tgz:115707.got - 2010.06.03 18:47:42.
