data_PCOD9282088
_publ_section_title
;
Structure prediction by ZEFSAII (Michael W. Deem and Ramdas Pophale) SiO2 
 PCOD9282088
Probable space group: C 2/C
;
_chemical_formula_sum "Si O2"
_cell_formula_units_Z 40
_cell_length_a 25.572706
_cell_length_b 5.434283
_cell_length_c 14.253075
_cell_angle_alpha 90.000000
_cell_angle_beta 61.417883
_cell_angle_gamma 90.000000
_cell_volume 1739.351994
_symmetry_space_group_name_H-M "C 2/C"
_symmetry_group_IT_number 15
_symmetry_cell_setting 'monoclinic'
loop_
_space_group_symop_operation_xyz
x,y,z
-x,y,1/2-z
-x,-y,-z
x,-y,1/2+z
1/2+x,1/2+y,z
1/2-x,1/2+y,1/2-z
1/2-x,1/2-y,-z
1/2+x,1/2-y,1/2+z
loop_
_atom_site_type_symbol
_atom_site_label
_atom_site_fract_x
_atom_site_fract_y
_atom_site_fract_z
Si Si1 0.887883 0.746879 0.254857
Si Si2 0.059253 0.648832 0.684402
Si Si3 0.215387 0.058918 0.791357
Si Si4 0.490064 0.795998 0.928611
Si Si5 0.376033 0.467715 0.473951
O O1 0.904486 0.457919 0.258470
O O2 0.833926 0.829341 0.237017
O O3 0.948377 0.836948 0.151656
O O4 0.875311 0.838426 0.371922
O O5 0.000000 0.818864 0.750000
O O6 0.027460 0.443608 0.649306
O O7 0.106235 0.760426 0.572557
O O8 0.256420 0.302847 0.771761
O O9 0.183248 0.972932 0.914899
O O10 0.431398 0.630474 0.988835
O O11 0.500000 0.000000 0.000000
#
# Coordination Sequence:
#
# PCOD9282088 Si02
#       5
#     8   8   8   8   8
#     4  10  24  44  73 106 149 191 247 314 388 456
#     4   9  19  37  67 106 143 179 231 293 390 460
#     4  12  32  51  72 105 146 202 275 317 368 440
#     4  10  21  38  71 114 147 181 230 303 384 458
#     4  11  24  44  75 105 148 196 248 311 391 457
#
# _framework density 22.997070000000001
#
# number of rings (size 3 to 8) (size 9 to 14) (size 15 to 20)
#    0.000    1.600    0.000    4.200   11.200    6.400 
#    0.000    0.000    0.000    0.000    0.000    0.000 
#    0.000    0.000    0.000    0.000    0.000    0.000 
#
# Total GULP energy -111376.598386 kJ/mol
# GULP energy per Si atom -5568.829919 kJ/mol
# Density = 2.294473 g / cm^3
# Si number density = 22.997070 Si / 1000 Ang^3
#
#
#
# Elastic Constant Matrix: (Units=GPa)
#
#
# Indices 1 2 3 4 5 6 
#
# 1 52.3676 11.7174 7.2139 0.0001 -5.8783 -0.0002
# 2 11.7174 56.7595 16.9028 0.0002 -5.8760 0.0004
# 3 7.2139 16.9028 107.3194 0.0001 -11.9387 0.0000
# 4 0.0001 0.0002 0.0001 47.0847 0.0000 21.0681
# 5 -5.8783 -5.8760 -11.9387 0.0000 41.8793 0.0000
# 6 -0.0002 0.0004 0.0000 21.0681 0.0000 99.0000
#
#
#
# Elastic Compliance Matrix: (Units=1/GPa)
#
#
# Indices 1 2 3 4 5 6 
#
# 1 0.020261 -0.003803 -0.000522 0.000000 0.002161 0.000000
# 2 -0.003803 0.019335 -0.002631 0.000000 0.001429 0.000000
# 3 -0.000522 -0.002631 0.010036 0.000000 0.002419 0.000000
# 4 0.000000 0.000000 0.000000 0.023474 0.000000 -0.004995
# 5 0.002161 0.001429 0.002419 0.000000 0.025072 0.000000
# 6 0.000000 0.000000 0.000000 -0.004995 0.000000 0.011164
#
#
# Mechanical properties :
#
#
# Convention : Reuss Voigt Hill
#
# Bulk Modulus (GPa) = 27.99579 32.01274 30.00426
# Shear Modulus (GPa) = 36.99288 49.63363 43.31325
#
# Velocity S-wave (km/s) = 4.01508 4.65075 4.34455
# Velocity P-wave (km/s) = 5.80470 6.54139 6.18403
#
# Compressibility (1/GPa) = 0.03571965
#
# Stress axis : x y z
#
# Youngs Moduli (GPa) = 49.35497 51.72046 99.63649
#
# Poissons Ratio (x) = 0.19671 0.05206
# Poissons Ratio (y) = 0.18772 0.26210
# Poissons Ratio (z) = 0.02579 0.13605
#
# Static dielectric constant tensor:
#      x y z
#    x 1.894270 0.000000 -0.086090 
#    y 0.000000 2.089050 0.000000 
#    z -0.086090 0.000000 1.925250 
# 
# From -- ./inp_files/175311.got.cif
#   From: 2010.05.17/outbox.cif.g08.bks.cpg/sg15_88_cif.got.tgz:175311.got - 2010.06.03 18:47:42.
