data_PCOD9282257
_publ_section_title
;
Structure prediction by ZEFSAII (Michael W. Deem and Ramdas Pophale) SiO2 
 PCOD9282257
Probable space group: C 2/C
;
_chemical_formula_sum "Si O2"
_cell_formula_units_Z 48
_cell_length_a 8.337726
_cell_length_b 8.717308
_cell_length_c 30.368212
_cell_angle_alpha 90.000000
_cell_angle_beta 109.439860
_cell_angle_gamma 90.000000
_cell_volume 2081.406665
_symmetry_space_group_name_H-M "C 2/C"
_symmetry_group_IT_number 15
_symmetry_cell_setting 'monoclinic'
loop_
_space_group_symop_operation_xyz
x,y,z
-x,y,1/2-z
-x,-y,-z
x,-y,1/2+z
1/2+x,1/2+y,z
1/2-x,1/2+y,1/2-z
1/2-x,1/2-y,-z
1/2+x,1/2-y,1/2+z
loop_
_atom_site_type_symbol
_atom_site_label
_atom_site_fract_x
_atom_site_fract_y
_atom_site_fract_z
Si Si1 0.148399 0.956725 0.361134
Si Si2 0.197953 0.897677 0.777703
Si Si3 0.697985 0.895744 0.890087
Si Si4 0.588331 0.606453 0.443614
Si Si5 0.744594 0.043827 0.805134
Si Si6 0.122114 0.536689 0.970591
O O1 0.188993 0.783394 0.378105
O O2 0.946528 0.969243 0.333056
O O3 0.243772 0.006743 0.325478
O O4 0.178243 0.066315 0.405498
O O5 0.211031 0.719603 0.790489
O O6 0.000000 0.931559 0.750000
O O7 0.294136 0.943609 0.741857
O O8 0.892289 0.937633 0.920348
O O9 0.654268 0.986833 0.841379
O O10 0.595009 0.936486 0.924550
O O11 0.689838 0.519686 0.491228
O O12 0.599624 0.786820 0.454397
O O13 0.000000 0.500000 0.000000
#
# Coordination Sequence:
#
# PCOD9282257 Si02
#       6
#     8   8   8   8   8   8
#     4  10  22  38  60  89 121 155 197 245 297 357
#     4  10  21  39  60  88 121 155 196 242 294 354
#     4  11  23  40  62  89 121 160 201 247 301 355
#     4  10  23  41  60  87 122 158 200 249 300 354
#     4  10  22  38  61  88 120 157 197 245 295 354
#     4  11  24  40  62  89 119 160 205 249 301 358
#
# _framework density 23.061326999999999
#
# number of rings (size 3 to 8) (size 9 to 14) (size 15 to 20)
#    0.000    1.667    0.000    3.500    0.000   12.000 
#    0.000    0.000    0.000    0.000    0.000    0.000 
#    0.000    0.000    0.000    0.000    0.000    0.000 
#
# Total GULP energy -134294.299739 kJ/mol
# GULP energy per Si atom -5595.595822 kJ/mol
# Density = 2.300884 g / cm^3
# Si number density = 23.061327 Si / 1000 Ang^3
#
#
#
# Elastic Constant Matrix: (Units=GPa)
#
#
# Indices 1 2 3 4 5 6 
#
# 1 66.6429 5.5934 53.7034 0.0000 -19.9667 0.0000
# 2 5.5934 125.5049 102.7967 0.0000 -30.6407 0.0000
# 3 53.7034 102.7967 244.6130 0.0000 -42.5617 0.0000
# 4 0.0000 0.0000 0.0000 56.5533 0.0000 -1.2576
# 5 -19.9667 -30.6407 -42.5617 0.0000 30.8585 0.0000
# 6 0.0000 0.0000 0.0000 -1.2576 0.0000 21.9634
#
#
#
# Elastic Compliance Matrix: (Units=1/GPa)
#
#
# Indices 1 2 3 4 5 6 
#
# 1 0.023163 0.006992 -0.005537 0.000000 0.014293 0.000000
# 2 0.006992 0.015379 -0.005992 0.000000 0.011530 0.000000
# 3 -0.005537 -0.005992 0.008109 0.000000 0.001653 0.000000
# 4 0.000000 0.000000 0.000000 0.017705 0.000000 0.001014
# 5 0.014293 0.011530 0.001653 0.000000 0.055383 0.000000
# 6 0.000000 0.000000 0.000000 0.001014 0.000000 0.045588
#
#
# Mechanical properties :
#
#
# Convention : Reuss Voigt Hill
#
# Bulk Modulus (GPa) = 26.61116 84.54976 55.58046
# Shear Modulus (GPa) = 26.74869 40.18619 33.46744
#
# Velocity S-wave (km/s) = 3.40942 4.17895 3.81364
# Velocity P-wave (km/s) = 5.20223 7.74774 6.59889
#
# Compressibility (1/GPa) = 0.03757822
#
# Stress axis : x y z
#
# Youngs Moduli (GPa) = 43.17320 65.02467 123.31749
#
# Poissons Ratio (x) = -0.45466 0.68276
# Poissons Ratio (y) = -0.30187 0.73888
# Poissons Ratio (z) = 0.23903 0.38961
#
# Static dielectric constant tensor:
#      x y z
#    x 1.914040 0.000000 0.010240 
#    y 0.000000 1.780070 0.000000 
#    z 0.010240 0.000000 1.875000 
# 
# From -- ./inp_files/306687.got.cif
#   From: 2010.05.17/outbox.cif.g08.bks.cpg/sg15_154_cif.got.tgz:306687.got - 2010.06.03 18:47:42.
