data_PCOD9282026
_publ_section_title
;
Structure prediction by ZEFSAII (Michael W. Deem and Ramdas Pophale) SiO2 
 PCOD9282026
Probable space group: C 2/C
;
_chemical_formula_sum "Si O2"
_cell_formula_units_Z 56
_cell_length_a 10.680256
_cell_length_b 16.134032
_cell_length_c 18.917332
_cell_angle_alpha 90.000000
_cell_angle_beta 131.901054
_cell_angle_gamma 90.000000
_cell_volume 2426.230456
_symmetry_space_group_name_H-M "C 2/C"
_symmetry_group_IT_number 15
_symmetry_cell_setting 'monoclinic'
loop_
_space_group_symop_operation_xyz
x,y,z
-x,y,1/2-z
-x,-y,-z
x,-y,1/2+z
1/2+x,1/2+y,z
1/2-x,1/2+y,1/2-z
1/2-x,1/2-y,-z
1/2+x,1/2-y,1/2+z
loop_
_atom_site_type_symbol
_atom_site_label
_atom_site_fract_x
_atom_site_fract_y
_atom_site_fract_z
Si Si1 0.906127 0.413992 0.455650
Si Si2 0.357513 0.826935 0.570502
Si Si3 0.652252 0.345189 0.255513
Si Si4 0.375076 0.400980 0.406539
Si Si5 0.807523 0.922005 0.872517
Si Si6 0.761826 0.185610 0.226116
Si Si7 0.300239 0.222852 0.440687
O O1 0.822259 0.397651 0.499958
O O2 0.767329 0.408491 0.342766
O O3 0.000000 0.500000 0.500000
O O4 0.037334 0.337543 0.492322
O O5 0.250000 0.750000 0.500000
O O6 0.308589 0.857952 0.629026
O O7 0.556931 0.814918 0.645156
O O8 0.500000 0.317032 0.250000
O O9 0.575307 0.386639 0.156373
O O10 0.778860 0.272206 0.275685
O O11 0.520609 0.416418 0.518444
O O12 0.256023 0.481800 0.359577
O O13 0.312830 0.311926 0.407499
O O14 0.823190 0.888291 0.799246
O O15 0.813710 0.179048 0.163162
O O16 0.250000 0.250000 0.500000
#
# Coordination Sequence:
#
# PCOD9282026 Si02
#       7
#     8   8   8   8   8   8   8
#     4  11  25  40  69 104 140 177 241 300 348 434
#     4  11  21  38  68  97 131 173 227 293 365 409
#     4  11  21  41  68  95 131 176 229 291 363 421
#     4  10  24  39  61  92 133 177 226 284 348 427
#     4  11  21  39  62  95 131 168 227 292 348 415
#     4  10  21  38  68 101 125 174 231 294 343 429
#     4  10  23  45  66  92 142 187 224 280 370 433
#
# _framework density 23.081073
#
# number of rings (size 3 to 8) (size 9 to 14) (size 15 to 20)
#    0.000    1.429    0.000    7.286    6.000    0.000 
#    0.000    6.429    0.000    0.000    0.000    0.000 
#    0.000    0.000    0.000    0.000    0.000    0.000 
#
# Total GULP energy -156125.336960 kJ/mol
# GULP energy per Si atom -5575.904891 kJ/mol
# Density = 2.302854 g / cm^3
# Si number density = 23.081073 Si / 1000 Ang^3
#
#
#
# Elastic Constant Matrix: (Units=GPa)
#
#
# Indices 1 2 3 4 5 6 
#
# 1 48.0828 15.8819 43.7347 0.0000 -35.9615 0.0000
# 2 15.8819 114.4042 46.7517 0.0000 -11.0472 0.0000
# 3 43.7347 46.7517 168.7655 0.0000 -29.6837 0.0000
# 4 0.0000 0.0000 0.0000 25.7411 0.0000 7.7301
# 5 -35.9615 -11.0472 -29.6837 0.0000 46.0573 0.0000
# 6 0.0000 0.0000 0.0000 7.7301 0.0000 23.0058
#
#
#
# Elastic Compliance Matrix: (Units=1/GPa)
#
#
# Indices 1 2 3 4 5 6 
#
# 1 0.058318 -0.001043 -0.007736 0.000000 0.040299 0.000000
# 2 -0.001043 0.009894 -0.002477 0.000000 -0.000038 0.000000
# 3 -0.007736 -0.002477 0.008402 0.000000 -0.001219 0.000000
# 4 0.000000 0.000000 0.000000 0.043208 0.000000 -0.014518
# 5 0.040299 -0.000038 -0.001219 0.000000 0.052382 0.000000
# 6 0.000000 0.000000 0.000000 -0.014518 0.000000 0.048346
#
#
# Mechanical properties :
#
#
# Convention : Reuss Voigt Hill
#
# Bulk Modulus (GPa) = 18.48366 60.44322 39.46344
# Shear Modulus (GPa) = 19.14994 33.95311 26.55153
#
# Velocity S-wave (km/s) = 2.88354 3.83957 3.39537
# Velocity P-wave (km/s) = 4.37172 6.77500 5.70143
#
# Compressibility (1/GPa) = 0.05410183
#
# Stress axis : x y z
#
# Youngs Moduli (GPa) = 17.14732 101.06662 119.02118
#
# Poissons Ratio (x) = 0.10544 0.92072
# Poissons Ratio (y) = 0.01789 0.29485
# Poissons Ratio (z) = 0.13265 0.25037
#
# Static dielectric constant tensor:
#      x y z
#    x 1.985060 0.000000 0.007930 
#    y 0.000000 1.960630 0.000000 
#    z 0.007930 0.000000 1.939840 
# 
# From -- ./inp_files/199607.got.cif
#   From: 2010.05.17/outbox.cif.g08.bks.cpg/sg15_100_cif.got.tgz:199607.got - 2010.06.03 18:47:42.
