data_PCOD9282984
_publ_section_title
;
Structure prediction by ZEFSAII (Michael W. Deem and Ramdas Pophale) SiO2 
 PCOD9282984
Probable space group: C 2/C
;
_chemical_formula_sum "Si O2"
_cell_formula_units_Z 56
_cell_length_a 12.078241
_cell_length_b 12.192430
_cell_length_c 18.546982
_cell_angle_alpha 90.000000
_cell_angle_beta 107.165469
_cell_angle_gamma 90.000000
_cell_volume 2609.624907
_symmetry_space_group_name_H-M "C 2/C"
_symmetry_group_IT_number 15
_symmetry_cell_setting 'monoclinic'
loop_
_space_group_symop_operation_xyz
x,y,z
-x,y,1/2-z
-x,-y,-z
x,-y,1/2+z
1/2+x,1/2+y,z
1/2-x,1/2+y,1/2-z
1/2-x,1/2-y,-z
1/2+x,1/2-y,1/2+z
loop_
_atom_site_type_symbol
_atom_site_label
_atom_site_fract_x
_atom_site_fract_y
_atom_site_fract_z
Si Si1 0.635015 0.381096 0.775877
Si Si2 0.116487 0.214619 0.498706
Si Si3 0.221181 0.578229 0.677400
Si Si4 0.242040 0.990493 0.049497
Si Si5 0.106807 0.558468 0.055672
Si Si6 0.869058 0.644412 0.691339
Si Si7 0.359665 0.308895 0.885997
O O1 0.500000 0.380544 0.750000
O O2 0.671170 0.498635 0.812495
O O3 0.666240 0.272096 0.827875
O O4 0.667346 0.359017 0.698601
O O5 0.250000 0.250000 0.500000
O O6 0.135680 0.094768 0.534736
O O7 0.089029 0.312525 0.548222
O O8 0.999491 0.207421 0.426088
O O9 0.122288 0.490533 0.637327
O O10 0.211839 0.607705 0.758704
O O11 0.197626 0.687890 0.627776
O O12 0.342004 0.934428 0.119143
O O13 0.199234 0.108482 0.068384
O O14 0.288034 0.981248 0.976483
O O15 0.000000 0.500000 0.000000
O O16 0.000000 0.641365 0.750000
#
# Coordination Sequence:
#
# PCOD9282984 Si02
#       7
#     8   8   8   8   8   8   8
#     4  10  23  38  67  89 125 163 212 263 312 368
#     4  10  23  39  66  92 123 161 220 264 305 375
#     4  11  22  41  63  91 129 159 211 257 321 384
#     4  11  23  40  64  93 129 168 213 261 321 374
#     4  11  22  39  64  94 125 165 216 260 314 372
#     4  10  21  39  66  91 119 165 216 261 309 372
#     4  11  23  43  61  95 128 168 210 263 324 386
#
# _framework density 21.459023999999999
#
# number of rings (size 3 to 8) (size 9 to 14) (size 15 to 20)
#    0.000    1.429    2.857    2.143   14.000    0.571 
#    0.000    0.714    0.000    0.000    0.000    0.000 
#    0.000    0.000    0.000    0.000    0.000    0.000 
#
# Total GULP energy -155946.950347 kJ/mol
# GULP energy per Si atom -5569.533941 kJ/mol
# Density = 2.141018 g / cm^3
# Si number density = 21.459024 Si / 1000 Ang^3
#
#
#
# Elastic Constant Matrix: (Units=GPa)
#
#
# Indices 1 2 3 4 5 6 
#
# 1 41.1165 35.7366 13.6973 0.0000 5.1634 0.0000
# 2 35.7366 160.2922 33.5868 0.0000 3.2583 0.0000
# 3 13.6973 33.5868 80.5409 0.0000 10.7864 0.0000
# 4 0.0000 0.0000 0.0000 35.9416 0.0000 6.3360
# 5 5.1634 3.2583 10.7864 0.0000 28.4935 0.0000
# 6 0.0000 0.0000 0.0000 6.3360 0.0000 151.9616
#
#
#
# Elastic Compliance Matrix: (Units=1/GPa)
#
#
# Indices 1 2 3 4 5 6 
#
# 1 0.031104 -0.006419 -0.002061 0.000000 -0.004122 0.000000
# 2 -0.006419 0.008163 -0.002468 0.000000 0.001164 0.000000
# 3 -0.002061 -0.002468 0.014440 0.000000 -0.004811 0.000000
# 4 0.000000 0.000000 0.000000 0.028029 0.000000 -0.001169
# 5 -0.004122 0.001164 -0.004811 0.000000 0.037531 0.000000
# 6 0.000000 0.000000 0.000000 -0.001169 0.000000 0.006629
#
#
# Mechanical properties :
#
#
# Convention : Reuss Voigt Hill
#
# Bulk Modulus (GPa) = 31.43551 49.77678 40.60615
# Shear Modulus (GPa) = 31.56617 56.54127 44.05372
#
# Velocity S-wave (km/s) = 3.83952 5.13865 4.53583
# Velocity P-wave (km/s) = 5.85976 7.64553 6.81142
#
# Compressibility (1/GPa) = 0.03181116
#
# Stress axis : x y z
#
# Youngs Moduli (GPa) = 32.14973 122.50001 69.25112
#
# Poissons Ratio (x) = 0.78633 0.14272
# Poissons Ratio (y) = 0.20637 0.17094
# Poissons Ratio (z) = 0.06626 0.30239
#
# Static dielectric constant tensor:
#      x y z
#    x 1.862980 0.000000 -0.062480 
#    y 0.000000 2.113280 0.000000 
#    z -0.062480 0.000000 1.498230 
# 
# From -- ./inp_files/237639.got.cif
#   From: 2010.05.17/outbox.cif.g08.bks.cpg/sg15_119_cif.got.tgz:237639.got - 2010.06.03 18:47:42.
