data_PCOD9282823
_publ_section_title
;
Structure prediction by ZEFSAII (Michael W. Deem and Ramdas Pophale) SiO2 
 PCOD9282823
Probable space group: C 2/C
;
_chemical_formula_sum "Si O2"
_cell_formula_units_Z 36
_cell_length_a 10.854740
_cell_length_b 22.065671
_cell_length_c 7.851107
_cell_angle_alpha 90.000000
_cell_angle_beta 113.324894
_cell_angle_gamma 90.000000
_cell_volume 1726.791709
_symmetry_space_group_name_H-M "C 2/C"
_symmetry_group_IT_number 15
_symmetry_cell_setting 'monoclinic'
loop_
_space_group_symop_operation_xyz
x,y,z
-x,y,1/2-z
-x,-y,-z
x,-y,1/2+z
1/2+x,1/2+y,z
1/2-x,1/2+y,1/2-z
1/2-x,1/2-y,-z
1/2+x,1/2-y,1/2+z
loop_
_atom_site_type_symbol
_atom_site_label
_atom_site_fract_x
_atom_site_fract_y
_atom_site_fract_z
Si Si1 0.000000 0.101992 0.750000
Si Si2 0.805465 0.035611 0.890623
Si Si3 0.944993 0.605169 0.900512
Si Si4 0.775484 0.582677 0.297838
Si Si5 0.750517 0.678496 0.023668
O O1 0.933041 0.058791 0.855777
O O2 0.882734 0.146728 0.622673
O O3 0.673703 0.060428 0.720274
O O4 0.776975 0.963934 0.873912
O O5 0.805367 0.064817 0.077099
O O6 0.000000 0.630470 0.750000
O O7 0.876997 0.653317 0.986838
O O8 0.068970 0.574522 0.065781
O O9 0.761513 0.650580 0.219691
O O10 0.750000 0.750000 0.000000
#
# Coordination Sequence:
#
# PCOD9282823 Si02
#       5
#     4   8   8   8   8
#     4  10  24  44  62  92 138 168 214 266 322 386
#     4  10  21  39  65 101 133 163 209 265 332 379
#     4   9  20  40  63  95 126 165 211 263 319 376
#     4  11  22  38  67  96 129 167 210 268 323 380
#     4  11  25  42  62  90 126 177 219 261 314 378
#
# _framework density 20.847911
#
# number of rings (size 3 to 8) (size 9 to 14) (size 15 to 20)
#    0.000    1.778    0.000    4.000    3.111    8.000 
#    4.000    3.333    0.000    0.000    0.000    0.000 
#    0.000    0.000    0.000    0.000    0.000    0.000 
#
# Total GULP energy -100593.569761 kJ/mol
# GULP energy per Si atom -5588.531653 kJ/mol
# Density = 2.080046 g / cm^3
# Si number density = 20.847911 Si / 1000 Ang^3
#
#
#
# Elastic Constant Matrix: (Units=GPa)
#
#
# Indices 1 2 3 4 5 6 
#
# 1 138.6443 41.3387 46.1571 0.0000 -17.3045 0.0000
# 2 41.3387 146.9595 46.6509 0.0000 -19.6099 0.0000
# 3 46.1571 46.6509 95.2913 0.0000 -13.8657 0.0000
# 4 0.0000 0.0000 0.0000 14.5948 0.0000 -3.7154
# 5 -17.3045 -19.6099 -13.8657 0.0000 37.8012 0.0000
# 6 0.0000 0.0000 0.0000 -3.7154 0.0000 20.1677
#
#
#
# Elastic Compliance Matrix: (Units=1/GPa)
#
#
# Indices 1 2 3 4 5 6 
#
# 1 0.008986 -0.001124 -0.003474 0.000000 0.002256 0.000000
# 2 -0.001124 0.008507 -0.003225 0.000000 0.002716 0.000000
# 3 -0.003474 -0.003225 0.014030 0.000000 0.001883 0.000000
# 4 0.000000 0.000000 0.000000 0.071889 0.000000 0.013244
# 5 0.002256 0.002716 0.001883 0.000000 0.029586 0.000000
# 6 0.000000 0.000000 0.000000 0.013244 0.000000 0.052024
#
#
# Mechanical properties :
#
#
# Convention : Reuss Voigt Hill
#
# Bulk Modulus (GPa) = 62.98625 72.13205 67.55915
# Shear Modulus (GPa) = 24.27655 30.96265 27.61960
#
# Velocity S-wave (km/s) = 3.41612 3.85797 3.64375
# Velocity P-wave (km/s) = 6.77035 7.38373 7.08369
#
# Compressibility (1/GPa) = 0.01587648
#
# Stress axis : x y z
#
# Youngs Moduli (GPa) = 111.28429 117.55208 71.27685
#
# Poissons Ratio (x) = 0.13210 0.24763
# Poissons Ratio (y) = 0.12506 0.22988
# Poissons Ratio (z) = 0.38662 0.37912
#
# Static dielectric constant tensor:
#      x y z
#    x 1.751150 0.000000 -0.000260 
#    y 0.000000 1.715060 0.000000 
#    z -0.000260 0.000000 1.800940 
# 
# From -- ./inp_files/29892.got.cif
#   From: 2010.05.17/outbox.cif.g08.bks.cpg/sg15_15_cif.got.tgz:29892.got - 2010.06.03 18:47:42.
