data_PCOD9282673
_publ_section_title
;
Structure prediction by ZEFSAII (Michael W. Deem and Ramdas Pophale) SiO2 
 PCOD9282673
Probable space group: C 2/C
;
_chemical_formula_sum "Si O2"
_cell_formula_units_Z 32
_cell_length_a 9.368413
_cell_length_b 11.002671
_cell_length_c 14.868921
_cell_angle_alpha 90.000000
_cell_angle_beta 128.360223
_cell_angle_gamma 90.000000
_cell_volume 1201.790120
_symmetry_space_group_name_H-M "C 2/C"
_symmetry_group_IT_number 15
_symmetry_cell_setting 'monoclinic'
loop_
_space_group_symop_operation_xyz
x,y,z
-x,y,1/2-z
-x,-y,-z
x,-y,1/2+z
1/2+x,1/2+y,z
1/2-x,1/2+y,1/2-z
1/2-x,1/2-y,-z
1/2+x,1/2-y,1/2+z
loop_
_atom_site_type_symbol
_atom_site_label
_atom_site_fract_x
_atom_site_fract_y
_atom_site_fract_z
Si Si1 0.926503 0.904738 0.571203
Si Si2 0.835592 0.617770 0.015467
Si Si3 0.814260 0.084296 0.731241
Si Si4 0.185562 0.272661 0.623469
O O1 0.932731 0.810309 0.492418
O O2 0.832095 0.837125 0.618346
O O3 0.784703 0.011936 0.487058
O O4 0.105465 0.970931 0.680000
O O5 0.823000 0.582262 0.905238
O O6 0.046465 0.636679 0.118940
O O7 0.750000 0.750000 0.000000
O O8 0.000000 0.124909 0.750000
O O9 0.741342 0.181826 0.773166
#
# Coordination Sequence:
#
# PCOD9282673 Si02
#       4
#     8   8   8   8
#     4  10  23  41  65  92 129 172 214 271 322 375
#     4  11  22  39  66  96 132 171 215 262 324 386
#     4  10  21  39  63  97 126 172 213 263 321 379
#     4  11  22  43  68  92 131 174 215 268 326 388
#
# _framework density 26.626946
#
# number of rings (size 3 to 8) (size 9 to 14) (size 15 to 20)
#    0.000    1.500    5.000    1.500    0.000    6.000 
#    0.000    3.750    0.000    0.000    0.000    0.000 
#    0.000    0.000    0.000    0.000    0.000    0.000 
#
# Total GULP energy -89561.619338 kJ/mol
# GULP energy per Si atom -5597.601209 kJ/mol
# Density = 2.656634 g / cm^3
# Si number density = 26.626946 Si / 1000 Ang^3
#
#
#
# Elastic Constant Matrix: (Units=GPa)
#
#
# Indices 1 2 3 4 5 6 
#
# 1 75.2099 41.8704 13.4174 0.0000 3.6772 0.0000
# 2 41.8704 143.8196 21.1964 0.0000 -0.9220 0.0000
# 3 13.4174 21.1964 86.1567 0.0000 2.3869 0.0000
# 4 0.0000 0.0000 0.0000 38.1491 0.0000 -16.7881
# 5 3.6772 -0.9220 2.3869 0.0000 38.0862 0.0000
# 6 0.0000 0.0000 0.0000 -16.7881 0.0000 59.5347
#
#
#
# Elastic Compliance Matrix: (Units=1/GPa)
#
#
# Indices 1 2 3 4 5 6 
#
# 1 0.016123 -0.004504 -0.001359 0.000000 -0.001581 0.000000
# 2 -0.004504 0.008476 -0.001404 0.000000 0.000728 0.000000
# 3 -0.001359 -0.001404 0.012182 0.000000 -0.000666 0.000000
# 4 0.000000 0.000000 0.000000 0.029927 0.000000 0.008439
# 5 -0.001581 0.000728 -0.000666 0.000000 0.026468 0.000000
# 6 0.000000 0.000000 0.000000 0.008439 0.000000 0.019177
#
#
# Mechanical properties :
#
#
# Convention : Reuss Voigt Hill
#
# Bulk Modulus (GPa) = 44.94870 50.90606 47.92738
# Shear Modulus (GPa) = 37.22936 42.40079 39.81507
#
# Velocity S-wave (km/s) = 3.74329 3.99482 3.87110
# Velocity P-wave (km/s) = 5.96661 6.35908 6.16597
#
# Compressibility (1/GPa) = 0.02224758
#
# Stress axis : x y z
#
# Youngs Moduli (GPa) = 62.02247 117.98082 82.08633
#
# Poissons Ratio (x) = 0.53136 0.11156
# Poissons Ratio (y) = 0.27934 0.11525
# Poissons Ratio (z) = 0.08429 0.16565
#
# Static dielectric constant tensor:
#      x y z
#    x 2.072830 0.000000 0.080460 
#    y 0.000000 2.203230 0.000000 
#    z 0.080460 0.000000 2.076290 
# 
# From -- ./inp_files/194795.got.cif
#   From: 2010.05.17/outbox.cif.g08.bks.cpg/sg15_98_cif.got.tgz:194795.got - 2010.06.03 18:47:42.
