data_PCOD9282292
_publ_section_title
;
Structure prediction by ZEFSAII (Michael W. Deem and Ramdas Pophale) SiO2 
 PCOD9282292
Probable space group: C 2/C
;
_chemical_formula_sum "Si O2"
_cell_formula_units_Z 52
_cell_length_a 24.549922
_cell_length_b 7.913017
_cell_length_c 14.957993
_cell_angle_alpha 90.000000
_cell_angle_beta 124.233292
_cell_angle_gamma 90.000000
_cell_volume 2402.380302
_symmetry_space_group_name_H-M "C 2/C"
_symmetry_group_IT_number 15
_symmetry_cell_setting 'monoclinic'
loop_
_space_group_symop_operation_xyz
x,y,z
-x,y,1/2-z
-x,-y,-z
x,-y,1/2+z
1/2+x,1/2+y,z
1/2-x,1/2+y,1/2-z
1/2-x,1/2-y,-z
1/2+x,1/2-y,1/2+z
loop_
_atom_site_type_symbol
_atom_site_label
_atom_site_fract_x
_atom_site_fract_y
_atom_site_fract_z
Si Si1 0.551432 0.586692 0.612604
Si Si2 0.344776 0.164330 0.362289
Si Si3 0.222115 0.361151 0.161033
Si Si4 0.661830 0.533084 0.314436
Si Si5 0.177063 0.676104 0.948901
Si Si6 0.500000 0.278685 0.250000
Si Si7 0.856455 0.698529 0.082904
O O1 0.500000 0.500000 0.500000
O O2 0.587744 0.759714 0.615134
O O3 0.614974 0.468628 0.685548
O O4 0.520318 0.614295 0.681638
O O5 0.280238 0.259969 0.262616
O O6 0.348514 0.188353 0.473051
O O7 0.330216 0.966663 0.329289
O O8 0.263802 0.512897 0.151457
O O9 0.180474 0.267830 0.045530
O O10 0.639394 0.689435 0.352797
O O11 0.656119 0.358551 0.365585
O O12 0.171903 0.482181 0.912499
O O13 0.250000 0.750000 0.000000
O O14 0.435375 0.178714 0.156945
#
# Coordination Sequence:
#
# PCOD9282292 Si02
#       7
#     8   8   8   8   8   4   8
#     4  10  24  44  67  96 131 177 227 269 324 400
#     4  10  23  37  62  98 134 160 224 270 326 395
#     4  10  21  39  60  98 124 170 208 274 337 377
#     4  10  21  41  68  94 126 175 212 266 343 380
#     4  11  22  40  65 103 129 168 218 273 331 399
#     4  10  24  46  64  92 132 184 222 272 330 386
#     4  10  22  40  65  93 131 169 225 264 322 396
#
# _framework density 21.645198000000001
#
# number of rings (size 3 to 8) (size 9 to 14) (size 15 to 20)
#    0.000    1.846    3.077    0.462    6.462    3.692 
#    5.538    3.077    0.000    0.000    0.000    0.000 
#    0.000    0.000    0.000    0.000    0.000    0.000 
#
# Total GULP energy -144846.931241 kJ/mol
# GULP energy per Si atom -5571.035817 kJ/mol
# Density = 2.159593 g / cm^3
# Si number density = 21.645198 Si / 1000 Ang^3
#
#
#
# Elastic Constant Matrix: (Units=GPa)
#
#
# Indices 1 2 3 4 5 6 
#
# 1 73.2515 9.2674 23.6684 0.0000 5.8579 0.0000
# 2 9.2674 87.8818 24.3859 0.0000 -3.2559 0.0000
# 3 23.6684 24.3859 125.5811 0.0000 19.4389 0.0000
# 4 0.0000 0.0000 0.0000 19.3481 0.0000 -9.2416
# 5 5.8579 -3.2559 19.4389 0.0000 39.7382 0.0000
# 6 0.0000 0.0000 0.0000 -9.2416 0.0000 28.4180
#
#
#
# Elastic Compliance Matrix: (Units=1/GPa)
#
#
# Indices 1 2 3 4 5 6 
#
# 1 0.014632 -0.000911 -0.002419 0.000000 -0.001048 0.000000
# 2 -0.000911 0.012282 -0.002586 0.000000 0.002405 0.000000
# 3 -0.002419 -0.002586 0.009627 0.000000 -0.004565 0.000000
# 4 0.000000 0.000000 0.000000 0.061189 0.000000 0.019899
# 5 -0.001048 0.002405 -0.004565 0.000000 0.027749 0.000000
# 6 0.000000 0.000000 0.000000 0.019899 0.000000 0.041660
#
#
# Mechanical properties :
#
#
# Convention : Reuss Voigt Hill
#
# Bulk Modulus (GPa) = 40.46714 44.59532 42.53123
# Shear Modulus (GPa) = 26.70842 32.79372 29.75107
#
# Velocity S-wave (km/s) = 3.51653 3.89660 3.71143
# Velocity P-wave (km/s) = 5.93500 6.39470 6.16913
#
# Compressibility (1/GPa) = 0.02471141
#
# Stress axis : x y z
#
# Youngs Moduli (GPa) = 68.34272 81.42312 103.86929
#
# Poissons Ratio (x) = 0.07415 0.25122
# Poissons Ratio (y) = 0.06224 0.26856
# Poissons Ratio (z) = 0.16529 0.21052
#
# Static dielectric constant tensor:
#      x y z
#    x 1.913880 0.000000 0.024720 
#    y 0.000000 1.859880 0.000000 
#    z 0.024720 0.000000 1.886090 
# 
# From -- ./inp_files/176711.got.cif
#   From: 2010.05.17/outbox.cif.g08.bks.cpg/sg15_89_cif.got.tgz:176711.got - 2010.06.03 18:47:42.
