data_PCOD9282354
_publ_section_title
;
Structure prediction by ZEFSAII (Michael W. Deem and Ramdas Pophale) SiO2 
 PCOD9282354
Probable space group: C 2/C
;
_chemical_formula_sum "Si O2"
_cell_formula_units_Z 48
_cell_length_a 12.750262
_cell_length_b 15.451861
_cell_length_c 14.014777
_cell_angle_alpha 90.000000
_cell_angle_beta 129.952255
_cell_angle_gamma 90.000000
_cell_volume 2116.622820
_symmetry_space_group_name_H-M "C 2/C"
_symmetry_group_IT_number 15
_symmetry_cell_setting 'monoclinic'
loop_
_space_group_symop_operation_xyz
x,y,z
-x,y,1/2-z
-x,-y,-z
x,-y,1/2+z
1/2+x,1/2+y,z
1/2-x,1/2+y,1/2-z
1/2-x,1/2-y,-z
1/2+x,1/2-y,1/2+z
loop_
_atom_site_type_symbol
_atom_site_label
_atom_site_fract_x
_atom_site_fract_y
_atom_site_fract_z
Si Si1 0.119312 0.622044 0.191484
Si Si2 0.194603 0.788731 0.124330
Si Si3 0.682425 0.527275 0.694146
Si Si4 0.688363 0.846112 0.954678
Si Si5 0.379637 0.500489 0.566386
Si Si6 0.619010 0.312380 0.894184
O O1 0.189023 0.700200 0.176195
O O2 0.188162 0.531253 0.202985
O O3 0.153506 0.637361 0.322866
O O4 0.957367 0.634631 0.081071
O O5 0.209959 0.870246 0.201062
O O6 0.307955 0.772966 0.108192
O O7 0.069628 0.800023 0.975581
O O8 0.543950 0.508068 0.671732
O O9 0.647670 0.502360 0.563874
O O10 0.750000 0.750000 0.000000
O O11 0.799919 0.915405 0.055177
O O12 0.318807 0.409671 0.567671
O O13 0.500000 0.323669 0.750000
#
# Coordination Sequence:
#
# PCOD9282354 Si02
#       6
#     8   8   8   8   8   8
#     4  10  21  39  63  92 130 167 217 261 322 393
#     4  10  21  39  61  93 123 164 213 261 327 385
#     4   9  18  36  62  86 118 168 207 258 320 378
#     4  10  21  39  61  92 129 170 211 268 320 388
#     4   9  18  36  61  83 119 163 211 259 316 377
#     4  10  21  39  61  90 123 163 209 269 319 382
#
# _framework density 22.677634999999999
#
# number of rings (size 3 to 8) (size 9 to 14) (size 15 to 20)
#    0.000    2.333    0.000    2.000    0.000    4.000 
#   21.000    0.833    0.000    0.000    0.000    0.000 
#    0.000    0.000    0.000    0.000    0.000    0.000 
#
# Total GULP energy -133785.734640 kJ/mol
# GULP energy per Si atom -5574.405610 kJ/mol
# Density = 2.262602 g / cm^3
# Si number density = 22.677635 Si / 1000 Ang^3
#
#
#
# Elastic Constant Matrix: (Units=GPa)
#
#
# Indices 1 2 3 4 5 6 
#
# 1 68.1088 58.6971 19.0254 0.0000 16.6179 0.0000
# 2 58.6971 187.8904 32.4209 0.0000 25.9390 0.0000
# 3 19.0254 32.4209 42.7452 0.0000 16.5952 0.0000
# 4 0.0000 0.0000 0.0000 38.9082 0.0000 -4.6206
# 5 16.6179 25.9390 16.5952 0.0000 34.8897 0.0000
# 6 0.0000 0.0000 0.0000 -4.6206 0.0000 33.5033
#
#
#
# Elastic Compliance Matrix: (Units=1/GPa)
#
#
# Indices 1 2 3 4 5 6 
#
# 1 0.021510 -0.005470 -0.003712 0.000000 -0.004413 0.000000
# 2 -0.005470 0.007759 -0.002726 0.000000 -0.001867 0.000000
# 3 -0.003712 -0.002726 0.031448 0.000000 -0.011164 0.000000
# 4 0.000000 0.000000 0.000000 0.026129 0.000000 0.003604
# 5 -0.004413 -0.001867 -0.011164 0.000000 0.037462 0.000000
# 6 0.000000 0.000000 0.000000 0.003604 0.000000 0.030345
#
#
# Mechanical properties :
#
#
# Convention : Reuss Voigt Hill
#
# Bulk Modulus (GPa) = 27.09853 57.67011 42.38432
# Shear Modulus (GPa) = 26.20971 34.03364 30.12168
#
# Velocity S-wave (km/s) = 3.40332 3.87816 3.64848
# Velocity P-wave (km/s) = 5.23630 6.74827 6.03979
#
# Compressibility (1/GPa) = 0.03690236
#
# Stress axis : x y z
#
# Youngs Moduli (GPa) = 46.48973 128.88030 31.79845
#
# Poissons Ratio (x) = 0.70499 0.11803
# Poissons Ratio (y) = 0.25430 0.08667
# Poissons Ratio (z) = 0.17256 0.35128
#
# Static dielectric constant tensor:
#      x y z
#    x 1.909800 0.000000 0.035130 
#    y 0.000000 2.009860 0.000000 
#    z 0.035130 0.000000 2.319730 
# 
# From -- ./inp_files/205529.got.cif
#   From: 2010.05.17/outbox.cif.g08.bks.cpg/sg15_103_cif.got.tgz:205529.got - 2010.06.03 18:47:42.
