data_PCOD9282396
_publ_section_title
;
Structure prediction by ZEFSAII (Michael W. Deem and Ramdas Pophale) SiO2 
 PCOD9282396
Probable space group: C 2/C
;
_chemical_formula_sum "Si O2"
_cell_formula_units_Z 40
_cell_length_a 15.269506
_cell_length_b 22.552292
_cell_length_c 8.560946
_cell_angle_alpha 90.000000
_cell_angle_beta 32.417644
_cell_angle_gamma 90.000000
_cell_volume 1580.420032
_symmetry_space_group_name_H-M "C 2/C"
_symmetry_group_IT_number 15
_symmetry_cell_setting 'monoclinic'
loop_
_space_group_symop_operation_xyz
x,y,z
-x,y,1/2-z
-x,-y,-z
x,-y,1/2+z
1/2+x,1/2+y,z
1/2-x,1/2+y,1/2-z
1/2-x,1/2-y,-z
1/2+x,1/2-y,1/2+z
loop_
_atom_site_type_symbol
_atom_site_label
_atom_site_fract_x
_atom_site_fract_y
_atom_site_fract_z
Si Si1 0.739562 0.273016 0.844146
Si Si2 0.283862 0.412510 0.934101
Si Si3 0.189679 0.087857 0.447311
Si Si4 0.607338 0.207893 0.775125
Si Si5 0.379243 0.554338 0.627747
O O1 0.689051 0.341579 0.924124
O O2 0.625154 0.226977 0.927891
O O3 0.924713 0.277109 0.502299
O O4 0.750000 0.250000 0.000000
O O5 0.233262 0.435097 0.834242
O O6 0.476511 0.395811 0.613322
O O7 0.164933 0.358645 0.154365
O O8 0.299028 0.450043 0.074684
O O9 0.242145 0.070287 0.546091
O O10 0.000000 0.070561 0.750000
O O11 0.750000 0.250000 0.500000
O O12 0.500000 0.500000 0.500000
#
# Coordination Sequence:
#
# PCOD9282396 Si02
#       5
#     8   8   8   8   8
#     4  12  25  40  67  98 143 193 239 288 349 430
#     4  10  23  37  63  93 136 173 225 288 357 411
#     4  10  21  39  61  97 135 174 232 288 351 420
#     4  12  25  41  64  99 145 188 236 280 361 428
#     4  10  23  39  67  98 130 174 239 303 353 412
#
# _framework density 25.309725
#
# number of rings (size 3 to 8) (size 9 to 14) (size 15 to 20)
#    0.000    1.200    2.000    3.600   16.800    0.000 
#    0.000    0.000    0.000    1.200   10.400    0.000 
#    0.000    0.000    0.000    0.000    0.000    0.000 
#
# Total GULP energy -111365.965649 kJ/mol
# GULP energy per Si atom -5568.298282 kJ/mol
# Density = 2.525212 g / cm^3
# Si number density = 25.309725 Si / 1000 Ang^3
#
#
#
# Elastic Constant Matrix: (Units=GPa)
#
#
# Indices 1 2 3 4 5 6 
#
# 1 144.8954 54.2248 71.3677 0.0008 52.4574 -0.0010
# 2 54.2248 88.1665 46.3160 0.0000 18.6238 -0.0002
# 3 71.3677 46.3160 133.9492 0.0006 34.0265 -0.0008
# 4 0.0008 0.0000 0.0006 50.3683 -0.0005 7.7763
# 5 52.4574 18.6238 34.0265 -0.0005 76.2061 0.0008
# 6 -0.0010 -0.0002 -0.0008 7.7763 0.0008 37.9728
#
#
#
# Elastic Compliance Matrix: (Units=1/GPa)
#
#
# Indices 1 2 3 4 5 6 
#
# 1 0.012512 -0.004564 -0.003591 0.000000 -0.005894 0.000000
# 2 -0.004564 0.015659 -0.003168 0.000000 0.000729 0.000000
# 3 -0.003591 -0.003168 0.010884 0.000000 -0.001614 0.000000
# 4 0.000000 0.000000 0.000000 0.020502 0.000000 -0.004199
# 5 -0.005894 0.000729 -0.001614 0.000000 0.017722 -0.000001
# 6 0.000000 0.000000 0.000000 -0.004199 -0.000001 0.027194
#
#
# Mechanical properties :
#
#
# Convention : Reuss Voigt Hill
#
# Bulk Modulus (GPa) = 60.94072 78.98091 69.96082
# Shear Modulus (GPa) = 37.71021 45.91628 41.81324
#
# Velocity S-wave (km/s) = 3.86417 4.26393 4.06897
# Velocity P-wave (km/s) = 6.63622 7.45084 7.05530
#
# Compressibility (1/GPa) = 0.01640939
#
# Stress axis : x y z
#
# Youngs Moduli (GPa) = 79.92257 63.85970 91.87572
#
# Poissons Ratio (x) = 0.29144 0.32994
# Poissons Ratio (y) = 0.36475 0.29109
# Poissons Ratio (z) = 0.28701 0.20232
#
# Static dielectric constant tensor:
#      x y z
#    x 4.496900 -0.000020 -0.837230 
#    y -0.000020 1.669880 0.000010 
#    z -0.837230 0.000010 2.483940 
# 
# From -- ./inp_files/51646.got.cif
#   From: 2010.05.17/outbox.cif.g08.bks.cpg/sg15_26_cif.got.tgz:51646.got - 2010.06.03 18:47:42.
