data_PCOD9282185
_publ_section_title
;
Structure prediction by ZEFSAII (Michael W. Deem and Ramdas Pophale) SiO2 
 PCOD9282185
Probable space group: C 2/C
;
_chemical_formula_sum "Si O2"
_cell_formula_units_Z 40
_cell_length_a 15.910929
_cell_length_b 19.858827
_cell_length_c 9.197624
_cell_angle_alpha 90.000000
_cell_angle_beta 143.053552
_cell_angle_gamma 90.000000
_cell_volume 1746.821837
_symmetry_space_group_name_H-M "C 2/C"
_symmetry_group_IT_number 15
_symmetry_cell_setting 'monoclinic'
loop_
_space_group_symop_operation_xyz
x,y,z
-x,y,1/2-z
-x,-y,-z
x,-y,1/2+z
1/2+x,1/2+y,z
1/2-x,1/2+y,1/2-z
1/2-x,1/2-y,-z
1/2+x,1/2-y,1/2+z
loop_
_atom_site_type_symbol
_atom_site_label
_atom_site_fract_x
_atom_site_fract_y
_atom_site_fract_z
Si Si1 0.179155 0.714533 0.180594
Si Si2 0.166700 0.908485 0.455908
Si Si3 0.078956 0.680763 0.507774
Si Si4 0.858771 0.389979 0.122138
Si Si5 0.167003 0.996578 0.722115
O O1 0.252238 0.656181 0.377137
O O2 0.280427 0.777547 0.321670
O O3 0.031334 0.727479 0.053572
O O4 0.160482 0.679947 0.996016
O O5 0.205108 0.971136 0.615008
O O6 0.000000 0.897338 0.250000
O O7 0.208374 0.932909 0.352863
O O8 0.112244 0.622696 0.669587
O O9 0.000000 0.662580 0.250000
O O10 0.000000 0.421707 0.250000
O O11 0.728346 0.436210 0.904455
O O12 0.000000 0.000000 0.500000
#
# Coordination Sequence:
#
# PCOD9282185 Si02
#       5
#     8   8   8   8   8
#     4  10  21  39  59  83 119 160 201 248 303 360
#     4   9  18  34  56  81 113 150 191 244 300 357
#     4  11  22  37  58  87 120 160 207 254 303 358
#     4   9  20  39  60  85 120 160 201 250 307 363
#     4   9  18  35  58  84 113 150 194 242 301 364
#
# _framework density 22.898728999999999
#
# number of rings (size 3 to 8) (size 9 to 14) (size 15 to 20)
#    0.000    2.400    0.000    1.800    0.000    1.600 
#    0.000   22.000    0.000    0.000    0.000    0.000 
#    0.000    0.000    0.000    0.000    0.000    0.000 
#
# Total GULP energy -111706.586193 kJ/mol
# GULP energy per Si atom -5585.329310 kJ/mol
# Density = 2.284661 g / cm^3
# Si number density = 22.898729 Si / 1000 Ang^3
#
#
#
# Elastic Constant Matrix: (Units=GPa)
#
#
# Indices 1 2 3 4 5 6 
#
# 1 89.7801 24.8044 42.0702 0.0000 -10.5357 0.0000
# 2 24.8044 39.9556 29.4711 0.0000 2.2916 0.0000
# 3 42.0702 29.4711 137.8673 0.0000 -6.4591 0.0000
# 4 0.0000 0.0000 0.0000 41.5153 0.0000 5.2325
# 5 -10.5357 2.2916 -6.4591 0.0000 31.7451 0.0000
# 6 0.0000 0.0000 0.0000 5.2325 0.0000 22.7444
#
#
#
# Elastic Compliance Matrix: (Units=1/GPa)
#
#
# Indices 1 2 3 4 5 6 
#
# 1 0.015128 -0.007654 -0.002745 0.000000 0.005015 0.000000
# 2 -0.007654 0.033969 -0.005209 0.000000 -0.006052 0.000000
# 3 -0.002745 -0.005209 0.009268 0.000000 0.001351 0.000000
# 4 0.000000 0.000000 0.000000 0.024807 0.000000 -0.005707
# 5 0.005015 -0.006052 0.001351 0.000000 0.033877 0.000000
# 6 0.000000 0.000000 0.000000 -0.005707 0.000000 0.045280
#
#
# Mechanical properties :
#
#
# Convention : Reuss Voigt Hill
#
# Bulk Modulus (GPa) = 36.83575 51.14383 43.98979
# Shear Modulus (GPa) = 24.67985 30.61811 27.64898
#
# Velocity S-wave (km/s) = 3.28652 3.66062 3.47860
# Velocity P-wave (km/s) = 5.52476 6.34430 5.94866
#
# Compressibility (1/GPa) = 0.02714754
#
# Stress axis : x y z
#
# Youngs Moduli (GPa) = 66.10328 29.43869 107.89981
#
# Poissons Ratio (x) = 0.22533 0.29620
# Poissons Ratio (y) = 0.50597 0.56207
# Poissons Ratio (z) = 0.18146 0.15335
#
# Static dielectric constant tensor:
#      x y z
#    x 1.906030 0.000000 -0.016780 
#    y 0.000000 1.844550 0.000000 
#    z -0.016780 0.000000 1.872700 
# 
# From -- ./inp_files/42430.got.cif
#   From: 2010.05.17/outbox.cif.g08.bks.cpg/sg15_22_cif.got.tgz:42430.got - 2010.06.03 18:47:42.
