data_PCOD9282945
_publ_section_title
;
Structure prediction by ZEFSAII (Michael W. Deem and Ramdas Pophale) SiO2 
 PCOD9282945
Probable space group: C 2/C
;
_chemical_formula_sum "Si O2"
_cell_formula_units_Z 60
_cell_length_a 12.788405
_cell_length_b 20.321919
_cell_length_c 18.681552
_cell_angle_alpha 90.000000
_cell_angle_beta 34.305730
_cell_angle_gamma 90.000000
_cell_volume 2736.350401
_symmetry_space_group_name_H-M "C 2/C"
_symmetry_group_IT_number 15
_symmetry_cell_setting 'monoclinic'
loop_
_space_group_symop_operation_xyz
x,y,z
-x,y,1/2-z
-x,-y,-z
x,-y,1/2+z
1/2+x,1/2+y,z
1/2-x,1/2+y,1/2-z
1/2-x,1/2-y,-z
1/2+x,1/2-y,1/2+z
loop_
_atom_site_type_symbol
_atom_site_label
_atom_site_fract_x
_atom_site_fract_y
_atom_site_fract_z
Si Si1 0.000000 0.017561 0.750000
Si Si2 0.699871 0.025920 0.300284
Si Si3 0.799783 0.032716 0.603074
Si Si4 0.212181 0.817620 0.613510
Si Si5 0.759379 0.833568 0.752774
Si Si6 0.417344 0.207167 0.374529
Si Si7 0.313338 0.056856 0.467680
Si Si8 0.321598 0.326601 0.021905
O O1 0.125920 0.054933 0.620510
O O2 0.845042 0.982188 0.784519
O O3 0.758668 0.092629 0.223585
O O4 0.477655 0.035234 0.429755
O O5 0.717221 0.970393 0.229556
O O6 0.811725 0.108499 0.573359
O O7 0.704589 0.991770 0.591182
O O8 0.000000 0.000000 0.500000
O O9 0.308428 0.846554 0.627682
O O10 0.232412 0.738832 0.604073
O O11 0.270596 0.841170 0.503099
O O12 0.000000 0.835934 0.750000
O O13 0.604364 0.784852 0.814046
O O14 0.965610 0.808581 0.620137
O O15 0.500000 0.221733 0.250000
O O16 0.250000 0.250000 0.500000
O O17 0.357093 0.130371 0.414824
#
# Coordination Sequence:
#
# PCOD9282945 Si02
#       8
#     4   8   8   8   8   8   8   8
#     4  12  24  42  70 102 142 178 226 294 342 436
#     4  11  24  42  66 101 133 182 229 281 360 410
#     4  12  22  40  70  99 132 185 229 286 349 429
#     4   9  21  38  61  96 132 173 214 279 347 414
#     4  10  21  39  67  92 130 175 222 278 339 413
#     4  11  27  46  71  94 135 183 237 284 345 411
#     4  11  25  45  68 100 140 174 236 289 358 418
#     4  10  21  39  65  98 133 169 230 276 345 418
#
# _framework density 21.927015999999998
#
# number of rings (size 3 to 8) (size 9 to 14) (size 15 to 20)
#    0.000    1.333    2.667    2.400    7.467    1.067 
#    0.000    0.000    0.000    0.000    0.000    0.000 
#    0.000    0.000    0.000    0.000    0.000    0.000 
#
# Total GULP energy -167075.601789 kJ/mol
# GULP energy per Si atom -5569.186726 kJ/mol
# Density = 2.187711 g / cm^3
# Si number density = 21.927016 Si / 1000 Ang^3
#
#
#
# Elastic Constant Matrix: (Units=GPa)
#
#
# Indices 1 2 3 4 5 6 
#
# 1 128.2677 34.7844 33.4129 -0.0027 -8.9822 -0.0014
# 2 34.7844 52.8848 21.8252 -0.0181 17.5833 0.0066
# 3 33.4129 21.8252 93.6616 -0.0123 2.8475 0.0037
# 4 -0.0027 -0.0181 -0.0123 41.3018 0.0084 -10.6208
# 5 -8.9822 17.5833 2.8475 0.0084 26.1533 -0.0025
# 6 -0.0014 0.0066 0.0037 -10.6208 -0.0025 33.6644
#
#
#
# Elastic Compliance Matrix: (Units=1/GPa)
#
#
# Indices 1 2 3 4 5 6 
#
# 1 0.012187 -0.011086 -0.002125 -0.000007 0.011870 0.000002
# 2 -0.011086 0.037245 -0.003860 0.000019 -0.028428 -0.000003
# 3 -0.002125 -0.003860 0.012318 0.000002 0.000524 0.000000
# 4 -0.000007 0.000019 0.000002 0.026350 -0.000023 0.008313
# 5 0.011870 -0.028428 0.000524 -0.000023 0.061368 0.000003
# 6 0.000002 -0.000003 0.000000 0.008313 0.000003 0.032328
#
#
# Mechanical properties :
#
#
# Convention : Reuss Voigt Hill
#
# Bulk Modulus (GPa) = 36.22010 50.53991 43.38000
# Shear Modulus (GPa) = 22.20829 32.54336 27.37583
#
# Velocity S-wave (km/s) = 3.18595 3.85667 3.53724
# Velocity P-wave (km/s) = 5.48526 6.55218 6.04231
#
# Compressibility (1/GPa) = 0.02760898
#
# Stress axis : x y z
#
# Youngs Moduli (GPa) = 82.05257 26.84918 81.17883
#
# Poissons Ratio (x) = 0.29764 0.17254
# Poissons Ratio (y) = 0.90960 0.31335
# Poissons Ratio (z) = 0.17439 0.10364
#
# Static dielectric constant tensor:
#      x y z
#    x 1.774630 -0.000010 -0.156840 
#    y -0.000010 1.822140 0.000000 
#    z -0.156840 0.000000 1.701660 
# 
# From -- ./inp_files/200489.got.cif
#   From: 2010.05.17/outbox.cif.g08.bks.cpg/sg15_101_cif.got.tgz:200489.got - 2010.06.03 18:47:42.
