data_PCOD9282693
_publ_section_title
;
Structure prediction by ZEFSAII (Michael W. Deem and Ramdas Pophale) SiO2 
 PCOD9282693
Probable space group: C 2/C
;
_chemical_formula_sum "Si O2"
_cell_formula_units_Z 28
_cell_length_a 11.808001
_cell_length_b 19.842671
_cell_length_c 4.828687
_cell_angle_alpha 90.000000
_cell_angle_beta 67.275628
_cell_angle_gamma 90.000000
_cell_volume 1043.548290
_symmetry_space_group_name_H-M "C 2/C"
_symmetry_group_IT_number 15
_symmetry_cell_setting 'monoclinic'
loop_
_space_group_symop_operation_xyz
x,y,z
-x,y,1/2-z
-x,-y,-z
x,-y,1/2+z
1/2+x,1/2+y,z
1/2-x,1/2+y,1/2-z
1/2-x,1/2-y,-z
1/2+x,1/2-y,1/2+z
loop_
_atom_site_type_symbol
_atom_site_label
_atom_site_fract_x
_atom_site_fract_y
_atom_site_fract_z
Si Si1 0.864569 0.380870 0.289750
Si Si2 0.378608 0.745159 0.036806
Si Si3 0.696054 0.597240 0.426971
Si Si4 0.500000 0.500000 0.500000
O O1 0.770977 0.417031 0.580866
O O2 0.000000 0.403109 0.250000
O O3 0.866412 0.298361 0.300026
O O4 0.806132 0.393011 0.044695
O O5 0.500000 0.765896 0.750000
O O6 0.250000 0.750000 0.000000
O O7 0.380617 0.664941 0.065524
O O8 0.605068 0.539196 0.623766
O O9 0.500000 0.557223 0.250000
#
# Coordination Sequence:
#
# PCOD9282693 Si02
#       4
#     8   8   8   4
#     4  11  22  41  68 101 142 185 231 288 364 441
#     4  10  21  39  64 103 146 185 229 285 363 438
#     4  11  24  42  67 101 141 187 238 295 352 422
#     4  12  26  46  70  98 132 178 238 298 346 398
#
# _framework density 26.831529
#
# number of rings (size 3 to 8) (size 9 to 14) (size 15 to 20)
#    0.000    1.143    0.000    7.714    0.000    5.714 
#    0.000    0.000    0.000   17.143    0.000    2.000 
#    0.000    0.000    0.000    0.000    0.000    0.000 
#
# Total GULP energy -78052.766386 kJ/mol
# GULP energy per Si atom -5575.197599 kJ/mol
# Density = 2.677046 g / cm^3
# Si number density = 26.831529 Si / 1000 Ang^3
#
#
#
# Elastic Constant Matrix: (Units=GPa)
#
#
# Indices 1 2 3 4 5 6 
#
# 1 171.4649 61.7294 53.4789 0.0000 -24.4650 0.0000
# 2 61.7294 123.6544 -3.3382 0.0000 -20.8625 0.0000
# 3 53.4789 -3.3382 118.2381 0.0000 10.0688 0.0000
# 4 0.0000 0.0000 0.0000 31.9715 0.0000 -3.4726
# 5 -24.4650 -20.8625 10.0688 0.0000 75.2030 0.0000
# 6 0.0000 0.0000 0.0000 -3.4726 0.0000 39.4215
#
#
#
# Elastic Compliance Matrix: (Units=1/GPa)
#
#
# Indices 1 2 3 4 5 6 
#
# 1 0.009083 -0.004255 -0.004430 0.000000 0.002368 0.000000
# 2 -0.004255 0.010477 0.002115 0.000000 0.001239 0.000000
# 3 -0.004430 0.002115 0.010716 0.000000 -0.002289 0.000000
# 4 0.000000 0.000000 0.000000 0.031580 0.000000 0.002782
# 5 0.002368 0.001239 -0.002289 0.000000 0.014718 0.000000
# 6 0.000000 0.000000 0.000000 0.002782 0.000000 0.025612
#
#
# Mechanical properties :
#
#
# Convention : Reuss Voigt Hill
#
# Bulk Modulus (GPa) = 58.35608 70.78863 64.57236
# Shear Modulus (GPa) = 41.30906 49.41835 45.36371
#
# Velocity S-wave (km/s) = 3.92799 4.29628 4.11626
# Velocity P-wave (km/s) = 6.50911 7.14497 6.83444
#
# Compressibility (1/GPa) = 0.01713617
#
# Stress axis : x y z
#
# Youngs Moduli (GPa) = 110.09080 95.44555 93.31905
#
# Poissons Ratio (x) = 0.40608 0.41342
# Poissons Ratio (y) = 0.46839 -0.19734
# Poissons Ratio (z) = 0.48772 -0.20183
#
# Static dielectric constant tensor:
#      x y z
#    x 2.327020 0.000000 0.034690 
#    y 0.000000 2.266290 0.000000 
#    z 0.034690 0.000000 3.123770 
# 
# From -- ./inp_files/3637.got.cif
#   From: 2010.05.17/outbox.cif.g08.bks.cpg/sg15_2_cif.got.tgz:3637.got - 2010.06.03 18:47:42.
