data_PCOD9282893
_publ_section_title
;
Structure prediction by ZEFSAII (Michael W. Deem and Ramdas Pophale) SiO2 
 PCOD9282893
Probable space group: C 2/C
;
_chemical_formula_sum "Si O2"
_cell_formula_units_Z 40
_cell_length_a 24.195141
_cell_length_b 13.529307
_cell_length_c 5.215586
_cell_angle_alpha 90.000000
_cell_angle_beta 81.280799
_cell_angle_gamma 90.000000
_cell_volume 1687.557238
_symmetry_space_group_name_H-M "C 2/C"
_symmetry_group_IT_number 15
_symmetry_cell_setting 'monoclinic'
loop_
_space_group_symop_operation_xyz
x,y,z
-x,y,1/2-z
-x,-y,-z
x,-y,1/2+z
1/2+x,1/2+y,z
1/2-x,1/2+y,1/2-z
1/2-x,1/2-y,-z
1/2+x,1/2-y,1/2+z
loop_
_atom_site_type_symbol
_atom_site_label
_atom_site_fract_x
_atom_site_fract_y
_atom_site_fract_z
Si Si1 0.155179 0.271552 0.273250
Si Si2 0.066057 0.435618 0.193064
Si Si3 0.524783 0.610753 0.981056
Si Si4 0.733910 0.944074 0.386981
Si Si5 0.650595 0.356179 0.283673
O O1 0.104179 0.341373 0.222305
O O2 0.205235 0.341945 0.330222
O O3 0.140429 0.205721 0.530892
O O4 0.170965 0.207878 0.012912
O O5 0.077986 0.515488 0.409090
O O6 0.000000 0.413036 0.250000
O O7 0.500000 0.663298 0.750000
O O8 0.591019 0.602378 0.916268
O O9 0.500000 0.660286 0.250000
O O10 0.500000 0.500000 0.000000
O O11 0.800627 0.932127 0.319685
O O12 0.717007 0.976987 0.682307
#
# Coordination Sequence:
#
# PCOD9282893 Si02
#       5
#     8   8   8   8   8
#     4  12  24  44  66 101 138 172 226 287 350 395
#     4  10  21  39  65  93 128 172 219 269 337 412
#     4  10  23  41  66  92 133 173 228 269 325 398
#     4  12  26  44  72  96 134 179 236 276 347 412
#     4  12  26  42  69  98 138 179 223 290 338 403
#
# _framework density 23.702897
#
# number of rings (size 3 to 8) (size 9 to 14) (size 15 to 20)
#    0.000    0.800    0.000    7.200    5.600    2.400 
#    0.000    0.000    0.000    0.000    0.000    0.000 
#    0.000    0.000    0.000    0.000    0.000    0.000 
#
# Total GULP energy -112079.010923 kJ/mol
# GULP energy per Si atom -5603.950546 kJ/mol
# Density = 2.364895 g / cm^3
# Si number density = 23.702897 Si / 1000 Ang^3
#
#
#
# Elastic Constant Matrix: (Units=GPa)
#
#
# Indices 1 2 3 4 5 6 
#
# 1 103.7815 12.7745 34.9960 0.0000 -7.8582 0.0000
# 2 12.7745 43.7496 12.9090 0.0000 4.9464 0.0000
# 3 34.9960 12.9090 108.2297 0.0000 22.3096 0.0000
# 4 0.0000 0.0000 0.0000 32.4500 0.0000 -1.3097
# 5 -7.8582 4.9464 22.3096 0.0000 40.8117 0.0000
# 6 0.0000 0.0000 0.0000 -1.3097 0.0000 4.3979
#
#
#
# Elastic Compliance Matrix: (Units=1/GPa)
#
#
# Indices 1 2 3 4 5 6 
#
# 1 0.011901 -0.002702 -0.004582 0.000000 0.005124 0.000000
# 2 -0.002702 0.024386 -0.001486 0.000000 -0.002664 0.000000
# 3 -0.004582 -0.001486 0.012446 0.000000 -0.007506 0.000000
# 4 0.000000 0.000000 0.000000 0.031192 0.000000 0.009289
# 5 0.005124 -0.002664 -0.007506 0.000000 0.029915 0.000000
# 6 0.000000 0.000000 0.000000 0.009289 0.000000 0.230148
#
#
# Mechanical properties :
#
#
# Convention : Reuss Voigt Hill
#
# Bulk Modulus (GPa) = 32.05912 41.90221 36.98066
# Shear Modulus (GPa) = 13.58968 28.53732 21.06350
#
# Velocity S-wave (km/s) = 2.39704 3.47358 2.98425
# Velocity P-wave (km/s) = 4.60606 5.81413 5.24499
#
# Compressibility (1/GPa) = 0.03119237
#
# Stress axis : x y z
#
# Youngs Moduli (GPa) = 84.02370 41.00721 80.34961
#
# Poissons Ratio (x) = 0.11082 0.36818
# Poissons Ratio (y) = 0.22706 0.11938
# Poissons Ratio (z) = 0.38501 0.06093
#
# Static dielectric constant tensor:
#      x y z
#    x 1.894910 0.000000 0.004140 
#    y 0.000000 1.828310 0.000000 
#    z 0.004140 0.000000 1.800100 
# 
# From -- ./inp_files/15085.got.cif
#   From: 2010.05.17/outbox.cif.g08.bks.cpg/sg15_8_cif.got.tgz:15085.got - 2010.06.03 18:47:42.
