data_PCOD9282149
_publ_section_title
;
Structure prediction by ZEFSAII (Michael W. Deem and Ramdas Pophale) SiO2 
 PCOD9282149
Probable space group: C 2/C
;
_chemical_formula_sum "Si O2"
_cell_formula_units_Z 56
_cell_length_a 14.805813
_cell_length_b 9.515234
_cell_length_c 23.590109
_cell_angle_alpha 90.000000
_cell_angle_beta 56.767162
_cell_angle_gamma 90.000000
_cell_volume 2779.853109
_symmetry_space_group_name_H-M "C 2/C"
_symmetry_group_IT_number 15
_symmetry_cell_setting 'monoclinic'
loop_
_space_group_symop_operation_xyz
x,y,z
-x,y,1/2-z
-x,-y,-z
x,-y,1/2+z
1/2+x,1/2+y,z
1/2-x,1/2+y,1/2-z
1/2-x,1/2-y,-z
1/2+x,1/2-y,1/2+z
loop_
_atom_site_type_symbol
_atom_site_label
_atom_site_fract_x
_atom_site_fract_y
_atom_site_fract_z
Si Si1 0.613709 0.945589 0.936012
Si Si2 0.088805 0.649007 0.265556
Si Si3 0.826828 0.846253 0.512835
Si Si4 0.167009 0.860583 0.859392
Si Si5 0.568109 0.330600 0.387185
Si Si6 0.551831 0.889939 0.352375
Si Si7 0.697349 0.901250 0.022230
O O1 0.606701 0.782161 0.921127
O O2 0.625663 0.030527 0.874100
O O3 0.695990 0.963739 0.958842
O O4 0.500000 0.000000 0.000000
O O5 0.208463 0.654942 0.199622
O O6 0.079955 0.750318 0.323273
O O7 0.065078 0.488371 0.293453
O O8 0.000000 0.690270 0.250000
O O9 0.750000 0.750000 0.500000
O O10 0.847485 0.804504 0.571047
O O11 0.942211 0.856637 0.443204
O O12 0.766574 0.995299 0.536670
O O13 0.095176 0.767856 0.840803
O O14 0.129915 0.022351 0.868737
O O15 0.426216 0.894040 0.413946
O O16 0.750000 0.750000 0.000000
#
# Coordination Sequence:
#
# PCOD9282149 Si02
#       7
#     8   8   8   8   8   8   8
#     4   9  18  35  55  78 115 156 189 228 288 355
#     4  11  24  43  63  85 118 160 204 251 308 369
#     4  12  22  36  61  93 122 155 198 251 299 349
#     4  12  23  40  62  89 120 160 204 252 302 366
#     4  11  23  40  62  91 122 160 206 252 303 366
#     4  10  21  39  58  80 115 157 194 236 297 365
#     4  11  20  33  55  88 119 148 187 242 295 342
#
# _framework density 20.144949
#
# number of rings (size 3 to 8) (size 9 to 14) (size 15 to 20)
#    0.000    1.143    0.000    9.857    0.000    0.000 
#    0.000    0.714    0.000    0.000    0.000    0.000 
#    0.000    0.000    0.000    0.000    0.000    0.000 
#
# Total GULP energy -156431.640133 kJ/mol
# GULP energy per Si atom -5586.844290 kJ/mol
# Density = 2.009910 g / cm^3
# Si number density = 20.144949 Si / 1000 Ang^3
#
#
#
# Elastic Constant Matrix: (Units=GPa)
#
#
# Indices 1 2 3 4 5 6 
#
# 1 74.6569 19.9838 40.9414 0.0000 -8.6576 0.0000
# 2 19.9838 109.6709 22.0210 0.0000 -7.0092 0.0000
# 3 40.9414 22.0210 102.9355 0.0000 -17.7594 0.0000
# 4 0.0000 0.0000 0.0000 29.0999 0.0000 -5.1428
# 5 -8.6576 -7.0092 -17.7594 0.0000 42.5805 0.0000
# 6 0.0000 0.0000 0.0000 -5.1428 0.0000 28.9674
#
#
#
# Elastic Compliance Matrix: (Units=1/GPa)
#
#
# Indices 1 2 3 4 5 6 
#
# 1 0.017503 -0.001855 -0.006469 0.000000 0.000555 0.000000
# 2 -0.001855 0.009748 -0.001224 0.000000 0.000717 0.000000
# 3 -0.006469 -0.001224 0.013241 0.000000 0.004006 0.000000
# 4 0.000000 0.000000 0.000000 0.035477 0.000000 0.006299
# 5 0.000555 0.000717 0.004006 0.000000 0.025387 0.000000
# 6 0.000000 0.000000 0.000000 0.006299 0.000000 0.035640
#
#
# Mechanical properties :
#
#
# Convention : Reuss Voigt Hill
#
# Bulk Modulus (GPa) = 46.73780 50.35064 48.54422
# Shear Modulus (GPa) = 30.63296 33.75071 32.19183
#
# Velocity S-wave (km/s) = 3.90375 4.09760 4.00185
# Velocity P-wave (km/s) = 6.60077 6.88734 6.74558
#
# Compressibility (1/GPa) = 0.02139596
#
# Stress axis : x y z
#
# Youngs Moduli (GPa) = 57.13276 102.58779 75.52472
#
# Poissons Ratio (x) = 0.19029 0.48857
# Poissons Ratio (y) = 0.10598 0.09243
# Poissons Ratio (z) = 0.36959 0.12555
#
# Static dielectric constant tensor:
#      x y z
#    x 1.689740 0.000000 0.040320 
#    y 0.000000 1.772880 0.000000 
#    z 0.040320 0.000000 1.716630 
# 
# From -- ./inp_files/273031.got.cif
#   From: 2010.05.17/outbox.cif.g08.bks.cpg/sg15_137_cif.got.tgz:273031.got - 2010.06.03 18:47:42.
