data_PCOD9282282
_publ_section_title
;
Structure prediction by ZEFSAII (Michael W. Deem and Ramdas Pophale) SiO2 
 PCOD9282282
Probable space group: C 2/C
;
_chemical_formula_sum "Si O2"
_cell_formula_units_Z 44
_cell_length_a 20.300685
_cell_length_b 8.310723
_cell_length_c 13.236544
_cell_angle_alpha 90.000000
_cell_angle_beta 78.596934
_cell_angle_gamma 90.000000
_cell_volume 2189.100262
_symmetry_space_group_name_H-M "C 2/C"
_symmetry_group_IT_number 15
_symmetry_cell_setting 'monoclinic'
loop_
_space_group_symop_operation_xyz
x,y,z
-x,y,1/2-z
-x,-y,-z
x,-y,1/2+z
1/2+x,1/2+y,z
1/2-x,1/2+y,1/2-z
1/2-x,1/2-y,-z
1/2+x,1/2-y,1/2+z
loop_
_atom_site_type_symbol
_atom_site_label
_atom_site_fract_x
_atom_site_fract_y
_atom_site_fract_z
Si Si1 0.057034 0.952679 0.562258
Si Si2 0.133960 0.550377 0.714638
Si Si3 0.652550 0.281617 0.101641
Si Si4 0.500000 0.214686 0.750000
Si Si5 0.296005 0.903111 0.112126
Si Si6 0.672635 0.219113 0.496030
O O1 0.122771 0.867239 0.491180
O O2 0.025376 0.830074 0.652700
O O3 0.087539 0.107920 0.609317
O O4 0.000000 0.000000 0.500000
O O5 0.144406 0.363604 0.683718
O O6 0.184872 0.631133 0.778726
O O7 0.144250 0.634967 0.604353
O O8 0.059569 0.599888 0.771112
O O9 0.716839 0.387268 0.115703
O O10 0.670317 0.206844 0.985358
O O11 0.324791 0.082709 0.089466
O O12 0.750000 0.250000 0.500000
#
# Coordination Sequence:
#
# PCOD9282282 Si02
#       6
#     8   8   8   4   8   8
#     4  11  23  41  64  90 123 166 207 253 311 371
#     4  10  23  39  62  86 127 163 197 253 317 364
#     4  10  22  38  62  92 121 155 215 254 297 384
#     4  10  24  42  56  88 130 160 204 250 304 388
#     4  10  21  39  60  92 121 160 199 261 315 357
#     4  10  21  40  60  90 126 155 204 260 306 370
#
# _framework density 20.099582000000002
#
# number of rings (size 3 to 8) (size 9 to 14) (size 15 to 20)
#    0.000    1.818    1.818    1.091    2.545    3.636 
#    0.000    5.455    0.000    0.000    0.000    0.000 
#    0.000    0.000    0.000    0.000    0.000    0.000 
#
# Total GULP energy -122697.113083 kJ/mol
# GULP energy per Si atom -5577.141504 kJ/mol
# Density = 2.005383 g / cm^3
# Si number density = 20.099582 Si / 1000 Ang^3
#
#
#
# Elastic Constant Matrix: (Units=GPa)
#
#
# Indices 1 2 3 4 5 6 
#
# 1 123.6882 46.1565 28.1191 0.0000 4.8849 0.0000
# 2 46.1565 74.6664 26.6013 0.0000 1.9073 0.0000
# 3 28.1191 26.6013 51.6858 0.0000 10.9223 0.0000
# 4 0.0000 0.0000 0.0000 10.0405 0.0000 -10.7845
# 5 4.8849 1.9073 10.9223 0.0000 32.1563 0.0000
# 6 0.0000 0.0000 0.0000 -10.7845 0.0000 39.8625
#
#
#
# Elastic Compliance Matrix: (Units=1/GPa)
#
#
# Indices 1 2 3 4 5 6 
#
# 1 0.010881 -0.005674 -0.002932 0.000000 -0.000321 0.000000
# 2 -0.005674 0.019484 -0.007411 0.000000 0.002223 0.000000
# 3 -0.002932 -0.007411 0.026470 0.000000 -0.008106 0.000000
# 4 0.000000 0.000000 0.000000 0.140394 0.000000 0.037982
# 5 -0.000321 0.002223 -0.008106 0.000000 0.033768 0.000000
# 6 0.000000 0.000000 0.000000 0.037982 0.000000 0.035362
#
#
# Mechanical properties :
#
#
# Convention : Reuss Voigt Hill
#
# Bulk Modulus (GPa) = 40.31977 50.19936 45.25956
# Shear Modulus (GPa) = 16.30472 26.35609 21.33041
#
# Velocity S-wave (km/s) = 2.85124 3.62508 3.26120
# Velocity P-wave (km/s) = 5.56264 6.52313 6.06194
#
# Compressibility (1/GPa) = 0.02480173
#
# Stress axis : x y z
#
# Youngs Moduli (GPa) = 91.90059 51.32492 37.77872
#
# Poissons Ratio (x) = 0.29120 0.11077
# Poissons Ratio (y) = 0.52142 0.27997
# Poissons Ratio (z) = 0.26945 0.38036
#
# Static dielectric constant tensor:
#      x y z
#    x 1.744200 0.000000 -0.005220 
#    y 0.000000 1.690960 0.000000 
#    z -0.005220 0.000000 1.708750 
# 
# From -- ./inp_files/159268.got.cif
#   From: 2010.05.17/outbox.cif.g08.bks.cpg/sg15_80_cif.got.tgz:159268.got - 2010.06.03 18:47:42.
