data_PCOD9282899
_publ_section_title
;
Structure prediction by ZEFSAII (Michael W. Deem and Ramdas Pophale) SiO2 
 PCOD9282899
Probable space group: C 2/C
;
_chemical_formula_sum "Si O2"
_cell_formula_units_Z 36
_cell_length_a 15.772651
_cell_length_b 15.517757
_cell_length_c 8.535734
_cell_angle_alpha 90.000000
_cell_angle_beta 60.560586
_cell_angle_gamma 90.000000
_cell_volume 1819.410894
_symmetry_space_group_name_H-M "C 2/C"
_symmetry_group_IT_number 15
_symmetry_cell_setting 'monoclinic'
loop_
_space_group_symop_operation_xyz
x,y,z
-x,y,1/2-z
-x,-y,-z
x,-y,1/2+z
1/2+x,1/2+y,z
1/2-x,1/2+y,1/2-z
1/2-x,1/2-y,-z
1/2+x,1/2-y,1/2+z
loop_
_atom_site_type_symbol
_atom_site_label
_atom_site_fract_x
_atom_site_fract_y
_atom_site_fract_z
Si Si1 0.599842 0.882762 0.927870
Si Si2 0.819620 0.889020 0.628415
Si Si3 0.500000 0.004156 0.250000
Si Si4 0.400890 0.553590 0.741589
Si Si5 0.505251 0.696970 0.060699
O O1 0.712647 0.870073 0.786514
O O2 0.549983 0.935672 0.832904
O O3 0.548228 0.791313 0.996424
O O4 0.579743 0.941813 0.097896
O O5 0.824972 0.913061 0.440270
O O6 0.896836 0.813074 0.589164
O O7 0.862048 0.970516 0.686785
O O8 0.500000 0.534964 0.750000
O O9 0.429604 0.627145 0.591046
O O10 0.500000 0.678578 0.250000
#
# Coordination Sequence:
#
# PCOD9282899 Si02
#       5
#     8   8   4   8   8
#     4  11  24  44  66  90 124 167 207 255 309 369
#     4  11  22  40  66  95 123 167 206 247 318 367
#     4  10  24  46  64  86 130 162 206 258 308 366
#     4  10  21  39  65  94 127 160 201 264 307 359
#     4  11  23  41  61  96 130 158 207 261 304 360
#
# _framework density 19.786625000000001
#
# number of rings (size 3 to 8) (size 9 to 14) (size 15 to 20)
#    0.000    1.333    1.111    6.000    4.667    1.778 
#    8.000    0.000    0.000    0.000    0.000    0.000 
#    0.000    0.000    0.000    0.000    0.000    0.000 
#
# Total GULP energy -100671.895565 kJ/mol
# GULP energy per Si atom -5592.883087 kJ/mol
# Density = 1.974159 g / cm^3
# Si number density = 19.786625 Si / 1000 Ang^3
#
#
#
# Elastic Constant Matrix: (Units=GPa)
#
#
# Indices 1 2 3 4 5 6 
#
# 1 38.1542 48.6281 45.3530 0.0000 -3.1114 0.0000
# 2 48.6281 135.2572 63.1239 0.0000 5.2302 0.0000
# 3 45.3530 63.1239 165.2516 0.0000 1.9151 0.0000
# 4 0.0000 0.0000 0.0000 19.5168 0.0000 4.9306
# 5 -3.1114 5.2302 1.9151 0.0000 33.6004 0.0000
# 6 0.0000 0.0000 0.0000 4.9306 0.0000 16.9808
#
#
#
# Elastic Compliance Matrix: (Units=1/GPa)
#
#
# Indices 1 2 3 4 5 6 
#
# 1 0.061842 -0.017785 -0.010284 0.000000 0.009081 0.000000
# 2 -0.017785 0.014161 -0.000484 0.000000 -0.003824 0.000000
# 3 -0.010284 -0.000484 0.009075 0.000000 -0.001394 0.000000
# 4 0.000000 0.000000 0.000000 0.055294 0.000000 -0.016055
# 5 0.009081 -0.003824 -0.001394 0.000000 0.031277 0.000000
# 6 0.000000 0.000000 0.000000 -0.016055 0.000000 0.063552
#
#
# Mechanical properties :
#
#
# Convention : Reuss Voigt Hill
#
# Bulk Modulus (GPa) = 35.75059 72.54144 54.14601
# Shear Modulus (GPa) = 16.57656 26.12346 21.35001
#
# Velocity S-wave (km/s) = 2.89756 3.63748 3.28840
# Velocity P-wave (km/s) = 5.41311 7.37449 6.46857
#
# Compressibility (1/GPa) = 0.02797157
#
# Stress axis : x y z
#
# Youngs Moduli (GPa) = 16.17034 70.61521 110.19546
#
# Poissons Ratio (x) = 1.25591 1.13323
# Poissons Ratio (y) = 0.28759 0.05333
# Poissons Ratio (z) = 0.16629 0.03418
#
# Static dielectric constant tensor:
#      x y z
#    x 1.674040 0.000000 0.007850 
#    y 0.000000 1.669940 0.000000 
#    z 0.007850 0.000000 1.715880 
# 
# From -- ./inp_files/37459.got.cif
#   From: 2010.05.17/outbox.cif.g08.bks.cpg/sg15_19_cif.got.tgz:37459.got - 2010.06.03 18:47:42.
