data_PCOD9282905
_publ_section_title
;
Structure prediction by ZEFSAII (Michael W. Deem and Ramdas Pophale) SiO2 
 PCOD9282905
Probable space group: C 2/C
;
_chemical_formula_sum "Si O2"
_cell_formula_units_Z 60
_cell_length_a 18.601491
_cell_length_b 30.800786
_cell_length_c 5.052454
_cell_angle_alpha 90.000000
_cell_angle_beta 104.920429
_cell_angle_gamma 90.000000
_cell_volume 2797.157130
_symmetry_space_group_name_H-M "C 2/C"
_symmetry_group_IT_number 15
_symmetry_cell_setting 'monoclinic'
loop_
_space_group_symop_operation_xyz
x,y,z
-x,y,1/2-z
-x,-y,-z
x,-y,1/2+z
1/2+x,1/2+y,z
1/2-x,1/2+y,1/2-z
1/2-x,1/2-y,-z
1/2+x,1/2-y,1/2+z
loop_
_atom_site_type_symbol
_atom_site_label
_atom_site_fract_x
_atom_site_fract_y
_atom_site_fract_z
Si Si1 0.500000 0.968499 0.750000
Si Si2 0.426673 0.710666 0.862402
Si Si3 0.411889 0.479811 0.243122
Si Si4 0.767720 0.325084 0.071561
Si Si5 0.914944 0.114623 0.759625
Si Si6 0.354034 0.742106 0.278174
Si Si7 0.760244 0.882267 0.935589
Si Si8 0.666069 0.031852 0.410923
O O1 0.500000 0.000000 0.500000
O O2 0.417977 0.947073 0.673780
O O3 0.500000 0.713741 0.750000
O O4 0.413969 0.659763 0.912571
O O5 0.366505 0.729048 0.594754
O O6 0.420908 0.734645 0.134596
O O7 0.500000 0.485902 0.250000
O O8 0.379785 0.513958 0.420465
O O9 0.401031 0.432904 0.365584
O O10 0.830670 0.291876 0.227887
O O11 0.747214 0.354765 0.301611
O O12 0.706374 0.291372 0.899432
O O13 0.780874 0.357642 0.840859
O O14 0.850041 0.117720 0.477206
O O15 0.000000 0.111438 0.750000
O O16 0.725580 0.929655 0.944731
O O17 0.673056 0.002850 0.680570
#
# Coordination Sequence:
#
# PCOD9282905 Si02
#       8
#     4   8   8   8   8   8   8   8
#     4   8  16  34  62  90 116 150 194 240 300 358
#     4  11  22  38  63  91 118 156 206 261 309 359
#     4   9  19  34  50  69 100 147 194 237 294 351
#     4  11  23  39  63  88 117 163 203 260 305 372
#     4  10  22  38  57  84 119 159 209 260 302 349
#     4  11  21  41  63  87 117 156 212 248 316 371
#     4  12  23  40  61  93 126 159 212 253 306 362
#     4  10  21  39  65  95 124 160 200 253 306 369
#
# _framework density 21.450351000000001
#
# number of rings (size 3 to 8) (size 9 to 14) (size 15 to 20)
#    0.000    1.600    2.667    2.000    0.000    5.333 
#    0.000    6.000    8.800    0.000    0.000    0.000 
#    0.000    0.000    0.000    0.000    0.000    0.000 
#
# Total GULP energy -167195.788996 kJ/mol
# GULP energy per Si atom -5573.192967 kJ/mol
# Density = 2.140153 g / cm^3
# Si number density = 21.450351 Si / 1000 Ang^3
#
#
#
# Elastic Constant Matrix: (Units=GPa)
#
#
# Indices 1 2 3 4 5 6 
#
# 1 69.5096 37.1002 2.9709 0.0000 12.1930 0.0000
# 2 37.1002 94.5441 15.1827 0.0000 -2.4149 0.0000
# 3 2.9709 15.1827 93.6010 0.0000 -18.4699 0.0000
# 4 0.0000 0.0000 0.0000 20.5335 0.0000 -9.0050
# 5 12.1930 -2.4149 -18.4699 0.0000 21.8977 0.0000
# 6 0.0000 0.0000 0.0000 -9.0050 0.0000 3.8100
#
#
#
# Elastic Compliance Matrix: (Units=1/GPa)
#
#
# Indices 1 2 3 4 5 6 
#
# 1 0.021633 -0.008509 -0.002242 0.000000 -0.014875 0.000000
# 2 -0.008509 0.014209 -0.000948 0.000000 0.005505 0.000000
# 3 -0.002242 -0.000948 0.013357 0.000000 0.012410 0.000000
# 4 0.000000 0.000000 0.000000 -1.333021 0.000000 -3.150647
# 5 -0.014875 0.005505 0.012410 0.000000 0.065024 0.000000
# 6 0.000000 0.000000 0.000000 -3.150647 0.000000 -7.184210
#
#
# Mechanical properties :
#
#
# Convention : Reuss Voigt Hill
#
# Bulk Modulus (GPa) = 38.75744 40.90693 39.83219
# Shear Modulus (GPa) = -0.59730 22.74164 11.07217
#
# Velocity S-wave (km/s) = -0.52826 3.25960 2.27442
# Velocity P-wave (km/s) = 4.21136 5.76876 5.05045
#
# Compressibility (1/GPa) = 0.02580149
#
# Stress axis : x y z
#
# Youngs Moduli (GPa) = 46.22516 70.37757 74.86452
#
# Poissons Ratio (x) = 0.59885 0.16782
# Poissons Ratio (y) = 0.39333 0.07101
# Poissons Ratio (z) = 0.10362 0.06675
#
# Static dielectric constant tensor:
#      x y z
#    x 1.981530 0.000000 0.114960 
#    y 0.000000 1.754880 0.000000 
#    z 0.114960 0.000000 1.842350 
# 
# From -- ./inp_files/12042.got.cif
#   From: 2010.05.17/outbox.cif.g08.bks.cpg/sg15_7_cif.got.tgz:12042.got - 2010.06.03 18:47:42.
