data_PCOD9282855
_publ_section_title
;
Structure prediction by ZEFSAII (Michael W. Deem and Ramdas Pophale) SiO2 
 PCOD9282855
Probable space group: C 2/C
;
_chemical_formula_sum "Si O2"
_cell_formula_units_Z 60
_cell_length_a 25.082847
_cell_length_b 21.571817
_cell_length_c 9.368520
_cell_angle_alpha 90.000000
_cell_angle_beta 143.164426
_cell_angle_gamma 90.000000
_cell_volume 3039.055889
_symmetry_space_group_name_H-M "C 2/C"
_symmetry_group_IT_number 15
_symmetry_cell_setting 'monoclinic'
loop_
_space_group_symop_operation_xyz
x,y,z
-x,y,1/2-z
-x,-y,-z
x,-y,1/2+z
1/2+x,1/2+y,z
1/2-x,1/2+y,1/2-z
1/2-x,1/2-y,-z
1/2+x,1/2-y,1/2+z
loop_
_atom_site_type_symbol
_atom_site_label
_atom_site_fract_x
_atom_site_fract_y
_atom_site_fract_z
Si Si1 0.990070 0.317248 0.499891
Si Si2 0.234531 0.017729 0.370608
Si Si3 0.063829 0.060601 0.159217
Si Si4 0.178341 0.110140 0.669544
Si Si5 0.354998 0.998159 0.877860
Si Si6 0.533769 0.682492 0.486082
Si Si7 0.000000 0.398208 0.250000
Si Si8 0.370924 0.131956 0.995894
O O1 0.005552 0.245144 0.501648
O O2 0.967207 0.354235 0.307141
O O3 0.916282 0.332982 0.460803
O O4 0.083007 0.341618 0.764455
O O5 0.147811 0.054555 0.233375
O O6 0.319098 0.026533 0.653722
O O7 0.211197 0.945379 0.338885
O O8 0.269302 0.024428 0.284775
O O9 0.109411 0.074539 0.413371
O O10 0.007089 0.123008 0.020817
O O11 0.000000 0.000000 0.000000
O O12 0.135215 0.163691 0.671836
O O13 0.264168 0.134857 0.769331
O O14 0.393162 0.058717 0.038655
O O15 0.425011 0.943492 0.025142
O O16 0.500000 0.686947 0.250000
#
# Coordination Sequence:
#
# PCOD9282855 Si02
#       8
#     8   8   8   8   8   8   4   8
#     4  11  23  41  61  88 126 170 218 249 305 373
#     4  11  20  38  61  97 125 154 200 261 319 379
#     4  11  21  38  68  94 121 160 197 256 324 373
#     4  10  21  39  65  91 130 164 200 255 328 374
#     4  11  23  37  62  94 127 160 208 263 317 361
#     4  10  22  41  61  89 123 168 208 254 313 374
#     4  12  22  36  62  90 120 168 220 256 294 378
#     4  10  22  41  62  88 127 167 198 267 323 355
#
# _framework density 19.742972999999999
#
# number of rings (size 3 to 8) (size 9 to 14) (size 15 to 20)
#    0.000    1.333    4.667    3.200    0.000    2.133 
#    0.000    9.333    0.000    0.000    0.000    0.000 
#    0.000    0.000    0.000    0.000    0.000    0.000 
#
# Total GULP energy -167233.629537 kJ/mol
# GULP energy per Si atom -5574.454318 kJ/mol
# Density = 1.969804 g / cm^3
# Si number density = 19.742973 Si / 1000 Ang^3
#
#
#
# Elastic Constant Matrix: (Units=GPa)
#
#
# Indices 1 2 3 4 5 6 
#
# 1 91.3199 49.0727 15.5854 0.0000 13.6437 0.0000
# 2 49.0727 138.8241 21.8121 0.0000 14.3762 0.0000
# 3 15.5854 21.8121 54.8120 0.0000 9.8559 0.0000
# 4 0.0000 0.0000 0.0000 14.8925 0.0000 -4.2700
# 5 13.6437 14.3762 9.8559 0.0000 32.6886 0.0000
# 6 0.0000 0.0000 0.0000 -4.2700 0.0000 37.1429
#
#
#
# Elastic Compliance Matrix: (Units=1/GPa)
#
#
# Indices 1 2 3 4 5 6 
#
# 1 0.014095 -0.004365 -0.001648 0.000000 -0.003467 0.000000
# 2 -0.004365 0.009250 -0.002153 0.000000 -0.001597 0.000000
# 3 -0.001648 -0.002153 0.020380 0.000000 -0.004510 0.000000
# 4 0.000000 0.000000 0.000000 0.069437 0.000000 0.007983
# 5 -0.003467 -0.001597 -0.004510 0.000000 0.034101 0.000000
# 6 0.000000 0.000000 0.000000 0.007983 0.000000 0.027841
#
#
# Mechanical properties :
#
#
# Convention : Reuss Voigt Hill
#
# Bulk Modulus (GPa) = 36.50229 50.87739 43.68984
# Shear Modulus (GPa) = 24.92953 30.17718 27.55335
#
# Velocity S-wave (km/s) = 3.55731 3.91385 3.73983
# Velocity P-wave (km/s) = 5.94992 6.80074 6.38951
#
# Compressibility (1/GPa) = 0.02739554
#
# Stress axis : x y z
#
# Youngs Moduli (GPa) = 70.94685 108.11028 49.06689
#
# Poissons Ratio (x) = 0.47185 0.08084
# Poissons Ratio (y) = 0.30965 0.10562
# Poissons Ratio (z) = 0.11689 0.23273
#
# Static dielectric constant tensor:
#      x y z
#    x 1.731480 0.000000 0.012700 
#    y 0.000000 1.672220 0.000000 
#    z 0.012700 0.000000 1.767450 
# 
# From -- ./inp_files/63544.got.cif
#   From: 2010.05.17/outbox.cif.g08.bks.cpg/sg15_32_cif.got.tgz:63544.got - 2010.06.03 18:47:42.
