data_PCOD9282446
_publ_section_title
;
Structure prediction by ZEFSAII (Michael W. Deem and Ramdas Pophale) SiO2 
 PCOD9282446
Probable space group: C 2/C
;
_chemical_formula_sum "Si O2"
_cell_formula_units_Z 40
_cell_length_a 8.792613
_cell_length_b 25.948653
_cell_length_c 8.074548
_cell_angle_alpha 90.000000
_cell_angle_beta 104.992420
_cell_angle_gamma 90.000000
_cell_volume 1779.549884
_symmetry_space_group_name_H-M "C 2/C"
_symmetry_group_IT_number 15
_symmetry_cell_setting 'monoclinic'
loop_
_space_group_symop_operation_xyz
x,y,z
-x,y,1/2-z
-x,-y,-z
x,-y,1/2+z
1/2+x,1/2+y,z
1/2-x,1/2+y,1/2-z
1/2-x,1/2-y,-z
1/2+x,1/2-y,1/2+z
loop_
_atom_site_type_symbol
_atom_site_label
_atom_site_fract_x
_atom_site_fract_y
_atom_site_fract_z
Si Si1 0.326138 0.175834 0.662611
Si Si2 0.166126 0.373202 0.703493
Si Si3 0.312520 0.767816 0.693233
Si Si4 0.814388 0.434318 0.243966
Si Si5 0.324323 0.473711 0.632218
O O1 0.500000 0.195113 0.750000
O O2 0.342061 0.149306 0.487001
O O3 0.221710 0.225085 0.675785
O O4 0.285331 0.126280 0.765581
O O5 0.258089 0.325172 0.808115
O O6 0.248683 0.428015 0.719954
O O7 0.000000 0.380116 0.750000
O O8 0.500000 0.774566 0.750000
O O9 0.250000 0.750000 0.500000
O O10 0.771227 0.473174 0.377193
O O11 0.000000 0.439285 0.250000
O O12 0.703272 0.453392 0.061686
O O13 0.500000 0.480623 0.750000
#
# Coordination Sequence:
#
# PCOD9282446 Si02
#       5
#     8   8   8   8   8
#     4  10  21  39  62  90 121 158 204 250 297 359
#     4  10  22  40  60  86 121 164 203 243 300 366
#     4  11  24  40  62  91 121 159 199 246 306 361
#     4  10  22  39  60  85 117 161 200 240 299 364
#     4  11  23  38  60  90 120 154 199 255 304 348
#
# _framework density 22.477595000000001
#
# number of rings (size 3 to 8) (size 9 to 14) (size 15 to 20)
#    0.000    1.600    0.000    4.800    0.000    9.600 
#    0.000    0.000    0.000    0.000    0.000    0.000 
#    0.000    0.000    0.000    0.000    0.000    0.000 
#
# Total GULP energy -111626.733013 kJ/mol
# GULP energy per Si atom -5581.336651 kJ/mol
# Density = 2.242643 g / cm^3
# Si number density = 22.477595 Si / 1000 Ang^3
#
#
#
# Elastic Constant Matrix: (Units=GPa)
#
#
# Indices 1 2 3 4 5 6 
#
# 1 63.3777 31.0105 5.4367 0.0000 -6.2029 0.0000
# 2 31.0105 115.9979 -5.0991 0.0000 -34.6564 0.0000
# 3 5.4367 -5.0991 57.5620 0.0000 1.7835 0.0000
# 4 0.0000 0.0000 0.0000 26.6260 0.0000 4.3576
# 5 -6.2029 -34.6564 1.7835 0.0000 31.1398 0.0000
# 6 0.0000 0.0000 0.0000 4.3576 0.0000 -32.5418
#
#
#
# Elastic Compliance Matrix: (Units=1/GPa)
#
#
# Indices 1 2 3 4 5 6 
#
# 1 0.018574 -0.005871 -0.002190 0.000000 -0.002709 0.000000
# 2 -0.005871 0.014799 0.001394 0.000000 0.015221 0.000000
# 3 -0.002190 0.001394 0.017700 0.000000 0.000101 0.000000
# 4 0.000000 0.000000 0.000000 0.036752 0.000000 0.004921
# 5 -0.002709 0.015221 0.000101 0.000000 0.048508 0.000000
# 6 0.000000 0.000000 0.000000 0.004921 0.000000 -0.030071
#
#
# Mechanical properties :
#
#
# Convention : Reuss Voigt Hill
#
# Bulk Modulus (GPa) = 26.49868 33.29265 29.89567
# Shear Modulus (GPa) = 37.82813 18.75077 28.28945
#
# Velocity S-wave (km/s) = 4.10680 2.89138 3.55147
# Velocity P-wave (km/s) = 5.85681 5.09808 5.49057
#
# Compressibility (1/GPa) = 0.03773772
#
# Stress axis : x y z
#
# Youngs Moduli (GPa) = 53.83895 67.57071 56.49777
#
# Poissons Ratio (x) = 0.39671 0.12376
# Poissons Ratio (y) = 0.31609 -0.07875
# Poissons Ratio (z) = 0.11793 -0.09419
#
# Static dielectric constant tensor:
#      x y z
#    x 1.809050 0.000000 -0.062590 
#    y 0.000000 1.875940 0.000000 
#    z -0.062590 0.000000 1.927790 
# 
# From -- ./inp_files/23503.got.cif
#   From: 2010.05.17/outbox.cif.g08.bks.cpg/sg15_12_cif.got.tgz:23503.got - 2010.06.03 18:47:42.
