data_PCOD9282664
_publ_section_title
;
Structure prediction by ZEFSAII (Michael W. Deem and Ramdas Pophale) SiO2 
 PCOD9282664
Probable space group: C 2/C
;
_chemical_formula_sum "Si O2"
_cell_formula_units_Z 48
_cell_length_a 22.078922
_cell_length_b 11.937928
_cell_length_c 8.869956
_cell_angle_alpha 90.000000
_cell_angle_beta 81.147621
_cell_angle_gamma 90.000000
_cell_volume 2310.063721
_symmetry_space_group_name_H-M "C 2/C"
_symmetry_group_IT_number 15
_symmetry_cell_setting 'monoclinic'
loop_
_space_group_symop_operation_xyz
x,y,z
-x,y,1/2-z
-x,-y,-z
x,-y,1/2+z
1/2+x,1/2+y,z
1/2-x,1/2+y,1/2-z
1/2-x,1/2-y,-z
1/2+x,1/2-y,1/2+z
loop_
_atom_site_type_symbol
_atom_site_label
_atom_site_fract_x
_atom_site_fract_y
_atom_site_fract_z
Si Si1 0.525337 0.138971 0.085167
Si Si2 0.757543 0.126076 0.935635
Si Si3 0.542568 0.455140 0.848910
Si Si4 0.902753 0.422988 0.533061
Si Si5 0.182959 0.521590 0.696314
Si Si6 0.600470 0.634922 0.601845
O O1 0.500000 0.086012 0.250000
O O2 0.461038 0.159369 0.023016
O O3 0.565399 0.246233 0.113895
O O4 0.566881 0.047342 0.987752
O O5 0.717174 0.098690 0.804166
O O6 0.829532 0.121331 0.878256
O O7 0.750000 0.250000 0.000000
O O8 0.732087 0.041087 0.072155
O O9 0.500000 0.384353 0.750000
O O10 0.566695 0.554308 0.734062
O O11 0.500000 0.500000 0.000000
O O12 0.595416 0.398279 0.926293
O O13 0.857491 0.430688 0.693894
O O14 0.862341 0.411926 0.398510
#
# Coordination Sequence:
#
# PCOD9282664 Si02
#       6
#     8   8   8   8   8   8
#     4  11  21  36  65  98 127 164 200 263 335 383
#     4  11  24  42  66  94 126 176 220 257 319 378
#     4   9  19  37  57  85 116 159 204 249 308 361
#     4  10  21  39  63  95 129 159 209 264 330 381
#     4  10  21  43  66  92 130 169 214 270 308 379
#     4  11  21  39  63  87 126 167 209 256 310 379
#
# _framework density 20.778648
#
# number of rings (size 3 to 8) (size 9 to 14) (size 15 to 20)
#    0.000    1.667    1.667    4.500    0.000    0.000 
#    6.000    3.333    3.667    0.000    0.000    0.000 
#    0.000    0.000    0.000    0.000    0.000    0.000 
#
# Total GULP energy -133823.924050 kJ/mol
# GULP energy per Si atom -5575.996835 kJ/mol
# Density = 2.073135 g / cm^3
# Si number density = 20.778648 Si / 1000 Ang^3
#
#
#
# Elastic Constant Matrix: (Units=GPa)
#
#
# Indices 1 2 3 4 5 6 
#
# 1 167.3111 28.6186 54.6114 0.0000 13.7520 0.0000
# 2 28.6186 52.5319 23.5421 0.0000 4.4791 0.0000
# 3 54.6114 23.5421 114.9244 0.0000 16.0294 0.0000
# 4 0.0000 0.0000 0.0000 14.0971 0.0000 0.7512
# 5 13.7520 4.4791 16.0294 0.0000 46.5971 0.0000
# 6 0.0000 0.0000 0.0000 0.7512 0.0000 29.8559
#
#
#
# Elastic Compliance Matrix: (Units=1/GPa)
#
#
# Indices 1 2 3 4 5 6 
#
# 1 0.007448 -0.002697 -0.002853 0.000000 -0.000957 0.000000
# 2 -0.002697 0.021951 -0.003184 0.000000 -0.000219 0.000000
# 3 -0.002853 -0.003184 0.011081 0.000000 -0.002664 0.000000
# 4 0.000000 0.000000 0.000000 0.071032 0.000000 -0.001787
# 5 -0.000957 -0.000219 -0.002664 0.000000 0.022680 0.000000
# 6 0.000000 0.000000 0.000000 -0.001787 0.000000 0.033539
#
#
# Mechanical properties :
#
#
# Convention : Reuss Voigt Hill
#
# Bulk Modulus (GPa) = 43.45854 60.92353 52.19104
# Shear Modulus (GPa) = 25.92384 33.30971 29.61678
#
# Velocity S-wave (km/s) = 3.53600 4.00818 3.77947
# Velocity P-wave (km/s) = 6.13445 7.12774 6.64966
#
# Compressibility (1/GPa) = 0.02301044
#
# Stress axis : x y z
#
# Youngs Moduli (GPa) = 134.25867 45.55545 90.24381
#
# Poissons Ratio (x) = 0.12288 0.25749
# Poissons Ratio (y) = 0.36215 0.28737
# Poissons Ratio (z) = 0.38308 0.14507
#
# Static dielectric constant tensor:
#      x y z
#    x 1.743330 0.000000 0.061100 
#    y 0.000000 1.765820 0.000000 
#    z 0.061100 0.000000 1.748220 
# 
# From -- ./inp_files/60523.got.cif
#   From: 2010.05.17/outbox.cif.g08.bks.cpg/sg15_31_cif.got.tgz:60523.got - 2010.06.03 18:47:42.
