data_PCOD9282013
_publ_section_title
;
Structure prediction by ZEFSAII (Michael W. Deem and Ramdas Pophale) SiO2 
 PCOD9282013
Probable space group: C 2/C
;
_chemical_formula_sum "Si O2"
_cell_formula_units_Z 44
_cell_length_a 9.430581
_cell_length_b 24.341400
_cell_length_c 11.515495
_cell_angle_alpha 90.000000
_cell_angle_beta 129.318431
_cell_angle_gamma 90.000000
_cell_volume 2045.048075
_symmetry_space_group_name_H-M "C 2/C"
_symmetry_group_IT_number 15
_symmetry_cell_setting 'monoclinic'
loop_
_space_group_symop_operation_xyz
x,y,z
-x,y,1/2-z
-x,-y,-z
x,-y,1/2+z
1/2+x,1/2+y,z
1/2-x,1/2+y,1/2-z
1/2-x,1/2-y,-z
1/2+x,1/2-y,1/2+z
loop_
_atom_site_type_symbol
_atom_site_label
_atom_site_fract_x
_atom_site_fract_y
_atom_site_fract_z
Si Si1 0.500000 0.513213 0.250000
Si Si2 0.169391 0.436205 0.166794
Si Si3 0.774692 0.581014 0.535316
Si Si4 0.287874 0.698731 0.103889
Si Si5 0.209828 0.281127 0.823723
Si Si6 0.704300 0.663859 0.905311
O O1 0.330279 0.478156 0.213633
O O2 0.593093 0.550874 0.396328
O O3 0.220263 0.416474 0.323171
O O4 0.180387 0.387979 0.076784
O O5 0.954378 0.450511 0.075984
O O6 0.776306 0.642846 0.488975
O O7 0.500000 0.695259 0.250000
O O8 0.204036 0.705881 0.186809
O O9 0.250000 0.750000 0.000000
O O10 0.282143 0.219855 0.887857
O O11 0.000000 0.279667 0.750000
O O12 0.304061 0.323803 0.961261
O O13 0.500000 0.655176 0.750000
#
# Coordination Sequence:
#
# PCOD9282013 Si02
#       6
#     4   8   8   8   8   8
#     4  12  24  48  70 104 130 184 240 286 348 408
#     4  11  24  44  74  97 135 185 229 286 354 413
#     4  11  26  46  68 104 143 175 230 298 346 414
#     4  12  28  43  69 104 145 185 227 283 358 420
#     4  10  23  40  63  96 138 178 227 280 331 412
#     4  10  21  38  67  96 131 176 232 273 334 408
#
# _framework density 21.515388000000002
#
# number of rings (size 3 to 8) (size 9 to 14) (size 15 to 20)
#    0.000    1.091    1.818    3.273   15.273    0.000 
#    3.273    0.000    0.000    0.000    0.000    0.000 
#    0.000    0.000    0.000    0.000    0.000    0.000 
#
# Total GULP energy -122922.571553 kJ/mol
# GULP energy per Si atom -5587.389616 kJ/mol
# Density = 2.146642 g / cm^3
# Si number density = 21.515388 Si / 1000 Ang^3
#
#
#
# Elastic Constant Matrix: (Units=GPa)
#
#
# Indices 1 2 3 4 5 6 
#
# 1 82.4046 41.4533 22.0798 0.0000 -10.0248 0.0000
# 2 41.4533 77.8926 33.4080 0.0000 -15.3400 0.0000
# 3 22.0798 33.4080 111.3703 0.0000 -11.9813 0.0000
# 4 0.0000 0.0000 0.0000 33.0729 0.0000 1.6980
# 5 -10.0248 -15.3400 -11.9813 0.0000 49.2847 0.0000
# 6 0.0000 0.0000 0.0000 1.6980 0.0000 20.1070
#
#
#
# Elastic Compliance Matrix: (Units=1/GPa)
#
#
# Indices 1 2 3 4 5 6 
#
# 1 0.016640 -0.008438 -0.000705 0.000000 0.000587 0.000000
# 2 -0.008438 0.019664 -0.003853 0.000000 0.003468 0.000000
# 3 -0.000705 -0.003853 0.010402 0.000000 0.001186 0.000000
# 4 0.000000 0.000000 0.000000 0.030368 0.000000 -0.002565
# 5 0.000587 0.003468 0.001186 0.000000 0.021777 0.000000
# 6 0.000000 0.000000 0.000000 -0.002565 0.000000 0.049951
#
#
# Mechanical properties :
#
#
# Convention : Reuss Voigt Hill
#
# Bulk Modulus (GPa) = 48.27267 51.72777 50.00022
# Shear Modulus (GPa) = 27.51825 32.14134 29.82980
#
# Velocity S-wave (km/s) = 3.58020 3.86926 3.72753
# Velocity P-wave (km/s) = 6.29090 6.63747 6.46651
#
# Compressibility (1/GPa) = 0.02071565
#
# Stress axis : x y z
#
# Youngs Moduli (GPa) = 60.09599 50.85450 96.13421
#
# Poissons Ratio (x) = 0.42909 0.06775
# Poissons Ratio (y) = 0.50707 0.37038
# Poissons Ratio (z) = 0.04235 0.19593
#
# Static dielectric constant tensor:
#      x y z
#    x 1.770800 0.000000 0.031790 
#    y 0.000000 1.818290 0.000000 
#    z 0.031790 0.000000 1.820120 
# 
# From -- ./inp_files/79977.got.cif
#   From: 2010.05.17/outbox.cif.g08.bks.cpg/sg15_40_cif.got.tgz:79977.got - 2010.06.03 18:47:42.
