data_PCOD9282903
_publ_section_title
;
Structure prediction by ZEFSAII (Michael W. Deem and Ramdas Pophale) SiO2 
 PCOD9282903
Probable space group: C 2/C
;
_chemical_formula_sum "Si O2"
_cell_formula_units_Z 60
_cell_length_a 11.952335
_cell_length_b 27.748009
_cell_length_c 8.860294
_cell_angle_alpha 90.000000
_cell_angle_beta 106.876129
_cell_angle_gamma 90.000000
_cell_volume 2811.997830
_symmetry_space_group_name_H-M "C 2/C"
_symmetry_group_IT_number 15
_symmetry_cell_setting 'monoclinic'
loop_
_space_group_symop_operation_xyz
x,y,z
-x,y,1/2-z
-x,-y,-z
x,-y,1/2+z
1/2+x,1/2+y,z
1/2-x,1/2+y,1/2-z
1/2-x,1/2-y,-z
1/2+x,1/2-y,1/2+z
loop_
_atom_site_type_symbol
_atom_site_label
_atom_site_fract_x
_atom_site_fract_y
_atom_site_fract_z
Si Si1 0.334839 0.641089 0.326397
Si Si2 0.336964 0.535998 0.411943
Si Si3 0.919073 0.533914 0.073457
Si Si4 0.990212 0.715190 0.573996
Si Si5 0.961290 0.816966 0.404074
Si Si6 0.255671 0.691611 0.001324
Si Si7 0.000000 0.973638 0.250000
Si Si8 0.603216 0.144458 0.418421
O O1 0.317344 0.583989 0.305645
O O2 0.455714 0.652276 0.455433
O O3 0.325496 0.670641 0.169492
O O4 0.225012 0.655729 0.385280
O O5 0.211578 0.516743 0.425567
O O6 0.411573 0.502251 0.328685
O O7 0.413734 0.549818 0.591156
O O8 0.900195 0.589874 0.018475
O O9 0.000000 0.538296 0.250000
O O10 0.000000 0.500000 0.000000
O O11 0.978096 0.761386 0.462222
O O12 0.878843 0.679358 0.530549
O O13 0.000000 0.731728 0.750000
O O14 0.091022 0.682779 0.546695
O O15 0.825224 0.826570 0.383530
O O16 0.000000 0.824184 0.250000
O O17 0.250000 0.750000 0.000000
O O18 0.500000 0.150113 0.250000
#
# Coordination Sequence:
#
# PCOD9282903 Si02
#       8
#     8   8   8   8   8   8   4   8
#     4  11  23  41  66  93 132 169 221 270 328 396
#     4  10  23  41  68  98 131 178 217 276 342 401
#     4  10  21  39  65  94 129 161 215 268 330 402
#     4  11  23  41  62  87 126 164 215 268 323 391
#     4  11  25  39  61  91 122 167 215 268 322 383
#     4  10  22  41  62  91 127 166 217 265 323 394
#     4  10  22  44  66  96 134 172 222 270 340 410
#     4  10  21  40  63  92 121 167 210 263 327 388
#
# _framework density 21.337143000000001
#
# number of rings (size 3 to 8) (size 9 to 14) (size 15 to 20)
#    0.000    1.600    1.333    3.200    6.533    1.067 
#    0.000    0.000    0.000    0.000    0.000    0.000 
#    0.000    0.000    0.000    0.000    0.000    0.000 
#
# Total GULP energy -167267.562952 kJ/mol
# GULP energy per Si atom -5575.585432 kJ/mol
# Density = 2.128858 g / cm^3
# Si number density = 21.337143 Si / 1000 Ang^3
#
#
#
# Elastic Constant Matrix: (Units=GPa)
#
#
# Indices 1 2 3 4 5 6 
#
# 1 130.1963 22.8743 -5.0827 0.0000 -7.9378 0.0000
# 2 22.8743 42.9980 9.1102 0.0000 -18.9380 0.0000
# 3 -5.0827 9.1102 56.1717 0.0000 -2.0323 0.0000
# 4 0.0000 0.0000 0.0000 22.2310 0.0000 1.7422
# 5 -7.9378 -18.9380 -2.0323 0.0000 34.3110 0.0000
# 6 0.0000 0.0000 0.0000 1.7422 0.0000 19.3209
#
#
#
# Elastic Compliance Matrix: (Units=1/GPa)
#
#
# Indices 1 2 3 4 5 6 
#
# 1 0.008623 -0.005295 0.001609 0.000000 -0.000832 0.000000
# 2 -0.005295 0.035091 -0.005526 0.000000 0.017816 0.000000
# 3 0.001609 -0.005526 0.018788 0.000000 -0.001565 0.000000
# 4 0.000000 0.000000 0.000000 0.045302 0.000000 -0.004085
# 5 -0.000832 0.017816 -0.001565 0.000000 0.038694 0.000000
# 6 0.000000 0.000000 0.000000 -0.004085 0.000000 0.052126
#
#
# Mechanical properties :
#
#
# Convention : Reuss Voigt Hill
#
# Bulk Modulus (GPa) = 22.68658 31.46328 27.07493
# Shear Modulus (GPa) = 21.57590 28.67022 25.12306
#
# Velocity S-wave (km/s) = 3.18337 3.66960 3.43510
# Velocity P-wave (km/s) = 4.91603 5.72122 5.33384
#
# Compressibility (1/GPa) = 0.04407891
#
# Stress axis : x y z
#
# Youngs Moduli (GPa) = 115.96871 28.49700 53.22627
#
# Poissons Ratio (x) = 0.15088 -0.08563
# Poissons Ratio (y) = 0.61402 0.29412
# Poissons Ratio (z) = -0.18658 0.15747
#
# Static dielectric constant tensor:
#      x y z
#    x 1.852950 0.000000 0.059320 
#    y 0.000000 1.781640 0.000000 
#    z 0.059320 0.000000 1.760810 
# 
# From -- ./inp_files/35717.got.cif
#   From: 2010.05.17/outbox.cif.g08.bks.cpg/sg15_18_cif.got.tgz:35717.got - 2010.06.03 18:47:42.
