data_PCOD9282092
_publ_section_title
;
Structure prediction by ZEFSAII (Michael W. Deem and Ramdas Pophale) SiO2 
 PCOD9282092
Probable space group: C 2/C
;
_chemical_formula_sum "Si O2"
_cell_formula_units_Z 48
_cell_length_a 13.113479
_cell_length_b 16.261187
_cell_length_c 10.478765
_cell_angle_alpha 90.000000
_cell_angle_beta 85.402379
_cell_angle_gamma 90.000000
_cell_volume 2227.309387
_symmetry_space_group_name_H-M "C 2/C"
_symmetry_group_IT_number 15
_symmetry_cell_setting 'monoclinic'
loop_
_space_group_symop_operation_xyz
x,y,z
-x,y,1/2-z
-x,-y,-z
x,-y,1/2+z
1/2+x,1/2+y,z
1/2-x,1/2+y,1/2-z
1/2-x,1/2-y,-z
1/2+x,1/2-y,1/2+z
loop_
_atom_site_type_symbol
_atom_site_label
_atom_site_fract_x
_atom_site_fract_y
_atom_site_fract_z
Si Si1 0.000000 0.069760 0.250000
Si Si2 0.793648 0.007839 0.696797
Si Si3 0.000000 0.709057 0.250000
Si Si4 0.999297 0.371078 0.475449
Si Si5 0.109052 0.217253 0.109829
Si Si6 0.327021 0.001300 0.543079
Si Si7 0.802120 0.201286 0.683626
O O1 0.056206 0.132301 0.149160
O O2 0.088080 0.016042 0.304697
O O3 0.748952 0.979218 0.565649
O O4 0.783155 0.106028 0.712259
O O5 0.731386 0.971905 0.824226
O O6 0.993400 0.654724 0.377408
O O7 0.103424 0.762806 0.245867
O O8 0.973454 0.290231 0.397793
O O9 0.901611 0.431153 0.479805
O O10 0.099204 0.422575 0.429510
O O11 0.198238 0.245419 0.197973
O O12 0.159849 0.207225 0.966330
#
# Coordination Sequence:
#
# PCOD9282092 Si02
#       7
#     4   8   4   8   8   8   8
#     4  12  29  40  69 100 146 178 240 282 355 414
#     4  12  26  46  67 101 139 187 225 286 343 426
#     4  10  21  38  71  96 128 172 232 292 337 412
#     4  10  22  42  66 101 131 174 232 290 349 406
#     4  10  23  43  67  97 134 187 224 287 344 419
#     4  11  25  42  71  98 137 180 231 287 347 415
#     4  10  22  42  69  92 138 180 228 272 359 407
#
# _framework density 21.550667000000001
#
# number of rings (size 3 to 8) (size 9 to 14) (size 15 to 20)
#    0.000    1.333    1.667    2.500    9.333    7.333 
#    0.000    1.667    0.000    0.000    0.000    0.000 
#    0.000    0.000    0.000    0.000    0.000    0.000 
#
# Total GULP energy -134267.796648 kJ/mol
# GULP energy per Si atom -5594.491527 kJ/mol
# Density = 2.150162 g / cm^3
# Si number density = 21.550667 Si / 1000 Ang^3
#
#
#
# Elastic Constant Matrix: (Units=GPa)
#
#
# Indices 1 2 3 4 5 6 
#
# 1 130.4741 32.6887 31.8786 0.0000 26.7967 0.0000
# 2 32.6887 59.7024 0.7946 0.0000 3.7509 0.0000
# 3 31.8786 0.7946 56.9431 0.0000 13.1007 0.0000
# 4 0.0000 0.0000 0.0000 26.7055 0.0000 -0.8936
# 5 26.7967 3.7509 13.1007 0.0000 33.0771 0.0000
# 6 0.0000 0.0000 0.0000 -0.8936 0.0000 39.0700
#
#
#
# Elastic Compliance Matrix: (Units=1/GPa)
#
#
# Indices 1 2 3 4 5 6 
#
# 1 0.011777 -0.005948 -0.004919 0.000000 -0.006919 0.000000
# 2 -0.005948 0.019877 0.002709 0.000000 0.001492 0.000000
# 3 -0.004919 0.002709 0.021379 0.000000 -0.004790 0.000000
# 4 0.000000 0.000000 0.000000 0.037474 0.000000 0.000857
# 5 -0.006919 0.001492 -0.004790 0.000000 0.037565 0.000000
# 6 0.000000 0.000000 0.000000 0.000857 0.000000 0.025615
#
#
# Mechanical properties :
#
#
# Convention : Reuss Voigt Hill
#
# Bulk Modulus (GPa) = 27.23420 41.98258 34.60839
# Shear Modulus (GPa) = 27.43610 31.88771 29.66190
#
# Velocity S-wave (km/s) = 3.57192 3.85081 3.71398
# Velocity P-wave (km/s) = 5.44759 6.26856 5.87244
#
# Compressibility (1/GPa) = 0.03671853
#
# Stress axis : x y z
#
# Youngs Moduli (GPa) = 84.90913 50.30990 46.77446
#
# Poissons Ratio (x) = 0.29926 0.23006
# Poissons Ratio (y) = 0.50506 -0.12673
# Poissons Ratio (z) = 0.41763 -0.13631
#
# Static dielectric constant tensor:
#      x y z
#    x 1.811940 0.000000 -0.025720 
#    y 0.000000 1.780590 0.000000 
#    z -0.025720 0.000000 1.788570 
# 
# From -- ./inp_files/87421.got.cif
#   From: 2010.05.17/outbox.cif.g08.bks.cpg/sg15_44_cif.got.tgz:87421.got - 2010.06.03 18:47:42.
