data_PCOD9282208
_publ_section_title
;
Structure prediction by ZEFSAII (Michael W. Deem and Ramdas Pophale) SiO2 
 PCOD9282208
Probable space group: C 2/C
;
_chemical_formula_sum "Si O2"
_cell_formula_units_Z 56
_cell_length_a 14.076465
_cell_length_b 12.157723
_cell_length_c 26.351055
_cell_angle_alpha 90.000000
_cell_angle_beta 147.500053
_cell_angle_gamma 90.000000
_cell_volume 2423.035349
_symmetry_space_group_name_H-M "C 2/C"
_symmetry_group_IT_number 15
_symmetry_cell_setting 'monoclinic'
loop_
_space_group_symop_operation_xyz
x,y,z
-x,y,1/2-z
-x,-y,-z
x,-y,1/2+z
1/2+x,1/2+y,z
1/2-x,1/2+y,1/2-z
1/2-x,1/2-y,-z
1/2+x,1/2-y,1/2+z
loop_
_atom_site_type_symbol
_atom_site_label
_atom_site_fract_x
_atom_site_fract_y
_atom_site_fract_z
Si Si1 0.979259 0.466320 0.432551
Si Si2 0.433218 0.281348 0.522505
Si Si3 0.450871 0.227333 0.169477
Si Si4 0.170240 0.322749 0.674163
Si Si5 0.056136 0.812660 0.853424
Si Si6 0.867349 0.035491 0.587647
Si Si7 0.930417 0.859071 0.015993
O O1 0.959555 0.334736 0.425474
O O2 0.163797 0.498210 0.488240
O O3 0.000000 0.500000 0.500000
O O4 0.838703 0.548742 0.344498
O O5 0.231248 0.250644 0.415875
O O6 0.431717 0.318857 0.579783
O O7 0.505448 0.365042 0.513100
O O8 0.500000 0.222314 0.250000
O O9 0.612785 0.192210 0.206532
O O10 0.388552 0.348772 0.125089
O O11 0.280272 0.153594 0.080693
O O12 0.363408 0.271918 0.751623
O O13 0.023886 0.254562 0.576883
O O14 0.065141 0.940810 0.844472
O O15 0.963249 0.055866 0.576621
#
# Coordination Sequence:
#
# PCOD9282208 Si02
#       7
#     8   8   8   8   8   8   8
#     4  11  19  36  63  90 119 163 199 261 314 364
#     4  10  22  41  59  85 129 167 205 246 323 375
#     4  11  21  37  64  95 119 153 203 267 319 363
#     4  11  21  37  61  93 125 152 208 260 313 370
#     4  10  24  39  57  89 125 171 202 256 306 389
#     4  10  21  39  59  88 122 158 212 252 311 374
#     4  11  20  39  64  88 121 161 201 270 313 363
#
# _framework density 23.111507
#
# number of rings (size 3 to 8) (size 9 to 14) (size 15 to 20)
#    0.000    1.429    4.286    1.714    0.000    5.714 
#    0.000    0.000    0.000    0.000    0.000    0.000 
#    0.000    0.000    0.000    0.000    0.000    0.000 
#
# Total GULP energy -156397.531254 kJ/mol
# GULP energy per Si atom -5585.626116 kJ/mol
# Density = 2.305890 g / cm^3
# Si number density = 23.111507 Si / 1000 Ang^3
#
#
#
# Elastic Constant Matrix: (Units=GPa)
#
#
# Indices 1 2 3 4 5 6 
#
# 1 72.9973 6.7399 -7.6741 0.0000 -13.8033 0.0000
# 2 6.7399 41.8796 0.9884 0.0000 -2.0066 0.0000
# 3 -7.6741 0.9884 70.5840 -0.0003 8.0027 0.0000
# 4 0.0000 0.0000 -0.0003 10.3206 -0.0001 4.9447
# 5 -13.8033 -2.0066 8.0027 -0.0001 42.9418 0.0000
# 6 0.0000 0.0000 0.0000 4.9447 0.0000 24.3260
#
#
#
# Elastic Compliance Matrix: (Units=1/GPa)
#
#
# Indices 1 2 3 4 5 6 
#
# 1 0.014867 -0.002206 0.001141 0.000000 0.004463 0.000000
# 2 -0.002206 0.024274 -0.000642 0.000000 0.000545 0.000000
# 3 0.001141 -0.000642 0.014570 0.000000 -0.002378 0.000000
# 4 0.000000 0.000000 0.000000 0.107347 0.000000 -0.021820
# 5 0.004463 0.000545 -0.002378 0.000000 0.025191 0.000000
# 6 0.000000 0.000000 0.000000 -0.021820 0.000000 0.045544
#
#
# Mechanical properties :
#
#
# Convention : Reuss Voigt Hill
#
# Bulk Modulus (GPa) = 19.88103 20.61883 20.24993
# Shear Modulus (GPa) = 19.84354 27.87814 23.86084
#
# Velocity S-wave (km/s) = 2.93337 3.47687 3.21662
# Velocity P-wave (km/s) = 4.48261 5.00590 4.75146
#
# Compressibility (1/GPa) = 0.05029920
#
# Stress axis : x y z
#
# Youngs Moduli (GPa) = 67.26446 41.19600 68.63303
#
# Poissons Ratio (x) = 0.09087 -0.07833
# Poissons Ratio (y) = 0.14836 0.04403
# Poissons Ratio (z) = -0.07676 0.02643
#
# Static dielectric constant tensor:
#      x y z
#    x 1.921210 0.000000 0.027840 
#    y 0.000000 1.899720 0.000000 
#    z 0.027840 0.000000 1.876910 
# 
# From -- ./inp_files/178412.got.cif
#   From: 2010.05.17/outbox.cif.g08.bks.cpg/sg15_90_cif.got.tgz:178412.got - 2010.06.03 18:47:42.
