data_PCOD9282113
_publ_section_title
;
Structure prediction by ZEFSAII (Michael W. Deem and Ramdas Pophale) SiO2 
 PCOD9282113
Probable space group: C 2/C
;
_chemical_formula_sum "Si O2"
_cell_formula_units_Z 56
_cell_length_a 10.243883
_cell_length_b 27.965170
_cell_length_c 11.033574
_cell_angle_alpha 90.000000
_cell_angle_beta 52.386490
_cell_angle_gamma 90.000000
_cell_volume 2503.821610
_symmetry_space_group_name_H-M "C 2/C"
_symmetry_group_IT_number 15
_symmetry_cell_setting 'monoclinic'
loop_
_space_group_symop_operation_xyz
x,y,z
-x,y,1/2-z
-x,-y,-z
x,-y,1/2+z
1/2+x,1/2+y,z
1/2-x,1/2+y,1/2-z
1/2-x,1/2-y,-z
1/2+x,1/2-y,1/2+z
loop_
_atom_site_type_symbol
_atom_site_label
_atom_site_fract_x
_atom_site_fract_y
_atom_site_fract_z
Si Si1 0.528823 0.849407 0.101170
Si Si2 0.078089 0.051552 0.429271
Si Si3 0.684553 0.603112 0.777074
Si Si4 0.582836 0.289458 0.326083
Si Si5 0.054434 0.248668 0.358258
Si Si6 0.676217 0.936415 0.914711
Si Si7 0.173528 0.540239 0.003766
O O1 0.500000 0.828733 0.250000
O O2 0.375054 0.885848 0.192359
O O3 0.525258 0.798349 0.038865
O O4 0.671347 0.884649 0.980050
O O5 0.156928 0.057165 0.254026
O O6 0.236812 0.057842 0.426917
O O7 0.933178 0.087192 0.548723
O O8 0.000000 0.000000 0.500000
O O9 0.623963 0.655245 0.771569
O O10 0.701593 0.560524 0.670116
O O11 0.500000 0.269508 0.250000
O O12 0.485159 0.287869 0.509543
O O13 0.754267 0.262530 0.252657
O O14 0.000000 0.234348 0.250000
O O15 0.663357 0.982664 0.008711
O O16 0.511001 0.941304 0.922808
#
# Coordination Sequence:
#
# PCOD9282113 Si02
#       7
#     8   8   8   8   8   8   8
#     4   9  21  41  62  85 120 164 206 249 304 380
#     4  12  23  35  54  86 118 149 197 255 300 344
#     4  10  22  40  59  86 124 165 197 254 321 357
#     4  11  22  40  68  95 126 169 214 261 322 392
#     4  10  22  42  66  95 130 166 209 268 334 380
#     4  10  22  36  60  82 107 158 205 242 292 361
#     4  10  21  39  55  77 117 158 198 241 299 365
#
# _framework density 22.365808999999999
#
# number of rings (size 3 to 8) (size 9 to 14) (size 15 to 20)
#    0.000    1.714    1.429    2.571    2.000    1.143 
#    0.000    4.286    0.000    0.000    0.000    0.000 
#    0.000    0.000    0.000    0.000    0.000    0.000 
#
# Total GULP energy -155881.479064 kJ/mol
# GULP energy per Si atom -5567.195681 kJ/mol
# Density = 2.231490 g / cm^3
# Si number density = 22.365809 Si / 1000 Ang^3
#
#
#
# Elastic Constant Matrix: (Units=GPa)
#
#
# Indices 1 2 3 4 5 6 
#
# 1 89.7535 2.2094 17.4985 0.0000 1.2091 0.0000
# 2 2.2094 36.5684 19.2476 0.0000 -12.8250 0.0000
# 3 17.4985 19.2476 113.2749 0.0000 -16.7555 0.0000
# 4 0.0000 0.0000 0.0000 -721.1732 0.0000 913.1777
# 5 1.2091 -12.8250 -16.7555 0.0000 20.1814 0.0000
# 6 0.0000 0.0000 0.0000 913.1777 0.0000-1120.3496
#
#
#
# Elastic Compliance Matrix: (Units=1/GPa)
#
#
# Indices 1 2 3 4 5 6 
#
# 1 0.011605 -0.000577 -0.002111 0.000000 -0.002815 0.000000
# 2 -0.000577 0.036164 -0.003022 0.000000 0.020507 0.000000
# 3 -0.002111 -0.003022 0.010719 0.000000 0.007105 0.000000
# 4 0.000000 0.000000 0.000000 0.043211 0.000000 0.035221
# 5 -0.002815 0.020507 0.007105 0.000000 0.068650 0.000000
# 6 0.000000 0.000000 0.000000 0.035221 0.000000 0.027815
#
#
# Mechanical properties :
#
#
# Convention : Reuss Voigt Hill
#
# Bulk Modulus (GPa) = 21.24658 35.27862 28.26260
# Shear Modulus (GPa) = 22.19518 -350.89220 -164.34851
#
# Velocity S-wave (km/s) = 3.15361 -12.53907 -8.58147
# Velocity P-wave (km/s) = 4.77290 13.92229 9.24796
#
# Compressibility (1/GPa) = 0.04706641
#
# Stress axis : x y z
#
# Youngs Moduli (GPa) = 86.16726 27.65203 93.29481
#
# Poissons Ratio (x) = 0.01596 0.19695
# Poissons Ratio (y) = 0.04974 0.28197
# Poissons Ratio (z) = 0.18190 0.08358
#
# Static dielectric constant tensor:
#      x y z
#    x 1.517740 0.000000 -0.801620 
#    y 0.000000 2.013800 0.000000 
#    z -0.801620 0.000000 0.012340 
# 
# From -- ./inp_files/91968.got.cif
#   From: 2010.05.17/outbox.cif.g08.bks.cpg/sg15_46_cif.got.tgz:91968.got - 2010.06.03 18:47:42.
