data_PCOD9282614
_publ_section_title
;
Structure prediction by ZEFSAII (Michael W. Deem and Ramdas Pophale) SiO2 
 PCOD9282614
Probable space group: C 2/C
;
_chemical_formula_sum "Si O2"
_cell_formula_units_Z 44
_cell_length_a 10.626186
_cell_length_b 17.919920
_cell_length_c 14.889939
_cell_angle_alpha 90.000000
_cell_angle_beta 125.052521
_cell_angle_gamma 90.000000
_cell_volume 2321.089526
_symmetry_space_group_name_H-M "C 2/C"
_symmetry_group_IT_number 15
_symmetry_cell_setting 'monoclinic'
loop_
_space_group_symop_operation_xyz
x,y,z
-x,y,1/2-z
-x,-y,-z
x,-y,1/2+z
1/2+x,1/2+y,z
1/2-x,1/2+y,1/2-z
1/2-x,1/2-y,-z
1/2+x,1/2-y,1/2+z
loop_
_atom_site_type_symbol
_atom_site_label
_atom_site_fract_x
_atom_site_fract_y
_atom_site_fract_z
Si Si1 0.000000 0.117769 0.250000
Si Si2 0.165562 0.325925 0.001301
Si Si3 0.435129 0.501245 0.872652
Si Si4 0.695223 0.201385 0.178669
Si Si5 0.177992 0.406033 0.830881
Si Si6 0.860575 0.156045 0.751451
O O1 0.008239 0.062206 0.338991
O O2 0.843416 0.167100 0.189248
O O3 0.225655 0.349737 0.123296
O O4 0.250000 0.250000 0.000000
O O5 0.215248 0.388311 0.948908
O O6 0.979081 0.318968 0.923697
O O7 0.262549 0.473350 0.818249
O O8 0.427560 0.580051 0.819781
O O9 0.500000 0.500000 0.000000
O O10 0.714009 0.167247 0.286666
O O11 0.692581 0.289924 0.190698
O O12 0.000000 0.419019 0.750000
O O13 0.000000 0.191599 0.750000
#
# Coordination Sequence:
#
# PCOD9282614 Si02
#       6
#     4   8   8   8   8   8
#     4  10  24  46  62  90 134 180 208 254 348 396
#     4  11  19  35  68  98 121 160 222 280 317 376
#     4  11  24  41  63  89 131 176 213 264 323 396
#     4  10  21  39  63  92 127 165 211 266 325 386
#     4   9  19  39  58  86 125 163 205 269 325 370
#     4  12  21  37  65  98 123 165 227 268 319 388
#
# _framework density 18.956613999999998
#
# number of rings (size 3 to 8) (size 9 to 14) (size 15 to 20)
#    0.000    1.455    4.545    1.636    0.000    0.000 
#    4.909    4.545    0.000    0.000    0.000    0.000 
#    0.000    0.000    0.000    0.000    0.000    0.000 
#
# Total GULP energy -122595.826070 kJ/mol
# GULP energy per Si atom -5572.537549 kJ/mol
# Density = 1.891347 g / cm^3
# Si number density = 18.956614 Si / 1000 Ang^3
#
#
#
# Elastic Constant Matrix: (Units=GPa)
#
#
# Indices 1 2 3 4 5 6 
#
# 1 120.3947 50.0838 31.9331 0.0000 4.7555 0.0000
# 2 50.0838 80.2015 30.6275 0.0000 2.1056 0.0000
# 3 31.9331 30.6275 108.3160 0.0000 -6.0419 0.0000
# 4 0.0000 0.0000 0.0000 15.5187 0.0000 -2.0751
# 5 4.7555 2.1056 -6.0419 0.0000 19.7058 0.0000
# 6 0.0000 0.0000 0.0000 -2.0751 0.0000 24.8219
#
#
#
# Elastic Compliance Matrix: (Units=1/GPa)
#
#
# Indices 1 2 3 4 5 6 
#
# 1 0.011569 -0.006499 -0.001720 0.000000 -0.002625 0.000000
# 2 -0.006499 0.017777 -0.003184 0.000000 -0.001307 0.000000
# 3 -0.001720 -0.003184 0.010867 0.000000 0.004087 0.000000
# 4 0.000000 0.000000 0.000000 0.065167 0.000000 0.005448
# 5 -0.002625 -0.001307 0.004087 0.000000 0.052773 0.000000
# 6 0.000000 0.000000 0.000000 0.005448 0.000000 0.040742
#
#
# Mechanical properties :
#
#
# Convention : Reuss Voigt Hill
#
# Bulk Modulus (GPa) = 57.44022 59.35568 58.39795
# Shear Modulus (GPa) = 21.97766 25.09380 23.53573
#
# Velocity S-wave (km/s) = 3.40864 3.64228 3.52740
# Velocity P-wave (km/s) = 6.77189 7.00483 6.88934
#
# Compressibility (1/GPa) = 0.01740941
#
# Stress axis : x y z
#
# Youngs Moduli (GPa) = 86.43459 56.25155 92.01882
#
# Poissons Ratio (x) = 0.36559 0.15823
# Poissons Ratio (y) = 0.56176 0.29295
# Poissons Ratio (z) = 0.14862 0.17908
#
# Static dielectric constant tensor:
#      x y z
#    x 1.675030 0.000000 0.010910 
#    y 0.000000 1.742860 0.000000 
#    z 0.010910 0.000000 1.681680 
# 
# From -- ./inp_files/86779.got.cif
#   From: 2010.05.17/outbox.cif.g08.bks.cpg/sg15_44_cif.got.tgz:86779.got - 2010.06.03 18:47:42.
