data_PCOD9282345
_publ_section_title
;
Structure prediction by ZEFSAII (Michael W. Deem and Ramdas Pophale) SiO2 
 PCOD9282345
Probable space group: C 2/C
;
_chemical_formula_sum "Si O2"
_cell_formula_units_Z 40
_cell_length_a 13.952222
_cell_length_b 11.696793
_cell_length_c 11.089781
_cell_angle_alpha 90.000000
_cell_angle_beta 115.723620
_cell_angle_gamma 90.000000
_cell_volume 1630.455150
_symmetry_space_group_name_H-M "C 2/C"
_symmetry_group_IT_number 15
_symmetry_cell_setting 'monoclinic'
loop_
_space_group_symop_operation_xyz
x,y,z
-x,y,1/2-z
-x,-y,-z
x,-y,1/2+z
1/2+x,1/2+y,z
1/2-x,1/2+y,1/2-z
1/2-x,1/2-y,-z
1/2+x,1/2-y,1/2+z
loop_
_atom_site_type_symbol
_atom_site_label
_atom_site_fract_x
_atom_site_fract_y
_atom_site_fract_z
Si Si1 0.500000 0.729943 0.250000
Si Si2 0.685129 0.703772 0.680335
Si Si3 0.312703 0.846313 0.462954
Si Si4 0.500000 0.390727 0.250000
Si Si5 0.969071 0.631822 0.485207
Si Si6 0.662348 0.444319 0.929030
O O1 0.517510 0.807992 0.377625
O O2 0.393942 0.647539 0.193435
O O3 0.791189 0.680641 0.811167
O O4 0.593825 0.664715 0.724031
O O5 0.646739 0.830641 0.624538
O O6 0.683454 0.626940 0.560689
O O7 0.250000 0.750000 0.500000
O O8 0.436804 0.825464 0.552033
O O9 0.263567 0.972093 0.461053
O O10 0.435132 0.466518 0.116576
O O11 0.000000 0.500000 0.500000
#
# Coordination Sequence:
#
# PCOD9282345 Si02
#       6
#     4   8   8   4   8   8
#     4   9  22  43  66  92 126 173 222 259 318 392
#     4  10  21  39  61  89 127 169 209 256 319 383
#     4  11  25  41  65  97 128 166 214 265 323 386
#     4   9  16  31  60  90 118 155 206 263 306 364
#     4  11  25  43  64  93 131 169 210 270 329 380
#     4   9  19  37  62  91 123 164 213 262 310 381
#
# _framework density 24.533028999999999
#
# number of rings (size 3 to 8) (size 9 to 14) (size 15 to 20)
#    0.000    2.000    0.000    3.000    0.000   13.600 
#    0.000    4.000    0.000    0.000    0.000    0.000 
#    0.000    0.000    0.000    0.000    0.000    0.000 
#
# Total GULP energy -111604.484177 kJ/mol
# GULP energy per Si atom -5580.224209 kJ/mol
# Density = 2.447719 g / cm^3
# Si number density = 24.533029 Si / 1000 Ang^3
#
#
#
# Elastic Constant Matrix: (Units=GPa)
#
#
# Indices 1 2 3 4 5 6 
#
# 1 72.3924 26.6684 -3.7216 0.0000 8.0812 0.0000
# 2 26.6684 138.8040 21.7448 0.0000 -13.1235 0.0000
# 3 -3.7216 21.7448 69.9187 0.0000 5.0067 0.0000
# 4 0.0000 0.0000 0.0000 21.4931 0.0000 -3.2684
# 5 8.0812 -13.1235 5.0067 0.0000 31.5698 0.0000
# 6 0.0000 0.0000 0.0000 -3.2684 0.0000 37.8216
#
#
#
# Elastic Compliance Matrix: (Units=1/GPa)
#
#
# Indices 1 2 3 4 5 6 
#
# 1 0.016154 -0.004099 0.002582 0.000000 -0.006248 0.000000
# 2 -0.004099 0.009031 -0.003410 0.000000 0.005344 0.000000
# 3 0.002582 -0.003410 0.015829 0.000000 -0.004589 0.000000
# 4 0.000000 0.000000 0.000000 0.047146 0.000000 0.004074
# 5 -0.006248 0.005344 -0.004589 0.000000 0.036225 0.000000
# 6 0.000000 0.000000 0.000000 0.004074 0.000000 0.026792
#
#
# Mechanical properties :
#
#
# Convention : Reuss Voigt Hill
#
# Bulk Modulus (GPa) = 32.09151 41.16651 36.62901
# Shear Modulus (GPa) = 29.16869 33.93845 31.55357
#
# Velocity S-wave (km/s) = 3.45186 3.72341 3.59021
# Velocity P-wave (km/s) = 5.38484 5.94151 5.67001
#
# Compressibility (1/GPa) = 0.03116089
#
# Stress axis : x y z
#
# Youngs Moduli (GPa) = 61.90481 110.72533 63.17626
#
# Poissons Ratio (x) = 0.45385 -0.16312
# Poissons Ratio (y) = 0.25374 0.21541
# Poissons Ratio (z) = -0.15984 0.37753
#
# Static dielectric constant tensor:
#      x y z
#    x 1.990660 0.000000 0.013910 
#    y 0.000000 2.054780 0.000000 
#    z 0.013910 0.000000 1.948300 
# 
# From -- ./inp_files/95170.got.cif
#   From: 2010.05.17/outbox.cif.g08.bks.cpg/sg15_48_cif.got.tgz:95170.got - 2010.06.03 18:47:42.
