data_PCOD9282562
_publ_section_title
;
Structure prediction by ZEFSAII (Michael W. Deem and Ramdas Pophale) SiO2 
 PCOD9282562
Probable space group: C 2/C
;
_chemical_formula_sum "Si O2"
_cell_formula_units_Z 56
_cell_length_a 7.871255
_cell_length_b 29.110307
_cell_length_c 11.730990
_cell_angle_alpha 90.000000
_cell_angle_beta 59.674179
_cell_angle_gamma 90.000000
_cell_volume 2320.175358
_symmetry_space_group_name_H-M "C 2/C"
_symmetry_group_IT_number 15
_symmetry_cell_setting 'monoclinic'
loop_
_space_group_symop_operation_xyz
x,y,z
-x,y,1/2-z
-x,-y,-z
x,-y,1/2+z
1/2+x,1/2+y,z
1/2-x,1/2+y,1/2-z
1/2-x,1/2-y,-z
1/2+x,1/2-y,1/2+z
loop_
_atom_site_type_symbol
_atom_site_label
_atom_site_fract_x
_atom_site_fract_y
_atom_site_fract_z
Si Si1 0.725650 0.402079 0.160788
Si Si2 0.785174 0.424037 0.881159
Si Si3 0.405562 0.410289 0.896346
Si Si4 0.227647 0.472372 0.150625
Si Si5 0.720270 0.303334 0.135376
Si Si6 0.003415 0.235044 0.506463
Si Si7 0.705369 0.687801 0.113270
O O1 0.500000 0.387338 0.250000
O O2 0.726334 0.440835 0.256613
O O3 0.817448 0.351293 0.139348
O O4 0.791575 0.420397 0.015609
O O5 0.601470 0.393602 0.898960
O O6 0.701274 0.475409 0.882851
O O7 0.000000 0.416464 0.750000
O O8 0.500000 0.431794 0.750000
O O9 0.272049 0.367399 0.901706
O O10 0.281690 0.443850 0.019256
O O11 0.000000 0.479751 0.250000
O O12 0.500000 0.295053 0.250000
O O13 0.665655 0.295050 0.020335
O O14 0.861785 0.263247 0.126960
O O15 0.880499 0.279271 0.598262
O O16 0.843526 0.203727 0.499574
O O17 0.500000 0.693277 0.250000
#
# Coordination Sequence:
#
# PCOD9282562 Si02
#       7
#     8   8   8   8   8   8   8
#     4  11  24  43  68  98 136 176 233 281 340 409
#     4  11  26  44  68  98 134 183 227 286 343 412
#     4  11  25  43  67  99 138 177 225 283 347 404
#     4  11  27  43  68 101 134 180 231 284 347 409
#     4  10  22  39  63  94 125 170 215 272 325 388
#     4  10  21  39  63  88 129 166 216 262 330 393
#     4  10  22  39  59  92 126 168 213 265 326 399
#
# _framework density 24.136106000000002
#
# number of rings (size 3 to 8) (size 9 to 14) (size 15 to 20)
#    0.000    1.429    1.429    2.143    8.000    2.286 
#    0.000    3.571    0.000    0.000    0.000    0.000 
#    0.000    0.000    0.000    0.000    0.000    0.000 
#
# Total GULP energy -155898.109615 kJ/mol
# GULP energy per Si atom -5567.789629 kJ/mol
# Density = 2.408117 g / cm^3
# Si number density = 24.136106 Si / 1000 Ang^3
#
#
#
# Elastic Constant Matrix: (Units=GPa)
#
#
# Indices 1 2 3 4 5 6 
#
# 1 30.6796 7.3093 -8.6238 0.0000 -11.2761 0.0000
# 2 7.3093 67.7898 47.6505 0.0000 -9.2358 0.0000
# 3 -8.6238 47.6505 129.2229 0.0000 -0.3327 0.0000
# 4 0.0000 0.0000 0.0000 27.2913 0.0000 -7.7091
# 5 -11.2761 -9.2358 -0.3327 0.0000 31.2994 0.0000
# 6 0.0000 0.0000 0.0000 -7.7091 0.0000 22.5172
#
#
#
# Elastic Compliance Matrix: (Units=1/GPa)
#
#
# Indices 1 2 3 4 5 6 
#
# 1 0.040103 -0.006070 0.004947 0.000000 0.012709 0.000000
# 2 -0.006070 0.021942 -0.008485 0.000000 0.004198 0.000000
# 3 0.004947 -0.008485 0.011196 0.000000 -0.000603 0.000000
# 4 0.000000 0.000000 0.000000 0.040565 0.000000 0.013888
# 5 0.012709 0.004198 -0.000603 0.000000 0.037760 0.000000
# 6 0.000000 0.000000 0.000000 0.013888 0.000000 0.049165
#
#
# Mechanical properties :
#
#
# Convention : Reuss Voigt Hill
#
# Bulk Modulus (GPa) = 18.50988 35.59602 27.05295
# Shear Modulus (GPa) = 21.01222 28.31198 24.66210
#
# Velocity S-wave (km/s) = 2.95375 3.42864 3.20002
# Velocity P-wave (km/s) = 4.39527 5.51853 4.98862
#
# Compressibility (1/GPa) = 0.05402520
#
# Stress axis : x y z
#
# Youngs Moduli (GPa) = 24.93582 45.57375 89.31624
#
# Poissons Ratio (x) = 0.27663 -0.44188
# Poissons Ratio (y) = 0.15136 0.75789
# Poissons Ratio (z) = -0.12337 0.38672
#
# Static dielectric constant tensor:
#      x y z
#    x 1.896610 0.000000 -0.021360 
#    y 0.000000 2.275840 0.000000 
#    z -0.021360 0.000000 1.944380 
# 
# From -- ./inp_files/82452.got.cif
#   From: 2010.05.17/outbox.cif.g08.bks.cpg/sg15_42_cif.got.tgz:82452.got - 2010.06.03 18:47:42.
