data_PCOD9282847
_publ_section_title
;
Structure prediction by ZEFSAII (Michael W. Deem and Ramdas Pophale) SiO2 
 PCOD9282847
Probable space group: C 2/C
;
_chemical_formula_sum "Si O2"
_cell_formula_units_Z 64
_cell_length_a 14.761149
_cell_length_b 8.659513
_cell_length_c 21.874391
_cell_angle_alpha 90.000000
_cell_angle_beta 96.045976
_cell_angle_gamma 90.000000
_cell_volume 2780.527425
_symmetry_space_group_name_H-M "C 2/C"
_symmetry_group_IT_number 15
_symmetry_cell_setting 'monoclinic'
loop_
_space_group_symop_operation_xyz
x,y,z
-x,y,1/2-z
-x,-y,-z
x,-y,1/2+z
1/2+x,1/2+y,z
1/2-x,1/2+y,1/2-z
1/2-x,1/2-y,-z
1/2+x,1/2-y,1/2+z
loop_
_atom_site_type_symbol
_atom_site_label
_atom_site_fract_x
_atom_site_fract_y
_atom_site_fract_z
Si Si1 0.143719 0.785933 0.996321
Si Si2 0.129001 0.992315 0.882324
Si Si3 0.208734 0.108492 0.204621
Si Si4 0.368802 0.808086 0.536807
Si Si5 0.322690 0.594205 0.440229
Si Si6 0.445865 0.111424 0.404575
Si Si7 0.308162 0.961147 0.311244
Si Si8 0.043596 0.118121 0.692987
O O1 0.097760 0.651539 0.032666
O O2 0.128221 0.938102 0.037227
O O3 0.250000 0.750000 0.000000
O O4 0.119814 0.846235 0.926947
O O5 0.219427 0.994678 0.846669
O O6 0.136421 0.150887 0.922660
O O7 0.036081 0.007611 0.838173
O O8 0.208514 0.096674 0.131422
O O9 0.297666 0.066585 0.250217
O O10 0.190496 0.287855 0.213611
O O11 0.130586 0.985181 0.216167
O O12 0.381639 0.738086 0.469698
O O13 0.273233 0.894525 0.530999
O O14 0.448337 0.906981 0.572383
O O15 0.393134 0.984747 0.362030
O O16 0.435811 0.258445 0.358066
O O17 0.000000 0.194822 0.750000
#
# Coordination Sequence:
#
# PCOD9282847 Si02
#       8
#     8   8   8   8   8   8   8   8
#     4  11  22  38  64  99 134 171 216 274 329 392
#     4  10  21  39  65  90 131 170 214 265 331 397
#     4  12  25  43  69  97 129 179 225 277 332 395
#     4   9  21  40  67  94 129 168 217 266 331 396
#     4  10  21  41  66  95 127 179 219 264 329 407
#     4  11  24  41  67 103 133 175 223 272 334 399
#     4  12  25  43  66  97 133 174 225 274 331 399
#     4  11  23  43  67  94 129 176 225 272 328 397
#
# _framework density 23.017216999999999
#
# number of rings (size 3 to 8) (size 9 to 14) (size 15 to 20)
#    0.000    1.250    5.000    0.750    1.750    1.500 
#    2.250    1.875    0.000    0.000    0.000    0.000 
#    0.000    0.000    0.000    0.000    0.000    0.000 
#
# Total GULP energy -178754.262856 kJ/mol
# GULP energy per Si atom -5586.070714 kJ/mol
# Density = 2.296483 g / cm^3
# Si number density = 23.017217 Si / 1000 Ang^3
#
#
#
# Elastic Constant Matrix: (Units=GPa)
#
#
# Indices 1 2 3 4 5 6 
#
# 1 39.5666 -10.5752 2.4435 0.0000 23.7399 0.0000
# 2 -10.5752 61.7143 12.7401 0.0000 8.4759 0.0000
# 3 2.4435 12.7401 109.7063 0.0000 14.1295 0.0000
# 4 0.0000 0.0000 0.0000 29.8497 0.0000 9.3048
# 5 23.7399 8.4759 14.1295 0.0000 42.9589 0.0000
# 6 0.0000 0.0000 0.0000 9.3048 0.0000 24.6171
#
#
#
# Elastic Compliance Matrix: (Units=1/GPa)
#
#
# Indices 1 2 3 4 5 6 
#
# 1 0.044461 0.011097 0.001219 0.000000 -0.027160 0.000000
# 2 0.011097 0.019691 -0.001299 0.000000 -0.009590 0.000000
# 3 0.001219 -0.001299 0.009704 0.000000 -0.003609 0.000000
# 4 0.000000 0.000000 0.000000 0.037976 0.000000 -0.014354
# 5 -0.027160 -0.009590 -0.003609 0.000000 0.041367 0.000000
# 6 0.000000 0.000000 0.000000 -0.014354 0.000000 0.046048
#
#
# Mechanical properties :
#
#
# Convention : Reuss Voigt Hill
#
# Bulk Modulus (GPa) = 10.42858 24.46713 17.44786
# Shear Modulus (GPa) = 23.90364 33.24372 28.57368
#
# Velocity S-wave (km/s) = 3.22609 3.80451 3.52718
# Velocity P-wave (km/s) = 4.29156 5.47285 4.91780
#
# Compressibility (1/GPa) = 0.09589030
#
# Stress axis : x y z
#
# Youngs Moduli (GPa) = 22.49176 50.78587 103.05316
#
# Poissons Ratio (x) = -0.56358 -0.12563
# Poissons Ratio (y) = -0.24960 0.13383
# Poissons Ratio (z) = -0.02742 0.06595
#
# Static dielectric constant tensor:
#      x y z
#    x 1.845730 0.000000 -0.030090 
#    y 0.000000 1.888130 0.000000 
#    z -0.030090 0.000000 1.894150 
# 
# From -- ./inp_files/273183.got.cif
#   From: 2010.05.17/outbox.cif.g08.bks.cpg/sg15_137_cif.got.tgz:273183.got - 2010.06.03 18:47:42.
