data_PCOD9282503
_publ_section_title
;
Structure prediction by ZEFSAII (Michael W. Deem and Ramdas Pophale) SiO2 
 PCOD9282503
Probable space group: C 2/C
;
_chemical_formula_sum "Si O2"
_cell_formula_units_Z 40
_cell_length_a 12.462926
_cell_length_b 8.946588
_cell_length_c 22.270127
_cell_angle_alpha 90.000000
_cell_angle_beta 134.631005
_cell_angle_gamma 90.000000
_cell_volume 1767.112293
_symmetry_space_group_name_H-M "C 2/C"
_symmetry_group_IT_number 15
_symmetry_cell_setting 'monoclinic'
loop_
_space_group_symop_operation_xyz
x,y,z
-x,y,1/2-z
-x,-y,-z
x,-y,1/2+z
1/2+x,1/2+y,z
1/2-x,1/2+y,1/2-z
1/2-x,1/2-y,-z
1/2+x,1/2-y,1/2+z
loop_
_atom_site_type_symbol
_atom_site_label
_atom_site_fract_x
_atom_site_fract_y
_atom_site_fract_z
Si Si1 0.035087 0.421578 0.077360
Si Si2 0.300707 0.270561 0.234625
Si Si3 0.580277 0.342988 0.028701
Si Si4 0.830510 0.565921 0.702950
Si Si5 0.576196 0.209583 0.415870
O O1 0.213117 0.383632 0.155162
O O2 0.964583 0.533057 0.098657
O O3 0.000000 0.500000 0.000000
O O4 0.954612 0.260816 0.041260
O O5 0.211715 0.317302 0.260725
O O6 0.275738 0.100104 0.202439
O O7 0.480346 0.278638 0.322069
O O8 0.750036 0.375468 0.111384
O O9 0.511916 0.266624 0.060788
O O10 0.500000 0.500000 0.000000
O O11 0.000000 0.552998 0.750000
O O12 0.750000 0.250000 0.500000
#
# Coordination Sequence:
#
# PCOD9282503 Si02
#       5
#     8   8   8   8   8
#     4  10  21  41  64  96 141 181 233 296 353 432
#     4  11  22  44  71  95 145 186 235 301 351 431
#     4  10  21  39  62  93 136 175 225 293 351 411
#     4  11  25  44  69 103 139 187 242 292 360 430
#     4  10  23  41  65  99 132 181 237 287 360 428
#
# _framework density 22.6358
#
# number of rings (size 3 to 8) (size 9 to 14) (size 15 to 20)
#    0.000    1.600    4.000    0.000    2.800    0.000 
#    7.200    3.000    0.000    0.000    0.000    0.000 
#    0.000    0.000    0.000    0.000    0.000    0.000 
#
# Total GULP energy -111368.520711 kJ/mol
# GULP energy per Si atom -5568.426036 kJ/mol
# Density = 2.258428 g / cm^3
# Si number density = 22.635800 Si / 1000 Ang^3
#
#
#
# Elastic Constant Matrix: (Units=GPa)
#
#
# Indices 1 2 3 4 5 6 
#
# 1 52.0120 26.1308 40.6620 0.0000 19.6479 0.0000
# 2 26.1308 122.9610 71.3353 0.0000 19.3762 0.0000
# 3 40.6620 71.3353 201.4547 0.0000 14.8478 0.0000
# 4 0.0000 0.0000 0.0000 47.0419 0.0000 -10.5673
# 5 19.6479 19.3762 14.8478 0.0000 28.9808 0.0000
# 6 0.0000 0.0000 0.0000 -10.5673 0.0000 24.6010
#
#
#
# Elastic Compliance Matrix: (Units=1/GPa)
#
#
# Indices 1 2 3 4 5 6 
#
# 1 0.029637 -0.001081 -0.004335 0.000000 -0.017149 0.000000
# 2 -0.001081 0.011083 -0.003340 0.000000 -0.004966 0.000000
# 3 -0.004335 -0.003340 0.006901 0.000000 0.001637 0.000000
# 4 0.000000 0.000000 0.000000 0.023528 0.000000 0.010106
# 5 -0.017149 -0.004966 0.001637 0.000000 0.048613 0.000000
# 6 0.000000 0.000000 0.000000 0.010106 0.000000 0.044990
#
#
# Mechanical properties :
#
#
# Convention : Reuss Voigt Hill
#
# Bulk Modulus (GPa) = 33.21395 72.52043 52.86719
# Shear Modulus (GPa) = 26.00102 36.01138 31.00620
#
# Velocity S-wave (km/s) = 3.39288 3.99294 3.70508
# Velocity P-wave (km/s) = 5.48214 7.30518 6.45831
#
# Compressibility (1/GPa) = 0.03010783
#
# Stress axis : x y z
#
# Youngs Moduli (GPa) = 33.74196 90.23097 144.90452
#
# Poissons Ratio (x) = 0.09752 0.62821
# Poissons Ratio (y) = 0.03647 0.48402
# Poissons Ratio (z) = 0.14628 0.30139
#
# Static dielectric constant tensor:
#      x y z
#    x 1.805060 0.000000 -0.079900 
#    y 0.000000 1.882030 0.000000 
#    z -0.079900 0.000000 2.082330 
# 
# From -- ./inp_files/181285.got.cif
#   From: 2010.05.17/outbox.cif.g08.bks.cpg/sg15_91_cif.got.tgz:181285.got - 2010.06.03 18:47:42.
