data_PCOD9282126
_publ_section_title
;
Structure prediction by ZEFSAII (Michael W. Deem and Ramdas Pophale) SiO2 
 PCOD9282126
Probable space group: C 2/C
;
_chemical_formula_sum "Si O2"
_cell_formula_units_Z 36
_cell_length_a 11.175385
_cell_length_b 8.889618
_cell_length_c 19.560464
_cell_angle_alpha 90.000000
_cell_angle_beta 41.907178
_cell_angle_gamma 90.000000
_cell_volume 1297.935058
_symmetry_space_group_name_H-M "C 2/C"
_symmetry_group_IT_number 15
_symmetry_cell_setting 'monoclinic'
loop_
_space_group_symop_operation_xyz
x,y,z
-x,y,1/2-z
-x,-y,-z
x,-y,1/2+z
1/2+x,1/2+y,z
1/2-x,1/2+y,1/2-z
1/2-x,1/2-y,-z
1/2+x,1/2-y,1/2+z
loop_
_atom_site_type_symbol
_atom_site_label
_atom_site_fract_x
_atom_site_fract_y
_atom_site_fract_z
Si Si1 0.613432 0.643175 0.913235
Si Si2 0.034837 0.429712 0.573833
Si Si3 0.080301 0.845465 0.141997
Si Si4 0.500000 0.785348 0.250000
Si Si5 0.535533 0.729575 0.087793
O O1 0.605691 0.826296 0.906182
O O2 0.534171 0.595791 0.874105
O O3 0.822021 0.613245 0.832889
O O4 0.501204 0.635425 0.032377
O O5 0.077966 0.333863 0.624263
O O6 0.222698 0.412228 0.453628
O O7 0.968603 0.598133 0.609807
O O8 0.000000 0.867873 0.250000
O O9 0.481536 0.690002 0.188021
O O10 0.750000 0.750000 0.000000
#
# Coordination Sequence:
#
# PCOD9282126 Si02
#       5
#     8   8   8   4   8
#     4   9  20  37  58  84 119 155 196 246 287 352
#     4   9  20  38  61  86 116 162 194 250 293 347
#     4   9  20  37  64  88 116 153 208 242 294 350
#     4  10  22  36  56  84 124 158 198 236 304 356
#     4  10  21  39  56  86 126 156 192 245 300 356
#
# _framework density 27.736366
#
# number of rings (size 3 to 8) (size 9 to 14) (size 15 to 20)
#    1.333    1.333    0.000    0.667    4.667    0.000 
#    8.000    4.444    0.000    0.000    0.000    0.000 
#    0.000    0.000    0.000    0.000    0.000    0.000 
#
# Total GULP energy -100562.551693 kJ/mol
# GULP energy per Si atom -5586.808427 kJ/mol
# Density = 2.767324 g / cm^3
# Si number density = 27.736366 Si / 1000 Ang^3
#
#
#
# Elastic Constant Matrix: (Units=GPa)
#
#
# Indices 1 2 3 4 5 6 
#
# 1 126.4544 20.3169 77.9137 0.0000 30.2522 0.0000
# 2 20.3169 71.8146 48.2912 0.0000 51.4575 0.0000
# 3 77.9137 48.2912 241.7093 0.0000 61.5600 0.0000
# 4 0.0000 0.0000 0.0000 29.7734 0.0000 25.1955
# 5 30.2522 51.4575 61.5600 0.0000 74.6472 0.0000
# 6 0.0000 0.0000 0.0000 25.1955 0.0000 39.4007
#
#
#
# Elastic Compliance Matrix: (Units=1/GPa)
#
#
# Indices 1 2 3 4 5 6 
#
# 1 0.010063 0.000601 -0.002810 0.000000 -0.002176 0.000000
# 2 0.000601 0.027688 -0.001016 0.000000 -0.018493 0.000000
# 3 -0.002810 -0.001016 0.006048 0.000000 -0.003148 0.000000
# 4 0.000000 0.000000 0.000000 0.073197 0.000000 -0.046807
# 5 -0.002176 -0.018493 -0.003148 0.000000 0.029622 0.000000
# 6 0.000000 0.000000 0.000000 -0.046807 0.000000 0.055312
#
#
# Mechanical properties :
#
#
# Convention : Reuss Voigt Hill
#
# Bulk Modulus (GPa) = 26.77328 81.44686 54.11007
# Shear Modulus (GPa) = 22.64187 48.32803 35.48495
#
# Velocity S-wave (km/s) = 2.86024 4.17874 3.58070
# Velocity P-wave (km/s) = 4.53670 7.26023 6.05362
#
# Compressibility (1/GPa) = 0.03735067
#
# Stress axis : x y z
#
# Youngs Moduli (GPa) = 99.37285 36.11627 165.35026
#
# Poissons Ratio (x) = -0.02172 0.46461
# Poissons Ratio (y) = -0.05977 0.16798
# Poissons Ratio (z) = 0.27922 0.03669
#
# Static dielectric constant tensor:
#      x y z
#    x 2.176620 0.000000 0.026550 
#    y 0.000000 2.313210 0.000000 
#    z 0.026550 0.000000 2.166310 
# 
# From -- ./inp_files/243005.got.cif
#   From: 2010.05.17/outbox.cif.g08.bks.cpg/sg15_122_cif.got.tgz:243005.got - 2010.06.03 18:47:42.
