data_PCOD9282567
_publ_section_title
;
Structure prediction by ZEFSAII (Michael W. Deem and Ramdas Pophale) SiO2 
 PCOD9282567
Probable space group: C 2/C
;
_chemical_formula_sum "Si O2"
_cell_formula_units_Z 44
_cell_length_a 7.295884
_cell_length_b 32.471176
_cell_length_c 8.844905
_cell_angle_alpha 90.000000
_cell_angle_beta 79.015767
_cell_angle_gamma 90.000000
_cell_volume 2057.021831
_symmetry_space_group_name_H-M "C 2/C"
_symmetry_group_IT_number 15
_symmetry_cell_setting 'monoclinic'
loop_
_space_group_symop_operation_xyz
x,y,z
-x,y,1/2-z
-x,-y,-z
x,-y,1/2+z
1/2+x,1/2+y,z
1/2-x,1/2+y,1/2-z
1/2-x,1/2-y,-z
1/2+x,1/2-y,1/2+z
loop_
_atom_site_type_symbol
_atom_site_label
_atom_site_fract_x
_atom_site_fract_y
_atom_site_fract_z
Si Si1 0.593772 0.560389 0.455261
Si Si2 0.317337 0.875925 0.081780
Si Si3 0.500000 0.503486 0.750000
Si Si4 0.265218 0.207218 0.092078
Si Si5 0.290616 0.205775 0.428055
Si Si6 0.237619 0.878114 0.441570
O O1 0.751155 0.593193 0.463408
O O2 0.579992 0.532228 0.607291
O O3 0.633705 0.528658 0.315012
O O4 0.401730 0.587245 0.469578
O O5 0.231554 0.883333 0.261083
O O6 0.540875 0.880778 0.057323
O O7 0.235944 0.832010 0.042544
O O8 0.197464 0.205807 0.276857
O O9 0.485258 0.201713 0.093714
O O10 0.250000 0.250000 0.000000
O O11 0.192696 0.168139 0.007779
O O12 0.250000 0.250000 0.500000
#
# Coordination Sequence:
#
# PCOD9282567 Si02
#       6
#     8   8   4   8   8   8
#     4  11  22  44  64  92 126 160 198 260 310 365
#     4  10  21  39  63  89 121 164 203 245 305 364
#     4  10  24  42  66  94 124 152 208 258 310 374
#     4  10  22  38  57  86 122 157 204 250 293 355
#     4  10  22  38  57  86 122 157 204 250 293 355
#     4  10  21  39  63  89 121 164 203 245 305 364
#
# _framework density 21.390146999999999
#
# number of rings (size 3 to 8) (size 9 to 14) (size 15 to 20)
#    0.000    1.818    1.818    1.091    5.091    2.182 
#    0.000    5.455    0.000    0.000    0.000    0.000 
#    0.000    0.000    0.000    0.000    0.000    0.000 
#
# Total GULP energy -122621.020893 kJ/mol
# GULP energy per Si atom -5573.682768 kJ/mol
# Density = 2.134146 g / cm^3
# Si number density = 21.390147 Si / 1000 Ang^3
#
#
#
# Elastic Constant Matrix: (Units=GPa)
#
#
# Indices 1 2 3 4 5 6 
#
# 1 73.2252 15.9213 12.7237 0.0000 17.0182 0.0000
# 2 15.9213 119.1627 13.8524 0.0000 11.1212 0.0000
# 3 12.7237 13.8524 38.9575 0.0000 18.5757 0.0000
# 4 0.0000 0.0000 0.0000 49.4650 0.0000 15.8848
# 5 17.0182 11.1212 18.5757 0.0000 20.4857 0.0000
# 6 0.0000 0.0000 0.0000 15.8848 0.0000 12.0055
#
#
#
# Elastic Compliance Matrix: (Units=1/GPa)
#
#
# Indices 1 2 3 4 5 6 
#
# 1 0.017152 -0.001089 0.002286 0.000000 -0.015730 0.000000
# 2 -0.001089 0.008959 -0.001660 0.000000 -0.002454 0.000000
# 3 0.002286 -0.001660 0.045784 0.000000 -0.042513 0.000000
# 4 0.000000 0.000000 0.000000 0.035153 0.000000 -0.046511
# 5 -0.015730 -0.002454 -0.042513 0.000000 0.101764 0.000000
# 6 0.000000 0.000000 0.000000 -0.046511 0.000000 0.144836
#
#
# Mechanical properties :
#
#
# Convention : Reuss Voigt Hill
#
# Bulk Modulus (GPa) = 14.09084 35.14892 24.61988
# Shear Modulus (GPa) = 13.21946 28.98110 21.10028
#
# Velocity S-wave (km/s) = 2.48869 3.68486 3.14419
# Velocity P-wave (km/s) = 3.85486 5.87982 4.97153
#
# Compressibility (1/GPa) = 0.07096809
#
# Stress axis : x y z
#
# Youngs Moduli (GPa) = 58.30232 111.61462 21.84184
#
# Poissons Ratio (x) = 0.12159 -0.04993
# Poissons Ratio (y) = 0.06351 0.03626
# Poissons Ratio (z) = -0.13327 0.18528
#
# Static dielectric constant tensor:
#      x y z
#    x 1.824830 0.000000 -0.029130 
#    y 0.000000 1.756350 0.000000 
#    z -0.029130 0.000000 1.818780 
# 
# From -- ./inp_files/25620.got.cif
#   From: 2010.05.17/outbox.cif.g08.bks.cpg/sg15_13_cif.got.tgz:25620.got - 2010.06.03 18:47:42.
