data_PCOD9282239
_publ_section_title
;
Structure prediction by ZEFSAII (Michael W. Deem and Ramdas Pophale) SiO2 
 PCOD9282239
Probable space group: C 2/C
;
_chemical_formula_sum "Si O2"
_cell_formula_units_Z 64
_cell_length_a 14.202349
_cell_length_b 8.027787
_cell_length_c 28.856153
_cell_angle_alpha 90.000000
_cell_angle_beta 104.240493
_cell_angle_gamma 90.000000
_cell_volume 3188.893419
_symmetry_space_group_name_H-M "C 2/C"
_symmetry_group_IT_number 15
_symmetry_cell_setting 'monoclinic'
loop_
_space_group_symop_operation_xyz
x,y,z
-x,y,1/2-z
-x,-y,-z
x,-y,1/2+z
1/2+x,1/2+y,z
1/2-x,1/2+y,1/2-z
1/2-x,1/2-y,-z
1/2+x,1/2-y,1/2+z
loop_
_atom_site_type_symbol
_atom_site_label
_atom_site_fract_x
_atom_site_fract_y
_atom_site_fract_z
Si Si1 0.468205 0.179334 0.641455
Si Si2 0.884776 0.733700 0.368708
Si Si3 0.576768 0.429491 0.358564
Si Si4 0.818931 0.233363 0.713372
Si Si5 0.694522 0.774147 0.945543
Si Si6 0.233930 0.516425 0.368688
Si Si7 0.501012 0.975742 0.945543
Si Si8 0.355592 0.016472 0.786629
O O1 0.445552 0.374920 0.641118
O O2 0.373824 0.065566 0.642061
O O3 0.498971 0.125798 0.592484
O O4 0.552208 0.129029 0.688306
O O5 0.808711 0.875039 0.367441
O O6 0.839828 0.593454 0.330576
O O7 0.981777 0.815734 0.357960
O O8 0.913711 0.643312 0.419494
O O9 0.613951 0.379156 0.311718
O O10 0.656485 0.375965 0.407536
O O11 0.759213 0.343363 0.669448
O O12 0.741683 0.124901 0.733393
O O13 0.872226 0.374885 0.750005
O O14 0.755761 0.893154 0.919469
O O15 0.598191 0.874945 0.946391
O O16 0.750000 0.750000 0.000000
O O17 0.500000 0.000000 0.000000
#
# Coordination Sequence:
#
# PCOD9282239 Si02
#       8
#     8   8   8   8   8   8   8   8
#     4  10  22  40  61  88 121 159 200 247 301 358
#     4  10  21  39  60  86 118 154 196 245 295 350
#     4  10  22  40  61  88 121 159 200 247 301 358
#     4  11  23  40  61  88 117 149 193 244 297 360
#     4   9  20  36  56  85 121 158 200 246 295 350
#     4  10  21  39  60  86 118 154 196 245 295 350
#     4   9  20  36  56  85 121 158 200 246 295 350
#     4  11  23  40  61  88 117 149 193 244 297 360
#
# _framework density 20.069658
#
# number of rings (size 3 to 8) (size 9 to 14) (size 15 to 20)
#    0.000    2.000    0.000    4.500    0.000    9.000 
#    0.000    6.250    0.000    0.000    0.000    0.000 
#    0.000    0.000    0.000    0.000    0.000    0.000 
#
# Total GULP energy -178535.339705 kJ/mol
# GULP energy per Si atom -5579.229366 kJ/mol
# Density = 2.002398 g / cm^3
# Si number density = 20.069658 Si / 1000 Ang^3
#
#
#
# Elastic Constant Matrix: (Units=GPa)
#
#
# Indices 1 2 3 4 5 6 
#
# 1 60.4101 26.1002 14.2680 0.0000 0.6905 0.0000
# 2 26.1002 117.3803 26.2957 0.0000 -0.0073 0.0000
# 3 14.2680 26.2957 90.8286 0.0000 -1.6539 0.0000
# 4 0.0000 0.0000 0.0000 18.4954 0.0000 0.3770
# 5 0.6905 -0.0073 -1.6539 0.0000 12.3006 0.0000
# 6 0.0000 0.0000 0.0000 0.3770 0.0000 30.5485
#
#
#
# Elastic Compliance Matrix: (Units=1/GPa)
#
#
# Indices 1 2 3 4 5 6 
#
# 1 0.018618 -0.003721 -0.001871 0.000000 -0.001299 0.000000
# 2 -0.003721 0.009855 -0.002270 0.000000 -0.000091 0.000000
# 3 -0.001871 -0.002270 0.011992 0.000000 0.001716 0.000000
# 4 0.000000 0.000000 0.000000 0.054081 0.000000 -0.000668
# 5 -0.001299 -0.000091 0.001716 0.000000 0.081601 0.000000
# 6 0.000000 0.000000 0.000000 -0.000668 0.000000 0.032743
#
#
# Mechanical properties :
#
#
# Convention : Reuss Voigt Hill
#
# Bulk Modulus (GPa) = 40.41880 44.66077 42.53979
# Shear Modulus (GPa) = 21.47200 25.73257 23.60229
#
# Velocity S-wave (km/s) = 3.27444 3.58461 3.43303
# Velocity P-wave (km/s) = 5.87188 6.27963 6.07918
#
# Compressibility (1/GPa) = 0.02474096
#
# Stress axis : x y z
#
# Youngs Moduli (GPa) = 53.71200 101.46890 83.38750
#
# Poissons Ratio (x) = 0.37753 0.15603
# Poissons Ratio (y) = 0.19985 0.18932
# Poissons Ratio (z) = 0.10050 0.23037
#
# Static dielectric constant tensor:
#      x y z
#    x 1.748470 0.000000 0.000060 
#    y 0.000000 1.703710 0.000000 
#    z 0.000060 0.000000 1.746140 
# 
# From -- ./inp_files/295210.got.cif
#   From: 2010.05.17/outbox.cif.g08.bks.cpg/sg15_148_cif.got.tgz:295210.got - 2010.06.03 18:47:42.
