data_PCOD9282012
_publ_section_title
;
Structure prediction by ZEFSAII (Michael W. Deem and Ramdas Pophale) SiO2 
 PCOD9282012
Probable space group: C 2/C
;
_chemical_formula_sum "Si O2"
_cell_formula_units_Z 52
_cell_length_a 26.233532
_cell_length_b 9.151113
_cell_length_c 14.924458
_cell_angle_alpha 90.000000
_cell_angle_beta 136.541563
_cell_angle_gamma 90.000000
_cell_volume 2464.388821
_symmetry_space_group_name_H-M "C 2/C"
_symmetry_group_IT_number 15
_symmetry_cell_setting 'monoclinic'
loop_
_space_group_symop_operation_xyz
x,y,z
-x,y,1/2-z
-x,-y,-z
x,-y,1/2+z
1/2+x,1/2+y,z
1/2-x,1/2+y,1/2-z
1/2-x,1/2-y,-z
1/2+x,1/2-y,1/2+z
loop_
_atom_site_type_symbol
_atom_site_label
_atom_site_fract_x
_atom_site_fract_y
_atom_site_fract_z
Si Si1 0.500000 0.899121 0.750000
Si Si2 0.532268 0.301273 0.457111
Si Si3 0.628321 0.326599 0.913737
Si Si4 0.337489 0.987259 0.058180
Si Si5 0.498587 0.355110 0.608824
Si Si6 0.256650 0.981701 0.637105
Si Si7 0.799311 0.698504 0.848528
O O1 0.501744 0.796466 0.664711
O O2 0.574363 0.993107 0.841636
O O3 0.502915 0.273855 0.519683
O O4 0.515178 0.471457 0.419238
O O5 0.619449 0.266757 0.563982
O O6 0.679448 0.183972 0.972977
O O7 0.576004 0.337429 0.760007
O O8 0.570671 0.303925 0.921078
O O9 0.677431 0.470058 0.993590
O O10 0.311783 0.033742 0.124021
O O11 0.302045 0.086545 0.935756
O O12 0.276667 0.110080 0.731730
O O13 0.251680 0.832927 0.686819
#
# Coordination Sequence:
#
# PCOD9282012 Si02
#       7
#     4   8   8   8   8   8   8
#     4  10  22  40  66  90 132 164 224 270 324 386
#     4  10  21  40  63  98 127 172 216 277 322 391
#     4  11  22  41  66  95 131 169 222 274 323 395
#     4  11  25  43  65  98 131 177 216 272 334 388
#     4  10  21  38  67  96 129 169 223 265 336 378
#     4  12  25  45  66  96 134 177 217 273 331 395
#     4  11  25  44  65  97 135 173 224 268 329 397
#
# _framework density 21.100566000000001
#
# number of rings (size 3 to 8) (size 9 to 14) (size 15 to 20)
#    0.000    1.231    1.538    4.615    2.154    3.692 
#    0.000    3.846    0.000    0.000    0.000    0.000 
#    0.000    0.000    0.000    0.000    0.000    0.000 
#
# Total GULP energy -145401.863806 kJ/mol
# GULP energy per Si atom -5592.379377 kJ/mol
# Density = 2.105254 g / cm^3
# Si number density = 21.100566 Si / 1000 Ang^3
#
#
#
# Elastic Constant Matrix: (Units=GPa)
#
#
# Indices 1 2 3 4 5 6 
#
# 1 78.4874 47.7284 25.3223 0.0000 -35.9067 0.0000
# 2 47.7284 -20.1715 77.1203 0.0000 25.7471 0.0000
# 3 25.3223 77.1203 51.0181 0.0000 -40.0180 0.0000
# 4 0.0000 0.0000 0.0000 23.4975 0.0000 -4.0452
# 5 -35.9067 25.7471 -40.0180 0.0000 21.6815 0.0000
# 6 0.0000 0.0000 0.0000 -4.0452 0.0000 18.9871
#
#
#
# Elastic Compliance Matrix: (Units=1/GPa)
#
#
# Indices 1 2 3 4 5 6 
#
# 1 0.015553 0.003289 -0.009937 0.000000 0.003511 0.000000
# 2 0.003289 0.002284 0.006569 0.000000 0.014858 0.000000
# 3 -0.009937 0.006569 0.009879 0.000000 -0.006023 0.000000
# 4 0.000000 0.000000 0.000000 0.044178 0.000000 0.009412
# 5 0.003511 0.014858 -0.006023 0.000000 0.023175 0.000000
# 6 0.000000 0.000000 0.000000 0.009412 0.000000 0.054673
#
#
# Mechanical properties :
#
#
# Convention : Reuss Voigt Hill
#
# Bulk Modulus (GPa) = 36.28893 45.51957 40.90425
# Shear Modulus (GPa) = 31.42921 10.11074 20.76997
#
# Velocity S-wave (km/s) = 3.86359 2.19137 3.14081
# Velocity P-wave (km/s) = 6.09413 5.29361 5.70792
#
# Compressibility (1/GPa) = 0.02755661
#
# Stress axis : x y z
#
# Youngs Moduli (GPa) = 64.29585 437.75616 101.22364
#
# Poissons Ratio (x) = -1.43966 1.00589
# Poissons Ratio (y) = -0.21145 -0.66490
# Poissons Ratio (z) = 0.63893 -2.87546
#
# Static dielectric constant tensor:
#      x y z
#    x 1.734590 0.000000 -0.004300 
#    y 0.000000 1.777590 0.000000 
#    z -0.004300 0.000000 1.757440 
# 
# From -- ./inp_files/176706.got.cif
#   From: 2010.05.17/outbox.cif.g08.bks.cpg/sg15_89_cif.got.tgz:176706.got - 2010.06.03 18:47:42.
