data_PCOD9282803
_publ_section_title
;
Structure prediction by ZEFSAII (Michael W. Deem and Ramdas Pophale) SiO2 
 PCOD9282803
Probable space group: C 2/C
;
_chemical_formula_sum "Si O2"
_cell_formula_units_Z 56
_cell_length_a 23.239612
_cell_length_b 14.118716
_cell_length_c 15.036723
_cell_angle_alpha 90.000000
_cell_angle_beta 145.910362
_cell_angle_gamma 90.000000
_cell_volume 2765.314600
_symmetry_space_group_name_H-M "C 2/C"
_symmetry_group_IT_number 15
_symmetry_cell_setting 'monoclinic'
loop_
_space_group_symop_operation_xyz
x,y,z
-x,y,1/2-z
-x,-y,-z
x,-y,1/2+z
1/2+x,1/2+y,z
1/2-x,1/2+y,1/2-z
1/2-x,1/2-y,-z
1/2+x,1/2-y,1/2+z
loop_
_atom_site_type_symbol
_atom_site_label
_atom_site_fract_x
_atom_site_fract_y
_atom_site_fract_z
Si Si1 0.818979 0.755097 0.677133
Si Si2 0.524963 0.891951 0.053906
Si Si3 0.490089 0.384701 0.630156
Si Si4 0.653706 0.220842 0.109890
Si Si5 0.569169 0.796544 0.927489
Si Si6 0.783666 0.802208 0.132754
Si Si7 0.994089 0.902792 0.348695
O O1 0.750000 0.750000 0.500000
O O2 0.869908 0.653443 0.770186
O O3 0.911641 0.828542 0.781123
O O4 0.746787 0.793141 0.663020
O O5 0.437633 0.854425 0.009495
O O6 0.521551 0.846092 0.951508
O O7 0.500000 0.000000 0.000000
O O8 0.500000 0.382420 0.750000
O O9 0.393355 0.323018 0.476234
O O10 0.482584 0.492426 0.586926
O O11 0.683830 0.227125 0.251126
O O12 0.500000 0.800071 0.750000
O O13 0.570389 0.685942 0.959974
O O14 0.678616 0.841554 0.041560
O O15 0.880891 0.868708 0.235568
O O16 0.750000 0.750000 0.000000
O O17 0.000000 0.913921 0.250000
#
# Coordination Sequence:
#
# PCOD9282803 Si02
#       7
#     8   8   8   8   8   8   8
#     4  11  23  46  69  96 133 178 223 276 335 405
#     4  11  25  46  64  97 137 175 228 284 338 406
#     4  10  22  42  67  96 130 165 220 273 329 392
#     4  11  23  43  68  92 131 176 215 275 336 395
#     4  11  21  42  63  91 137 171 211 273 338 399
#     4  12  21  39  66  93 127 172 210 265 334 393
#     4  10  21  39  64  97 126 166 214 263 327 383
#
# _framework density 20.250859999999999
#
# number of rings (size 3 to 8) (size 9 to 14) (size 15 to 20)
#    0.000    1.143    7.143    0.000    0.000    1.714 
#   10.286    0.000    0.000    0.000    0.000    0.000 
#    0.000    0.000    0.000    0.000    0.000    0.000 
#
# Total GULP energy -156113.030632 kJ/mol
# GULP energy per Si atom -5575.465380 kJ/mol
# Density = 2.020477 g / cm^3
# Si number density = 20.250860 Si / 1000 Ang^3
#
#
#
# Elastic Constant Matrix: (Units=GPa)
#
#
# Indices 1 2 3 4 5 6 
#
# 1 150.4054 32.7832 35.5826 0.0000 18.8986 0.0000
# 2 32.7832 117.4856 6.9711 0.0000 -0.9641 0.0000
# 3 35.5826 6.9711 71.9213 0.0000 -5.7982 0.0000
# 4 0.0000 0.0000 0.0000 21.6366 0.0000 -6.2731
# 5 18.8986 -0.9641 -5.7982 0.0000 48.4806 0.0000
# 6 0.0000 0.0000 0.0000 -6.2731 0.0000 16.1511
#
#
#
# Elastic Compliance Matrix: (Units=1/GPa)
#
#
# Indices 1 2 3 4 5 6 
#
# 1 0.008660 -0.002188 -0.004390 0.000000 -0.003944 0.000000
# 2 -0.002188 0.009114 0.000285 0.000000 0.001068 0.000000
# 3 -0.004390 0.000285 0.016345 0.000000 0.003672 0.000000
# 4 0.000000 0.000000 0.000000 0.052083 0.000000 0.020229
# 5 -0.003944 0.001068 0.003672 0.000000 0.022625 0.000000
# 6 0.000000 0.000000 0.000000 0.020229 0.000000 0.069772
#
#
# Mechanical properties :
#
#
# Convention : Reuss Voigt Hill
#
# Bulk Modulus (GPa) = 46.44235 54.49848 50.47042
# Shear Modulus (GPa) = 25.20637 34.88535 30.04586
#
# Velocity S-wave (km/s) = 3.53187 4.15500 3.85604
# Velocity P-wave (km/s) = 6.29408 7.07027 6.69344
#
# Compressibility (1/GPa) = 0.02153207
#
# Stress axis : x y z
#
# Youngs Moduli (GPa) = 115.47404 109.71949 61.18250
#
# Poissons Ratio (x) = 0.24010 0.26861
# Poissons Ratio (y) = 0.25270 -0.01746
# Poissons Ratio (z) = 0.50697 -0.03131
#
# Static dielectric constant tensor:
#      x y z
#    x 1.739660 0.000000 0.016070 
#    y 0.000000 1.725220 0.000000 
#    z 0.016070 0.000000 1.772580 
# 
# From -- ./inp_files/168502.got.cif
#   From: 2010.05.17/outbox.cif.g08.bks.cpg/sg15_85_cif.got.tgz:168502.got - 2010.06.03 18:47:42.
