data_PCOD9282908
_publ_section_title
;
Structure prediction by ZEFSAII (Michael W. Deem and Ramdas Pophale) SiO2 
 PCOD9282908
Probable space group: C 2/C
;
_chemical_formula_sum "Si O2"
_cell_formula_units_Z 60
_cell_length_a 9.415374
_cell_length_b 22.359306
_cell_length_c 13.721667
_cell_angle_alpha 90.000000
_cell_angle_beta 93.644788
_cell_angle_gamma 90.000000
_cell_volume 2882.859331
_symmetry_space_group_name_H-M "C 2/C"
_symmetry_group_IT_number 15
_symmetry_cell_setting 'monoclinic'
loop_
_space_group_symop_operation_xyz
x,y,z
-x,y,1/2-z
-x,-y,-z
x,-y,1/2+z
1/2+x,1/2+y,z
1/2-x,1/2+y,1/2-z
1/2-x,1/2-y,-z
1/2+x,1/2-y,1/2+z
loop_
_atom_site_type_symbol
_atom_site_label
_atom_site_fract_x
_atom_site_fract_y
_atom_site_fract_z
Si Si1 0.853604 0.064056 0.540108
Si Si2 0.787123 0.312203 0.059955
Si Si3 0.139466 0.923390 0.958792
Si Si4 0.618145 0.162991 0.538144
Si Si5 0.659767 0.428058 0.743414
Si Si6 0.143904 0.661758 0.317804
Si Si7 0.333557 0.766263 0.267406
Si Si8 0.500000 0.543932 0.750000
O O1 0.708675 0.101444 0.542335
O O2 0.938475 0.072327 0.648115
O O3 0.967583 0.083502 0.462132
O O4 0.832566 0.993448 0.518281
O O5 0.766369 0.301199 0.173825
O O6 0.949931 0.333537 0.051352
O O7 0.750000 0.250000 0.000000
O O8 0.696430 0.368575 0.022774
O O9 0.211178 0.918321 0.856130
O O10 0.628936 0.184684 0.427142
O O11 0.682597 0.201968 0.629011
O O12 0.500000 0.400964 0.750000
O O13 0.779435 0.402307 0.679612
O O14 0.625066 0.497654 0.723575
O O15 0.257815 0.703086 0.269127
O O16 0.000000 0.661605 0.250000
O O17 0.500000 0.760006 0.250000
#
# Coordination Sequence:
#
# PCOD9282908 Si02
#       8
#     8   8   8   8   8   8   8   4
#     4  10  22  39  66  96 132 167 222 271 322 387
#     4  11  24  45  67  91 133 175 217 264 336 398
#     4  10  21  39  65  95 127 173 214 263 325 395
#     4  11  25  41  63  97 127 167 222 274 327 383
#     4   9  18  36  60  87 122 165 214 252 318 387
#     4  12  23  38  63  94 129 163 219 277 321 382
#     4  10  24  43  61  87 127 175 215 259 331 396
#     4   8  20  38  64  90 128 172 220 260 330 390
#
# _framework density 20.812671000000002
#
# number of rings (size 3 to 8) (size 9 to 14) (size 15 to 20)
#    0.400    1.333    0.000    4.000    3.733    5.867 
#    0.000    0.000    0.000    0.800    0.000    0.000 
#    0.000    0.000    0.000    0.000    0.000    0.000 
#
# Total GULP energy -167087.848532 kJ/mol
# GULP energy per Si atom -5569.594951 kJ/mol
# Density = 2.076530 g / cm^3
# Si number density = 20.812671 Si / 1000 Ang^3
#
#
#
# Elastic Constant Matrix: (Units=GPa)
#
#
# Indices 1 2 3 4 5 6 
#
# 1 57.8467 50.2299 28.3541 0.0000 10.5384 0.0000
# 2 50.2299 71.0845 14.8095 0.0000 14.5954 0.0000
# 3 28.3541 14.8095 124.1006 0.0000 7.1686 0.0000
# 4 0.0000 0.0000 0.0000 22.0778 0.0000 1.2392
# 5 10.5384 14.5954 7.1686 0.0000 34.3365 0.0000
# 6 0.0000 0.0000 0.0000 1.2392 0.0000 32.7414
#
#
#
# Elastic Compliance Matrix: (Units=1/GPa)
#
#
# Indices 1 2 3 4 5 6 
#
# 1 0.050751 -0.034423 -0.007524 0.000000 0.000627 0.000000
# 2 -0.034423 0.039034 0.003598 0.000000 -0.006778 0.000000
# 3 -0.007524 0.003598 0.009416 0.000000 -0.001186 0.000000
# 4 0.000000 0.000000 0.000000 0.045391 0.000000 -0.001718
# 5 0.000627 -0.006778 -0.001186 0.000000 0.032060 0.000000
# 6 0.000000 0.000000 0.000000 -0.001718 0.000000 0.030607
#
#
# Mechanical properties :
#
#
# Convention : Reuss Voigt Hill
#
# Bulk Modulus (GPa) = 44.43622 48.86875 46.65248
# Shear Modulus (GPa) = 17.15512 28.47372 22.81442
#
# Velocity S-wave (km/s) = 2.87411 3.70279 3.31445
# Velocity P-wave (km/s) = 5.69306 6.46623 6.09192
#
# Compressibility (1/GPa) = 0.02250416
#
# Stress axis : x y z
#
# Youngs Moduli (GPa) = 19.70393 25.61872 106.20091
#
# Poissons Ratio (x) = 0.88188 0.79904
# Poissons Ratio (y) = 0.67827 -0.38215
# Poissons Ratio (z) = 0.14825 -0.09218
#
# Static dielectric constant tensor:
#      x y z
#    x 1.735200 0.000000 0.038650 
#    y 0.000000 1.758940 0.000000 
#    z 0.038650 0.000000 1.852950 
# 
# From -- ./inp_files/137387.got.cif
#   From: 2010.05.17/outbox.cif.g08.bks.cpg/sg15_69_cif.got.tgz:137387.got - 2010.06.03 18:47:42.
