data_PCOD9282166
_publ_section_title
;
Structure prediction by ZEFSAII (Michael W. Deem and Ramdas Pophale) SiO2 
 PCOD9282166
Probable space group: C 2/C
;
_chemical_formula_sum "Si O2"
_cell_formula_units_Z 56
_cell_length_a 8.291975
_cell_length_b 22.326274
_cell_length_c 12.498251
_cell_angle_alpha 90.000000
_cell_angle_beta 99.563857
_cell_angle_gamma 90.000000
_cell_volume 2281.628295
_symmetry_space_group_name_H-M "C 2/C"
_symmetry_group_IT_number 15
_symmetry_cell_setting 'monoclinic'
loop_
_space_group_symop_operation_xyz
x,y,z
-x,y,1/2-z
-x,-y,-z
x,-y,1/2+z
1/2+x,1/2+y,z
1/2-x,1/2+y,1/2-z
1/2-x,1/2-y,-z
1/2+x,1/2-y,1/2+z
loop_
_atom_site_type_symbol
_atom_site_label
_atom_site_fract_x
_atom_site_fract_y
_atom_site_fract_z
Si Si1 0.529619 0.074102 0.399064
Si Si2 0.641376 0.452339 0.487103
Si Si3 0.463997 0.249241 0.919657
Si Si4 0.061439 0.615553 0.871403
Si Si5 0.119263 0.289964 0.853060
Si Si6 0.318391 0.537431 0.178425
Si Si7 0.612203 0.363628 0.992302
O O1 0.701911 0.038722 0.420362
O O2 0.487613 0.080937 0.523425
O O3 0.575742 0.140668 0.366415
O O4 0.373194 0.050065 0.316831
O O5 0.500000 0.500000 0.500000
O O6 0.688014 0.471499 0.373839
O O7 0.566369 0.386599 0.490554
O O8 0.495980 0.183711 0.877906
O O9 0.307930 0.279123 0.845222
O O10 0.608296 0.297802 0.941560
O O11 0.419092 0.241168 0.039161
O O12 0.000000 0.592165 0.750000
O O13 0.257345 0.624244 0.900714
O O14 0.000000 0.265238 0.750000
O O15 0.500000 0.539559 0.250000
O O16 0.339002 0.591730 0.096639
#
# Coordination Sequence:
#
# PCOD9282166 Si02
#       7
#     8   8   8   8   8   8   8
#     4  10  21  42  64  89 131 161 207 265 313 378
#     4  10  21  40  62  87 119 163 205 262 321 371
#     4  10  21  39  58  89 126 159 205 256 305 372
#     4  10  23  39  60  90 121 168 210 253 313 373
#     4  10  22  36  62  94 121 164 206 248 317 378
#     4  10  23  38  61  93 119 161 208 254 316 373
#     4  10  21  40  59  84 124 158 203 260 308 368
#
# _framework density 24.543875
#
# number of rings (size 3 to 8) (size 9 to 14) (size 15 to 20)
#    0.000    2.000    1.429    0.857    4.000    1.714 
#    0.000    0.714    0.000    1.714    0.000    0.000 
#    0.000    0.000    0.000    0.000    0.000    0.000 
#
# Total GULP energy -156270.791792 kJ/mol
# GULP energy per Si atom -5581.099707 kJ/mol
# Density = 2.448801 g / cm^3
# Si number density = 24.543875 Si / 1000 Ang^3
#
#
#
# Elastic Constant Matrix: (Units=GPa)
#
#
# Indices 1 2 3 4 5 6 
#
# 1 118.5920 30.9739 52.4662 0.0000 52.2045 0.0000
# 2 30.9739 53.3431 9.8973 0.0000 7.8822 0.0000
# 3 52.4662 9.8973 160.0131 0.0000 55.3864 0.0000
# 4 0.0000 0.0000 0.0000 20.3401 0.0000 14.3871
# 5 52.2045 7.8822 55.3864 0.0000 52.9231 0.0000
# 6 0.0000 0.0000 0.0000 14.3871 0.0000 29.2960
#
#
#
# Elastic Compliance Matrix: (Units=1/GPa)
#
#
# Indices 1 2 3 4 5 6 
#
# 1 0.017637 -0.007859 0.000502 0.000000 -0.016752 0.000000
# 2 -0.007859 0.022680 -0.000533 0.000000 0.004932 0.000000
# 3 0.000502 -0.000533 0.009819 0.000000 -0.010691 0.000000
# 4 0.000000 0.000000 0.000000 0.075331 0.000000 -0.036995
# 5 -0.016752 0.004932 -0.010691 0.000000 0.045874 0.000000
# 6 0.000000 0.000000 0.000000 -0.036995 0.000000 0.052302
#
#
# Mechanical properties :
#
#
# Convention : Reuss Voigt Hill
#
# Bulk Modulus (GPa) = 29.10798 57.62479 43.36638
# Shear Modulus (GPa) = 19.93013 36.41921 28.17467
#
# Velocity S-wave (km/s) = 2.85269 3.85625 3.39179
# Velocity P-wave (km/s) = 4.76820 6.58458 5.74859
#
# Compressibility (1/GPa) = 0.03435484
#
# Stress axis : x y z
#
# Youngs Moduli (GPa) = 56.69769 44.09173 101.84838
#
# Poissons Ratio (x) = 0.34651 -0.05109
# Poissons Ratio (y) = 0.44558 0.05431
# Poissons Ratio (z) = -0.02844 0.02351
#
# Static dielectric constant tensor:
#      x y z
#    x 2.140470 0.000000 -0.037560 
#    y 0.000000 1.951070 0.000000 
#    z -0.037560 0.000000 2.013740 
# 
# From -- ./inp_files/137960.got.cif
#   From: 2010.05.17/outbox.cif.g08.bks.cpg/sg15_69_cif.got.tgz:137960.got - 2010.06.03 18:47:42.
