data_PCOD9282974
_publ_section_title
;
Structure prediction by ZEFSAII (Michael W. Deem and Ramdas Pophale) SiO2 
 PCOD9282974
Probable space group: C 2/C
;
_chemical_formula_sum "Si O2"
_cell_formula_units_Z 36
_cell_length_a 5.642199
_cell_length_b 19.999715
_cell_length_c 13.438901
_cell_angle_alpha 90.000000
_cell_angle_beta 67.435253
_cell_angle_gamma 90.000000
_cell_volume 1400.385796
_symmetry_space_group_name_H-M "C 2/C"
_symmetry_group_IT_number 15
_symmetry_cell_setting 'monoclinic'
loop_
_space_group_symop_operation_xyz
x,y,z
-x,y,1/2-z
-x,-y,-z
x,-y,1/2+z
1/2+x,1/2+y,z
1/2-x,1/2+y,1/2-z
1/2-x,1/2-y,-z
1/2+x,1/2-y,1/2+z
loop_
_atom_site_type_symbol
_atom_site_label
_atom_site_fract_x
_atom_site_fract_y
_atom_site_fract_z
Si Si1 0.804412 0.065244 0.084830
Si Si2 0.215453 0.724278 0.117474
Si Si3 0.000000 0.463515 0.250000
Si Si4 0.813875 0.798738 0.854371
Si Si5 0.399807 0.085266 0.978307
O O1 0.749724 0.143617 0.116465
O O2 0.601865 0.055193 0.026096
O O3 0.106121 0.058932 0.013866
O O4 0.727103 0.016034 0.187177
O O5 0.474313 0.749036 0.131056
O O6 0.907736 0.735110 0.176153
O O7 0.250000 0.750000 0.000000
O O8 0.021741 0.420437 0.348023
O O9 0.676189 0.844429 0.957228
O O10 0.000000 0.840270 0.750000
#
# Coordination Sequence:
#
# PCOD9282974 Si02
#       5
#     8   8   4   8   8
#     4  10  24  40  64  95 130 171 218 264 310 391
#     4  10  21  39  66  89 129 165 213 273 309 376
#     4  12  24  42  68  96 134 174 218 254 336 372
#     4  10  21  39  70  97 132 166 217 258 319 394
#     4  10  24  40  63  97 134 170 211 269 313 387
#
# _framework density 25.707201000000001
#
# number of rings (size 3 to 8) (size 9 to 14) (size 15 to 20)
#    0.000    1.778    0.000    2.667   12.444    2.667 
#    0.000    0.000   58.667    0.000    0.000    0.000 
#    0.000    0.000    0.000    0.000    0.000    0.000 
#
# Total GULP energy -100209.244292 kJ/mol
# GULP energy per Si atom -5567.180238 kJ/mol
# Density = 2.564869 g / cm^3
# Si number density = 25.707201 Si / 1000 Ang^3
#
#
#
# Elastic Constant Matrix: (Units=GPa)
#
#
# Indices 1 2 3 4 5 6 
#
# 1 295.3104 20.4775 85.5888 0.0000 17.1625 0.0000
# 2 20.4775 49.0479 44.0709 0.0000 -7.9926 0.0000
# 3 85.5888 44.0709 153.8956 0.0000 -2.4375 0.0000
# 4 0.0000 0.0000 0.0000 35.6846 0.0000 13.3718
# 5 17.1625 -7.9926 -2.4375 0.0000 55.4593 0.0000
# 6 0.0000 0.0000 0.0000 13.3718 0.0000 3.6009
#
#
#
# Elastic Compliance Matrix: (Units=1/GPa)
#
#
# Indices 1 2 3 4 5 6 
#
# 1 0.004142 0.000186 -0.002378 0.000000 -0.001359 0.000000
# 2 0.000186 0.028203 -0.008122 0.000000 0.003650 0.000000
# 3 -0.002378 -0.008122 0.010147 0.000000 0.000011 0.000000
# 4 0.000000 0.000000 0.000000 -0.071572 0.000000 0.265784
# 5 -0.001359 0.003650 0.000011 0.000000 0.018978 0.000000
# 6 0.000000 0.000000 0.000000 0.265784 0.000000 -0.709280
#
#
# Mechanical properties :
#
#
# Convention : Reuss Voigt Hill
#
# Bulk Modulus (GPa) = 45.73913 88.72536 67.23224
# Shear Modulus (GPa) = -7.23102 42.15672 17.46285
#
# Velocity S-wave (km/s) = -1.67897 4.05394 2.60916
# Velocity P-wave (km/s) = 3.75132 7.51673 5.94027
#
# Compressibility (1/GPa) = 0.02186312
#
# Stress axis : x y z
#
# Youngs Moduli (GPa) = 241.45095 35.45672 98.55391
#
# Poissons Ratio (x) = -0.00660 0.23438
# Poissons Ratio (y) = -0.04497 0.80049
# Poissons Ratio (z) = 0.57423 0.28799
#
# Static dielectric constant tensor:
#      x y z
#    x 2.148880 0.000000 0.023880 
#    y 0.000000 2.112400 0.000000 
#    z 0.023880 0.000000 1.929780 
# 
# From -- ./inp_files/73006.got.cif
#   From: 2010.05.17/outbox.cif.g08.bks.cpg/sg15_37_cif.got.tgz:73006.got - 2010.06.03 18:47:42.
