data_PCOD9282348
_publ_section_title
;
Structure prediction by ZEFSAII (Michael W. Deem and Ramdas Pophale) SiO2 
 PCOD9282348
Probable space group: C 2/C
;
_chemical_formula_sum "Si O2"
_cell_formula_units_Z 64
_cell_length_a 15.199755
_cell_length_b 27.337193
_cell_length_c 19.781667
_cell_angle_alpha 90.000000
_cell_angle_beta 155.906813
_cell_angle_gamma 90.000000
_cell_volume 3355.441774
_symmetry_space_group_name_H-M "C 2/C"
_symmetry_group_IT_number 15
_symmetry_cell_setting 'monoclinic'
loop_
_space_group_symop_operation_xyz
x,y,z
-x,y,1/2-z
-x,-y,-z
x,-y,1/2+z
1/2+x,1/2+y,z
1/2-x,1/2+y,1/2-z
1/2-x,1/2-y,-z
1/2+x,1/2-y,1/2+z
loop_
_atom_site_type_symbol
_atom_site_label
_atom_site_fract_x
_atom_site_fract_y
_atom_site_fract_z
Si Si1 0.608616 0.972296 0.757186
Si Si2 0.272386 0.074202 0.589319
Si Si3 0.825027 0.609872 0.837618
Si Si4 0.599306 0.302875 0.247011
Si Si5 0.732836 0.472675 0.381393
Si Si6 0.275153 0.194374 0.127771
Si Si7 0.547286 0.391987 0.536485
Si Si8 0.771558 0.079448 0.095874
O O1 0.500000 0.952589 0.750000
O O2 0.429767 0.969674 0.572908
O O3 0.692680 0.026363 0.838553
O O4 0.808238 0.939324 0.875854
O O5 0.500000 0.102682 0.750000
O O6 0.068463 0.103562 0.472705
O O7 0.253438 0.059665 0.498265
O O8 0.773969 0.657496 0.846443
O O9 0.784815 0.562113 0.855299
O O10 0.649922 0.609319 0.654956
O O11 0.064158 0.608296 0.974894
O O12 0.500000 0.316421 0.250000
O O13 0.690848 0.248224 0.317984
O O14 0.406197 0.303077 0.057432
O O15 0.500000 0.458573 0.250000
O O16 0.712682 0.530041 0.348472
O O17 0.500000 0.179874 0.250000
O O18 0.195517 0.154907 0.126254
O O19 0.000000 0.106437 0.250000
#
# Coordination Sequence:
#
# PCOD9282348 Si02
#       8
#     8   8   8   8   8   8   8   8
#     4  11  21  36  56  83 114 155 194 234 280 335
#     4  11  21  41  57  79 117 158 196 235 275 326
#     4  11  23  38  58  87 115 150 193 238 288 341
#     4  10  21  39  63  86 117 146 179 232 291 345
#     4  11  22  36  55  81 120 154 189 237 284 332
#     4  10  21  39  61  90 116 145 181 230 290 348
#     4  11  23  36  62  86 112 151 198 236 282 343
#     4  11  24  40  56  81 118 158 197 233 280 334
#
# _framework density 19.073494
#
# number of rings (size 3 to 8) (size 9 to 14) (size 15 to 20)
#    0.000    1.250    3.750    3.750    3.500    4.000 
#    0.000    0.000    0.000    1.500    0.000    0.000 
#    0.000    0.000    0.000    0.000    0.000    0.000 
#
# Total GULP energy -178684.371685 kJ/mol
# GULP energy per Si atom -5583.886615 kJ/mol
# Density = 1.903008 g / cm^3
# Si number density = 19.073494 Si / 1000 Ang^3
#
#
#
# Elastic Constant Matrix: (Units=GPa)
#
#
# Indices 1 2 3 4 5 6 
#
# 1 91.2477 58.6476 31.3085 0.0005 38.4032 0.0013
# 2 58.6476 83.5003 38.0892 -0.0004 26.9291 -0.0003
# 3 31.3085 38.0892 95.8985 -0.0077 38.4505 0.0002
# 4 0.0005 -0.0004 -0.0077 21.4012 0.0007 4.4231
# 5 38.4032 26.9291 38.4505 0.0007 41.8461 0.0022
# 6 0.0013 -0.0003 0.0002 4.4231 0.0022 21.0989
#
#
#
# Elastic Compliance Matrix: (Units=1/GPa)
#
#
# Indices 1 2 3 4 5 6 
#
# 1 0.027339 -0.015051 0.005112 0.000002 -0.020101 0.000000
# 2 -0.015051 0.024101 -0.006299 -0.000002 0.004091 0.000001
# 3 0.005112 -0.006299 0.018234 0.000007 -0.017392 0.000000
# 4 0.000002 -0.000002 0.000007 0.048843 -0.000007 -0.010239
# 5 -0.020101 0.004091 -0.017392 -0.000007 0.055693 -0.000003
# 6 0.000000 0.000001 0.000000 -0.010239 -0.000003 0.049542
#
#
# Mechanical properties :
#
#
# Convention : Reuss Voigt Hill
#
# Bulk Modulus (GPa) = 26.88307 58.52633 42.70470
# Shear Modulus (GPa) = 18.61317 26.37598 22.49458
#
# Velocity S-wave (km/s) = 3.12727 3.72272 3.43791
# Velocity P-wave (km/s) = 5.21199 7.01637 6.18038
#
# Compressibility (1/GPa) = 0.03719813
#
# Stress axis : x y z
#
# Youngs Moduli (GPa) = 36.57825 41.49150 54.84249
#
# Poissons Ratio (x) = 0.62449 -0.28035
# Poissons Ratio (y) = 0.55054 0.34545
# Poissons Ratio (z) = -0.18699 0.26135
#
# Static dielectric constant tensor:
#      x y z
#    x 1.678600 0.000000 -0.011930 
#    y 0.000000 1.654120 0.000000 
#    z -0.011930 0.000000 1.723240 
# 
# From -- ./inp_files/278341.got.cif
#   From: 2010.05.17/outbox.cif.g08.bks.cpg/sg15_140_cif.got.tgz:278341.got - 2010.06.03 18:47:42.
