data_PCOD9282099
_publ_section_title
;
Structure prediction by ZEFSAII (Michael W. Deem and Ramdas Pophale) SiO2 
 PCOD9282099
Probable space group: C 2/C
;
_chemical_formula_sum "Si O2"
_cell_formula_units_Z 56
_cell_length_a 8.608696
_cell_length_b 25.822173
_cell_length_c 19.057841
_cell_angle_alpha 90.000000
_cell_angle_beta 148.678914
_cell_angle_gamma 90.000000
_cell_volume 2202.257766
_symmetry_space_group_name_H-M "C 2/C"
_symmetry_group_IT_number 15
_symmetry_cell_setting 'monoclinic'
loop_
_space_group_symop_operation_xyz
x,y,z
-x,y,1/2-z
-x,-y,-z
x,-y,1/2+z
1/2+x,1/2+y,z
1/2-x,1/2+y,1/2-z
1/2-x,1/2-y,-z
1/2+x,1/2-y,1/2+z
loop_
_atom_site_type_symbol
_atom_site_label
_atom_site_fract_x
_atom_site_fract_y
_atom_site_fract_z
Si Si1 0.342816 0.152232 0.891621
Si Si2 0.755119 0.389301 0.787883
Si Si3 0.316502 0.306418 0.834746
Si Si4 0.646828 0.046646 0.516108
Si Si5 0.204444 0.655049 0.891753
Si Si6 0.478131 0.212551 0.411216
Si Si7 0.846343 0.958040 0.390949
O O1 0.483842 0.144358 0.870711
O O2 0.000000 0.169079 0.750000
O O3 0.520592 0.195112 0.006622
O O4 0.356839 0.097089 0.936036
O O5 0.500000 0.384579 0.750000
O O6 0.924059 0.442023 0.864405
O O7 0.707612 0.276376 0.750126
O O8 0.566457 0.302296 0.990433
O O9 0.000000 0.298804 0.750000
O O10 0.979870 0.346398 0.601914
O O11 0.375355 0.367014 0.833824
O O12 0.974586 0.038861 0.612817
O O13 0.500000 0.000000 0.500000
O O14 0.351559 0.601453 0.921030
O O15 0.000000 0.675412 0.750000
O O16 0.750000 0.250000 0.500000
O O17 0.500000 0.970524 0.250000
O O18 0.000000 0.000000 0.500000
#
# Coordination Sequence:
#
# PCOD9282099 Si02
#       7
#     8   8   8   8   8   8   8
#     4  11  23  42  73 102 146 204 244 315 399 463
#     4   9  20  39  70 103 144 193 253 313 395 462
#     4  10  21  38  72 100 137 191 246 302 386 460
#     4  11  23  40  67 108 152 205 266 322 387 482
#     4  11  24  42  71 105 150 197 260 312 395 477
#     4   9  22  42  72 104 146 180 254 314 388 467
#     4  11  25  43  62 100 158 208 262 327 389 464
#
# _framework density 25.428447999999999
#
# number of rings (size 3 to 8) (size 9 to 14) (size 15 to 20)
#    0.857    0.857    0.000    5.143    2.000    4.000 
#    0.000    0.000    3.143    3.429    0.000    0.000 
#    0.000    0.000    0.000    0.000    0.000    0.000 
#
# Total GULP energy -156229.540917 kJ/mol
# GULP energy per Si atom -5579.626461 kJ/mol
# Density = 2.537057 g / cm^3
# Si number density = 25.428448 Si / 1000 Ang^3
#
#
#
# Elastic Constant Matrix: (Units=GPa)
#
#
# Indices 1 2 3 4 5 6 
#
# 1 157.8251 53.3272 51.6408 -0.0002 13.6647 0.0002
# 2 53.3272 116.9827 62.5218 0.0002 3.1517 -0.0002
# 3 51.6408 62.5218 182.3014 0.0008 -1.6641 0.0060
# 4 -0.0002 0.0002 0.0008 11.2147 -0.0001 18.5363
# 5 13.6647 3.1517 -1.6641 -0.0001 49.3584 0.0001
# 6 0.0002 -0.0002 0.0060 18.5363 0.0001 24.9906
#
#
#
# Elastic Compliance Matrix: (Units=1/GPa)
#
#
# Indices 1 2 3 4 5 6 
#
# 1 0.007898 -0.002865 -0.001274 0.000001 -0.002047 0.000000
# 2 -0.002865 0.011537 -0.003146 0.000006 -0.000050 -0.000004
# 3 -0.001274 -0.003146 0.006932 -0.000010 0.000787 0.000006
# 4 0.000001 0.000006 -0.000010 -0.394597 -0.000002 0.292685
# 5 -0.002047 -0.000050 0.000787 -0.000002 0.020856 0.000002
# 6 0.000000 -0.000004 0.000006 0.292685 0.000002 -0.177079
#
#
# Mechanical properties :
#
#
# Convention : Reuss Voigt Hill
#
# Bulk Modulus (GPa) = 84.75014 88.00988 86.38001
# Shear Modulus (GPa) = -9.88235 36.42069 13.26917
#
# Velocity S-wave (km/s) = -1.97352 3.78865 2.28682
# Velocity P-wave (km/s) = 5.31114 7.33652 6.40440
#
# Compressibility (1/GPa) = 0.01179939
#
# Stress axis : x y z
#
# Youngs Moduli (GPa) = 126.61578 86.68071 144.25509
#
# Poissons Ratio (x) = 0.24830 0.18371
# Poissons Ratio (y) = 0.36270 0.45377
# Poissons Ratio (z) = 0.16125 0.27266
#
# Static dielectric constant tensor:
#      x y z
#    x 2.097730 0.000000 -0.137780 
#    y 0.000000 2.077830 0.000000 
#    z -0.137780 0.000000 2.275580 
# 
# From -- ./inp_files/234945.got.cif
#   From: 2010.05.17/outbox.cif.g08.bks.cpg/sg15_118_cif.got.tgz:234945.got - 2010.06.03 18:47:42.
