data_PCOD9282414
_publ_section_title
;
Structure prediction by ZEFSAII (Michael W. Deem and Ramdas Pophale) SiO2 
 PCOD9282414
Probable space group: C 2/C
;
_chemical_formula_sum "Si O2"
_cell_formula_units_Z 32
_cell_length_a 20.181236
_cell_length_b 4.922765
_cell_length_c 16.502520
_cell_angle_alpha 90.000000
_cell_angle_beta 111.140063
_cell_angle_gamma 90.000000
_cell_volume 1529.149152
_symmetry_space_group_name_H-M "C 2/C"
_symmetry_group_IT_number 15
_symmetry_cell_setting 'monoclinic'
loop_
_space_group_symop_operation_xyz
x,y,z
-x,y,1/2-z
-x,-y,-z
x,-y,1/2+z
1/2+x,1/2+y,z
1/2-x,1/2+y,1/2-z
1/2-x,1/2-y,-z
1/2+x,1/2-y,1/2+z
loop_
_atom_site_type_symbol
_atom_site_label
_atom_site_fract_x
_atom_site_fract_y
_atom_site_fract_z
Si Si1 0.790728 0.865583 0.738055
Si Si2 0.794594 0.996633 0.553945
Si Si3 0.079908 0.254468 0.097541
Si Si4 0.420112 0.756502 0.013323
O O1 0.762216 0.108259 0.782697
O O2 0.864925 0.753997 0.805219
O O3 0.795884 0.991116 0.651359
O O4 0.750000 0.750000 0.500000
O O5 0.607113 0.035606 0.540064
O O6 0.872501 0.912097 0.555284
O O7 0.750000 0.250000 0.500000
O O8 0.074545 0.952892 0.058874
O O9 0.998412 0.328048 0.081520
#
# Coordination Sequence:
#
# PCOD9282414 Si02
#       4
#     8   8   8   8
#     4  12  24  39  61  89 122 160 206 258 312 375
#     4  12  24  39  61  89 122 160 205 256 310 371
#     4  10  21  39  62  87 119 158 200 250 311 373
#     4  10  21  39  62  87 119 158 200 250 310 375
#
# _framework density 20.926669
#
# number of rings (size 3 to 8) (size 9 to 14) (size 15 to 20)
#    0.000    1.000    0.000    9.000    0.000    1.000 
#    0.000    0.000    0.000   15.000    0.000    0.000 
#    0.000    0.000    0.000    0.000    0.000    0.000 
#
# Total GULP energy -89309.771229 kJ/mol
# GULP energy per Si atom -5581.860702 kJ/mol
# Density = 2.087904 g / cm^3
# Si number density = 20.926669 Si / 1000 Ang^3
#
#
#
# Elastic Constant Matrix: (Units=GPa)
#
#
# Indices 1 2 3 4 5 6 
#
# 1 105.1073 20.3637 56.0493 0.0001 6.0070 -0.0001
# 2 20.3637 136.5883 32.2758 0.0004 3.8858 -0.0002
# 3 56.0493 32.2758 148.8758 0.0001 15.0426 -0.0001
# 4 0.0001 0.0004 0.0001 34.6315 -0.0001 4.7736
# 5 6.0070 3.8858 15.0426 -0.0001 27.2034 0.0000
# 6 -0.0001 -0.0002 -0.0001 4.7736 0.0000 23.4697
#
#
#
# Elastic Compliance Matrix: (Units=1/GPa)
#
#
# Indices 1 2 3 4 5 6 
#
# 1 0.011979 -0.000758 -0.004331 0.000000 -0.000142 0.000000
# 2 -0.000758 0.007766 -0.001380 0.000000 -0.000179 0.000000
# 3 -0.004331 -0.001380 0.009035 0.000000 -0.003843 0.000000
# 4 0.000000 0.000000 0.000000 0.029708 0.000000 -0.006043
# 5 -0.000142 -0.000179 -0.003843 0.000000 0.038942 0.000000
# 6 0.000000 0.000000 0.000000 -0.006043 0.000000 0.043837
#
#
# Mechanical properties :
#
#
# Convention : Reuss Voigt Hill
#
# Bulk Modulus (GPa) = 63.12971 67.54990 65.33981
# Shear Modulus (GPa) = 31.35081 35.85309 33.60195
#
# Velocity S-wave (km/s) = 3.87476 4.14366 4.01147
# Velocity P-wave (km/s) = 7.08879 7.43254 7.26270
#
# Compressibility (1/GPa) = 0.01584040
#
# Stress axis : x y z
#
# Youngs Moduli (GPa) = 83.48162 128.77460 110.68072
#
# Poissons Ratio (x) = 0.09767 0.47936
# Poissons Ratio (y) = 0.06331 0.15273
# Poissons Ratio (z) = 0.36156 0.17770
#
# Static dielectric constant tensor:
#      x y z
#    x 2.015280 0.000000 -0.024730 
#    y 0.000000 1.833810 0.000000 
#    z -0.024730 0.000000 1.711980 
# 
# From -- ./inp_files/207899.got.cif
#   From: 2010.05.17/outbox.cif.g08.bks.cpg/sg15_104_cif.got.tgz:207899.got - 2010.06.03 18:47:42.
