data_PCOD9282584
_publ_section_title
;
Structure prediction by ZEFSAII (Michael W. Deem and Ramdas Pophale) SiO2 
 PCOD9282584
Probable space group: C 2/C
;
_chemical_formula_sum "Si O2"
_cell_formula_units_Z 56
_cell_length_a 6.716254
_cell_length_b 24.866757
_cell_length_c 16.983447
_cell_angle_alpha 90.000000
_cell_angle_beta 69.149716
_cell_angle_gamma 90.000000
_cell_volume 2650.682801
_symmetry_space_group_name_H-M "C 2/C"
_symmetry_group_IT_number 15
_symmetry_cell_setting 'monoclinic'
loop_
_space_group_symop_operation_xyz
x,y,z
-x,y,1/2-z
-x,-y,-z
x,-y,1/2+z
1/2+x,1/2+y,z
1/2-x,1/2+y,1/2-z
1/2-x,1/2-y,-z
1/2+x,1/2-y,1/2+z
loop_
_atom_site_type_symbol
_atom_site_label
_atom_site_fract_x
_atom_site_fract_y
_atom_site_fract_z
Si Si1 0.418293 0.212886 0.429189
Si Si2 0.913239 0.155545 0.125002
Si Si3 0.635935 0.244612 0.662199
Si Si4 0.981996 0.443414 0.343422
Si Si5 0.766806 0.476374 0.052969
Si Si6 0.337046 0.844185 0.470444
Si Si7 0.158181 0.956186 0.901606
O O1 0.250000 0.250000 0.500000
O O2 0.292485 0.185008 0.377744
O O3 0.612744 0.246730 0.365148
O O4 0.520484 0.167661 0.472485
O O5 0.841091 0.095319 0.155086
O O6 0.028969 0.197116 0.165736
O O7 0.093479 0.150941 0.031742
O O8 0.500000 0.217464 0.750000
O O9 0.619451 0.209049 0.586511
O O10 0.887812 0.395860 0.410729
O O11 0.827575 0.496034 0.362560
O O12 0.000000 0.426616 0.250000
O O13 0.198796 0.456241 0.362432
O O14 0.577956 0.519457 0.074063
O O15 0.706752 0.439167 0.986065
O O16 0.000000 0.500000 0.000000
#
# Coordination Sequence:
#
# PCOD9282584 Si02
#       7
#     8   8   8   8   8   8   8
#     4  11  20  41  67  94 119 164 220 262 312 392
#     4  11  21  40  65  93 119 164 217 265 312 381
#     4  11  24  40  59  94 133 162 203 266 333 380
#     4  11  24  40  60  94 133 171 209 266 336 386
#     4   9  18  37  61  86 115 155 211 256 305 378
#     4  11  21  39  66  89 127 165 213 268 315 385
#     4  10  21  39  63  90 121 162 218 262 310 383
#
# _framework density 21.126633999999999
#
# number of rings (size 3 to 8) (size 9 to 14) (size 15 to 20)
#    0.000    1.429    2.857    4.714    0.000    4.571 
#    5.143    0.000    0.000    0.000    0.000    0.000 
#    0.000    0.000    0.000    0.000    0.000    0.000 
#
# Total GULP energy -156092.704658 kJ/mol
# GULP energy per Si atom -5574.739452 kJ/mol
# Density = 2.107855 g / cm^3
# Si number density = 21.126634 Si / 1000 Ang^3
#
#
#
# Elastic Constant Matrix: (Units=GPa)
#
#
# Indices 1 2 3 4 5 6 
#
# 1 122.3872 10.8371 26.8511 0.0000 -7.6429 0.0000
# 2 10.8371 77.4499 1.8460 0.0000 -7.9543 0.0000
# 3 26.8511 1.8460 72.1333 0.0000 3.5025 0.0000
# 4 0.0000 0.0000 0.0000 12.8484 0.0000 -0.7399
# 5 -7.6429 -7.9543 3.5025 0.0000 16.4168 0.0000
# 6 0.0000 0.0000 0.0000 -0.7399 0.0000 35.7077
#
#
#
# Elastic Compliance Matrix: (Units=1/GPa)
#
#
# Indices 1 2 3 4 5 6 
#
# 1 0.009344 -0.000728 -0.003692 0.000000 0.004785 0.000000
# 2 -0.000728 0.013677 -0.000388 0.000000 0.006371 0.000000
# 3 -0.003692 -0.000388 0.015501 0.000000 -0.005214 0.000000
# 4 0.000000 0.000000 0.000000 0.077924 0.000000 0.001615
# 5 0.004785 0.006371 -0.005214 0.000000 0.067340 0.000000
# 6 0.000000 0.000000 0.000000 0.001615 0.000000 0.028039
#
#
# Mechanical properties :
#
#
# Convention : Reuss Voigt Hill
#
# Bulk Modulus (GPa) = 34.59609 39.00432 36.80021
# Shear Modulus (GPa) = 21.63791 28.49032 25.06412
#
# Velocity S-wave (km/s) = 3.20379 3.67624 3.44812
# Velocity P-wave (km/s) = 5.48605 6.04334 5.77143
#
# Compressibility (1/GPa) = 0.02890500
#
# Stress axis : x y z
#
# Youngs Moduli (GPa) = 107.01958 73.11558 64.51338
#
# Poissons Ratio (x) = 0.05323 0.23818
# Poissons Ratio (y) = 0.07791 0.02505
# Poissons Ratio (z) = 0.39512 0.02840
#
# Static dielectric constant tensor:
#      x y z
#    x 1.745620 0.000000 0.036150 
#    y 0.000000 1.762540 0.000000 
#    z 0.036150 0.000000 1.792500 
# 
# From -- ./inp_files/186114.got.cif
#   From: 2010.05.17/outbox.cif.g08.bks.cpg/sg15_94_cif.got.tgz:186114.got - 2010.06.03 18:47:42.
