data_PCOD9282946
_publ_section_title
;
Structure prediction by ZEFSAII (Michael W. Deem and Ramdas Pophale) SiO2 
 PCOD9282946
Probable space group: C 2/C
;
_chemical_formula_sum "Si O2"
_cell_formula_units_Z 60
_cell_length_a 28.392385
_cell_length_b 17.929351
_cell_length_c 5.497072
_cell_angle_alpha 90.000000
_cell_angle_beta 70.629100
_cell_angle_gamma 90.000000
_cell_volume 2639.913570
_symmetry_space_group_name_H-M "C 2/C"
_symmetry_group_IT_number 15
_symmetry_cell_setting 'monoclinic'
loop_
_space_group_symop_operation_xyz
x,y,z
-x,y,1/2-z
-x,-y,-z
x,-y,1/2+z
1/2+x,1/2+y,z
1/2-x,1/2+y,1/2-z
1/2-x,1/2-y,-z
1/2+x,1/2-y,1/2+z
loop_
_atom_site_type_symbol
_atom_site_label
_atom_site_fract_x
_atom_site_fract_y
_atom_site_fract_z
Si Si1 0.058619 0.788832 0.605975
Si Si2 0.947927 0.347322 0.689885
Si Si3 0.306588 0.520069 0.122416
Si Si4 0.000000 0.550709 0.750000
Si Si5 0.417440 0.538354 0.459854
Si Si6 0.872614 0.305170 0.160554
Si Si7 0.692647 0.684217 0.515012
Si Si8 0.290364 0.218661 0.117815
O O1 0.066097 0.736868 0.358756
O O2 0.072232 0.874345 0.549080
O O3 0.087635 0.748052 0.773555
O O4 0.000000 0.784689 0.750000
O O5 0.000000 0.350296 0.750000
O O6 0.956645 0.392609 0.422409
O O7 0.902381 0.365795 0.949790
O O8 0.279492 0.493260 0.924189
O O9 0.357607 0.473095 0.053939
O O10 0.323613 0.605214 0.058114
O O11 0.000000 0.500000 0.500000
O O12 0.436179 0.497789 0.673933
O O13 0.833418 0.332250 0.433546
O O14 0.836179 0.250606 0.070819
O O15 0.684747 0.707637 0.806982
O O16 0.753102 0.681357 0.375470
O O17 0.250000 0.250000 0.000000
#
# Coordination Sequence:
#
# PCOD9282946 Si02
#       8
#     8   8   8   4   8   8   8   8
#     4  12  25  40  65  97 149 197 262 310 354 429
#     4  12  24  44  69 112 141 193 243 305 383 443
#     4  10  22  36  59  92 131 185 244 285 356 417
#     4  12  26  50  80 106 142 178 234 302 382 492
#     4  10  24  40  57  89 135 199 259 303 356 401
#     4  11  22  38  67  99 144 183 241 310 374 438
#     4  10  21  39  65  98 137 183 248 315 366 446
#     4   9  21  38  65 100 125 175 231 313 383 438
#
# _framework density 22.728017000000001
#
# number of rings (size 3 to 8) (size 9 to 14) (size 15 to 20)
#    0.000    1.333    2.667    2.400   13.067    0.533 
#    0.000    0.000    0.000    1.600    0.000    0.000 
#    0.000    0.000    0.000    0.000    0.000    0.000 
#
# Total GULP energy -167232.457595 kJ/mol
# GULP energy per Si atom -5574.415253 kJ/mol
# Density = 2.267629 g / cm^3
# Si number density = 22.728017 Si / 1000 Ang^3
#
#
#
# Elastic Constant Matrix: (Units=GPa)
#
#
# Indices 1 2 3 4 5 6 
#
# 1 85.0448 15.2948 39.5686 0.0000 -10.8281 0.0000
# 2 15.2948 53.8243 30.9072 0.0000 7.1037 0.0000
# 3 39.5686 30.9072 161.6723 0.0000 -3.0917 0.0000
# 4 0.0000 0.0000 0.0000 26.0275 0.0000 8.2948
# 5 -10.8281 7.1037 -3.0917 0.0000 56.8939 0.0000
# 6 0.0000 0.0000 0.0000 8.2948 0.0000 8.8087
#
#
#
# Elastic Compliance Matrix: (Units=1/GPa)
#
#
# Indices 1 2 3 4 5 6 
#
# 1 0.013925 -0.002702 -0.002838 0.000000 0.002833 0.000000
# 2 -0.002702 0.021858 -0.003583 0.000000 -0.003438 0.000000
# 3 -0.002838 -0.003583 0.007571 0.000000 0.000319 0.000000
# 4 0.000000 0.000000 0.000000 0.054895 0.000000 -0.051692
# 5 0.002833 -0.003438 0.000319 0.000000 0.018562 0.000000
# 6 0.000000 0.000000 0.000000 -0.051692 0.000000 0.162199
#
#
# Mechanical properties :
#
#
# Convention : Reuss Voigt Hill
#
# Bulk Modulus (GPa) = 39.82539 52.45362 46.13951
# Shear Modulus (GPa) = 16.35993 32.66409 24.51201
#
# Velocity S-wave (km/s) = 2.68584 3.79512 3.28760
# Velocity P-wave (km/s) = 5.21335 6.50637 5.89541
#
# Compressibility (1/GPa) = 0.02510961
#
# Stress axis : x y z
#
# Youngs Moduli (GPa) = 71.81151 45.74988 132.08444
#
# Poissons Ratio (x) = 0.12360 0.37479
# Poissons Ratio (y) = 0.19401 0.47328
# Poissons Ratio (z) = 0.20377 0.16393
#
# Static dielectric constant tensor:
#      x y z
#    x 1.865260 0.000000 0.003060 
#    y 0.000000 1.888010 0.000000 
#    z 0.003060 0.000000 2.127500 
# 
# From -- ./inp_files/18441.got.cif
#   From: 2010.05.17/outbox.cif.g08.bks.cpg/sg15_10_cif.got.tgz:18441.got - 2010.06.03 18:47:42.
