data_PCOD9282849
_publ_section_title
;
Structure prediction by ZEFSAII (Michael W. Deem and Ramdas Pophale) SiO2 
 PCOD9282849
Probable space group: C 2/C
;
_chemical_formula_sum "Si O2"
_cell_formula_units_Z 48
_cell_length_a 13.032692
_cell_length_b 11.902843
_cell_length_c 21.475385
_cell_angle_alpha 90.000000
_cell_angle_beta 43.823966
_cell_angle_gamma 90.000000
_cell_volume 2306.806086
_symmetry_space_group_name_H-M "C 2/C"
_symmetry_group_IT_number 15
_symmetry_cell_setting 'monoclinic'
loop_
_space_group_symop_operation_xyz
x,y,z
-x,y,1/2-z
-x,-y,-z
x,-y,1/2+z
1/2+x,1/2+y,z
1/2-x,1/2+y,1/2-z
1/2-x,1/2-y,-z
1/2+x,1/2-y,1/2+z
loop_
_atom_site_type_symbol
_atom_site_label
_atom_site_fract_x
_atom_site_fract_y
_atom_site_fract_z
Si Si1 0.197216 0.367522 0.050407
Si Si2 0.944687 0.593612 0.074109
Si Si3 0.883833 0.912775 0.461440
Si Si4 0.353515 0.113328 0.669181
Si Si5 0.695739 0.668521 0.864546
Si Si6 0.261259 0.793595 0.076358
O O1 0.204651 0.370854 0.121956
O O2 0.030535 0.377842 0.099276
O O3 0.250000 0.250000 0.000000
O O4 0.310929 0.466605 0.982036
O O5 0.841834 0.521688 0.165233
O O6 0.855181 0.704935 0.095108
O O7 0.000000 0.500000 0.000000
O O8 0.102592 0.647901 0.022054
O O9 0.879519 0.847053 0.396604
O O10 0.785204 0.837336 0.552327
O O11 0.047654 0.906329 0.418884
O O12 0.279102 0.162672 0.762775
O O13 0.288694 0.173096 0.635676
#
# Coordination Sequence:
#
# PCOD9282849 Si02
#       6
#     8   8   8   8   8   8
#     4  12  24  40  65  90 126 172 211 255 319 399
#     4   9  18  39  66  84 116 173 215 248 306 404
#     4  10  21  39  65  91 120 162 221 260 297 389
#     4  11  23  40  63  90 130 164 205 268 327 374
#     4  11  25  39  60 101 128 158 215 276 330 362
#     4   9  19  39  68  90 113 166 226 251 306 380
#
# _framework density 20.807991000000001
#
# number of rings (size 3 to 8) (size 9 to 14) (size 15 to 20)
#    0.000    1.667    1.667    4.000    2.333    3.333 
#    0.000    0.000    0.000    0.000    0.000    0.000 
#    0.000    0.000    0.000    0.000    0.000    0.000 
#
# Total GULP energy -133677.647655 kJ/mol
# GULP energy per Si atom -5569.901986 kJ/mol
# Density = 2.076063 g / cm^3
# Si number density = 20.807991 Si / 1000 Ang^3
#
#
#
# Elastic Constant Matrix: (Units=GPa)
#
#
# Indices 1 2 3 4 5 6 
#
# 1 124.2283 15.9844 31.2029 0.0000 31.8006 0.0000
# 2 15.9844 116.9061 23.9660 0.0000 -1.5643 0.0000
# 3 31.2029 23.9660 65.8035 0.0000 23.7598 0.0000
# 4 0.0000 0.0000 0.0000 19.1490 0.0000 2.9976
# 5 31.8006 -1.5643 23.7598 0.0000 29.8091 0.0000
# 6 0.0000 0.0000 0.0000 2.9976 0.0000 26.1349
#
#
#
# Elastic Compliance Matrix: (Units=1/GPa)
#
#
# Indices 1 2 3 4 5 6 
#
# 1 0.011424 -0.001605 -0.000564 0.000000 -0.011822 0.000000
# 2 -0.001605 0.009910 -0.005131 0.000000 0.006321 0.000000
# 3 -0.000564 -0.005131 0.024168 0.000000 -0.018931 0.000000
# 4 0.000000 0.000000 0.000000 0.053177 0.000000 -0.006099
# 5 -0.011822 0.006321 -0.018931 0.000000 0.061579 0.000000
# 6 0.000000 0.000000 0.000000 -0.006099 0.000000 0.038963
#
#
# Mechanical properties :
#
#
# Convention : Reuss Voigt Hill
#
# Bulk Modulus (GPa) = 32.35906 49.91605 41.13756
# Shear Modulus (GPa) = 22.30937 30.73758 26.52348
#
# Velocity S-wave (km/s) = 3.27793 3.84761 3.57414
# Velocity P-wave (km/s) = 5.46914 6.61663 6.07006
#
# Compressibility (1/GPa) = 0.03090324
#
# Stress axis : x y z
#
# Youngs Moduli (GPa) = 87.53458 100.91164 41.37618
#
# Poissons Ratio (x) = 0.16191 0.02334
# Poissons Ratio (y) = 0.14045 0.21229
# Poissons Ratio (z) = 0.04939 0.51775
#
# Static dielectric constant tensor:
#      x y z
#    x 1.831600 0.000000 0.033260 
#    y 0.000000 1.820090 0.000000 
#    z 0.033260 0.000000 1.781040 
# 
# From -- ./inp_files/237425.got.cif
#   From: 2010.05.17/outbox.cif.g08.bks.cpg/sg15_119_cif.got.tgz:237425.got - 2010.06.03 18:47:42.
