data_PCOD9282214
_publ_section_title
;
Structure prediction by ZEFSAII (Michael W. Deem and Ramdas Pophale) SiO2 
 PCOD9282214
Probable space group: C 2/C
;
_chemical_formula_sum "Si O2"
_cell_formula_units_Z 56
_cell_length_a 9.106987
_cell_length_b 12.377027
_cell_length_c 28.994059
_cell_angle_alpha 90.000000
_cell_angle_beta 118.683209
_cell_angle_gamma 90.000000
_cell_volume 2867.092453
_symmetry_space_group_name_H-M "C 2/C"
_symmetry_group_IT_number 15
_symmetry_cell_setting 'monoclinic'
loop_
_space_group_symop_operation_xyz
x,y,z
-x,y,1/2-z
-x,-y,-z
x,-y,1/2+z
1/2+x,1/2+y,z
1/2-x,1/2+y,1/2-z
1/2-x,1/2-y,-z
1/2+x,1/2-y,1/2+z
loop_
_atom_site_type_symbol
_atom_site_label
_atom_site_fract_x
_atom_site_fract_y
_atom_site_fract_z
Si Si1 0.352647 0.488639 0.814584
Si Si2 0.103653 0.660978 0.578354
Si Si3 0.145438 0.731589 0.685959
Si Si4 0.428726 0.394899 0.080097
Si Si5 0.000000 0.886154 0.250000
Si Si6 0.205160 0.567217 0.998870
Si Si7 0.500000 0.105637 0.750000
Si Si8 0.403026 0.733526 0.970153
O O1 0.355634 0.360239 0.811876
O O2 0.436212 0.530412 0.874506
O O3 0.455921 0.540066 0.787529
O O4 0.163969 0.533432 0.783301
O O5 0.073429 0.694573 0.625816
O O6 0.297664 0.643800 0.598571
O O7 0.988264 0.557764 0.546395
O O8 0.040311 0.748519 0.531331
O O9 0.335074 0.686372 0.717569
O O10 0.041234 0.679289 0.711927
O O11 0.312109 0.463883 0.027590
O O12 0.514318 0.297661 0.065257
O O13 0.198856 0.654145 0.040330
O O14 0.291072 0.634404 0.970641
#
# Coordination Sequence:
#
# PCOD9282214 Si02
#       8
#     8   8   8   8   4   8   4   8
#     4  11  24  39  69  92 116 166 208 253 324 374
#     4  10  21  39  59  90 128 167 195 258 304 361
#     4  11  22  44  66  89 128 156 208 266 316 362
#     4  12  21  37  61  92 122 166 209 243 305 376
#     4  10  22  46  62  90 122 154 208 270 316 362
#     4   9  21  37  56  84 125 166 200 246 294 362
#     4  10  26  44  66  92 120 158 212 270 310 382
#     4   9  21  37  57  84 128 161 205 245 297 355
#
# _framework density 19.531981999999999
#
# number of rings (size 3 to 8) (size 9 to 14) (size 15 to 20)
#    0.857    0.857    1.429    3.000    2.000    0.000 
#    0.000    0.000    0.000    0.000    0.000    0.000 
#    0.000    0.000    0.000    0.000    0.000    0.000 
#
# Total GULP energy -156174.815346 kJ/mol
# GULP energy per Si atom -5577.671977 kJ/mol
# Density = 1.948753 g / cm^3
# Si number density = 19.531982 Si / 1000 Ang^3
#
#
#
# Elastic Constant Matrix: (Units=GPa)
#
#
# Indices 1 2 3 4 5 6 
#
# 1 89.4786 16.5418 24.2336 0.0000 2.7348 0.0000
# 2 16.5418 53.6018 27.8114 0.0000 -2.2607 0.0000
# 3 24.2336 27.8114 80.7182 0.0000 -6.4265 0.0000
# 4 0.0000 0.0000 0.0000 25.4889 0.0000 2.4076
# 5 2.7348 -2.2607 -6.4265 0.0000 17.6820 0.0000
# 6 0.0000 0.0000 0.0000 2.4076 0.0000 9.4660
#
#
#
# Elastic Compliance Matrix: (Units=1/GPa)
#
#
# Indices 1 2 3 4 5 6 
#
# 1 0.012593 -0.002347 -0.003245 0.000000 -0.003427 0.000000
# 2 -0.002347 0.023155 -0.007218 0.000000 0.000700 0.000000
# 3 -0.003245 -0.007218 0.016288 0.000000 0.005499 0.000000
# 4 0.000000 0.000000 0.000000 0.040198 0.000000 -0.010224
# 5 -0.003427 0.000700 0.005499 0.000000 0.059173 0.000000
# 6 0.000000 0.000000 0.000000 -0.010224 0.000000 0.108241
#
#
# Mechanical properties :
#
#
# Convention : Reuss Voigt Hill
#
# Bulk Modulus (GPa) = 37.85542 40.10801 38.98171
# Shear Modulus (GPa) = 17.00257 20.87484 18.93871
#
# Velocity S-wave (km/s) = 2.95362 3.27272 3.11726
# Velocity P-wave (km/s) = 5.57272 5.90424 5.74087
#
# Compressibility (1/GPa) = 0.02641630
#
# Stress axis : x y z
#
# Youngs Moduli (GPa) = 79.40679 43.18749 61.39641
#
# Poissons Ratio (x) = 0.10137 0.19923
# Poissons Ratio (y) = 0.18639 0.44313
# Poissons Ratio (z) = 0.25767 0.31171
#
# Static dielectric constant tensor:
#      x y z
#    x 1.708350 0.000000 0.013630 
#    y 0.000000 1.654530 0.000000 
#    z 0.013630 0.000000 1.678620 
# 
# From -- ./inp_files/307588.got.cif
#   From: 2010.05.17/outbox.cif.g08.bks.cpg/sg15_154_cif.got.tgz:307588.got - 2010.06.03 18:47:42.
