data_PCOD9282958
_publ_section_title
;
Structure prediction by ZEFSAII (Michael W. Deem and Ramdas Pophale) SiO2 
 PCOD9282958
Probable space group: C 2/C
;
_chemical_formula_sum "Si O2"
_cell_formula_units_Z 60
_cell_length_a 12.639625
_cell_length_b 24.603449
_cell_length_c 18.934434
_cell_angle_alpha 90.000000
_cell_angle_beta 153.624307
_cell_angle_gamma 90.000000
_cell_volume 2615.862880
_symmetry_space_group_name_H-M "C 2/C"
_symmetry_group_IT_number 15
_symmetry_cell_setting 'monoclinic'
loop_
_space_group_symop_operation_xyz
x,y,z
-x,y,1/2-z
-x,-y,-z
x,-y,1/2+z
1/2+x,1/2+y,z
1/2-x,1/2+y,1/2-z
1/2-x,1/2-y,-z
1/2+x,1/2-y,1/2+z
loop_
_atom_site_type_symbol
_atom_site_label
_atom_site_fract_x
_atom_site_fract_y
_atom_site_fract_z
Si Si1 0.414109 0.170385 0.391711
Si Si2 0.738126 0.217754 0.850066
Si Si3 0.194541 0.175699 0.990258
Si Si4 0.935559 0.935346 0.376975
Si Si5 0.000000 0.247885 0.750000
Si Si6 0.957987 0.362302 0.387163
Si Si7 0.732112 0.465556 0.070304
Si Si8 0.899159 0.855267 0.571485
O O1 0.331169 0.230608 0.363735
O O2 0.562223 0.167612 0.408665
O O3 0.583179 0.152396 0.556388
O O4 0.175628 0.134385 0.247985
O O5 0.500000 0.233310 0.750000
O O6 0.672247 0.172505 0.752026
O O7 0.887499 0.189440 0.002211
O O8 0.273331 0.212025 0.104562
O O9 0.084119 0.118346 0.945574
O O10 0.031291 0.210689 0.838438
O O11 0.664675 0.921780 0.191939
O O12 0.910867 0.946526 0.445492
O O13 0.080974 0.988469 0.439545
O O14 0.233184 0.342994 0.539412
O O15 0.000000 0.484334 0.250000
O O16 0.744889 0.409033 0.037182
#
# Coordination Sequence:
#
# PCOD9282958 Si02
#       8
#     8   8   8   8   4   8   8   8
#     4  12  26  37  68 103 152 193 227 286 354 430
#     4  10  21  39  66 101 141 192 246 288 337 410
#     4  11  27  43  68 104 144 192 240 279 354 423
#     4  11  25  44  75 101 138 172 240 304 351 418
#     4  10  26  46  64  96 150 200 228 278 334 432
#     4  11  22  43  67 100 145 185 231 297 354 414
#     4  11  23  46  77 106 125 178 240 309 358 407
#     4  11  22  42  69 106 140 180 249 297 353 420
#
# _framework density 22.936983000000001
#
# number of rings (size 3 to 8) (size 9 to 14) (size 15 to 20)
#    0.000    1.067    2.667    3.200   10.267    3.200 
#    0.000    0.667    5.867    0.000    0.000    0.000 
#    0.000    0.000    0.000    0.000    0.000    0.000 
#
# Total GULP energy -167433.201192 kJ/mol
# GULP energy per Si atom -5581.106706 kJ/mol
# Density = 2.288478 g / cm^3
# Si number density = 22.936983 Si / 1000 Ang^3
#
#
#
# Elastic Constant Matrix: (Units=GPa)
#
#
# Indices 1 2 3 4 5 6 
#
# 1 90.9794 25.5053 25.8499 0.0163 14.8725 -0.0086
# 2 25.5053 80.6326 16.1864 0.0053 4.6388 -0.0108
# 3 25.8499 16.1864 95.6221 -0.0231 0.1340 0.0130
# 4 0.0163 0.0053 -0.0231 29.0393 -0.0015 15.2089
# 5 14.8725 4.6388 0.1340 -0.0015 33.6216 0.0028
# 6 -0.0086 -0.0108 0.0130 15.2089 0.0028 12.3468
#
#
#
# Elastic Compliance Matrix: (Units=1/GPa)
#
#
# Indices 1 2 3 4 5 6 
#
# 1 0.013750 -0.003398 -0.003134 -0.000044 -0.005601 0.000066
# 2 -0.003398 0.013783 -0.001414 -0.000021 -0.000393 0.000038
# 3 -0.003134 -0.001414 0.011542 0.000055 0.001535 -0.000084
# 4 -0.000044 -0.000021 0.000055 0.097042 0.000037 -0.119538
# 5 -0.005601 -0.000393 0.001535 0.000037 0.032269 -0.000058
# 6 0.000066 0.000038 -0.000084 -0.119538 -0.000058 0.228241
#
#
# Mechanical properties :
#
#
# Convention : Reuss Voigt Hill
#
# Bulk Modulus (GPa) = 43.13413 44.70192 43.91802
# Shear Modulus (GPa) = 11.89775 28.31435 20.10605
#
# Velocity S-wave (km/s) = 2.28000 3.51727 2.96392
# Velocity P-wave (km/s) = 5.07716 6.00219 5.55895
#
# Compressibility (1/GPa) = 0.02318350
#
# Stress axis : x y z
#
# Youngs Moduli (GPa) = 72.72606 72.55190 86.63766
#
# Poissons Ratio (x) = 0.24653 0.27153
# Poissons Ratio (y) = 0.24712 0.12251
# Poissons Ratio (z) = 0.22793 0.10259
#
# Static dielectric constant tensor:
#      x y z
#    x 2.036060 0.000000 0.126150 
#    y 0.000000 1.907660 -0.000020 
#    z 0.126150 -0.000020 1.940230 
# 
# From -- ./inp_files/201264.got.cif
#   From: 2010.05.17/outbox.cif.g08.bks.cpg/sg15_101_cif.got.tgz:201264.got - 2010.06.03 18:47:42.
