data_PCOD9282038
_publ_section_title
;
Structure prediction by ZEFSAII (Michael W. Deem and Ramdas Pophale) SiO2 
 PCOD9282038
Probable space group: C 2/C
;
_chemical_formula_sum "Si O2"
_cell_formula_units_Z 48
_cell_length_a 12.671098
_cell_length_b 15.118085
_cell_length_c 12.158492
_cell_angle_alpha 90.000000
_cell_angle_beta 81.539413
_cell_angle_gamma 90.000000
_cell_volume 2303.766964
_symmetry_space_group_name_H-M "C 2/C"
_symmetry_group_IT_number 15
_symmetry_cell_setting 'monoclinic'
loop_
_space_group_symop_operation_xyz
x,y,z
-x,y,1/2-z
-x,-y,-z
x,-y,1/2+z
1/2+x,1/2+y,z
1/2-x,1/2+y,1/2-z
1/2-x,1/2-y,-z
1/2+x,1/2-y,1/2+z
loop_
_atom_site_type_symbol
_atom_site_label
_atom_site_fract_x
_atom_site_fract_y
_atom_site_fract_z
Si Si1 0.769467 0.335176 0.810563
Si Si2 0.895769 0.306612 0.111021
Si Si3 0.000000 0.748158 0.250000
Si Si4 0.500000 0.936150 0.250000
Si Si5 0.258777 0.123993 0.068260
Si Si6 0.862256 0.540711 0.448231
Si Si7 0.921625 0.211703 0.526252
O O1 0.712467 0.248069 0.864816
O O2 0.724148 0.360815 0.698950
O O3 0.766767 0.418926 0.890354
O O4 0.894743 0.311492 0.780437
O O5 0.912892 0.368820 0.213598
O O6 0.904406 0.375319 0.009205
O O7 0.986995 0.234018 0.075936
O O8 0.973952 0.799013 0.139420
O O9 0.447437 0.994860 0.353908
O O10 0.346326 0.200956 0.036286
O O11 0.159487 0.136588 0.001514
O O12 0.317700 0.032160 0.038157
#
# Coordination Sequence:
#
# PCOD9282038 Si02
#       7
#     8   8   4   4   8   8   8
#     4  11  24  42  66  98 133 178 219 271 335 398
#     4  12  24  41  68  96 130 175 224 270 332 399
#     4  10  21  38  68  91 126 172 222 261 324 398
#     4  12  25  38  66 101 130 170 220 279 336 384
#     4  10  23  43  63  95 138 170 216 270 332 393
#     4  12  24  40  64 103 133 168 218 288 327 382
#     4  10  21  41  65  94 128 177 213 268 328 398
#
# _framework density 20.835442
#
# number of rings (size 3 to 8) (size 9 to 14) (size 15 to 20)
#    0.000    1.000    3.333    3.500    7.000    0.000 
#    0.000    0.833    0.000    1.000    0.000    0.000 
#    0.000    0.000    0.000    0.000    0.000    0.000 
#
# Total GULP energy -134047.281600 kJ/mol
# GULP energy per Si atom -5585.303400 kJ/mol
# Density = 2.078802 g / cm^3
# Si number density = 20.835442 Si / 1000 Ang^3
#
#
#
# Elastic Constant Matrix: (Units=GPa)
#
#
# Indices 1 2 3 4 5 6 
#
# 1 77.3804 32.0064 28.4195 0.0000 8.1278 0.0000
# 2 32.0064 67.2166 18.6030 0.0000 -5.0975 0.0000
# 3 28.4195 18.6030 74.2733 0.0000 13.6338 0.0000
# 4 0.0000 0.0000 0.0000 12.7422 0.0000 2.5407
# 5 8.1278 -5.0975 13.6338 0.0000 34.2874 0.0000
# 6 0.0000 0.0000 0.0000 2.5407 0.0000 23.9041
#
#
#
# Elastic Compliance Matrix: (Units=1/GPa)
#
#
# Indices 1 2 3 4 5 6 
#
# 1 0.018080 -0.007699 -0.004307 0.000000 -0.003718 0.000000
# 2 -0.007699 0.019868 -0.003137 0.000000 0.006026 0.000000
# 3 -0.004307 -0.003137 0.017039 0.000000 -0.006221 0.000000
# 4 0.000000 0.000000 0.000000 0.080179 0.000000 -0.008522
# 5 -0.003718 0.006026 -0.006221 0.000000 0.033416 0.000000
# 6 0.000000 0.000000 0.000000 -0.008522 0.000000 0.042740
#
#
# Mechanical properties :
#
#
# Convention : Reuss Voigt Hill
#
# Bulk Modulus (GPa) = 40.48245 41.88090 41.18167
# Shear Modulus (GPa) = 20.01262 23.50949 21.76106
#
# Velocity S-wave (km/s) = 3.10257 3.36272 3.23526
# Velocity P-wave (km/s) = 5.68387 5.93478 5.81068
#
# Compressibility (1/GPa) = 0.02470206
#
# Stress axis : x y z
#
# Youngs Moduli (GPa) = 55.30949 50.33116 58.68752
#
# Poissons Ratio (x) = 0.38750 0.25278
# Poissons Ratio (y) = 0.42583 0.18408
# Poissons Ratio (z) = 0.23823 0.15787
#
# Static dielectric constant tensor:
#      x y z
#    x 1.752790 0.000000 0.037450 
#    y 0.000000 1.706140 0.000000 
#    z 0.037450 0.000000 1.829680 
# 
# From -- ./inp_files/96355.got.cif
#   From: 2010.05.17/outbox.cif.g08.bks.cpg/sg15_49_cif.got.tgz:96355.got - 2010.06.03 18:47:42.
