data_PCOD9282077
_publ_section_title
;
Structure prediction by ZEFSAII (Michael W. Deem and Ramdas Pophale) SiO2 
 PCOD9282077
Probable space group: C 2/C
;
_chemical_formula_sum "Si O2"
_cell_formula_units_Z 36
_cell_length_a 19.639921
_cell_length_b 5.364401
_cell_length_c 28.388045
_cell_angle_alpha 90.000000
_cell_angle_beta 149.918140
_cell_angle_gamma 90.000000
_cell_volume 1499.130387
_symmetry_space_group_name_H-M "C 2/C"
_symmetry_group_IT_number 15
_symmetry_cell_setting 'monoclinic'
loop_
_space_group_symop_operation_xyz
x,y,z
-x,y,1/2-z
-x,-y,-z
x,-y,1/2+z
1/2+x,1/2+y,z
1/2-x,1/2+y,1/2-z
1/2-x,1/2-y,-z
1/2+x,1/2-y,1/2+z
loop_
_atom_site_type_symbol
_atom_site_label
_atom_site_fract_x
_atom_site_fract_y
_atom_site_fract_z
Si Si1 0.410806 0.250820 0.037713
Si Si2 0.873149 0.474111 0.888219
Si Si3 0.337300 0.557766 0.082351
Si Si4 0.771691 0.034847 0.368198
Si Si5 0.000000 0.391348 0.250000
O O1 0.547832 0.095983 0.112155
O O2 0.405725 0.374514 0.085752
O O3 0.383308 0.442497 0.977911
O O4 0.275942 0.080837 0.954361
O O5 0.796681 0.734915 0.847910
O O6 0.788687 0.232997 0.853846
O O7 0.000000 0.500000 0.000000
O O8 0.440841 0.712510 0.174728
O O9 0.250000 0.750000 0.000000
O O10 0.623883 0.047609 0.303239
#
# Coordination Sequence:
#
# PCOD9282077 Si02
#       5
#     8   8   8   8   4
#     4  10  22  42  70 106 141 183 248 294 364 436
#     4  10  21  38  70 102 137 179 234 289 359 433
#     4  11  24  43  70 106 140 195 239 305 360 432
#     4  11  23  39  69 105 135 186 231 294 364 428
#     4  12  24  44  72 102 152 186 254 300 374 436
#
# _framework density 24.013923999999999
#
# number of rings (size 3 to 8) (size 9 to 14) (size 15 to 20)
#    0.000    1.333    2.222    5.333    3.111    3.556 
#    0.000    0.000    4.889    0.000    0.000    0.000 
#    0.000    0.000    0.000    0.000    0.000    0.000 
#
# Total GULP energy -100815.059144 kJ/mol
# GULP energy per Si atom -5600.836619 kJ/mol
# Density = 2.395927 g / cm^3
# Si number density = 24.013924 Si / 1000 Ang^3
#
#
#
# Elastic Constant Matrix: (Units=GPa)
#
#
# Indices 1 2 3 4 5 6 
#
# 1 134.2926 60.7856 24.7097 0.0001 46.1474 -0.0003
# 2 60.7856 141.8585 35.3745 -0.0014 25.2761 0.0091
# 3 24.7097 35.3745 87.9292 -0.0002 7.6921 0.0004
# 4 0.0001 -0.0014 -0.0002 30.0585 0.0008 5.1353
# 5 46.1474 25.2761 7.6921 0.0008 31.9555 -0.0001
# 6 -0.0003 0.0091 0.0004 5.1353 -0.0001 34.5180
#
#
#
# Elastic Compliance Matrix: (Units=1/GPa)
#
#
# Indices 1 2 3 4 5 6 
#
# 1 0.016116 -0.002831 -0.001583 0.000000 -0.020654 0.000001
# 2 -0.002831 0.009434 -0.002763 0.000001 -0.002709 -0.000003
# 3 -0.001583 -0.002763 0.012808 0.000000 0.001389 0.000001
# 4 0.000000 0.000001 0.000000 0.034136 -0.000002 -0.005079
# 5 -0.020654 -0.002709 0.001389 -0.000002 0.062928 0.000001
# 6 0.000001 -0.000003 0.000001 -0.005079 0.000001 0.029726
#
#
# Mechanical properties :
#
#
# Convention : Reuss Voigt Hill
#
# Bulk Modulus (GPa) = 41.65990 67.31333 54.48661
# Shear Modulus (GPa) = 26.66616 35.52043 31.09330
#
# Velocity S-wave (km/s) = 3.33595 3.85016 3.60224
# Velocity P-wave (km/s) = 5.67662 6.91786 6.32775
#
# Compressibility (1/GPa) = 0.02400390
#
# Stress axis : x y z
#
# Youngs Moduli (GPa) = 62.04848 106.00053 78.07788
#
# Poissons Ratio (x) = 0.30008 0.12362
# Poissons Ratio (y) = 0.17566 0.21571
# Poissons Ratio (z) = 0.09824 0.29286
#
# Static dielectric constant tensor:
#      x y z
#    x 2.009220 0.000000 -0.003420 
#    y 0.000000 1.910490 0.000010 
#    z -0.003420 0.000010 1.879630 
# 
# From -- ./inp_files/317052.got.cif
#   From: 2010.05.17/outbox.cif.g08.bks.cpg/sg15_159_cif.got.tgz:317052.got - 2010.06.03 18:47:42.
