data_PCOD9282890
_publ_section_title
;
Structure prediction by ZEFSAII (Michael W. Deem and Ramdas Pophale) SiO2 
 PCOD9282890
Probable space group: C 2/C
;
_chemical_formula_sum "Si O2"
_cell_formula_units_Z 48
_cell_length_a 33.591909
_cell_length_b 7.902184
_cell_length_c 20.119840
_cell_angle_alpha 90.000000
_cell_angle_beta 152.852040
_cell_angle_gamma 90.000000
_cell_volume 2436.953319
_symmetry_space_group_name_H-M "C 2/C"
_symmetry_group_IT_number 15
_symmetry_cell_setting 'monoclinic'
loop_
_space_group_symop_operation_xyz
x,y,z
-x,y,1/2-z
-x,-y,-z
x,-y,1/2+z
1/2+x,1/2+y,z
1/2-x,1/2+y,1/2-z
1/2-x,1/2-y,-z
1/2+x,1/2-y,1/2+z
loop_
_atom_site_type_symbol
_atom_site_label
_atom_site_fract_x
_atom_site_fract_y
_atom_site_fract_z
Si Si1 0.659747 0.327738 0.390759
Si Si2 0.590224 0.561842 0.169904
Si Si3 0.020174 0.369857 0.471059
Si Si4 0.681390 0.383559 0.196255
Si Si5 0.341058 0.366693 0.957127
Si Si6 0.003850 0.612940 0.328876
O O1 0.750000 0.250000 0.500000
O O2 0.619366 0.454076 0.276616
O O3 0.666785 0.403318 0.475749
O O4 0.591776 0.174421 0.294473
O O5 0.563982 0.747758 0.154918
O O6 0.665060 0.533392 0.225826
O O7 0.500000 0.500000 0.000000
O O8 0.000000 0.500000 0.500000
O O9 0.105924 0.252275 0.602939
O O10 0.035253 0.479618 0.428349
O O11 0.671039 0.473012 0.109275
O O12 0.770445 0.279916 0.335730
O O13 0.434453 0.278410 0.082527
O O14 0.000000 0.537091 0.250000
#
# Coordination Sequence:
#
# PCOD9282890 Si02
#       6
#     8   8   8   8   8   8
#     4  11  22  43  68  95 136 176 223 283 343 403
#     4  10  21  39  65  93 125 171 223 266 330 403
#     4  11  22  38  65  93 131 170 223 273 326 401
#     4  11  22  40  63  95 130 172 221 273 340 404
#     4  11  23  40  68  96 137 175 221 278 345 411
#     4  10  22  39  61  89 128 172 210 266 339 392
#
# _framework density 19.696724
#
# number of rings (size 3 to 8) (size 9 to 14) (size 15 to 20)
#    0.000    1.333    1.667    6.000    0.000    1.333 
#    0.000    0.833    0.000    0.000    0.000    0.000 
#    0.000    0.000    0.000    0.000    0.000    0.000 
#
# Total GULP energy -133941.216956 kJ/mol
# GULP energy per Si atom -5580.884040 kJ/mol
# Density = 1.965189 g / cm^3
# Si number density = 19.696724 Si / 1000 Ang^3
#
#
#
# Elastic Constant Matrix: (Units=GPa)
#
#
# Indices 1 2 3 4 5 6 
#
# 1 106.2827 44.5215 54.9536 0.0000 -6.9119 0.0000
# 2 44.5215 55.3971 30.2643 0.0000 -10.6725 0.0000
# 3 54.9536 30.2643 86.2994 0.0000 -1.7049 0.0000
# 4 0.0000 0.0000 0.0000 31.6591 0.0000 11.7753
# 5 -6.9119 -10.6725 -1.7049 0.0000 51.8850 0.0000
# 6 0.0000 0.0000 0.0000 11.7753 0.0000 11.4206
#
#
#
# Elastic Compliance Matrix: (Units=1/GPa)
#
#
# Indices 1 2 3 4 5 6 
#
# 1 0.017528 -0.009871 -0.007699 0.000000 0.000052 0.000000
# 2 -0.009871 0.028909 -0.003763 0.000000 0.004508 0.000000
# 3 -0.007699 -0.003763 0.017786 0.000000 -0.001215 0.000000
# 4 0.000000 0.000000 0.000000 0.051235 0.000000 -0.052826
# 5 0.000052 0.004508 -0.001215 0.000000 0.020168 0.000000
# 6 0.000000 0.000000 0.000000 -0.052826 0.000000 0.142027
#
#
# Mechanical properties :
#
#
# Convention : Reuss Voigt Hill
#
# Bulk Modulus (GPa) = 46.38980 56.38421 51.38700
# Shear Modulus (GPa) = 15.26704 26.87561 21.07132
#
# Velocity S-wave (km/s) = 2.78709 3.69788 3.27431
# Velocity P-wave (km/s) = 5.82755 6.84987 6.35929
#
# Compressibility (1/GPa) = 0.02155647
#
# Stress axis : x y z
#
# Youngs Moduli (GPa) = 57.05268 34.59133 56.22499
#
# Poissons Ratio (x) = 0.34144 0.43286
# Poissons Ratio (y) = 0.56316 0.21160
# Poissons Ratio (z) = 0.43923 0.13018
#
# Static dielectric constant tensor:
#      x y z
#    x 1.536510 0.000000 0.135370 
#    y 0.000000 1.690130 0.000000 
#    z 0.135370 0.000000 1.588760 
# 
# From -- ./inp_files/224707.got.cif
#   From: 2010.05.17/outbox.cif.g08.bks.cpg/sg15_113_cif.got.tgz:224707.got - 2010.06.03 18:47:42.
