data_PCOD9282794
_publ_section_title
;
Structure prediction by ZEFSAII (Michael W. Deem and Ramdas Pophale) SiO2 
 PCOD9282794
Probable space group: C 2/C
;
_chemical_formula_sum "Si O2"
_cell_formula_units_Z 40
_cell_length_a 12.480831
_cell_length_b 30.971640
_cell_length_c 4.943119
_cell_angle_alpha 90.000000
_cell_angle_beta 111.263194
_cell_angle_gamma 90.000000
_cell_volume 1780.694616
_symmetry_space_group_name_H-M "C 2/C"
_symmetry_group_IT_number 15
_symmetry_cell_setting 'monoclinic'
loop_
_space_group_symop_operation_xyz
x,y,z
-x,y,1/2-z
-x,-y,-z
x,-y,1/2+z
1/2+x,1/2+y,z
1/2-x,1/2+y,1/2-z
1/2-x,1/2-y,-z
1/2+x,1/2-y,1/2+z
loop_
_atom_site_type_symbol
_atom_site_label
_atom_site_fract_x
_atom_site_fract_y
_atom_site_fract_z
Si Si1 0.876216 0.750755 0.960060
Si Si2 0.287401 0.877211 0.497163
Si Si3 0.575840 0.654280 0.077328
Si Si4 0.137634 0.474225 0.866752
Si Si5 0.373289 0.167793 0.582066
O O1 0.000000 0.745294 0.250000
O O2 0.750000 0.750000 0.000000
O O3 0.876039 0.797810 0.815162
O O4 0.874677 0.714901 0.720983
O O5 0.167640 0.878167 0.541765
O O6 0.337029 0.924764 0.546593
O O7 0.285897 0.858919 0.192778
O O8 0.353047 0.841847 0.747571
O O9 0.500000 0.637618 0.250000
O O10 0.500000 0.664451 0.750000
O O11 0.181498 0.490762 0.620830
O O12 0.000000 0.477401 0.750000
O O13 0.500000 0.148847 0.750000
#
# Coordination Sequence:
#
# PCOD9282794 Si02
#       5
#     8   8   8   8   8
#     4  11  24  44  66  96 139 188 230 284 336 395
#     4  12  24  41  68  94 131 172 222 269 338 393
#     4  11  25  44  64  90 129 179 228 277 326 389
#     4  10  21  39  64  96 131 162 200 259 341 420
#     4  12  24  39  63  97 133 171 226 275 322 390
#
# _framework density 22.463145000000001
#
# number of rings (size 3 to 8) (size 9 to 14) (size 15 to 20)
#    0.000    0.800    2.000    6.000    2.800    4.000 
#    0.000    0.000    0.000    3.600    0.000    0.000 
#    0.000    0.000    0.000    0.000    0.000    0.000 
#
# Total GULP energy -111644.064529 kJ/mol
# GULP energy per Si atom -5582.203226 kJ/mol
# Density = 2.241202 g / cm^3
# Si number density = 22.463145 Si / 1000 Ang^3
#
#
#
# Elastic Constant Matrix: (Units=GPa)
#
#
# Indices 1 2 3 4 5 6 
#
# 1 105.2559 -15.1037 0.4805 0.0000 -17.5604 0.0000
# 2 -15.1037 76.6845 24.4284 0.0000 -3.3743 0.0000
# 3 0.4805 24.4284 54.7881 0.0000 -6.1062 0.0000
# 4 0.0000 0.0000 0.0000 11.8925 0.0000 2.1638
# 5 -17.5604 -3.3743 -6.1062 0.0000 30.8260 0.0000
# 6 0.0000 0.0000 0.0000 2.1638 0.0000 37.2888
#
#
#
# Elastic Compliance Matrix: (Units=1/GPa)
#
#
# Indices 1 2 3 4 5 6 
#
# 1 0.010948 0.002613 -0.000546 0.000000 0.006415 0.000000
# 2 0.002613 0.015826 -0.006872 0.000000 0.001859 0.000000
# 3 -0.000546 -0.006872 0.021681 0.000000 0.003231 0.000000
# 4 0.000000 0.000000 0.000000 0.084984 0.000000 -0.004931
# 5 0.006415 0.001859 0.003231 0.000000 0.036938 0.000000
# 6 0.000000 0.000000 0.000000 -0.004931 0.000000 0.027104
#
#
# Mechanical properties :
#
#
# Convention : Reuss Voigt Hill
#
# Bulk Modulus (GPa) = 25.74375 28.48211 27.11293
# Shear Modulus (GPa) = 22.72315 31.12970 26.92642
#
# Velocity S-wave (km/s) = 3.18398 3.72669 3.46597
# Velocity P-wave (km/s) = 5.00023 5.58790 5.30221
#
# Compressibility (1/GPa) = 0.03884438
#
# Stress axis : x y z
#
# Youngs Moduli (GPa) = 91.33918 63.18742 46.12313
#
# Poissons Ratio (x) = -0.16508 0.02518
# Poissons Ratio (y) = -0.23862 0.31696
# Poissons Ratio (z) = 0.04987 0.43422
#
# Static dielectric constant tensor:
#      x y z
#    x 1.920160 0.000000 0.080510 
#    y 0.000000 1.753340 0.000000 
#    z 0.080510 0.000000 1.886910 
# 
# From -- ./inp_files/5936.got.cif
#   From: 2010.05.17/outbox.cif.g08.bks.cpg/sg15_3_cif.got.tgz:5936.got - 2010.06.03 18:47:42.
