data_PCOD9282148
_publ_section_title
;
Structure prediction by ZEFSAII (Michael W. Deem and Ramdas Pophale) SiO2 
 PCOD9282148
Probable space group: C 2/C
;
_chemical_formula_sum "Si O2"
_cell_formula_units_Z 56
_cell_length_a 27.776357
_cell_length_b 12.553605
_cell_length_c 8.960201
_cell_angle_alpha 90.000000
_cell_angle_beta 59.069702
_cell_angle_gamma 90.000000
_cell_volume 2680.057481
_symmetry_space_group_name_H-M "C 2/C"
_symmetry_group_IT_number 15
_symmetry_cell_setting 'monoclinic'
loop_
_space_group_symop_operation_xyz
x,y,z
-x,y,1/2-z
-x,-y,-z
x,-y,1/2+z
1/2+x,1/2+y,z
1/2-x,1/2+y,1/2-z
1/2-x,1/2-y,-z
1/2+x,1/2-y,1/2+z
loop_
_atom_site_type_symbol
_atom_site_label
_atom_site_fract_x
_atom_site_fract_y
_atom_site_fract_z
Si Si1 0.216209 0.086913 0.119705
Si Si2 0.665616 0.587636 0.899084
Si Si3 0.000000 0.478815 0.250000
Si Si4 0.429842 0.119443 0.127330
Si Si5 0.198537 0.586629 0.092896
Si Si6 0.000000 0.017105 0.250000
Si Si7 0.761838 0.747643 0.689593
Si Si8 0.944996 0.870776 0.108532
O O1 0.220223 0.203265 0.182618
O O2 0.198231 0.012112 0.282908
O O3 0.168044 0.080477 0.072235
O O4 0.274239 0.030662 0.971575
O O5 0.702857 0.689935 0.804384
O O6 0.610060 0.595706 0.893907
O O7 0.038964 0.551061 0.294748
O O8 0.959462 0.410920 0.423383
O O9 0.363156 0.091419 0.237103
O O10 0.440471 0.244584 0.140074
O O11 0.246006 0.654560 0.106075
O O12 0.196748 0.658996 0.944774
O O13 0.989676 0.092709 0.410382
O O14 0.954938 0.934484 0.247493
#
# Coordination Sequence:
#
# PCOD9282148 Si02
#       8
#     8   8   4   8   8   4   8   8
#     4  11  22  38  59  92 132 164 213 255 309 396
#     4  11  22  36  60  87 123 164 205 259 314 381
#     4  10  26  44  66 100 122 166 228 276 328 384
#     4  11  23  44  68  92 130 166 219 278 326 381
#     4  10  22  38  65  89 129 174 204 262 330 373
#     4  10  24  40  62  90 118 160 220 256 342 384
#     4  10  21  39  57  93 126 166 209 254 311 394
#     4  11  22  41  63  88 122 164 205 274 320 387
#
# _framework density 20.895073
#
# number of rings (size 3 to 8) (size 9 to 14) (size 15 to 20)
#    0.000    1.429    2.857    2.143    2.000    1.143 
#    0.000    4.286    0.000    0.000    0.000    0.000 
#    0.000    0.000    0.000    0.000    0.000    0.000 
#
# Total GULP energy -156069.871931 kJ/mol
# GULP energy per Si atom -5573.923998 kJ/mol
# Density = 2.084751 g / cm^3
# Si number density = 20.895073 Si / 1000 Ang^3
#
#
#
# Elastic Constant Matrix: (Units=GPa)
#
#
# Indices 1 2 3 4 5 6 
#
# 1 92.5539 21.8904 26.0100 0.0000 9.8887 0.0000
# 2 21.8904 70.9093 23.6648 0.0000 -2.3279 0.0000
# 3 26.0100 23.6648 56.5450 0.0000 13.3386 0.0000
# 4 0.0000 0.0000 0.0000 33.9114 0.0000 14.5442
# 5 9.8887 -2.3279 13.3386 0.0000 36.3801 0.0000
# 6 0.0000 0.0000 0.0000 14.5442 0.0000 25.7336
#
#
#
# Elastic Compliance Matrix: (Units=1/GPa)
#
#
# Indices 1 2 3 4 5 6 
#
# 1 0.012858 -0.002588 -0.004344 0.000000 -0.002068 0.000000
# 2 -0.002588 0.017435 -0.007154 0.000000 0.004442 0.000000
# 3 -0.004344 -0.007154 0.024638 0.000000 -0.008310 0.000000
# 4 0.000000 0.000000 0.000000 0.038924 0.000000 -0.021999
# 5 -0.002068 0.004442 -0.008310 0.000000 0.031381 0.000000
# 6 0.000000 0.000000 0.000000 -0.021999 0.000000 0.051293
#
#
# Mechanical properties :
#
#
# Convention : Reuss Voigt Hill
#
# Bulk Modulus (GPa) = 37.37033 40.34874 38.85954
# Shear Modulus (GPa) = 23.40605 29.10122 26.25364
#
# Velocity S-wave (km/s) = 3.35053 3.73598 3.54849
# Velocity P-wave (km/s) = 5.73512 6.16134 5.95205
#
# Compressibility (1/GPa) = 0.02675920
#
# Stress axis : x y z
#
# Youngs Moduli (GPa) = 77.77134 57.35655 40.58827
#
# Poissons Ratio (x) = 0.14842 0.17631
# Poissons Ratio (y) = 0.20125 0.29038
# Poissons Ratio (z) = 0.33782 0.41034
#
# Static dielectric constant tensor:
#      x y z
#    x 1.774510 0.000000 0.012890 
#    y 0.000000 2.151920 0.000000 
#    z 0.012890 0.000000 1.854660 
# 
# From -- ./inp_files/69331.got.cif
#   From: 2010.05.17/outbox.cif.g08.bks.cpg/sg15_35_cif.got.tgz:69331.got - 2010.06.03 18:47:42.
