data_PCOD9282959
_publ_section_title
;
Structure prediction by ZEFSAII (Michael W. Deem and Ramdas Pophale) SiO2 
 PCOD9282959
Probable space group: C 2/C
;
_chemical_formula_sum "Si O2"
_cell_formula_units_Z 44
_cell_length_a 8.144721
_cell_length_b 18.574451
_cell_length_c 12.766909
_cell_angle_alpha 90.000000
_cell_angle_beta 106.864542
_cell_angle_gamma 90.000000
_cell_volume 1848.361272
_symmetry_space_group_name_H-M "C 2/C"
_symmetry_group_IT_number 15
_symmetry_cell_setting 'monoclinic'
loop_
_space_group_symop_operation_xyz
x,y,z
-x,y,1/2-z
-x,-y,-z
x,-y,1/2+z
1/2+x,1/2+y,z
1/2-x,1/2+y,1/2-z
1/2-x,1/2-y,-z
1/2+x,1/2-y,1/2+z
loop_
_atom_site_type_symbol
_atom_site_label
_atom_site_fract_x
_atom_site_fract_y
_atom_site_fract_z
Si Si1 0.913096 0.951253 0.891926
Si Si2 0.760040 0.473225 0.848877
Si Si3 0.100186 0.654083 0.004502
Si Si4 0.500000 0.692952 0.750000
Si Si5 0.765247 0.873870 0.045653
Si Si6 0.187268 0.267462 0.325541
O O1 0.774209 0.980742 0.781914
O O2 0.084503 0.937073 0.859114
O O3 0.818016 0.888597 0.936558
O O4 0.000000 0.000000 0.000000
O O5 0.895621 0.419296 0.926211
O O6 0.781932 0.551705 0.902834
O O7 0.227831 0.707632 0.086037
O O8 0.157683 0.660711 0.893143
O O9 0.900376 0.676641 0.974336
O O10 0.564531 0.649739 0.862545
O O11 0.674891 0.728089 0.741999
O O12 0.000000 0.247651 0.250000
#
# Coordination Sequence:
#
# PCOD9282959 Si02
#       6
#     8   8   8   4   8   8
#     4   9  19  36  59  96 140 181 220 268 339 418
#     4  10  21  39  66 101 142 181 221 288 354 412
#     4  11  25  45  69 101 140 179 232 295 342 413
#     4  12  24  46  76  96 136 188 232 286 350 416
#     4  11  22  41  68 106 136 177 235 280 354 423
#     4  11  26  50  70 100 139 185 238 288 346 412
#
# _framework density 23.804869
#
# number of rings (size 3 to 8) (size 9 to 14) (size 15 to 20)
#    0.000    1.455    1.818    3.818    2.545    4.364 
#    0.000    0.000    0.000    0.000    0.000    0.000 
#    0.000    0.000    0.000    0.000    0.000    0.000 
#
# Total GULP energy -122621.863636 kJ/mol
# GULP energy per Si atom -5573.721074 kJ/mol
# Density = 2.375069 g / cm^3
# Si number density = 23.804869 Si / 1000 Ang^3
#
#
#
# Elastic Constant Matrix: (Units=GPa)
#
#
# Indices 1 2 3 4 5 6 
#
# 1 139.8117 10.6567 58.6880 0.0000 20.0682 0.0000
# 2 10.6567 29.4786 15.8183 0.0000 13.9482 0.0000
# 3 58.6880 15.8183 124.5033 0.0000 15.9058 0.0000
# 4 0.0000 0.0000 0.0000 60.0851 0.0000 58.8350
# 5 20.0682 13.9482 15.9058 0.0000 47.1911 0.0000
# 6 0.0000 0.0000 0.0000 58.8350 0.0000 89.6014
#
#
#
# Elastic Compliance Matrix: (Units=1/GPa)
#
#
# Indices 1 2 3 4 5 6 
#
# 1 0.009204 0.000045 -0.004016 0.000000 -0.002574 0.000000
# 2 0.000045 0.041121 -0.003857 0.000000 -0.010873 0.000000
# 3 -0.004016 -0.003857 0.010503 0.000000 -0.000693 0.000000
# 4 0.000000 0.000000 0.000000 0.046615 0.000000 -0.030609
# 5 -0.002574 -0.010873 -0.000693 0.000000 0.025732 0.000000
# 6 0.000000 0.000000 0.000000 -0.030609 0.000000 0.031259
#
#
# Mechanical properties :
#
#
# Convention : Reuss Voigt Hill
#
# Bulk Modulus (GPa) = 22.13640 51.56885 36.85262
# Shear Modulus (GPa) = 25.62175 53.28423 39.45299
#
# Velocity S-wave (km/s) = 3.28430 4.73628 4.07547
# Velocity P-wave (km/s) = 4.86841 7.18470 6.13683
#
# Compressibility (1/GPa) = 0.04517447
#
# Stress axis : x y z
#
# Youngs Moduli (GPa) = 108.64775 24.31851 95.20896
#
# Poissons Ratio (x) = -0.00110 0.38231
# Poissons Ratio (y) = -0.00493 0.36719
# Poissons Ratio (z) = 0.43628 0.09379
#
# Static dielectric constant tensor:
#      x y z
#    x 1.993400 0.000000 -0.051800 
#    y 0.000000 1.977150 0.000000 
#    z -0.051800 0.000000 2.026130 
# 
# From -- ./inp_files/78360.got.cif
#   From: 2010.05.17/outbox.cif.g08.bks.cpg/sg15_40_cif.got.tgz:78360.got - 2010.06.03 18:47:42.
