data_PCOD9282154
_publ_section_title
;
Structure prediction by ZEFSAII (Michael W. Deem and Ramdas Pophale) SiO2 
 PCOD9282154
Probable space group: C 2/C
;
_chemical_formula_sum "Si O2"
_cell_formula_units_Z 56
_cell_length_a 8.591064
_cell_length_b 12.023620
_cell_length_c 30.210374
_cell_angle_alpha 90.000000
_cell_angle_beta 61.209477
_cell_angle_gamma 90.000000
_cell_volume 2734.852474
_symmetry_space_group_name_H-M "C 2/C"
_symmetry_group_IT_number 15
_symmetry_cell_setting 'monoclinic'
loop_
_space_group_symop_operation_xyz
x,y,z
-x,y,1/2-z
-x,-y,-z
x,-y,1/2+z
1/2+x,1/2+y,z
1/2-x,1/2+y,1/2-z
1/2-x,1/2-y,-z
1/2+x,1/2-y,1/2+z
loop_
_atom_site_type_symbol
_atom_site_label
_atom_site_fract_x
_atom_site_fract_y
_atom_site_fract_z
Si Si1 0.256833 0.903125 0.528143
Si Si2 0.606712 0.281907 0.071347
Si Si3 0.330281 0.978775 0.685336
Si Si4 0.981038 0.527557 0.073461
Si Si5 0.835365 0.219058 0.684646
Si Si6 0.500000 0.633761 0.750000
Si Si7 0.516381 0.701643 0.488630
Si Si8 0.500000 0.066194 0.750000
O O1 0.302530 0.965681 0.567605
O O2 0.351660 0.783244 0.521533
O O3 0.059208 0.883145 0.537300
O O4 0.372441 0.961489 0.474126
O O5 0.554356 0.152618 0.069762
O O6 0.475815 0.319146 0.127946
O O7 0.816702 0.273052 0.051990
O O8 0.575920 0.343188 0.028636
O O9 0.442461 0.017538 0.627369
O O10 0.289648 0.848527 0.683556
O O11 0.431992 0.995515 0.717640
O O12 0.156414 0.053675 0.712019
O O13 0.929027 0.206033 0.719220
O O14 0.660550 0.143713 0.710742
#
# Coordination Sequence:
#
# PCOD9282154 Si02
#       8
#     8   8   8   8   8   4   8   4
#     4   9  18  33  53  78 110 145 188 224 278 344
#     4   9  19  34  52  78 111 145 180 235 291 328
#     4  10  21  39  59  84 118 145 193 242 286 348
#     4   9  19  34  52  77 111 147 178 236 283 335
#     4  10  21  39  58  84 118 144 190 245 283 345
#     4  10  22  38  60  86 108 156 188 234 298 336
#     4   9  18  33  53  79 109 145 188 228 272 350
#     4  10  22  38  62  86 106 158 192 230 306 346
#
# _framework density 20.476424999999999
#
# number of rings (size 3 to 8) (size 9 to 14) (size 15 to 20)
#    0.000    2.571    0.000    0.857    4.000    0.571 
#    0.000    7.143    0.000    0.000    0.000    0.000 
#    0.000    0.000    0.000    0.000    0.000    0.000 
#
# Total GULP energy -156234.788143 kJ/mol
# GULP energy per Si atom -5579.813862 kJ/mol
# Density = 2.042982 g / cm^3
# Si number density = 20.476425 Si / 1000 Ang^3
#
#
#
# Elastic Constant Matrix: (Units=GPa)
#
#
# Indices 1 2 3 4 5 6 
#
# 1 92.3308 3.4705 18.5475 0.0000 -6.0819 0.0000
# 2 3.4705 39.9685 3.2033 0.0000 1.8932 0.0000
# 3 18.5475 3.2033 96.1547 0.0000 -2.9697 0.0000
# 4 0.0000 0.0000 0.0000 21.9073 0.0000 3.4046
# 5 -6.0819 1.8932 -2.9697 0.0000 17.9852 0.0000
# 6 0.0000 0.0000 0.0000 3.4046 0.0000 1.5607
#
#
#
# Elastic Compliance Matrix: (Units=1/GPa)
#
#
# Indices 1 2 3 4 5 6 
#
# 1 0.011527 -0.001008 -0.002077 0.000000 0.003661 0.000000
# 2 -0.001008 0.025315 -0.000746 0.000000 -0.003129 0.000000
# 3 -0.002077 -0.000746 0.010861 0.000000 0.001170 0.000000
# 4 0.000000 0.000000 0.000000 0.069058 0.000000 -0.150643
# 5 0.003661 -0.003129 0.001170 0.000000 0.057362 0.000000
# 6 0.000000 0.000000 0.000000 -0.150643 0.000000 0.969334
#
#
# Mechanical properties :
#
#
# Convention : Reuss Voigt Hill
#
# Bulk Modulus (GPa) = 24.97312 30.98851 27.98081
# Shear Modulus (GPa) = 4.29382 21.83950 13.06666
#
# Velocity S-wave (km/s) = 1.44966 3.26938 2.52887
# Velocity P-wave (km/s) = 3.87615 5.42387 4.71396
#
# Compressibility (1/GPa) = 0.04004305
#
# Stress axis : x y z
#
# Youngs Moduli (GPa) = 86.75391 39.50196 92.06862
#
# Poissons Ratio (x) = 0.03981 0.19121
# Poissons Ratio (y) = 0.08744 0.06864
# Poissons Ratio (z) = 0.18017 0.02945
#
# Static dielectric constant tensor:
#      x y z
#    x 1.760870 0.000000 0.016310 
#    y 0.000000 1.750210 0.000000 
#    z 0.016310 0.000000 1.718230 
# 
# From -- ./inp_files/288486.got.cif
#   From: 2010.05.17/outbox.cif.g08.bks.cpg/sg15_145_cif.got.tgz:288486.got - 2010.06.03 18:47:42.
