data_PCOD9282437
_publ_section_title
;
Structure prediction by ZEFSAII (Michael W. Deem and Ramdas Pophale) SiO2 
 PCOD9282437
Probable space group: C 2/C
;
_chemical_formula_sum "Si O2"
_cell_formula_units_Z 40
_cell_length_a 9.256007
_cell_length_b 22.110391
_cell_length_c 11.752949
_cell_angle_alpha 90.000000
_cell_angle_beta 124.532899
_cell_angle_gamma 90.000000
_cell_volume 1981.477618
_symmetry_space_group_name_H-M "C 2/C"
_symmetry_group_IT_number 15
_symmetry_cell_setting 'monoclinic'
loop_
_space_group_symop_operation_xyz
x,y,z
-x,y,1/2-z
-x,-y,-z
x,-y,1/2+z
1/2+x,1/2+y,z
1/2-x,1/2+y,1/2-z
1/2-x,1/2-y,-z
1/2+x,1/2-y,1/2+z
loop_
_atom_site_type_symbol
_atom_site_label
_atom_site_fract_x
_atom_site_fract_y
_atom_site_fract_z
Si Si1 0.074790 0.235105 0.493035
Si Si2 0.500000 0.473247 0.250000
Si Si3 0.550830 0.841184 0.901109
Si Si4 0.762582 0.920040 0.702295
Si Si5 0.430074 0.617944 0.519672
Si Si6 0.000000 0.820384 0.750000
O O1 0.250000 0.250000 0.500000
O O2 0.010363 0.289278 0.541143
O O3 0.068899 0.171599 0.557957
O O4 0.942632 0.220185 0.329740
O O5 0.669632 0.517167 0.317069
O O6 0.504237 0.432446 0.364369
O O7 0.500000 0.822927 0.750000
O O8 0.440115 0.902874 0.874578
O O9 0.757154 0.851995 0.997639
O O10 0.842477 0.867069 0.657968
O O11 0.859097 0.909873 0.868055
#
# Coordination Sequence:
#
# PCOD9282437 Si02
#       6
#     8   4   8   8   8   4
#     4  11  21  36  62  89 123 157 200 251 302 369
#     4  11  22  38  64  86 124 156 211 254 292 363
#     4  10  21  39  62  89 122 160 202 249 311 365
#     4   9  19  39  60  83 116 164 201 242 304 363
#     4  10  23  37  59  92 120 159 202 252 308 353
#     4   9  18  34  56  86 114 156 201 240 300 355
#
# _framework density 20.186955999999999
#
# number of rings (size 3 to 8) (size 9 to 14) (size 15 to 20)
#    0.000    2.000    2.000    1.200    1.400    2.400 
#    0.000    0.000    0.000    0.000    0.000    0.000 
#    0.000    0.000    0.000    0.000    0.000    0.000 
#
# Total GULP energy -111483.114984 kJ/mol
# GULP energy per Si atom -5574.155749 kJ/mol
# Density = 2.014101 g / cm^3
# Si number density = 20.186956 Si / 1000 Ang^3
#
#
#
# Elastic Constant Matrix: (Units=GPa)
#
#
# Indices 1 2 3 4 5 6 
#
# 1 127.8876 63.3409 19.0129 0.0000 -9.6863 0.0000
# 2 63.3409 133.4225 45.7841 0.0000 -16.5495 0.0000
# 3 19.0129 45.7841 34.6847 0.0000 -14.5715 0.0000
# 4 0.0000 0.0000 0.0000 24.6164 0.0000 -8.4157
# 5 -9.6863 -16.5495 -14.5715 0.0000 26.9647 0.0000
# 6 0.0000 0.0000 0.0000 -8.4157 0.0000 27.7949
#
#
#
# Elastic Compliance Matrix: (Units=1/GPa)
#
#
# Indices 1 2 3 4 5 6 
#
# 1 0.010313 -0.005461 0.002204 0.000000 0.001544 0.000000
# 2 -0.005461 0.016658 -0.020083 0.000000 -0.002591 0.000000
# 3 0.002204 -0.020083 0.063764 0.000000 0.022923 0.000000
# 4 0.000000 0.000000 0.000000 0.045314 0.000000 0.013720
# 5 0.001544 -0.002591 0.022923 0.000000 0.048437 0.000000
# 6 0.000000 0.000000 0.000000 0.013720 0.000000 0.040132
#
#
# Mechanical properties :
#
#
# Convention : Reuss Voigt Hill
#
# Bulk Modulus (GPa) = 22.69967 61.36339 42.03153
# Shear Modulus (GPa) = 17.48350 27.06564 22.27457
#
# Velocity S-wave (km/s) = 2.94611 3.66560 3.32537
# Velocity P-wave (km/s) = 4.77932 6.95550 5.96745
#
# Compressibility (1/GPa) = 0.04405351
#
# Stress axis : x y z
#
# Youngs Moduli (GPa) = 96.96151 60.03226 15.68290
#
# Poissons Ratio (x) = 0.32782 -0.03456
# Poissons Ratio (y) = 0.52949 0.31497
# Poissons Ratio (z) = -0.21366 1.20565
#
# Static dielectric constant tensor:
#      x y z
#    x 1.774460 0.000000 0.012940 
#    y 0.000000 1.731470 0.000000 
#    z 0.012940 0.000000 1.816700 
# 
# From -- ./inp_files/77681.got.cif
#   From: 2010.05.17/outbox.cif.g08.bks.cpg/sg15_39_cif.got.tgz:77681.got - 2010.06.03 18:47:42.
