data_PCOD9282301
_publ_section_title
;
Structure prediction by ZEFSAII (Michael W. Deem and Ramdas Pophale) SiO2 
 PCOD9282301
Probable space group: C 2/C
;
_chemical_formula_sum "Si O2"
_cell_formula_units_Z 56
_cell_length_a 11.030590
_cell_length_b 9.077788
_cell_length_c 30.728376
_cell_angle_alpha 90.000000
_cell_angle_beta 59.712370
_cell_angle_gamma 90.000000
_cell_volume 2656.947483
_symmetry_space_group_name_H-M "C 2/C"
_symmetry_group_IT_number 15
_symmetry_cell_setting 'monoclinic'
loop_
_space_group_symop_operation_xyz
x,y,z
-x,y,1/2-z
-x,-y,-z
x,-y,1/2+z
1/2+x,1/2+y,z
1/2-x,1/2+y,1/2-z
1/2-x,1/2-y,-z
1/2+x,1/2-y,1/2+z
loop_
_atom_site_type_symbol
_atom_site_label
_atom_site_fract_x
_atom_site_fract_y
_atom_site_fract_z
Si Si1 0.119843 0.538605 0.692653
Si Si2 0.891111 0.407516 0.971776
Si Si3 0.919868 0.876849 0.041858
Si Si4 0.334691 0.936382 0.074983
Si Si5 0.335151 0.715352 0.386579
Si Si6 0.929891 0.014503 0.636963
Si Si7 0.628803 0.792493 0.620613
O O1 0.129900 0.683692 0.660799
O O2 0.274293 0.508216 0.685131
O O3 0.087712 0.407712 0.664452
O O4 0.000000 0.550666 0.750000
O O5 0.847825 0.369977 0.930680
O O6 0.976490 0.262629 0.972246
O O7 0.000248 0.542071 0.951363
O O8 0.790579 0.438039 0.031207
O O9 0.763586 0.808566 0.061670
O O10 0.901962 0.951214 0.091793
O O11 0.000000 0.000000 0.000000
O O12 0.273771 0.789270 0.105710
O O13 0.267346 0.080562 0.108511
O O14 0.474095 0.630175 0.376529
O O15 0.017902 0.158028 0.636942
#
# Coordination Sequence:
#
# PCOD9282301 Si02
#       7
#     8   8   8   8   8   8   8
#     4  11  25  43  64  89 115 152 210 269 319 363
#     4   9  18  33  56  87 126 165 197 240 288 355
#     4   9  18  32  56  91 130 168 203 242 289 359
#     4   9  18  35  58  86 124 162 199 234 293 366
#     4   9  20  40  56  86 124 162 200 251 307 361
#     4   9  21  42  59  84 126 155 201 258 301 370
#     4  10  21  39  61  84 118 159 199 248 304 356
#
# _framework density 21.076820000000001
#
# number of rings (size 3 to 8) (size 9 to 14) (size 15 to 20)
#    0.000    2.571    0.000    1.286    4.000    2.857 
#    5.143    2.857    0.000    0.000    0.000    0.000 
#    0.000    0.000    0.000    0.000    0.000    0.000 
#
# Total GULP energy -156244.904807 kJ/mol
# GULP energy per Si atom -5580.175172 kJ/mol
# Density = 2.102885 g / cm^3
# Si number density = 21.076820 Si / 1000 Ang^3
#
#
#
# Elastic Constant Matrix: (Units=GPa)
#
#
# Indices 1 2 3 4 5 6 
#
# 1 73.1054 45.2333 23.7078 0.0000 -17.7559 0.0000
# 2 45.2333 124.4540 68.4621 0.0000 -5.6742 0.0000
# 3 23.7078 68.4621 121.8085 0.0000 -23.5865 0.0000
# 4 0.0000 0.0000 0.0000 19.1464 0.0000 -4.5933
# 5 -17.7559 -5.6742 -23.5865 0.0000 24.9943 0.0000
# 6 0.0000 0.0000 0.0000 -4.5933 0.0000 36.3386
#
#
#
# Elastic Compliance Matrix: (Units=1/GPa)
#
#
# Indices 1 2 3 4 5 6 
#
# 1 0.022870 -0.010119 0.004818 0.000000 0.018496 0.000000
# 2 -0.010119 0.016502 -0.009755 0.000000 -0.012647 0.000000
# 3 0.004818 -0.009755 0.015892 0.000000 0.016205 0.000000
# 4 0.000000 0.000000 0.000000 0.053862 0.000000 0.006808
# 5 0.018496 -0.012647 0.016205 0.000000 0.065570 0.000000
# 6 0.000000 0.000000 0.000000 0.006808 0.000000 0.028379
#
#
# Mechanical properties :
#
#
# Convention : Reuss Voigt Hill
#
# Bulk Modulus (GPa) = 39.75740 66.01936 52.88838
# Shear Modulus (GPa) = 20.69776 28.22685 24.46231
#
# Velocity S-wave (km/s) = 3.13711 3.66353 3.41049
# Velocity P-wave (km/s) = 5.65915 7.02043 6.37622
#
# Compressibility (1/GPa) = 0.02515255
#
# Stress axis : x y z
#
# Youngs Moduli (GPa) = 43.72567 60.59784 62.92338
#
# Poissons Ratio (x) = 0.61319 -0.30314
# Poissons Ratio (y) = 0.44246 0.61379
# Poissons Ratio (z) = -0.21065 0.59110
#
# Static dielectric constant tensor:
#      x y z
#    x 1.852800 0.000000 -0.029460 
#    y 0.000000 1.791270 0.000000 
#    z -0.029460 0.000000 1.758400 
# 
# From -- ./inp_files/310204.got.cif
#   From: 2010.05.17/outbox.cif.g08.bks.cpg/sg15_156_cif.got.tgz:310204.got - 2010.06.03 18:47:42.
