data_PCOD9282547
_publ_section_title
;
Structure prediction by ZEFSAII (Michael W. Deem and Ramdas Pophale) SiO2 
 PCOD9282547
Probable space group: C 2/C
;
_chemical_formula_sum "Si O2"
_cell_formula_units_Z 52
_cell_length_a 7.576867
_cell_length_b 12.555103
_cell_length_c 24.976824
_cell_angle_alpha 90.000000
_cell_angle_beta 74.363014
_cell_angle_gamma 90.000000
_cell_volume 2288.065119
_symmetry_space_group_name_H-M "C 2/C"
_symmetry_group_IT_number 15
_symmetry_cell_setting 'monoclinic'
loop_
_space_group_symop_operation_xyz
x,y,z
-x,y,1/2-z
-x,-y,-z
x,-y,1/2+z
1/2+x,1/2+y,z
1/2-x,1/2+y,1/2-z
1/2-x,1/2-y,-z
1/2+x,1/2-y,1/2+z
loop_
_atom_site_type_symbol
_atom_site_label
_atom_site_fract_x
_atom_site_fract_y
_atom_site_fract_z
Si Si1 0.976988 0.371462 0.673109
Si Si2 0.860102 0.392167 0.945192
Si Si3 0.500000 0.228807 0.750000
Si Si4 0.872527 0.862576 0.176911
Si Si5 0.219627 0.125849 0.938426
Si Si6 0.815144 0.919699 0.715685
Si Si7 0.036418 0.737983 0.962931
O O1 0.978052 0.244690 0.683762
O O2 0.808606 0.418834 0.720357
O O3 0.972124 0.392909 0.610384
O O4 0.165637 0.417488 0.680668
O O5 0.762469 0.505297 0.951093
O O6 0.721635 0.300634 0.934967
O O7 0.916286 0.357543 0.999887
O O8 0.333049 0.158984 0.784550
O O9 0.430002 0.311367 0.710266
O O10 0.865251 0.869261 0.113432
O O11 0.932530 0.974606 0.196632
O O12 0.410380 0.191652 0.926506
O O13 0.084953 0.180207 0.992054
#
# Coordination Sequence:
#
# PCOD9282547 Si02
#       7
#     8   8   4   8   8   8   8
#     4  10  21  39  63  87 122 156 199 246 303 359
#     4  11  21  41  63  88 123 161 200 248 304 355
#     4  10  24  38  60  90 116 152 208 240 292 374
#     4  11  22  39  63  88 122 158 197 247 306 350
#     4  11  22  39  64  89 122 161 201 250 296 359
#     4  10  22  41  60  87 120 158 194 251 295 360
#     4  10  24  40  61  90 125 160 205 249 297 357
#
# _framework density 22.726627000000001
#
# number of rings (size 3 to 8) (size 9 to 14) (size 15 to 20)
#    0.000    1.538    3.077    1.846    2.154    2.462 
#    0.000    3.077    0.000    0.000    0.000    0.000 
#    0.000    0.000    0.000    0.000    0.000    0.000 
#
# Total GULP energy -145417.307860 kJ/mol
# GULP energy per Si atom -5592.973379 kJ/mol
# Density = 2.267490 g / cm^3
# Si number density = 22.726627 Si / 1000 Ang^3
#
#
#
# Elastic Constant Matrix: (Units=GPa)
#
#
# Indices 1 2 3 4 5 6 
#
# 1 32.4648 -3.8149 -1.0599 0.0000 8.5222 0.0000
# 2 -3.8149 118.0571 24.8562 0.0000 9.7860 0.0000
# 3 -1.0599 24.8562 68.1444 0.0000 4.7951 0.0000
# 4 0.0000 0.0000 0.0000 8.0639 0.0000 5.7081
# 5 8.5222 9.7860 4.7951 0.0000 21.7837 0.0000
# 6 0.0000 0.0000 0.0000 5.7081 0.0000 31.0360
#
#
#
# Elastic Compliance Matrix: (Units=1/GPa)
#
#
# Indices 1 2 3 4 5 6 
#
# 1 0.034983 0.002195 0.000788 0.000000 -0.014846 0.000000
# 2 0.002195 0.009574 -0.003144 0.000000 -0.004468 0.000000
# 3 0.000788 -0.003144 0.016004 0.000000 -0.002419 0.000000
# 4 0.000000 0.000000 0.000000 0.142571 0.000000 -0.026221
# 5 -0.014846 -0.004468 -0.002419 0.000000 0.054253 0.000000
# 6 0.000000 0.000000 0.000000 -0.026221 0.000000 0.037043
#
#
# Mechanical properties :
#
#
# Convention : Reuss Voigt Hill
#
# Bulk Modulus (GPa) = 16.60019 28.73656 22.66837
# Shear Modulus (GPa) = 15.88162 25.42238 20.65200
#
# Velocity S-wave (km/s) = 2.64637 3.34820 3.01776
# Velocity P-wave (km/s) = 4.08140 5.25539 4.70516
#
# Compressibility (1/GPa) = 0.06024027
#
# Stress axis : x y z
#
# Youngs Moduli (GPa) = 28.58494 104.45409 62.48512
#
# Poissons Ratio (x) = -0.22929 -0.04924
# Poissons Ratio (y) = -0.06275 0.19642
# Poissons Ratio (z) = -0.02253 0.32835
#
# Static dielectric constant tensor:
#      x y z
#    x 1.851900 0.000000 0.001690 
#    y 0.000000 1.816380 0.000000 
#    z 0.001690 0.000000 1.843430 
# 
# From -- ./inp_files/287562.got.cif
#   From: 2010.05.17/outbox.cif.g08.bks.cpg/sg15_144_cif.got.tgz:287562.got - 2010.06.03 18:47:42.
