data_PCOD9282629
_publ_section_title
;
Structure prediction by ZEFSAII (Michael W. Deem and Ramdas Pophale) SiO2 
 PCOD9282629
Probable space group: C 2/C
;
_chemical_formula_sum "Si O2"
_cell_formula_units_Z 48
_cell_length_a 30.458533
_cell_length_b 14.080945
_cell_length_c 7.783292
_cell_angle_alpha 90.000000
_cell_angle_beta 148.251519
_cell_angle_gamma 90.000000
_cell_volume 1756.498717
_symmetry_space_group_name_H-M "C 2/C"
_symmetry_group_IT_number 15
_symmetry_cell_setting 'monoclinic'
loop_
_space_group_symop_operation_xyz
x,y,z
-x,y,1/2-z
-x,-y,-z
x,-y,1/2+z
1/2+x,1/2+y,z
1/2-x,1/2+y,1/2-z
1/2-x,1/2-y,-z
1/2+x,1/2-y,1/2+z
loop_
_atom_site_type_symbol
_atom_site_label
_atom_site_fract_x
_atom_site_fract_y
_atom_site_fract_z
Si Si1 0.318647 0.131167 0.164750
Si Si2 0.848378 0.049929 0.052248
Si Si3 0.073408 0.790883 0.857251
Si Si4 0.626941 0.189155 0.690989
Si Si5 0.407695 0.987350 0.254771
Si Si6 0.676685 0.646913 0.159529
O O1 0.344830 0.240139 0.281528
O O2 0.348559 0.071122 0.429525
O O3 0.373987 0.088617 0.196131
O O4 0.229021 0.093842 0.811957
O O5 0.849136 0.936196 0.055857
O O6 0.923297 0.100679 0.198893
O O7 0.832841 0.091696 0.189618
O O8 0.077396 0.735734 0.686679
O O9 0.000000 0.775817 0.750000
O O10 0.596612 0.081618 0.591502
O O11 0.621335 0.260326 0.511591
O O12 0.728133 0.180788 0.056012
O O13 0.500000 0.000000 0.500000
#
# Coordination Sequence:
#
# PCOD9282629 Si02
#       6
#     8   8   8   8   8   8
#     4  11  21  36  57  91 124 159 206 255 313 381
#     4  11  22  39  63  96 120 168 216 263 315 382
#     4  10  22  41  63  90 126 166 211 267 325 379
#     4   9  20  38  61  87 130 166 200 259 332 368
#     4  11  21  35  58  88 127 165 197 250 321 382
#     4  10  21  39  63  93 126 163 213 267 314 374
#
# _framework density 27.327089999999998
#
# number of rings (size 3 to 8) (size 9 to 14) (size 15 to 20)
#    0.000    1.667    1.667    4.000    2.333    0.000 
#    3.000    3.333    0.000    2.000    0.000    0.000 
#    0.000    0.000    0.000    0.000    0.000    0.000 
#
# Total GULP energy -134280.653459 kJ/mol
# GULP energy per Si atom -5595.027227 kJ/mol
# Density = 2.726489 g / cm^3
# Si number density = 27.327090 Si / 1000 Ang^3
#
#
#
# Elastic Constant Matrix: (Units=GPa)
#
#
# Indices 1 2 3 4 5 6 
#
# 1 177.5330 49.6433 24.2117 0.0000 15.8662 0.0000
# 2 49.6433 168.8539 -9.2734 0.0000 6.1925 0.0000
# 3 24.2117 -9.2734 30.6079 0.0000 -7.0520 0.0000
# 4 0.0000 0.0000 0.0000 13.4210 0.0000 -7.1217
# 5 15.8662 6.1925 -7.0520 0.0000 46.5445 0.0000
# 6 0.0000 0.0000 0.0000 -7.1217 0.0000 54.7016
#
#
#
# Elastic Compliance Matrix: (Units=1/GPa)
#
#
# Indices 1 2 3 4 5 6 
#
# 1 0.007701 -0.002558 -0.007660 0.000000 -0.003445 0.000000
# 2 -0.002558 0.006886 0.004248 0.000000 0.000600 0.000000
# 3 -0.007660 0.004248 0.041954 0.000000 0.008403 0.000000
# 4 0.000000 0.000000 0.000000 0.080040 0.000000 0.010421
# 5 -0.003445 0.000600 0.008403 0.000000 0.023853 0.000000
# 6 0.000000 0.000000 0.000000 0.010421 0.000000 0.019638
#
#
# Mechanical properties :
#
#
# Convention : Reuss Voigt Hill
#
# Bulk Modulus (GPa) = 22.42198 56.23977 39.33088
# Shear Modulus (GPa) = 24.16878 43.76096 33.96487
#
# Velocity S-wave (km/s) = 2.97716 4.00606 3.52930
# Velocity P-wave (km/s) = 4.47669 6.48251 5.57063
#
# Compressibility (1/GPa) = 0.04459909
#
# Stress axis : x y z
#
# Youngs Moduli (GPa) = 129.85672 145.22702 23.83564
#
# Poissons Ratio (x) = 0.37155 0.18259
# Poissons Ratio (y) = 0.33223 -0.10126
# Poissons Ratio (z) = 0.99476 -0.61695
#
# Static dielectric constant tensor:
#      x y z
#    x 2.173970 0.000000 -0.094080 
#    y 0.000000 2.405910 0.000000 
#    z -0.094080 0.000000 1.807650 
# 
# From -- ./inp_files/70021.got.cif
#   From: 2010.05.17/outbox.cif.g08.bks.cpg/sg15_36_cif.got.tgz:70021.got - 2010.06.03 18:47:42.
