data_PCOD9282061
_publ_section_title
;
Structure prediction by ZEFSAII (Michael W. Deem and Ramdas Pophale) SiO2 
 PCOD9282061
Probable space group: C 2/C
;
_chemical_formula_sum "Si O2"
_cell_formula_units_Z 64
_cell_length_a 20.141410
_cell_length_b 10.500928
_cell_length_c 17.865233
_cell_angle_alpha 90.000000
_cell_angle_beta 140.141177
_cell_angle_gamma 90.000000
_cell_volume 2421.671529
_symmetry_space_group_name_H-M "C 2/C"
_symmetry_group_IT_number 15
_symmetry_cell_setting 'monoclinic'
loop_
_space_group_symop_operation_xyz
x,y,z
-x,y,1/2-z
-x,-y,-z
x,-y,1/2+z
1/2+x,1/2+y,z
1/2-x,1/2+y,1/2-z
1/2-x,1/2-y,-z
1/2+x,1/2-y,1/2+z
loop_
_atom_site_type_symbol
_atom_site_label
_atom_site_fract_x
_atom_site_fract_y
_atom_site_fract_z
Si Si1 0.947517 0.721552 0.282094
Si Si2 0.724316 0.282519 0.563784
Si Si3 0.911898 0.679391 0.951559
Si Si4 0.598497 0.485530 0.792967
Si Si5 0.911412 0.678038 0.505541
Si Si6 0.798499 0.611003 0.545897
Si Si7 0.202935 0.899390 0.739392
Si Si8 0.812234 0.047728 0.916840
O O1 0.831950 0.672504 0.191644
O O2 0.000000 0.669799 0.250000
O O3 0.005239 0.706186 0.410199
O O4 0.929314 0.869668 0.248514
O O5 0.750000 0.250000 0.500000
O O6 0.681816 0.156186 0.568980
O O7 0.653718 0.409949 0.517025
O O8 0.986035 0.631042 0.948714
O O9 0.847147 0.786127 0.850992
O O10 0.500000 0.426876 0.750000
O O11 0.704604 0.472071 0.930918
O O12 0.623227 0.420215 0.736878
O O13 0.895800 0.616799 0.574667
O O14 0.813687 0.631256 0.371092
O O15 0.891473 0.832313 0.492042
O O16 0.750000 0.750000 0.500000
O O17 0.792646 0.584894 0.629043
O O18 0.206790 0.018912 0.686491
#
# Coordination Sequence:
#
# PCOD9282061 Si02
#       8
#     8   8   8   8   8   8   8   8
#     4  11  22  38  60  93 129 162 209 272 332 378
#     4  11  22  38  61  96 128 166 213 266 326 393
#     4  11  22  37  64  89 127 161 211 268 330 380
#     4  10  22  35  60  95 128 160 212 276 329 382
#     4  10  22  42  61  92 129 167 210 265 327 383
#     4   9  20  38  61  89 126 170 204 259 318 387
#     4  10  23  37  61  95 125 164 211 272 319 388
#     4  10  21  38  69  88 127 167 216 262 329 377
#
# _framework density 26.428027
#
# number of rings (size 3 to 8) (size 9 to 14) (size 15 to 20)
#    0.000    1.750    1.250    3.000    8.750    2.500 
#    0.000    0.000    2.750   11.250    0.000    0.000 
#    0.000    0.000    0.000    0.000    0.000    0.000 
#
# Total GULP energy -178479.056049 kJ/mol
# GULP energy per Si atom -5577.470502 kJ/mol
# Density = 2.636788 g / cm^3
# Si number density = 26.428027 Si / 1000 Ang^3
#
#
#
# Elastic Constant Matrix: (Units=GPa)
#
#
# Indices 1 2 3 4 5 6 
#
# 1 236.0840 4.6255 16.9386 0.0000 9.2259 0.0000
# 2 4.6255 70.2793 3.2645 0.0000 3.4865 0.0000
# 3 16.9386 3.2645 50.1200 0.0000 -0.1171 0.0000
# 4 0.0000 0.0000 0.0000 15.7599 0.0000 -9.0092
# 5 9.2259 3.4865 -0.1171 0.0000 45.8421 0.0000
# 6 0.0000 0.0000 0.0000 -9.0092 0.0000 36.1377
#
#
#
# Elastic Compliance Matrix: (Units=1/GPa)
#
#
# Indices 1 2 3 4 5 6 
#
# 1 0.004379 -0.000177 -0.001470 0.000000 -0.000872 0.000000
# 2 -0.000177 0.014334 -0.000876 0.000000 -0.001057 0.000000
# 3 -0.001470 -0.000876 0.020507 0.000000 0.000415 0.000000
# 4 0.000000 0.000000 0.000000 0.073998 0.000000 0.018448
# 5 -0.000872 -0.001057 0.000415 0.000000 0.022071 0.000000
# 6 0.000000 0.000000 0.000000 0.018448 0.000000 0.032271
#
#
# Mechanical properties :
#
#
# Convention : Reuss Voigt Hill
#
# Bulk Modulus (GPa) = 29.26306 45.12672 37.19489
# Shear Modulus (GPa) = 27.17437 41.65825 34.41631
#
# Velocity S-wave (km/s) = 3.21010 3.97456 3.61261
# Velocity P-wave (km/s) = 4.98361 6.17861 5.61300
#
# Compressibility (1/GPa) = 0.03417277
#
# Stress axis : x y z
#
# Youngs Moduli (GPa) = 228.37312 69.76561 48.76363
#
# Poissons Ratio (x) = 0.01232 0.07170
# Poissons Ratio (y) = 0.04034 0.04273
# Poissons Ratio (z) = 0.33580 0.06114
#
# Static dielectric constant tensor:
#      x y z
#    x 2.301190 0.000000 -0.025880 
#    y 0.000000 2.186810 0.000000 
#    z -0.025880 0.000000 2.092570 
# 
# From -- ./inp_files/252591.got.cif
#   From: 2010.05.17/outbox.cif.g08.bks.cpg/sg15_127_cif.got.tgz:252591.got - 2010.06.03 18:47:42.
