data_PCOD9282982
_publ_section_title
;
Structure prediction by ZEFSAII (Michael W. Deem and Ramdas Pophale) SiO2 
 PCOD9282982
Probable space group: C 2/C
;
_chemical_formula_sum "Si O2"
_cell_formula_units_Z 56
_cell_length_a 11.007780
_cell_length_b 8.579574
_cell_length_c 26.787656
_cell_angle_alpha 90.000000
_cell_angle_beta 114.799650
_cell_angle_gamma 90.000000
_cell_volume 2296.575929
_symmetry_space_group_name_H-M "C 2/C"
_symmetry_group_IT_number 15
_symmetry_cell_setting 'monoclinic'
loop_
_space_group_symop_operation_xyz
x,y,z
-x,y,1/2-z
-x,-y,-z
x,-y,1/2+z
1/2+x,1/2+y,z
1/2-x,1/2+y,1/2-z
1/2-x,1/2-y,-z
1/2+x,1/2-y,1/2+z
loop_
_atom_site_type_symbol
_atom_site_label
_atom_site_fract_x
_atom_site_fract_y
_atom_site_fract_z
Si Si1 0.103933 0.319081 0.990595
Si Si2 0.406067 0.702387 0.037216
Si Si3 0.345053 0.672250 0.762384
Si Si4 0.231647 0.890421 0.811686
Si Si5 0.712650 0.515697 0.913829
Si Si6 0.640602 0.800852 0.836209
Si Si7 0.980860 0.487946 0.117241
O O1 0.148183 0.468821 0.032140
O O2 0.004197 0.214163 0.006628
O O3 0.250000 0.250000 0.000000
O O4 0.038595 0.379947 0.928620
O O5 0.395177 0.536221 0.063545
O O6 0.460338 0.825501 0.086987
O O7 0.250000 0.750000 0.000000
O O8 0.351433 0.500956 0.739965
O O9 0.492299 0.726287 0.804310
O O10 0.301488 0.784984 0.708802
O O11 0.250335 0.720049 0.791746
O O12 0.196959 0.899538 0.864141
O O13 0.373571 0.983545 0.835340
O O14 0.708055 0.682809 0.886197
O O15 0.625509 0.968195 0.858391
#
# Coordination Sequence:
#
# PCOD9282982 Si02
#       7
#     8   8   8   8   8   8   8
#     4  12  24  44  67  96 143 183 223 276 336 413
#     4  12  25  40  65  98 135 175 223 273 331 395
#     4   9  20  38  61  90 124 168 217 276 338 399
#     4  10  21  39  66  90 130 174 218 284 342 398
#     4  11  22  42  64  96 132 176 224 279 334 405
#     4   9  20  40  61  87 128 172 217 273 337 400
#     4  11  21  40  65  92 132 178 216 276 341 393
#
# _framework density 24.384129000000001
#
# number of rings (size 3 to 8) (size 9 to 14) (size 15 to 20)
#    0.000    1.429    4.286    1.286    0.000    2.857 
#    0.000    0.000    0.000    0.000    0.000    0.000 
#    0.000    0.000    0.000    0.000    0.000    0.000 
#
# Total GULP energy -156269.769900 kJ/mol
# GULP energy per Si atom -5581.063211 kJ/mol
# Density = 2.432863 g / cm^3
# Si number density = 24.384129 Si / 1000 Ang^3
#
#
#
# Elastic Constant Matrix: (Units=GPa)
#
#
# Indices 1 2 3 4 5 6 
#
# 1 119.1485 30.1705 24.0620 0.0000 -26.9844 0.0000
# 2 30.1705 30.3500 4.5073 0.0000 -0.5688 0.0000
# 3 24.0620 4.5073 79.2329 0.0000 -2.2915 0.0000
# 4 0.0000 0.0000 0.0000 32.8082 0.0000 -11.1782
# 5 -26.9844 -0.5688 -2.2915 0.0000 38.0544 0.0000
# 6 0.0000 0.0000 0.0000 -11.1782 0.0000 38.3999
#
#
#
# Elastic Compliance Matrix: (Units=1/GPa)
#
#
# Indices 1 2 3 4 5 6 
#
# 1 0.015002 -0.014209 -0.003452 0.000000 0.010218 0.000000
# 2 -0.014209 0.046694 0.001390 0.000000 -0.009294 0.000000
# 3 -0.003452 0.001390 0.013544 0.000000 -0.001612 0.000000
# 4 0.000000 0.000000 0.000000 0.033836 0.000000 0.009850
# 5 0.010218 -0.009294 -0.001612 0.000000 0.033288 0.000000
# 6 0.000000 0.000000 0.000000 0.009850 0.000000 0.028909
#
#
# Mechanical properties :
#
#
# Convention : Reuss Voigt Hill
#
# Bulk Modulus (GPa) = 23.42096 38.46791 30.94443
# Shear Modulus (GPa) = 22.93083 33.18525 28.05804
#
# Velocity S-wave (km/s) = 3.06992 3.69309 3.39583
# Velocity P-wave (km/s) = 4.71081 5.83055 5.30033
#
# Compressibility (1/GPa) = 0.04269681
#
# Stress axis : x y z
#
# Youngs Moduli (GPa) = 66.65694 21.41626 73.83502
#
# Poissons Ratio (x) = 0.30431 0.25489
# Poissons Ratio (y) = 0.94715 -0.10264
# Poissons Ratio (z) = 0.23011 -0.02977
#
# Static dielectric constant tensor:
#      x y z
#    x 2.025970 0.000000 -0.003720 
#    y 0.000000 1.993240 0.000000 
#    z -0.003720 0.000000 1.964510 
# 
# From -- ./inp_files/310373.got.cif
#   From: 2010.05.17/outbox.cif.g08.bks.cpg/sg15_156_cif.got.tgz:310373.got - 2010.06.03 18:47:42.
