data_PCOD9282895
_publ_section_title
;
Structure prediction by ZEFSAII (Michael W. Deem and Ramdas Pophale) SiO2 
 PCOD9282895
Probable space group: C 2/C
;
_chemical_formula_sum "Si O2"
_cell_formula_units_Z 48
_cell_length_a 15.717994
_cell_length_b 9.319764
_cell_length_c 18.792199
_cell_angle_alpha 90.000000
_cell_angle_beta 125.665907
_cell_angle_gamma 90.000000
_cell_volume 2236.484614
_symmetry_space_group_name_H-M "C 2/C"
_symmetry_group_IT_number 15
_symmetry_cell_setting 'monoclinic'
loop_
_space_group_symop_operation_xyz
x,y,z
-x,y,1/2-z
-x,-y,-z
x,-y,1/2+z
1/2+x,1/2+y,z
1/2-x,1/2+y,1/2-z
1/2-x,1/2-y,-z
1/2+x,1/2-y,1/2+z
loop_
_atom_site_type_symbol
_atom_site_label
_atom_site_fract_x
_atom_site_fract_y
_atom_site_fract_z
Si Si1 0.334442 0.548983 0.855594
Si Si2 0.243009 0.597750 0.534642
Si Si3 0.473589 0.531289 0.627377
Si Si4 0.720757 0.245441 0.304213
Si Si5 0.805297 0.638284 0.580109
Si Si6 0.000000 0.282445 0.750000
Si Si7 0.500000 0.294123 0.750000
O O1 0.460386 0.550930 0.911222
O O2 0.300200 0.657003 0.775187
O O3 0.298205 0.384892 0.827101
O O4 0.279306 0.598382 0.900672
O O5 0.250000 0.750000 0.500000
O O6 0.349962 0.512027 0.569000
O O7 0.239565 0.642553 0.615528
O O8 0.160693 0.495874 0.454224
O O9 0.480173 0.678767 0.673809
O O10 0.527574 0.405853 0.700048
O O11 0.615471 0.163713 0.283948
O O12 0.750000 0.750000 0.500000
O O13 0.905215 0.701405 0.671686
#
# Coordination Sequence:
#
# PCOD9282895 Si02
#       7
#     8   8   8   8   8   4   4
#     4  11  23  40  66 102 134 180 230 282 345 407
#     4  11  22  45  68  99 136 183 230 285 347 415
#     4   9  19  39  69  90 129 178 224 268 342 417
#     4  10  21  39  65  93 135 175 229 283 340 412
#     4  12  26  44  71 102 140 182 232 287 341 417
#     4   7  16  33  60  88 117 173 216 256 331 399
#     4  11  22  45  70 102 135 187 230 280 357 411
#
# _framework density 21.462253
#
# number of rings (size 3 to 8) (size 9 to 14) (size 15 to 20)
#    0.000    1.667    3.333    2.000    2.333    1.333 
#    3.000    0.000    0.000    5.000    0.000    0.000 
#    0.000    0.000    0.000    0.000    0.000    0.000 
#
# Total GULP energy -133650.718033 kJ/mol
# GULP energy per Si atom -5568.779918 kJ/mol
# Density = 2.141340 g / cm^3
# Si number density = 21.462253 Si / 1000 Ang^3
#
#
#
# Elastic Constant Matrix: (Units=GPa)
#
#
# Indices 1 2 3 4 5 6 
#
# 1 100.6164 23.2455 14.6555 0.0000 -14.5365 0.0000
# 2 23.2455 100.6641 39.2702 0.0000 -11.0929 0.0000
# 3 14.6555 39.2702 104.0796 0.0000 -26.2635 0.0000
# 4 0.0000 0.0000 0.0000 37.3123 0.0000 -1.2440
# 5 -14.5365 -11.0929 -26.2635 0.0000 37.5490 0.0000
# 6 0.0000 0.0000 0.0000 -1.2440 0.0000 25.4007
#
#
#
# Elastic Compliance Matrix: (Units=1/GPa)
#
#
# Indices 1 2 3 4 5 6 
#
# 1 0.010957 -0.002209 0.000239 0.000000 0.003756 0.000000
# 2 -0.002209 0.012100 -0.004333 0.000000 -0.000311 0.000000
# 3 0.000239 -0.004333 0.013248 0.000000 0.008078 0.000000
# 4 0.000000 0.000000 0.000000 0.026845 0.000000 0.001315
# 5 0.003756 -0.000311 0.008078 0.000000 0.033644 0.000000
# 6 0.000000 0.000000 0.000000 0.001315 0.000000 0.039433
#
#
# Mechanical properties :
#
#
# Convention : Reuss Voigt Hill
#
# Bulk Modulus (GPa) = 42.19853 51.07805 46.63829
# Shear Modulus (GPa) = 31.90109 35.26499 33.58304
#
# Velocity S-wave (km/s) = 3.85954 4.05794 3.95998
# Velocity P-wave (km/s) = 6.29014 6.76805 6.53347
#
# Compressibility (1/GPa) = 0.02369751
#
# Stress axis : x y z
#
# Youngs Moduli (GPa) = 91.26519 82.64273 75.48400
#
# Poissons Ratio (x) = 0.18259 -0.01801
# Poissons Ratio (y) = 0.20164 0.32707
# Poissons Ratio (z) = -0.02177 0.35809
#
# Static dielectric constant tensor:
#      x y z
#    x 1.593540 0.000000 0.077170 
#    y 0.000000 1.805490 0.000000 
#    z 0.077170 0.000000 1.914020 
# 
# From -- ./inp_files/247671.got.cif
#   From: 2010.05.17/outbox.cif.g08.bks.cpg/sg15_124_cif.got.tgz:247671.got - 2010.06.03 18:47:42.
