data_PCOD9282139
_publ_section_title
;
Structure prediction by ZEFSAII (Michael W. Deem and Ramdas Pophale) SiO2 
 PCOD9282139
Probable space group: C 2/C
;
_chemical_formula_sum "Si O2"
_cell_formula_units_Z 44
_cell_length_a 21.230438
_cell_length_b 14.222567
_cell_length_c 11.779212
_cell_angle_alpha 90.000000
_cell_angle_beta 143.883182
_cell_angle_gamma 90.000000
_cell_volume 2096.466834
_symmetry_space_group_name_H-M "C 2/C"
_symmetry_group_IT_number 15
_symmetry_cell_setting 'monoclinic'
loop_
_space_group_symop_operation_xyz
x,y,z
-x,y,1/2-z
-x,-y,-z
x,-y,1/2+z
1/2+x,1/2+y,z
1/2-x,1/2+y,1/2-z
1/2-x,1/2-y,-z
1/2+x,1/2-y,1/2+z
loop_
_atom_site_type_symbol
_atom_site_label
_atom_site_fract_x
_atom_site_fract_y
_atom_site_fract_z
Si Si1 0.058265 0.685455 0.562611
Si Si2 0.500000 0.077971 0.250000
Si Si3 0.672157 0.924062 0.426095
Si Si4 0.419029 0.440484 0.529312
Si Si5 0.101132 0.741148 0.981711
Si Si6 0.618503 0.396046 0.670199
O O1 0.034187 0.640606 0.406760
O O2 0.124057 0.615511 0.739930
O O3 0.119406 0.785210 0.646031
O O4 0.948056 0.705335 0.471896
O O5 0.599220 0.010888 0.358447
O O6 0.660294 0.842496 0.504596
O O7 0.799505 0.933519 0.614242
O O8 0.500000 0.459120 0.750000
O O9 0.349338 0.345308 0.441093
O O10 0.498973 0.411169 0.543200
O O11 0.361843 0.535535 0.407784
O O12 0.000000 0.757555 0.750000
#
# Coordination Sequence:
#
# PCOD9282139 Si02
#       6
#     8   4   8   8   8   8
#     4  10  21  39  57  84 118 152 191 239 290 349
#     4  12  24  36  62  86 126 152 186 248 304 326
#     4  11  21  37  60  89 111 157 199 235 281 357
#     4   9  19  38  59  82 116 153 187 240 285 345
#     4   8  16  35  61  78 111 151 186 229 282 336
#     4  10  22  36  61  87 113 151 200 234 290 343
#
# _framework density 20.987691999999999
#
# number of rings (size 3 to 8) (size 9 to 14) (size 15 to 20)
#    0.000    2.182    2.727    2.182    1.273    2.909 
#    0.000    0.000    0.000    4.364    0.000    0.000 
#    0.000    0.000    0.000    0.000    0.000    0.000 
#
# Total GULP energy -122670.769631 kJ/mol
# GULP energy per Si atom -5575.944074 kJ/mol
# Density = 2.093992 g / cm^3
# Si number density = 20.987692 Si / 1000 Ang^3
#
#
#
# Elastic Constant Matrix: (Units=GPa)
#
#
# Indices 1 2 3 4 5 6 
#
# 1 56.0695 33.3343 33.3845 0.0000 -13.8370 0.0000
# 2 33.3343 83.1456 50.0723 0.0000 -30.8290 0.0000
# 3 33.3845 50.0723 87.9558 0.0000 -29.4344 0.0000
# 4 0.0000 0.0000 0.0000 31.7136 0.0000 -9.8967
# 5 -13.8370 -30.8290 -29.4344 0.0000 37.1535 0.0000
# 6 0.0000 0.0000 0.0000 -9.8967 0.0000 11.7276
#
#
#
# Elastic Compliance Matrix: (Units=1/GPa)
#
#
# Indices 1 2 3 4 5 6 
#
# 1 0.025255 -0.006905 -0.006021 0.000000 -0.001094 0.000000
# 2 -0.006905 0.022991 -0.006728 0.000000 0.011176 0.000000
# 3 -0.006021 -0.006728 0.020229 0.000000 0.008202 0.000000
# 4 0.000000 0.000000 0.000000 0.042804 0.000000 0.036122
# 5 -0.001094 0.011176 0.008202 0.000000 0.042279 0.000000
# 6 0.000000 0.000000 0.000000 0.036122 0.000000 0.115752
#
#
# Mechanical properties :
#
#
# Convention : Reuss Voigt Hill
#
# Bulk Modulus (GPa) = 34.28388 51.19477 42.73933
# Shear Modulus (GPa) = 15.70650 23.47759 19.59205
#
# Velocity S-wave (km/s) = 2.73860 3.34823 3.05864
# Velocity P-wave (km/s) = 5.13523 6.27640 5.73428
#
# Compressibility (1/GPa) = 0.02916823
#
# Stress axis : x y z
#
# Youngs Moduli (GPa) = 39.59602 43.49617 49.43316
#
# Poissons Ratio (x) = 0.30032 0.29764
# Poissons Ratio (y) = 0.27340 0.33257
# Poissons Ratio (z) = 0.23841 0.29263
#
# Static dielectric constant tensor:
#      x y z
#    x 1.871180 0.000000 0.058230 
#    y 0.000000 1.826530 0.000000 
#    z 0.058230 0.000000 1.773260 
# 
# From -- ./inp_files/118108.got.cif
#   From: 2010.05.17/outbox.cif.g08.bks.cpg/sg15_60_cif.got.tgz:118108.got - 2010.06.03 18:47:42.
