data_PCOD9282850
_publ_section_title
;
Structure prediction by ZEFSAII (Michael W. Deem and Ramdas Pophale) SiO2 
 PCOD9282850
Probable space group: C 2/C
;
_chemical_formula_sum "Si O2"
_cell_formula_units_Z 60
_cell_length_a 9.092833
_cell_length_b 26.894479
_cell_length_c 20.584328
_cell_angle_alpha 90.000000
_cell_angle_beta 40.800777
_cell_angle_gamma 90.000000
_cell_volume 3289.263696
_symmetry_space_group_name_H-M "C 2/C"
_symmetry_group_IT_number 15
_symmetry_cell_setting 'monoclinic'
loop_
_space_group_symop_operation_xyz
x,y,z
-x,y,1/2-z
-x,-y,-z
x,-y,1/2+z
1/2+x,1/2+y,z
1/2-x,1/2+y,1/2-z
1/2-x,1/2-y,-z
1/2+x,1/2-y,1/2+z
loop_
_atom_site_type_symbol
_atom_site_label
_atom_site_fract_x
_atom_site_fract_y
_atom_site_fract_z
Si Si1 0.333625 0.711416 0.387360
Si Si2 0.284895 0.501886 0.524592
Si Si3 0.469627 0.808911 0.116932
Si Si4 0.435480 0.496514 0.196246
Si Si5 0.052465 0.415936 0.308932
Si Si6 0.555898 0.922419 0.806965
Si Si7 0.316754 0.184914 0.204439
Si Si8 0.500000 0.743736 0.750000
O O1 0.417981 0.767508 0.373317
O O2 0.145614 0.691762 0.499064
O O3 0.565000 0.680684 0.318693
O O4 0.232991 0.707144 0.349383
O O5 0.500000 0.500000 0.500000
O O6 0.365569 0.498779 0.423151
O O7 0.137136 0.550307 0.592141
O O8 0.132862 0.455061 0.594958
O O9 0.440970 0.861999 0.160355
O O10 0.227268 0.788696 0.174112
O O11 0.500000 0.497674 0.250000
O O12 0.283172 0.447402 0.236662
O O13 0.279500 0.544271 0.234858
O O14 0.000000 0.411695 0.250000
O O15 0.500000 0.914433 0.750000
O O16 0.582631 0.869669 0.831939
O O17 0.468568 0.220513 0.198109
#
# Coordination Sequence:
#
# PCOD9282850 Si02
#       8
#     8   8   8   8   8   8   8   4
#     4   9  22  42  62  91 128 161 213 252 313 372
#     4  11  21  43  65  89 127 164 208 260 306 385
#     4  10  23  41  64  92 127 167 207 256 308 378
#     4  11  25  41  63  95 127 157 205 267 311 365
#     4  11  24  41  66  93 122 170 212 246 319 385
#     4  11  22  38  64  93 122 164 214 248 312 382
#     4  10  21  39  65  91 124 163 202 262 313 360
#     4  10  22  40  60  92 130 158 202 268 300 364
#
# _framework density 18.241164999999999
#
# number of rings (size 3 to 8) (size 9 to 14) (size 15 to 20)
#    0.000    1.600    3.333    0.800    8.400    3.733 
#    2.400    0.000    0.000    0.000    0.000    0.000 
#    0.000    0.000    0.000    0.000    0.000    0.000 
#
# Total GULP energy -167454.171795 kJ/mol
# GULP energy per Si atom -5581.805726 kJ/mol
# Density = 1.819965 g / cm^3
# Si number density = 18.241165 Si / 1000 Ang^3
#
#
#
# Elastic Constant Matrix: (Units=GPa)
#
#
# Indices 1 2 3 4 5 6 
#
# 1 125.4037 59.6460 49.1343 0.0000 11.3240 0.0001
# 2 59.6460 118.5251 55.5193 -0.0001 -4.0212 0.0002
# 3 49.1343 55.5193 131.8113 -0.0002 6.1035 0.0004
# 4 0.0000 -0.0001 -0.0002 19.4873 0.0000 -21.0461
# 5 11.3240 -4.0212 6.1035 0.0000 24.3767 -0.0001
# 6 0.0001 0.0002 0.0004 -21.0461 -0.0001 98.6416
#
#
#
# Elastic Compliance Matrix: (Units=1/GPa)
#
#
# Indices 1 2 3 4 5 6 
#
# 1 0.011723 -0.005203 -0.001909 0.000000 -0.005826 0.000000
# 2 -0.005203 0.013023 -0.003801 0.000000 0.005517 0.000000
# 3 -0.001909 -0.003801 0.010003 0.000000 -0.002245 0.000000
# 4 0.000000 0.000000 0.000000 0.066680 0.000000 0.014227
# 5 -0.005826 0.005517 -0.002245 0.000000 0.045202 0.000000
# 6 0.000000 0.000000 0.000000 0.014227 0.000000 0.013173
#
#
# Mechanical properties :
#
#
# Convention : Reuss Voigt Hill
#
# Bulk Modulus (GPa) = 77.37955 78.25992 77.81974
# Shear Modulus (GPa) = 26.89069 42.59715 34.74392
#
# Velocity S-wave (km/s) = 3.84367 4.83766 4.36902
# Velocity P-wave (km/s) = 7.88738 8.61394 8.25865
#
# Compressibility (1/GPa) = 0.01292331
#
# Stress axis : x y z
#
# Youngs Moduli (GPa) = 85.30340 76.78605 99.96859
#
# Poissons Ratio (x) = 0.39952 0.19079
# Poissons Ratio (y) = 0.44384 0.38002
# Poissons Ratio (z) = 0.16280 0.29189
#
# Static dielectric constant tensor:
#      x y z
#    x 1.633160 0.000000 0.036800 
#    y 0.000000 1.606930 0.000000 
#    z 0.036800 0.000000 1.718140 
# 
# From -- ./inp_files/234777.got.cif
#   From: 2010.05.17/outbox.cif.g08.bks.cpg/sg15_118_cif.got.tgz:234777.got - 2010.06.03 18:47:42.
