data_PCOD9282702
_publ_section_title
;
Structure prediction by ZEFSAII (Michael W. Deem and Ramdas Pophale) SiO2 
 PCOD9282702
Probable space group: C 2/C
;
_chemical_formula_sum "Si O2"
_cell_formula_units_Z 52
_cell_length_a 11.542137
_cell_length_b 29.205086
_cell_length_c 12.508030
_cell_angle_alpha 90.000000
_cell_angle_beta 140.461186
_cell_angle_gamma 90.000000
_cell_volume 2684.113071
_symmetry_space_group_name_H-M "C 2/C"
_symmetry_group_IT_number 15
_symmetry_cell_setting 'monoclinic'
loop_
_space_group_symop_operation_xyz
x,y,z
-x,y,1/2-z
-x,-y,-z
x,-y,1/2+z
1/2+x,1/2+y,z
1/2-x,1/2+y,1/2-z
1/2-x,1/2-y,-z
1/2+x,1/2-y,1/2+z
loop_
_atom_site_type_symbol
_atom_site_label
_atom_site_fract_x
_atom_site_fract_y
_atom_site_fract_z
Si Si1 0.907878 0.882317 0.067605
Si Si2 0.736206 0.287578 0.584011
Si Si3 0.467381 0.181362 0.849381
Si Si4 0.211771 0.971169 0.423337
Si Si5 0.366246 0.248402 0.383985
Si Si6 0.000000 0.465571 0.250000
Si Si7 0.786292 0.408395 0.271432
O O1 0.190287 0.930979 0.495984
O O2 0.080991 0.888517 0.112947
O O3 0.000000 0.874837 0.250000
O O4 0.774444 0.839936 0.957884
O O5 0.750000 0.250000 0.500000
O O6 0.545102 0.279317 0.508786
O O7 0.876802 0.277314 0.777458
O O8 0.500000 0.168287 0.750000
O O9 0.300939 0.217217 0.730095
O O10 0.411667 0.136494 0.876429
O O11 0.627122 0.210394 0.018981
O O12 0.275916 0.944176 0.362298
O O13 0.000000 0.987655 0.250000
O O14 0.363217 0.005686 0.575424
O O15 0.867756 0.435070 0.229208
#
# Coordination Sequence:
#
# PCOD9282702 Si02
#       7
#     8   8   8   8   8   4   8
#     4   9  19  37  57  84 125 163 190 249 312 361
#     4  11  20  34  54  89 123 163 195 240 296 369
#     4  11  21  40  58  82 116 164 205 250 297 357
#     4   9  23  40  62  92 121 156 199 260 316 384
#     4  10  23  33  56  84 119 159 204 243 289 354
#     4  12  22  42  68  90 114 166 204 260 330 370
#     4  10  21  39  64  87 122 156 204 254 317 371
#
# _framework density 19.373251
#
# number of rings (size 3 to 8) (size 9 to 14) (size 15 to 20)
#    0.000    2.154    2.308    2.308    6.462    3.692 
#    0.000    1.538    0.000    0.000    0.000    0.000 
#    0.000    0.000    0.000    0.000    0.000    0.000 
#
# Total GULP energy -144804.902453 kJ/mol
# GULP energy per Si atom -5569.419325 kJ/mol
# Density = 1.932916 g / cm^3
# Si number density = 19.373251 Si / 1000 Ang^3
#
#
#
# Elastic Constant Matrix: (Units=GPa)
#
#
# Indices 1 2 3 4 5 6 
#
# 1 88.0702 34.1464 17.5598 0.0000 -0.2294 0.0000
# 2 34.1464 91.3610 33.5923 0.0000 5.3899 0.0000
# 3 17.5598 33.5923 60.9140 0.0000 0.3556 0.0000
# 4 0.0000 0.0000 0.0000 23.4246 0.0000 2.4203
# 5 -0.2294 5.3899 0.3556 0.0000 22.0441 0.0000
# 6 0.0000 0.0000 0.0000 2.4203 0.0000 29.1808
#
#
#
# Elastic Compliance Matrix: (Units=1/GPa)
#
#
# Indices 1 2 3 4 5 6 
#
# 1 0.013406 -0.004594 -0.001339 0.000000 0.001284 0.000000
# 2 -0.004594 0.015538 -0.007223 0.000000 -0.003730 0.000000
# 3 -0.001339 -0.007223 0.020777 0.000000 0.001417 0.000000
# 4 0.000000 0.000000 0.000000 0.043059 0.000000 -0.003571
# 5 0.001284 -0.003730 0.001417 0.000000 0.046266 0.000000
# 6 0.000000 0.000000 0.000000 -0.003571 0.000000 0.034565
#
#
# Mechanical properties :
#
#
# Convention : Reuss Voigt Hill
#
# Bulk Modulus (GPa) = 42.71536 45.66022 44.18779
# Shear Modulus (GPa) = 24.07001 25.26636 24.66818
#
# Velocity S-wave (km/s) = 3.52864 3.61527 3.57222
# Velocity P-wave (km/s) = 6.22079 6.40678 6.31447
#
# Compressibility (1/GPa) = 0.02341078
#
# Stress axis : x y z
#
# Youngs Moduli (GPa) = 74.59329 64.35630 48.12925
#
# Poissons Ratio (x) = 0.29566 0.06442
# Poissons Ratio (y) = 0.34269 0.34763
# Poissons Ratio (z) = 0.09985 0.46484
#
# Static dielectric constant tensor:
#      x y z
#    x 1.718720 0.000000 0.012010 
#    y 0.000000 1.699270 0.000000 
#    z 0.012010 0.000000 1.733020 
# 
# From -- ./inp_files/92664.got.cif
#   From: 2010.05.17/outbox.cif.g08.bks.cpg/sg15_47_cif.got.tgz:92664.got - 2010.06.03 18:47:42.
