data_PCOD9282989
_publ_section_title
;
Structure prediction by ZEFSAII (Michael W. Deem and Ramdas Pophale) SiO2 
 PCOD9282989
Probable space group: C 2/C
;
_chemical_formula_sum "Si O2"
_cell_formula_units_Z 44
_cell_length_a 10.458052
_cell_length_b 13.348863
_cell_length_c 18.912442
_cell_angle_alpha 90.000000
_cell_angle_beta 46.545285
_cell_angle_gamma 90.000000
_cell_volume 1916.595074
_symmetry_space_group_name_H-M "C 2/C"
_symmetry_group_IT_number 15
_symmetry_cell_setting 'monoclinic'
loop_
_space_group_symop_operation_xyz
x,y,z
-x,y,1/2-z
-x,-y,-z
x,-y,1/2+z
1/2+x,1/2+y,z
1/2-x,1/2+y,1/2-z
1/2-x,1/2-y,-z
1/2+x,1/2-y,1/2+z
loop_
_atom_site_type_symbol
_atom_site_label
_atom_site_fract_x
_atom_site_fract_y
_atom_site_fract_z
Si Si1 0.422532 0.479599 0.126799
Si Si2 0.926952 0.819190 0.856383
Si Si3 0.500000 0.817029 0.750000
Si Si4 0.773836 0.548651 0.436863
Si Si5 0.688735 0.374461 0.203235
Si Si6 0.441326 0.130940 0.956845
O O1 0.486206 0.586570 0.134454
O O2 0.322105 0.492322 0.091710
O O3 0.287807 0.427674 0.231337
O O4 0.601958 0.415042 0.046474
O O5 0.951618 0.720310 0.894891
O O6 0.000000 0.809616 0.750000
O O7 0.716531 0.839329 0.931482
O O8 0.594363 0.876327 0.651702
O O9 0.354701 0.742354 0.772981
O O10 0.879944 0.469759 0.442320
O O11 0.500000 0.418758 0.250000
O O12 0.861060 0.385004 0.090381
#
# Coordination Sequence:
#
# PCOD9282989 Si02
#       6
#     8   8   4   8   8   8
#     4  10  21  40  64  92 129 160 212 260 322 380
#     4  10  22  40  67  98 128 165 206 270 320 377
#     4  10  22  38  58  86 126 160 212 250 318 360
#     4  10  21  39  66  92 121 169 211 264 313 388
#     4  10  23  40  60  88 133 166 207 270 304 378
#     4  10  22  41  64  98 127 163 219 257 315 383
#
# _framework density 22.957379
#
# number of rings (size 3 to 8) (size 9 to 14) (size 15 to 20)
#    0.545    1.455    0.000    2.727    3.818    2.182 
#    0.000   10.000    0.000    0.000    0.000    0.000 
#    0.000    0.000    0.000    0.000    0.000    0.000 
#
# Total GULP energy -122867.217657 kJ/mol
# GULP energy per Si atom -5584.873530 kJ/mol
# Density = 2.290513 g / cm^3
# Si number density = 22.957379 Si / 1000 Ang^3
#
#
#
# Elastic Constant Matrix: (Units=GPa)
#
#
# Indices 1 2 3 4 5 6 
#
# 1 62.2377 -5.7381 34.0477 -0.0001 -28.3740 0.0000
# 2 -5.7381 63.5930 29.6443 -0.0001 -7.5369 -0.0001
# 3 34.0477 29.6443 151.7144 0.0001 -20.5692 0.0001
# 4 -0.0001 -0.0001 0.0001 -383.2259 0.0000 -286.8248
# 5 -28.3740 -7.5369 -20.5692 0.0000 41.9276 0.0000
# 6 0.0000 -0.0001 0.0001 -286.8248 0.0000 -175.2524
#
#
#
# Elastic Compliance Matrix: (Units=1/GPa)
#
#
# Indices 1 2 3 4 5 6 
#
# 1 0.027394 0.006922 -0.005161 0.000000 0.017251 0.000000
# 2 0.006922 0.019145 -0.004491 0.000000 0.005923 0.000000
# 3 -0.005161 -0.004491 0.008617 0.000000 -0.000073 0.000000
# 4 0.000000 0.000000 0.000000 0.011601 0.000000 -0.018986
# 5 0.017251 0.005923 -0.000073 0.000000 0.036554 0.000000
# 6 0.000000 0.000000 0.000000 -0.018986 0.000000 0.025367
#
#
# Mechanical properties :
#
#
# Convention : Reuss Voigt Hill
#
# Bulk Modulus (GPa) = 20.12260 43.71698 31.91979
# Shear Modulus (GPa) = 33.17755 -88.67075 -27.74660
#
# Velocity S-wave (km/s) = 3.80568 -6.22157 -3.48028
# Velocity P-wave (km/s) = 5.30048 5.70321 1.48853
#
# Compressibility (1/GPa) = 0.04969536
#
# Stress axis : x y z
#
# Youngs Moduli (GPa) = 36.50458 52.23223 116.04417
#
# Poissons Ratio (x) = -0.36157 0.59896
# Poissons Ratio (y) = -0.25270 0.52120
# Poissons Ratio (z) = 0.18842 0.23460
#
# Static dielectric constant tensor:
#      x y z
#    x 1.901200 0.000000 -0.044910 
#    y 0.000000 1.838970 0.000000 
#    z -0.044910 0.000000 1.932060 
# 
# From -- ./inp_files/238620.got.cif
#   From: 2010.05.17/outbox.cif.g08.bks.cpg/sg15_120_cif.got.tgz:238620.got - 2010.06.03 18:47:42.
