data_PCOD9282075
_publ_section_title
;
Structure prediction by ZEFSAII (Michael W. Deem and Ramdas Pophale) SiO2 
 PCOD9282075
Probable space group: C 2/C
;
_chemical_formula_sum "Si O2"
_cell_formula_units_Z 36
_cell_length_a 23.976057
_cell_length_b 15.122033
_cell_length_c 15.078415
_cell_angle_alpha 90.000000
_cell_angle_beta 160.407235
_cell_angle_gamma 90.000000
_cell_volume 1833.240420
_symmetry_space_group_name_H-M "C 2/C"
_symmetry_group_IT_number 15
_symmetry_cell_setting 'monoclinic'
loop_
_space_group_symop_operation_xyz
x,y,z
-x,y,1/2-z
-x,-y,-z
x,-y,1/2+z
1/2+x,1/2+y,z
1/2-x,1/2+y,1/2-z
1/2-x,1/2-y,-z
1/2+x,1/2-y,1/2+z
loop_
_atom_site_type_symbol
_atom_site_label
_atom_site_fract_x
_atom_site_fract_y
_atom_site_fract_z
Si Si1 0.435608 0.217869 0.754270
Si Si2 0.914058 0.513883 0.776722
Si Si3 0.838890 0.777785 0.250034
Si Si4 0.138530 0.115829 0.882325
Si Si5 0.500000 0.885624 0.750000
O O1 0.500000 0.232177 0.750000
O O2 0.250000 0.250000 0.500000
O O3 0.435611 0.113403 0.776097
O O4 0.557745 0.266339 0.006473
O O5 0.722985 0.479244 0.494230
O O6 0.996105 0.448479 0.828841
O O7 0.000000 0.500000 0.000000
O O8 0.926505 0.836836 0.304848
O O9 0.788602 0.681270 0.137587
O O10 0.662865 0.825754 0.000021
O O11 0.000000 0.113235 0.750000
#
# Coordination Sequence:
#
# PCOD9282075 Si02
#       5
#     8   8   8   8   4
#     4  12  29  46  66  98 142 184 219 273 347 410
#     4  11  23  42  66  95 134 173 214 275 339 396
#     4  10  22  40  70  98 129 172 225 278 330 400
#     4  10  21  38  70 101 125 165 231 284 323 390
#     4  10  22  44  70 100 126 170 226 280 326 392
#
# _framework density 19.637360000000001
#
# number of rings (size 3 to 8) (size 9 to 14) (size 15 to 20)
#    0.000    1.333    4.444    0.000    6.222    0.889 
#    0.000    2.222    0.000    0.000    0.000    0.000 
#    0.000    0.000    0.000    0.000    0.000    0.000 
#
# Total GULP energy -100549.850723 kJ/mol
# GULP energy per Si atom -5586.102818 kJ/mol
# Density = 1.959266 g / cm^3
# Si number density = 19.637360 Si / 1000 Ang^3
#
#
#
# Elastic Constant Matrix: (Units=GPa)
#
#
# Indices 1 2 3 4 5 6 
#
# 1 193.9166 55.1242 74.3350 0.0000 -13.2172 0.0000
# 2 55.1242 78.4443 43.7409 0.0000 -5.2993 0.0000
# 3 74.3350 43.7409 81.9364 0.0000 -21.1104 0.0000
# 4 0.0000 0.0000 0.0000 20.1730 0.0000 -4.3295
# 5 -13.2172 -5.2993 -21.1104 0.0000 43.5119 0.0000
# 6 0.0000 0.0000 0.0000 -4.3295 0.0000 32.7478
#
#
#
# Elastic Compliance Matrix: (Units=1/GPa)
#
#
# Indices 1 2 3 4 5 6 
#
# 1 0.008219 -0.002202 -0.006522 0.000000 -0.000936 0.000000
# 2 -0.002202 0.019055 -0.008856 0.000000 -0.002645 0.000000
# 3 -0.006522 -0.008856 0.025213 0.000000 0.009172 0.000000
# 4 0.000000 0.000000 0.000000 0.051019 0.000000 0.006745
# 5 -0.000936 -0.002645 0.009172 0.000000 0.026826 0.000000
# 6 0.000000 0.000000 0.000000 0.006745 0.000000 0.031428
#
#
# Mechanical properties :
#
#
# Convention : Reuss Voigt Hill
#
# Bulk Modulus (GPa) = 57.71594 77.85531 67.78562
# Shear Modulus (GPa) = 24.66759 31.35969 28.01364
#
# Velocity S-wave (km/s) = 3.54807 4.00051 3.78106
# Velocity P-wave (km/s) = 6.79998 7.81482 7.32500
#
# Compressibility (1/GPa) = 0.01732624
#
# Stress axis : x y z
#
# Youngs Moduli (GPa) = 121.66480 52.48043 39.66285
#
# Poissons Ratio (x) = 0.11557 0.25869
# Poissons Ratio (y) = 0.26793 0.35124
# Poissons Ratio (z) = 0.79353 0.46475
#
# Static dielectric constant tensor:
#      x y z
#    x 1.723550 0.000000 0.014770 
#    y 0.000000 1.707010 0.000000 
#    z 0.014770 0.000000 1.675280 
# 
# From -- ./inp_files/85084.got.cif
#   From: 2010.05.17/outbox.cif.g08.bks.cpg/sg15_43_cif.got.tgz:85084.got - 2010.06.03 18:47:42.
