data_PCOD9282505
_publ_section_title
;
Structure prediction by ZEFSAII (Michael W. Deem and Ramdas Pophale) SiO2 
 PCOD9282505
Probable space group: C 2/C
;
_chemical_formula_sum "Si O2"
_cell_formula_units_Z 36
_cell_length_a 5.370515
_cell_length_b 19.135671
_cell_length_c 15.454656
_cell_angle_alpha 90.000000
_cell_angle_beta 55.120915
_cell_angle_gamma 90.000000
_cell_volume 1302.938166
_symmetry_space_group_name_H-M "C 2/C"
_symmetry_group_IT_number 15
_symmetry_cell_setting 'monoclinic'
loop_
_space_group_symop_operation_xyz
x,y,z
-x,y,1/2-z
-x,-y,-z
x,-y,1/2+z
1/2+x,1/2+y,z
1/2-x,1/2+y,1/2-z
1/2-x,1/2-y,-z
1/2+x,1/2-y,1/2+z
loop_
_atom_site_type_symbol
_atom_site_label
_atom_site_fract_x
_atom_site_fract_y
_atom_site_fract_z
Si Si1 0.384694 0.978229 0.631285
Si Si2 0.156021 0.321833 0.870897
Si Si3 0.000000 0.752458 0.250000
Si Si4 0.012068 0.179915 0.925967
Si Si5 0.109607 0.029584 0.870057
O O1 0.261361 0.901456 0.629863
O O2 0.246336 0.028414 0.585467
O O3 0.248971 0.006272 0.749835
O O4 0.736643 0.979183 0.590057
O O5 0.219908 0.301192 0.757934
O O6 0.210705 0.248444 0.909361
O O7 0.784792 0.324832 0.956331
O O8 0.908174 0.802376 0.347448
O O9 0.189006 0.107759 0.884832
#
# Coordination Sequence:
#
# PCOD9282505 Si02
#       5
#     8   8   4   8   8
#     4  10  21  39  62  94 125 165 208 256 318 373
#     4   9  19  36  62  92 124 165 212 258 310 375
#     4   8  14  32  60  84 120 160 204 254 306 360
#     4   9  19  36  62  92 124 165 212 258 310 375
#     4  10  21  39  62  94 125 165 208 256 318 373
#
# _framework density 27.629863
#
# number of rings (size 3 to 8) (size 9 to 14) (size 15 to 20)
#    1.333    1.333    0.000    2.667    0.000    1.778 
#    0.000    6.667    0.000    5.333    0.000    0.000 
#    0.000    0.000    0.000    0.000    0.000    0.000 
#
# Total GULP energy -100257.463644 kJ/mol
# GULP energy per Si atom -5569.859091 kJ/mol
# Density = 2.756698 g / cm^3
# Si number density = 27.629863 Si / 1000 Ang^3
#
#
#
# Elastic Constant Matrix: (Units=GPa)
#
#
# Indices 1 2 3 4 5 6 
#
# 1 131.4463 8.6304 15.1637 0.0000 31.4310 0.0000
# 2 8.6304 224.4365 8.8793 0.0000 4.6231 0.0000
# 3 15.1637 8.8793 96.2019 0.0000 3.7308 0.0000
# 4 0.0000 0.0000 0.0000 44.2784 0.0000 -3.0665
# 5 31.4310 4.6231 3.7308 0.0000 59.0712 0.0000
# 6 0.0000 0.0000 0.0000 -3.0665 0.0000 27.8630
#
#
#
# Elastic Compliance Matrix: (Units=1/GPa)
#
#
# Indices 1 2 3 4 5 6 
#
# 1 0.008865 -0.000198 -0.001200 0.000000 -0.004626 0.000000
# 2 -0.000198 0.004483 -0.000374 0.000000 -0.000222 0.000000
# 3 -0.001200 -0.000374 0.010619 0.000000 -0.000003 0.000000
# 4 0.000000 0.000000 0.000000 0.022758 0.000000 0.002505
# 5 -0.004626 -0.000222 -0.000003 0.000000 0.019408 0.000000
# 6 0.000000 0.000000 0.000000 0.002505 0.000000 0.036166
#
#
# Mechanical properties :
#
#
# Convention : Reuss Voigt Hill
#
# Bulk Modulus (GPa) = 48.96485 57.49240 53.22863
# Shear Modulus (GPa) = 44.38591 54.20326 49.29458
#
# Velocity S-wave (km/s) = 4.01240 4.43399 4.22845
# Velocity P-wave (km/s) = 6.26306 6.86053 6.56859
#
# Compressibility (1/GPa) = 0.02042281
#
# Stress axis : x y z
#
# Youngs Moduli (GPa) = 112.80098 223.08558 94.17496
#
# Poissons Ratio (x) = 0.04421 0.11298
# Poissons Ratio (y) = 0.02235 0.03521
# Poissons Ratio (z) = 0.13533 0.08341
#
# Static dielectric constant tensor:
#      x y z
#    x 2.312720 0.000000 -0.380270 
#    y 0.000000 2.118100 0.000000 
#    z -0.380270 0.000000 2.719610 
# 
# From -- ./inp_files/86468.got.cif
#   From: 2010.05.17/outbox.cif.g08.bks.cpg/sg15_44_cif.got.tgz:86468.got - 2010.06.03 18:47:42.
