data_PCOD9282452
_publ_section_title
;
Structure prediction by ZEFSAII (Michael W. Deem and Ramdas Pophale) SiO2 
 PCOD9282452
Probable space group: C 2/C
;
_chemical_formula_sum "Si O2"
_cell_formula_units_Z 40
_cell_length_a 13.134906
_cell_length_b 9.543483
_cell_length_c 13.326232
_cell_angle_alpha 90.000000
_cell_angle_beta 102.213471
_cell_angle_gamma 90.000000
_cell_volume 1632.670520
_symmetry_space_group_name_H-M "C 2/C"
_symmetry_group_IT_number 15
_symmetry_cell_setting 'monoclinic'
loop_
_space_group_symop_operation_xyz
x,y,z
-x,y,1/2-z
-x,-y,-z
x,-y,1/2+z
1/2+x,1/2+y,z
1/2-x,1/2+y,1/2-z
1/2-x,1/2-y,-z
1/2+x,1/2-y,1/2+z
loop_
_atom_site_type_symbol
_atom_site_label
_atom_site_fract_x
_atom_site_fract_y
_atom_site_fract_z
Si Si1 0.386949 0.278087 0.243386
Si Si2 0.668443 0.662378 0.550101
Si Si3 0.504947 0.715835 0.361498
Si Si4 0.137901 0.500505 0.392271
Si Si5 0.303630 0.832926 0.419373
O O1 0.500000 0.342623 0.250000
O O2 0.368698 0.260100 0.357741
O O3 0.389513 0.129869 0.184855
O O4 0.291360 0.364812 0.175060
O O5 0.750000 0.750000 0.500000
O O6 0.572230 0.631312 0.457205
O O7 0.740861 0.536062 0.601454
O O8 0.500000 0.653622 0.250000
O O9 0.390617 0.746596 0.378987
O O10 0.565695 0.865471 0.361976
O O11 0.136594 0.544143 0.509321
O O12 0.250000 0.750000 0.500000
#
# Coordination Sequence:
#
# PCOD9282452 Si02
#       5
#     8   8   8   8   8
#     4  11  23  42  63  91 126 163 205 255 308 367
#     4  10  22  38  61  94 125 155 201 258 306 360
#     4  11  22  39  62  93 125 162 207 258 305 362
#     4  10  22  40  67  92 119 163 210 251 307 370
#     4  10  21  39  62  90 125 161 202 254 305 363
#
# _framework density 24.499737
#
# number of rings (size 3 to 8) (size 9 to 14) (size 15 to 20)
#    0.000    1.600    0.000    6.000    0.000    8.000 
#    0.000   10.000    0.000    0.000    0.000    0.000 
#    0.000    0.000    0.000    0.000    0.000    0.000 
#
# Total GULP energy -111909.091662 kJ/mol
# GULP energy per Si atom -5595.454583 kJ/mol
# Density = 2.444397 g / cm^3
# Si number density = 24.499737 Si / 1000 Ang^3
#
#
#
# Elastic Constant Matrix: (Units=GPa)
#
#
# Indices 1 2 3 4 5 6 
#
# 1 172.2147 22.4152 85.5906 0.0000 8.0560 0.0000
# 2 22.4152 79.2422 26.1403 0.0000 2.6583 0.0000
# 3 85.5906 26.1403 199.1213 0.0000 5.7060 0.0000
# 4 0.0000 0.0000 0.0000 10.3312 0.0000 0.1870
# 5 8.0560 2.6583 5.7060 0.0000 55.3802 0.0000
# 6 0.0000 0.0000 0.0000 0.1870 0.0000 16.6703
#
#
#
# Elastic Compliance Matrix: (Units=1/GPa)
#
#
# Indices 1 2 3 4 5 6 
#
# 1 0.007504 -0.001088 -0.003062 0.000000 -0.000724 0.000000
# 2 -0.001088 0.013360 -0.001276 0.000000 -0.000352 0.000000
# 3 -0.003062 -0.001276 0.006510 0.000000 -0.000164 0.000000
# 4 0.000000 0.000000 0.000000 0.096814 0.000000 -0.001086
# 5 -0.000724 -0.000352 -0.000164 0.000000 0.018196 0.000000
# 6 0.000000 0.000000 0.000000 -0.001086 0.000000 0.059999
#
#
# Mechanical properties :
#
#
# Convention : Reuss Voigt Hill
#
# Bulk Modulus (GPa) = 60.52521 79.87447 70.19984
# Shear Modulus (GPa) = 22.85789 37.57184 30.21487
#
# Velocity S-wave (km/s) = 3.05779 3.92032 3.51561
# Velocity P-wave (km/s) = 6.10122 7.29142 6.72271
#
# Compressibility (1/GPa) = 0.01652204
#
# Stress axis : x y z
#
# Youngs Moduli (GPa) = 133.26255 74.84973 153.59998
#
# Poissons Ratio (x) = 0.08146 0.47031
# Poissons Ratio (y) = 0.14503 0.19600
# Poissons Ratio (z) = 0.40804 0.09551
#
# Static dielectric constant tensor:
#      x y z
#    x 1.923270 0.000000 0.033140 
#    y 0.000000 2.060010 0.000000 
#    z 0.033140 0.000000 1.962260 
# 
# From -- ./inp_files/142353.got.cif
#   From: 2010.05.17/outbox.cif.g08.bks.cpg/sg15_72_cif.got.tgz:142353.got - 2010.06.03 18:47:42.
