data_PCOD9282045
_publ_section_title
;
Structure prediction by ZEFSAII (Michael W. Deem and Ramdas Pophale) SiO2 
 PCOD9282045
Probable space group: C 2/C
;
_chemical_formula_sum "Si O2"
_cell_formula_units_Z 48
_cell_length_a 13.934483
_cell_length_b 15.473717
_cell_length_c 26.661585
_cell_angle_alpha 90.000000
_cell_angle_beta 22.319093
_cell_angle_gamma 90.000000
_cell_volume 2183.161094
_symmetry_space_group_name_H-M "C 2/C"
_symmetry_group_IT_number 15
_symmetry_cell_setting 'monoclinic'
loop_
_space_group_symop_operation_xyz
x,y,z
-x,y,1/2-z
-x,-y,-z
x,-y,1/2+z
1/2+x,1/2+y,z
1/2-x,1/2+y,1/2-z
1/2-x,1/2-y,-z
1/2+x,1/2-y,1/2+z
loop_
_atom_site_type_symbol
_atom_site_label
_atom_site_fract_x
_atom_site_fract_y
_atom_site_fract_z
Si Si1 0.055912 0.412882 0.926064
Si Si2 0.059706 0.013179 0.138781
Si Si3 0.526859 0.186358 0.334206
Si Si4 0.278084 0.257454 0.116082
Si Si5 0.608392 0.328827 0.541400
Si Si6 0.991725 0.856212 0.406683
O O1 0.324540 0.461541 0.788122
O O2 0.038282 0.363287 0.881445
O O3 0.054430 0.330813 0.965000
O O4 0.808982 0.474296 0.045968
O O5 0.145249 0.092742 0.062137
O O6 0.960461 0.944532 0.144915
O O7 0.471274 0.286428 0.371651
O O8 0.806806 0.179896 0.178564
O O9 0.273343 0.145246 0.434006
O O10 0.314276 0.313435 0.148860
O O11 0.000000 0.218818 0.250000
O O12 0.295054 0.323391 0.061920
O O13 0.750000 0.250000 0.500000
#
# Coordination Sequence:
#
# PCOD9282045 Si02
#       6
#     8   8   8   8   8   8
#     4   9  20  39  63  96 128 162 208 264 314 376
#     4  10  21  38  68  95 123 164 215 260 314 382
#     4   8  17  36  60  88 122 166 203 246 315 389
#     4  11  23  40  61  89 132 165 207 263 315 376
#     4  11  23  39  62  87 122 170 214 250 319 383
#     4   9  18  36  63  90 122 160 204 261 314 365
#
# _framework density 21.986467000000001
#
# number of rings (size 3 to 8) (size 9 to 14) (size 15 to 20)
#    0.000    2.333    0.000    4.000    4.667    1.333 
#    0.000    3.333    3.667    0.000    0.000    0.000 
#    0.000    0.000    0.000    0.000    0.000    0.000 
#
# Total GULP energy -133672.512029 kJ/mol
# GULP energy per Si atom -5569.688001 kJ/mol
# Density = 2.193642 g / cm^3
# Si number density = 21.986467 Si / 1000 Ang^3
#
#
#
# Elastic Constant Matrix: (Units=GPa)
#
#
# Indices 1 2 3 4 5 6 
#
# 1 71.4792 36.3604 23.9088 -0.0566 -8.0190 -0.0651
# 2 36.3604 119.4215 21.1813 -0.0540 2.2744 -0.1072
# 3 23.9088 21.1813 87.8843 -0.1488 -18.0729 -0.1707
# 4 -0.0566 -0.0540 -0.1488 32.1720 -0.0089 -7.4154
# 5 -8.0190 2.2744 -18.0729 -0.0089 32.4117 -0.0508
# 6 -0.0651 -0.1072 -0.1707 -7.4154 -0.0508 24.1632
#
#
#
# Elastic Compliance Matrix: (Units=1/GPa)
#
#
# Indices 1 2 3 4 5 6 
#
# 1 0.017875 -0.004963 -0.003033 0.000013 0.003079 0.000015
# 2 -0.004963 0.010244 -0.001716 0.000003 -0.002904 0.000015
# 3 -0.003033 -0.001716 0.014106 0.000088 0.007236 0.000126
# 4 0.000013 0.000003 0.000088 0.033450 0.000078 0.010266
# 5 0.003079 -0.002904 0.007236 0.000078 0.035854 0.000146
# 6 0.000015 0.000015 0.000126 0.010266 0.000146 0.044537
#
#
# Mechanical properties :
#
#
# Convention : Reuss Voigt Hill
#
# Bulk Modulus (GPa) = 43.85894 49.07622 46.46758
# Shear Modulus (GPa) = 27.30902 30.90502 29.10702
#
# Velocity S-wave (km/s) = 3.52814 3.75325 3.64244
# Velocity P-wave (km/s) = 6.04884 6.41499 6.23461
#
# Compressibility (1/GPa) = 0.02280037
#
# Stress axis : x y z
#
# Youngs Moduli (GPa) = 55.94479 97.61389 70.89322
#
# Poissons Ratio (x) = 0.48445 0.21505
# Poissons Ratio (y) = 0.27765 0.12165
# Poissons Ratio (z) = 0.16970 0.16750
#
# Static dielectric constant tensor:
#      x y z
#    x 1.869850 0.000010 -0.068190 
#    y 0.000010 1.803990 0.000010 
#    z -0.068190 0.000010 1.927550 
# 
# From -- ./inp_files/97175.got.cif
#   From: 2010.05.17/outbox.cif.g08.bks.cpg/sg15_49_cif.got.tgz:97175.got - 2010.06.03 18:47:42.
