data_PCOD9282882
_publ_section_title
;
Structure prediction by ZEFSAII (Michael W. Deem and Ramdas Pophale) SiO2 
 PCOD9282882
Probable space group: C 2/C
;
_chemical_formula_sum "Si O2"
_cell_formula_units_Z 48
_cell_length_a 10.638495
_cell_length_b 24.489883
_cell_length_c 8.300241
_cell_angle_alpha 90.000000
_cell_angle_beta 74.012992
_cell_angle_gamma 90.000000
_cell_volume 2078.870658
_symmetry_space_group_name_H-M "C 2/C"
_symmetry_group_IT_number 15
_symmetry_cell_setting 'monoclinic'
loop_
_space_group_symop_operation_xyz
x,y,z
-x,y,1/2-z
-x,-y,-z
x,-y,1/2+z
1/2+x,1/2+y,z
1/2-x,1/2+y,1/2-z
1/2-x,1/2-y,-z
1/2+x,1/2-y,1/2+z
loop_
_atom_site_type_symbol
_atom_site_label
_atom_site_fract_x
_atom_site_fract_y
_atom_site_fract_z
Si Si1 0.241059 0.748473 0.197262
Si Si2 0.500000 0.327188 0.250000
Si Si3 0.000000 0.466013 0.250000
Si Si4 0.500000 0.483657 0.750000
Si Si5 0.000000 0.300090 0.250000
Si Si6 0.409316 0.935296 0.971747
Si Si7 0.411892 0.843488 0.629062
Si Si8 0.874418 0.078597 0.000633
O O1 0.117983 0.789116 0.273648
O O2 0.373157 0.768978 0.230632
O O3 0.217840 0.688747 0.282658
O O4 0.250000 0.750000 0.000000
O O5 0.550438 0.368601 0.093483
O O6 0.915782 0.504663 0.396043
O O7 0.096358 0.434525 0.333026
O O8 0.402239 0.526075 0.874261
O O9 0.424479 0.444652 0.652228
O O10 0.953239 0.328844 0.432553
O O11 0.548785 0.907103 0.883938
O O12 0.279108 0.907501 0.953307
O O13 0.500000 0.822551 0.750000
#
# Coordination Sequence:
#
# PCOD9282882 Si02
#       8
#     8   4   4   4   4   8   8   8
#     4  12  25  49  72 100 142 186 236 294 351 425
#     4  11  24  41  66 102 136 179 228 287 354 410
#     4  10  23  39  64  98 132 179 230 282 343 422
#     4   9  20  42  61  92 126 182 223 285 332 412
#     4  12  25  46  77 102 140 188 235 288 357 418
#     4  11  22  41  65  99 135 180 227 286 348 411
#     4  12  24  45  71 104 140 184 232 293 348 419
#     4  10  21  39  65  92 134 174 230 277 345 408
#
# _framework density 23.089458
#
# number of rings (size 3 to 8) (size 9 to 14) (size 15 to 20)
#    0.000    1.000    3.333    3.000    0.000    0.000 
#    3.000    5.000    0.000    0.000    0.000    0.000 
#    0.000    0.000    0.000    0.000    0.000    0.000 
#
# Total GULP energy -133896.955418 kJ/mol
# GULP energy per Si atom -5579.039809 kJ/mol
# Density = 2.303691 g / cm^3
# Si number density = 23.089458 Si / 1000 Ang^3
#
#
#
# Elastic Constant Matrix: (Units=GPa)
#
#
# Indices 1 2 3 4 5 6 
#
# 1 120.9763 50.1272 36.5082 0.0000 14.8097 0.0000
# 2 50.1272 108.6131 40.7574 0.0000 7.8682 0.0000
# 3 36.5082 40.7574 150.2299 0.0000 13.1749 0.0000
# 4 0.0000 0.0000 0.0000 21.5155 0.0000 -6.6879
# 5 14.8097 7.8682 13.1749 0.0000 35.3309 0.0000
# 6 0.0000 0.0000 0.0000 -6.6879 0.0000 -5.4670
#
#
#
# Elastic Compliance Matrix: (Units=1/GPa)
#
#
# Indices 1 2 3 4 5 6 
#
# 1 0.010791 -0.004312 -0.001179 0.000000 -0.003123 0.000000
# 2 -0.004312 0.012030 -0.002212 0.000000 -0.000047 0.000000
# 3 -0.001179 -0.002212 0.007709 0.000000 -0.001888 0.000000
# 4 0.000000 0.000000 0.000000 0.033673 0.000000 -0.041193
# 5 -0.003123 -0.000047 -0.001888 0.000000 0.030328 0.000000
# 6 0.000000 0.000000 0.000000 -0.041193 0.000000 -0.132522
#
#
# Mechanical properties :
#
#
# Convention : Reuss Voigt Hill
#
# Bulk Modulus (GPa) = 66.11459 70.51169 68.31314
# Shear Modulus (GPa) = -284.97573 27.10431 -128.93571
#
# Velocity S-wave (km/s) = -11.12162 3.42991 -7.48084
# Velocity P-wave (km/s) = 11.67151 6.80371 6.70573
#
# Compressibility (1/GPa) = 0.01512525
#
# Stress axis : x y z
#
# Youngs Moduli (GPa) = 92.67275 83.12340 129.72602
#
# Poissons Ratio (x) = 0.35839 0.15290
# Poissons Ratio (y) = 0.39956 0.28694
# Poissons Ratio (z) = 0.10923 0.18386
#
# Static dielectric constant tensor:
#      x y z
#    x 1.878660 0.000000 -0.048070 
#    y 0.000000 1.900890 0.000000 
#    z -0.048070 0.000000 1.975890 
# 
# From -- ./inp_files/32201.got.cif
#   From: 2010.05.17/outbox.cif.g08.bks.cpg/sg15_17_cif.got.tgz:32201.got - 2010.06.03 18:47:42.
