data_PCOD9282274
_publ_section_title
;
Structure prediction by ZEFSAII (Michael W. Deem and Ramdas Pophale) SiO2 
 PCOD9282274
Probable space group: C 2/C
;
_chemical_formula_sum "Si O2"
_cell_formula_units_Z 52
_cell_length_a 15.162442
_cell_length_b 16.982669
_cell_length_c 9.737329
_cell_angle_alpha 90.000000
_cell_angle_beta 123.393861
_cell_angle_gamma 90.000000
_cell_volume 2093.403572
_symmetry_space_group_name_H-M "C 2/C"
_symmetry_group_IT_number 15
_symmetry_cell_setting 'monoclinic'
loop_
_space_group_symop_operation_xyz
x,y,z
-x,y,1/2-z
-x,-y,-z
x,-y,1/2+z
1/2+x,1/2+y,z
1/2-x,1/2+y,1/2-z
1/2-x,1/2-y,-z
1/2+x,1/2-y,1/2+z
loop_
_atom_site_type_symbol
_atom_site_label
_atom_site_fract_x
_atom_site_fract_y
_atom_site_fract_z
Si Si1 0.601509 0.730603 0.627115
Si Si2 0.286749 0.950053 0.001398
Si Si3 0.886364 0.912919 0.193025
Si Si4 0.000000 0.662790 0.250000
Si Si5 0.113270 0.819343 0.846691
Si Si6 0.311805 0.680684 0.376630
Si Si7 0.152871 0.449964 0.724375
O O1 0.598792 0.637001 0.654535
O O2 0.509422 0.779509 0.626122
O O3 0.609146 0.741463 0.469744
O O4 0.709814 0.763550 0.787601
O O5 0.214108 0.873954 0.954957
O O6 0.377811 0.949691 0.961583
O O7 0.207492 0.023740 0.895365
O O8 0.334521 0.967717 0.191604
O O9 0.000000 0.947955 0.250000
O O10 0.864003 0.842098 0.064672
O O11 0.907611 0.602805 0.215029
O O12 0.122918 0.790618 0.698358
O O13 0.000000 0.862034 0.750000
O O14 0.265665 0.593472 0.301566
#
# Coordination Sequence:
#
# PCOD9282274 Si02
#       7
#     8   8   8   4   8   8   8
#     4  11  21  38  61  83 122 161 204 243 300 358
#     4  10  21  39  60  91 123 156 197 240 311 360
#     4  11  20  35  61  93 119 155 197 243 296 367
#     4  10  22  40  62  84 120 156 210 252 292 350
#     4  11  22  37  59  90 122 157 197 251 301 357
#     4   9  21  37  56  85 122 163 193 245 302 350
#     4   9  20  38  62  84 121 159 196 249 298 353
#
# _framework density 24.839929999999999
#
# number of rings (size 3 to 8) (size 9 to 14) (size 15 to 20)
#    0.000    1.846    0.769    3.231    0.000    0.615 
#    0.000    6.154    0.000    0.000    0.000    0.000 
#    0.000    0.000    0.000    0.000    0.000    0.000 
#
# Total GULP energy -144844.442119 kJ/mol
# GULP energy per Si atom -5570.940082 kJ/mol
# Density = 2.478339 g / cm^3
# Si number density = 24.839930 Si / 1000 Ang^3
#
#
#
# Elastic Constant Matrix: (Units=GPa)
#
#
# Indices 1 2 3 4 5 6 
#
# 1 118.6229 27.3935 36.7175 0.0000 -37.5261 0.0000
# 2 27.3935 54.1153 17.6967 0.0000 -8.7587 0.0000
# 3 36.7175 17.6967 96.0422 0.0000 -37.7192 0.0000
# 4 0.0000 0.0000 0.0000 11.6264 0.0000 2.7304
# 5 -37.5261 -8.7587 -37.7192 0.0000 38.8689 0.0000
# 6 0.0000 0.0000 0.0000 2.7304 0.0000 24.2315
#
#
#
# Elastic Compliance Matrix: (Units=1/GPa)
#
#
# Indices 1 2 3 4 5 6 
#
# 1 0.013270 -0.004943 0.000698 0.000000 0.012375 0.000000
# 2 -0.004943 0.021558 -0.003311 0.000000 -0.003127 0.000000
# 3 0.000698 -0.003311 0.017333 0.000000 0.016747 0.000000
# 4 0.000000 0.000000 0.000000 0.088349 0.000000 -0.009955
# 5 0.012375 -0.003127 0.016747 0.000000 0.053223 0.000000
# 6 0.000000 0.000000 0.000000 -0.009955 0.000000 0.042390
#
#
# Mechanical properties :
#
#
# Convention : Reuss Voigt Hill
#
# Bulk Modulus (GPa) = 26.99114 48.04399 37.51756
# Shear Modulus (GPa) = 18.96927 27.41020 23.18973
#
# Velocity S-wave (km/s) = 2.76644 3.32546 3.05875
# Velocity P-wave (km/s) = 4.59280 5.84195 5.25463
#
# Compressibility (1/GPa) = 0.03704920
#
# Stress axis : x y z
#
# Youngs Moduli (GPa) = 75.35548 46.38730 57.69419
#
# Poissons Ratio (x) = 0.22928 -0.04024
# Poissons Ratio (y) = 0.37246 0.19100
# Poissons Ratio (z) = -0.05256 0.15357
#
# Static dielectric constant tensor:
#      x y z
#    x 2.062690 0.000000 -0.007610 
#    y 0.000000 1.972990 0.000000 
#    z -0.007610 0.000000 2.125970 
# 
# From -- ./inp_files/40878.got.cif
#   From: 2010.05.17/outbox.cif.g08.bks.cpg/sg15_21_cif.got.tgz:40878.got - 2010.06.03 18:47:42.
