data_PCOD9282925
_publ_section_title
;
Structure prediction by ZEFSAII (Michael W. Deem and Ramdas Pophale) SiO2 
 PCOD9282925
Probable space group: C 2/C
;
_chemical_formula_sum "Si O2"
_cell_formula_units_Z 64
_cell_length_a 13.960997
_cell_length_b 10.228227
_cell_length_c 26.090640
_cell_angle_alpha 90.000000
_cell_angle_beta 127.530592
_cell_angle_gamma 90.000000
_cell_volume 2954.541878
_symmetry_space_group_name_H-M "C 2/C"
_symmetry_group_IT_number 15
_symmetry_cell_setting 'monoclinic'
loop_
_space_group_symop_operation_xyz
x,y,z
-x,y,1/2-z
-x,-y,-z
x,-y,1/2+z
1/2+x,1/2+y,z
1/2-x,1/2+y,1/2-z
1/2-x,1/2-y,-z
1/2+x,1/2-y,1/2+z
loop_
_atom_site_type_symbol
_atom_site_label
_atom_site_fract_x
_atom_site_fract_y
_atom_site_fract_z
Si Si1 0.308016 0.657169 0.061172
Si Si2 0.203217 0.384715 0.037142
Si Si3 0.123856 0.599773 0.851773
Si Si4 0.955811 0.753693 0.088779
Si Si5 0.240979 0.657696 0.369640
Si Si6 0.151990 0.699865 0.234475
Si Si7 0.977377 0.012714 0.431454
Si Si8 0.345558 0.089816 0.761229
O O1 0.224405 0.537459 0.052581
O O2 0.330356 0.761244 0.113318
O O3 0.421273 0.588108 0.068911
O O4 0.250000 0.750000 0.000000
O O5 0.329500 0.331969 0.053939
O O6 0.203542 0.284347 0.084602
O O7 0.086704 0.359652 0.963468
O O8 0.187586 0.460505 0.888132
O O9 0.140967 0.596190 0.796065
O O10 0.984746 0.600144 0.823886
O O11 0.025290 0.720887 0.163731
O O12 0.039181 0.862734 0.090269
O O13 0.147777 0.699119 0.295041
O O14 0.355458 0.589617 0.381467
O O15 0.252053 0.803871 0.250362
O O16 0.194533 0.553918 0.234489
O O17 0.000000 0.000000 0.500000
#
# Coordination Sequence:
#
# PCOD9282925 Si02
#       8
#     8   8   8   8   8   8   8   8
#     4  11  25  40  63  96 130 171 218 274 335 390
#     4  10  23  40  63  96 129 170 221 271 321 395
#     4  10  22  42  65  92 128 171 215 263 336 394
#     4  10  21  39  65  96 130 172 216 269 326 394
#     4  11  22  42  69  96 131 171 226 269 331 404
#     4  11  23  39  66  98 131 170 216 271 332 393
#     4  11  21  41  69  97 129 178 219 275 335 401
#     4  10  23  42  66  92 128 173 212 268 327 399
#
# _framework density 21.661563999999998
#
# number of rings (size 3 to 8) (size 9 to 14) (size 15 to 20)
#    0.000    1.500    1.250    3.750    5.250    3.500 
#    0.000    3.125    0.000    1.500    0.000    0.000 
#    0.000    0.000    0.000    0.000    0.000    0.000 
#
# Total GULP energy -178433.770446 kJ/mol
# GULP energy per Si atom -5576.055326 kJ/mol
# Density = 2.161226 g / cm^3
# Si number density = 21.661564 Si / 1000 Ang^3
#
#
#
# Elastic Constant Matrix: (Units=GPa)
#
#
# Indices 1 2 3 4 5 6 
#
# 1 50.3485 43.6011 16.4009 0.0000 9.7092 0.0000
# 2 43.6011 162.8930 59.5639 0.0000 12.2382 0.0000
# 3 16.4009 59.5639 126.3631 0.0000 2.8423 0.0000
# 4 0.0000 0.0000 0.0000 34.7558 0.0000 -1.9771
# 5 9.7092 12.2382 2.8423 0.0000 26.9063 0.0000
# 6 0.0000 0.0000 0.0000 -1.9771 0.0000 39.8119
#
#
#
# Elastic Compliance Matrix: (Units=1/GPa)
#
#
# Indices 1 2 3 4 5 6 
#
# 1 0.026970 -0.006635 -0.000222 0.000000 -0.006691 0.000000
# 2 -0.006635 0.009302 -0.003490 0.000000 -0.001468 0.000000
# 3 -0.000222 -0.003490 0.009573 0.000000 0.000657 0.000000
# 4 0.000000 0.000000 0.000000 0.028854 0.000000 0.001433
# 5 -0.006691 -0.001468 0.000657 0.000000 0.040179 0.000000
# 6 0.000000 0.000000 0.000000 0.001433 0.000000 0.025189
#
#
# Mechanical properties :
#
#
# Convention : Reuss Voigt Hill
#
# Bulk Modulus (GPa) = 39.76273 64.30403 52.03338
# Shear Modulus (GPa) = 29.56050 34.96407 32.26228
#
# Velocity S-wave (km/s) = 3.69813 4.02195 3.86343
# Velocity P-wave (km/s) = 6.05236 7.16368 6.63134
#
# Compressibility (1/GPa) = 0.02514918
#
# Stress axis : x y z
#
# Youngs Moduli (GPa) = 37.07811 107.50947 104.46019
#
# Poissons Ratio (x) = 0.71332 0.02324
# Poissons Ratio (y) = 0.24601 0.36460
# Poissons Ratio (z) = 0.00825 0.37524
#
# Static dielectric constant tensor:
#      x y z
#    x 1.835380 0.000000 -0.040850 
#    y 0.000000 1.951580 0.000000 
#    z -0.040850 0.000000 1.924690 
# 
# From -- ./inp_files/313181.got.cif
#   From: 2010.05.17/outbox.cif.g08.bks.cpg/sg15_157_cif.got.tgz:313181.got - 2010.06.03 18:47:42.
