data_PCOD9282464
_publ_section_title
;
Structure prediction by ZEFSAII (Michael W. Deem and Ramdas Pophale) SiO2 
 PCOD9282464
Probable space group: C 2/C
;
_chemical_formula_sum "Si O2"
_cell_formula_units_Z 56
_cell_length_a 11.211335
_cell_length_b 8.865308
_cell_length_c 28.985847
_cell_angle_alpha 90.000000
_cell_angle_beta 123.090817
_cell_angle_gamma 90.000000
_cell_volume 2413.685825
_symmetry_space_group_name_H-M "C 2/C"
_symmetry_group_IT_number 15
_symmetry_cell_setting 'monoclinic'
loop_
_space_group_symop_operation_xyz
x,y,z
-x,y,1/2-z
-x,-y,-z
x,-y,1/2+z
1/2+x,1/2+y,z
1/2-x,1/2+y,1/2-z
1/2-x,1/2-y,-z
1/2+x,1/2-y,1/2+z
loop_
_atom_site_type_symbol
_atom_site_label
_atom_site_fract_x
_atom_site_fract_y
_atom_site_fract_z
Si Si1 0.616122 0.233904 0.577558
Si Si2 0.500000 0.680927 0.750000
Si Si3 0.000000 0.682708 0.750000
Si Si4 0.842718 0.889392 0.000911
Si Si5 0.327334 0.073626 0.178852
Si Si6 0.133616 0.944976 0.723953
Si Si7 0.823404 0.676850 0.559847
Si Si8 0.354186 0.515539 0.102990
O O1 0.560223 0.310129 0.517750
O O2 0.698328 0.367706 0.621205
O O3 0.490351 0.170927 0.582612
O O4 0.728471 0.099869 0.590257
O O5 0.557630 0.793473 0.800758
O O6 0.629949 0.576958 0.761057
O O7 0.914310 0.580883 0.694871
O O8 0.892842 0.790604 0.754718
O O9 0.744128 0.011296 0.953281
O O10 0.750000 0.750000 0.000000
O O11 0.897777 0.968284 0.059439
O O12 0.264473 0.064753 0.217461
O O13 0.992270 0.985351 0.664386
O O14 0.750000 0.750000 0.500000
O O15 0.802352 0.809900 0.592491
#
# Coordination Sequence:
#
# PCOD9282464 Si02
#       8
#     8   4   4   8   8   8   8   8
#     4  11  22  40  64  90 126 166 202 258 314 365
#     4  10  22  40  66  84 120 164 198 260 318 360
#     4  10  26  40  62  92 122 160 208 260 314 372
#     4   9  22  40  61  91 124 163 205 253 299 371
#     4  11  22  40  64  91 121 160 207 255 312 376
#     4  11  21  42  62  90 123 158 206 256 311 374
#     4  10  22  40  62  88 124 162 203 254 299 370
#     4  10  21  39  62  91 123 162 209 247 306 376
#
# _framework density 23.201031
#
# number of rings (size 3 to 8) (size 9 to 14) (size 15 to 20)
#    0.000    1.714    2.857    0.857    2.000    7.429 
#    0.000    4.286    0.000    0.000    0.000    0.000 
#    0.000    0.000    0.000    0.000    0.000    0.000 
#
# Total GULP energy -156246.438965 kJ/mol
# GULP energy per Si atom -5580.229963 kJ/mol
# Density = 2.314822 g / cm^3
# Si number density = 23.201031 Si / 1000 Ang^3
#
#
#
# Elastic Constant Matrix: (Units=GPa)
#
#
# Indices 1 2 3 4 5 6 
#
# 1 72.5515 34.5167 -1.0298 0.0000 -2.2895 0.0000
# 2 34.5167 150.4060 19.3432 0.0000 -3.3770 0.0000
# 3 -1.0298 19.3432 50.9547 0.0000 8.8729 0.0000
# 4 0.0000 0.0000 0.0000 27.1644 0.0000 -6.4169
# 5 -2.2895 -3.3770 8.8729 0.0000 30.9250 0.0000
# 6 0.0000 0.0000 0.0000 -6.4169 0.0000 25.2414
#
#
#
# Elastic Compliance Matrix: (Units=1/GPa)
#
#
# Indices 1 2 3 4 5 6 
#
# 1 0.015624 -0.003800 0.001715 0.000000 0.000250 0.000000
# 2 -0.003800 0.007991 -0.003382 0.000000 0.001562 0.000000
# 3 0.001715 -0.003382 0.022090 0.000000 -0.006580 0.000000
# 4 0.000000 0.000000 0.000000 0.039165 0.000000 0.009956
# 5 0.000250 0.001562 -0.006580 0.000000 0.034413 0.000000
# 6 0.000000 0.000000 0.000000 0.009956 0.000000 0.042149
#
#
# Mechanical properties :
#
#
# Convention : Reuss Voigt Hill
#
# Bulk Modulus (GPa) = 28.76130 42.17471 35.46801
# Shear Modulus (GPa) = 27.18044 31.40498 29.29271
#
# Velocity S-wave (km/s) = 3.42646 3.68313 3.55711
# Velocity P-wave (km/s) = 5.29883 6.02533 5.67372
#
# Compressibility (1/GPa) = 0.03476894
#
# Stress axis : x y z
#
# Youngs Moduli (GPa) = 64.00581 125.14294 45.26989
#
# Poissons Ratio (x) = 0.47559 -0.07764
# Poissons Ratio (y) = 0.24325 0.15311
# Poissons Ratio (z) = -0.10977 0.42326
#
# Static dielectric constant tensor:
#      x y z
#    x 1.871920 0.000000 -0.050550 
#    y 0.000000 1.914570 0.000000 
#    z -0.050550 0.000000 1.948500 
# 
# From -- ./inp_files/309956.got.cif
#   From: 2010.05.17/outbox.cif.g08.bks.cpg/sg15_155_cif.got.tgz:309956.got - 2010.06.03 18:47:42.
