data_PCOD9282684
_publ_section_title
;
Structure prediction by ZEFSAII (Michael W. Deem and Ramdas Pophale) SiO2 
 PCOD9282684
Probable space group: C 2/C
;
_chemical_formula_sum "Si O2"
_cell_formula_units_Z 56
_cell_length_a 7.656916
_cell_length_b 17.911329
_cell_length_c 17.427818
_cell_angle_alpha 90.000000
_cell_angle_beta 87.482295
_cell_angle_gamma 90.000000
_cell_volume 2387.840317
_symmetry_space_group_name_H-M "C 2/C"
_symmetry_group_IT_number 15
_symmetry_cell_setting 'monoclinic'
loop_
_space_group_symop_operation_xyz
x,y,z
-x,y,1/2-z
-x,-y,-z
x,-y,1/2+z
1/2+x,1/2+y,z
1/2-x,1/2+y,1/2-z
1/2-x,1/2-y,-z
1/2+x,1/2-y,1/2+z
loop_
_atom_site_type_symbol
_atom_site_label
_atom_site_fract_x
_atom_site_fract_y
_atom_site_fract_z
Si Si1 0.626694 0.756948 0.185236
Si Si2 0.155091 0.459639 0.414629
Si Si3 0.486438 0.789961 0.865972
Si Si4 0.034422 0.941172 0.566839
Si Si5 0.340033 0.945777 0.901666
Si Si6 0.175134 0.146903 0.711562
Si Si7 0.550238 0.731608 0.024867
O O1 0.500000 0.718989 0.250000
O O2 0.254184 0.900646 0.141963
O O3 0.691416 0.833239 0.223125
O O4 0.520022 0.766875 0.108752
O O5 0.468501 0.642972 0.464332
O O6 0.152144 0.435355 0.504508
O O7 0.962624 0.482393 0.390262
O O8 0.418674 0.873268 0.859778
O O9 0.386792 0.727805 0.818795
O O10 0.692977 0.784523 0.841188
O O11 0.450957 0.764647 0.954504
O O12 0.860614 0.952135 0.620419
O O13 0.223409 0.965651 0.593066
O O14 0.000000 0.000000 0.500000
O O15 0.000000 0.111063 0.750000
O O16 0.750000 0.750000 0.000000
#
# Coordination Sequence:
#
# PCOD9282684 Si02
#       7
#     8   8   8   8   8   8   8
#     4  10  23  40  60  97 135 172 212 288 354 409
#     4  10  21  41  63  94 136 176 222 279 343 412
#     4  10  21  41  68 100 127 170 232 289 339 407
#     4  10  21  39  63  99 139 174 218 287 351 401
#     4  10  22  38  66 100 132 169 227 287 338 408
#     4  10  23  44  67  93 137 179 226 288 353 415
#     4  10  21  39  69 102 128 172 231 287 337 410
#
# _framework density 23.452152999999999
#
# number of rings (size 3 to 8) (size 9 to 14) (size 15 to 20)
#    0.000    2.000    0.000    3.429    4.000    1.143 
#   10.286    2.857    0.000    0.000    0.000    0.000 
#    0.000    0.000    0.000    0.000    0.000    0.000 
#
# Total GULP energy -156470.566158 kJ/mol
# GULP energy per Si atom -5588.234506 kJ/mol
# Density = 2.339877 g / cm^3
# Si number density = 23.452153 Si / 1000 Ang^3
#
#
#
# Elastic Constant Matrix: (Units=GPa)
#
#
# Indices 1 2 3 4 5 6 
#
# 1 123.0525 25.8807 6.2974 0.0000 -28.3681 0.0000
# 2 25.8807 66.7974 11.4707 0.0000 -6.6590 0.0000
# 3 6.2974 11.4707 103.7267 0.0000 -17.9890 0.0000
# 4 0.0000 0.0000 0.0000 19.4289 0.0000 -5.9002
# 5 -28.3681 -6.6590 -17.9890 0.0000 31.4620 0.0000
# 6 0.0000 0.0000 0.0000 -5.9002 0.0000 34.5964
#
#
#
# Elastic Compliance Matrix: (Units=1/GPa)
#
#
# Indices 1 2 3 4 5 6 
#
# 1 0.011135 -0.003557 0.001474 0.000000 0.010130 0.000000
# 2 -0.003557 0.016578 -0.001737 0.000000 -0.000692 0.000000
# 3 0.001474 -0.001737 0.011001 0.000000 0.007251 0.000000
# 4 0.000000 0.000000 0.000000 0.054281 0.000000 0.009257
# 5 0.010130 -0.000692 0.007251 0.000000 0.044917 0.000000
# 6 0.000000 0.000000 0.000000 0.009257 0.000000 0.030483
#
#
# Mechanical properties :
#
#
# Convention : Reuss Voigt Hill
#
# Bulk Modulus (GPa) = 32.18281 42.31937 37.25109
# Shear Modulus (GPa) = 26.82479 33.75932 30.29206
#
# Velocity S-wave (km/s) = 3.38569 3.79819 3.59786
# Velocity P-wave (km/s) = 5.38855 6.10894 5.76002
#
# Compressibility (1/GPa) = 0.03107249
#
# Stress axis : x y z
#
# Youngs Moduli (GPa) = 89.80998 60.31974 90.90131
#
# Poissons Ratio (x) = 0.21458 -0.13400
# Poissons Ratio (y) = 0.31949 0.15793
# Poissons Ratio (z) = -0.13239 0.10480
#
# Static dielectric constant tensor:
#      x y z
#    x 1.964390 0.000000 0.029810 
#    y 0.000000 1.833750 0.000000 
#    z 0.029810 0.000000 1.952130 
# 
# From -- ./inp_files/191027.got.cif
#   From: 2010.05.17/outbox.cif.g08.bks.cpg/sg15_96_cif.got.tgz:191027.got - 2010.06.03 18:47:42.
