data_PCOD9282605
_publ_section_title
;
Structure prediction by ZEFSAII (Michael W. Deem and Ramdas Pophale) SiO2 
 PCOD9282605
Probable space group: C 2/C
;
_chemical_formula_sum "Si O2"
_cell_formula_units_Z 60
_cell_length_a 12.596635
_cell_length_b 29.707670
_cell_length_c 13.021382
_cell_angle_alpha 90.000000
_cell_angle_beta 35.416127
_cell_angle_gamma 90.000000
_cell_volume 2823.849764
_symmetry_space_group_name_H-M "C 2/C"
_symmetry_group_IT_number 15
_symmetry_cell_setting 'monoclinic'
loop_
_space_group_symop_operation_xyz
x,y,z
-x,y,1/2-z
-x,-y,-z
x,-y,1/2+z
1/2+x,1/2+y,z
1/2-x,1/2+y,1/2-z
1/2-x,1/2-y,-z
1/2+x,1/2-y,1/2+z
loop_
_atom_site_type_symbol
_atom_site_label
_atom_site_fract_x
_atom_site_fract_y
_atom_site_fract_z
Si Si1 0.403625 0.297121 0.484660
Si Si2 0.292783 0.301899 0.948744
Si Si3 0.599475 0.969747 0.281873
Si Si4 0.500000 0.435578 0.750000
Si Si5 0.207144 0.306274 0.422155
Si Si6 0.667016 0.152964 0.341138
Si Si7 0.267316 0.952582 0.698868
Si Si8 0.287540 0.884092 0.387682
O O1 0.284640 0.309610 0.477037
O O2 0.613913 0.308808 0.291688
O O3 0.383046 0.243394 0.515436
O O4 0.307801 0.320570 0.656601
O O5 0.500000 0.305264 0.750000
O O6 0.179529 0.324928 0.944945
O O7 0.250000 0.250000 0.000000
O O8 0.265374 0.331953 0.072738
O O9 0.500000 0.974965 0.250000
O O10 0.438883 0.962527 0.489880
O O11 0.718924 0.923635 0.190950
O O12 0.710901 0.014292 0.222744
O O13 0.588091 0.463046 0.772852
O O14 0.658107 0.404390 0.578389
O O15 0.043016 0.340574 0.528844
O O16 0.726275 0.100864 0.287519
O O17 0.500000 0.883733 0.250000
#
# Coordination Sequence:
#
# PCOD9282605 Si02
#       8
#     8   8   8   4   8   8   8   8
#     4  10  21  39  63  93 125 170 223 277 339 408
#     4  12  27  43  62 100 143 183 235 284 333 407
#     4  10  21  45  72  99 133 176 220 284 351 411
#     4  12  20  44  68 100 134 172 232 270 348 422
#     4  10  21  39  63  91 126 169 223 275 341 407
#     4  12  23  42  64  95 131 181 220 282 334 403
#     4  11  24  42  71 103 132 178 231 277 349 419
#     4  11  20  44  68  92 134 181 214 282 340 399
#
# _framework density 21.247589999999999
#
# number of rings (size 3 to 8) (size 9 to 14) (size 15 to 20)
#    0.000    1.067    6.000    0.800    1.867    1.600 
#    9.600    0.000    0.000    0.000    0.000    0.000 
#    0.000    0.000    0.000    0.000    0.000    0.000 
#
# Total GULP energy -167532.190897 kJ/mol
# GULP energy per Si atom -5584.406363 kJ/mol
# Density = 2.119923 g / cm^3
# Si number density = 21.247590 Si / 1000 Ang^3
#
#
#
# Elastic Constant Matrix: (Units=GPa)
#
#
# Indices 1 2 3 4 5 6 
#
# 1 81.5130 57.6012 20.8838 0.0000 1.1948 0.0000
# 2 57.6012 144.0812 13.0509 0.0000 7.0941 0.0000
# 3 20.8838 13.0509 101.9856 0.0000 -6.3913 0.0000
# 4 0.0000 0.0000 0.0000 35.4032 0.0000 11.4338
# 5 1.1948 7.0941 -6.3913 0.0000 32.9926 0.0000
# 6 0.0000 0.0000 0.0000 11.4338 0.0000 19.4591
#
#
#
# Elastic Compliance Matrix: (Units=1/GPa)
#
#
# Indices 1 2 3 4 5 6 
#
# 1 0.017844 -0.006899 -0.002752 0.000000 0.000304 0.000000
# 2 -0.006899 0.009786 0.000045 0.000000 -0.001846 0.000000
# 3 -0.002752 0.000045 0.010496 0.000000 0.002123 0.000000
# 4 0.000000 0.000000 0.000000 0.034862 0.000000 -0.020484
# 5 0.000304 -0.001846 0.002123 0.000000 0.031107 0.000000
# 6 0.000000 0.000000 0.000000 -0.020484 0.000000 0.063426
#
#
# Mechanical properties :
#
#
# Convention : Reuss Voigt Hill
#
# Bulk Modulus (GPa) = 52.87431 56.73905 54.80668
# Shear Modulus (GPa) = 25.90165 33.30723 29.60444
#
# Velocity S-wave (km/s) = 3.49526 3.96356 3.73675
# Velocity P-wave (km/s) = 6.42090 6.90711 6.66844
#
# Compressibility (1/GPa) = 0.01891278
#
# Stress axis : x y z
#
# Youngs Moduli (GPa) = 56.04096 102.19075 95.27299
#
# Poissons Ratio (x) = 0.70506 0.26219
# Poissons Ratio (y) = 0.38665 -0.00428
# Poissons Ratio (z) = 0.15422 -0.00459
#
# Static dielectric constant tensor:
#      x y z
#    x 1.832530 0.000000 0.012820 
#    y 0.000000 1.812700 0.000000 
#    z 0.012820 0.000000 1.774700 
# 
# From -- ./inp_files/157315.got.cif
#   From: 2010.05.17/outbox.cif.g08.bks.cpg/sg15_79_cif.got.tgz:157315.got - 2010.06.03 18:47:42.
