data_PCOD9282265
_publ_section_title
;
Structure prediction by ZEFSAII (Michael W. Deem and Ramdas Pophale) SiO2 
 PCOD9282265
Probable space group: C 2/C
;
_chemical_formula_sum "Si O2"
_cell_formula_units_Z 48
_cell_length_a 9.781573
_cell_length_b 11.162433
_cell_length_c 18.094264
_cell_angle_alpha 90.000000
_cell_angle_beta 97.320897
_cell_angle_gamma 90.000000
_cell_volume 1959.537706
_symmetry_space_group_name_H-M "C 2/C"
_symmetry_group_IT_number 15
_symmetry_cell_setting 'monoclinic'
loop_
_space_group_symop_operation_xyz
x,y,z
-x,y,1/2-z
-x,-y,-z
x,-y,1/2+z
1/2+x,1/2+y,z
1/2-x,1/2+y,1/2-z
1/2-x,1/2-y,-z
1/2+x,1/2-y,1/2+z
loop_
_atom_site_type_symbol
_atom_site_label
_atom_site_fract_x
_atom_site_fract_y
_atom_site_fract_z
Si Si1 0.154557 0.505823 0.106045
Si Si2 0.268923 0.433164 0.387166
Si Si3 0.554843 0.825065 0.481841
Si Si4 0.648946 0.895590 0.769396
Si Si5 0.361611 0.753147 0.220305
Si Si6 0.050557 0.921118 0.906857
O O1 0.165858 0.525161 0.195046
O O2 0.309228 0.501881 0.083312
O O3 0.068754 0.393666 0.069006
O O4 0.077837 0.622538 0.065016
O O5 0.192965 0.371899 0.450383
O O6 0.162412 0.528610 0.344560
O O7 0.258372 0.327592 0.326714
O O8 0.415792 0.496507 0.401828
O O9 0.539498 0.684206 0.467362
O O10 0.500000 0.837576 0.750000
O O11 0.780485 0.809494 0.780093
O O12 0.500000 0.824160 0.250000
O O13 0.423637 0.655720 0.166970
#
# Coordination Sequence:
#
# PCOD9282265 Si02
#       6
#     8   8   8   8   8   8
#     4  10  22  40  65  91 127 166 213 259 309 371
#     4  11  22  39  66  92 122 167 209 252 317 376
#     4  10  22  43  65  90 126 172 207 257 314 366
#     4  11  21  39  62  93 124 161 210 259 312 373
#     4  10  21  39  60  89 126 159 202 258 313 364
#     4  10  22  41  64  91 124 164 207 259 311 371
#
# _framework density 24.495574000000001
#
# number of rings (size 3 to 8) (size 9 to 14) (size 15 to 20)
#    0.000    1.667    3.333    1.000    2.333    0.667 
#    9.000    3.333    0.000    0.000    0.000    0.000 
#    0.000    0.000    0.000    0.000    0.000    0.000 
#
# Total GULP energy -134071.528713 kJ/mol
# GULP energy per Si atom -5586.313696 kJ/mol
# Density = 2.443982 g / cm^3
# Si number density = 24.495574 Si / 1000 Ang^3
#
#
#
# Elastic Constant Matrix: (Units=GPa)
#
#
# Indices 1 2 3 4 5 6 
#
# 1 203.5755 83.4710 9.9230 0.0000 27.4785 0.0000
# 2 83.4710 88.1292 19.6983 0.0000 2.7901 0.0000
# 3 9.9230 19.6983 58.8324 0.0000 4.0052 0.0000
# 4 0.0000 0.0000 0.0000 27.8000 0.0000 2.6824
# 5 27.4785 2.7901 4.0052 0.0000 30.0446 0.0000
# 6 0.0000 0.0000 0.0000 2.6824 0.0000 51.1298
#
#
#
# Elastic Compliance Matrix: (Units=1/GPa)
#
#
# Indices 1 2 3 4 5 6 
#
# 1 0.009856 -0.009539 0.002104 0.000000 -0.008409 0.000000
# 2 -0.009539 0.021508 -0.006106 0.000000 0.007541 0.000000
# 3 0.002104 -0.006106 0.018951 0.000000 -0.003884 0.000000
# 4 0.000000 0.000000 0.000000 0.036154 0.000000 -0.001897
# 5 -0.008409 0.007541 -0.003884 0.000000 0.040792 0.000000
# 6 0.000000 0.000000 0.000000 -0.001897 0.000000 0.019658
#
#
# Mechanical properties :
#
#
# Convention : Reuss Voigt Hill
#
# Bulk Modulus (GPa) = 43.04145 64.08018 53.56082
# Shear Modulus (GPa) = 27.51118 37.62453 32.56786
#
# Velocity S-wave (km/s) = 3.35492 3.92340 3.65024
# Velocity P-wave (km/s) = 5.71109 6.83672 6.29910
#
# Compressibility (1/GPa) = 0.02323342
#
# Stress axis : x y z
#
# Youngs Moduli (GPa) = 101.46273 46.49492 52.76694
#
# Poissons Ratio (x) = 0.44351 -0.11102
# Poissons Ratio (y) = 0.96785 0.32218
# Poissons Ratio (z) = -0.21347 0.28388
#
# Static dielectric constant tensor:
#      x y z
#    x 1.913780 0.000000 0.027870 
#    y 0.000000 2.020570 0.000000 
#    z 0.027870 0.000000 2.044270 
# 
# From -- ./inp_files/263159.got.cif
#   From: 2010.05.17/outbox.cif.g08.bks.cpg/sg15_132_cif.got.tgz:263159.got - 2010.06.03 18:47:42.
