data_PCOD9282422
_publ_section_title
;
Structure prediction by ZEFSAII (Michael W. Deem and Ramdas Pophale) SiO2 
 PCOD9282422
Probable space group: C 2/C
;
_chemical_formula_sum "Si O2"
_cell_formula_units_Z 52
_cell_length_a 15.217853
_cell_length_b 16.982670
_cell_length_c 14.111330
_cell_angle_alpha 90.000000
_cell_angle_beta 141.257122
_cell_angle_gamma 90.000000
_cell_volume 2282.344880
_symmetry_space_group_name_H-M "C 2/C"
_symmetry_group_IT_number 15
_symmetry_cell_setting 'monoclinic'
loop_
_space_group_symop_operation_xyz
x,y,z
-x,y,1/2-z
-x,-y,-z
x,-y,1/2+z
1/2+x,1/2+y,z
1/2-x,1/2+y,1/2-z
1/2-x,1/2-y,-z
1/2+x,1/2-y,1/2+z
loop_
_atom_site_type_symbol
_atom_site_label
_atom_site_fract_x
_atom_site_fract_y
_atom_site_fract_z
Si Si1 0.075143 0.186489 0.179276
Si Si2 0.871991 0.128031 0.477819
Si Si3 0.892578 0.501026 0.999648
Si Si4 0.073734 0.636999 0.182917
Si Si5 0.882133 0.329402 0.001891
Si Si6 0.500000 0.276916 0.250000
Si Si7 0.440338 0.493822 0.803802
O O1 0.217954 0.191274 0.359444
O O2 0.021310 0.097488 0.148100
O O3 0.108801 0.187100 0.094670
O O4 0.972371 0.257515 0.115442
O O5 0.717287 0.093498 0.332437
O O6 0.897107 0.171935 0.598109
O O7 0.984260 0.058062 0.567901
O O8 0.906801 0.416862 0.064254
O O9 0.728424 0.503408 0.833373
O O10 0.000000 0.500000 0.000000
O O11 0.941886 0.580596 0.092763
O O12 0.078439 0.658076 0.076089
O O13 0.076237 0.718102 0.242162
O O14 0.500000 0.511936 0.750000
#
# Coordination Sequence:
#
# PCOD9282422 Si02
#       7
#     8   8   8   8   8   4   8
#     4  10  21  39  62  88 119 164 209 255 311 377
#     4  11  23  39  60  92 127 169 205 252 319 386
#     4   9  21  42  63  89 125 170 208 256 310 378
#     4  10  22  36  60  92 129 164 205 250 314 379
#     4   9  19  38  61  89 118 161 215 253 302 370
#     4  12  22  36  60  96 134 158 202 256 324 376
#     4  11  24  41  64  92 128 163 212 267 314 368
#
# _framework density 22.783586
#
# number of rings (size 3 to 8) (size 9 to 14) (size 15 to 20)
#    0.000    1.846    2.308    1.846    2.154    4.923 
#    0.000    3.077    1.692    0.000    0.000    0.000 
#    0.000    0.000    0.000    0.000    0.000    0.000 
#
# Total GULP energy -145206.767669 kJ/mol
# GULP energy per Si atom -5584.875680 kJ/mol
# Density = 2.273173 g / cm^3
# Si number density = 22.783586 Si / 1000 Ang^3
#
#
#
# Elastic Constant Matrix: (Units=GPa)
#
#
# Indices 1 2 3 4 5 6 
#
# 1 60.4123 6.9445 17.3879 0.0000 -1.7167 0.0000
# 2 6.9445 152.1838 75.6987 0.0000 26.8368 0.0000
# 3 17.3879 75.6987 90.4964 0.0000 16.0113 0.0000
# 4 0.0000 0.0000 0.0000 45.5384 0.0000 4.0680
# 5 -1.7167 26.8368 16.0113 0.0000 37.0309 0.0000
# 6 0.0000 0.0000 0.0000 4.0680 0.0000 24.5829
#
#
#
# Elastic Compliance Matrix: (Units=1/GPa)
#
#
# Indices 1 2 3 4 5 6 
#
# 1 0.017854 0.001221 -0.004810 0.000000 0.002022 0.000000
# 2 0.001221 0.012048 -0.009505 0.000000 -0.004565 0.000000
# 3 -0.004810 -0.009505 0.020299 0.000000 -0.002111 0.000000
# 4 0.000000 0.000000 0.000000 0.022289 0.000000 -0.003688
# 5 0.002022 -0.004565 -0.002111 0.000000 0.031319 0.000000
# 6 0.000000 0.000000 0.000000 -0.003688 0.000000 0.041289
#
#
# Mechanical properties :
#
#
# Convention : Reuss Voigt Hill
#
# Bulk Modulus (GPa) = 41.64274 55.90608 48.77441
# Shear Modulus (GPa) = 27.88760 34.96786 31.42773
#
# Velocity S-wave (km/s) = 3.50240 3.92188 3.71806
# Velocity P-wave (km/s) = 5.88837 6.71560 6.31555
#
# Compressibility (1/GPa) = 0.02401379
#
# Stress axis : x y z
#
# Youngs Moduli (GPa) = 56.00873 82.99904 49.26422
#
# Poissons Ratio (x) = -0.10135 0.23695
# Poissons Ratio (y) = -0.06839 0.46826
# Poissons Ratio (z) = 0.26939 0.78892
#
# Static dielectric constant tensor:
#      x y z
#    x 1.964160 0.000000 -0.043830 
#    y 0.000000 1.862230 0.000000 
#    z -0.043830 0.000000 1.842510 
# 
# From -- ./inp_files/155554.got.cif
#   From: 2010.05.17/outbox.cif.g08.bks.cpg/sg15_78_cif.got.tgz:155554.got - 2010.06.03 18:47:42.
