data_PCOD9282611
_publ_section_title
;
Structure prediction by ZEFSAII (Michael W. Deem and Ramdas Pophale) SiO2 
 PCOD9282611
Probable space group: C 2/C
;
_chemical_formula_sum "Si O2"
_cell_formula_units_Z 56
_cell_length_a 21.949196
_cell_length_b 24.265634
_cell_length_c 22.358321
_cell_angle_alpha 90.000000
_cell_angle_beta 12.877973
_cell_angle_gamma 90.000000
_cell_volume 2654.064676
_symmetry_space_group_name_H-M "C 2/C"
_symmetry_group_IT_number 15
_symmetry_cell_setting 'monoclinic'
loop_
_space_group_symop_operation_xyz
x,y,z
-x,y,1/2-z
-x,-y,-z
x,-y,1/2+z
1/2+x,1/2+y,z
1/2-x,1/2+y,1/2-z
1/2-x,1/2-y,-z
1/2+x,1/2-y,1/2+z
loop_
_atom_site_type_symbol
_atom_site_label
_atom_site_fract_x
_atom_site_fract_y
_atom_site_fract_z
Si Si1 0.753297 0.958659 0.253723
Si Si2 0.198769 0.602622 0.931071
Si Si3 0.538943 0.102160 0.845931
Si Si4 0.020430 0.941049 0.664350
Si Si5 0.261121 0.062286 0.430201
Si Si6 0.039456 0.713565 0.283947
Si Si7 0.491695 0.790545 0.324315
O O1 0.779349 0.921704 0.288924
O O2 0.682270 0.915574 0.269491
O O3 0.500000 0.000000 0.500000
O O4 0.000000 0.000000 0.000000
O O5 0.494093 0.601087 0.682277
O O6 0.054174 0.660957 0.086894
O O7 0.953614 0.562086 0.187451
O O8 0.746791 0.087423 0.595109
O O9 0.491833 0.166132 0.878136
O O10 0.262187 0.067825 0.099643
O O11 0.000000 0.917049 0.750000
O O12 0.122771 0.003528 0.572347
O O13 0.500000 0.074344 0.250000
O O14 0.847244 0.763750 0.490394
O O15 0.000000 0.702552 0.250000
O O16 0.500000 0.818421 0.250000
O O17 0.235762 0.752179 0.583173
#
# Coordination Sequence:
#
# PCOD9282611 Si02
#       7
#     8   8   8   8   8   8   8
#     4  12  26  44  65  91 129 176 221 263 311 382
#     4  12  24  42  65  91 127 174 216 263 326 389
#     4  12  24  41  63  91 127 171 215 261 319 384
#     4  12  23  37  60  92 127 161 205 264 327 390
#     4  12  24  38  61  94 128 161 208 269 331 396
#     4  10  22  41  65  95 129 166 214 273 335 397
#     4  10  21  39  63  92 125 160 204 261 322 380
#
# _framework density 21.099713000000001
#
# number of rings (size 3 to 8) (size 9 to 14) (size 15 to 20)
#    0.000    0.571    0.000   10.714    0.000    3.429 
#    0.000    1.429    0.000    0.000    0.000    0.000 
#    0.000    0.000    0.000    0.000    0.000    0.000 
#
# Total GULP energy -156284.352780 kJ/mol
# GULP energy per Si atom -5581.584028 kJ/mol
# Density = 2.105169 g / cm^3
# Si number density = 21.099713 Si / 1000 Ang^3
#
#
#
# Elastic Constant Matrix: (Units=GPa)
#
#
# Indices 1 2 3 4 5 6 
#
# 1 132.8424 41.1699 46.5995 -0.4047 9.7547 0.1536
# 2 41.1699 117.3647 40.4895 0.1538 0.5662 0.0239
# 3 46.5995 40.4895 178.2273 -0.0064 -1.0651 0.2491
# 4 -0.4047 0.1538 -0.0064 37.1464 0.2548 8.0729
# 5 9.7547 0.5662 -1.0651 0.2548 30.6613 -0.1394
# 6 0.1536 0.0239 0.2491 8.0729 -0.1394 36.4411
#
#
#
# Elastic Compliance Matrix: (Units=1/GPa)
#
#
# Indices 1 2 3 4 5 6 
#
# 1 0.009186 -0.002575 -0.001834 0.000145 -0.002940 -0.000068
# 2 -0.002575 0.009969 -0.001588 -0.000081 0.000581 0.000035
# 3 -0.001834 -0.001588 0.006456 -0.000012 0.000837 -0.000030
# 4 0.000145 -0.000081 -0.000012 0.028287 -0.000309 -0.006268
# 5 -0.002940 0.000581 0.000837 -0.000309 0.033572 0.000203
# 6 -0.000068 0.000035 -0.000030 -0.006268 0.000203 0.028831
#
#
# Mechanical properties :
#
#
# Convention : Reuss Voigt Hill
#
# Bulk Modulus (GPa) = 73.44380 76.10581 74.77480
# Shear Modulus (GPa) = 37.64092 40.86146 39.25119
#
# Velocity S-wave (km/s) = 4.22827 4.40544 4.31777
# Velocity P-wave (km/s) = 7.66298 7.87560 7.77002
#
# Compressibility (1/GPa) = 0.01361585
#
# Stress axis : x y z
#
# Youngs Moduli (GPa) = 108.86522 100.31087 154.89118
#
# Poissons Ratio (x) = 0.25835 0.28408
# Poissons Ratio (y) = 0.28038 0.24596
# Poissons Ratio (z) = 0.19967 0.15929
#
# Static dielectric constant tensor:
#      x y z
#    x 1.850150 0.000990 -0.028050 
#    y 0.000990 1.819880 -0.000800 
#    z -0.028050 -0.000800 1.766580 
# 
# From -- ./inp_files/282608.got.cif
#   From: 2010.05.17/outbox.cif.g08.bks.cpg/sg15_142_cif.got.tgz:282608.got - 2010.06.03 18:47:42.
