data_PCOD9282969
_publ_section_title
;
Structure prediction by ZEFSAII (Michael W. Deem and Ramdas Pophale) SiO2 
 PCOD9282969
Probable space group: C 2/C
;
_chemical_formula_sum "Si O2"
_cell_formula_units_Z 32
_cell_length_a 10.779910
_cell_length_b 7.745700
_cell_length_c 13.766320
_cell_angle_alpha 90.000000
_cell_angle_beta 73.339299
_cell_angle_gamma 90.000000
_cell_volume 1101.204450
_symmetry_space_group_name_H-M "C 2/C"
_symmetry_group_IT_number 15
_symmetry_cell_setting 'monoclinic'
loop_
_space_group_symop_operation_xyz
x,y,z
-x,y,1/2-z
-x,-y,-z
x,-y,1/2+z
1/2+x,1/2+y,z
1/2-x,1/2+y,1/2-z
1/2-x,1/2-y,-z
1/2+x,1/2-y,1/2+z
loop_
_atom_site_type_symbol
_atom_site_label
_atom_site_fract_x
_atom_site_fract_y
_atom_site_fract_z
Si Si1 0.039627 0.145522 0.913103
Si Si2 0.313449 0.213866 0.355668
Si Si3 0.669080 0.111432 0.738878
Si Si4 0.134893 0.383667 0.042373
O O1 0.178268 0.105894 0.832518
O O2 0.922504 0.154274 0.863492
O O3 0.049539 0.328413 0.970045
O O4 0.000000 0.000000 0.000000
O O5 0.186227 0.300941 0.338767
O O6 0.361377 0.091153 0.255312
O O7 0.308991 0.074914 0.445839
O O8 0.588987 0.172467 0.661517
O O9 0.250000 0.250000 0.000000
#
# Coordination Sequence:
#
# PCOD9282969 Si02
#       4
#     8   8   8   8
#     4  11  22  38  64  94 128 164 218 267 318 391
#     4  10  21  39  66  85 131 167 208 270 324 377
#     4   9  22  40  60  91 125 167 213 260 328 386
#     4   8  19  40  61  87 123 160 208 262 315 383
#
# _framework density 29.059089
#
# number of rings (size 3 to 8) (size 9 to 14) (size 15 to 20)
#    1.500    1.000    0.000    1.500    3.500    1.000 
#    0.000    5.000    0.000    0.000    0.000    0.000 
#    0.000    0.000    0.000    0.000    0.000    0.000 
#
# Total GULP energy -89241.872212 kJ/mol
# GULP energy per Si atom -5577.617013 kJ/mol
# Density = 2.899295 g / cm^3
# Si number density = 29.059089 Si / 1000 Ang^3
#
#
#
# Elastic Constant Matrix: (Units=GPa)
#
#
# Indices 1 2 3 4 5 6 
#
# 1 92.2964 -4.5612 36.8944 0.0000 49.8972 0.0000
# 2 -4.5612 99.6455 21.9022 0.0000 19.3107 0.0000
# 3 36.8944 21.9022 159.3997 0.0000 22.8161 0.0000
# 4 0.0000 0.0000 0.0000 62.5366 0.0000 22.3246
# 5 49.8972 19.3107 22.8161 0.0000 89.9229 0.0000
# 6 0.0000 0.0000 0.0000 22.3246 0.0000 35.7274
#
#
#
# Elastic Compliance Matrix: (Units=1/GPa)
#
#
# Indices 1 2 3 4 5 6 
#
# 1 0.017440 0.003346 -0.003122 0.000000 -0.009603 0.000000
# 2 0.003346 0.011324 -0.001781 0.000000 -0.003836 0.000000
# 3 -0.003122 -0.001781 0.007200 0.000000 0.000288 0.000000
# 4 0.000000 0.000000 0.000000 0.020582 0.000000 -0.012861
# 5 -0.009603 -0.003836 0.000288 0.000000 0.017200 0.000000
# 6 0.000000 0.000000 0.000000 -0.012861 0.000000 0.036026
#
#
# Mechanical properties :
#
#
# Convention : Reuss Voigt Hill
#
# Bulk Modulus (GPa) = 30.44294 51.09026 40.76660
# Shear Modulus (GPa) = 40.37640 57.44445 48.91043
#
# Velocity S-wave (km/s) = 3.73159 4.45096 4.10706
# Velocity P-wave (km/s) = 5.39122 6.63584 6.04565
#
# Compressibility (1/GPa) = 0.03284834
#
# Stress axis : x y z
#
# Youngs Moduli (GPa) = 57.34062 88.31083 138.89673
#
# Poissons Ratio (x) = -0.29545 0.43358
# Poissons Ratio (y) = -0.19183 0.24740
# Poissons Ratio (z) = 0.17900 0.15730
#
# Static dielectric constant tensor:
#      x y z
#    x 2.436710 0.000000 -0.159090 
#    y 0.000000 2.318070 0.000000 
#    z -0.159090 0.000000 2.663630 
# 
# From -- ./inp_files/149886.got.cif
#   From: 2010.05.17/outbox.cif.g08.bks.cpg/sg15_75_cif.got.tgz:149886.got - 2010.06.03 18:47:42.
