data_PCOD9282165
_publ_section_title
;
Structure prediction by ZEFSAII (Michael W. Deem and Ramdas Pophale) SiO2 
 PCOD9282165
Probable space group: C 2/C
;
_chemical_formula_sum "Si O2"
_cell_formula_units_Z 40
_cell_length_a 9.603652
_cell_length_b 13.432850
_cell_length_c 17.118837
_cell_angle_alpha 90.000000
_cell_angle_beta 45.368835
_cell_angle_gamma 90.000000
_cell_volume 1571.598621
_symmetry_space_group_name_H-M "C 2/C"
_symmetry_group_IT_number 15
_symmetry_cell_setting 'monoclinic'
loop_
_space_group_symop_operation_xyz
x,y,z
-x,y,1/2-z
-x,-y,-z
x,-y,1/2+z
1/2+x,1/2+y,z
1/2-x,1/2+y,1/2-z
1/2-x,1/2-y,-z
1/2+x,1/2-y,1/2+z
loop_
_atom_site_type_symbol
_atom_site_label
_atom_site_fract_x
_atom_site_fract_y
_atom_site_fract_z
Si Si1 0.314284 0.591314 0.637439
Si Si2 0.000000 0.325222 0.750000
Si Si3 0.878396 0.463363 0.132726
Si Si4 0.855488 0.253970 0.204692
Si Si5 0.748195 0.448087 0.971247
Si Si6 0.000000 0.916327 0.750000
O O1 0.188710 0.525394 0.748189
O O2 0.207828 0.695789 0.687908
O O3 0.303474 0.548928 0.555479
O O4 0.538419 0.594187 0.577696
O O5 0.146776 0.268007 0.748465
O O6 0.153623 0.379080 0.632506
O O7 0.928931 0.344540 0.118786
O O8 0.687054 0.511663 0.169371
O O9 0.070557 0.529687 0.043521
O O10 0.969033 0.154885 0.185937
#
# Coordination Sequence:
#
# PCOD9282165 Si02
#       6
#     8   4   8   8   8   4
#     4   9  21  36  60  90 121 155 212 255 307 364
#     4  12  19  37  60  84 120 162 203 241 318 366
#     4  10  21  39  58  89 122 161 207 255 303 373
#     4  10  22  37  61  91 122 161 204 262 299 377
#     4  11  18  38  63  84 118 169 198 253 313 373
#     4  12  19  39  68  86 126 172 203 253 324 356
#
# _framework density 25.451792999999999
#
# number of rings (size 3 to 8) (size 9 to 14) (size 15 to 20)
#    1.200    0.400    4.000    1.800    0.000    0.800 
#    0.000    3.000    0.000    7.200    0.000    0.000 
#    0.000    0.000    0.000    0.000    0.000    0.000 
#
# Total GULP energy -111482.447084 kJ/mol
# GULP energy per Si atom -5574.122354 kJ/mol
# Density = 2.539386 g / cm^3
# Si number density = 25.451793 Si / 1000 Ang^3
#
#
#
# Elastic Constant Matrix: (Units=GPa)
#
#
# Indices 1 2 3 4 5 6 
#
# 1 120.1035 24.7549 16.1950 0.0000 -45.2405 0.0000
# 2 24.7549 49.7746 35.9259 0.0000 6.3440 -0.0001
# 3 16.1950 35.9259 92.9016 0.0000 -42.8970 -0.0001
# 4 0.0000 0.0000 0.0000 -6.3266 0.0000 -12.0815
# 5 -45.2405 6.3440 -42.8970 0.0000 31.9067 0.0000
# 6 0.0000 -0.0001 -0.0001 -12.0815 0.0000 47.2234
#
#
#
# Elastic Compliance Matrix: (Units=1/GPa)
#
#
# Indices 1 2 3 4 5 6 
#
# 1 0.000935 0.011109 -0.012833 0.000000 -0.018136 0.000000
# 2 0.011109 0.000071 0.013983 0.000000 0.034536 0.000000
# 3 -0.012833 0.013983 -0.005516 0.000000 -0.028393 0.000000
# 4 0.000000 0.000000 0.000000 -0.106185 0.000000 -0.027166
# 5 -0.018136 0.034536 -0.028393 0.000000 -0.039413 0.000000
# 6 0.000000 0.000000 0.000000 -0.027166 0.000000 0.014226
#
#
# Mechanical properties :
#
#
# Convention : Reuss Voigt Hill
#
# Bulk Modulus (GPa) = 49.98094 46.28126 48.13110
# Shear Modulus (GPa) = -32.52466 26.95427 -2.78519
#
# Velocity S-wave (km/s) = -3.57864 3.25781 -1.04722
# Velocity P-wave (km/s) = 1.61387 5.68986 4.18205
#
# Compressibility (1/GPa) = 0.02000763
#
# Stress axis : x y z
#
# Youngs Moduli (GPa) = 1068.95608 13992.23205 -181.27898
#
# Poissons Ratio (x) = -155.43821 -2.32639
# Poissons Ratio (y) = -11.87492 2.53479
# Poissons Ratio (z) = 13.71812 -195.65078
#
# Static dielectric constant tensor:
#      x y z
#    x 2.194310 0.000000 0.112120 
#    y 0.000000 2.074630 0.000000 
#    z 0.112120 0.000000 2.011210 
# 
# From -- ./inp_files/142588.got.cif
#   From: 2010.05.17/outbox.cif.g08.bks.cpg/sg15_72_cif.got.tgz:142588.got - 2010.06.03 18:47:42.
