data_PCOD9282174
_publ_section_title
;
Structure prediction by ZEFSAII (Michael W. Deem and Ramdas Pophale) SiO2 
 PCOD9282174
Probable space group: C 2/C
;
_chemical_formula_sum "Si O2"
_cell_formula_units_Z 36
_cell_length_a 4.994452
_cell_length_b 22.513389
_cell_length_c 16.083435
_cell_angle_alpha 90.000000
_cell_angle_beta 83.560390
_cell_angle_gamma 90.000000
_cell_volume 1797.044029
_symmetry_space_group_name_H-M "C 2/C"
_symmetry_group_IT_number 15
_symmetry_cell_setting 'monoclinic'
loop_
_space_group_symop_operation_xyz
x,y,z
-x,y,1/2-z
-x,-y,-z
x,-y,1/2+z
1/2+x,1/2+y,z
1/2-x,1/2+y,1/2-z
1/2-x,1/2-y,-z
1/2+x,1/2-y,1/2+z
loop_
_atom_site_type_symbol
_atom_site_label
_atom_site_fract_x
_atom_site_fract_y
_atom_site_fract_z
Si Si1 0.000000 0.567029 0.250000
Si Si2 0.298910 0.809702 0.947496
Si Si3 0.674130 0.331532 0.665938
Si Si4 0.735774 0.426358 0.047506
Si Si5 0.285816 0.984562 0.389044
O O1 0.816372 0.608170 0.195974
O O2 0.798106 0.525729 0.308536
O O3 0.561618 0.799910 0.880599
O O4 0.046791 0.832042 0.899864
O O5 0.250000 0.750000 0.000000
O O6 0.335498 0.863043 0.011938
O O7 0.500000 0.307145 0.750000
O O8 0.437790 0.434100 0.093382
O O9 0.929648 0.453205 0.109767
O O10 0.752167 0.469750 0.966967
#
# Coordination Sequence:
#
# PCOD9282174 Si02
#       5
#     4   8   8   8   8
#     4  12  24  38  68 100 130 168 220 274 344 392
#     4  12  25  43  69  96 128 180 227 270 321 390
#     4  12  23  41  68  99 128 158 226 283 322 381
#     4  10  21  39  58  93 126 166 201 260 322 381
#     4  10  22  34  64  90 132 156 204 265 324 387
#
# _framework density 20.032896999999998
#
# number of rings (size 3 to 8) (size 9 to 14) (size 15 to 20)
#    0.000    0.889    4.444    2.000    9.333    0.000 
#    0.000    0.000   14.667    0.000    0.000    0.000 
#    0.000    0.000    0.000    0.000    0.000    0.000 
#
# Total GULP energy -100415.373967 kJ/mol
# GULP energy per Si atom -5578.631887 kJ/mol
# Density = 1.998730 g / cm^3
# Si number density = 20.032897 Si / 1000 Ang^3
#
#
#
# Elastic Constant Matrix: (Units=GPa)
#
#
# Indices 1 2 3 4 5 6 
#
# 1 94.3623 13.6564 33.1142 0.0000 -15.6793 0.0000
# 2 13.6564 83.7923 34.3506 0.0000 -5.2455 0.0000
# 3 33.1142 34.3506 80.2025 0.0000 -9.4925 0.0000
# 4 0.0000 0.0000 0.0000 23.7553 0.0000 -7.9695
# 5 -15.6793 -5.2455 -9.4925 0.0000 37.1561 0.0000
# 6 0.0000 0.0000 0.0000 -7.9695 0.0000 15.2085
#
#
#
# Elastic Compliance Matrix: (Units=1/GPa)
#
#
# Indices 1 2 3 4 5 6 
#
# 1 0.013014 0.000172 -0.004943 0.000000 0.004253 0.000000
# 2 0.000172 0.014486 -0.006213 0.000000 0.000530 0.000000
# 3 -0.004943 -0.006213 0.017344 0.000000 0.001468 0.000000
# 4 0.000000 0.000000 0.000000 0.051075 0.000000 0.026764
# 5 0.004253 0.000530 0.001468 0.000000 0.029158 0.000000
# 6 0.000000 0.000000 0.000000 0.026764 0.000000 0.079778
#
#
# Mechanical properties :
#
#
# Convention : Reuss Voigt Hill
#
# Bulk Modulus (GPa) = 43.71411 46.73327 45.22369
# Shear Modulus (GPa) = 21.32661 27.03971 24.18316
#
# Velocity S-wave (km/s) = 3.26633 3.67790 3.47821
# Velocity P-wave (km/s) = 6.00781 6.43544 6.22529
#
# Compressibility (1/GPa) = 0.02287591
#
# Stress axis : x y z
#
# Youngs Moduli (GPa) = 76.83985 69.03059 57.65649
#
# Poissons Ratio (x) = -0.01186 0.28502
# Poissons Ratio (y) = -0.01320 0.35820
# Poissons Ratio (z) = 0.37986 0.42886
#
# Static dielectric constant tensor:
#      x y z
#    x 1.732680 0.000000 0.011020 
#    y 0.000000 1.694890 0.000000 
#    z 0.011020 0.000000 1.723860 
# 
# From -- ./inp_files/128740.got.cif
#   From: 2010.05.17/outbox.cif.g08.bks.cpg/sg15_65_cif.got.tgz:128740.got - 2010.06.03 18:47:42.
