data_PCOD9282753
_publ_section_title
;
Structure prediction by ZEFSAII (Michael W. Deem and Ramdas Pophale) SiO2 
 PCOD9282753
Probable space group: C 2/C
;
_chemical_formula_sum "Si O2"
_cell_formula_units_Z 64
_cell_length_a 27.038076
_cell_length_b 13.707416
_cell_length_c 9.073283
_cell_angle_alpha 90.000000
_cell_angle_beta 53.302948
_cell_angle_gamma 90.000000
_cell_volume 2696.282226
_symmetry_space_group_name_H-M "C 2/C"
_symmetry_group_IT_number 15
_symmetry_cell_setting 'monoclinic'
loop_
_space_group_symop_operation_xyz
x,y,z
-x,y,1/2-z
-x,-y,-z
x,-y,1/2+z
1/2+x,1/2+y,z
1/2-x,1/2+y,1/2-z
1/2-x,1/2-y,-z
1/2+x,1/2-y,1/2+z
loop_
_atom_site_type_symbol
_atom_site_label
_atom_site_fract_x
_atom_site_fract_y
_atom_site_fract_z
Si Si1 0.282972 0.203104 0.159570
Si Si2 0.669006 0.982148 0.776065
Si Si3 0.761753 0.599797 0.614246
Si Si4 0.537857 0.710927 0.531179
Si Si5 0.945100 0.996274 0.448557
Si Si6 0.834196 0.175753 0.297576
Si Si7 0.360886 0.460219 0.332721
Si Si8 0.034366 0.579806 0.030892
O O1 0.327673 0.123679 0.150748
O O2 0.252592 0.287711 0.315785
O O3 0.223968 0.148516 0.197678
O O4 0.315289 0.252977 0.962446
O O5 0.683388 0.947526 0.582791
O O6 0.724049 0.047094 0.753614
O O7 0.606051 0.044015 0.906377
O O8 0.703980 0.579191 0.607673
O O9 0.500000 0.713405 0.750000
O O10 0.529510 0.597045 0.503726
O O11 0.612097 0.722356 0.396122
O O12 0.521628 0.812714 0.482931
O O13 0.894253 0.946572 0.428785
O O14 0.000000 0.034341 0.250000
O O15 0.907799 0.068628 0.618014
O O16 0.856270 0.076885 0.332658
O O17 0.000000 0.581686 0.250000
O O18 0.000000 0.500000 0.000000
#
# Coordination Sequence:
#
# PCOD9282753 Si02
#       8
#     8   8   8   8   8   8   8   8
#     4  11  24  41  65 102 136 178 220 288 342 415
#     4  12  26  45  71 101 138 177 230 284 347 417
#     4  12  25  43  68 106 137 175 225 285 353 415
#     4   9  21  40  65  97 130 182 227 275 335 403
#     4  10  21  39  64  92 130 176 227 273 333 402
#     4  10  21  39  70  94 139 180 229 274 355 402
#     4  11  21  39  65  93 131 175 218 281 336 401
#     4  11  25  46  71  96 134 180 229 281 339 404
#
# _framework density 23.736388999999999
#
# number of rings (size 3 to 8) (size 9 to 14) (size 15 to 20)
#    0.000    1.250    1.250    4.500    7.000    1.000 
#    9.000    0.000    2.750    0.000    0.000    0.000 
#    0.000    0.000    0.000    0.000    0.000    0.000 
#
# Total GULP energy -178319.474605 kJ/mol
# GULP energy per Si atom -5572.483581 kJ/mol
# Density = 2.368236 g / cm^3
# Si number density = 23.736389 Si / 1000 Ang^3
#
#
#
# Elastic Constant Matrix: (Units=GPa)
#
#
# Indices 1 2 3 4 5 6 
#
# 1 70.6858 1.2754 19.6615 0.0000 2.5264 0.0000
# 2 1.2754 74.1177 2.3249 0.0000 -1.5264 0.0000
# 3 19.6615 2.3249 104.2374 0.0000 -16.2350 0.0000
# 4 0.0000 0.0000 0.0000 25.5924 0.0000 6.7320
# 5 2.5264 -1.5264 -16.2350 0.0000 35.8325 0.0000
# 6 0.0000 0.0000 0.0000 6.7320 0.0000 32.9684
#
#
#
# Elastic Compliance Matrix: (Units=1/GPa)
#
#
# Indices 1 2 3 4 5 6 
#
# 1 0.015146 -0.000211 -0.003249 0.000000 -0.002549 0.000000
# 2 -0.000211 0.013512 -0.000182 0.000000 0.000508 0.000000
# 3 -0.003249 -0.000182 0.011023 0.000000 0.005215 0.000000
# 4 0.000000 0.000000 0.000000 0.041292 0.000000 -0.008432
# 5 -0.002549 0.000508 0.005215 0.000000 0.030472 0.000000
# 6 0.000000 0.000000 0.000000 -0.008432 0.000000 0.032054
#
#
# Mechanical properties :
#
#
# Convention : Reuss Voigt Hill
#
# Bulk Modulus (GPa) = 30.86908 32.84047 31.85478
# Shear Modulus (GPa) = 30.94405 33.93061 32.43733
#
# Velocity S-wave (km/s) = 3.61453 3.78494 3.70072
# Velocity P-wave (km/s) = 5.51842 5.74165 5.63114
#
# Compressibility (1/GPa) = 0.03239488
#
# Stress axis : x y z
#
# Youngs Moduli (GPa) = 66.02498 74.00896 90.72172
#
# Poissons Ratio (x) = 0.01563 0.29477
# Poissons Ratio (y) = 0.01394 0.01655
# Poissons Ratio (z) = 0.21452 0.01350
#
# Static dielectric constant tensor:
#      x y z
#    x 1.936820 0.000000 0.025240 
#    y 0.000000 1.920790 0.000000 
#    z 0.025240 0.000000 1.921670 
# 
# From -- ./inp_files/70110.got.cif
#   From: 2010.05.17/outbox.cif.g08.bks.cpg/sg15_36_cif.got.tgz:70110.got - 2010.06.03 18:47:42.
