data_PCOD9282258
_publ_section_title
;
Structure prediction by ZEFSAII (Michael W. Deem and Ramdas Pophale) SiO2 
 PCOD9282258
Probable space group: C 2/C
;
_chemical_formula_sum "Si O2"
_cell_formula_units_Z 56
_cell_length_a 18.510426
_cell_length_b 26.227407
_cell_length_c 9.434522
_cell_angle_alpha 90.000000
_cell_angle_beta 140.698490
_cell_angle_gamma 90.000000
_cell_volume 2901.152769
_symmetry_space_group_name_H-M "C 2/C"
_symmetry_group_IT_number 15
_symmetry_cell_setting 'monoclinic'
loop_
_space_group_symop_operation_xyz
x,y,z
-x,y,1/2-z
-x,-y,-z
x,-y,1/2+z
1/2+x,1/2+y,z
1/2-x,1/2+y,1/2-z
1/2-x,1/2-y,-z
1/2+x,1/2-y,1/2+z
loop_
_atom_site_type_symbol
_atom_site_label
_atom_site_fract_x
_atom_site_fract_y
_atom_site_fract_z
Si Si1 0.206074 0.191008 0.915617
Si Si2 0.897485 0.349214 0.505021
Si Si3 0.262370 0.351415 0.725363
Si Si4 0.981963 0.183452 0.383942
Si Si5 0.099894 0.462120 0.093507
Si Si6 0.362045 0.214761 0.668564
Si Si7 0.137390 0.449174 0.455296
O O1 0.292662 0.158004 0.951510
O O2 0.087620 0.183331 0.652312
O O3 0.250000 0.250000 0.000000
O O4 0.203885 0.168994 0.070405
O O5 0.931510 0.406918 0.514890
O O6 0.869207 0.320706 0.316635
O O7 0.000000 0.324785 0.750000
O O8 0.371161 0.342859 0.787328
O O9 0.156700 0.319204 0.498433
O O10 0.213080 0.408217 0.651404
O O11 0.000000 0.163362 0.250000
O O12 0.959282 0.243705 0.329272
O O13 0.171982 0.450910 0.343479
O O14 0.152386 0.495797 0.048922
O O15 0.000000 0.500000 0.000000
O O16 0.250000 0.250000 0.500000
O O17 0.000000 0.436193 0.250000
#
# Coordination Sequence:
#
# PCOD9282258 Si02
#       7
#     8   8   8   8   8   8   8
#     4  12  25  39  62  96 131 175 221 268 322 388
#     4  12  24  39  65  95 133 172 215 266 337 393
#     4  11  23  40  64  92 127 173 216 266 328 384
#     4  11  23  42  62  88 131 171 222 265 314 387
#     4  10  22  41  62  96 133 163 212 271 335 391
#     4  10  21  39  60  88 126 168 213 260 317 386
#     4  10  22  38  66  95 131 161 209 266 334 390
#
# _framework density 19.302672999999999
#
# number of rings (size 3 to 8) (size 9 to 14) (size 15 to 20)
#    0.000    1.143    1.429    6.857    6.000    1.714 
#    0.000    0.000    0.000    0.857    0.000    0.000 
#    0.000    0.000    0.000    0.000    0.000    0.000 
#
# Total GULP energy -156184.231244 kJ/mol
# GULP energy per Si atom -5578.008259 kJ/mol
# Density = 1.925874 g / cm^3
# Si number density = 19.302673 Si / 1000 Ang^3
#
#
#
# Elastic Constant Matrix: (Units=GPa)
#
#
# Indices 1 2 3 4 5 6 
#
# 1 87.4540 21.9453 47.6987 0.0000 -18.9378 0.0000
# 2 21.9453 74.6109 33.5309 0.0000 -6.3737 0.0000
# 3 47.6987 33.5309 152.8985 0.0000 -24.9458 0.0000
# 4 0.0000 0.0000 0.0000 19.6606 0.0000 -8.7948
# 5 -18.9378 -6.3737 -24.9458 0.0000 40.0369 0.0000
# 6 0.0000 0.0000 0.0000 -8.7948 0.0000 25.7997
#
#
#
# Elastic Compliance Matrix: (Units=1/GPa)
#
#
# Indices 1 2 3 4 5 6 
#
# 1 0.014871 -0.002478 -0.003353 0.000000 0.004550 0.000000
# 2 -0.002478 0.015286 -0.002642 0.000000 -0.000385 0.000000
# 3 -0.003353 -0.002642 0.008725 0.000000 0.003430 0.000000
# 4 0.000000 0.000000 0.000000 0.060015 0.000000 0.020458
# 5 0.004550 -0.000385 0.003430 0.000000 0.029205 0.000000
# 6 0.000000 0.000000 0.000000 0.020458 0.000000 0.045734
#
#
# Mechanical properties :
#
#
# Convention : Reuss Voigt Hill
#
# Bulk Modulus (GPa) = 45.58851 57.92371 51.75611
# Shear Modulus (GPa) = 25.24043 31.21868 28.22956
#
# Velocity S-wave (km/s) = 3.62002 4.02596 3.82837
# Velocity P-wave (km/s) = 6.41418 7.18919 6.81271
#
# Compressibility (1/GPa) = 0.02193535
#
# Stress axis : x y z
#
# Youngs Moduli (GPa) = 67.24635 65.41832 114.60859
#
# Poissons Ratio (x) = 0.16212 0.38431
# Poissons Ratio (y) = 0.16665 0.30279
# Poissons Ratio (z) = 0.22549 0.17283
#
# Static dielectric constant tensor:
#      x y z
#    x 1.747260 0.000000 0.003820 
#    y 0.000000 1.620950 0.000000 
#    z 0.003820 0.000000 1.699700 
# 
# From -- ./inp_files/34201.got.cif
#   From: 2010.05.17/outbox.cif.g08.bks.cpg/sg15_18_cif.got.tgz:34201.got - 2010.06.03 18:47:42.
