data_PCOD9282892
_publ_section_title
;
Structure prediction by ZEFSAII (Michael W. Deem and Ramdas Pophale) SiO2 
 PCOD9282892
Probable space group: C 2/C
;
_chemical_formula_sum "Si O2"
_cell_formula_units_Z 20
_cell_length_a 15.106491
_cell_length_b 15.424751
_cell_length_c 5.209009
_cell_angle_alpha 90.000000
_cell_angle_beta 135.015592
_cell_angle_gamma 90.000000
_cell_volume 858.032327
_symmetry_space_group_name_H-M "C 2/C"
_symmetry_group_IT_number 15
_symmetry_cell_setting 'monoclinic'
loop_
_space_group_symop_operation_xyz
x,y,z
-x,y,1/2-z
-x,-y,-z
x,-y,1/2+z
1/2+x,1/2+y,z
1/2-x,1/2+y,1/2-z
1/2-x,1/2-y,-z
1/2+x,1/2-y,1/2+z
loop_
_atom_site_type_symbol
_atom_site_label
_atom_site_fract_x
_atom_site_fract_y
_atom_site_fract_z
Si Si1 0.639410 0.030843 0.853770
Si Si2 0.000000 0.937468 0.250000
Si Si3 0.259618 0.690815 0.269320
O O1 0.500000 0.000000 0.500000
O O2 0.699855 0.031806 0.693501
O O3 0.646879 0.122811 0.004829
O O4 0.119205 0.872168 0.486001
O O5 0.000000 0.000000 0.500000
O O6 0.250000 0.750000 0.500000
O O7 0.250000 0.750000 0.000000
#
# Coordination Sequence:
#
# PCOD9282892 Si02
#       3
#     8   4   8
#     4  10  21  39  65  93 126 172 224 274 332 408
#     4  12  26  48  72 100 144 196 234 282 362 442
#     4  12  26  44  68 104 140 178 233 300 354 408
#
# _framework density 23.309142000000001
#
# number of rings (size 3 to 8) (size 9 to 14) (size 15 to 20)
#    0.000    0.800    0.000    7.200    0.000    9.600 
#    0.000    0.000    0.000    0.000    0.000    0.000 
#    0.000    0.000    0.000    0.000    0.000    0.000 
#
# Total GULP energy -55853.601189 kJ/mol
# GULP energy per Si atom -5585.360119 kJ/mol
# Density = 2.325609 g / cm^3
# Si number density = 23.309142 Si / 1000 Ang^3
#
#
#
# Elastic Constant Matrix: (Units=GPa)
#
#
# Indices 1 2 3 4 5 6 
#
# 1 132.6556 90.4617 113.7356 0.0000 -30.3291 0.0000
# 2 90.4617 201.5720 124.9951 0.0000 -14.2657 0.0000
# 3 113.7356 124.9951 194.6220 0.0000 -42.9803 0.0000
# 4 0.0000 0.0000 0.0000 76.2918 0.0000 -8.4761
# 5 -30.3291 -14.2657 -42.9803 0.0000 85.5462 0.0000
# 6 0.0000 0.0000 0.0000 -8.4761 0.0000 64.2570
#
#
#
# Elastic Compliance Matrix: (Units=1/GPa)
#
#
# Indices 1 2 3 4 5 6 
#
# 1 0.015871 -0.002446 -0.007369 0.000000 0.001516 0.000000
# 2 -0.002446 0.008783 -0.004589 0.000000 -0.001708 0.000000
# 3 -0.007369 -0.004589 0.013100 0.000000 0.003204 0.000000
# 4 0.000000 0.000000 0.000000 0.013303 0.000000 0.001755
# 5 0.001516 -0.001708 0.003204 0.000000 0.013552 0.000000
# 6 0.000000 0.000000 0.000000 0.001755 0.000000 0.015794
#
#
# Mechanical properties :
#
#
# Convention : Reuss Voigt Hill
#
# Bulk Modulus (GPa) = 111.78282 131.91495 121.84888
# Shear Modulus (GPa) = 44.56633 58.52949 51.54791
#
# Velocity S-wave (km/s) = 4.37735 5.01643 4.70775
# Velocity P-wave (km/s) = 8.57957 9.50102 9.05203
#
# Compressibility (1/GPa) = 0.00894592
#
# Stress axis : x y z
#
# Youngs Moduli (GPa) = 63.00795 113.85184 76.33840
#
# Poissons Ratio (x) = 0.27843 0.56257
# Poissons Ratio (y) = 0.15409 0.35033
# Poissons Ratio (z) = 0.46433 0.52248
#
# Static dielectric constant tensor:
#      x y z
#    x 2.166160 0.000000 0.041860 
#    y 0.000000 2.169220 0.000000 
#    z 0.041860 0.000000 1.881440 
# 
# From -- ./inp_files/2950.got.cif
#   From: 2010.05.17/outbox.cif.g08.bks.cpg/sg15_2_cif.got.tgz:2950.got - 2010.06.03 18:47:42.
