data_PCOD9282371
_publ_section_title
;
Structure prediction by ZEFSAII (Michael W. Deem and Ramdas Pophale) SiO2 
 PCOD9282371
Probable space group: C 2/C
;
_chemical_formula_sum "Si O2"
_cell_formula_units_Z 40
_cell_length_a 15.883212
_cell_length_b 13.418615
_cell_length_c 7.623490
_cell_angle_alpha 90.000000
_cell_angle_beta 96.429367
_cell_angle_gamma 90.000000
_cell_volume 1614.580886
_symmetry_space_group_name_H-M "C 2/C"
_symmetry_group_IT_number 15
_symmetry_cell_setting 'monoclinic'
loop_
_space_group_symop_operation_xyz
x,y,z
-x,y,1/2-z
-x,-y,-z
x,-y,1/2+z
1/2+x,1/2+y,z
1/2-x,1/2+y,1/2-z
1/2-x,1/2-y,-z
1/2+x,1/2-y,1/2+z
loop_
_atom_site_type_symbol
_atom_site_label
_atom_site_fract_x
_atom_site_fract_y
_atom_site_fract_z
Si Si1 0.190241 0.653317 0.966675
Si Si2 0.335051 0.777353 0.413785
Si Si3 0.502658 0.117759 0.961283
Si Si4 0.658275 0.587651 0.318704
Si Si5 0.056368 0.080874 0.617151
O O1 0.183766 0.648012 0.754448
O O2 0.097409 0.653754 0.029765
O O3 0.250000 0.750000 0.000000
O O4 0.247506 0.574486 0.084398
O O5 0.250000 0.750000 0.500000
O O6 0.420118 0.824715 0.517478
O O7 0.355339 0.669736 0.333559
O O8 0.500000 0.133264 0.750000
O O9 0.500000 0.000000 0.000000
O O10 0.603181 0.630683 0.467789
O O11 0.624063 0.483410 0.241702
O O12 0.000000 0.134657 0.750000
O O13 0.000000 0.000000 0.500000
#
# Coordination Sequence:
#
# PCOD9282371 Si02
#       5
#     8   8   8   8   8
#     4   9  21  40  61  91 129 173 224 285 347 411
#     4  10  23  43  67  96 132 181 234 291 353 422
#     4  10  23  42  67  95 129 177 232 286 340 408
#     4  10  21  39  61  91 136 175 222 291 359 426
#     4   9  20  36  60  95 128 172 224 279 348 425
#
# _framework density 24.774231
#
# number of rings (size 3 to 8) (size 9 to 14) (size 15 to 20)
#    0.000    2.400    0.000    0.000    0.000   23.200 
#    0.000    0.000    0.000    3.600    0.000    0.000 
#    0.000    0.000    0.000    0.000    0.000    0.000 
#
# Total GULP energy -111610.173205 kJ/mol
# GULP energy per Si atom -5580.508660 kJ/mol
# Density = 2.471784 g / cm^3
# Si number density = 24.774231 Si / 1000 Ang^3
#
#
#
# Elastic Constant Matrix: (Units=GPa)
#
#
# Indices 1 2 3 4 5 6 
#
# 1 245.7860 64.2442 60.1183 0.0000 -11.6081 0.0000
# 2 64.2442 79.0559 16.7066 0.0000 -16.4198 0.0000
# 3 60.1183 16.7066 70.1867 0.0000 -18.4828 0.0000
# 4 0.0000 0.0000 0.0000 36.3947 0.0000 0.5691
# 5 -11.6081 -16.4198 -18.4828 0.0000 58.4793 0.0000
# 6 0.0000 0.0000 0.0000 0.5691 0.0000 37.8343
#
#
#
# Elastic Compliance Matrix: (Units=1/GPa)
#
#
# Indices 1 2 3 4 5 6 
#
# 1 0.006321 -0.004443 -0.004750 0.000000 -0.001494 0.000000
# 2 -0.004443 0.016939 0.000866 0.000000 0.004148 0.000000
# 3 -0.004750 0.000866 0.019554 0.000000 0.005480 0.000000
# 4 0.000000 0.000000 0.000000 0.027483 0.000000 -0.000413
# 5 -0.001494 0.004148 0.005480 0.000000 0.019700 0.000000
# 6 0.000000 0.000000 0.000000 -0.000413 0.000000 0.026437
#
#
# Mechanical properties :
#
#
# Convention : Reuss Voigt Hill
#
# Bulk Modulus (GPa) = 38.22816 75.24075 56.73446
# Shear Modulus (GPa) = 35.25880 43.47228 39.36554
#
# Velocity S-wave (km/s) = 3.77663 4.19350 3.99051
# Velocity P-wave (km/s) = 5.87208 7.34056 6.64700
#
# Compressibility (1/GPa) = 0.02615873
#
# Stress axis : x y z
#
# Youngs Moduli (GPa) = 158.19322 59.03660 51.14148
#
# Poissons Ratio (x) = 0.26233 0.24294
# Poissons Ratio (y) = 0.70293 -0.04431
# Poissons Ratio (z) = 0.75148 -0.05115
#
# Static dielectric constant tensor:
#      x y z
#    x 2.086070 0.000000 0.033900 
#    y 0.000000 1.995000 0.000000 
#    z 0.033900 0.000000 2.032890 
# 
# From -- ./inp_files/37980.got.cif
#   From: 2010.05.17/outbox.cif.g08.bks.cpg/sg15_19_cif.got.tgz:37980.got - 2010.06.03 18:47:42.
