data_PCOD9282834
_publ_section_title
;
Structure prediction by ZEFSAII (Michael W. Deem and Ramdas Pophale) SiO2 
 PCOD9282834
Probable space group: C 2/C
;
_chemical_formula_sum "Si O2"
_cell_formula_units_Z 60
_cell_length_a 17.420924
_cell_length_b 23.225137
_cell_length_c 8.148765
_cell_angle_alpha 90.000000
_cell_angle_beta 59.533279
_cell_angle_gamma 90.000000
_cell_volume 2841.777954
_symmetry_space_group_name_H-M "C 2/C"
_symmetry_group_IT_number 15
_symmetry_cell_setting 'monoclinic'
loop_
_space_group_symop_operation_xyz
x,y,z
-x,y,1/2-z
-x,-y,-z
x,-y,1/2+z
1/2+x,1/2+y,z
1/2-x,1/2+y,1/2-z
1/2-x,1/2-y,-z
1/2+x,1/2-y,1/2+z
loop_
_atom_site_type_symbol
_atom_site_label
_atom_site_fract_x
_atom_site_fract_y
_atom_site_fract_z
Si Si1 0.197181 0.262960 0.297020
Si Si2 0.539896 0.057926 0.885544
Si Si3 0.588894 0.862991 0.814903
Si Si4 0.237503 0.921921 0.015356
Si Si5 0.500000 0.248876 0.250000
Si Si6 0.250873 0.450989 0.126804
Si Si7 0.357080 0.692377 0.858612
Si Si8 0.214365 0.342323 0.986770
O O1 0.278316 0.285310 0.324973
O O2 0.125701 0.237228 0.503849
O O3 0.174115 0.314233 0.197793
O O4 0.227678 0.208400 0.157132
O O5 0.500000 0.068610 0.750000
O O6 0.644030 0.050347 0.755704
O O7 0.502966 0.104891 0.049827
O O8 0.500000 0.000000 0.000000
O O9 0.661713 0.898563 0.628409
O O10 0.559981 0.801676 0.781353
O O11 0.640684 0.857014 0.932174
O O12 0.224020 0.983733 0.945143
O O13 0.217877 0.932243 0.228077
O O14 0.175539 0.868005 0.035151
O O15 0.546835 0.300892 0.320229
O O16 0.268245 0.399890 0.977393
#
# Coordination Sequence:
#
# PCOD9282834 Si02
#       8
#     8   8   8   8   4   8   8   8
#     4  10  21  39  65  88 122 162 207 259 303 367
#     4  12  24  34  49  81 129 162 191 234 288 363
#     4  12  23  39  59  88 129 166 202 245 307 380
#     4  12  24  42  64  89 121 166 215 251 301 374
#     4  12  26  38  64  90 122 162 204 258 324 358
#     4  12  24  38  61  92 123 166 208 250 306 368
#     4  11  22  42  63  89 122 164 210 260 306 368
#     4  11  21  38  62  93 122 160 210 254 303 370
#
# _framework density 21.113543
#
# number of rings (size 3 to 8) (size 9 to 14) (size 15 to 20)
#    0.000    0.533    6.667    3.200    2.800    0.000 
#    0.000    0.000    0.000    0.800    0.000    0.000 
#    0.000    0.000    0.000    0.000    0.000    0.000 
#
# Total GULP energy -167110.870319 kJ/mol
# GULP energy per Si atom -5570.362344 kJ/mol
# Density = 2.106549 g / cm^3
# Si number density = 21.113543 Si / 1000 Ang^3
#
#
#
# Elastic Constant Matrix: (Units=GPa)
#
#
# Indices 1 2 3 4 5 6 
#
# 1 47.4698 18.5420 14.5824 0.0000 11.1016 0.0000
# 2 18.5420 155.8676 49.9511 0.0000 -0.0872 0.0000
# 3 14.5824 49.9511 71.6961 0.0000 14.9847 0.0000
# 4 0.0000 0.0000 0.0000 57.5181 0.0000 -1.2668
# 5 11.1016 -0.0872 14.9847 0.0000 29.0131 0.0000
# 6 0.0000 0.0000 0.0000 -1.2668 0.0000 28.7985
#
#
#
# Elastic Compliance Matrix: (Units=1/GPa)
#
#
# Indices 1 2 3 4 5 6 
#
# 1 0.024490 -0.002445 -0.001477 0.000000 -0.008615 0.000000
# 2 -0.002445 0.008807 -0.006546 0.000000 0.004343 0.000000
# 3 -0.001477 -0.006546 0.020957 0.000000 -0.010278 0.000000
# 4 0.000000 0.000000 0.000000 0.017403 0.000000 0.000766
# 5 -0.008615 0.004343 -0.010278 0.000000 0.043085 0.000000
# 6 0.000000 0.000000 0.000000 0.000766 0.000000 0.034758
#
#
# Mechanical properties :
#
#
# Convention : Reuss Voigt Hill
#
# Bulk Modulus (GPa) = 30.01430 49.02049 39.51739
# Shear Modulus (GPa) = 27.54196 35.86316 31.70256
#
# Velocity S-wave (km/s) = 3.61566 4.12586 3.87916
# Velocity P-wave (km/s) = 5.62825 6.77974 6.23066
#
# Compressibility (1/GPa) = 0.03331745
#
# Stress axis : x y z
#
# Youngs Moduli (GPa) = 40.83380 113.54832 47.71624
#
# Poissons Ratio (x) = 0.27759 0.07048
# Poissons Ratio (y) = 0.09983 0.31236
# Poissons Ratio (z) = 0.06032 0.74331
#
# Static dielectric constant tensor:
#      x y z
#    x 1.528160 0.000000 0.162650 
#    y 0.000000 1.882320 0.000000 
#    z 0.162650 0.000000 1.751690 
# 
# From -- ./inp_files/50194.got.cif
#   From: 2010.05.17/outbox.cif.g08.bks.cpg/sg15_26_cif.got.tgz:50194.got - 2010.06.03 18:47:42.
