data_PCOD9282146
_publ_section_title
;
Structure prediction by ZEFSAII (Michael W. Deem and Ramdas Pophale) SiO2 
 PCOD9282146
Probable space group: C 2/C
;
_chemical_formula_sum "Si O2"
_cell_formula_units_Z 64
_cell_length_a 16.383831
_cell_length_b 16.005811
_cell_length_c 16.338079
_cell_angle_alpha 90.000000
_cell_angle_beta 132.571567
_cell_angle_gamma 90.000000
_cell_volume 3155.203067
_symmetry_space_group_name_H-M "C 2/C"
_symmetry_group_IT_number 15
_symmetry_cell_setting 'monoclinic'
loop_
_space_group_symop_operation_xyz
x,y,z
-x,y,1/2-z
-x,-y,-z
x,-y,1/2+z
1/2+x,1/2+y,z
1/2-x,1/2+y,1/2-z
1/2-x,1/2-y,-z
1/2+x,1/2-y,1/2+z
loop_
_atom_site_type_symbol
_atom_site_label
_atom_site_fract_x
_atom_site_fract_y
_atom_site_fract_z
Si Si1 0.605894 0.659849 0.878365
Si Si2 0.837812 0.302236 0.268777
Si Si3 0.059892 0.870497 0.672754
Si Si4 0.805434 0.986042 0.611532
Si Si5 0.760959 0.933297 0.832638
Si Si6 0.195610 0.896943 0.043483
Si Si7 0.882224 0.474592 0.385911
Si Si8 0.282215 0.268919 0.907298
O O1 0.500000 0.675772 0.750000
O O2 0.629382 0.560404 0.891412
O O3 0.711550 0.701893 0.907554
O O4 0.605308 0.705805 0.966658
O O5 0.915210 0.226605 0.291190
O O6 0.754731 0.326999 0.138942
O O7 0.888679 0.388758 0.338169
O O8 0.786477 0.264068 0.317561
O O9 0.109594 0.931620 0.776038
O O10 0.132726 0.898367 0.643724
O O11 0.931640 0.879232 0.564398
O O12 0.752093 0.923630 0.508381
O O13 0.712235 0.026555 0.607242
O O14 0.724119 0.859731 0.867582
O O15 0.795040 0.019542 0.896239
O O16 0.663206 0.953585 0.704353
O O17 0.000000 0.500000 0.500000
#
# Coordination Sequence:
#
# PCOD9282146 Si02
#       8
#     8   8   8   8   8   8   8   8
#     4  11  22  36  62  96 131 168 201 267 334 378
#     4  10  23  41  60  93 129 170 222 260 311 401
#     4  10  22  37  63  93 127 171 214 266 326 375
#     4  11  22  41  64  95 128 162 221 275 321 392
#     4   9  20  37  58  90 122 164 220 258 308 388
#     4  11  21  39  64  91 130 168 212 272 319 376
#     4  10  22  42  64  84 123 172 215 265 327 389
#     4  10  21  39  57  91 134 158 212 262 312 390
#
# _framework density 20.283954999999999
#
# number of rings (size 3 to 8) (size 9 to 14) (size 15 to 20)
#    0.000    1.750    2.500    1.500    0.000    6.500 
#    0.000    3.750    0.000    0.000    0.000    0.000 
#    0.000    0.000    0.000    0.000    0.000    0.000 
#
# Total GULP energy -178285.036600 kJ/mol
# GULP energy per Si atom -5571.407394 kJ/mol
# Density = 2.023779 g / cm^3
# Si number density = 20.283955 Si / 1000 Ang^3
#
#
#
# Elastic Constant Matrix: (Units=GPa)
#
#
# Indices 1 2 3 4 5 6 
#
# 1 23.2164 17.6677 31.1243 0.0000 -6.1647 0.0000
# 2 17.6677 103.4869 56.4852 0.0000 5.4374 0.0000
# 3 31.1243 56.4852 164.0589 0.0000 0.5786 0.0000
# 4 0.0000 0.0000 0.0000 36.5059 0.0000 -8.2717
# 5 -6.1647 5.4374 0.5786 0.0000 28.3270 0.0000
# 6 0.0000 0.0000 0.0000 -8.2717 0.0000 12.8022
#
#
#
# Elastic Compliance Matrix: (Units=1/GPa)
#
#
# Indices 1 2 3 4 5 6 
#
# 1 0.066096 -0.006454 -0.010373 0.000000 0.015835 0.000000
# 2 -0.006454 0.012668 -0.003124 0.000000 -0.003773 0.000000
# 3 -0.010373 -0.003124 0.009145 0.000000 -0.001845 0.000000
# 4 0.000000 0.000000 0.000000 0.032091 0.000000 0.020734
# 5 0.015835 -0.003773 -0.001845 0.000000 0.039510 0.000000
# 6 0.000000 0.000000 0.000000 0.020734 0.000000 0.091508
#
#
# Mechanical properties :
#
#
# Convention : Reuss Voigt Hill
#
# Bulk Modulus (GPa) = 20.83032 55.70185 38.26609
# Shear Modulus (GPa) = 16.29072 27.89268 22.09170
#
# Velocity S-wave (km/s) = 2.83703 3.71227 3.30376
# Velocity P-wave (km/s) = 4.58512 6.77460 5.78440
#
# Compressibility (1/GPa) = 0.04800695
#
# Stress axis : x y z
#
# Youngs Moduli (GPa) = 15.12957 78.93742 109.34569
#
# Poissons Ratio (x) = 0.50949 1.13423
# Poissons Ratio (y) = 0.09765 0.34158
# Poissons Ratio (z) = 0.15694 0.24659
#
# Static dielectric constant tensor:
#      x y z
#    x 1.766800 0.000000 -0.072560 
#    y 0.000000 1.749550 0.000000 
#    z -0.072560 0.000000 1.743140 
# 
# From -- ./inp_files/211411.got.cif
#   From: 2010.05.17/outbox.cif.g08.bks.cpg/sg15_106_cif.got.tgz:211411.got - 2010.06.03 18:47:42.
