data_PCOD9282020
_publ_section_title
;
Structure prediction by ZEFSAII (Michael W. Deem and Ramdas Pophale) SiO2 
 PCOD9282020
Probable space group: C 2/C
;
_chemical_formula_sum "Si O2"
_cell_formula_units_Z 44
_cell_length_a 6.819091
_cell_length_b 18.624740
_cell_length_c 15.451821
_cell_angle_alpha 90.000000
_cell_angle_beta 69.299443
_cell_angle_gamma 90.000000
_cell_volume 1835.745981
_symmetry_space_group_name_H-M "C 2/C"
_symmetry_group_IT_number 15
_symmetry_cell_setting 'monoclinic'
loop_
_space_group_symop_operation_xyz
x,y,z
-x,y,1/2-z
-x,-y,-z
x,-y,1/2+z
1/2+x,1/2+y,z
1/2-x,1/2+y,1/2-z
1/2-x,1/2-y,-z
1/2+x,1/2-y,1/2+z
loop_
_atom_site_type_symbol
_atom_site_label
_atom_site_fract_x
_atom_site_fract_y
_atom_site_fract_z
Si Si1 0.710165 0.907404 0.714277
Si Si2 0.573916 0.705727 0.144199
Si Si3 0.000000 0.010463 0.750000
Si Si4 0.168511 0.515083 0.046632
Si Si5 0.999127 0.256587 0.529860
Si Si6 0.966629 0.902170 0.078714
O O1 0.500000 0.859273 0.750000
O O2 0.632464 0.961276 0.650978
O O3 0.913049 0.860822 0.656136
O O4 0.802340 0.956131 0.777669
O O5 0.500000 0.733235 0.250000
O O6 0.824960 0.689381 0.098484
O O7 0.533666 0.756691 0.068573
O O8 0.968995 0.060016 0.671620
O O9 0.314796 0.445299 0.037343
O O10 0.300701 0.582272 0.990976
O O11 0.000000 0.500000 0.000000
O O12 0.250000 0.250000 0.500000
O O13 0.920723 0.181116 0.583278
#
# Coordination Sequence:
#
# PCOD9282020 Si02
#       6
#     8   8   4   8   8   8
#     4  11  22  39  69 107 137 178 239 294 369 426
#     4  11  26  45  71 104 144 186 246 298 346 437
#     4  10  22  40  68 104 140 174 232 308 354 436
#     4  10  21  38  67  97 135 180 219 298 361 414
#     4  11  27  48  70 105 145 197 242 291 360 431
#     4  10  22  42  64  99 139 174 236 284 355 423
#
# _framework density 23.968456
#
# number of rings (size 3 to 8) (size 9 to 14) (size 15 to 20)
#    0.000    1.455    2.727    1.091    2.545    5.818 
#    0.000    3.636    0.000    0.000    0.000    0.000 
#    0.000    0.000    0.000    0.000    0.000    0.000 
#
# Total GULP energy -122584.122530 kJ/mol
# GULP energy per Si atom -5572.005570 kJ/mol
# Density = 2.391390 g / cm^3
# Si number density = 23.968456 Si / 1000 Ang^3
#
#
#
# Elastic Constant Matrix: (Units=GPa)
#
#
# Indices 1 2 3 4 5 6 
#
# 1 226.8920 40.3701 69.9832 0.0000 2.9439 0.0000
# 2 40.3701 74.4656 11.8746 0.0000 -1.5461 0.0000
# 3 69.9832 11.8746 120.1214 0.0000 14.7490 0.0000
# 4 0.0000 0.0000 0.0000 27.1352 0.0000 5.0311
# 5 2.9439 -1.5461 14.7490 0.0000 51.6373 0.0000
# 6 0.0000 0.0000 0.0000 5.0311 0.0000 21.4235
#
#
#
# Elastic Compliance Matrix: (Units=1/GPa)
#
#
# Indices 1 2 3 4 5 6 
#
# 1 0.005866 -0.002657 -0.003217 0.000000 0.000505 0.000000
# 2 -0.002657 0.014881 0.000003 0.000000 0.000596 0.000000
# 3 -0.003217 0.000003 0.010546 0.000000 -0.002829 0.000000
# 4 0.000000 0.000000 0.000000 0.038530 0.000000 -0.009048
# 5 0.000505 0.000596 -0.002829 0.000000 0.020163 0.000000
# 6 0.000000 0.000000 0.000000 -0.009048 0.000000 0.048803
#
#
# Mechanical properties :
#
#
# Convention : Reuss Voigt Hill
#
# Bulk Modulus (GPa) = 51.14290 73.99274 62.56782
# Shear Modulus (GPa) = 31.83790 39.98928 35.91359
#
# Velocity S-wave (km/s) = 3.64857 4.08905 3.87508
# Velocity P-wave (km/s) = 6.25567 7.29601 6.79577
#
# Compressibility (1/GPa) = 0.01955306
#
# Stress axis : x y z
#
# Youngs Moduli (GPa) = 170.48318 67.19969 94.82286
#
# Poissons Ratio (x) = 0.17852 0.30502
# Poissons Ratio (y) = 0.45289 -0.00033
# Poissons Ratio (z) = 0.54840 -0.00023
#
# Static dielectric constant tensor:
#      x y z
#    x 2.001590 0.000000 -0.110420 
#    y 0.000000 1.977790 0.000000 
#    z -0.110420 0.000000 2.089840 
# 
# From -- ./inp_files/184798.got.cif
#   From: 2010.05.17/outbox.cif.g08.bks.cpg/sg15_93_cif.got.tgz:184798.got - 2010.06.03 18:47:42.
