data_PCOD9282900
_publ_section_title
;
Structure prediction by ZEFSAII (Michael W. Deem and Ramdas Pophale) SiO2 
 PCOD9282900
Probable space group: C 2/C
;
_chemical_formula_sum "Si O2"
_cell_formula_units_Z 52
_cell_length_a 11.317365
_cell_length_b 33.200789
_cell_length_c 10.769090
_cell_angle_alpha 90.000000
_cell_angle_beta 137.263912
_cell_angle_gamma 90.000000
_cell_volume 2746.002576
_symmetry_space_group_name_H-M "C 2/C"
_symmetry_group_IT_number 15
_symmetry_cell_setting 'monoclinic'
loop_
_space_group_symop_operation_xyz
x,y,z
-x,y,1/2-z
-x,-y,-z
x,-y,1/2+z
1/2+x,1/2+y,z
1/2-x,1/2+y,1/2-z
1/2-x,1/2-y,-z
1/2+x,1/2-y,1/2+z
loop_
_atom_site_type_symbol
_atom_site_label
_atom_site_fract_x
_atom_site_fract_y
_atom_site_fract_z
Si Si1 0.136924 0.861609 0.584638
Si Si2 0.207953 0.923405 0.424273
Si Si3 0.733141 0.145816 0.709678
Si Si4 0.500000 0.865970 0.250000
Si Si5 0.891388 0.491837 0.041185
Si Si6 0.702951 0.590421 0.376453
Si Si7 0.198562 0.703756 0.445718
O O1 0.215880 0.894033 0.548438
O O2 0.209740 0.877809 0.769300
O O3 0.195783 0.818361 0.581625
O O4 0.926813 0.859510 0.416342
O O5 0.293814 0.897638 0.378400
O O6 0.000000 0.928631 0.250000
O O7 0.294045 0.966674 0.500365
O O8 0.585489 0.155930 0.696829
O O9 0.734546 0.178818 0.600451
O O10 0.663413 0.892452 0.419842
O O11 0.000000 0.481118 0.250000
O O12 0.765100 0.455261 0.905812
O O13 0.000000 0.500000 0.000000
O O14 0.500000 0.588950 0.250000
O O15 0.250000 0.750000 0.500000
O O16 0.000000 0.700446 0.250000
#
# Coordination Sequence:
#
# PCOD9282900 Si02
#       7
#     8   8   8   4   8   8   8
#     4  10  21  42  65  93 126 169 218 267 334 384
#     4   9  20  38  60  85 119 165 217 272 326 377
#     4  10  21  39  65  94 127 169 209 267 326 397
#     4  12  22  40  60  90 134 164 220 252 326 400
#     4  12  25  39  57  89 129 173 229 284 331 394
#     4  12  24  40  62  89 126 175 217 271 329 394
#     4  11  22  40  70 101 129 165 215 270 322 385
#
# _framework density 18.936617999999999
#
# number of rings (size 3 to 8) (size 9 to 14) (size 15 to 20)
#    0.000    1.231    2.308    5.538    0.000    3.692 
#    0.000    3.846    1.692    2.769    0.000    0.000 
#    0.000    0.000    0.000    0.000    0.000    0.000 
#
# Total GULP energy -145032.030113 kJ/mol
# GULP energy per Si atom -5578.155004 kJ/mol
# Density = 1.889352 g / cm^3
# Si number density = 18.936618 Si / 1000 Ang^3
#
#
#
# Elastic Constant Matrix: (Units=GPa)
#
#
# Indices 1 2 3 4 5 6 
#
# 1 110.9415 34.8643 30.7667 0.0000 -0.8537 0.0000
# 2 34.8643 128.7457 36.9092 0.0000 -3.8871 0.0000
# 3 30.7667 36.9092 103.2688 0.0000 -3.5925 0.0000
# 4 0.0000 0.0000 0.0000 27.6625 0.0000 10.5889
# 5 -0.8537 -3.8871 -3.5925 0.0000 19.6890 0.0000
# 6 0.0000 0.0000 0.0000 10.5889 0.0000 13.9060
#
#
#
# Elastic Compliance Matrix: (Units=1/GPa)
#
#
# Indices 1 2 3 4 5 6 
#
# 1 0.010329 -0.002142 -0.002325 0.000000 -0.000399 0.000000
# 2 -0.002142 0.009124 -0.002580 0.000000 0.001238 0.000000
# 3 -0.002325 -0.002580 0.011349 0.000000 0.001461 0.000000
# 4 0.000000 0.000000 0.000000 0.051022 0.000000 -0.038851
# 5 -0.000399 0.001238 0.001461 0.000000 0.051283 0.000000
# 6 0.000000 0.000000 0.000000 -0.038851 0.000000 0.101495
#
#
# Mechanical properties :
#
#
# Convention : Reuss Voigt Hill
#
# Bulk Modulus (GPa) = 59.85493 60.89291 60.37392
# Shear Modulus (GPa) = 19.66436 28.27924 23.97180
#
# Velocity S-wave (km/s) = 3.22596 3.86860 3.56180
# Velocity P-wave (km/s) = 6.74926 7.22362 6.99046
#
# Compressibility (1/GPa) = 0.01670706
#
# Stress axis : x y z
#
# Youngs Moduli (GPa) = 96.81607 109.59658 88.11249
#
# Poissons Ratio (x) = 0.23481 0.20490
# Poissons Ratio (y) = 0.20742 0.22731
# Poissons Ratio (z) = 0.22514 0.28273
#
# Static dielectric constant tensor:
#      x y z
#    x 1.740650 0.000000 -0.017230 
#    y 0.000000 1.634800 0.000000 
#    z -0.017230 0.000000 1.672400 
# 
# From -- ./inp_files/92644.got.cif
#   From: 2010.05.17/outbox.cif.g08.bks.cpg/sg15_47_cif.got.tgz:92644.got - 2010.06.03 18:47:42.
