data_PCOD9282040
_publ_section_title
;
Structure prediction by ZEFSAII (Michael W. Deem and Ramdas Pophale) SiO2 
 PCOD9282040
Probable space group: C 2/C
;
_chemical_formula_sum "Si O2"
_cell_formula_units_Z 52
_cell_length_a 17.605511
_cell_length_b 13.772750
_cell_length_c 10.671655
_cell_angle_alpha 90.000000
_cell_angle_beta 57.827755
_cell_angle_gamma 90.000000
_cell_volume 2190.296965
_symmetry_space_group_name_H-M "C 2/C"
_symmetry_group_IT_number 15
_symmetry_cell_setting 'monoclinic'
loop_
_space_group_symop_operation_xyz
x,y,z
-x,y,1/2-z
-x,-y,-z
x,-y,1/2+z
1/2+x,1/2+y,z
1/2-x,1/2+y,1/2-z
1/2-x,1/2-y,-z
1/2+x,1/2-y,1/2+z
loop_
_atom_site_type_symbol
_atom_site_label
_atom_site_fract_x
_atom_site_fract_y
_atom_site_fract_z
Si Si1 0.358622 0.487518 0.731188
Si Si2 0.771807 0.384295 0.300217
Si Si3 0.867772 0.716266 0.949436
Si Si4 0.240771 0.800430 0.795067
Si Si5 0.548834 0.984390 0.085649
Si Si6 0.782027 0.444224 0.953166
Si Si7 0.000000 0.112912 0.250000
O O1 0.323674 0.573879 0.670304
O O2 0.317727 0.388018 0.710262
O O3 0.459518 0.457593 0.678281
O O4 0.310442 0.517079 0.905231
O O5 0.796786 0.324969 0.407752
O O6 0.805801 0.304470 0.170516
O O7 0.812488 0.486786 0.310124
O O8 0.938805 0.629898 0.903533
O O9 0.919478 0.813986 0.863321
O O10 0.820902 0.719281 0.126243
O O11 0.273039 0.839605 0.899855
O O12 0.500000 0.027474 0.250000
O O13 0.646877 0.031402 0.002669
O O14 0.500000 0.000000 0.000000
#
# Coordination Sequence:
#
# PCOD9282040 Si02
#       7
#     8   8   8   8   8   8   4
#     4  11  23  41  66  99 139 179 233 290 358 424
#     4  10  21  38  68  93 124 183 229 283 346 421
#     4  11  21  38  68  97 128 172 243 286 343 419
#     4  11  20  42  68  93 126 188 238 283 342 436
#     4  11  22  36  63 100 136 172 229 309 360 413
#     4  10  23  39  66  97 136 182 233 290 360 432
#     4  12  24  40  70 110 140 182 236 308 344 418
#
# _framework density 23.741073
#
# number of rings (size 3 to 8) (size 9 to 14) (size 15 to 20)
#    0.000    1.231    5.385    2.308    4.308    0.615 
#    0.000    6.923    5.077    0.000    0.000    0.000 
#    0.000    0.000    0.000    0.000    0.000    0.000 
#
# Total GULP energy -144887.663486 kJ/mol
# GULP energy per Si atom -5572.602442 kJ/mol
# Density = 2.368704 g / cm^3
# Si number density = 23.741073 Si / 1000 Ang^3
#
#
#
# Elastic Constant Matrix: (Units=GPa)
#
#
# Indices 1 2 3 4 5 6 
#
# 1 157.5500 62.9875 32.7347 0.0000 39.5097 0.0000
# 2 62.9875 154.4562 27.0064 0.0000 23.6968 0.0000
# 3 32.7347 27.0064 72.1931 0.0000 21.2248 0.0000
# 4 0.0000 0.0000 0.0000 41.4982 0.0000 11.1137
# 5 39.5097 23.6968 21.2248 0.0000 35.8645 0.0000
# 6 0.0000 0.0000 0.0000 11.1137 0.0000 45.5866
#
#
#
# Elastic Compliance Matrix: (Units=1/GPa)
#
#
# Indices 1 2 3 4 5 6 
#
# 1 0.009650 -0.002473 -0.000975 0.000000 -0.008420 0.000000
# 2 -0.002473 0.007988 -0.001351 0.000000 -0.001754 0.000000
# 3 -0.000975 -0.001351 0.017217 0.000000 -0.008222 0.000000
# 4 0.000000 0.000000 0.000000 0.025781 0.000000 -0.006285
# 5 -0.008420 -0.001754 -0.008222 0.000000 0.043183 0.000000
# 6 0.000000 0.000000 0.000000 -0.006285 0.000000 0.023469
#
#
# Mechanical properties :
#
#
# Convention : Reuss Voigt Hill
#
# Bulk Modulus (GPa) = 39.59452 69.96182 54.77817
# Shear Modulus (GPa) = 34.41059 42.02124 38.21592
#
# Velocity S-wave (km/s) = 3.81124 4.21168 4.01645
# Velocity P-wave (km/s) = 6.00677 7.29271 6.68075
#
# Compressibility (1/GPa) = 0.02525602
#
# Stress axis : x y z
#
# Youngs Moduli (GPa) = 103.62764 125.18476 58.08356
#
# Poissons Ratio (x) = 0.30958 0.05664
# Poissons Ratio (y) = 0.25627 0.07849
# Poissons Ratio (z) = 0.10105 0.16916
#
# Static dielectric constant tensor:
#      x y z
#    x 1.983350 0.000000 -0.025420 
#    y 0.000000 1.987190 0.000000 
#    z -0.025420 0.000000 2.082050 
# 
# From -- ./inp_files/105230.got.cif
#   From: 2010.05.17/outbox.cif.g08.bks.cpg/sg15_53_cif.got.tgz:105230.got - 2010.06.03 18:47:42.
