data_PCOD9282374
_publ_section_title
;
Structure prediction by ZEFSAII (Michael W. Deem and Ramdas Pophale) SiO2 
 PCOD9282374
Probable space group: C 2/C
;
_chemical_formula_sum "Si O2"
_cell_formula_units_Z 64
_cell_length_a 8.239103
_cell_length_b 30.978623
_cell_length_c 14.409348
_cell_angle_alpha 90.000000
_cell_angle_beta 52.512476
_cell_angle_gamma 90.000000
_cell_volume 2918.270691
_symmetry_space_group_name_H-M "C 2/C"
_symmetry_group_IT_number 15
_symmetry_cell_setting 'monoclinic'
loop_
_space_group_symop_operation_xyz
x,y,z
-x,y,1/2-z
-x,-y,-z
x,-y,1/2+z
1/2+x,1/2+y,z
1/2-x,1/2+y,1/2-z
1/2-x,1/2-y,-z
1/2+x,1/2-y,1/2+z
loop_
_atom_site_type_symbol
_atom_site_label
_atom_site_fract_x
_atom_site_fract_y
_atom_site_fract_z
Si Si1 0.807932 0.464436 0.747923
Si Si2 0.835317 0.903453 0.377985
Si Si3 0.094931 0.600510 0.429705
Si Si4 0.498148 0.813546 0.860592
Si Si5 0.429937 0.462025 0.090314
Si Si6 0.225554 0.252469 0.123101
Si Si7 0.051782 0.175260 0.541024
Si Si8 0.042106 0.897462 0.564618
O O1 0.874168 0.446654 0.624866
O O2 0.713684 0.512523 0.787686
O O3 0.634581 0.429292 0.837431
O O4 0.000000 0.462419 0.750000
O O5 0.601202 0.898584 0.434568
O O6 0.931441 0.858997 0.381876
O O7 0.000000 0.920021 0.250000
O O8 0.862280 0.939176 0.447846
O O9 0.300776 0.613394 0.409373
O O10 0.034070 0.635806 0.372709
O O11 0.500000 0.806159 0.750000
O O12 0.658981 0.787218 0.866394
O O13 0.268124 0.800928 0.969669
O O14 0.500000 0.500000 0.000000
O O15 0.336866 0.424293 0.058189
O O16 0.356919 0.294397 0.107336
O O17 0.000000 0.254617 0.250000
O O18 0.250000 0.250000 0.000000
O O19 0.047473 0.145462 0.450185
#
# Coordination Sequence:
#
# PCOD9282374 Si02
#       8
#     8   8   8   8   8   8   8   8
#     4  11  21  37  60  87 121 162 206 259 319 383
#     4  10  23  41  61  86 120 163 213 262 316 390
#     4  11  22  38  64  93 122 162 212 269 327 383
#     4  11  23  42  69  99 133 175 221 272 332 402
#     4   9  20  38  56  81 120 160 203 256 315 381
#     4  12  27  45  69 104 141 175 219 281 337 396
#     4  10  22  42  66  90 126 172 213 257 321 399
#     4  10  21  39  61  92 125 161 209 264 323 386
#
# _framework density 21.930796000000001
#
# number of rings (size 3 to 8) (size 9 to 14) (size 15 to 20)
#    0.000    1.500    0.000    6.375    0.000    7.500 
#    0.000    6.250    0.000    0.000    0.000    0.000 
#    0.000    0.000    0.000    0.000    0.000    0.000 
#
# Total GULP energy -178458.820325 kJ/mol
# GULP energy per Si atom -5576.838135 kJ/mol
# Density = 2.188088 g / cm^3
# Si number density = 21.930796 Si / 1000 Ang^3
#
#
#
# Elastic Constant Matrix: (Units=GPa)
#
#
# Indices 1 2 3 4 5 6 
#
# 1 124.1924 24.2175 40.7437 0.0000 -29.0252 0.0000
# 2 24.2175 80.9762 25.6898 0.0000 -20.8059 0.0000
# 3 40.7437 25.6898 88.1428 0.0000 -17.7888 0.0000
# 4 0.0000 0.0000 0.0000 19.6129 0.0000 -9.7996
# 5 -29.0252 -20.8059 -17.7888 0.0000 26.9954 0.0000
# 6 0.0000 0.0000 0.0000 -9.7996 0.0000 18.6861
#
#
#
# Elastic Compliance Matrix: (Units=1/GPa)
#
#
# Indices 1 2 3 4 5 6 
#
# 1 0.011516 0.000281 -0.003302 0.000000 0.010424 0.000000
# 2 0.000281 0.015864 -0.002566 0.000000 0.010838 0.000000
# 3 -0.003302 -0.002566 0.014422 0.000000 0.003975 0.000000
# 4 0.000000 0.000000 0.000000 0.069091 0.000000 0.036233
# 5 0.010424 0.010838 0.003975 0.000000 0.059223 0.000000
# 6 0.000000 0.000000 0.000000 0.036233 0.000000 0.072518
#
#
# Mechanical properties :
#
#
# Convention : Reuss Voigt Hill
#
# Bulk Modulus (GPa) = 32.64913 52.73484 42.69198
# Shear Modulus (GPa) = 18.93818 26.56958 22.75388
#
# Velocity S-wave (km/s) = 2.94180 3.48446 3.22457
# Velocity P-wave (km/s) = 5.14379 6.34719 5.77691
#
# Compressibility (1/GPa) = 0.03062869
#
# Stress axis : x y z
#
# Youngs Moduli (GPa) = 86.83213 63.03549 69.33962
#
# Poissons Ratio (x) = -0.01774 0.22895
# Poissons Ratio (y) = -0.02444 0.17796
# Poissons Ratio (z) = 0.28671 0.16178
#
# Static dielectric constant tensor:
#      x y z
#    x 1.870700 0.000000 0.162850 
#    y 0.000000 1.705290 0.000000 
#    z 0.162850 0.000000 2.159580 
# 
# From -- ./inp_files/139803.got.cif
#   From: 2010.05.17/outbox.cif.g08.bks.cpg/sg15_70_cif.got.tgz:139803.got - 2010.06.03 18:47:42.
