data_PCOD9282091
_publ_section_title
;
Structure prediction by ZEFSAII (Michael W. Deem and Ramdas Pophale) SiO2 
 PCOD9282091
Probable space group: C 2/C
;
_chemical_formula_sum "Si O2"
_cell_formula_units_Z 56
_cell_length_a 11.654463
_cell_length_b 26.932873
_cell_length_c 10.196029
_cell_angle_alpha 90.000000
_cell_angle_beta 66.184139
_cell_angle_gamma 90.000000
_cell_volume 2927.891090
_symmetry_space_group_name_H-M "C 2/C"
_symmetry_group_IT_number 15
_symmetry_cell_setting 'monoclinic'
loop_
_space_group_symop_operation_xyz
x,y,z
-x,y,1/2-z
-x,-y,-z
x,-y,1/2+z
1/2+x,1/2+y,z
1/2-x,1/2+y,1/2-z
1/2-x,1/2-y,-z
1/2+x,1/2-y,1/2+z
loop_
_atom_site_type_symbol
_atom_site_label
_atom_site_fract_x
_atom_site_fract_y
_atom_site_fract_z
Si Si1 0.853547 0.884234 0.623310
Si Si2 0.749037 0.431423 0.089422
Si Si3 0.631117 0.396225 0.393349
Si Si4 0.266995 0.450292 0.904390
Si Si5 0.988581 0.596980 0.903109
Si Si6 0.173694 0.315825 0.111601
Si Si7 0.644134 0.708470 0.214387
O O1 0.774302 0.908712 0.542899
O O2 0.841179 0.920959 0.755215
O O3 0.816065 0.828685 0.687627
O O4 0.994371 0.880244 0.502497
O O5 0.641935 0.414892 0.241109
O O6 0.742721 0.490882 0.098509
O O7 0.882673 0.412260 0.081934
O O8 0.674109 0.436314 0.481983
O O9 0.737283 0.353944 0.353389
O O10 0.126486 0.428389 0.969406
O O11 0.942634 0.653616 0.897276
O O12 0.000000 0.575185 0.750000
O O13 0.145282 0.268379 0.215473
O O14 0.261542 0.302053 0.948042
O O15 0.500000 0.693976 0.250000
#
# Coordination Sequence:
#
# PCOD9282091 Si02
#       7
#     8   8   8   8   8   8   8
#     4  12  24  41  64 101 135 162 221 281 320 384
#     4  12  26  39  64  96 137 172 211 275 332 375
#     4  11  22  44  63  93 133 173 217 261 324 401
#     4  11  23  42  65  93 128 182 226 258 315 391
#     4  11  21  42  66  90 128 174 223 263 316 401
#     4  10  21  38  71  93 117 168 225 260 318 391
#     4  11  20  39  69 100 118 163 221 274 318 385
#
# _framework density 19.126394000000001
#
# number of rings (size 3 to 8) (size 9 to 14) (size 15 to 20)
#    0.000    0.857    7.143    2.571    0.000    4.000 
#    0.000    0.714    0.000    0.000    0.000    0.000 
#    0.000    0.000    0.000    0.000    0.000    0.000 
#
# Total GULP energy -156155.763407 kJ/mol
# GULP energy per Si atom -5576.991550 kJ/mol
# Density = 1.908286 g / cm^3
# Si number density = 19.126394 Si / 1000 Ang^3
#
#
#
# Elastic Constant Matrix: (Units=GPa)
#
#
# Indices 1 2 3 4 5 6 
#
# 1 56.9231 30.9789 11.5027 0.0000 10.0650 0.0000
# 2 30.9789 160.3403 46.6471 0.0000 7.7594 0.0000
# 3 11.5027 46.6471 94.1908 0.0000 0.2336 0.0000
# 4 0.0000 0.0000 0.0000 -6.9859 0.0000 -11.4823
# 5 10.0650 7.7594 0.2336 0.0000 24.7717 0.0000
# 6 0.0000 0.0000 0.0000 -11.4823 0.0000 0.7873
#
#
#
# Elastic Compliance Matrix: (Units=1/GPa)
#
#
# Indices 1 2 3 4 5 6 
#
# 1 0.020919 -0.003441 -0.000832 0.000000 -0.007414 0.000000
# 2 -0.003441 0.007980 -0.003529 0.000000 -0.001068 0.000000
# 3 -0.000832 -0.003529 0.012463 0.000000 0.001326 0.000000
# 4 0.000000 0.000000 0.000000 -0.005733 0.000000 -0.083603
# 5 -0.007414 -0.001068 0.001326 0.000000 0.043703 0.000000
# 6 0.000000 0.000000 0.000000 -0.083603 0.000000 0.050864
#
#
# Mechanical properties :
#
#
# Convention : Reuss Voigt Hill
#
# Bulk Modulus (GPa) = 38.82347 54.41240 46.61793
# Shear Modulus (GPa) = 32.38612 18.53634 25.46123
#
# Velocity S-wave (km/s) = 4.11940 3.11649 3.65253
# Velocity P-wave (km/s) = 6.55503 6.43900 6.49727
#
# Compressibility (1/GPa) = 0.02575762
#
# Stress axis : x y z
#
# Youngs Moduli (GPa) = 47.80282 125.31422 80.23837
#
# Poissons Ratio (x) = 0.43119 0.06678
# Poissons Ratio (y) = 0.16448 0.28317
# Poissons Ratio (z) = 0.03978 0.44225
#
# Static dielectric constant tensor:
#      x y z
#    x 1.668990 0.000000 -0.026890 
#    y 0.000000 1.706750 0.000000 
#    z -0.026890 0.000000 1.678780 
# 
# From -- ./inp_files/34167.got.cif
#   From: 2010.05.17/outbox.cif.g08.bks.cpg/sg15_18_cif.got.tgz:34167.got - 2010.06.03 18:47:42.
