data_PCOD9282724
_publ_section_title
;
Structure prediction by ZEFSAII (Michael W. Deem and Ramdas Pophale) SiO2 
 PCOD9282724
Probable space group: C 2/C
;
_chemical_formula_sum "Si O2"
_cell_formula_units_Z 56
_cell_length_a 13.670145
_cell_length_b 14.563024
_cell_length_c 13.143555
_cell_angle_alpha 90.000000
_cell_angle_beta 65.336127
_cell_angle_gamma 90.000000
_cell_volume 2377.892520
_symmetry_space_group_name_H-M "C 2/C"
_symmetry_group_IT_number 15
_symmetry_cell_setting 'monoclinic'
loop_
_space_group_symop_operation_xyz
x,y,z
-x,y,1/2-z
-x,-y,-z
x,-y,1/2+z
1/2+x,1/2+y,z
1/2-x,1/2+y,1/2-z
1/2-x,1/2-y,-z
1/2+x,1/2-y,1/2+z
loop_
_atom_site_type_symbol
_atom_site_label
_atom_site_fract_x
_atom_site_fract_y
_atom_site_fract_z
Si Si1 0.935001 0.585560 0.483536
Si Si2 0.115874 0.946688 0.445250
Si Si3 0.642157 0.861064 0.690133
Si Si4 0.000000 0.803169 0.250000
Si Si5 0.149207 0.869843 0.002449
Si Si6 0.000000 0.650585 0.750000
Si Si7 0.805446 0.458960 0.222449
Si Si8 0.480470 0.733251 0.454334
O O1 0.926594 0.584444 0.366095
O O2 0.827232 0.577010 0.599240
O O3 0.994534 0.679561 0.485872
O O4 0.000000 0.500000 0.500000
O O5 0.183146 0.941760 0.311691
O O6 0.109441 0.843148 0.486117
O O7 0.178560 0.021727 0.484710
O O8 0.000000 0.000000 0.500000
O O9 0.588160 0.768813 0.754091
O O10 0.735639 0.826625 0.572396
O O11 0.676923 0.932709 0.761313
O O12 0.065733 0.853494 0.131438
O O13 0.085318 0.830197 0.930662
O O14 0.102517 0.593626 0.749883
O O15 0.963456 0.718506 0.855011
#
# Coordination Sequence:
#
# PCOD9282724 Si02
#       8
#     8   8   8   4   8   4   8   8
#     4  11  22  39  65  97 126 166 216 272 333 389
#     4   9  21  43  61  86 128 168 214 260 320 388
#     4  11  22  40  61  94 131 161 215 269 326 390
#     4  12  21  35  62  94 124 168 204 266 334 386
#     4  10  23  40  61  92 126 164 212 270 320 391
#     4  10  21  39  64  90 118 168 220 264 330 376
#     4  10  22  41  64  89 129 169 211 274 323 392
#     4  10  21  41  61  87 126 163 213 271 314 392
#
# _framework density 23.550267000000002
#
# number of rings (size 3 to 8) (size 9 to 14) (size 15 to 20)
#    0.000    1.714    1.429    3.429    0.000    3.429 
#    5.143   10.000    0.000    0.000    0.000    0.000 
#    0.000    0.000    0.000    0.000    0.000    0.000 
#
# Total GULP energy -155903.378501 kJ/mol
# GULP energy per Si atom -5567.977804 kJ/mol
# Density = 2.349667 g / cm^3
# Si number density = 23.550267 Si / 1000 Ang^3
#
#
#
# Elastic Constant Matrix: (Units=GPa)
#
#
# Indices 1 2 3 4 5 6 
#
# 1 30.7073 -7.7149 16.3863 0.0000 -2.9470 0.0000
# 2 -7.7149 140.4306 40.4858 0.0000 -8.7219 0.0000
# 3 16.3863 40.4858 185.8794 0.0000 -20.5970 0.0000
# 4 0.0000 0.0000 0.0000 38.7429 0.0000 -1.8016
# 5 -2.9470 -8.7219 -20.5970 0.0000 44.3160 0.0000
# 6 0.0000 0.0000 0.0000 -1.8016 0.0000 18.6748
#
#
#
# Elastic Compliance Matrix: (Units=1/GPa)
#
#
# Indices 1 2 3 4 5 6 
#
# 1 0.035408 0.003076 -0.003652 0.000000 0.001263 0.000000
# 2 0.003076 0.007890 -0.001892 0.000000 0.000878 0.000000
# 3 -0.003652 -0.001892 0.006374 0.000000 0.002347 0.000000
# 4 0.000000 0.000000 0.000000 0.025927 0.000000 0.002501
# 5 0.001263 0.000878 0.002347 0.000000 0.023913 0.000000
# 6 0.000000 0.000000 0.000000 0.002501 0.000000 0.053789
#
#
# Mechanical properties :
#
#
# Convention : Reuss Voigt Hill
#
# Bulk Modulus (GPa) = 22.35279 50.59239 36.47259
# Shear Modulus (GPa) = 28.87678 40.87075 34.87377
#
# Velocity S-wave (km/s) = 3.50548 4.17042 3.85232
# Velocity P-wave (km/s) = 5.08887 6.68724 5.94205
#
# Compressibility (1/GPa) = 0.04473715
#
# Stress axis : x y z
#
# Youngs Moduli (GPa) = 28.24205 126.74152 156.88707
#
# Poissons Ratio (x) = -0.38991 0.57288
# Poissons Ratio (y) = -0.08688 0.29690
# Poissons Ratio (z) = 0.10313 0.23985
#
# Static dielectric constant tensor:
#      x y z
#    x 2.692720 0.000000 0.074770 
#    y 0.000000 1.975460 0.000000 
#    z 0.074770 0.000000 2.020900 
# 
# From -- ./inp_files/162228.got.cif
#   From: 2010.05.17/outbox.cif.g08.bks.cpg/sg15_82_cif.got.tgz:162228.got - 2010.06.03 18:47:42.
