data_PCOD9282315
_publ_section_title
;
Structure prediction by ZEFSAII (Michael W. Deem and Ramdas Pophale) SiO2 
 PCOD9282315
Probable space group: C 2/C
;
_chemical_formula_sum "Si O2"
_cell_formula_units_Z 48
_cell_length_a 25.915794
_cell_length_b 6.681469
_cell_length_c 13.351542
_cell_angle_alpha 90.000000
_cell_angle_beta 88.335330
_cell_angle_gamma 90.000000
_cell_volume 2310.918217
_symmetry_space_group_name_H-M "C 2/C"
_symmetry_group_IT_number 15
_symmetry_cell_setting 'monoclinic'
loop_
_space_group_symop_operation_xyz
x,y,z
-x,y,1/2-z
-x,-y,-z
x,-y,1/2+z
1/2+x,1/2+y,z
1/2-x,1/2+y,1/2-z
1/2-x,1/2-y,-z
1/2+x,1/2-y,1/2+z
loop_
_atom_site_type_symbol
_atom_site_label
_atom_site_fract_x
_atom_site_fract_y
_atom_site_fract_z
Si Si1 0.809358 0.946911 0.474453
Si Si2 0.035389 0.814482 0.464408
Si Si3 0.675364 0.730336 0.201589
Si Si4 0.737075 0.095614 0.152453
Si Si5 0.397353 0.345721 0.611594
Si Si6 0.503582 0.921810 0.366939
O O1 0.771272 0.017090 0.565599
O O2 0.780013 0.798030 0.401152
O O3 0.853996 0.823698 0.528885
O O4 0.830690 0.123323 0.404421
O O5 0.008247 0.655506 0.392587
O O6 0.041522 0.683349 0.565457
O O7 0.081893 0.927865 0.406869
O O8 0.000000 0.000000 0.500000
O O9 0.726136 0.644436 0.256340
O O10 0.628886 0.685246 0.279461
O O11 0.688506 0.962865 0.186220
O O12 0.443606 0.187169 0.600441
O O13 0.500000 0.886820 0.250000
#
# Coordination Sequence:
#
# PCOD9282315 Si02
#       6
#     8   8   8   8   8   8
#     4  10  22  39  61  88 127 167 205 261 303 361
#     4   9  21  44  64  90 128 158 203 257 321 382
#     4  11  21  39  62  92 123 168 209 251 305 373
#     4  10  21  39  61  86 126 167 211 248 309 363
#     4  10  24  40  62  99 125 157 213 258 316 373
#     4  10  22  43  69  92 123 167 207 257 320 382
#
# _framework density 20.770962000000001
#
# number of rings (size 3 to 8) (size 9 to 14) (size 15 to 20)
#    0.000    2.000    1.667    0.500    2.333    5.333 
#   12.000    0.000    0.000    0.000    0.000    0.000 
#    0.000    0.000    0.000    0.000    0.000    0.000 
#
# Total GULP energy -133874.546119 kJ/mol
# GULP energy per Si atom -5578.106088 kJ/mol
# Density = 2.072369 g / cm^3
# Si number density = 20.770962 Si / 1000 Ang^3
#
#
#
# Elastic Constant Matrix: (Units=GPa)
#
#
# Indices 1 2 3 4 5 6 
#
# 1 50.0234 15.3012 8.6252 0.0000 -8.4881 0.0000
# 2 15.3012 66.0480 15.2151 0.0000 -13.3359 0.0000
# 3 8.6252 15.2151 75.6544 0.0000 -0.6251 0.0000
# 4 0.0000 0.0000 0.0000 26.6586 0.0000 -4.3375
# 5 -8.4881 -13.3359 -0.6251 0.0000 27.5363 0.0000
# 6 0.0000 0.0000 0.0000 -4.3375 0.0000 15.2856
#
#
#
# Elastic Compliance Matrix: (Units=1/GPa)
#
#
# Indices 1 2 3 4 5 6 
#
# 1 0.022289 -0.003749 -0.001746 0.000000 0.005016 0.000000
# 2 -0.003749 0.018283 -0.003187 0.000000 0.007626 0.000000
# 3 -0.001746 -0.003187 0.014043 0.000000 -0.001763 0.000000
# 4 0.000000 0.000000 0.000000 0.039327 0.000000 0.011160
# 5 0.005016 0.007626 -0.001763 0.000000 0.041515 0.000000
# 6 0.000000 0.000000 0.000000 0.011160 0.000000 0.068588
#
#
# Mechanical properties :
#
#
# Convention : Reuss Voigt Hill
#
# Bulk Modulus (GPa) = 26.84326 30.00099 28.42212
# Shear Modulus (GPa) = 21.38342 24.06839 22.72591
#
# Velocity S-wave (km/s) = 3.21204 3.40774 3.31134
# Velocity P-wave (km/s) = 5.16796 5.47345 5.32290
#
# Compressibility (1/GPa) = 0.03725330
#
# Stress axis : x y z
#
# Youngs Moduli (GPa) = 44.86437 54.69583 71.20823
#
# Poissons Ratio (x) = 0.20505 0.12431
# Poissons Ratio (y) = 0.16819 0.22691
# Poissons Ratio (z) = 0.07832 0.17429
#
# Static dielectric constant tensor:
#      x y z
#    x 1.792460 0.000000 -0.019170 
#    y 0.000000 1.753090 0.000000 
#    z -0.019170 0.000000 1.740050 
# 
# From -- ./inp_files/175683.got.cif
#   From: 2010.05.17/outbox.cif.g08.bks.cpg/sg15_88_cif.got.tgz:175683.got - 2010.06.03 18:47:42.
