data_PCOD9282699
_publ_section_title
;
Structure prediction by ZEFSAII (Michael W. Deem and Ramdas Pophale) SiO2 
 PCOD9282699
Probable space group: C 2/C
;
_chemical_formula_sum "Si O2"
_cell_formula_units_Z 40
_cell_length_a 13.578358
_cell_length_b 7.480625
_cell_length_c 15.717784
_cell_angle_alpha 90.000000
_cell_angle_beta 114.240163
_cell_angle_gamma 90.000000
_cell_volume 1455.765908
_symmetry_space_group_name_H-M "C 2/C"
_symmetry_group_IT_number 15
_symmetry_cell_setting 'monoclinic'
loop_
_space_group_symop_operation_xyz
x,y,z
-x,y,1/2-z
-x,-y,-z
x,-y,1/2+z
1/2+x,1/2+y,z
1/2-x,1/2+y,1/2-z
1/2-x,1/2-y,-z
1/2+x,1/2-y,1/2+z
loop_
_atom_site_type_symbol
_atom_site_label
_atom_site_fract_x
_atom_site_fract_y
_atom_site_fract_z
Si Si1 0.070523 0.755739 0.468685
Si Si2 0.608929 0.616855 0.698343
Si Si3 0.813611 0.659275 0.676763
Si Si4 0.488659 0.239615 0.863163
Si Si5 0.777022 0.946492 0.096904
O O1 0.010223 0.772156 0.536781
O O2 0.146189 0.914198 0.457504
O O3 0.160079 0.609590 0.523546
O O4 0.974484 0.737653 0.366709
O O5 0.701177 0.567301 0.661540
O O6 0.537412 0.438129 0.682740
O O7 0.331845 0.669047 0.692921
O O8 0.883304 0.642522 0.787928
O O9 0.906102 0.641515 0.637323
O O10 0.775504 0.858877 0.637323
#
# Coordination Sequence:
#
# PCOD9282699 Si02
#       5
#     8   8   8   8   8
#     4  11  21  38  64  88 126 160 211 250 313 378
#     4  11  21  38  66  91 121 166 205 257 315 369
#     4  10  21  39  64  86 128 159 206 260 313 367
#     4  10  21  40  61  92 119 163 208 256 310 373
#     4  10  22  39  59  91 125 162 203 262 308 372
#
# _framework density 27.476942999999999
#
# number of rings (size 3 to 8) (size 9 to 14) (size 15 to 20)
#    0.000    1.600    4.000    1.200    0.000    1.600 
#    0.000    0.000    0.000    0.000    0.000    0.000 
#    0.000    0.000    0.000    0.000    0.000    0.000 
#
# Total GULP energy -111712.124592 kJ/mol
# GULP energy per Si atom -5585.606230 kJ/mol
# Density = 2.741440 g / cm^3
# Si number density = 27.476943 Si / 1000 Ang^3
#
#
#
# Elastic Constant Matrix: (Units=GPa)
#
#
# Indices 1 2 3 4 5 6 
#
# 1 187.7844 20.9478 78.3637 0.0000 -16.2982 0.0000
# 2 20.9478 41.6202 43.1652 0.0000 5.4341 0.0000
# 3 78.3637 43.1652 178.8001 0.0000 5.6686 0.0000
# 4 0.0000 0.0000 0.0000 22.6688 0.0000 -0.1036
# 5 -16.2982 5.4341 5.6686 0.0000 60.5562 0.0000
# 6 0.0000 0.0000 0.0000 -0.1036 0.0000 11.4953
#
#
#
# Elastic Compliance Matrix: (Units=1/GPa)
#
#
# Indices 1 2 3 4 5 6 
#
# 1 0.006791 -0.000723 -0.002870 0.000000 0.002161 0.000000
# 2 -0.000723 0.032413 -0.007432 0.000000 -0.002408 0.000000
# 3 -0.002870 -0.007432 0.008674 0.000000 -0.000918 0.000000
# 4 0.000000 0.000000 0.000000 0.044115 0.000000 0.000398
# 5 0.002161 -0.002408 -0.000918 0.000000 0.017397 0.000000
# 6 0.000000 0.000000 0.000000 0.000398 0.000000 0.086996
#
#
# Mechanical properties :
#
#
# Convention : Reuss Voigt Hill
#
# Bulk Modulus (GPa) = 38.71862 77.01754 57.86808
# Shear Modulus (GPa) = 22.02194 36.65926 29.34060
#
# Velocity S-wave (km/s) = 2.83410 3.65661 3.27131
# Velocity P-wave (km/s) = 4.98311 6.77632 5.94768
#
# Compressibility (1/GPa) = 0.02582737
#
# Stress axis : x y z
#
# Youngs Moduli (GPa) = 147.24549 30.85219 115.28671
#
# Poissons Ratio (x) = 0.02232 0.33092
# Poissons Ratio (y) = 0.10652 0.85676
# Poissons Ratio (z) = 0.42265 0.22928
#
# Static dielectric constant tensor:
#      x y z
#    x 2.158750 0.000000 -0.026890 
#    y 0.000000 2.218240 0.000000 
#    z -0.026890 0.000000 2.137880 
# 
# From -- ./inp_files/142363.got.cif
#   From: 2010.05.17/outbox.cif.g08.bks.cpg/sg15_72_cif.got.tgz:142363.got - 2010.06.03 18:47:42.
