data_PCOD9282708
_publ_section_title
;
Structure prediction by ZEFSAII (Michael W. Deem and Ramdas Pophale) SiO2 
 PCOD9282708
Probable space group: C 2/C
;
_chemical_formula_sum "Si O2"
_cell_formula_units_Z 52
_cell_length_a 14.857725
_cell_length_b 16.222375
_cell_length_c 20.611963
_cell_angle_alpha 90.000000
_cell_angle_beta 31.374671
_cell_angle_gamma 90.000000
_cell_volume 2586.527923
_symmetry_space_group_name_H-M "C 2/C"
_symmetry_group_IT_number 15
_symmetry_cell_setting 'monoclinic'
loop_
_space_group_symop_operation_xyz
x,y,z
-x,y,1/2-z
-x,-y,-z
x,-y,1/2+z
1/2+x,1/2+y,z
1/2-x,1/2+y,1/2-z
1/2-x,1/2-y,-z
1/2+x,1/2-y,1/2+z
loop_
_atom_site_type_symbol
_atom_site_label
_atom_site_fract_x
_atom_site_fract_y
_atom_site_fract_z
Si Si1 0.107500 0.416915 0.485662
Si Si2 0.608398 0.815139 0.282576
Si Si3 0.500000 0.674593 0.250000
Si Si4 0.000000 0.726701 0.250000
Si Si5 0.363461 0.891786 0.532980
Si Si6 0.891128 0.144890 0.709138
Si Si7 0.000000 0.454052 0.250000
Si Si8 0.762696 0.404185 0.953682
O O1 0.081554 0.514109 0.513529
O O2 0.254731 0.403259 0.339804
O O3 0.169872 0.382539 0.515518
O O4 0.932223 0.378934 0.563976
O O5 0.561852 0.734774 0.269812
O O6 0.462961 0.828003 0.426625
O O7 0.787148 0.819845 0.211635
O O8 0.590326 0.893615 0.246068
O O9 0.335230 0.617597 0.361738
O O10 0.035029 0.783292 0.290518
O O11 0.165228 0.668245 0.136445
O O12 0.055983 0.092025 0.584848
O O13 0.142323 0.513018 0.129024
#
# Coordination Sequence:
#
# PCOD9282708 Si02
#       8
#     8   8   4   4   8   8   4   8
#     4  10  21  39  64  88 122 158 200 255 301 347
#     4  10  23  42  60  87 128 158 200 256 301 359
#     4  11  24  38  66  89 118 166 202 245 306 362
#     4  11  24  36  60  89 124 162 188 253 312 360
#     4  10  22  39  61  90 119 159 204 251 298 361
#     4  11  23  38  62  93 121 160 204 249 303 364
#     4  10  22  42  62  84 122 170 200 252 310 338
#     4  11  22  39  63  87 124 159 204 248 304 366
#
# _framework density 20.104171000000001
#
# number of rings (size 3 to 8) (size 9 to 14) (size 15 to 20)
#    0.000    1.538    3.077    0.923    4.308    1.846 
#    0.000    0.000    0.000    0.000    0.000    0.000 
#    0.000    0.000    0.000    0.000    0.000    0.000 
#
# Total GULP energy -145121.458854 kJ/mol
# GULP energy per Si atom -5581.594571 kJ/mol
# Density = 2.005841 g / cm^3
# Si number density = 20.104171 Si / 1000 Ang^3
#
#
#
# Elastic Constant Matrix: (Units=GPa)
#
#
# Indices 1 2 3 4 5 6 
#
# 1 129.1796 13.2655 18.8653 0.0017 -12.8569 -0.0016
# 2 13.2655 40.3301 -4.9479 0.0009 1.7729 -0.0008
# 3 18.8653 -4.9479 61.3041 -0.0004 -15.7495 -0.0003
# 4 0.0017 0.0009 -0.0004 15.2925 0.0000 -0.4014
# 5 -12.8569 1.7729 -15.7495 0.0000 26.3363 0.0011
# 6 -0.0016 -0.0008 -0.0003 -0.4014 0.0011 8.8462
#
#
#
# Elastic Compliance Matrix: (Units=1/GPa)
#
#
# Indices 1 2 3 4 5 6 
#
# 1 0.008705 -0.003264 -0.002120 -0.000001 0.003202 0.000001
# 2 -0.003264 0.026274 0.002672 -0.000001 -0.001764 0.000002
# 3 -0.002120 0.002672 0.019930 0.000001 0.010704 -0.000001
# 4 -0.000001 -0.000001 0.000001 0.065470 0.000000 0.002971
# 5 0.003202 -0.001764 0.010704 0.000000 0.046053 -0.000005
# 6 0.000001 0.000002 -0.000001 0.002971 -0.000005 0.113177
#
#
# Mechanical properties :
#
#
# Convention : Reuss Voigt Hill
#
# Bulk Modulus (GPa) = 20.20805 31.68662 25.94734
# Shear Modulus (GPa) = 16.58223 23.67038 20.12631
#
# Velocity S-wave (km/s) = 2.87508 3.43503 3.16745
# Velocity P-wave (km/s) = 4.59292 5.61498 5.12947
#
# Compressibility (1/GPa) = 0.04948523
#
# Stress axis : x y z
#
# Youngs Moduli (GPa) = 114.88285 38.05998 50.17582
#
# Poissons Ratio (x) = 0.12422 0.10635
# Poissons Ratio (y) = 0.37497 -0.13406
# Poissons Ratio (z) = 0.24351 -0.10169
#
# Static dielectric constant tensor:
#      x y z
#    x 1.728700 0.000000 0.006800 
#    y 0.000000 1.694860 0.000000 
#    z 0.006800 0.000000 1.721370 
# 
# From -- ./inp_files/98484.got.cif
#   From: 2010.05.17/outbox.cif.g08.bks.cpg/sg15_50_cif.got.tgz:98484.got - 2010.06.03 18:47:42.
