data_PCOD9282666
_publ_section_title
;
Structure prediction by ZEFSAII (Michael W. Deem and Ramdas Pophale) SiO2 
 PCOD9282666
Probable space group: C 2/C
;
_chemical_formula_sum "Si O2"
_cell_formula_units_Z 40
_cell_length_a 8.653317
_cell_length_b 28.455900
_cell_length_c 9.200808
_cell_angle_alpha 90.000000
_cell_angle_beta 52.584683
_cell_angle_gamma 90.000000
_cell_volume 1799.448185
_symmetry_space_group_name_H-M "C 2/C"
_symmetry_group_IT_number 15
_symmetry_cell_setting 'monoclinic'
loop_
_space_group_symop_operation_xyz
x,y,z
-x,y,1/2-z
-x,-y,-z
x,-y,1/2+z
1/2+x,1/2+y,z
1/2-x,1/2+y,1/2-z
1/2-x,1/2-y,-z
1/2+x,1/2-y,1/2+z
loop_
_atom_site_type_symbol
_atom_site_label
_atom_site_fract_x
_atom_site_fract_y
_atom_site_fract_z
Si Si1 0.662809 0.963155 0.354314
Si Si2 0.953008 0.132391 0.109168
Si Si3 0.298244 0.304351 0.454270
Si Si4 0.766706 0.455477 0.877583
Si Si5 0.137379 0.638686 0.791838
O O1 0.793228 0.952731 0.420098
O O2 0.567787 0.914122 0.365048
O O3 0.500000 0.000000 0.500000
O O4 0.760206 0.991932 0.168499
O O5 0.844823 0.082573 0.153868
O O6 0.000000 0.142994 0.250000
O O7 0.823212 0.170222 0.095111
O O8 0.153331 0.131465 0.903407
O O9 0.500000 0.307393 0.250000
O O10 0.250000 0.250000 0.500000
O O11 0.151792 0.332231 0.431948
O O12 0.000000 0.444622 0.750000
O O13 0.000000 0.661663 0.750000
#
# Coordination Sequence:
#
# PCOD9282666 Si02
#       5
#     8   8   8   8   8
#     4  10  21  39  63  95 135 174 232 262 332 392
#     4  11  26  42  65 102 135 172 229 269 336 404
#     4  10  24  48  71  98 129 172 223 282 343 401
#     4  10  22  39  63  92 135 180 222 273 324 390
#     4  11  24  44  68  95 139 177 217 284 332 395
#
# _framework density 22.229036000000001
#
# number of rings (size 3 to 8) (size 9 to 14) (size 15 to 20)
#    0.000    1.600    2.000    1.800    8.400    4.000 
#    0.000    4.000    0.000    0.000    0.000    0.000 
#    0.000    0.000    0.000    0.000    0.000    0.000 
#
# Total GULP energy -111794.498512 kJ/mol
# GULP energy per Si atom -5589.724926 kJ/mol
# Density = 2.217844 g / cm^3
# Si number density = 22.229036 Si / 1000 Ang^3
#
#
#
# Elastic Constant Matrix: (Units=GPa)
#
#
# Indices 1 2 3 4 5 6 
#
# 1 130.4168 59.7264 46.0746 0.0000 46.3974 0.0000
# 2 59.7264 131.9145 10.1628 0.0000 30.8530 0.0000
# 3 46.0746 10.1628 62.3022 0.0000 26.2546 0.0000
# 4 0.0000 0.0000 0.0000 30.2639 0.0000 6.0198
# 5 46.3974 30.8530 26.2546 0.0000 60.0637 0.0000
# 6 0.0000 0.0000 0.0000 6.0198 0.0000 17.5566
#
#
#
# Elastic Compliance Matrix: (Units=1/GPa)
#
#
# Indices 1 2 3 4 5 6 
#
# 1 0.014431 -0.004681 -0.007630 0.000000 -0.005408 0.000000
# 2 -0.004681 0.010150 0.003039 0.000000 -0.002926 0.000000
# 3 -0.007630 0.003039 0.023746 0.000000 -0.006047 0.000000
# 4 0.000000 0.000000 0.000000 0.035461 0.000000 -0.012159
# 5 -0.005408 -0.002926 -0.006047 0.000000 0.024973 0.000000
# 6 0.000000 0.000000 0.000000 -0.012159 0.000000 0.061128
#
#
# Mechanical properties :
#
#
# Convention : Reuss Voigt Hill
#
# Bulk Modulus (GPa) = 33.57496 61.84013 47.70754
# Shear Modulus (GPa) = 25.20674 35.48816 30.34745
#
# Velocity S-wave (km/s) = 3.37108 3.99993 3.69889
# Velocity P-wave (km/s) = 5.50355 7.01516 6.30482
#
# Compressibility (1/GPa) = 0.02978410
#
# Stress axis : x y z
#
# Youngs Moduli (GPa) = 69.29565 98.51763 42.11296
#
# Poissons Ratio (x) = 0.46118 0.32131
# Poissons Ratio (y) = 0.32439 -0.12800
# Poissons Ratio (z) = 0.52870 -0.29943
#
# Static dielectric constant tensor:
#      x y z
#    x 1.875580 0.000000 -0.018920 
#    y 0.000000 1.787190 0.000000 
#    z -0.018920 0.000000 1.907240 
# 
# From -- ./inp_files/25376.got.cif
#   From: 2010.05.17/outbox.cif.g08.bks.cpg/sg15_13_cif.got.tgz:25376.got - 2010.06.03 18:47:42.
