data_PCOD9282738
_publ_section_title
;
Structure prediction by ZEFSAII (Michael W. Deem and Ramdas Pophale) SiO2 
 PCOD9282738
Probable space group: C 2/C
;
_chemical_formula_sum "Si O2"
_cell_formula_units_Z 60
_cell_length_a 8.628628
_cell_length_b 12.230511
_cell_length_c 32.977854
_cell_angle_alpha 90.000000
_cell_angle_beta 55.666752
_cell_angle_gamma 90.000000
_cell_volume 2873.878773
_symmetry_space_group_name_H-M "C 2/C"
_symmetry_group_IT_number 15
_symmetry_cell_setting 'monoclinic'
loop_
_space_group_symop_operation_xyz
x,y,z
-x,y,1/2-z
-x,-y,-z
x,-y,1/2+z
1/2+x,1/2+y,z
1/2-x,1/2+y,1/2-z
1/2-x,1/2-y,-z
1/2+x,1/2-y,1/2+z
loop_
_atom_site_type_symbol
_atom_site_label
_atom_site_fract_x
_atom_site_fract_y
_atom_site_fract_z
Si Si1 0.710746 0.275219 0.176401
Si Si2 0.869889 0.585947 0.995478
Si Si3 0.805246 0.014862 0.053235
Si Si4 0.550299 0.469899 0.085928
Si Si5 0.000000 0.829344 0.750000
Si Si6 0.726308 0.342811 0.259809
Si Si7 0.808853 0.731771 0.568341
Si Si8 0.865566 0.942678 0.690938
O O1 0.792740 0.340641 0.203099
O O2 0.494237 0.312113 0.206521
O O3 0.795460 0.283992 0.118996
O O4 0.745758 0.151802 0.187091
O O5 0.843809 0.545296 0.953143
O O6 0.982622 0.699134 0.977989
O O7 0.673209 0.567875 0.047505
O O8 0.000000 0.500000 0.000000
O O9 0.762475 0.143393 0.064356
O O10 0.857874 0.963626 0.088792
O O11 0.000000 0.000000 0.000000
O O12 0.666387 0.356736 0.069321
O O13 0.503511 0.505240 0.137856
O O14 0.175877 0.749052 0.727694
O O15 0.014769 0.898924 0.788611
O O16 0.760114 0.460715 0.273173
#
# Coordination Sequence:
#
# PCOD9282738 Si02
#       8
#     8   8   8   8   4   8   8   8
#     4  10  21  40  65  90 123 169 209 254 326 375
#     4   9  22  41  62  94 124 166 212 252 315 367
#     4  10  22  41  61  92 125 166 210 257 316 363
#     4  10  21  39  64  91 127 167 211 260 313 370
#     4  10  24  40  64  96 118 160 216 248 320 384
#     4  10  22  42  62  91 124 165 201 263 323 365
#     4  11  21  42  63  91 130 168 212 263 310 379
#     4  11  21  42  62  92 130 159 209 265 304 379
#
# _framework density 20.877707999999998
#
# number of rings (size 3 to 8) (size 9 to 14) (size 15 to 20)
#    0.000    1.867    2.667    0.800    0.000    9.067 
#    9.600    4.000    0.000    0.000    0.000    0.000 
#    0.000    0.000    0.000    0.000    0.000    0.000 
#
# Total GULP energy -167323.644843 kJ/mol
# GULP energy per Si atom -5577.454828 kJ/mol
# Density = 2.083019 g / cm^3
# Si number density = 20.877708 Si / 1000 Ang^3
#
#
#
# Elastic Constant Matrix: (Units=GPa)
#
#
# Indices 1 2 3 4 5 6 
#
# 1 73.7246 26.1477 9.5143 0.0000 26.8115 0.0000
# 2 26.1477 88.7386 19.5833 0.0000 13.3654 0.0000
# 3 9.5143 19.5833 55.9458 0.0000 21.3792 0.0000
# 4 0.0000 0.0000 0.0000 36.0503 0.0000 1.9689
# 5 26.8115 13.3654 21.3792 0.0000 23.6732 0.0000
# 6 0.0000 0.0000 0.0000 1.9689 0.0000 17.0050
#
#
#
# Elastic Compliance Matrix: (Units=1/GPa)
#
#
# Indices 1 2 3 4 5 6 
#
# 1 0.028578 -0.005032 0.012497 0.000000 -0.040811 0.000000
# 2 -0.005032 0.013441 -0.004775 0.000000 0.002423 0.000000
# 3 0.012497 -0.004775 0.033287 0.000000 -0.041519 0.000000
# 4 0.000000 0.000000 0.000000 0.027916 0.000000 -0.003232
# 5 -0.040811 0.002423 -0.041519 0.000000 0.124591 0.000000
# 6 0.000000 0.000000 0.000000 -0.003232 0.000000 0.059180
#
#
# Mechanical properties :
#
#
# Convention : Reuss Voigt Hill
#
# Bulk Modulus (GPa) = 12.39383 36.54439 24.46911
# Shear Modulus (GPa) = 16.20716 26.22329 21.21522
#
# Velocity S-wave (km/s) = 2.78922 3.54791 3.19119
# Velocity P-wave (km/s) = 4.04008 5.85881 5.03229
#
# Compressibility (1/GPa) = 0.08068533
#
# Stress axis : x y z
#
# Youngs Moduli (GPa) = 34.99240 74.40165 30.04217
#
# Poissons Ratio (x) = 0.37437 -0.37543
# Poissons Ratio (y) = 0.17607 0.14345
# Poissons Ratio (z) = -0.43730 0.35525
#
# Static dielectric constant tensor:
#      x y z
#    x 1.784400 0.000000 0.016580 
#    y 0.000000 1.769410 0.000000 
#    z 0.016580 0.000000 1.788300 
# 
# From -- ./inp_files/307112.got.cif
#   From: 2010.05.17/outbox.cif.g08.bks.cpg/sg15_154_cif.got.tgz:307112.got - 2010.06.03 18:47:42.
