data_PCOD9282800
_publ_section_title
;
Structure prediction by ZEFSAII (Michael W. Deem and Ramdas Pophale) SiO2 
 PCOD9282800
Probable space group: C 2/C
;
_chemical_formula_sum "Si O2"
_cell_formula_units_Z 60
_cell_length_a 28.527644
_cell_length_b 8.857363
_cell_length_c 25.185961
_cell_angle_alpha 90.000000
_cell_angle_beta 154.422285
_cell_angle_gamma 90.000000
_cell_volume 2747.553041
_symmetry_space_group_name_H-M "C 2/C"
_symmetry_group_IT_number 15
_symmetry_cell_setting 'monoclinic'
loop_
_space_group_symop_operation_xyz
x,y,z
-x,y,1/2-z
-x,-y,-z
x,-y,1/2+z
1/2+x,1/2+y,z
1/2-x,1/2+y,1/2-z
1/2-x,1/2-y,-z
1/2+x,1/2-y,1/2+z
loop_
_atom_site_type_symbol
_atom_site_label
_atom_site_fract_x
_atom_site_fract_y
_atom_site_fract_z
Si Si1 0.335173 0.603824 0.299505
Si Si2 0.025579 0.911684 0.466990
Si Si3 0.805238 0.438738 0.426148
Si Si4 0.363691 0.381670 0.020391
Si Si5 0.203446 0.614830 0.809731
Si Si6 0.311275 0.329878 0.612636
Si Si7 0.020994 0.417678 0.576911
Si Si8 0.000000 0.012776 0.750000
O O1 0.459378 0.563480 0.409307
O O2 0.355109 0.589860 0.382919
O O3 0.268738 0.476718 0.200600
O O4 0.288981 0.761249 0.230123
O O5 0.033573 0.881297 0.413369
O O6 0.970551 0.757572 0.429711
O O7 0.796477 0.269517 0.440002
O O8 0.768238 0.556352 0.434639
O O9 0.924908 0.448191 0.521686
O O10 0.412942 0.389790 0.128594
O O11 0.305417 0.534932 0.941796
O O12 0.153201 0.708346 0.807095
O O13 0.128148 0.483620 0.711692
O O14 0.250000 0.250000 0.500000
O O15 0.420438 0.411262 0.704571
O O16 0.000000 0.500000 0.500000
#
# Coordination Sequence:
#
# PCOD9282800 Si02
#       8
#     8   8   8   8   8   8   8   4
#     4  10  21  39  64  96 135 179 225 274 349 422
#     4  10  22  41  63  98 138 181 218 289 350 416
#     4  10  25  44  66  99 142 178 232 286 348 421
#     4  11  24  43  68  97 135 179 228 293 348 412
#     4  11  23  41  68  99 134 179 231 280 346 417
#     4  11  25  48  71 103 131 185 235 295 353 410
#     4  11  23  42  65 104 140 184 228 278 343 426
#     4  12  26  48  76  96 136 176 238 296 360 410
#
# _framework density 21.837613999999999
#
# number of rings (size 3 to 8) (size 9 to 14) (size 15 to 20)
#    0.000    1.333    2.667    2.400    3.733    3.733 
#    4.800    0.000    0.000    0.000    0.000    0.000 
#    0.000    0.000    0.000    0.000    0.000    0.000 
#
# Total GULP energy -167226.184202 kJ/mol
# GULP energy per Si atom -5574.206140 kJ/mol
# Density = 2.178791 g / cm^3
# Si number density = 21.837614 Si / 1000 Ang^3
#
#
#
# Elastic Constant Matrix: (Units=GPa)
#
#
# Indices 1 2 3 4 5 6 
#
# 1 66.0242 19.9200 -2.6067 0.0000 0.0227 0.0000
# 2 19.9200 109.8812 36.8397 0.0000 -2.6353 0.0000
# 3 -2.6067 36.8397 94.3730 0.0000 -13.8473 0.0000
# 4 0.0000 0.0000 0.0000 41.6169 0.0000 -10.0613
# 5 0.0227 -2.6353 -13.8473 0.0000 33.2865 0.0000
# 6 0.0000 0.0000 0.0000 -10.0613 0.0000 36.8848
#
#
#
# Elastic Compliance Matrix: (Units=1/GPa)
#
#
# Indices 1 2 3 4 5 6 
#
# 1 0.016305 -0.003589 0.001926 0.000000 0.000506 0.000000
# 2 -0.003589 0.011288 -0.004659 0.000000 -0.001042 0.000000
# 3 0.001926 -0.004659 0.013221 0.000000 0.005130 0.000000
# 4 0.000000 0.000000 0.000000 0.025725 0.000000 0.007017
# 5 0.000506 -0.001042 0.005130 0.000000 0.032093 0.000000
# 6 0.000000 0.000000 0.000000 0.007017 0.000000 0.029026
#
#
# Mechanical properties :
#
#
# Convention : Reuss Voigt Hill
#
# Bulk Modulus (GPa) = 35.49956 42.06497 38.78227
# Shear Modulus (GPa) = 33.40193 36.76600 35.08396
#
# Velocity S-wave (km/s) = 3.91520 4.10763 4.01257
# Velocity P-wave (km/s) = 6.06052 6.46539 6.26622
#
# Compressibility (1/GPa) = 0.02816936
#
# Stress axis : x y z
#
# Youngs Moduli (GPa) = 61.33184 88.58719 75.63929
#
# Poissons Ratio (x) = 0.31797 -0.14566
# Poissons Ratio (y) = 0.22014 0.35237
# Poissons Ratio (z) = -0.11811 0.41269
#
# Static dielectric constant tensor:
#      x y z
#    x 1.899990 0.000000 0.023890 
#    y 0.000000 1.838220 0.000000 
#    z 0.023890 0.000000 1.844180 
# 
# From -- ./inp_files/283393.got.cif
#   From: 2010.05.17/outbox.cif.g08.bks.cpg/sg15_142_cif.got.tgz:283393.got - 2010.06.03 18:47:42.
