data_PCOD9282655
_publ_section_title
;
Structure prediction by ZEFSAII (Michael W. Deem and Ramdas Pophale) SiO2 
 PCOD9282655
Probable space group: C 2/C
;
_chemical_formula_sum "Si O2"
_cell_formula_units_Z 36
_cell_length_a 25.141993
_cell_length_b 7.441382
_cell_length_c 6.813346
_cell_angle_alpha 90.000000
_cell_angle_beta 104.184119
_cell_angle_gamma 90.000000
_cell_volume 1235.854999
_symmetry_space_group_name_H-M "C 2/C"
_symmetry_group_IT_number 15
_symmetry_cell_setting 'monoclinic'
loop_
_space_group_symop_operation_xyz
x,y,z
-x,y,1/2-z
-x,-y,-z
x,-y,1/2+z
1/2+x,1/2+y,z
1/2-x,1/2+y,1/2-z
1/2-x,1/2-y,-z
1/2+x,1/2-y,1/2+z
loop_
_atom_site_type_symbol
_atom_site_label
_atom_site_fract_x
_atom_site_fract_y
_atom_site_fract_z
Si Si1 0.696869 0.667138 0.209868
Si Si2 0.500000 0.500000 0.000000
Si Si3 0.915771 0.265858 0.503788
Si Si4 0.816221 0.248548 0.849549
Si Si5 0.931290 0.337035 0.064276
O O1 0.650586 0.756100 0.030324
O O2 0.760860 0.670511 0.208805
O O3 0.693409 0.753942 0.422259
O O4 0.680846 0.459314 0.206576
O O5 0.551246 0.585823 0.908163
O O6 0.524025 0.296278 0.984320
O O7 0.942378 0.452053 0.595087
O O8 0.919193 0.263721 0.269538
O O9 0.876339 0.330801 0.883824
#
# Coordination Sequence:
#
# PCOD9282655 Si02
#       5
#     8   4   8   8   8
#     4  10  21  39  63  94 131 169 214 266 325 388
#     4  12  24  44  66  92 132 176 216 270 320 396
#     4  11  25  43  67  99 132 174 221 271 329 390
#     4  10  21  39  63  94 131 169 214 266 325 388
#     4  11  25  43  67  99 132 174 221 271 329 390
#
# _framework density 29.129629000000001
#
# number of rings (size 3 to 8) (size 9 to 14) (size 15 to 20)
#    0.000    1.333    2.222    2.667    0.000    6.222 
#    0.000    0.000    0.000    0.000    0.000    0.000 
#    0.000    0.000    0.000    0.000    0.000    0.000 
#
# Total GULP energy -100562.818512 kJ/mol
# GULP energy per Si atom -5586.823251 kJ/mol
# Density = 2.906333 g / cm^3
# Si number density = 29.129629 Si / 1000 Ang^3
#
#
#
# Elastic Constant Matrix: (Units=GPa)
#
#
# Indices 1 2 3 4 5 6 
#
# 1 190.3322 61.3506 30.2795 0.0000 54.3099 0.0000
# 2 61.3506 203.3495 -3.1356 0.0000 33.9645 0.0000
# 3 30.2795 -3.1356 115.9565 0.0000 19.0081 0.0000
# 4 0.0000 0.0000 0.0000 84.3021 0.0000 -28.1192
# 5 54.3099 33.9645 19.0081 0.0000 56.4666 0.0000
# 6 0.0000 0.0000 0.0000 -28.1192 0.0000 72.6670
#
#
#
# Elastic Compliance Matrix: (Units=1/GPa)
#
#
# Indices 1 2 3 4 5 6 
#
# 1 0.007592 -0.001270 -0.001000 0.000000 -0.006201 0.000000
# 2 -0.001270 0.005738 0.000902 0.000000 -0.002533 0.000000
# 3 -0.001000 0.000902 0.009357 0.000000 -0.002730 0.000000
# 4 0.000000 0.000000 0.000000 0.013620 0.000000 0.005270
# 5 -0.006201 -0.002533 -0.002730 0.000000 0.026117 0.000000
# 6 0.000000 0.000000 0.000000 0.005270 0.000000 0.015801
#
#
# Mechanical properties :
#
#
# Convention : Reuss Voigt Hill
#
# Bulk Modulus (GPa) = 50.12448 76.29193 63.20820
# Shear Modulus (GPa) = 57.07000 70.76337 63.91668
#
# Velocity S-wave (km/s) = 4.43106 4.93410 4.68933
# Velocity P-wave (km/s) = 6.58967 7.66210 7.14603
#
# Compressibility (1/GPa) = 0.01995033
#
# Stress axis : x y z
#
# Youngs Moduli (GPa) = 131.71712 174.27997 106.87076
#
# Poissons Ratio (x) = 0.22136 0.10690
# Poissons Ratio (y) = 0.16730 -0.09641
# Poissons Ratio (z) = 0.13176 -0.15722
#
# Static dielectric constant tensor:
#      x y z
#    x 2.362410 0.000000 0.028660 
#    y 0.000000 2.070910 0.000000 
#    z 0.028660 0.000000 2.556380 
# 
# From -- ./inp_files/60128.got.cif
#   From: 2010.05.17/outbox.cif.g08.bks.cpg/sg15_31_cif.got.tgz:60128.got - 2010.06.03 18:47:42.
