data_PCOD9282107
_publ_section_title
;
Structure prediction by ZEFSAII (Michael W. Deem and Ramdas Pophale) SiO2 
 PCOD9282107
Probable space group: C 2/C
;
_chemical_formula_sum "Si O2"
_cell_formula_units_Z 40
_cell_length_a 13.001936
_cell_length_b 22.804757
_cell_length_c 5.380144
_cell_angle_alpha 90.000000
_cell_angle_beta 85.646607
_cell_angle_gamma 90.000000
_cell_volume 1590.642374
_symmetry_space_group_name_H-M "C 2/C"
_symmetry_group_IT_number 15
_symmetry_cell_setting 'monoclinic'
loop_
_space_group_symop_operation_xyz
x,y,z
-x,y,1/2-z
-x,-y,-z
x,-y,1/2+z
1/2+x,1/2+y,z
1/2-x,1/2+y,1/2-z
1/2-x,1/2-y,-z
1/2+x,1/2-y,1/2+z
loop_
_atom_site_type_symbol
_atom_site_label
_atom_site_fract_x
_atom_site_fract_y
_atom_site_fract_z
Si Si1 0.535993 0.899588 0.985720
Si Si2 0.723087 0.615258 0.164753
Si Si3 0.421668 0.774602 0.069317
Si Si4 0.545996 0.434914 0.499478
Si Si5 0.305340 0.683971 0.807875
O O1 0.500000 0.933432 0.750000
O O2 0.656879 0.888742 0.926562
O O3 0.500000 0.926824 0.250000
O O4 0.472871 0.837394 0.998467
O O5 0.706973 0.639930 0.448281
O O6 0.663890 0.557313 0.077396
O O7 0.672334 0.656011 0.961171
O O8 0.500000 0.747063 0.250000
O O9 0.307942 0.787252 0.200569
O O10 0.389869 0.732662 0.852293
O O11 0.500000 0.408777 0.250000
O O12 0.500000 0.500000 0.500000
O O13 0.500000 0.402707 0.750000
#
# Coordination Sequence:
#
# PCOD9282107 Si02
#       5
#     8   8   8   8   8
#     4  11  20  37  57  83 122 167 210 259 300 355
#     4  12  22  41  63  92 121 164 220 260 314 391
#     4  10  21  39  53  80 128 177 223 261 301 341
#     4  10  23  44  70  97 125 156 195 264 343 392
#     4  11  24  35  59  86 123 178 222 259 305 360
#
# _framework density 25.147072999999999
#
# number of rings (size 3 to 8) (size 9 to 14) (size 15 to 20)
#    0.000    1.200    6.000    1.200    0.000    8.800 
#    0.000    0.000    0.000    0.000    0.000   16.800 
#    0.000    0.000    0.000    0.000    0.000    0.000 
#
# Total GULP energy -111564.427221 kJ/mol
# GULP energy per Si atom -5578.221361 kJ/mol
# Density = 2.508984 g / cm^3
# Si number density = 25.147073 Si / 1000 Ang^3
#
#
#
# Elastic Constant Matrix: (Units=GPa)
#
#
# Indices 1 2 3 4 5 6 
#
# 1 179.8412 31.7981 43.7139 0.0000 25.1793 0.0000
# 2 31.7981 58.5373 13.4214 0.0000 7.8968 0.0000
# 3 43.7139 13.4214 212.5422 0.0000 16.0247 0.0000
# 4 0.0000 0.0000 0.0000 -3.4285 0.0000 15.4242
# 5 25.1793 7.8968 16.0247 0.0000 50.9264 0.0000
# 6 0.0000 0.0000 0.0000 15.4242 0.0000 19.1291
#
#
#
# Elastic Compliance Matrix: (Units=1/GPa)
#
#
# Indices 1 2 3 4 5 6 
#
# 1 0.006698 -0.003070 -0.000993 0.000000 -0.002523 0.000000
# 2 -0.003070 0.019033 -0.000474 0.000000 -0.001284 0.000000
# 3 -0.000993 -0.000474 0.005016 0.000000 -0.001014 0.000000
# 4 0.000000 0.000000 0.000000 -0.063030 0.000000 0.050823
# 5 -0.002523 -0.001284 -0.001014 0.000000 0.021402 0.000000
# 6 0.000000 0.000000 0.000000 0.050823 0.000000 0.011297
#
#
# Mechanical properties :
#
#
# Convention : Reuss Voigt Hill
#
# Bulk Modulus (GPa) = 46.14316 69.86530 58.00423
# Shear Modulus (GPa) = 299.15516 37.45787 168.30652
#
# Velocity S-wave (km/s) = 10.91881 3.86366 8.18988
# Velocity P-wave (km/s) = 13.31727 6.90991 10.60888
#
# Compressibility (1/GPa) = 0.02167168
#
# Stress axis : x y z
#
# Youngs Moduli (GPa) = 149.29697 52.54096 199.37764
#
# Poissons Ratio (x) = 0.16132 0.19808
# Poissons Ratio (y) = 0.45839 0.09442
# Poissons Ratio (z) = 0.14833 0.02488
#
# Static dielectric constant tensor:
#      x y z
#    x 2.480370 0.000000 -0.137860 
#    y 0.000000 2.360700 0.000000 
#    z -0.137860 0.000000 2.180440 
# 
# From -- ./inp_files/5012.got.cif
#   From: 2010.05.17/outbox.cif.g08.bks.cpg/sg15_3_cif.got.tgz:5012.got - 2010.06.03 18:47:42.
