data_PCOD9282269
_publ_section_title
;
Structure prediction by ZEFSAII (Michael W. Deem and Ramdas Pophale) SiO2 
 PCOD9282269
Probable space group: C 2/C
;
_chemical_formula_sum "Si O2"
_cell_formula_units_Z 48
_cell_length_a 15.292863
_cell_length_b 16.617941
_cell_length_c 8.496395
_cell_angle_alpha 90.000000
_cell_angle_beta 106.103760
_cell_angle_gamma 90.000000
_cell_volume 2074.512471
_symmetry_space_group_name_H-M "C 2/C"
_symmetry_group_IT_number 15
_symmetry_cell_setting 'monoclinic'
loop_
_space_group_symop_operation_xyz
x,y,z
-x,y,1/2-z
-x,-y,-z
x,-y,1/2+z
1/2+x,1/2+y,z
1/2-x,1/2+y,1/2-z
1/2-x,1/2-y,-z
1/2+x,1/2-y,1/2+z
loop_
_atom_site_type_symbol
_atom_site_label
_atom_site_fract_x
_atom_site_fract_y
_atom_site_fract_z
Si Si1 0.092327 0.615192 0.832631
Si Si2 0.789524 0.263380 0.273071
Si Si3 0.894558 0.715730 0.154675
Si Si4 0.327609 0.585405 0.259079
Si Si5 0.434721 0.462250 0.096723
Si Si6 0.125992 0.449542 0.691510
O O1 0.180675 0.665651 0.828125
O O2 0.088833 0.534756 0.725657
O O3 0.000000 0.663718 0.750000
O O4 0.091249 0.587900 0.012040
O O5 0.855863 0.272130 0.459047
O O6 0.683902 0.258504 0.276182
O O7 0.811768 0.177378 0.206127
O O8 0.887088 0.619761 0.185511
O O9 0.000000 0.735948 0.250000
O O10 0.389140 0.534585 0.171294
O O11 0.364180 0.586550 0.457200
O O12 0.232967 0.539168 0.218837
O O13 0.500000 0.415877 0.250000
O O14 0.500000 0.500000 0.000000
#
# Coordination Sequence:
#
# PCOD9282269 Si02
#       6
#     8   8   8   8   8   8
#     4  12  24  41  65  95 129 167 213 267 321 382
#     4  10  24  41  63  98 132 162 210 269 328 382
#     4  10  21  43  67  92 128 170 212 260 323 385
#     4  10  21  39  60  90 126 164 210 266 319 376
#     4   9  19  37  60  85 120 168 217 257 305 373
#     4  11  23  40  67  91 123 170 215 261 315 383
#
# _framework density 23.137967
#
# number of rings (size 3 to 8) (size 9 to 14) (size 15 to 20)
#    0.000    1.667    0.000    4.000    0.000    8.000 
#    0.000   11.667    0.000    0.000    0.000    0.000 
#    0.000    0.000    0.000    0.000    0.000    0.000 
#
# Total GULP energy -134129.515082 kJ/mol
# GULP energy per Si atom -5588.729795 kJ/mol
# Density = 2.308530 g / cm^3
# Si number density = 23.137967 Si / 1000 Ang^3
#
#
#
# Elastic Constant Matrix: (Units=GPa)
#
#
# Indices 1 2 3 4 5 6 
#
# 1 132.7786 48.1302 26.5154 0.0000 17.2460 0.0000
# 2 48.1302 100.4423 16.9982 0.0000 -21.0407 0.0000
# 3 26.5154 16.9982 96.7254 0.0000 12.1247 0.0000
# 4 0.0000 0.0000 0.0000 11.7436 0.0000 6.1612
# 5 17.2460 -21.0407 12.1247 0.0000 38.8728 0.0000
# 6 0.0000 0.0000 0.0000 6.1612 0.0000 34.1326
#
#
#
# Elastic Compliance Matrix: (Units=1/GPa)
#
#
# Indices 1 2 3 4 5 6 
#
# 1 0.011410 -0.007156 -0.000781 0.000000 -0.008692 0.000000
# 2 -0.007156 0.016525 -0.002562 0.000000 0.012918 0.000000
# 3 -0.000781 -0.002562 0.011586 0.000000 -0.004654 0.000000
# 4 0.000000 0.000000 0.000000 0.094060 0.000000 -0.016979
# 5 -0.008692 0.012918 -0.004654 0.000000 0.038025 0.000000
# 6 0.000000 0.000000 0.000000 -0.016979 0.000000 0.032362
#
#
# Mechanical properties :
#
#
# Convention : Reuss Voigt Hill
#
# Bulk Modulus (GPa) = 53.98411 57.02599 55.50505
# Shear Modulus (GPa) = 21.63186 32.83666 27.23426
#
# Velocity S-wave (km/s) = 3.06094 3.77127 3.43452
# Velocity P-wave (km/s) = 5.98954 6.60779 6.30624
#
# Compressibility (1/GPa) = 0.01852397
#
# Stress axis : x y z
#
# Youngs Moduli (GPa) = 87.64026 60.51519 86.31026
#
# Poissons Ratio (x) = 0.43307 0.06738
# Poissons Ratio (y) = 0.62718 0.22109
# Poissons Ratio (z) = 0.06842 0.15501
#
# Static dielectric constant tensor:
#      x y z
#    x 1.951450 0.000000 -0.118980 
#    y 0.000000 1.836610 0.000000 
#    z -0.118980 0.000000 2.343590 
# 
# From -- ./inp_files/48692.got.cif
#   From: 2010.05.17/outbox.cif.g08.bks.cpg/sg15_25_cif.got.tgz:48692.got - 2010.06.03 18:47:42.
