data_PCOD9282816
_publ_section_title
;
Structure prediction by ZEFSAII (Michael W. Deem and Ramdas Pophale) SiO2 
 PCOD9282816
Probable space group: C 2/C
;
_chemical_formula_sum "Si O2"
_cell_formula_units_Z 64
_cell_length_a 17.489074
_cell_length_b 13.257666
_cell_length_c 14.844898
_cell_angle_alpha 90.000000
_cell_angle_beta 53.054589
_cell_angle_gamma 90.000000
_cell_volume 2750.877291
_symmetry_space_group_name_H-M "C 2/C"
_symmetry_group_IT_number 15
_symmetry_cell_setting 'monoclinic'
loop_
_space_group_symop_operation_xyz
x,y,z
-x,y,1/2-z
-x,-y,-z
x,-y,1/2+z
1/2+x,1/2+y,z
1/2-x,1/2+y,1/2-z
1/2-x,1/2-y,-z
1/2+x,1/2-y,1/2+z
loop_
_atom_site_type_symbol
_atom_site_label
_atom_site_fract_x
_atom_site_fract_y
_atom_site_fract_z
Si Si1 0.230116 0.035189 0.915820
Si Si2 0.583793 0.422428 0.131334
Si Si3 0.032959 0.715576 0.068430
Si Si4 0.754116 0.262084 0.292625
Si Si5 0.466911 0.811918 0.132481
Si Si6 0.820964 0.331439 0.492484
Si Si7 0.243017 0.316910 0.414328
Si Si8 0.926736 0.532555 0.217413
O O1 0.215975 0.131199 0.860435
O O2 0.313188 0.966552 0.815479
O O3 0.285302 0.070025 0.967699
O O4 0.131889 0.984733 0.016265
O O5 0.500000 0.470997 0.250000
O O6 0.544586 0.316838 0.117928
O O7 0.672146 0.395714 0.134494
O O8 0.954753 0.640531 0.160277
O O9 0.132320 0.651910 0.997447
O O10 0.015610 0.738027 0.976756
O O11 0.700866 0.175111 0.385975
O O12 0.746863 0.264169 0.190088
O O13 0.867801 0.263926 0.236441
O O14 0.445708 0.932717 0.143440
O O15 0.569416 0.806106 0.107571
O O16 0.750000 0.250000 0.500000
O O17 0.250000 0.250000 0.500000
O O18 0.000000 0.517891 0.250000
#
# Coordination Sequence:
#
# PCOD9282816 Si02
#       8
#     8   8   8   8   8   8   8   8
#     4  10  22  42  62  97 132 171 226 276 336 397
#     4  11  24  42  60  87 134 183 224 264 329 409
#     4  10  22  38  64  94 124 170 216 274 333 404
#     4   9  21  41  69  97 130 174 218 287 339 397
#     4  10  21  39  64  99 128 158 224 276 337 396
#     4  10  21  40  67  95 132 169 221 276 338 404
#     4   9  20  41  64  92 132 170 219 268 327 406
#     4  11  19  36  66  93 127 163 207 280 346 379
#
# _framework density 23.265305999999999
#
# number of rings (size 3 to 8) (size 9 to 14) (size 15 to 20)
#    0.000    2.000    1.250    1.500    1.750    2.000 
#    6.750    0.625    0.000    0.000    0.000    0.000 
#    0.000    0.000    0.000    0.000    0.000    0.250 
#
# Total GULP energy -178645.611393 kJ/mol
# GULP energy per Si atom -5582.675356 kJ/mol
# Density = 2.321235 g / cm^3
# Si number density = 23.265306 Si / 1000 Ang^3
#
#
#
# Elastic Constant Matrix: (Units=GPa)
#
#
# Indices 1 2 3 4 5 6 
#
# 1 77.7448 14.8452 35.0498 0.0000 -6.4559 0.0000
# 2 14.8452 23.6331 39.2446 0.0000 -7.0493 0.0000
# 3 35.0498 39.2446 142.7490 0.0000 -9.2673 0.0000
# 4 0.0000 0.0000 0.0000 31.3551 0.0000 -2.1928
# 5 -6.4559 -7.0493 -9.2673 0.0000 53.0259 0.0000
# 6 0.0000 0.0000 0.0000 -2.1928 0.0000 12.7508
#
#
#
# Elastic Compliance Matrix: (Units=1/GPa)
#
#
# Indices 1 2 3 4 5 6 
#
# 1 0.014944 -0.005818 -0.002025 0.000000 0.000692 0.000000
# 2 -0.005818 0.082539 -0.020833 0.000000 0.006623 0.000000
# 3 -0.002025 -0.020833 0.013184 0.000000 -0.000712 0.000000
# 4 0.000000 0.000000 0.000000 0.032281 0.000000 0.005551
# 5 0.000692 0.006623 -0.000712 0.000000 0.019699 0.000000
# 6 0.000000 0.000000 0.000000 0.005551 0.000000 0.079381
#
#
# Mechanical properties :
#
#
# Convention : Reuss Voigt Hill
#
# Bulk Modulus (GPa) = 18.75671 46.93400 32.84536
# Shear Modulus (GPa) = 15.76533 29.75884 22.76209
#
# Velocity S-wave (km/s) = 2.60596 3.58034 3.13128
# Velocity P-wave (km/s) = 4.13936 6.10811 5.21744
#
# Compressibility (1/GPa) = 0.05331426
#
# Stress axis : x y z
#
# Youngs Moduli (GPa) = 66.91701 12.11546 75.85148
#
# Poissons Ratio (x) = 0.07049 0.15358
# Poissons Ratio (y) = 0.38935 1.58022
# Poissons Ratio (z) = 0.13549 0.25240
#
# Static dielectric constant tensor:
#      x y z
#    x 1.930360 0.000000 0.014050 
#    y 0.000000 1.906640 0.000000 
#    z 0.014050 0.000000 1.955550 
# 
# From -- ./inp_files/162518.got.cif
#   From: 2010.05.17/outbox.cif.g08.bks.cpg/sg15_82_cif.got.tgz:162518.got - 2010.06.03 18:47:42.
