data_PCOD9282685
_publ_section_title
;
Structure prediction by ZEFSAII (Michael W. Deem and Ramdas Pophale) SiO2 
 PCOD9282685
Probable space group: C 2/C
;
_chemical_formula_sum "Si O2"
_cell_formula_units_Z 36
_cell_length_a 19.186292
_cell_length_b 6.868002
_cell_length_c 24.924513
_cell_angle_alpha 90.000000
_cell_angle_beta 23.542175
_cell_angle_gamma 90.000000
_cell_volume 1311.844331
_symmetry_space_group_name_H-M "C 2/C"
_symmetry_group_IT_number 15
_symmetry_cell_setting 'monoclinic'
loop_
_space_group_symop_operation_xyz
x,y,z
-x,y,1/2-z
-x,-y,-z
x,-y,1/2+z
1/2+x,1/2+y,z
1/2-x,1/2+y,1/2-z
1/2-x,1/2-y,-z
1/2+x,1/2-y,1/2+z
loop_
_atom_site_type_symbol
_atom_site_label
_atom_site_fract_x
_atom_site_fract_y
_atom_site_fract_z
Si Si1 0.057219 0.706585 0.419650
Si Si2 0.396852 0.510022 0.204041
Si Si3 0.750000 0.250000 0.000000
Si Si4 0.690818 0.830230 0.668081
Si Si5 0.958405 0.588246 0.895780
O O1 0.214274 0.621375 0.343520
O O2 0.011540 0.530130 0.411556
O O3 0.871510 0.783863 0.571784
O O4 0.120375 0.884796 0.337938
O O5 0.441248 0.341223 0.216655
O O6 0.533156 0.683585 0.101368
O O7 0.775644 0.318713 0.917953
O O8 0.791038 0.476102 0.992726
O O9 0.604417 0.026562 0.748718
#
# Coordination Sequence:
#
# PCOD9282685 Si02
#       5
#     8   8   4   8   8
#     4  10  21  39  63  99 143 167 213 278 333 401
#     4  11  21  40  66 101 133 178 216 268 345 402
#     4  10  22  46  64  84 136 178 222 286 318 380
#     4  10  23  40  64  95 130 177 224 276 330 390
#     4  10  22  41  65  96 129 175 225 272 335 393
#
# _framework density 27.442281999999999
#
# number of rings (size 3 to 8) (size 9 to 14) (size 15 to 20)
#    0.000    1.778    2.222    1.333    0.000    4.444 
#    0.000   24.444    0.000    0.000    0.000    0.000 
#    0.000    0.000    0.000    0.000    0.000    0.000 
#
# Total GULP energy -100382.461634 kJ/mol
# GULP energy per Si atom -5576.803424 kJ/mol
# Density = 2.737982 g / cm^3
# Si number density = 27.442282 Si / 1000 Ang^3
#
#
#
# Elastic Constant Matrix: (Units=GPa)
#
#
# Indices 1 2 3 4 5 6 
#
# 1 66.7452 53.9383 -6.5974 -0.0126 -1.8938 0.0102
# 2 53.9383 180.3868 21.2442 -0.0251 3.7198 0.0340
# 3 -6.5974 21.2442 75.3245 -0.0146 21.0412 -0.0023
# 4 -0.0126 -0.0251 -0.0146 44.5886 0.0005 -9.2896
# 5 -1.8938 3.7198 21.0412 0.0005 49.5392 -0.0045
# 6 0.0102 0.0340 -0.0023 -9.2896 -0.0045 44.3924
#
#
#
# Elastic Compliance Matrix: (Units=1/GPa)
#
#
# Indices 1 2 3 4 5 6 
#
# 1 0.020702 -0.006628 0.003770 0.000004 -0.000312 0.000001
# 2 -0.006628 0.007860 -0.002906 0.000001 0.000391 -0.000004
# 3 0.003770 -0.002906 0.016253 0.000005 -0.006541 0.000003
# 4 0.000004 0.000001 0.000005 0.023450 -0.000002 0.004907
# 5 -0.000312 0.000391 -0.006541 -0.000002 0.022923 0.000001
# 6 0.000001 -0.000004 0.000003 0.004907 0.000001 0.023553
#
#
# Mechanical properties :
#
#
# Convention : Reuss Voigt Hill
#
# Bulk Modulus (GPa) = 30.04292 51.06962 40.55627
# Shear Modulus (GPa) = 36.39943 44.62880 40.51412
#
# Velocity S-wave (km/s) = 3.64593 4.03709 3.84648
# Velocity P-wave (km/s) = 5.35679 6.35461 5.87691
#
# Compressibility (1/GPa) = 0.03328571
#
# Stress axis : x y z
#
# Youngs Moduli (GPa) = 48.30415 127.23184 61.52740
#
# Poissons Ratio (x) = 0.84326 -0.23194
# Poissons Ratio (y) = 0.32015 0.17882
# Poissons Ratio (z) = -0.18209 0.36979
#
# Static dielectric constant tensor:
#      x y z
#    x 2.071000 -0.000030 0.112550 
#    y -0.000030 2.034900 0.000050 
#    z 0.112550 0.000050 1.351850 
# 
# From -- ./inp_files/300055.got.cif
#   From: 2010.05.17/outbox.cif.g08.bks.cpg/sg15_151_cif.got.tgz:300055.got - 2010.06.03 18:47:42.
