data_PCOD9282845
_publ_section_title
;
Structure prediction by ZEFSAII (Michael W. Deem and Ramdas Pophale) SiO2 
 PCOD9282845
Probable space group: C 2/C
;
_chemical_formula_sum "Si O2"
_cell_formula_units_Z 40
_cell_length_a 10.777504
_cell_length_b 16.081611
_cell_length_c 9.925565
_cell_angle_alpha 90.000000
_cell_angle_beta 71.843155
_cell_angle_gamma 90.000000
_cell_volume 1634.636617
_symmetry_space_group_name_H-M "C 2/C"
_symmetry_group_IT_number 15
_symmetry_cell_setting 'monoclinic'
loop_
_space_group_symop_operation_xyz
x,y,z
-x,y,1/2-z
-x,-y,-z
x,-y,1/2+z
1/2+x,1/2+y,z
1/2-x,1/2+y,1/2-z
1/2-x,1/2-y,-z
1/2+x,1/2-y,1/2+z
loop_
_atom_site_type_symbol
_atom_site_label
_atom_site_fract_x
_atom_site_fract_y
_atom_site_fract_z
Si Si1 0.859066 0.034303 0.346078
Si Si2 0.581637 0.235739 0.861927
Si Si3 0.083239 0.418506 0.009386
Si Si4 0.759805 0.893046 0.180837
Si Si5 0.964968 0.873516 0.422374
O O1 0.807260 0.967615 0.254876
O O2 0.894149 0.962971 0.446976
O O3 0.000000 0.066941 0.250000
O O4 0.728466 0.089586 0.396362
O O5 0.500000 0.253039 0.750000
O O6 0.499686 0.165097 0.970790
O O7 0.713335 0.189213 0.772230
O O8 0.609194 0.308711 0.958584
O O9 0.133805 0.424459 0.145296
O O10 0.000000 0.500000 0.000000
O O11 0.891906 0.873696 0.054075
O O12 0.000000 0.853690 0.250000
#
# Coordination Sequence:
#
# PCOD9282845 Si02
#       5
#     8   8   8   8   8
#     4   9  20  39  62  87 127 165 212 266 321 377
#     4  10  21  39  65  90 131 166 207 269 325 375
#     4  11  21  37  61  90 122 168 212 260 323 381
#     4   9  20  40  61  85 131 163 209 268 319 374
#     4   9  21  41  64  93 124 169 216 259 320 386
#
# _framework density 24.470271
#
# number of rings (size 3 to 8) (size 9 to 14) (size 15 to 20)
#    0.000    2.800    2.000    0.000    0.000    9.600 
#    3.600    5.000    0.000    0.000    0.000    0.000 
#    0.000    0.000    0.000    0.000    0.000    0.000 
#
# Total GULP energy -111381.184928 kJ/mol
# GULP energy per Si atom -5569.059246 kJ/mol
# Density = 2.441458 g / cm^3
# Si number density = 24.470271 Si / 1000 Ang^3
#
#
#
# Elastic Constant Matrix: (Units=GPa)
#
#
# Indices 1 2 3 4 5 6 
#
# 1 92.1473 20.6398 21.3719 0.0000 -20.3121 0.0000
# 2 20.6398 109.8200 50.5416 0.0000 -6.8138 0.0000
# 3 21.3719 50.5416 72.8079 0.0000 -12.9417 0.0000
# 4 0.0000 0.0000 0.0000 49.0039 0.0000 -6.9280
# 5 -20.3121 -6.8138 -12.9417 0.0000 47.4429 0.0000
# 6 0.0000 0.0000 0.0000 -6.9280 0.0000 -13.2564
#
#
#
# Elastic Compliance Matrix: (Units=1/GPa)
#
#
# Indices 1 2 3 4 5 6 
#
# 1 0.012618 -0.001116 -0.002100 0.000000 0.004669 0.000000
# 2 -0.001116 0.013498 -0.009230 0.000000 -0.001057 0.000000
# 3 -0.002100 -0.009230 0.021401 0.000000 0.003613 0.000000
# 4 0.000000 0.000000 0.000000 0.019003 0.000000 -0.009931
# 5 0.004669 -0.001057 0.003613 0.000000 0.023911 0.000000
# 6 0.000000 0.000000 0.000000 -0.009931 0.000000 -0.070245
#
#
# Mechanical properties :
#
#
# Convention : Reuss Voigt Hill
#
# Bulk Modulus (GPa) = 44.19673 51.09800 47.64736
# Shear Modulus (GPa) = 95.02379 28.78620 61.90499
#
# Velocity S-wave (km/s) = 6.23832 3.43355 5.03517
# Velocity P-wave (km/s) = 8.36597 6.05360 7.30190
#
# Compressibility (1/GPa) = 0.02262611
#
# Stress axis : x y z
#
# Youngs Moduli (GPa) = 79.25002 74.08567 46.72719
#
# Poissons Ratio (x) = 0.08264 0.09811
# Poissons Ratio (y) = 0.08840 0.43131
# Poissons Ratio (z) = 0.16639 0.68384
#
# Static dielectric constant tensor:
#      x y z
#    x 2.107810 0.000000 0.106950 
#    y 0.000000 1.963610 0.000000 
#    z 0.106950 0.000000 2.221600 
# 
# From -- ./inp_files/87089.got.cif
#   From: 2010.05.17/outbox.cif.g08.bks.cpg/sg15_44_cif.got.tgz:87089.got - 2010.06.03 18:47:42.
