data_PCOD9282470
_publ_section_title
;
Structure prediction by ZEFSAII (Michael W. Deem and Ramdas Pophale) SiO2 
 PCOD9282470
Probable space group: C 2/C
;
_chemical_formula_sum "Si O2"
_cell_formula_units_Z 64
_cell_length_a 14.769256
_cell_length_b 19.487106
_cell_length_c 23.519957
_cell_angle_alpha 90.000000
_cell_angle_beta 151.035268
_cell_angle_gamma 90.000000
_cell_volume 3278.167178
_symmetry_space_group_name_H-M "C 2/C"
_symmetry_group_IT_number 15
_symmetry_cell_setting 'monoclinic'
loop_
_space_group_symop_operation_xyz
x,y,z
-x,y,1/2-z
-x,-y,-z
x,-y,1/2+z
1/2+x,1/2+y,z
1/2-x,1/2+y,1/2-z
1/2-x,1/2-y,-z
1/2+x,1/2-y,1/2+z
loop_
_atom_site_type_symbol
_atom_site_label
_atom_site_fract_x
_atom_site_fract_y
_atom_site_fract_z
Si Si1 0.445340 0.793930 0.367391
Si Si2 0.521040 0.678612 0.611363
Si Si3 0.481938 0.919191 0.176278
Si Si4 0.617305 0.531719 0.418344
Si Si5 0.953262 0.827607 0.787597
Si Si6 0.616762 0.532161 0.615630
Si Si7 0.668158 0.609774 0.886713
Si Si8 0.521194 0.187756 0.038745
O O1 0.219847 0.799511 0.247832
O O2 0.501520 0.859574 0.361007
O O3 0.503770 0.727159 0.363932
O O4 0.525433 0.796308 0.474211
O O5 0.560654 0.611928 0.593997
O O6 0.380601 0.653986 0.583428
O O7 0.466578 0.743121 0.542941
O O8 0.500000 0.890424 0.250000
O O9 0.660738 0.969038 0.269631
O O10 0.287882 0.955957 0.055726
O O11 0.562183 0.601661 0.357081
O O12 0.442783 0.506260 0.359754
O O13 0.670118 0.469971 0.405513
O O14 0.729286 0.836094 0.669330
O O15 0.000000 0.801365 0.750000
O O16 0.500000 0.500000 0.500000
O O17 0.500000 0.620798 0.750000
O O18 0.862686 0.632804 0.966408
#
# Coordination Sequence:
#
# PCOD9282470 Si02
#       8
#     8   8   8   8   8   8   8   8
#     4  10  22  39  65  94 122 171 211 260 322 380
#     4   9  21  40  62  95 126 164 211 263 325 375
#     4  11  22  40  64  90 126 172 211 251 325 377
#     4  11  25  40  62  94 129 167 208 264 319 377
#     4  11  25  43  60  97 133 162 215 265 320 378
#     4  10  21  39  62  91 127 163 209 261 309 384
#     4  11  22  43  66  91 129 167 215 262 324 386
#     4  11  23  41  69  91 126 168 218 269 316 382
#
# _framework density 19.523105000000001
#
# number of rings (size 3 to 8) (size 9 to 14) (size 15 to 20)
#    0.000    1.500    2.500    1.875    3.500    3.000 
#    0.000    1.875    2.750    0.000    0.000    0.000 
#    0.000    0.000    0.000    0.000    0.000    0.000 
#
# Total GULP energy -178779.943936 kJ/mol
# GULP energy per Si atom -5586.873248 kJ/mol
# Density = 1.947867 g / cm^3
# Si number density = 19.523105 Si / 1000 Ang^3
#
#
#
# Elastic Constant Matrix: (Units=GPa)
#
#
# Indices 1 2 3 4 5 6 
#
# 1 83.6145 38.8909 34.0541 -0.0006 -4.1476 -0.0003
# 2 38.8909 79.9094 38.7658 0.0024 -7.7033 0.0010
# 3 34.0541 38.7658 94.7457 0.0040 -5.0711 0.0013
# 4 -0.0006 0.0024 0.0040 15.1213 -0.0001 -11.6782
# 5 -4.1476 -7.7033 -5.0711 -0.0001 34.2634 -0.0004
# 6 -0.0003 0.0010 0.0013 -11.6782 -0.0004 19.2765
#
#
#
# Elastic Compliance Matrix: (Units=1/GPa)
#
#
# Indices 1 2 3 4 5 6 
#
# 1 0.016221 -0.006315 -0.003243 0.000006 0.000064 0.000004
# 2 -0.006315 0.018302 -0.005080 -0.000004 0.002599 -0.000003
# 3 -0.003243 -0.005080 0.013826 -0.000007 0.000512 -0.000005
# 4 0.000006 -0.000004 -0.000007 0.124280 0.000000 0.075292
# 5 0.000064 0.002599 0.000512 0.000000 0.029853 0.000000
# 6 0.000004 -0.000003 -0.000005 0.075292 0.000000 0.097490
#
#
# Mechanical properties :
#
#
# Convention : Reuss Voigt Hill
#
# Bulk Modulus (GPa) = 52.42786 53.52123 52.97454
# Shear Modulus (GPa) = 14.89844 23.50283 19.20063
#
# Velocity S-wave (km/s) = 2.76546 3.47341 3.13945
# Velocity P-wave (km/s) = 6.09176 6.60000 6.35097
#
# Compressibility (1/GPa) = 0.01907383
#
# Stress axis : x y z
#
# Youngs Moduli (GPa) = 61.64896 54.63756 72.32792
#
# Poissons Ratio (x) = 0.34504 0.23455
# Poissons Ratio (y) = 0.38932 0.36740
# Poissons Ratio (z) = 0.19992 0.27754
#
# Static dielectric constant tensor:
#      x y z
#    x 1.682280 0.000000 0.006340 
#    y 0.000000 1.665320 0.000000 
#    z 0.006340 0.000000 1.674010 
# 
# From -- ./inp_files/274852.got.cif
#   From: 2010.05.17/outbox.cif.g08.bks.cpg/sg15_138_cif.got.tgz:274852.got - 2010.06.03 18:47:42.
