data_PCOD9282395
_publ_section_title
;
Structure prediction by ZEFSAII (Michael W. Deem and Ramdas Pophale) SiO2 
 PCOD9282395
Probable space group: C 2/C
;
_chemical_formula_sum "Si O2"
_cell_formula_units_Z 40
_cell_length_a 21.280004
_cell_length_b 5.407392
_cell_length_c 14.914533
_cell_angle_alpha 90.000000
_cell_angle_beta 62.194287
_cell_angle_gamma 90.000000
_cell_volume 1518.042671
_symmetry_space_group_name_H-M "C 2/C"
_symmetry_group_IT_number 15
_symmetry_cell_setting 'monoclinic'
loop_
_space_group_symop_operation_xyz
x,y,z
-x,y,1/2-z
-x,-y,-z
x,-y,1/2+z
1/2+x,1/2+y,z
1/2-x,1/2+y,1/2-z
1/2-x,1/2-y,-z
1/2+x,1/2-y,1/2+z
loop_
_atom_site_type_symbol
_atom_site_label
_atom_site_fract_x
_atom_site_fract_y
_atom_site_fract_z
Si Si1 0.054925 0.969561 0.046145
Si Si2 0.499409 0.963214 0.108216
Si Si3 0.313126 0.672249 0.635652
Si Si4 0.346368 0.972980 0.770383
Si Si5 0.294468 0.002017 0.490908
O O1 0.134596 0.984524 0.952018
O O2 0.044454 0.225194 0.105338
O O3 0.030056 0.729398 0.116029
O O4 0.000000 0.000000 0.000000
O O5 0.418651 0.910139 0.188099
O O6 0.500000 0.000000 0.000000
O O7 0.230975 0.595042 0.696603
O O8 0.341475 0.718862 0.716859
O O9 0.181216 0.431619 0.924754
O O10 0.350053 0.968496 0.874269
O O11 0.250000 0.250000 0.500000
O O12 0.250000 0.750000 0.500000
#
# Coordination Sequence:
#
# PCOD9282395 Si02
#       5
#     8   8   8   8   8
#     4  10  21  39  61  96 137 169 219 286 337 406
#     4  10  21  39  61  96 135 169 215 286 333 407
#     4  11  23  39  71 102 136 189 237 285 352 420
#     4  11  23  39  71 100 131 185 231 281 351 414
#     4  10  24  44  61 100 142 169 228 298 336 410
#
# _framework density 26.349722
#
# number of rings (size 3 to 8) (size 9 to 14) (size 15 to 20)
#    0.000    1.600    4.000    1.200    5.600    6.400 
#    0.000    1.000    0.000    2.400    0.000    0.000 
#    0.000    0.000    0.000    0.000    0.000    0.000 
#
# Total GULP energy -111736.001751 kJ/mol
# GULP energy per Si atom -5586.800088 kJ/mol
# Density = 2.628975 g / cm^3
# Si number density = 26.349722 Si / 1000 Ang^3
#
#
#
# Elastic Constant Matrix: (Units=GPa)
#
#
# Indices 1 2 3 4 5 6 
#
# 1 105.3831 30.9706 35.2327 -0.0005 -22.8700 -0.0018
# 2 30.9706 174.2708 19.0278 -0.0020 -31.6299 0.0005
# 3 35.2327 19.0278 184.2443 0.0001 -44.8934 0.0008
# 4 -0.0005 -0.0020 0.0001 23.9635 -0.0001 -10.4413
# 5 -22.8700 -31.6299 -44.8934 -0.0001 38.3972 0.0000
# 6 -0.0018 0.0005 0.0008 -10.4413 0.0000 40.8042
#
#
#
# Elastic Compliance Matrix: (Units=1/GPa)
#
#
# Indices 1 2 3 4 5 6 
#
# 1 0.011111 -0.001013 -0.000854 0.000000 0.004785 0.000001
# 2 -0.001013 0.006952 0.001013 0.000001 0.006308 0.000000
# 3 -0.000854 0.001013 0.007783 0.000000 0.009425 0.000000
# 4 0.000000 0.000001 0.000000 0.046967 0.000001 0.012018
# 5 0.004785 0.006308 0.009425 0.000001 0.045109 0.000000
# 6 0.000001 0.000000 0.000000 0.012018 0.000000 0.027583
#
#
# Mechanical properties :
#
#
# Convention : Reuss Voigt Hill
#
# Bulk Modulus (GPa) = 41.42981 70.48450 55.95716
# Shear Modulus (GPa) = 32.20424 45.87747 39.04085
#
# Velocity S-wave (km/s) = 3.49977 4.17717 3.85339
# Velocity P-wave (km/s) = 5.66466 7.07621 6.40941
#
# Compressibility (1/GPa) = 0.02413721
#
# Stress axis : x y z
#
# Youngs Moduli (GPa) = 90.00244 143.83319 128.48737
#
# Poissons Ratio (x) = 0.14569 0.10976
# Poissons Ratio (y) = 0.09116 -0.13011
# Poissons Ratio (z) = 0.07689 -0.14565
#
# Static dielectric constant tensor:
#      x y z
#    x 2.131800 0.000370 0.038540 
#    y 0.000370 9.589610 -0.000460 
#    z 0.038540 -0.000460 2.141710 
# 
# From -- ./inp_files/256442.got.cif
#   From: 2010.05.17/outbox.cif.g08.bks.cpg/sg15_129_cif.got.tgz:256442.got - 2010.06.03 18:47:42.
