data_PCOD9282784
_publ_section_title
;
Structure prediction by ZEFSAII (Michael W. Deem and Ramdas Pophale) SiO2 
 PCOD9282784
Probable space group: C 2/C
;
_chemical_formula_sum "Si O2"
_cell_formula_units_Z 36
_cell_length_a 11.407481
_cell_length_b 27.632680
_cell_length_c 5.382731
_cell_angle_alpha 90.000000
_cell_angle_beta 75.526817
_cell_angle_gamma 90.000000
_cell_volume 1642.894017
_symmetry_space_group_name_H-M "C 2/C"
_symmetry_group_IT_number 15
_symmetry_cell_setting 'monoclinic'
loop_
_space_group_symop_operation_xyz
x,y,z
-x,y,1/2-z
-x,-y,-z
x,-y,1/2+z
1/2+x,1/2+y,z
1/2-x,1/2+y,1/2-z
1/2-x,1/2-y,-z
1/2+x,1/2-y,1/2+z
loop_
_atom_site_type_symbol
_atom_site_label
_atom_site_fract_x
_atom_site_fract_y
_atom_site_fract_z
Si Si1 0.000000 0.532514 0.250000
Si Si2 0.075680 0.874027 0.960161
Si Si3 0.626741 0.218892 0.603576
Si Si4 0.266333 0.532234 0.113100
Si Si5 0.701740 0.194950 0.063506
O O1 0.868007 0.557056 0.317375
O O2 0.000000 0.500000 0.500000
O O3 0.130560 0.927787 0.935075
O O4 0.187042 0.837523 0.914213
O O5 0.000000 0.866988 0.750000
O O6 0.000000 0.865924 0.250000
O O7 0.500000 0.244332 0.750000
O O8 0.750000 0.250000 0.500000
O O9 0.611277 0.195556 0.342723
O O10 0.652853 0.182347 0.816195
O O11 0.275054 0.499384 0.356460
O O12 0.750000 0.250000 0.000000
#
# Coordination Sequence:
#
# PCOD9282784 Si02
#       5
#     4   8   8   8   8
#     4   8  16  34  60  88 122 170 214 266 322 382
#     4  12  26  43  67 100 139 180 225 277 344 411
#     4  10  21  39  64  95 127 166 220 276 340 398
#     4  10  21  40  67  98 135 175 223 273 338 403
#     4  10  23  41  63  91 128 177 226 273 329 395
#
# _framework density 21.91255
#
# number of rings (size 3 to 8) (size 9 to 14) (size 15 to 20)
#    0.000    1.778    0.000    3.333    0.000   13.333 
#    4.000    0.000    4.889    0.000    0.000    0.000 
#    0.000    0.000    0.000    0.000    0.000    0.000 
#
# Total GULP energy -100417.449794 kJ/mol
# GULP energy per Si atom -5578.747211 kJ/mol
# Density = 2.186268 g / cm^3
# Si number density = 21.912550 Si / 1000 Ang^3
#
#
#
# Elastic Constant Matrix: (Units=GPa)
#
#
# Indices 1 2 3 4 5 6 
#
# 1 129.2843 28.1604 73.8439 0.0000 9.7194 0.0000
# 2 28.1604 53.4447 24.5323 0.0000 4.6818 0.0000
# 3 73.8439 24.5323 223.5900 0.0000 20.4167 0.0000
# 4 0.0000 0.0000 0.0000 21.4125 0.0000 8.8935
# 5 9.7194 4.6818 20.4167 0.0000 58.3254 0.0000
# 6 0.0000 0.0000 0.0000 8.8935 0.0000 38.0557
#
#
#
# Elastic Compliance Matrix: (Units=1/GPa)
#
#
# Indices 1 2 3 4 5 6 
#
# 1 0.010320 -0.004061 -0.002929 0.000000 -0.000368 0.000000
# 2 -0.004061 0.021342 -0.000936 0.000000 -0.000709 0.000000
# 3 -0.002929 -0.000936 0.005672 0.000000 -0.001422 0.000000
# 4 0.000000 0.000000 0.000000 0.051722 0.000000 -0.012087
# 5 -0.000368 -0.000709 -0.001422 0.000000 0.017761 0.000000
# 6 0.000000 0.000000 0.000000 -0.012087 0.000000 0.029102
#
#
# Mechanical properties :
#
#
# Convention : Reuss Voigt Hill
#
# Bulk Modulus (GPa) = 46.54812 73.26580 59.90696
# Shear Modulus (GPa) = 31.45975 42.21089 36.83532
#
# Velocity S-wave (km/s) = 3.79317 4.39376 4.10447
# Velocity P-wave (km/s) = 6.36184 7.69729 7.06121
#
# Compressibility (1/GPa) = 0.02148314
#
# Stress axis : x y z
#
# Youngs Moduli (GPa) = 96.89711 46.85529 176.29115
#
# Poissons Ratio (x) = 0.19028 0.51639
# Poissons Ratio (y) = 0.39350 0.16496
# Poissons Ratio (z) = 0.28383 0.04384
#
# Static dielectric constant tensor:
#      x y z
#    x 1.867150 0.000000 -0.004610 
#    y 0.000000 1.774960 0.000000 
#    z -0.004610 0.000000 1.787930 
# 
# From -- ./inp_files/4806.got.cif
#   From: 2010.05.17/outbox.cif.g08.bks.cpg/sg15_3_cif.got.tgz:4806.got - 2010.06.03 18:47:42.
