data_PCOD9282071
_publ_section_title
;
Structure prediction by ZEFSAII (Michael W. Deem and Ramdas Pophale) SiO2 
 PCOD9282071
Probable space group: C 2/C
;
_chemical_formula_sum "Si O2"
_cell_formula_units_Z 60
_cell_length_a 15.875189
_cell_length_b 14.779388
_cell_length_c 11.803058
_cell_angle_alpha 90.000000
_cell_angle_beta 80.070250
_cell_angle_gamma 90.000000
_cell_volume 2727.814983
_symmetry_space_group_name_H-M "C 2/C"
_symmetry_group_IT_number 15
_symmetry_cell_setting 'monoclinic'
loop_
_space_group_symop_operation_xyz
x,y,z
-x,y,1/2-z
-x,-y,-z
x,-y,1/2+z
1/2+x,1/2+y,z
1/2-x,1/2+y,1/2-z
1/2-x,1/2-y,-z
1/2+x,1/2-y,1/2+z
loop_
_atom_site_type_symbol
_atom_site_label
_atom_site_fract_x
_atom_site_fract_y
_atom_site_fract_z
Si Si1 0.840798 0.908316 0.689706
Si Si2 0.601094 0.002583 0.965888
Si Si3 0.102438 0.337030 0.615295
Si Si4 0.087657 0.323670 0.877592
Si Si5 0.779531 0.430285 0.230762
Si Si6 0.244970 0.747040 0.636414
Si Si7 0.857022 0.136863 0.920977
Si Si8 0.000000 0.973965 0.250000
O O1 0.803836 0.829382 0.784390
O O2 0.853677 0.877251 0.556977
O O3 0.768400 0.985325 0.703888
O O4 0.927853 0.959140 0.711953
O O5 0.629693 0.043633 0.840767
O O6 0.627420 0.898120 0.952678
O O7 0.634500 0.072150 0.050286
O O8 0.500000 0.000000 0.000000
O O9 0.089258 0.358836 0.749152
O O10 0.153597 0.244608 0.594694
O O11 0.011763 0.309476 0.577115
O O12 0.153367 0.242406 0.857796
O O13 0.791364 0.345944 0.308881
O O14 0.718478 0.406537 0.136937
O O15 0.250000 0.750000 0.500000
O O16 0.944757 0.092033 0.847564
#
# Coordination Sequence:
#
# PCOD9282071 Si02
#       8
#     8   8   8   8   8   8   8   4
#     4  11  26  44  70 104 142 184 233 294 349 428
#     4  10  22  40  64  96 134 177 222 292 346 404
#     4  10  21  38  69  96 129 177 235 288 334 416
#     4  10  21  41  61  97 135 174 228 281 350 405
#     4  11  25  42  70 103 139 183 237 288 357 418
#     4  12  27  44  67 102 147 192 228 293 361 420
#     4  11  23  42  74 105 135 179 239 295 348 417
#     4  10  24  44  68 108 142 186 220 286 372 426
#
# _framework density 21.995626999999999
#
# number of rings (size 3 to 8) (size 9 to 14) (size 15 to 20)
#    0.000    1.333    2.667    2.000    7.467    3.200 
#    0.000    1.333    0.000    1.600    0.000    0.000 
#    0.000    0.000    0.000    0.000    0.000    0.000 
#
# Total GULP energy -167279.604615 kJ/mol
# GULP energy per Si atom -5575.986821 kJ/mol
# Density = 2.194556 g / cm^3
# Si number density = 21.995627 Si / 1000 Ang^3
#
#
#
# Elastic Constant Matrix: (Units=GPa)
#
#
# Indices 1 2 3 4 5 6 
#
# 1 86.9338 24.5087 47.9001 0.0000 -12.2176 0.0000
# 2 24.5087 101.0130 41.1615 0.0000 -3.5931 0.0000
# 3 47.9001 41.1615 126.5070 0.0000 -5.0720 0.0000
# 4 0.0000 0.0000 0.0000 38.0200 0.0000 5.3286
# 5 -12.2176 -3.5931 -5.0720 0.0000 34.1090 0.0000
# 6 0.0000 0.0000 0.0000 5.3286 0.0000 20.7107
#
#
#
# Elastic Compliance Matrix: (Units=1/GPa)
#
#
# Indices 1 2 3 4 5 6 
#
# 1 0.015414 -0.001468 -0.005174 0.000000 0.004597 0.000000
# 2 -0.001468 0.011567 -0.003199 0.000000 0.000217 0.000000
# 3 -0.005174 -0.003199 0.010882 0.000000 -0.000572 0.000000
# 4 0.000000 0.000000 0.000000 0.027286 0.000000 -0.007020
# 5 0.004597 0.000217 -0.000572 0.000000 0.030902 0.000000
# 6 0.000000 0.000000 0.000000 -0.007020 0.000000 0.050090
#
#
# Mechanical properties :
#
#
# Convention : Reuss Voigt Hill
#
# Bulk Modulus (GPa) = 55.00465 60.17718 57.59091
# Shear Modulus (GPa) = 29.08934 31.96017 30.52476
#
# Velocity S-wave (km/s) = 3.64057 3.81599 3.72931
# Velocity P-wave (km/s) = 6.53705 6.84352 6.69204
#
# Compressibility (1/GPa) = 0.01818028
#
# Stress axis : x y z
#
# Youngs Moduli (GPa) = 64.87626 86.45147 91.89615
#
# Poissons Ratio (x) = 0.12690 0.47550
# Poissons Ratio (y) = 0.09523 0.29399
# Poissons Ratio (z) = 0.33569 0.27657
#
# Static dielectric constant tensor:
#      x y z
#    x 1.857440 0.000000 0.011360 
#    y 0.000000 1.872280 0.000000 
#    z 0.011360 0.000000 1.840380 
# 
# From -- ./inp_files/105693.got.cif
#   From: 2010.05.17/outbox.cif.g08.bks.cpg/sg15_53_cif.got.tgz:105693.got - 2010.06.03 18:47:42.
