data_PCOD9282911
_publ_section_title
;
Structure prediction by ZEFSAII (Michael W. Deem and Ramdas Pophale) SiO2 
 PCOD9282911
Probable space group: C 2/C
;
_chemical_formula_sum "Si O2"
_cell_formula_units_Z 52
_cell_length_a 14.595554
_cell_length_b 10.897053
_cell_length_c 13.003315
_cell_angle_alpha 90.000000
_cell_angle_beta 66.117239
_cell_angle_gamma 90.000000
_cell_volume 1891.073721
_symmetry_space_group_name_H-M "C 2/C"
_symmetry_group_IT_number 15
_symmetry_cell_setting 'monoclinic'
loop_
_space_group_symop_operation_xyz
x,y,z
-x,y,1/2-z
-x,-y,-z
x,-y,1/2+z
1/2+x,1/2+y,z
1/2-x,1/2+y,1/2-z
1/2-x,1/2-y,-z
1/2+x,1/2-y,1/2+z
loop_
_atom_site_type_symbol
_atom_site_label
_atom_site_fract_x
_atom_site_fract_y
_atom_site_fract_z
Si Si1 0.590468 0.909809 0.767504
Si Si2 0.950944 0.079790 0.085358
Si Si3 0.775567 0.690349 0.835050
Si Si4 0.924066 0.145119 0.686647
Si Si5 0.760775 0.072735 0.049349
Si Si6 0.000000 0.235963 0.250000
Si Si7 0.235082 0.027199 0.167142
O O1 0.500000 0.974269 0.750000
O O2 0.547533 0.791372 0.843970
O O3 0.665596 0.982468 0.808114
O O4 0.662880 0.867995 0.641103
O O5 0.872536 0.023277 0.222715
O O6 0.016662 0.159048 0.135426
O O7 0.971389 0.924599 0.060528
O O8 0.855561 0.128977 0.064642
O O9 0.697945 0.671883 0.775648
O O10 0.747187 0.572012 0.915495
O O11 0.895657 0.696833 0.772729
O O12 0.754637 0.831274 0.876425
O O13 0.000000 0.121929 0.750000
O O14 0.770138 0.064969 0.924699
#
# Coordination Sequence:
#
# PCOD9282911 Si02
#       7
#     8   8   8   8   8   4   8
#     4  11  25  42  64  95 133 173 212 265 323 385
#     4  11  23  39  67 101 125 161 218 270 317 378
#     4  10  21  39  65  95 128 169 212 269 320 377
#     4  10  22  44  64  90 134 173 206 267 330 378
#     4  11  24  43  65  96 133 172 216 261 323 396
#     4  12  22  38  68  98 128 162 220 270 318 368
#     4  11  21  44  69  89 130 176 213 266 329 372
#
# _framework density 27.497605
#
# number of rings (size 3 to 8) (size 9 to 14) (size 15 to 20)
#    0.000    1.231    4.615    2.308    2.154    3.692 
#    0.000    1.538    0.000    0.000    0.000    0.000 
#    0.000    0.000    0.000    0.000    0.000    0.000 
#
# Total GULP energy -145025.780361 kJ/mol
# GULP energy per Si atom -5577.914629 kJ/mol
# Density = 2.743502 g / cm^3
# Si number density = 27.497605 Si / 1000 Ang^3
#
#
#
# Elastic Constant Matrix: (Units=GPa)
#
#
# Indices 1 2 3 4 5 6 
#
# 1 263.7212 69.4437 39.6204 0.0000 22.9622 0.0000
# 2 69.4437 85.8375 38.4333 0.0000 22.3088 0.0000
# 3 39.6204 38.4333 150.6691 0.0000 36.3426 0.0000
# 4 0.0000 0.0000 0.0000 38.3970 0.0000 4.9145
# 5 22.9622 22.3088 36.3426 0.0000 47.8245 0.0000
# 6 0.0000 0.0000 0.0000 4.9145 0.0000 64.1382
#
#
#
# Elastic Compliance Matrix: (Units=1/GPa)
#
#
# Indices 1 2 3 4 5 6 
#
# 1 0.004838 -0.003703 -0.000225 0.000000 -0.000424 0.000000
# 2 -0.003703 0.016784 -0.002263 0.000000 -0.004332 0.000000
# 3 -0.000225 -0.002263 0.008562 0.000000 -0.005343 0.000000
# 4 0.000000 0.000000 0.000000 0.026302 0.000000 -0.002015
# 5 -0.000424 -0.004332 -0.005343 0.000000 0.027195 0.000000
# 6 0.000000 0.000000 0.000000 -0.002015 0.000000 0.015746
#
#
# Mechanical properties :
#
#
# Convention : Reuss Voigt Hill
#
# Bulk Modulus (GPa) = 56.17045 88.35806 72.26426
# Shear Modulus (GPa) = 42.46571 53.58728 48.02650
#
# Velocity S-wave (km/s) = 3.93408 4.41931 4.18373
# Velocity P-wave (km/s) = 6.41153 7.63172 7.04808
#
# Compressibility (1/GPa) = 0.01780296
#
# Stress axis : x y z
#
# Youngs Moduli (GPa) = 206.71203 59.57899 116.79138
#
# Poissons Ratio (x) = 0.22059 0.02631
# Poissons Ratio (y) = 0.76536 0.26428
# Poissons Ratio (z) = 0.04657 0.13482
#
# Static dielectric constant tensor:
#      x y z
#    x 2.024210 0.000000 -0.049850 
#    y 0.000000 2.498270 0.000000 
#    z -0.049850 0.000000 2.312250 
# 
# From -- ./inp_files/153342.got.cif
#   From: 2010.05.17/outbox.cif.g08.bks.cpg/sg15_77_cif.got.tgz:153342.got - 2010.06.03 18:47:42.
