data_PCOD9282775
_publ_section_title
;
Structure prediction by ZEFSAII (Michael W. Deem and Ramdas Pophale) SiO2 
 PCOD9282775
Probable space group: C 2/C
;
_chemical_formula_sum "Si O2"
_cell_formula_units_Z 48
_cell_length_a 8.537437
_cell_length_b 32.743863
_cell_length_c 8.777623
_cell_angle_alpha 90.000000
_cell_angle_beta 95.919276
_cell_angle_gamma 90.000000
_cell_volume 2440.689734
_symmetry_space_group_name_H-M "C 2/C"
_symmetry_group_IT_number 15
_symmetry_cell_setting 'monoclinic'
loop_
_space_group_symop_operation_xyz
x,y,z
-x,y,1/2-z
-x,-y,-z
x,-y,1/2+z
1/2+x,1/2+y,z
1/2-x,1/2+y,1/2-z
1/2-x,1/2-y,-z
1/2+x,1/2-y,1/2+z
loop_
_atom_site_type_symbol
_atom_site_label
_atom_site_fract_x
_atom_site_fract_y
_atom_site_fract_z
Si Si1 0.438839 0.878817 0.918806
Si Si2 0.559356 0.296462 0.433832
Si Si3 0.562923 0.459110 0.425741
Si Si4 0.932459 0.878057 0.575825
Si Si5 0.934529 0.293871 0.565135
Si Si6 0.934128 0.459797 0.414068
O O1 0.500000 0.880032 0.750000
O O2 0.253297 0.882241 0.921609
O O3 0.490371 0.835113 0.991720
O O4 0.511173 0.917578 0.007647
O O5 0.500000 0.297095 0.250000
O O6 0.478517 0.336151 0.496650
O O7 0.746799 0.298134 0.503040
O O8 0.513377 0.250889 0.487409
O O9 0.500000 0.457654 0.250000
O O10 0.500000 0.500000 0.500000
O O11 0.505538 0.418119 0.504224
O O12 0.748906 0.461042 0.423585
O O13 0.000000 0.875129 0.750000
O O14 0.000000 0.293870 0.750000
O O15 0.000000 0.460486 0.250000
O O16 0.000000 0.500000 0.500000
#
# Coordination Sequence:
#
# PCOD9282775 Si02
#       6
#     8   8   8   8   8   8
#     4  11  23  41  62  88 124 166 210 256 310 373
#     4  10  21  39  64  94 128 166 212 268 324 380
#     4  12  25  44  66  93 126 162 208 260 315 376
#     4  12  24  40  64  94 127 168 213 261 319 379
#     4   9  19  39  64  90 127 170 211 261 322 385
#     4  12  25  43  65  92 124 160 202 251 310 372
#
# _framework density 19.666571999999999
#
# number of rings (size 3 to 8) (size 9 to 14) (size 15 to 20)
#    0.000    1.000    0.000    8.500    0.000    2.000 
#    0.000    0.833    0.000    0.000    0.000    0.000 
#    0.000    0.000    0.000    0.000    0.000    0.000 
#
# Total GULP energy -133847.223536 kJ/mol
# GULP energy per Si atom -5576.967647 kJ/mol
# Density = 1.962181 g / cm^3
# Si number density = 19.666572 Si / 1000 Ang^3
#
#
#
# Elastic Constant Matrix: (Units=GPa)
#
#
# Indices 1 2 3 4 5 6 
#
# 1 198.8512 91.4415 53.5596 0.0000 2.4074 0.0000
# 2 91.4415 226.9884 88.6425 0.0000 -12.9150 0.0000
# 3 53.5596 88.6425 116.0345 0.0000 -1.4804 0.0000
# 4 0.0000 0.0000 0.0000 31.5483 0.0000 2.4321
# 5 2.4074 -12.9150 -1.4804 0.0000 37.8839 0.0000
# 6 0.0000 0.0000 0.0000 2.4321 0.0000 39.8377
#
#
#
# Elastic Compliance Matrix: (Units=1/GPa)
#
#
# Indices 1 2 3 4 5 6 
#
# 1 0.006376 -0.002110 -0.001346 0.000000 -0.001177 0.000000
# 2 -0.002110 0.007125 -0.004438 0.000000 0.002389 0.000000
# 3 -0.001346 -0.004438 0.012618 0.000000 -0.000934 0.000000
# 4 0.000000 0.000000 0.000000 0.031847 0.000000 -0.001944
# 5 -0.001177 0.002389 -0.000934 0.000000 0.027249 0.000000
# 6 0.000000 0.000000 0.000000 -0.001944 0.000000 0.025221
#
#
# Mechanical properties :
#
#
# Convention : Reuss Voigt Hill
#
# Bulk Modulus (GPa) = 96.80677 112.12904 104.46791
# Shear Modulus (GPa) = 38.55989 42.40268 40.48129
#
# Velocity S-wave (km/s) = 4.43276 4.64840 4.54186
# Velocity P-wave (km/s) = 8.69080 9.27087 8.98552
#
# Compressibility (1/GPa) = 0.01032986
#
# Stress axis : x y z
#
# Youngs Moduli (GPa) = 156.84012 140.35794 79.24981
#
# Poissons Ratio (x) = 0.29612 0.10670
# Poissons Ratio (y) = 0.33089 0.35175
# Poissons Ratio (z) = 0.21116 0.62297
#
# Static dielectric constant tensor:
#      x y z
#    x 1.666720 0.000000 0.015640 
#    y 0.000000 1.702090 0.000000 
#    z 0.015640 0.000000 1.699850 
# 
# From -- ./inp_files/26138.got.cif
#   From: 2010.05.17/outbox.cif.g08.bks.cpg/sg15_14_cif.got.tgz:26138.got - 2010.06.03 18:47:42.
