data_PCOD9282620
_publ_section_title
;
Structure prediction by ZEFSAII (Michael W. Deem and Ramdas Pophale) SiO2 
 PCOD9282620
Probable space group: C 2/C
;
_chemical_formula_sum "Si O2"
_cell_formula_units_Z 40
_cell_length_a 20.722192
_cell_length_b 6.581623
_cell_length_c 10.344081
_cell_angle_alpha 90.000000
_cell_angle_beta 85.333286
_cell_angle_gamma 90.000000
_cell_volume 1406.107265
_symmetry_space_group_name_H-M "C 2/C"
_symmetry_group_IT_number 15
_symmetry_cell_setting 'monoclinic'
loop_
_space_group_symop_operation_xyz
x,y,z
-x,y,1/2-z
-x,-y,-z
x,-y,1/2+z
1/2+x,1/2+y,z
1/2-x,1/2+y,1/2-z
1/2-x,1/2-y,-z
1/2+x,1/2-y,1/2+z
loop_
_atom_site_type_symbol
_atom_site_label
_atom_site_fract_x
_atom_site_fract_y
_atom_site_fract_z
Si Si1 0.745928 0.555424 0.093349
Si Si2 0.538442 0.215197 0.923322
Si Si3 0.339434 0.189888 0.729144
Si Si4 0.358473 0.215479 0.366481
Si Si5 0.454660 0.256753 0.143170
O O1 0.716716 0.652255 0.229588
O O2 0.693554 0.378530 0.074570
O O3 0.843044 0.521446 0.841656
O O4 0.812597 0.441592 0.113270
O O5 0.590805 0.291860 0.809614
O O6 0.531116 0.986280 0.872438
O O7 0.581738 0.221076 0.045314
O O8 0.471795 0.311213 0.990678
O O9 0.250000 0.250000 0.000000
O O10 0.384202 0.277232 0.217616
O O11 0.500000 0.344533 0.250000
#
# Coordination Sequence:
#
# PCOD9282620 Si02
#       5
#     8   8   8   8   8
#     4  12  26  40  63  92 131 180 225 274 331 391
#     4   9  18  34  65  93 125 170 215 269 330 394
#     4  11  23  40  60  91 131 176 220 274 329 396
#     4  10  21  39  63  92 133 171 224 269 332 397
#     4   8  16  35  63  98 129 168 213 275 338 399
#
# _framework density 28.447334000000001
#
# number of rings (size 3 to 8) (size 9 to 14) (size 15 to 20)
#    0.000    2.000    2.000    1.200    2.800    1.600 
#    0.000    1.000    0.000   55.200    0.000    0.000 
#    0.000    0.000    0.000    0.000    0.000    0.000 
#
# Total GULP energy -111573.741520 kJ/mol
# GULP energy per Si atom -5578.687076 kJ/mol
# Density = 2.838259 g / cm^3
# Si number density = 28.447334 Si / 1000 Ang^3
#
#
#
# Elastic Constant Matrix: (Units=GPa)
#
#
# Indices 1 2 3 4 5 6 
#
# 1 66.5375 21.5105 33.6262 0.0000 -7.0475 0.0000
# 2 21.5105 113.8463 52.7795 0.0000 -6.6595 0.0000
# 3 33.6262 52.7795 154.6529 0.0000 -29.9309 0.0000
# 4 0.0000 0.0000 0.0000 32.8218 0.0000 -3.6233
# 5 -7.0475 -6.6595 -29.9309 0.0000 62.0651 0.0000
# 6 0.0000 0.0000 0.0000 -3.6233 0.0000 50.1033
#
#
#
# Elastic Compliance Matrix: (Units=1/GPa)
#
#
# Indices 1 2 3 4 5 6 
#
# 1 0.017194 -0.001811 -0.003066 0.000000 0.000279 0.000000
# 2 -0.001811 0.010650 -0.003374 0.000000 -0.000690 0.000000
# 3 -0.003066 -0.003374 0.008986 0.000000 0.003623 0.000000
# 4 0.000000 0.000000 0.000000 0.030713 0.000000 0.002221
# 5 0.000279 -0.000690 0.003623 0.000000 0.017817 0.000000
# 6 0.000000 0.000000 0.000000 0.002221 0.000000 0.020119
#
#
# Mechanical properties :
#
#
# Convention : Reuss Voigt Hill
#
# Bulk Modulus (GPa) = 49.19769 61.20764 55.20267
# Shear Modulus (GPa) = 38.83285 44.13942 41.48613
#
# Velocity S-wave (km/s) = 3.69871 3.94333 3.82298
# Velocity P-wave (km/s) = 5.96426 6.50354 6.23973
#
# Compressibility (1/GPa) = 0.02032616
#
# Stress axis : x y z
#
# Youngs Moduli (GPa) = 58.16061 93.89738 111.28865
#
# Poissons Ratio (x) = 0.17002 0.34126
# Poissons Ratio (y) = 0.10531 0.37554
# Poissons Ratio (z) = 0.17835 0.31685
#
# Static dielectric constant tensor:
#      x y z
#    x 2.294680 0.000000 -0.160750 
#    y 0.000000 2.224750 0.000000 
#    z -0.160750 0.000000 2.449470 
# 
# From -- ./inp_files/116162.got.cif
#   From: 2010.05.17/outbox.cif.g08.bks.cpg/sg15_59_cif.got.tgz:116162.got - 2010.06.03 18:47:42.
