data_PCOD9282675
_publ_section_title
;
Structure prediction by ZEFSAII (Michael W. Deem and Ramdas Pophale) SiO2 
 PCOD9282675
Probable space group: C 2/C
;
_chemical_formula_sum "Si O2"
_cell_formula_units_Z 28
_cell_length_a 10.999586
_cell_length_b 23.515134
_cell_length_c 5.007710
_cell_angle_alpha 90.000000
_cell_angle_beta 102.108235
_cell_angle_gamma 90.000000
_cell_volume 1266.462017
_symmetry_space_group_name_H-M "C 2/C"
_symmetry_group_IT_number 15
_symmetry_cell_setting 'monoclinic'
loop_
_space_group_symop_operation_xyz
x,y,z
-x,y,1/2-z
-x,-y,-z
x,-y,1/2+z
1/2+x,1/2+y,z
1/2-x,1/2+y,1/2-z
1/2-x,1/2-y,-z
1/2+x,1/2-y,1/2+z
loop_
_atom_site_type_symbol
_atom_site_label
_atom_site_fract_x
_atom_site_fract_y
_atom_site_fract_z
Si Si1 0.352198 0.965345 0.718034
Si Si2 0.855773 0.208770 0.676252
Si Si3 0.698542 0.366206 0.835925
Si Si4 0.500000 0.540199 0.250000
O O1 0.500000 0.968435 0.750000
O O2 0.321117 0.901529 0.804396
O O3 0.305798 0.987221 0.409205
O O4 0.750000 0.250000 0.500000
O O5 0.859374 0.159313 0.459522
O O6 0.000000 0.231435 0.750000
O O7 0.807272 0.181605 0.934392
O O8 0.611068 0.417599 0.869659
O O9 0.500000 0.500000 0.500000
#
# Coordination Sequence:
#
# PCOD9282675 Si02
#       4
#     8   8   8   4
#     4  10  21  39  63  97 140 184 224 272 342 433
#     4  12  26  48  71  99 137 186 244 311 365 419
#     4  12  23  43  68 100 141 179 233 294 356 428
#     4  12  22  36  66 104 144 180 216 272 364 440
#
# _framework density 22.108837000000001
#
# number of rings (size 3 to 8) (size 9 to 14) (size 15 to 20)
#    0.000    0.571    2.857    6.000    0.000    1.143 
#    0.000    2.857    0.000    0.000    0.000    0.000 
#    0.000    0.000    0.000    0.000    0.000    0.000 
#
# Total GULP energy -78029.338337 kJ/mol
# GULP energy per Si atom -5573.524167 kJ/mol
# Density = 2.205852 g / cm^3
# Si number density = 22.108837 Si / 1000 Ang^3
#
#
#
# Elastic Constant Matrix: (Units=GPa)
#
#
# Indices 1 2 3 4 5 6 
#
# 1 101.8447 47.7238 35.1677 0.0000 -1.5559 0.0000
# 2 47.7238 66.3106 14.9840 0.0000 1.1791 0.0000
# 3 35.1677 14.9840 133.6246 0.0000 -6.0367 0.0000
# 4 0.0000 0.0000 0.0000 52.3610 0.0000 0.0932
# 5 -1.5559 1.1791 -6.0367 0.0000 25.0106 0.0000
# 6 0.0000 0.0000 0.0000 0.0932 0.0000 39.5370
#
#
#
# Elastic Compliance Matrix: (Units=1/GPa)
#
#
# Indices 1 2 3 4 5 6 
#
# 1 0.015905 -0.010797 -0.002940 0.000000 0.000789 0.000000
# 2 -0.010797 0.022835 0.000204 0.000000 -0.001699 0.000000
# 3 -0.002940 0.000204 0.008316 0.000000 0.001815 0.000000
# 4 0.000000 0.000000 0.000000 0.019098 0.000000 -0.000045
# 5 0.000789 -0.001699 0.001815 0.000000 0.040550 0.000000
# 6 0.000000 0.000000 0.000000 -0.000045 0.000000 0.025293
#
#
# Mechanical properties :
#
#
# Convention : Reuss Voigt Hill
#
# Bulk Modulus (GPa) = 50.01952 55.28121 52.65036
# Shear Modulus (GPa) = 30.17009 36.97536 33.57273
#
# Velocity S-wave (km/s) = 3.69808 4.09397 3.90105
# Velocity P-wave (km/s) = 6.39591 6.88519 6.64506
#
# Compressibility (1/GPa) = 0.01999219
#
# Stress axis : x y z
#
# Youngs Moduli (GPa) = 62.87188 43.79220 120.24419
#
# Poissons Ratio (x) = 0.47282 0.35348
# Poissons Ratio (y) = 0.67882 -0.02455
# Poissons Ratio (z) = 0.18482 -0.00894
#
# Static dielectric constant tensor:
#      x y z
#    x 3.186720 0.000000 -0.360840 
#    y 0.000000 1.797980 0.000000 
#    z -0.360840 0.000000 1.905120 
# 
# From -- ./inp_files/3536.got.cif
#   From: 2010.05.17/outbox.cif.g08.bks.cpg/sg15_2_cif.got.tgz:3536.got - 2010.06.03 18:47:42.
