data_PCOD9282447
_publ_section_title
;
Structure prediction by ZEFSAII (Michael W. Deem and Ramdas Pophale) SiO2 
 PCOD9282447
Probable space group: C 2/C
;
_chemical_formula_sum "Si O2"
_cell_formula_units_Z 36
_cell_length_a 13.015186
_cell_length_b 21.288966
_cell_length_c 8.371014
_cell_angle_alpha 90.000000
_cell_angle_beta 128.274572
_cell_angle_gamma 90.000000
_cell_volume 1820.878977
_symmetry_space_group_name_H-M "C 2/C"
_symmetry_group_IT_number 15
_symmetry_cell_setting 'monoclinic'
loop_
_space_group_symop_operation_xyz
x,y,z
-x,y,1/2-z
-x,-y,-z
x,-y,1/2+z
1/2+x,1/2+y,z
1/2-x,1/2+y,1/2-z
1/2-x,1/2-y,-z
1/2+x,1/2-y,1/2+z
loop_
_atom_site_type_symbol
_atom_site_label
_atom_site_fract_x
_atom_site_fract_y
_atom_site_fract_z
Si Si1 0.527619 0.297684 0.088094
Si Si2 0.849906 0.425964 0.308089
Si Si3 0.694629 0.783762 0.289553
Si Si4 0.947702 0.936040 0.378845
Si Si5 0.500000 0.974945 0.750000
O O1 0.500000 0.294598 0.250000
O O2 0.680203 0.282730 0.207763
O O3 0.506266 0.369211 0.005441
O O4 0.429477 0.252634 0.900268
O O5 0.846560 0.356523 0.229882
O O6 0.707690 0.437149 0.246923
O O7 0.949265 0.433886 0.552676
O O8 0.889684 0.478335 0.216307
O O9 0.750000 0.750000 0.500000
O O10 0.000000 0.934271 0.250000
O O11 0.000000 0.000000 0.500000
#
# Coordination Sequence:
#
# PCOD9282447 Si02
#       5
#     8   8   8   8   4
#     4  10  23  42  62  92 124 168 212 261 319 390
#     4  10  23  40  63  94 126 168 210 265 319 380
#     4  11  24  41  64  94 129 165 217 264 325 380
#     4  10  21  39  62  90 123 158 209 256 319 370
#     4  10  22  42  62  92 130 164 216 256 324 384
#
# _framework density 19.770671
#
# number of rings (size 3 to 8) (size 9 to 14) (size 15 to 20)
#    0.000    1.778    0.000    2.667    4.667    5.333 
#    4.000    0.000    0.000    0.000    0.000    0.000 
#    0.000    0.000    0.000    0.000    0.000    0.000 
#
# Total GULP energy -100483.363422 kJ/mol
# GULP energy per Si atom -5582.409079 kJ/mol
# Density = 1.972567 g / cm^3
# Si number density = 19.770671 Si / 1000 Ang^3
#
#
#
# Elastic Constant Matrix: (Units=GPa)
#
#
# Indices 1 2 3 4 5 6 
#
# 1 88.6777 18.1618 -12.3999 0.0000 6.8412 0.0000
# 2 18.1618 118.4055 47.6323 0.0000 14.8070 0.0000
# 3 -12.3999 47.6323 56.3209 0.0000 3.4804 0.0000
# 4 0.0000 0.0000 0.0000 255.6430 0.0000 73.4394
# 5 6.8412 14.8070 3.4804 0.0000 31.7482 0.0000
# 6 0.0000 0.0000 0.0000 73.4394 0.0000 51.6925
#
#
#
# Elastic Compliance Matrix: (Units=1/GPa)
#
#
# Indices 1 2 3 4 5 6 
#
# 1 0.013318 -0.004663 0.006966 0.000000 -0.001459 0.000000
# 2 -0.004663 0.015209 -0.013605 0.000000 -0.004597 0.000000
# 3 0.006966 -0.013605 0.030704 0.000000 0.001478 0.000000
# 4 0.000000 0.000000 0.000000 0.006609 0.000000 -0.009389
# 5 -0.001459 -0.004597 0.001478 0.000000 0.033794 0.000000
# 6 0.000000 0.000000 0.000000 -0.009389 0.000000 0.032685
#
#
# Mechanical properties :
#
#
# Convention : Reuss Voigt Hill
#
# Bulk Modulus (GPa) = 27.30223 41.13252 34.21737
# Shear Modulus (GPa) = 29.91670 81.81739 55.86705
#
# Velocity S-wave (km/s) = 3.89419 6.43996 5.32155
# Velocity P-wave (km/s) = 5.83601 8.72625 7.42315
#
# Compressibility (1/GPa) = 0.03662704
#
# Stress axis : x y z
#
# Youngs Moduli (GPa) = 75.08481 65.75253 32.56945
#
# Poissons Ratio (x) = 0.30657 -0.22687
# Poissons Ratio (y) = 0.35009 0.44310
# Poissons Ratio (z) = -0.52301 0.89455
#
# Static dielectric constant tensor:
#      x y z
#    x 1.685330 0.000000 -0.002560 
#    y 0.000000 1.720580 0.000000 
#    z -0.002560 0.000000 1.633710 
# 
# From -- ./inp_files/30569.got.cif
#   From: 2010.05.17/outbox.cif.g08.bks.cpg/sg15_16_cif.got.tgz:30569.got - 2010.06.03 18:47:42.
