data_PCOD9282622
_publ_section_title
;
Structure prediction by ZEFSAII (Michael W. Deem and Ramdas Pophale) SiO2 
 PCOD9282622
Probable space group: C 2/C
;
_chemical_formula_sum "Si O2"
_cell_formula_units_Z 48
_cell_length_a 24.777526
_cell_length_b 12.216760
_cell_length_c 14.500649
_cell_angle_alpha 90.000000
_cell_angle_beta 150.202438
_cell_angle_gamma 90.000000
_cell_volume 2181.236661
_symmetry_space_group_name_H-M "C 2/C"
_symmetry_group_IT_number 15
_symmetry_cell_setting 'monoclinic'
loop_
_space_group_symop_operation_xyz
x,y,z
-x,y,1/2-z
-x,-y,-z
x,-y,1/2+z
1/2+x,1/2+y,z
1/2-x,1/2+y,1/2-z
1/2-x,1/2-y,-z
1/2+x,1/2-y,1/2+z
loop_
_atom_site_type_symbol
_atom_site_label
_atom_site_fract_x
_atom_site_fract_y
_atom_site_fract_z
Si Si1 0.763513 0.049766 0.602659
Si Si2 0.419660 0.263368 0.408207
Si Si3 0.466202 0.137884 0.300265
Si Si4 0.155377 0.533879 0.119728
Si Si5 0.417941 0.220153 0.704317
Si Si6 0.257955 0.596254 0.937998
O O1 0.837058 0.141308 0.759436
O O2 0.659002 0.104696 0.398455
O O3 0.718031 0.970985 0.615699
O O4 0.817214 0.981991 0.599804
O O5 0.475640 0.223424 0.396590
O O6 0.509076 0.290773 0.617111
O O7 0.364347 0.153820 0.368634
O O8 0.500000 0.180786 0.250000
O O9 0.543487 0.034616 0.438907
O O10 0.223136 0.466417 0.295575
O O11 0.500000 0.171213 0.750000
O O12 0.331837 0.299088 0.527764
O O13 0.349270 0.138091 0.666069
#
# Coordination Sequence:
#
# PCOD9282622 Si02
#       6
#     8   8   8   8   8   8
#     4  11  24  39  65  96 126 164 210 267 319 377
#     4  12  22  41  66  93 126 162 211 262 320 374
#     4  10  21  39  63  93 121 160 213 262 307 371
#     4  11  22  41  66  90 122 167 215 263 313 375
#     4  11  24  42  67  94 126 174 216 257 311 384
#     4  11  23  43  64  94 132 164 213 265 316 375
#
# _framework density 22.005866000000001
#
# number of rings (size 3 to 8) (size 9 to 14) (size 15 to 20)
#    0.000    1.000    3.333    4.000    0.000    3.333 
#    0.000    0.833    0.000    0.000    0.000    0.000 
#    0.000    0.000    0.000    0.000    0.000    0.000 
#
# Total GULP energy -134267.406970 kJ/mol
# GULP energy per Si atom -5594.475290 kJ/mol
# Density = 2.195578 g / cm^3
# Si number density = 22.005866 Si / 1000 Ang^3
#
#
#
# Elastic Constant Matrix: (Units=GPa)
#
#
# Indices 1 2 3 4 5 6 
#
# 1 84.2604 14.2286 11.4298 0.0000 -17.6173 0.0000
# 2 14.2286 34.7643 28.3337 0.0000 5.4533 0.0000
# 3 11.4298 28.3337 97.5434 0.0000 -19.7761 0.0000
# 4 0.0000 0.0000 0.0000 42.9604 0.0000 -12.2279
# 5 -17.6173 5.4533 -19.7761 0.0000 28.7912 0.0000
# 6 0.0000 0.0000 0.0000 -12.2279 0.0000 15.1912
#
#
#
# Elastic Compliance Matrix: (Units=1/GPa)
#
#
# Indices 1 2 3 4 5 6 
#
# 1 0.017040 -0.014142 0.005540 0.000000 0.016911 0.000000
# 2 -0.014142 0.058304 -0.022390 0.000000 -0.035076 0.000000
# 3 0.005540 -0.022390 0.020510 0.000000 0.021718 0.000000
# 4 0.000000 0.000000 0.000000 0.030195 0.000000 0.024305
# 5 0.016911 -0.035076 0.021718 0.000000 0.066642 0.000000
# 6 0.000000 0.000000 0.000000 0.024305 0.000000 0.085392
#
#
# Mechanical properties :
#
#
# Convention : Reuss Voigt Hill
#
# Bulk Modulus (GPa) = 29.52540 36.06135 32.79338
# Shear Modulus (GPa) = 14.23055 28.22694 21.22874
#
# Velocity S-wave (km/s) = 2.54573 3.58537 3.10931
# Velocity P-wave (km/s) = 4.69970 5.79332 5.27493
#
# Compressibility (1/GPa) = 0.03386914
#
# Stress axis : x y z
#
# Youngs Moduli (GPa) = 58.68434 17.15154 48.75775
#
# Poissons Ratio (x) = 0.24256 -0.27010
# Poissons Ratio (y) = 0.82991 1.09168
# Poissons Ratio (z) = -0.32509 0.38402
#
# Static dielectric constant tensor:
#      x y z
#    x 1.819630 0.000000 0.011220 
#    y 0.000000 1.799170 0.000000 
#    z 0.011220 0.000000 1.802600 
# 
# From -- ./inp_files/152461.got.cif
#   From: 2010.05.17/outbox.cif.g08.bks.cpg/sg15_77_cif.got.tgz:152461.got - 2010.06.03 18:47:42.
