data_PCOD9282924
_publ_section_title
;
Structure prediction by ZEFSAII (Michael W. Deem and Ramdas Pophale) SiO2 
 PCOD9282924
Probable space group: C 2/C
;
_chemical_formula_sum "Si O2"
_cell_formula_units_Z 32
_cell_length_a 15.870555
_cell_length_b 7.489878
_cell_length_c 13.044257
_cell_angle_alpha 90.000000
_cell_angle_beta 57.827530
_cell_angle_gamma 90.000000
_cell_volume 1312.462965
_symmetry_space_group_name_H-M "C 2/C"
_symmetry_group_IT_number 15
_symmetry_cell_setting 'monoclinic'
loop_
_space_group_symop_operation_xyz
x,y,z
-x,y,1/2-z
-x,-y,-z
x,-y,1/2+z
1/2+x,1/2+y,z
1/2-x,1/2+y,1/2-z
1/2-x,1/2-y,-z
1/2+x,1/2-y,1/2+z
loop_
_atom_site_type_symbol
_atom_site_label
_atom_site_fract_x
_atom_site_fract_y
_atom_site_fract_z
Si Si1 0.299593 0.004199 0.661840
Si Si2 0.727021 0.640391 0.411061
Si Si3 0.062825 0.979600 0.300867
Si Si4 0.915285 0.191804 0.498122
O O1 0.306869 0.935630 0.775208
O O2 0.360116 0.877647 0.546589
O O3 0.327175 0.208224 0.622709
O O4 0.180836 0.998995 0.712742
O O5 0.750000 0.750000 0.500000
O O6 0.663047 0.465813 0.477594
O O7 0.049380 0.859959 0.410630
O O8 0.000000 0.894607 0.250000
O O9 0.004363 0.163447 0.362292
#
# Coordination Sequence:
#
# PCOD9282924 Si02
#       4
#     8   8   8   8
#     4  11  22  44  66  97 134 170 226 268 325 403
#     4  11  22  39  66  94 128 175 217 266 328 383
#     4  10  21  39  65  96 130 170 218 275 331 383
#     4  10  23  42  64  95 133 171 218 276 323 395
#
# _framework density 24.381640000000001
#
# number of rings (size 3 to 8) (size 9 to 14) (size 15 to 20)
#    0.000    1.500    5.000    1.500    0.000    4.000 
#    0.000   13.750    0.000   15.000    0.000    0.000 
#    0.000    0.000    0.000    0.000    0.000    0.000 
#
# Total GULP energy -89298.839029 kJ/mol
# GULP energy per Si atom -5581.177439 kJ/mol
# Density = 2.432615 g / cm^3
# Si number density = 24.381640 Si / 1000 Ang^3
#
#
#
# Elastic Constant Matrix: (Units=GPa)
#
#
# Indices 1 2 3 4 5 6 
#
# 1 67.8270 -21.9298 19.5103 0.0000 23.7188 0.0000
# 2 -21.9298 75.3603 -2.6340 0.0000 2.9671 0.0000
# 3 19.5103 -2.6340 68.0609 0.0000 7.7951 0.0000
# 4 0.0000 0.0000 0.0000 31.2992 0.0000 -10.7303
# 5 23.7188 2.9671 7.7951 0.0000 60.6130 0.0000
# 6 0.0000 0.0000 0.0000 -10.7303 0.0000 14.3718
#
#
#
# Elastic Compliance Matrix: (Units=1/GPa)
#
#
# Indices 1 2 3 4 5 6 
#
# 1 0.020898 0.006221 -0.004850 0.000000 -0.007859 0.000000
# 2 0.006221 0.015171 -0.000845 0.000000 -0.003068 0.000000
# 3 -0.004850 -0.000845 0.016065 0.000000 -0.000127 0.000000
# 4 0.000000 0.000000 0.000000 0.042941 0.000000 0.032061
# 5 -0.007859 -0.003068 -0.000127 0.000000 0.019740 0.000000
# 6 0.000000 0.000000 0.000000 0.032061 0.000000 0.093518
#
#
# Mechanical properties :
#
#
# Convention : Reuss Voigt Hill
#
# Bulk Modulus (GPa) = 18.80151 22.34902 20.57527
# Shear Modulus (GPa) = 22.22141 35.67690 28.94916
#
# Velocity S-wave (km/s) = 3.02221 3.82942 3.44951
# Velocity P-wave (km/s) = 4.46166 5.36086 4.93180
#
# Compressibility (1/GPa) = 0.05318722
#
# Stress axis : x y z
#
# Youngs Moduli (GPa) = 47.85159 65.91420 62.24791
#
# Poissons Ratio (x) = -0.41007 0.30189
# Poissons Ratio (y) = -0.29769 0.05259
# Poissons Ratio (z) = 0.23207 0.05568
#
# Static dielectric constant tensor:
#      x y z
#    x 2.016280 0.000000 -0.005350 
#    y 0.000000 1.973020 0.000000 
#    z -0.005350 0.000000 2.052490 
# 
# From -- ./inp_files/150080.got.cif
#   From: 2010.05.17/outbox.cif.g08.bks.cpg/sg15_76_cif.got.tgz:150080.got - 2010.06.03 18:47:42.
