data_PCOD9282226
_publ_section_title
;
Structure prediction by ZEFSAII (Michael W. Deem and Ramdas Pophale) SiO2 
 PCOD9282226
Probable space group: C 2/C
;
_chemical_formula_sum "Si O2"
_cell_formula_units_Z 64
_cell_length_a 8.225051
_cell_length_b 12.630061
_cell_length_c 27.032292
_cell_angle_alpha 90.000000
_cell_angle_beta 94.874901
_cell_angle_gamma 90.000000
_cell_volume 2798.034470
_symmetry_space_group_name_H-M "C 2/C"
_symmetry_group_IT_number 15
_symmetry_cell_setting 'monoclinic'
loop_
_space_group_symop_operation_xyz
x,y,z
-x,y,1/2-z
-x,-y,-z
x,-y,1/2+z
1/2+x,1/2+y,z
1/2-x,1/2+y,1/2-z
1/2-x,1/2-y,-z
1/2+x,1/2-y,1/2+z
loop_
_atom_site_type_symbol
_atom_site_label
_atom_site_fract_x
_atom_site_fract_y
_atom_site_fract_z
Si Si1 0.698626 0.907585 0.081412
Si Si2 0.137426 0.889410 0.663213
Si Si3 0.493519 0.040039 0.135627
Si Si4 0.374243 0.847545 0.291734
Si Si5 0.361543 0.728089 0.880497
Si Si6 0.446689 0.421111 0.180571
Si Si7 0.527306 0.382003 0.480490
Si Si8 0.475927 0.716835 0.080611
O O1 0.828615 0.933149 0.128315
O O2 0.783658 0.894220 0.030894
O O3 0.629254 0.792702 0.090202
O O4 0.544500 0.986059 0.084294
O O5 0.313078 0.930435 0.649623
O O6 0.135067 0.772271 0.686588
O O7 0.030185 0.887575 0.610364
O O8 0.039354 0.970998 0.694408
O O9 0.583199 0.153222 0.132533
O O10 0.553271 0.946974 0.174405
O O11 0.500000 0.841363 0.250000
O O12 0.182346 0.879186 0.282447
O O13 0.413700 0.659097 0.834706
O O14 0.448162 0.670602 0.929504
O O15 0.175743 0.735290 0.893816
O O16 0.500000 0.500000 0.500000
O O17 0.462059 0.307781 0.522853
#
# Coordination Sequence:
#
# PCOD9282226 Si02
#       8
#     8   8   8   8   8   8   8   8
#     4  10  21  39  59  94 133 179 233 278 336 400
#     4  12  23  43  74 100 137 183 227 276 348 418
#     4  11  22  45  72  97 138 182 228 277 357 418
#     4  11  25  48  72 104 141 167 224 288 348 429
#     4  11  22  41  69  98 140 188 237 284 345 416
#     4  10  21  42  66  97 136 176 220 277 339 416
#     4  11  23  40  58  99 143 185 247 297 336 397
#     4  12  21  38  66  97 137 188 230 288 340 392
#
# _framework density 22.873199
#
# number of rings (size 3 to 8) (size 9 to 14) (size 15 to 20)
#    0.000    1.000    3.750    6.000    0.000    1.000 
#    0.000    1.875    0.000    0.000    0.000    0.000 
#    0.000    0.000    0.000    0.000    0.000    0.000 
#
# Total GULP energy -178209.874032 kJ/mol
# GULP energy per Si atom -5569.058564 kJ/mol
# Density = 2.282114 g / cm^3
# Si number density = 22.873199 Si / 1000 Ang^3
#
#
#
# Elastic Constant Matrix: (Units=GPa)
#
#
# Indices 1 2 3 4 5 6 
#
# 1 153.5777 47.8836 63.3436 0.0000 -66.2892 0.0000
# 2 47.8836 106.6222 30.0235 0.0000 -17.5757 0.0000
# 3 63.3436 30.0235 76.3717 0.0000 -38.4089 0.0000
# 4 0.0000 0.0000 0.0000 17.2484 0.0000 -21.4322
# 5 -66.2892 -17.5757 -38.4089 0.0000 45.7529 0.0000
# 6 0.0000 0.0000 0.0000 -21.4322 0.0000 48.2494
#
#
#
# Elastic Compliance Matrix: (Units=1/GPa)
#
#
# Indices 1 2 3 4 5 6 
#
# 1 0.019206 -0.004012 -0.001961 0.000000 0.024640 0.000000
# 2 -0.004012 0.011410 -0.003249 0.000000 -0.004156 0.000000
# 3 -0.001961 -0.003249 0.024127 0.000000 0.016165 0.000000
# 4 0.000000 0.000000 0.000000 0.129395 0.000000 0.057477
# 5 0.024640 -0.004156 0.016165 0.000000 0.069530 0.000000
# 6 0.000000 0.000000 0.000000 0.057477 0.000000 0.046257
#
#
# Mechanical properties :
#
#
# Convention : Reuss Voigt Hill
#
# Bulk Modulus (GPa) = 27.54710 68.78589 48.16649
# Shear Modulus (GPa) = 15.13005 35.27152 25.20079
#
# Velocity S-wave (km/s) = 2.57471 3.93115 3.32288
# Velocity P-wave (km/s) = 4.57257 7.12343 5.98547
#
# Compressibility (1/GPa) = 0.03630146
#
# Stress axis : x y z
#
# Youngs Moduli (GPa) = 52.06626 87.64126 41.44669
#
# Poissons Ratio (x) = 0.35158 0.08128
# Poissons Ratio (y) = 0.20887 0.13464
# Poissons Ratio (z) = 0.10210 0.28471
#
# Static dielectric constant tensor:
#      x y z
#    x 1.908580 0.000000 0.004770 
#    y 0.000000 1.915030 0.000000 
#    z 0.004770 0.000000 2.040920 
# 
# From -- ./inp_files/307497.got.cif
#   From: 2010.05.17/outbox.cif.g08.bks.cpg/sg15_154_cif.got.tgz:307497.got - 2010.06.03 18:47:42.
