data_PCOD9282039
_publ_section_title
;
Structure prediction by ZEFSAII (Michael W. Deem and Ramdas Pophale) SiO2 
 PCOD9282039
Probable space group: C 2/C
;
_chemical_formula_sum "Si O2"
_cell_formula_units_Z 36
_cell_length_a 13.217771
_cell_length_b 22.018156
_cell_length_c 8.552575
_cell_angle_alpha 90.000000
_cell_angle_beta 132.933864
_cell_angle_gamma 90.000000
_cell_volume 1822.344390
_symmetry_space_group_name_H-M "C 2/C"
_symmetry_group_IT_number 15
_symmetry_cell_setting 'monoclinic'
loop_
_space_group_symop_operation_xyz
x,y,z
-x,y,1/2-z
-x,-y,-z
x,-y,1/2+z
1/2+x,1/2+y,z
1/2-x,1/2+y,1/2-z
1/2-x,1/2-y,-z
1/2+x,1/2-y,1/2+z
loop_
_atom_site_type_symbol
_atom_site_label
_atom_site_fract_x
_atom_site_fract_y
_atom_site_fract_z
Si Si1 0.481668 0.068232 0.917491
Si Si2 0.382298 0.304685 0.255728
Si Si3 0.500000 0.508015 0.750000
Si Si4 0.840509 0.078926 0.848242
Si Si5 0.128050 0.330900 0.767597
O O1 0.500000 0.069659 0.750000
O O2 0.323994 0.084371 0.800061
O O3 0.593289 0.114313 0.113421
O O4 0.500000 0.000000 0.000000
O O5 0.500000 0.300877 0.250000
O O6 0.405214 0.353687 0.414289
O O7 0.359267 0.236529 0.293744
O O8 0.257239 0.331942 0.020522
O O9 0.398106 0.548428 0.749175
O O10 0.403436 0.464970 0.544664
O O11 0.000000 0.331083 0.750000
#
# Coordination Sequence:
#
# PCOD9282039 Si02
#       5
#     8   8   4   8   8
#     4  12  26  41  65  95 131 172 215 268 326 387
#     4  10  21  38  68  92 124 169 214 260 317 383
#     4  10  24  38  64  92 132 158 218 258 332 376
#     4  11  22  42  61  94 123 171 207 269 315 387
#     4  10  21  41  65  93 126 167 218 260 314 387
#
# _framework density 19.754774000000001
#
# number of rings (size 3 to 8) (size 9 to 14) (size 15 to 20)
#    0.000    1.333    3.333    2.000    3.111    1.778 
#    2.000    1.111    0.000    0.000    0.000    0.000 
#    0.000    0.000    0.000    0.000    0.000    0.000 
#
# Total GULP energy -100356.928122 kJ/mol
# GULP energy per Si atom -5575.384896 kJ/mol
# Density = 1.970981 g / cm^3
# Si number density = 19.754774 Si / 1000 Ang^3
#
#
#
# Elastic Constant Matrix: (Units=GPa)
#
#
# Indices 1 2 3 4 5 6 
#
# 1 84.9161 21.1183 31.5886 0.0000 -3.6558 0.0000
# 2 21.1183 168.2865 50.3904 0.0000 -23.1081 0.0000
# 3 31.5886 50.3904 68.2752 0.0000 -0.2044 0.0000
# 4 0.0000 0.0000 0.0000 36.4111 0.0000 6.4516
# 5 -3.6558 -23.1081 -0.2044 0.0000 32.6120 0.0000
# 6 0.0000 0.0000 0.0000 6.4516 0.0000 18.6564
#
#
#
# Elastic Compliance Matrix: (Units=1/GPa)
#
#
# Indices 1 2 3 4 5 6 
#
# 1 0.014343 0.000587 -0.007063 0.000000 0.001979 0.000000
# 2 0.000587 0.008725 -0.006692 0.000000 0.006206 0.000000
# 3 -0.007063 -0.006692 0.022838 0.000000 -0.005391 0.000000
# 4 0.000000 0.000000 0.000000 0.029257 0.000000 -0.010117
# 5 0.001979 0.006206 -0.005391 0.000000 0.035249 0.000000
# 6 0.000000 0.000000 0.000000 -0.010117 0.000000 0.057100
#
#
# Mechanical properties :
#
#
# Convention : Reuss Voigt Hill
#
# Bulk Modulus (GPa) = 51.10343 58.63027 54.86685
# Shear Modulus (GPa) = 24.95378 32.09459 28.52418
#
# Velocity S-wave (km/s) = 3.55798 4.03507 3.80401
# Velocity P-wave (km/s) = 6.54248 7.17304 6.86500
#
# Compressibility (1/GPa) = 0.01956816
#
# Stress axis : x y z
#
# Youngs Moduli (GPa) = 69.71975 114.61850 43.78758
#
# Poissons Ratio (x) = -0.06726 0.30928
# Poissons Ratio (y) = -0.04092 0.29303
# Poissons Ratio (z) = 0.49245 0.76704
#
# Static dielectric constant tensor:
#      x y z
#    x 1.732240 0.000000 0.044410 
#    y 0.000000 1.762760 0.000000 
#    z 0.044410 0.000000 1.754960 
# 
# From -- ./inp_files/41315.got.cif
#   From: 2010.05.17/outbox.cif.g08.bks.cpg/sg15_21_cif.got.tgz:41315.got - 2010.06.03 18:47:42.
