data_PCOD9282690
_publ_section_title
;
Structure prediction by ZEFSAII (Michael W. Deem and Ramdas Pophale) SiO2 
 PCOD9282690
Probable space group: C 2/C
;
_chemical_formula_sum "Si O2"
_cell_formula_units_Z 56
_cell_length_a 13.365469
_cell_length_b 14.453660
_cell_length_c 17.019923
_cell_angle_alpha 90.000000
_cell_angle_beta 39.966662
_cell_angle_gamma 90.000000
_cell_volume 2111.960511
_symmetry_space_group_name_H-M "C 2/C"
_symmetry_group_IT_number 15
_symmetry_cell_setting 'monoclinic'
loop_
_space_group_symop_operation_xyz
x,y,z
-x,y,1/2-z
-x,-y,-z
x,-y,1/2+z
1/2+x,1/2+y,z
1/2-x,1/2+y,1/2-z
1/2-x,1/2-y,-z
1/2+x,1/2-y,1/2+z
loop_
_atom_site_type_symbol
_atom_site_label
_atom_site_fract_x
_atom_site_fract_y
_atom_site_fract_z
Si Si1 0.852894 0.331779 0.985990
Si Si2 0.571975 0.613151 0.027944
Si Si3 0.652720 0.705866 0.765170
Si Si4 0.135881 0.683826 0.722967
Si Si5 0.588958 0.982999 0.831627
Si Si6 0.894798 0.998434 0.239205
Si Si7 0.306341 0.403984 0.572607
O O1 0.999616 0.267682 0.871670
O O2 0.933147 0.432095 0.952650
O O3 0.743260 0.302738 0.126277
O O4 0.752100 0.146399 0.026924
O O5 0.482070 0.592416 0.161246
O O6 0.441307 0.640244 0.043977
O O7 0.721784 0.673232 0.924375
O O8 0.636285 0.508820 0.975369
O O9 0.781400 0.731534 0.752877
O O10 0.600729 0.599031 0.811523
O O11 0.077570 0.585490 0.798767
O O12 0.000000 0.720520 0.750000
O O13 0.660301 0.920744 0.718081
O O14 0.715176 0.979367 0.826128
O O15 0.000000 0.970798 0.250000
#
# Coordination Sequence:
#
# PCOD9282690 Si02
#       7
#     8   8   8   8   8   8   8
#     4  12  25  44  65  97 142 186 224 284 345 408
#     4   9  18  36  65  97 129 168 223 271 330 409
#     4  11  28  44  64  98 140 183 231 275 341 423
#     4  10  21  42  70  99 129 172 226 290 342 402
#     4   9  20  38  65  98 129 169 229 276 337 413
#     4  10  21  39  64 101 138 175 219 284 346 405
#     4   9  17  35  62  91 127 170 214 266 331 394
#
# _framework density 26.515647000000001
#
# number of rings (size 3 to 8) (size 9 to 14) (size 15 to 20)
#    0.000    2.000    0.000    5.571    0.000    9.143 
#    0.000    9.286    0.000    0.000    0.000    0.000 
#    0.000    0.000    0.000    0.000    0.000    0.000 
#
# Total GULP energy -156272.441165 kJ/mol
# GULP energy per Si atom -5581.158613 kJ/mol
# Density = 2.645530 g / cm^3
# Si number density = 26.515647 Si / 1000 Ang^3
#
#
#
# Elastic Constant Matrix: (Units=GPa)
#
#
# Indices 1 2 3 4 5 6 
#
# 1 208.1091 47.8002 62.2001 -0.0001 -8.9818 0.0000
# 2 47.8002 79.5858 63.7636 0.0000 -3.3891 0.0000
# 3 62.2001 63.7636 145.2833 -0.0001 12.3996 0.0001
# 4 -0.0001 0.0000 -0.0001 58.6197 0.0001 -9.8577
# 5 -8.9818 -3.3891 12.3996 0.0001 25.9383 0.0000
# 6 0.0000 0.0000 0.0001 -9.8577 0.0000 53.5911
#
#
#
# Elastic Compliance Matrix: (Units=1/GPa)
#
#
# Indices 1 2 3 4 5 6 
#
# 1 0.005940 -0.001891 -0.001947 0.000000 0.002740 0.000000
# 2 -0.001891 0.021235 -0.009061 0.000000 0.006451 0.000000
# 3 -0.001947 -0.009061 0.012356 0.000000 -0.007765 0.000000
# 4 0.000000 0.000000 0.000000 0.017604 0.000000 0.003238
# 5 0.002740 0.006451 -0.007765 0.000000 0.044057 0.000000
# 6 0.000000 0.000000 0.000000 0.003238 0.000000 0.019255
#
#
# Mechanical properties :
#
#
# Convention : Reuss Voigt Hill
#
# Bulk Modulus (GPa) = 72.81567 86.72292 79.76929
# Shear Modulus (GPa) = 33.15164 44.91076 39.03120
#
# Velocity S-wave (km/s) = 3.53975 4.11998 3.84084
# Velocity P-wave (km/s) = 6.65037 7.44376 7.05822
#
# Compressibility (1/GPa) = 0.01373331
#
# Stress axis : x y z
#
# Youngs Moduli (GPa) = 168.35968 47.09203 80.93140
#
# Poissons Ratio (x) = 0.08904 0.15757
# Poissons Ratio (y) = 0.31834 0.73332
# Poissons Ratio (z) = 0.32779 0.42670
#
# Static dielectric constant tensor:
#      x y z
#    x 2.000280 0.000000 0.009260 
#    y 0.000000 2.204660 0.000000 
#    z 0.009260 0.000000 2.310720 
# 
# From -- ./inp_files/206265.got.cif
#   From: 2010.05.17/outbox.cif.g08.bks.cpg/sg15_104_cif.got.tgz:206265.got - 2010.06.03 18:47:42.
