data_PCOD9282032
_publ_section_title
;
Structure prediction by ZEFSAII (Michael W. Deem and Ramdas Pophale) SiO2 
 PCOD9282032
Probable space group: C 2/C
;
_chemical_formula_sum "Si O2"
_cell_formula_units_Z 48
_cell_length_a 7.582311
_cell_length_b 17.316630
_cell_length_c 20.441568
_cell_angle_alpha 90.000000
_cell_angle_beta 56.973597
_cell_angle_gamma 90.000000
_cell_volume 2250.300658
_symmetry_space_group_name_H-M "C 2/C"
_symmetry_group_IT_number 15
_symmetry_cell_setting 'monoclinic'
loop_
_space_group_symop_operation_xyz
x,y,z
-x,y,1/2-z
-x,-y,-z
x,-y,1/2+z
1/2+x,1/2+y,z
1/2-x,1/2+y,1/2-z
1/2-x,1/2-y,-z
1/2+x,1/2-y,1/2+z
loop_
_atom_site_type_symbol
_atom_site_label
_atom_site_fract_x
_atom_site_fract_y
_atom_site_fract_z
Si Si1 0.072708 0.088812 0.986159
Si Si2 0.595471 0.262466 0.298845
Si Si3 0.608281 0.433871 0.336104
Si Si4 0.227322 0.931061 0.595482
Si Si5 0.500000 0.962003 0.750000
Si Si6 0.894386 0.628394 0.405417
Si Si7 0.500000 0.674859 0.250000
O O1 0.851738 0.133076 0.030823
O O2 0.198748 0.101106 0.027514
O O3 0.180704 0.094358 0.894220
O O4 0.000000 0.000000 0.000000
O O5 0.500000 0.237241 0.250000
O O6 0.575507 0.353690 0.307196
O O7 0.483483 0.214675 0.379475
O O8 0.829805 0.230558 0.252798
O O9 0.396593 0.486654 0.378995
O O10 0.798035 0.486525 0.271610
O O11 0.468445 0.922088 0.570786
O O12 0.102514 0.878870 0.673659
O O13 0.569234 0.913653 0.672185
#
# Coordination Sequence:
#
# PCOD9282032 Si02
#       7
#     8   8   8   8   4   8   4
#     4  10  21  42  59  91 127 157 199 260 296 355
#     4  11  23  38  59  91 125 157 196 258 308 352
#     4  11  24  39  60  93 128 152 200 260 306 348
#     4  10  21  38  68  88 114 163 211 242 292 370
#     4  12  21  40  63  90 116 164 202 250 297 366
#     4  11  22  40  67  86 117 165 208 239 308 364
#     4  10  21  42  61  90 120 162 208 246 297 368
#
# _framework density 21.330482
#
# number of rings (size 3 to 8) (size 9 to 14) (size 15 to 20)
#    0.000    1.333    4.167    3.500    3.500    3.333 
#    0.000    3.333    0.000    0.000    0.000    0.000 
#    0.000    0.000    0.000    0.000    0.000    0.000 
#
# Total GULP energy -133978.519501 kJ/mol
# GULP energy per Si atom -5582.438313 kJ/mol
# Density = 2.128193 g / cm^3
# Si number density = 21.330482 Si / 1000 Ang^3
#
#
#
# Elastic Constant Matrix: (Units=GPa)
#
#
# Indices 1 2 3 4 5 6 
#
# 1 99.3521 28.0384 -2.9983 0.0000 26.4544 0.0000
# 2 28.0384 89.1022 3.1472 0.0000 3.7749 0.0000
# 3 -2.9983 3.1472 44.1069 0.0000 17.3812 0.0000
# 4 0.0000 0.0000 0.0000 7.8656 0.0000 11.8524
# 5 26.4544 3.7749 17.3812 0.0000 35.4652 0.0000
# 6 0.0000 0.0000 0.0000 11.8524 0.0000 24.9450
#
#
#
# Elastic Compliance Matrix: (Units=1/GPa)
#
#
# Indices 1 2 3 4 5 6 
#
# 1 0.015397 -0.004482 0.007070 0.000000 -0.014473 0.000000
# 2 -0.004482 0.012584 -0.002469 0.000000 0.003214 0.000000
# 3 0.007070 -0.002469 0.031360 0.000000 -0.020380 0.000000
# 4 0.000000 0.000000 0.000000 0.447619 0.000000 -0.212683
# 5 -0.014473 0.003214 -0.020380 0.000000 0.048638 0.000000
# 6 0.000000 0.000000 0.000000 -0.212683 0.000000 0.141143
#
#
# Mechanical properties :
#
#
# Convention : Reuss Voigt Hill
#
# Bulk Modulus (GPa) = 16.78422 32.10399 24.44410
# Shear Modulus (GPa) = 6.97970 27.28008 17.12989
#
# Velocity S-wave (km/s) = 1.81088 3.58009 2.83692
# Velocity P-wave (km/s) = 3.50116 5.67211 4.71333
#
# Compressibility (1/GPa) = 0.05957979
#
# Stress axis : x y z
#
# Youngs Moduli (GPa) = 64.94768 79.46346 31.88764
#
# Poissons Ratio (x) = 0.35613 -0.22544
# Poissons Ratio (y) = 0.29107 0.07873
# Poissons Ratio (z) = -0.45916 0.19619
#
# Static dielectric constant tensor:
#      x y z
#    x 1.793710 0.000000 -0.034200 
#    y 0.000000 1.769730 0.000000 
#    z -0.034200 0.000000 1.598240 
# 
# From -- ./inp_files/232037.got.cif
#   From: 2010.05.17/outbox.cif.g08.bks.cpg/sg15_117_cif.got.tgz:232037.got - 2010.06.03 18:47:42.
