data_PCOD9282781
_publ_section_title
;
Structure prediction by ZEFSAII (Michael W. Deem and Ramdas Pophale) SiO2 
 PCOD9282781
Probable space group: C 2/C
;
_chemical_formula_sum "Si O2"
_cell_formula_units_Z 64
_cell_length_a 5.405554
_cell_length_b 21.597159
_cell_length_c 29.249110
_cell_angle_alpha 90.000000
_cell_angle_beta 73.321623
_cell_angle_gamma 90.000000
_cell_volume 3271.023487
_symmetry_space_group_name_H-M "C 2/C"
_symmetry_group_IT_number 15
_symmetry_cell_setting 'monoclinic'
loop_
_space_group_symop_operation_xyz
x,y,z
-x,y,1/2-z
-x,-y,-z
x,-y,1/2+z
1/2+x,1/2+y,z
1/2-x,1/2+y,1/2-z
1/2-x,1/2-y,-z
1/2+x,1/2-y,1/2+z
loop_
_atom_site_type_symbol
_atom_site_label
_atom_site_fract_x
_atom_site_fract_y
_atom_site_fract_z
Si Si1 0.605390 0.482508 0.444610
Si Si2 0.908983 0.936566 0.307216
Si Si3 0.912489 0.484973 0.805868
Si Si4 0.738671 0.607850 0.384461
Si Si5 0.001407 0.780652 0.462088
Si Si6 0.141744 0.618995 0.522943
Si Si7 0.354898 0.369749 0.401548
Si Si8 0.320769 0.154061 0.074953
O O1 0.500000 0.500000 0.500000
O O2 0.673907 0.544713 0.415444
O O3 0.848791 0.441672 0.446477
O O4 0.439741 0.433794 0.423031
O O5 0.858442 0.883056 0.347580
O O6 0.000000 0.919941 0.250000
O O7 0.642844 0.975621 0.317242
O O8 0.144436 0.976773 0.316140
O O9 0.867407 0.420027 0.832655
O O10 0.000000 0.474499 0.750000
O O11 0.461722 0.638983 0.391410
O O12 0.946231 0.647633 0.401638
O O13 0.100222 0.839736 0.485890
O O14 0.182147 0.721265 0.448008
O O15 0.750000 0.750000 0.500000
O O16 0.023273 0.812245 0.410361
O O17 0.109622 0.607989 0.471077
O O18 0.906493 0.653022 0.559443
#
# Coordination Sequence:
#
# PCOD9282781 Si02
#       8
#     8   8   8   8   8   8   8   8
#     4  11  22  34  53  88 128 156 191 236 313 373
#     4  10  21  39  64  95 124 155 199 256 320 374
#     4  10  21  40  64  92 126 159 199 250 308 387
#     4  12  24  38  61  90 126 161 198 250 309 370
#     4  11  24  42  58  84 121 169 225 250 293 358
#     4  11  23  37  60  83 121 169 203 257 298 362
#     4  11  23  37  62  87 122 164 204 262 304 367
#     4  12  25  39  58  86 123 169 211 248 291 357
#
# _framework density 19.565740999999999
#
# number of rings (size 3 to 8) (size 9 to 14) (size 15 to 20)
#    0.000    1.000    3.750    3.375    5.250    1.000 
#    0.000    0.000    0.000    0.750    3.250    0.000 
#    0.000    0.000    0.000    0.000    0.000    0.000 
#
# Total GULP energy -178259.444637 kJ/mol
# GULP energy per Si atom -5570.607645 kJ/mol
# Density = 1.952121 g / cm^3
# Si number density = 19.565741 Si / 1000 Ang^3
#
#
#
# Elastic Constant Matrix: (Units=GPa)
#
#
# Indices 1 2 3 4 5 6 
#
# 1 82.5392 4.3988 23.4573 0.0000 -1.6781 0.0000
# 2 4.3988 44.7053 8.6827 0.0000 0.2357 0.0000
# 3 23.4573 8.6827 88.2561 0.0000 2.4559 0.0000
# 4 0.0000 0.0000 0.0000 21.4958 0.0000 -1.7725
# 5 -1.6781 0.2357 2.4559 0.0000 14.5865 0.0000
# 6 0.0000 0.0000 0.0000 -1.7725 0.0000 20.2318
#
#
#
# Elastic Compliance Matrix: (Units=1/GPa)
#
#
# Indices 1 2 3 4 5 6 
#
# 1 0.013187 -0.000629 -0.003502 0.000000 0.002117 0.000000
# 2 -0.000629 0.022834 -0.002077 0.000000 -0.000092 0.000000
# 3 -0.003502 -0.002077 0.012535 0.000000 -0.002480 0.000000
# 4 0.000000 0.000000 0.000000 0.046859 0.000000 0.004105
# 5 0.002117 -0.000092 -0.002480 0.000000 0.069219 0.000000
# 6 0.000000 0.000000 0.000000 0.004105 0.000000 0.049787
#
#
# Mechanical properties :
#
#
# Convention : Reuss Voigt Hill
#
# Bulk Modulus (GPa) = 27.66904 32.06426 29.86665
# Shear Modulus (GPa) = 20.93068 23.19361 22.06215
#
# Velocity S-wave (km/s) = 3.27427 3.44673 3.36160
# Velocity P-wave (km/s) = 5.33542 5.68009 5.51045
#
# Compressibility (1/GPa) = 0.03614148
#
# Stress axis : x y z
#
# Youngs Moduli (GPa) = 75.83076 43.79360 79.77788
#
# Poissons Ratio (x) = 0.02753 0.27939
# Poissons Ratio (y) = 0.04766 0.16569
# Poissons Ratio (z) = 0.26556 0.09095
#
# Static dielectric constant tensor:
#      x y z
#    x 2.345480 0.000000 -0.101250 
#    y 0.000000 2.021700 0.000000 
#    z -0.101250 0.000000 1.823410 
# 
# From -- ./inp_files/305990.got.cif
#   From: 2010.05.17/outbox.cif.g08.bks.cpg/sg15_153_cif.got.tgz:305990.got - 2010.06.03 18:47:42.
