data_PCOD9282921
_publ_section_title
;
Structure prediction by ZEFSAII (Michael W. Deem and Ramdas Pophale) SiO2 
 PCOD9282921
Probable space group: C 2/C
;
_chemical_formula_sum "Si O2"
_cell_formula_units_Z 40
_cell_length_a 13.436401
_cell_length_b 31.088800
_cell_length_c 5.109993
_cell_angle_alpha 90.000000
_cell_angle_beta 103.175277
_cell_angle_gamma 90.000000
_cell_volume 2078.367229
_symmetry_space_group_name_H-M "C 2/C"
_symmetry_group_IT_number 15
_symmetry_cell_setting 'monoclinic'
loop_
_space_group_symop_operation_xyz
x,y,z
-x,y,1/2-z
-x,-y,-z
x,-y,1/2+z
1/2+x,1/2+y,z
1/2-x,1/2+y,1/2-z
1/2-x,1/2-y,-z
1/2+x,1/2-y,1/2+z
loop_
_atom_site_type_symbol
_atom_site_label
_atom_site_fract_x
_atom_site_fract_y
_atom_site_fract_z
Si Si1 0.284276 0.117167 0.720077
Si Si2 0.431693 0.659079 0.949728
Si Si3 0.879489 0.527567 0.667697
Si Si4 0.110298 0.344843 0.716928
Si Si5 0.323697 0.250478 0.293261
O O1 0.169076 0.130097 0.578773
O O2 0.309854 0.066944 0.717551
O O3 0.358223 0.137594 0.545673
O O4 0.310728 0.137971 0.016919
O O5 0.500000 0.643227 0.750000
O O6 0.391591 0.706944 0.854215
O O7 0.500000 0.660750 0.250000
O O8 0.862371 0.511171 0.362924
O O9 0.000000 0.539879 0.750000
O O10 0.113131 0.293411 0.690160
O O11 0.000000 0.359590 0.750000
O O12 0.250000 0.250000 0.500000
O O13 0.250000 0.250000 0.000000
#
# Coordination Sequence:
#
# PCOD9282921 Si02
#       5
#     8   8   8   8   8
#     4  12  24  42  64  93 129 161 212 262 309 380
#     4  12  25  42  64  87 123 174 220 260 305 357
#     4  10  21  39  65  96 127 158 193 245 324 399
#     4  12  23  38  62  92 126 165 205 259 319 372
#     4  12  22  41  60  85 126 168 211 264 310 358
#
# _framework density 19.245877
#
# number of rings (size 3 to 8) (size 9 to 14) (size 15 to 20)
#    0.000    0.400    4.000    6.000    0.000    3.200 
#    0.000    0.000    0.000    3.600    0.000    0.000 
#    0.000    0.000    0.000    0.000    0.000    0.000 
#
# Total GULP energy -111893.045305 kJ/mol
# GULP energy per Si atom -5594.652265 kJ/mol
# Density = 1.920207 g / cm^3
# Si number density = 19.245877 Si / 1000 Ang^3
#
#
#
# Elastic Constant Matrix: (Units=GPa)
#
#
# Indices 1 2 3 4 5 6 
#
# 1 77.0659 24.9027 1.8165 0.0000 -0.5708 0.0000
# 2 24.9027 86.9692 3.7287 0.0000 11.0155 0.0000
# 3 1.8165 3.7287 93.7011 0.0000 -0.5256 0.0000
# 4 0.0000 0.0000 0.0000 13.8122 0.0000 -8.1265
# 5 -0.5708 11.0155 -0.5256 0.0000 39.4143 0.0000
# 6 0.0000 0.0000 0.0000 -8.1265 0.0000 14.7974
#
#
#
# Elastic Compliance Matrix: (Units=1/GPa)
#
#
# Indices 1 2 3 4 5 6 
#
# 1 0.014375 -0.004290 -0.000100 0.000000 0.001406 0.000000
# 2 -0.004290 0.013223 -0.000464 0.000000 -0.003764 0.000000
# 3 -0.000100 -0.000464 0.010694 0.000000 0.000271 0.000000
# 4 0.000000 0.000000 0.000000 0.106960 0.000000 0.058741
# 5 0.001406 -0.003764 0.000271 0.000000 0.026447 0.000000
# 6 0.000000 0.000000 0.000000 0.058741 0.000000 0.099839
#
#
# Mechanical properties :
#
#
# Convention : Reuss Voigt Hill
#
# Bulk Modulus (GPa) = 34.98437 35.40355 35.19396
# Shear Modulus (GPa) = 17.19542 28.75733 22.97637
#
# Velocity S-wave (km/s) = 2.99232 3.86969 3.45894
# Velocity P-wave (km/s) = 5.49142 6.19688 5.85479
#
# Compressibility (1/GPa) = 0.02858419
#
# Stress axis : x y z
#
# Youngs Moduli (GPa) = 69.56579 75.62399 93.50895
#
# Poissons Ratio (x) = 0.32442 0.00936
# Poissons Ratio (y) = 0.29843 0.04340
# Poissons Ratio (z) = 0.00696 0.03510
#
# Static dielectric constant tensor:
#      x y z
#    x 1.619070 0.000000 -0.039300 
#    y 0.000000 1.695520 0.000000 
#    z -0.039300 0.000000 1.610590 
# 
# From -- ./inp_files/5705.got.cif
#   From: 2010.05.17/outbox.cif.g08.bks.cpg/sg15_3_cif.got.tgz:5705.got - 2010.06.03 18:47:42.
