data_PCOD9282766
_publ_section_title
;
Structure prediction by ZEFSAII (Michael W. Deem and Ramdas Pophale) SiO2 
 PCOD9282766
Probable space group: C 2/C
;
_chemical_formula_sum "Si O2"
_cell_formula_units_Z 32
_cell_length_a 6.561675
_cell_length_b 29.911471
_cell_length_c 7.217798
_cell_angle_alpha 90.000000
_cell_angle_beta 112.005729
_cell_angle_gamma 90.000000
_cell_volume 1313.425743
_symmetry_space_group_name_H-M "C 2/C"
_symmetry_group_IT_number 15
_symmetry_cell_setting 'monoclinic'
loop_
_space_group_symop_operation_xyz
x,y,z
-x,y,1/2-z
-x,-y,-z
x,-y,1/2+z
1/2+x,1/2+y,z
1/2-x,1/2+y,1/2-z
1/2-x,1/2-y,-z
1/2+x,1/2-y,1/2+z
loop_
_atom_site_type_symbol
_atom_site_label
_atom_site_fract_x
_atom_site_fract_y
_atom_site_fract_z
Si Si1 0.194596 0.460135 0.456129
Si Si2 0.000000 0.033097 0.750000
Si Si3 0.303456 0.301941 0.541047
Si Si4 0.529623 0.877011 0.037805
Si Si5 0.500000 0.349820 0.250000
O O1 0.316076 0.500688 0.597714
O O2 0.382525 0.441838 0.379454
O O3 0.000000 0.474605 0.250000
O O4 0.099572 0.422267 0.561398
O O5 0.500000 0.307389 0.750000
O O6 0.250000 0.250000 0.500000
O O7 0.383739 0.320831 0.370647
O O8 0.100691 0.331659 0.548545
O O9 0.500000 0.881180 0.250000
O O10 0.787021 0.873960 0.084067
#
# Coordination Sequence:
#
# PCOD9282766 Si02
#       5
#     8   4   8   8   4
#     4  10  21  39  64  93 131 169 227 269 343 398
#     4  10  22  39  66  94 130 176 212 294 330 399
#     4  11  24  41  67 101 134 169 224 270 327 406
#     4   9  21  39  64  93 128 173 219 270 327 404
#     4  10  22  45  68  90 138 184 208 280 340 375
#
# _framework density 24.363766999999999
#
# number of rings (size 3 to 8) (size 9 to 14) (size 15 to 20)
#    0.000    2.000    0.000    3.000    1.750   14.000 
#    0.000    0.000   33.000    0.000    0.000    0.000 
#    0.000    0.000    0.000    0.000    0.000    0.000 
#
# Total GULP energy -89390.013561 kJ/mol
# GULP energy per Si atom -5586.875848 kJ/mol
# Density = 2.430831 g / cm^3
# Si number density = 24.363767 Si / 1000 Ang^3
#
#
#
# Elastic Constant Matrix: (Units=GPa)
#
#
# Indices 1 2 3 4 5 6 
#
# 1 211.9713 87.3038 25.0278 0.0000 21.0071 0.0000
# 2 87.3038 136.2103 24.6308 0.0000 29.8091 0.0000
# 3 25.0278 24.6308 73.7139 0.0000 24.2504 0.0000
# 4 0.0000 0.0000 0.0000 28.9573 0.0000 19.5609
# 5 21.0071 29.8091 24.2504 0.0000 49.6698 0.0000
# 6 0.0000 0.0000 0.0000 19.5609 0.0000 60.1289
#
#
#
# Elastic Compliance Matrix: (Units=1/GPa)
#
#
# Indices 1 2 3 4 5 6 
#
# 1 0.006461 -0.004003 -0.000891 0.000000 0.000105 0.000000
# 2 -0.004003 0.011051 -0.000844 0.000000 -0.004527 0.000000
# 3 -0.000891 -0.000844 0.016512 0.000000 -0.007178 0.000000
# 4 0.000000 0.000000 0.000000 0.044260 0.000000 -0.014398
# 5 0.000105 -0.004527 -0.007178 0.000000 0.026310 0.000000
# 6 0.000000 0.000000 0.000000 -0.014398 0.000000 0.021315
#
#
# Mechanical properties :
#
#
# Convention : Reuss Voigt Hill
#
# Bulk Modulus (GPa) = 44.34922 77.31338 60.83130
# Shear Modulus (GPa) = 34.50643 46.74674 40.62658
#
# Velocity S-wave (km/s) = 3.76746 4.38505 4.08793
# Velocity P-wave (km/s) = 6.09651 7.57892 6.87777
#
# Compressibility (1/GPa) = 0.02254831
#
# Stress axis : x y z
#
# Youngs Moduli (GPa) = 154.77118 90.49200 60.56226
#
# Poissons Ratio (x) = 0.36225 0.05393
# Poissons Ratio (y) = 0.61957 0.05112
# Poissons Ratio (z) = 0.13783 0.07638
#
# Static dielectric constant tensor:
#      x y z
#    x 1.964680 0.000000 0.008140 
#    y 0.000000 2.370160 0.000000 
#    z 0.008140 0.000000 1.916350 
# 
# From -- ./inp_files/20176.got.cif
#   From: 2010.05.17/outbox.cif.g08.bks.cpg/sg15_11_cif.got.tgz:20176.got - 2010.06.03 18:47:42.
