data_PCOD9282580
_publ_section_title
;
Structure prediction by ZEFSAII (Michael W. Deem and Ramdas Pophale) SiO2 
 PCOD9282580
Probable space group: C 2/C
;
_chemical_formula_sum "Si O2"
_cell_formula_units_Z 40
_cell_length_a 27.188727
_cell_length_b 5.139675
_cell_length_c 18.073598
_cell_angle_alpha 90.000000
_cell_angle_beta 141.720008
_cell_angle_gamma 90.000000
_cell_volume 1564.638196
_symmetry_space_group_name_H-M "C 2/C"
_symmetry_group_IT_number 15
_symmetry_cell_setting 'monoclinic'
loop_
_space_group_symop_operation_xyz
x,y,z
-x,y,1/2-z
-x,-y,-z
x,-y,1/2+z
1/2+x,1/2+y,z
1/2-x,1/2+y,1/2-z
1/2-x,1/2-y,-z
1/2+x,1/2-y,1/2+z
loop_
_atom_site_type_symbol
_atom_site_label
_atom_site_fract_x
_atom_site_fract_y
_atom_site_fract_z
Si Si1 0.946519 0.429211 0.613290
Si Si2 0.836210 0.192265 0.067870
Si Si3 0.525906 0.414779 0.646435
Si Si4 0.761746 0.864311 0.862066
Si Si5 0.834847 0.867314 0.786833
O O1 0.867793 0.572340 0.553447
O O2 0.000000 0.424093 0.750000
O O3 0.976089 0.651215 0.591572
O O4 0.818932 0.054947 0.495756
O O5 0.971320 0.841979 0.103917
O O6 0.750000 0.250000 0.000000
O O7 0.595695 0.378739 0.792128
O O8 0.575817 0.427127 0.630190
O O9 0.694533 0.087984 0.776789
O O10 0.811984 0.872270 0.845770
O O11 0.716965 0.593269 0.812085
#
# Coordination Sequence:
#
# PCOD9282580 Si02
#       5
#     8   8   8   8   8
#     4  10  23  40  58  91 131 164 201 257 327 379
#     4  11  23  42  68 100 125 164 227 269 307 373
#     4  11  22  41  63  90 127 171 200 256 330 379
#     4  10  22  39  60  97 126 161 213 271 306 372
#     4  10  21  39  63  89 131 168 204 257 334 373
#
# _framework density 25.565013
#
# number of rings (size 3 to 8) (size 9 to 14) (size 15 to 20)
#    0.000    1.600    2.000    3.000    2.800    5.600 
#    0.000    2.000    0.000    0.000    0.000    1.400 
#    0.000    0.000    0.000    0.000    0.000    0.000 
#
# Total GULP energy -111991.905285 kJ/mol
# GULP energy per Si atom -5599.595264 kJ/mol
# Density = 2.550683 g / cm^3
# Si number density = 25.565013 Si / 1000 Ang^3
#
#
#
# Elastic Constant Matrix: (Units=GPa)
#
#
# Indices 1 2 3 4 5 6 
#
# 1 131.0574 30.4507 24.0249 0.0016 55.6186 0.0016
# 2 30.4507 150.1761 28.0409 0.0136 32.1961 0.0062
# 3 24.0249 28.0409 100.9119 -0.0021 37.9158 -0.0014
# 4 0.0016 0.0136 -0.0021 -54.4380 0.0008 -32.3855
# 5 55.6186 32.1961 37.9158 0.0008 50.9274 0.0007
# 6 0.0016 0.0062 -0.0014 -32.3855 0.0007 1.9641
#
#
#
# Elastic Compliance Matrix: (Units=1/GPa)
#
#
# Indices 1 2 3 4 5 6 
#
# 1 0.015140 0.000437 0.003597 0.000000 -0.019488 0.000000
# 2 0.000437 0.007729 -0.000328 0.000001 -0.005119 0.000001
# 3 0.003597 -0.000328 0.014637 -0.000001 -0.014618 0.000000
# 4 0.000000 0.000001 -0.000001 -0.001699 0.000000 -0.028021
# 5 -0.019488 -0.005119 -0.014618 0.000000 0.055038 -0.000001
# 6 0.000000 0.000001 0.000000 -0.028021 -0.000001 0.047102
#
#
# Mechanical properties :
#
#
# Convention : Reuss Voigt Hill
#
# Bulk Modulus (GPa) = 22.26407 60.79761 41.53084
# Shear Modulus (GPa) = 34.36213 19.66596 27.01405
#
# Velocity S-wave (km/s) = 3.67018 2.77655 3.25419
# Velocity P-wave (km/s) = 5.16605 5.84056 5.51363
#
# Compressibility (1/GPa) = 0.04491543
#
# Stress axis : x y z
#
# Youngs Moduli (GPa) = 66.05022 129.38273 68.32044
#
# Poissons Ratio (x) = -0.05649 -0.24572
# Poissons Ratio (y) = -0.02884 0.02244
# Poissons Ratio (z) = -0.23755 0.04249
#
# Static dielectric constant tensor:
#      x y z
#    x 2.011300 0.000000 0.015520 
#    y 0.000000 2.010380 0.000010 
#    z 0.015520 0.000010 2.174810 
# 
# From -- ./inp_files/223528.got.cif
#   From: 2010.05.17/outbox.cif.g08.bks.cpg/sg15_112_cif.got.tgz:223528.got - 2010.06.03 18:47:42.
