data_PCOD9282986
_publ_section_title
;
Structure prediction by ZEFSAII (Michael W. Deem and Ramdas Pophale) SiO2 
 PCOD9282986
Probable space group: C 2/C
;
_chemical_formula_sum "Si O2"
_cell_formula_units_Z 56
_cell_length_a 25.809788
_cell_length_b 9.449312
_cell_length_c 16.698187
_cell_angle_alpha 90.000000
_cell_angle_beta 41.925482
_cell_angle_gamma 90.000000
_cell_volume 2721.051151
_symmetry_space_group_name_H-M "C 2/C"
_symmetry_group_IT_number 15
_symmetry_cell_setting 'monoclinic'
loop_
_space_group_symop_operation_xyz
x,y,z
-x,y,1/2-z
-x,-y,-z
x,-y,1/2+z
1/2+x,1/2+y,z
1/2-x,1/2+y,1/2-z
1/2-x,1/2-y,-z
1/2+x,1/2-y,1/2+z
loop_
_atom_site_type_symbol
_atom_site_label
_atom_site_fract_x
_atom_site_fract_y
_atom_site_fract_z
Si Si1 0.263000 0.534623 0.884186
Si Si2 0.789661 0.750206 0.667809
Si Si3 0.553690 0.412622 0.999701
Si Si4 0.081253 0.928746 0.628427
Si Si5 0.409677 0.676195 0.749553
Si Si6 0.237332 0.791026 0.400077
Si Si7 0.296220 0.078238 0.374570
O O1 0.203203 0.604061 0.890467
O O2 0.348420 0.590818 0.763780
O O3 0.259181 0.368204 0.895025
O O4 0.247526 0.593166 0.990683
O O5 0.868556 0.823753 0.609097
O O6 0.735012 0.715396 0.805971
O O7 0.751191 0.854007 0.645515
O O8 0.575884 0.522349 0.043418
O O9 0.492699 0.310078 0.114139
O O10 0.500000 0.500000 0.000000
O O11 0.158593 0.834913 0.536867
O O12 0.000000 0.859700 0.750000
O O13 0.086306 0.070813 0.678204
O O14 0.373037 0.830606 0.800036
O O15 0.299430 0.912037 0.351594
#
# Coordination Sequence:
#
# PCOD9282986 Si02
#       7
#     8   8   8   8   8   8   8
#     4  11  22  39  65  96 126 170 221 270 324 393
#     4  11  23  41  63  95 129 173 216 268 328 392
#     4  11  22  39  64  94 126 168 218 264 324 390
#     4  10  22  40  62  94 125 168 213 272 322 387
#     4  10  21  39  66  91 122 166 220 264 318 389
#     4  12  23  38  65  95 135 160 214 272 334 382
#     4  11  22  40  65  96 124 170 225 264 320 395
#
# _framework density 20.580282
#
# number of rings (size 3 to 8) (size 9 to 14) (size 15 to 20)
#    0.000    1.143    2.857    4.714    4.000    0.000 
#    0.000    2.143    0.000    0.000    0.000    0.000 
#    0.000    0.000    0.000    0.000    0.000    0.000 
#
# Total GULP energy -156072.703697 kJ/mol
# GULP energy per Si atom -5574.025132 kJ/mol
# Density = 2.053344 g / cm^3
# Si number density = 20.580282 Si / 1000 Ang^3
#
#
#
# Elastic Constant Matrix: (Units=GPa)
#
#
# Indices 1 2 3 4 5 6 
#
# 1 88.2186 26.6051 27.5169 0.0001 11.3603 -0.0001
# 2 26.6051 129.5935 27.2305 0.0004 -0.3022 -0.0004
# 3 27.5169 27.2305 100.9163 0.0000 0.1371 0.0000
# 4 0.0001 0.0004 0.0000 25.1622 0.0000 3.5761
# 5 11.3603 -0.3022 0.1371 0.0000 31.9260 0.0001
# 6 -0.0001 -0.0004 0.0000 3.5761 0.0001 4.8536
#
#
#
# Elastic Compliance Matrix: (Units=1/GPa)
#
#
# Indices 1 2 3 4 5 6 
#
# 1 0.013577 -0.002144 -0.003117 0.000000 -0.004838 0.000000
# 2 -0.002144 0.008519 -0.001715 0.000000 0.000851 0.000001
# 3 -0.003117 -0.001715 0.011221 0.000000 0.001045 0.000000
# 4 0.000000 0.000000 0.000000 0.044390 0.000000 -0.032707
# 5 -0.004838 0.000851 0.001045 0.000000 0.033048 -0.000001
# 6 0.000000 0.000001 0.000000 -0.032707 -0.000001 0.230130
#
#
# Mechanical properties :
#
#
# Convention : Reuss Voigt Hill
#
# Bulk Modulus (GPa) = 51.64073 53.49260 52.56666
# Shear Modulus (GPa) = 13.83921 28.21343 21.02632
#
# Velocity S-wave (km/s) = 2.59598 3.70658 3.19983
# Velocity P-wave (km/s) = 5.84228 6.66085 6.26495
#
# Compressibility (1/GPa) = 0.01936456
#
# Stress axis : x y z
#
# Youngs Moduli (GPa) = 73.65248 117.38555 89.12198
#
# Poissons Ratio (x) = 0.25164 0.27780
# Poissons Ratio (y) = 0.15789 0.15287
# Poissons Ratio (z) = 0.22958 0.20135
#
# Static dielectric constant tensor:
#      x y z
#    x 1.844790 0.000000 -0.025850 
#    y 0.000000 1.775320 0.000000 
#    z -0.025850 0.000000 1.787120 
# 
# From -- ./inp_files/222019.got.cif
#   From: 2010.05.17/outbox.cif.g08.bks.cpg/sg15_112_cif.got.tgz:222019.got - 2010.06.03 18:47:42.
