data_PCOD9282802
_publ_section_title
;
Structure prediction by ZEFSAII (Michael W. Deem and Ramdas Pophale) SiO2 
 PCOD9282802
Probable space group: C 2/C
;
_chemical_formula_sum "Si O2"
_cell_formula_units_Z 40
_cell_length_a 26.484052
_cell_length_b 7.690612
_cell_length_c 13.824610
_cell_angle_alpha 90.000000
_cell_angle_beta 32.897014
_cell_angle_gamma 90.000000
_cell_volume 1529.334785
_symmetry_space_group_name_H-M "C 2/C"
_symmetry_group_IT_number 15
_symmetry_cell_setting 'monoclinic'
loop_
_space_group_symop_operation_xyz
x,y,z
-x,y,1/2-z
-x,-y,-z
x,-y,1/2+z
1/2+x,1/2+y,z
1/2-x,1/2+y,1/2-z
1/2-x,1/2-y,-z
1/2+x,1/2-y,1/2+z
loop_
_atom_site_type_symbol
_atom_site_label
_atom_site_fract_x
_atom_site_fract_y
_atom_site_fract_z
Si Si1 0.865770 0.782110 0.277438
Si Si2 0.923910 0.244199 0.054676
Si Si3 0.253041 0.087700 0.922066
Si Si4 0.595288 0.044616 0.104050
Si Si5 0.793097 0.070534 0.720905
O O1 0.876092 0.625864 0.338865
O O2 0.809458 0.766522 0.266883
O O3 0.808954 0.935795 0.424842
O O4 0.973504 0.797346 0.074058
O O5 0.862735 0.387299 0.210574
O O6 0.866936 0.068160 0.138166
O O7 0.930639 0.308562 0.933218
O O8 0.202607 0.105769 0.899110
O O9 0.250000 0.250000 0.000000
O O10 0.500000 0.932253 0.250000
O O11 0.693540 0.985279 0.904997
#
# Coordination Sequence:
#
# PCOD9282802 Si02
#       5
#     8   8   8   8   8
#     4  11  21  40  67  90 127 170 219 268 335 391
#     4  10  21  39  64  97 125 164 218 271 321 401
#     4  11  23  38  62  95 134 163 213 280 323 383
#     4   9  20  38  62  84 121 171 211 259 327 392
#     4  11  21  36  64  90 123 164 217 266 326 396
#
# _framework density 26.155163999999999
#
# number of rings (size 3 to 8) (size 9 to 14) (size 15 to 20)
#    0.000    1.600    4.000    1.200    0.000    0.000 
#    0.000    0.000   17.600    4.800    0.000    0.000 
#    0.000    0.000    0.000    0.000    0.000    0.000 
#
# Total GULP energy -111514.474145 kJ/mol
# GULP energy per Si atom -5575.723707 kJ/mol
# Density = 2.609563 g / cm^3
# Si number density = 26.155164 Si / 1000 Ang^3
#
#
#
# Elastic Constant Matrix: (Units=GPa)
#
#
# Indices 1 2 3 4 5 6 
#
# 1 192.6301 51.0212 87.7440 0.0000 18.8353 0.0000
# 2 51.0212 88.0821 30.5762 -0.0003 11.0258 0.0001
# 3 87.7440 30.5762 166.8614 -0.0001 -11.8413 0.0000
# 4 0.0000 -0.0003 -0.0001 37.0858 0.0000 4.3136
# 5 18.8353 11.0258 -11.8413 0.0000 77.1910 0.0000
# 6 0.0000 0.0001 0.0000 4.3136 0.0000 31.3601
#
#
#
# Elastic Compliance Matrix: (Units=1/GPa)
#
#
# Indices 1 2 3 4 5 6 
#
# 1 0.007900 -0.003015 -0.003749 0.000000 -0.002072 0.000000
# 2 -0.003015 0.013620 -0.001007 0.000000 -0.001364 0.000000
# 3 -0.003749 -0.001007 0.008314 0.000000 0.002334 0.000000
# 4 0.000000 0.000000 0.000000 0.027403 0.000000 -0.003769
# 5 -0.002072 -0.001364 0.002334 0.000000 0.014013 0.000000
# 6 0.000000 0.000000 0.000000 -0.003769 0.000000 0.032406
#
#
# Mechanical properties :
#
#
# Convention : Reuss Voigt Hill
#
# Bulk Modulus (GPa) = 69.96748 87.36180 78.66464
# Shear Modulus (GPa) = 40.33445 47.67620 44.00532
#
# Velocity S-wave (km/s) = 3.93125 4.27408 4.10624
# Velocity P-wave (km/s) = 6.88587 7.60466 7.25418
#
# Compressibility (1/GPa) = 0.01429235
#
# Stress axis : x y z
#
# Youngs Moduli (GPa) = 126.57922 73.42134 120.27264
#
# Poissons Ratio (x) = 0.22140 0.45088
# Poissons Ratio (y) = 0.38169 0.12110
# Poissons Ratio (z) = 0.47452 0.07393
#
# Static dielectric constant tensor:
#      x y z
#    x 2.034180 0.000000 -0.081040 
#    y 0.000000 2.212820 0.000000 
#    z -0.081040 0.000000 2.341700 
# 
# From -- ./inp_files/150572.got.cif
#   From: 2010.05.17/outbox.cif.g08.bks.cpg/sg15_76_cif.got.tgz:150572.got - 2010.06.03 18:47:42.
