data_PCOD9282485
_publ_section_title
;
Structure prediction by ZEFSAII (Michael W. Deem and Ramdas Pophale) SiO2 
 PCOD9282485
Probable space group: C 2/C
;
_chemical_formula_sum "Si O2"
_cell_formula_units_Z 40
_cell_length_a 9.111328
_cell_length_b 12.229803
_cell_length_c 18.815052
_cell_angle_alpha 90.000000
_cell_angle_beta 50.316696
_cell_angle_gamma 90.000000
_cell_volume 1613.479797
_symmetry_space_group_name_H-M "C 2/C"
_symmetry_group_IT_number 15
_symmetry_cell_setting 'monoclinic'
loop_
_space_group_symop_operation_xyz
x,y,z
-x,y,1/2-z
-x,-y,-z
x,-y,1/2+z
1/2+x,1/2+y,z
1/2-x,1/2+y,1/2-z
1/2-x,1/2-y,-z
1/2+x,1/2-y,1/2+z
loop_
_atom_site_type_symbol
_atom_site_label
_atom_site_fract_x
_atom_site_fract_y
_atom_site_fract_z
Si Si1 0.278831 0.434137 0.043520
Si Si2 0.830775 0.665254 0.359459
Si Si3 0.848876 0.650543 0.672224
Si Si4 0.713497 0.962435 0.909265
Si Si5 0.883672 0.770613 0.123021
O O1 0.241689 0.549221 0.092411
O O2 0.405870 0.354842 0.051994
O O3 0.071190 0.376055 0.107120
O O4 0.333736 0.456265 0.944563
O O5 0.683881 0.742670 0.364839
O O6 0.000000 0.645640 0.250000
O O7 0.926600 0.733871 0.394046
O O8 0.740813 0.551528 0.664865
O O9 0.756028 0.673171 0.776865
O O10 0.703009 0.842668 0.879101
O O11 0.500000 0.000000 0.000000
#
# Coordination Sequence:
#
# PCOD9282485 Si02
#       5
#     8   8   8   8   8
#     4  11  22  42  65  92 129 167 208 259 321 367
#     4  10  21  39  62  92 130 167 209 259 312 373
#     4  10  22  39  65  94 127 169 211 255 313 376
#     4  10  21  42  64  90 134 165 202 266 320 365
#     4  11  21  39  68  92 125 172 212 250 318 380
#
# _framework density 24.791136999999999
#
# number of rings (size 3 to 8) (size 9 to 14) (size 15 to 20)
#    0.000    1.600    4.000    2.400    2.800    0.800 
#    3.600    3.000    0.000    0.000    0.000    0.000 
#    0.000    0.000    0.000    0.000    0.000    0.000 
#
# Total GULP energy -112177.076651 kJ/mol
# GULP energy per Si atom -5608.853833 kJ/mol
# Density = 2.473471 g / cm^3
# Si number density = 24.791137 Si / 1000 Ang^3
#
#
#
# Elastic Constant Matrix: (Units=GPa)
#
#
# Indices 1 2 3 4 5 6 
#
# 1 -373.0223 144.5468 122.5379 0.0000 86.7419 0.0001
# 2 144.5468 122.8826 66.1229 0.0000 1.3405 0.0000
# 3 122.5379 66.1229 133.2686 0.0000 15.4660 0.0000
# 4 0.0000 0.0000 0.0000 50.6075 0.0000 25.7159
# 5 86.7419 1.3405 15.4660 0.0000 31.0308 0.0000
# 6 0.0001 0.0000 0.0000 25.7159 0.0000 34.9709
#
#
#
# Elastic Compliance Matrix: (Units=1/GPa)
#
#
# Indices 1 2 3 4 5 6 
#
# 1 -0.001287 0.001443 0.000061 0.000000 0.003505 0.000000
# 2 0.001443 0.009656 -0.005945 0.000000 -0.001487 0.000000
# 3 0.000061 -0.005945 0.011025 0.000000 -0.005408 0.000000
# 4 0.000000 0.000000 0.000000 0.031548 0.000000 -0.023199
# 5 0.003505 -0.001487 -0.005408 0.000000 0.025189 0.000000
# 6 0.000000 0.000000 0.000000 -0.023199 0.000000 0.045655
#
#
# Mechanical properties :
#
#
# Convention : Reuss Voigt Hill
#
# Bulk Modulus (GPa) = 95.13660 61.06045 78.09853
# Shear Modulus (GPa) = 37.26535 -6.68341 15.29097
#
# Velocity S-wave (km/s) = 3.88128 -1.64370 2.48622
# Velocity P-wave (km/s) = 7.65143 4.59142 6.30973
#
# Compressibility (1/GPa) = 0.01051120
#
# Stress axis : x y z
#
# Youngs Moduli (GPa) = -777.10202 103.56489 90.70204
#
# Poissons Ratio (x) = -0.14943 -0.00550
# Poissons Ratio (y) = 1.12124 0.53921
# Poissons Ratio (z) = 0.04710 0.61568
#
# Static dielectric constant tensor:
#      x y z
#    x 2.012540 0.000000 0.008480 
#    y 0.000000 1.890140 0.000000 
#    z 0.008480 0.000000 2.007410 
# 
# From -- ./inp_files/195915.got.cif
#   From: 2010.05.17/outbox.cif.g08.bks.cpg/sg15_98_cif.got.tgz:195915.got - 2010.06.03 18:47:42.
