data_PCOD9282400
_publ_section_title
;
Structure prediction by ZEFSAII (Michael W. Deem and Ramdas Pophale) SiO2 
 PCOD9282400
Probable space group: C 2/C
;
_chemical_formula_sum "Si O2"
_cell_formula_units_Z 60
_cell_length_a 18.268415
_cell_length_b 8.704801
_cell_length_c 18.678970
_cell_angle_alpha 90.000000
_cell_angle_beta 53.376185
_cell_angle_gamma 90.000000
_cell_volume 2383.940094
_symmetry_space_group_name_H-M "C 2/C"
_symmetry_group_IT_number 15
_symmetry_cell_setting 'monoclinic'
loop_
_space_group_symop_operation_xyz
x,y,z
-x,y,1/2-z
-x,-y,-z
x,-y,1/2+z
1/2+x,1/2+y,z
1/2-x,1/2+y,1/2-z
1/2-x,1/2-y,-z
1/2+x,1/2-y,1/2+z
loop_
_atom_site_type_symbol
_atom_site_label
_atom_site_fract_x
_atom_site_fract_y
_atom_site_fract_z
Si Si1 0.951670 0.656665 0.553543
Si Si2 0.898117 0.658659 0.806191
Si Si3 0.267135 0.982618 0.653716
Si Si4 0.367179 0.770431 0.480223
Si Si5 0.912676 0.880989 0.186712
Si Si6 0.685914 0.101354 0.228945
Si Si7 0.134188 0.954871 0.939304
Si Si8 0.500000 0.542860 0.250000
O O1 0.850206 0.596897 0.624424
O O2 0.936650 0.811482 0.514256
O O3 0.000000 0.500000 0.500000
O O4 0.022961 0.706303 0.572896
O O5 0.849699 0.667399 0.911143
O O6 0.844933 0.567610 0.777737
O O7 0.000000 0.587320 0.750000
O O8 0.918927 0.837224 0.781489
O O9 0.304747 0.875737 0.568388
O O10 0.260980 0.877777 0.727621
O O11 0.174868 0.079774 0.710258
O O12 0.358611 0.592131 0.507585
O O13 0.904786 0.698028 0.199172
O O14 0.891456 0.957103 0.121772
O O15 0.000141 0.942839 0.178334
O O16 0.766020 0.122842 0.124037
#
# Coordination Sequence:
#
# PCOD9282400 Si02
#       8
#     8   8   8   8   8   8   8   4
#     4  10  21  39  62 100 140 173 222 287 346 400
#     4  10  25  45  65  95 140 189 222 283 365 421
#     4  10  22  41  69 103 134 174 235 288 353 410
#     4  11  22  41  69 102 136 183 233 291 336 425
#     4  11  23  43  68 100 136 182 233 290 351 418
#     4  11  23  41  69 100 137 183 225 291 355 423
#     4  11  23  40  71 103 135 178 242 289 343 415
#     4  10  26  42  66  96 140 184 226 282 350 436
#
# _framework density 25.168417000000002
#
# number of rings (size 3 to 8) (size 9 to 14) (size 15 to 20)
#    0.400    1.067    2.667    2.000    4.667    0.533 
#    0.000    2.000    0.000    0.000    0.000    0.000 
#    0.000    0.000    0.000    0.000    0.000    0.000 
#
# Total GULP energy -167094.105347 kJ/mol
# GULP energy per Si atom -5569.803512 kJ/mol
# Density = 2.511113 g / cm^3
# Si number density = 25.168417 Si / 1000 Ang^3
#
#
#
# Elastic Constant Matrix: (Units=GPa)
#
#
# Indices 1 2 3 4 5 6 
#
# 1 67.8544 42.0391 7.3285 0.0000 12.6623 0.0000
# 2 42.0391 125.1652 36.9534 0.0000 16.5680 0.0001
# 3 7.3285 36.9534 86.8380 0.0000 11.0902 0.0000
# 4 0.0000 0.0000 0.0000 28.1995 0.0000 -9.9322
# 5 12.6623 16.5680 11.0902 0.0000 43.4361 0.0000
# 6 0.0000 0.0001 0.0000 -9.9322 0.0000 47.2606
#
#
#
# Elastic Compliance Matrix: (Units=1/GPa)
#
#
# Indices 1 2 3 4 5 6 
#
# 1 0.019227 -0.006454 0.001577 0.000000 -0.003546 0.000000
# 2 -0.006454 0.011592 -0.004201 0.000000 -0.001467 0.000000
# 3 0.001577 -0.004201 0.013463 0.000000 -0.002295 0.000000
# 4 0.000000 0.000000 0.000000 0.038296 0.000000 0.008048
# 5 -0.003546 -0.001467 -0.002295 0.000000 0.025202 0.000000
# 6 0.000000 0.000000 0.000000 0.008048 0.000000 0.022851
#
#
# Mechanical properties :
#
#
# Convention : Reuss Voigt Hill
#
# Bulk Modulus (GPa) = 38.27567 50.27776 44.27672
# Shear Modulus (GPa) = 31.74692 36.68169 34.21430
#
# Velocity S-wave (km/s) = 3.55544 3.82180 3.69102
# Velocity P-wave (km/s) = 5.66531 6.28448 5.98291
#
# Compressibility (1/GPa) = 0.02612626
#
# Stress axis : x y z
#
# Youngs Moduli (GPa) = 52.00905 86.26954 74.27611
#
# Poissons Ratio (x) = 0.55679 -0.11711
# Poissons Ratio (y) = 0.33567 0.31201
# Poissons Ratio (z) = -0.08200 0.36239
#
# Static dielectric constant tensor:
#      x y z
#    x 2.017430 0.000000 -0.051950 
#    y 0.000000 2.115290 0.000000 
#    z -0.051950 0.000000 2.128130 
# 
# From -- ./inp_files/317255.got.cif
#   From: 2010.05.17/outbox.cif.g08.bks.cpg/sg15_159_cif.got.tgz:317255.got - 2010.06.03 18:47:42.
