data_PCOD9282281
_publ_section_title
;
Structure prediction by ZEFSAII (Michael W. Deem and Ramdas Pophale) SiO2 
 PCOD9282281
Probable space group: C 2/C
;
_chemical_formula_sum "Si O2"
_cell_formula_units_Z 60
_cell_length_a 11.902287
_cell_length_b 19.464101
_cell_length_c 19.590538
_cell_angle_alpha 90.000000
_cell_angle_beta 145.521993
_cell_angle_gamma 90.000000
_cell_volume 2569.191650
_symmetry_space_group_name_H-M "C 2/C"
_symmetry_group_IT_number 15
_symmetry_cell_setting 'monoclinic'
loop_
_space_group_symop_operation_xyz
x,y,z
-x,y,1/2-z
-x,-y,-z
x,-y,1/2+z
1/2+x,1/2+y,z
1/2-x,1/2+y,1/2-z
1/2-x,1/2-y,-z
1/2+x,1/2-y,1/2+z
loop_
_atom_site_type_symbol
_atom_site_label
_atom_site_fract_x
_atom_site_fract_y
_atom_site_fract_z
Si Si1 0.000000 0.325547 0.750000
Si Si2 0.480436 0.245952 0.903567
Si Si3 0.839921 0.938706 0.092887
Si Si4 0.671836 0.846401 0.694571
Si Si5 0.592028 0.986256 0.368869
Si Si6 0.727743 0.999860 0.177219
Si Si7 0.187233 0.337659 0.394863
Si Si8 0.775397 0.704544 0.924777
O O1 0.882322 0.361163 0.752851
O O2 0.842455 0.275844 0.631489
O O3 0.361554 0.296654 0.793771
O O4 0.615683 0.193780 0.930429
O O5 0.326369 0.202190 0.870166
O O6 0.615615 0.293763 0.020732
O O7 0.856767 0.858562 0.116349
O O8 0.711811 0.971639 0.091586
O O9 0.049615 0.975704 0.194082
O O10 0.722035 0.953208 0.965090
O O11 0.711841 0.917613 0.675741
O O12 0.485973 0.808050 0.566894
O O13 0.500000 0.002019 0.250000
O O14 0.723232 0.918069 0.423199
O O15 0.422935 0.971110 0.341096
O O16 0.000000 0.330584 0.250000
#
# Coordination Sequence:
#
# PCOD9282281 Si02
#       8
#     4   8   8   8   8   8   8   8
#     4  10  24  42  64  94 134 166 224 266 334 402
#     4  10  22  39  63  94 127 172 221 273 329 393
#     4  11  24  44  67 105 131 175 232 275 342 399
#     4  11  23  40  63  95 126 174 215 273 333 388
#     4  11  24  42  66  97 135 178 218 279 340 402
#     4  11  24  41  68  98 133 177 222 283 335 403
#     4  10  21  39  60  91 131 170 218 268 330 398
#     4  11  22  42  68  93 130 171 219 280 328 396
#
# _framework density 23.353648
#
# number of rings (size 3 to 8) (size 9 to 14) (size 15 to 20)
#    0.000    1.333    1.333    4.000    2.800    1.600 
#    4.800    5.333    0.000    0.000    0.000    0.000 
#    0.000    0.000    0.000    0.000    0.000    0.000 
#
# Total GULP energy -167714.564638 kJ/mol
# GULP energy per Si atom -5590.485488 kJ/mol
# Density = 2.330049 g / cm^3
# Si number density = 23.353648 Si / 1000 Ang^3
#
#
#
# Elastic Constant Matrix: (Units=GPa)
#
#
# Indices 1 2 3 4 5 6 
#
# 1 50.9632 5.0754 -6.5633 0.0000 -2.8324 0.0003
# 2 5.0754 83.0992 34.9288 -0.0002 -8.7292 -0.0001
# 3 -6.5633 34.9288 109.1748 -0.0009 5.4702 0.0004
# 4 0.0000 -0.0002 -0.0009 10.1876 -0.0004 3.3942
# 5 -2.8324 -8.7292 5.4702 -0.0004 34.4506 0.0004
# 6 0.0003 -0.0001 0.0004 3.3942 0.0004 29.0703
#
#
#
# Elastic Compliance Matrix: (Units=1/GPa)
#
#
# Indices 1 2 3 4 5 6 
#
# 1 0.020085 -0.001873 0.001762 0.000000 0.000897 0.000000
# 2 -0.001873 0.014728 -0.005044 0.000000 0.004379 0.000000
# 3 0.001762 -0.005044 0.011024 0.000001 -0.002884 0.000000
# 4 0.000000 0.000000 0.000001 0.102132 0.000001 -0.011925
# 5 0.000897 0.004379 -0.002884 0.000001 0.030668 -0.000001
# 6 0.000000 0.000000 0.000000 -0.011925 -0.000001 0.035792
#
#
# Mechanical properties :
#
#
# Convention : Reuss Voigt Hill
#
# Bulk Modulus (GPa) = 28.14785 34.45767 31.30276
# Shear Modulus (GPa) = 21.13432 28.72812 24.93122
#
# Velocity S-wave (km/s) = 3.01153 3.51113 3.27089
# Velocity P-wave (km/s) = 4.91645 5.58786 5.26287
#
# Compressibility (1/GPa) = 0.03552669
#
# Stress axis : x y z
#
# Youngs Moduli (GPa) = 49.78775 67.89616 90.71265
#
# Poissons Ratio (x) = 0.12717 -0.15982
# Poissons Ratio (y) = 0.09325 0.45757
# Poissons Ratio (z) = -0.08771 0.34248
#
# Static dielectric constant tensor:
#      x y z
#    x 1.910000 0.000000 0.037070 
#    y 0.000000 1.895130 0.000000 
#    z 0.037070 0.000000 1.940620 
# 
# From -- ./inp_files/200557.got.cif
#   From: 2010.05.17/outbox.cif.g08.bks.cpg/sg15_101_cif.got.tgz:200557.got - 2010.06.03 18:47:42.
