data_PCOD9282457
_publ_section_title
;
Structure prediction by ZEFSAII (Michael W. Deem and Ramdas Pophale) SiO2 
 PCOD9282457
Probable space group: C 2/C
;
_chemical_formula_sum "Si O2"
_cell_formula_units_Z 48
_cell_length_a 8.601189
_cell_length_b 30.115992
_cell_length_c 13.306147
_cell_angle_alpha 90.000000
_cell_angle_beta 34.902344
_cell_angle_gamma 90.000000
_cell_volume 1972.151247
_symmetry_space_group_name_H-M "C 2/C"
_symmetry_group_IT_number 15
_symmetry_cell_setting 'monoclinic'
loop_
_space_group_symop_operation_xyz
x,y,z
-x,y,1/2-z
-x,-y,-z
x,-y,1/2+z
1/2+x,1/2+y,z
1/2-x,1/2+y,1/2-z
1/2-x,1/2-y,-z
1/2+x,1/2-y,1/2+z
loop_
_atom_site_type_symbol
_atom_site_label
_atom_site_fract_x
_atom_site_fract_y
_atom_site_fract_z
Si Si1 0.714499 0.099510 0.353084
Si Si2 0.701255 0.570035 0.861816
Si Si3 0.277245 0.350564 0.280262
Si Si4 0.038636 0.734997 0.525676
Si Si5 0.292243 0.021814 0.267213
Si Si6 0.292600 0.816326 0.770917
O O1 0.492218 0.122969 0.540554
O O2 0.584927 0.055195 0.377816
O O3 0.792112 0.136851 0.229751
O O4 0.000000 0.087322 0.250000
O O5 0.606476 0.616696 0.866210
O O6 0.734595 0.528684 0.766554
O O7 0.000000 0.577835 0.750000
O O8 0.483799 0.547199 0.051825
O O9 0.500000 0.346725 0.250000
O O10 0.164368 0.301524 0.318018
O O11 0.250000 0.750000 0.500000
O O12 0.127459 0.710973 0.374466
O O13 0.902713 0.781527 0.571941
O O14 0.500000 0.019444 0.250000
O O15 0.500000 0.826431 0.750000
#
# Coordination Sequence:
#
# PCOD9282457 Si02
#       6
#     8   8   8   8   8   8
#     4  11  23  40  62  91 126 170 220 271 332 397
#     4  10  22  39  61  93 130 171 220 270 329 399
#     4  11  24  41  63  96 129 164 217 273 331 397
#     4  11  24  43  64  93 129 168 217 273 333 399
#     4  10  21  39  62  90 128 174 220 270 330 397
#     4  11  23  40  62  89 122 164 212 266 329 397
#
# _framework density 24.338903999999999
#
# number of rings (size 3 to 8) (size 9 to 14) (size 15 to 20)
#    0.000    1.333    0.000    6.000    0.000    6.667 
#    0.000    0.000    0.000    0.000    0.000    0.000 
#    0.000    0.000    0.000    0.000    0.000    0.000 
#
# Total GULP energy -134052.766110 kJ/mol
# GULP energy per Si atom -5585.531921 kJ/mol
# Density = 2.428351 g / cm^3
# Si number density = 24.338904 Si / 1000 Ang^3
#
#
#
# Elastic Constant Matrix: (Units=GPa)
#
#
# Indices 1 2 3 4 5 6 
#
# 1 88.5566 50.4696 1.9851 0.0000 6.1049 0.0000
# 2 50.4696 142.6286 11.5466 0.0000 11.2438 0.0000
# 3 1.9851 11.5466 80.4388 0.0000 15.4694 0.0000
# 4 0.0000 0.0000 0.0000 48.9918 0.0000 7.8630
# 5 6.1049 11.2438 15.4694 0.0000 30.0931 0.0000
# 6 0.0000 0.0000 0.0000 7.8630 0.0000 20.9403
#
#
#
# Elastic Compliance Matrix: (Units=1/GPa)
#
#
# Indices 1 2 3 4 5 6 
#
# 1 0.014204 -0.004970 0.000621 0.000000 -0.001344 0.000000
# 2 -0.004970 0.008987 -0.000794 0.000000 -0.001941 0.000000
# 3 0.000621 -0.000794 0.013869 0.000000 -0.006959 0.000000
# 4 0.000000 0.000000 0.000000 0.021721 0.000000 -0.008156
# 5 -0.001344 -0.001941 -0.006959 0.000000 0.037805 0.000000
# 6 0.000000 0.000000 0.000000 -0.008156 0.000000 0.050817
#
#
# Mechanical properties :
#
#
# Convention : Reuss Voigt Hill
#
# Bulk Modulus (GPa) = 37.35033 48.84741 43.09887
# Shear Modulus (GPa) = 30.00958 36.51323 33.26140
#
# Velocity S-wave (km/s) = 3.51520 3.87744 3.70076
# Velocity P-wave (km/s) = 5.64400 6.33714 6.00059
#
# Compressibility (1/GPa) = 0.02677352
#
# Stress axis : x y z
#
# Youngs Moduli (GPa) = 70.40476 111.26789 72.10486
#
# Poissons Ratio (x) = 0.55304 -0.04480
# Poissons Ratio (y) = 0.34994 0.05726
# Poissons Ratio (z) = -0.04375 0.08835
#
# Static dielectric constant tensor:
#      x y z
#    x 2.264640 0.000000 -0.078660 
#    y 0.000000 1.884270 0.000000 
#    z -0.078660 0.000000 2.160710 
# 
# From -- ./inp_files/138937.got.cif
#   From: 2010.05.17/outbox.cif.g08.bks.cpg/sg15_70_cif.got.tgz:138937.got - 2010.06.03 18:47:42.
