data_PCOD9282237
_publ_section_title
;
Structure prediction by ZEFSAII (Michael W. Deem and Ramdas Pophale) SiO2 
 PCOD9282237
Probable space group: C 2/C
;
_chemical_formula_sum "Si O2"
_cell_formula_units_Z 48
_cell_length_a 7.739130
_cell_length_b 21.963720
_cell_length_c 12.813127
_cell_angle_alpha 90.000000
_cell_angle_beta 86.975222
_cell_angle_gamma 90.000000
_cell_volume 2174.942070
_symmetry_space_group_name_H-M "C 2/C"
_symmetry_group_IT_number 15
_symmetry_cell_setting 'monoclinic'
loop_
_space_group_symop_operation_xyz
x,y,z
-x,y,1/2-z
-x,-y,-z
x,-y,1/2+z
1/2+x,1/2+y,z
1/2-x,1/2+y,1/2-z
1/2-x,1/2-y,-z
1/2+x,1/2-y,1/2+z
loop_
_atom_site_type_symbol
_atom_site_label
_atom_site_fract_x
_atom_site_fract_y
_atom_site_fract_z
Si Si1 0.253739 0.937282 0.508920
Si Si2 0.176402 0.167976 0.176366
Si Si3 0.979174 0.114545 0.871125
Si Si4 0.519282 0.729163 0.999652
Si Si5 0.829961 0.326386 0.884670
Si Si6 0.634864 0.074716 0.967453
O O1 0.215138 0.892177 0.606777
O O2 0.088963 0.932568 0.438107
O O3 0.433651 0.918018 0.446527
O O4 0.301301 0.005480 0.541810
O O5 0.315190 0.180555 0.261712
O O6 0.000000 0.159015 0.250000
O O7 0.150923 0.221626 0.091691
O O8 0.000000 0.103489 0.750000
O O9 0.774141 0.112702 0.898564
O O10 0.050932 0.179126 0.909133
O O11 0.343830 0.704162 0.062155
O O12 0.478233 0.792258 0.945425
O O13 0.841889 0.397124 0.917001
#
# Coordination Sequence:
#
# PCOD9282237 Si02
#       6
#     8   8   8   8   8   8
#     4  10  22  40  58  89 125 159 208 259 304 372
#     4   9  18  35  62  92 123 165 211 252 315 375
#     4  10  21  39  60  85 119 162 201 251 316 366
#     4   8  17  36  57  85 124 153 201 257 299 371
#     4   9  17  35  60  87 119 162 200 251 313 363
#     4  10  22  39  61  86 123 162 205 261 307 370
#
# _framework density 22.069555000000001
#
# number of rings (size 3 to 8) (size 9 to 14) (size 15 to 20)
#    0.000    2.667    0.000    1.500    0.000    3.333 
#    6.000    5.000    0.000    0.000    0.000    0.000 
#    0.000    0.000    0.000    0.000    0.000    0.000 
#
# Total GULP energy -133903.641520 kJ/mol
# GULP energy per Si atom -5579.318397 kJ/mol
# Density = 2.201932 g / cm^3
# Si number density = 22.069555 Si / 1000 Ang^3
#
#
#
# Elastic Constant Matrix: (Units=GPa)
#
#
# Indices 1 2 3 4 5 6 
#
# 1 117.1804 -2.6187 24.0476 0.0000 -2.1868 0.0000
# 2 -2.6187 86.1639 33.5187 0.0000 7.4057 0.0000
# 3 24.0476 33.5187 132.7275 0.0000 12.6018 0.0000
# 4 0.0000 0.0000 0.0000 8.5564 0.0000 -2.6724
# 5 -2.1868 7.4057 12.6018 0.0000 24.8810 0.0000
# 6 0.0000 0.0000 0.0000 -2.6724 0.0000 25.2138
#
#
#
# Elastic Compliance Matrix: (Units=1/GPa)
#
#
# Indices 1 2 3 4 5 6 
#
# 1 0.008995 0.000923 -0.002008 0.000000 0.001533 0.000000
# 2 0.000923 0.013091 -0.003268 0.000000 -0.002160 0.000000
# 3 -0.002008 -0.003268 0.009085 0.000000 -0.003805 0.000000
# 4 0.000000 0.000000 0.000000 0.120874 0.000000 0.012811
# 5 0.001533 -0.002160 -0.003805 0.000000 0.042896 0.000000
# 6 0.000000 0.000000 0.000000 0.012811 0.000000 0.041019
#
#
# Mechanical properties :
#
#
# Convention : Reuss Voigt Hill
#
# Bulk Modulus (GPa) = 44.51632 49.55189 47.03410
# Shear Modulus (GPa) = 19.82913 30.47185 25.15049
#
# Velocity S-wave (km/s) = 3.00072 3.71983 3.37946
# Velocity P-wave (km/s) = 5.67631 6.39929 6.04861
#
# Compressibility (1/GPa) = 0.02246367
#
# Stress axis : x y z
#
# Youngs Moduli (GPa) = 111.16986 76.38957 110.07539
#
# Poissons Ratio (x) = -0.07050 0.22107
# Poissons Ratio (y) = -0.10260 0.35973
# Poissons Ratio (z) = 0.22327 0.24964
#
# Static dielectric constant tensor:
#      x y z
#    x 1.923350 0.000000 -0.023350 
#    y 0.000000 1.824770 0.000000 
#    z -0.023350 0.000000 1.765270 
# 
# From -- ./inp_files/79263.got.cif
#   From: 2010.05.17/outbox.cif.g08.bks.cpg/sg15_40_cif.got.tgz:79263.got - 2010.06.03 18:47:42.
