data_PCOD9282560
_publ_section_title
;
Structure prediction by ZEFSAII (Michael W. Deem and Ramdas Pophale) SiO2 
 PCOD9282560
Probable space group: C 2/C
;
_chemical_formula_sum "Si O2"
_cell_formula_units_Z 48
_cell_length_a 29.360868
_cell_length_b 8.485320
_cell_length_c 8.827411
_cell_angle_alpha 90.000000
_cell_angle_beta 90.120011
_cell_angle_gamma 90.000000
_cell_volume 2199.224224
_symmetry_space_group_name_H-M "C 2/C"
_symmetry_group_IT_number 15
_symmetry_cell_setting 'monoclinic'
loop_
_space_group_symop_operation_xyz
x,y,z
-x,y,1/2-z
-x,-y,-z
x,-y,1/2+z
1/2+x,1/2+y,z
1/2-x,1/2+y,1/2-z
1/2-x,1/2-y,-z
1/2+x,1/2-y,1/2+z
loop_
_atom_site_type_symbol
_atom_site_label
_atom_site_fract_x
_atom_site_fract_y
_atom_site_fract_z
Si Si1 0.000000 0.532440 0.250000
Si Si2 0.728596 0.617117 0.107631
Si Si3 0.851912 0.868972 0.449215
Si Si4 0.405160 0.406683 0.146817
Si Si5 0.711562 0.826010 0.392839
Si Si6 0.000000 0.037212 0.250000
Si Si7 0.459201 0.794891 0.458562
O O1 0.960889 0.421481 0.323395
O O2 0.018488 0.628771 0.392402
O O3 0.688183 0.503374 0.046653
O O4 0.708986 0.713240 0.248395
O O5 0.769941 0.497772 0.149338
O O6 0.750000 0.750000 0.000000
O O7 0.870987 0.861205 0.279970
O O8 0.833516 0.702387 0.509561
O O9 0.889408 0.934824 0.564126
O O10 0.454705 0.438281 0.218840
O O11 0.411725 0.276702 0.015600
O O12 0.750000 0.750000 0.500000
O O13 0.011311 0.150545 0.108056
#
# Coordination Sequence:
#
# PCOD9282560 Si02
#       7
#     4   8   8   8   8   4   8
#     4   9  21  40  62  86 121 173 244 274 346 424
#     4  11  23  43  72  98 136 178 220 274 346 424
#     4  11  24  41  66 100 142 173 228 291 338 412
#     4  12  23  41  65 100 135 173 232 292 344 403
#     4  10  21  40  67  99 129 179 216 270 338 409
#     4  11  23  38  68  98 125 183 232 280 350 406
#     4  10  21  39  63  88 125 175 228 280 345 411
#
# _framework density 21.825877999999999
#
# number of rings (size 3 to 8) (size 9 to 14) (size 15 to 20)
#    0.000    1.333    3.333    3.000    4.667    0.000 
#    0.000    1.667    0.000    0.000    0.000    0.000 
#    0.000    0.000    0.000    0.000    0.000    0.000 
#
# Total GULP energy -133992.649298 kJ/mol
# GULP energy per Si atom -5583.027054 kJ/mol
# Density = 2.177620 g / cm^3
# Si number density = 21.825878 Si / 1000 Ang^3
#
#
#
# Elastic Constant Matrix: (Units=GPa)
#
#
# Indices 1 2 3 4 5 6 
#
# 1 65.9283 23.0780 19.8256 0.0000 -18.2378 0.0000
# 2 23.0780 90.3282 24.6557 0.0000 -18.0961 0.0000
# 3 19.8256 24.6557 105.0337 0.0000 -36.5301 0.0000
# 4 0.0000 0.0000 0.0000 37.4942 0.0000 -8.3524
# 5 -18.2378 -18.0961 -36.5301 0.0000 46.2372 0.0000
# 6 0.0000 0.0000 0.0000 -8.3524 0.0000 30.9528
#
#
#
# Elastic Compliance Matrix: (Units=1/GPa)
#
#
# Indices 1 2 3 4 5 6 
#
# 1 0.018010 -0.003346 -0.000826 0.000000 0.005142 0.000000
# 2 -0.003346 0.012841 -0.001508 0.000000 0.002514 0.000000
# 3 -0.000826 -0.001508 0.013392 0.000000 0.009664 0.000000
# 4 0.000000 0.000000 0.000000 0.028377 0.000000 0.007657
# 5 0.005142 0.002514 0.009664 0.000000 0.032275 0.000000
# 6 0.000000 0.000000 0.000000 0.007657 0.000000 0.034374
#
#
# Mechanical properties :
#
#
# Convention : Reuss Voigt Hill
#
# Bulk Modulus (GPa) = 30.41079 44.04543 37.22811
# Shear Modulus (GPa) = 30.94273 35.85223 33.39748
#
# Velocity S-wave (km/s) = 3.76933 4.05736 3.91599
# Velocity P-wave (km/s) = 5.73650 6.49413 6.12704
#
# Compressibility (1/GPa) = 0.03288306
#
# Stress axis : x y z
#
# Youngs Moduli (GPa) = 55.52496 77.87568 74.67210
#
# Poissons Ratio (x) = 0.26056 0.06166
# Poissons Ratio (y) = 0.18578 0.11263
# Poissons Ratio (z) = 0.04585 0.11746
#
# Static dielectric constant tensor:
#      x y z
#    x 1.883740 0.000000 -0.034470 
#    y 0.000000 1.848730 0.000000 
#    z -0.034470 0.000000 1.842170 
# 
# From -- ./inp_files/68634.got.cif
#   From: 2010.05.17/outbox.cif.g08.bks.cpg/sg15_35_cif.got.tgz:68634.got - 2010.06.03 18:47:42.
