data_PCOD9282074
_publ_section_title
;
Structure prediction by ZEFSAII (Michael W. Deem and Ramdas Pophale) SiO2 
 PCOD9282074
Probable space group: C 2/C
;
_chemical_formula_sum "Si O2"
_cell_formula_units_Z 20
_cell_length_a 7.607999
_cell_length_b 17.998519
_cell_length_c 8.127460
_cell_angle_alpha 90.000000
_cell_angle_beta 138.065672
_cell_angle_gamma 90.000000
_cell_volume 743.737140
_symmetry_space_group_name_H-M "C 2/C"
_symmetry_group_IT_number 15
_symmetry_cell_setting 'monoclinic'
loop_
_space_group_symop_operation_xyz
x,y,z
-x,y,1/2-z
-x,-y,-z
x,-y,1/2+z
1/2+x,1/2+y,z
1/2-x,1/2+y,1/2-z
1/2-x,1/2-y,-z
1/2+x,1/2-y,1/2+z
loop_
_atom_site_type_symbol
_atom_site_label
_atom_site_fract_x
_atom_site_fract_y
_atom_site_fract_z
Si Si1 0.570449 0.776678 0.532161
Si Si2 0.184035 0.430128 0.242596
Si Si3 0.000000 0.046357 0.250000
O O1 0.750000 0.750000 0.500000
O O2 0.282532 0.736642 0.325094
O O3 0.475727 0.862235 0.445505
O O4 0.305952 0.488260 0.205254
O O5 0.408252 0.405015 0.529612
O O6 0.000000 0.468672 0.250000
#
# Coordination Sequence:
#
# PCOD9282074 Si02
#       3
#     8   8   4
#     4  10  21  38  69  99 128 181 226 275 340 399
#     4  11  22  42  69  92 140 171 228 278 337 408
#     4  10  26  42  62 106 128 184 218 280 344 402
#
# _framework density 26.891223
#
# number of rings (size 3 to 8) (size 9 to 14) (size 15 to 20)
#    0.000    1.600    4.000    1.200    5.600    0.000 
#    0.000    2.000    0.000    0.000    0.000    5.600 
#    0.000    0.000    0.000    0.000    0.000    0.000 
#
# Total GULP energy -55734.685001 kJ/mol
# GULP energy per Si atom -5573.468500 kJ/mol
# Density = 2.683002 g / cm^3
# Si number density = 26.891223 Si / 1000 Ang^3
#
#
#
# Elastic Constant Matrix: (Units=GPa)
#
#
# Indices 1 2 3 4 5 6 
#
# 1 131.4017 59.9919 31.2040 0.0000 24.9517 0.0000
# 2 59.9919 138.0964 70.2091 0.0000 19.2466 0.0000
# 3 31.2040 70.2091 243.3137 0.0000 27.3840 0.0000
# 4 0.0000 0.0000 0.0000 63.4924 0.0000 35.1218
# 5 24.9517 19.2466 27.3840 0.0000 41.8591 0.0000
# 6 0.0000 0.0000 0.0000 35.1218 0.0000 44.2698
#
#
#
# Elastic Compliance Matrix: (Units=1/GPa)
#
#
# Indices 1 2 3 4 5 6 
#
# 1 0.010195 -0.003981 0.000345 0.000000 -0.004472 0.000000
# 2 -0.003981 0.010287 -0.002367 0.000000 -0.000808 0.000000
# 3 0.000345 -0.002367 0.005019 0.000000 -0.002400 0.000000
# 4 0.000000 0.000000 0.000000 0.028068 0.000000 -0.022268
# 5 -0.004472 -0.000808 -0.002400 0.000000 0.028498 0.000000
# 6 0.000000 0.000000 0.000000 -0.022268 0.000000 0.040255
#
#
# Mechanical properties :
#
#
# Convention : Reuss Voigt Hill
#
# Bulk Modulus (GPa) = 74.10421 92.84685 83.47553
# Shear Modulus (GPa) = 36.01658 53.35139 44.68398
#
# Velocity S-wave (km/s) = 3.66367 4.45901 4.08076
# Velocity P-wave (km/s) = 6.74637 7.81743 7.30156
#
# Compressibility (1/GPa) = 0.01349451
#
# Stress axis : x y z
#
# Youngs Moduli (GPa) = 98.08610 97.21368 199.24980
#
# Poissons Ratio (x) = 0.38699 -0.06865
# Poissons Ratio (y) = 0.39047 0.47157
# Poissons Ratio (z) = -0.03379 0.23008
#
# Static dielectric constant tensor:
#      x y z
#    x 2.091680 0.000000 0.227010 
#    y 0.000000 2.036390 0.000000 
#    z 0.227010 0.000000 2.669640 
# 
# From -- ./inp_files/1424.got.cif
#   From: 2010.05.17/outbox.cif.g08.bks.cpg/sg15_1_cif.got.tgz:1424.got - 2010.06.03 18:47:42.
