data_PCOD9282968
_publ_section_title
;
Structure prediction by ZEFSAII (Michael W. Deem and Ramdas Pophale) SiO2 
 PCOD9282968
Probable space group: C 2/C
;
_chemical_formula_sum "Si O2"
_cell_formula_units_Z 48
_cell_length_a 19.217317
_cell_length_b 16.907978
_cell_length_c 16.502817
_cell_angle_alpha 90.000000
_cell_angle_beta 149.176414
_cell_angle_gamma 90.000000
_cell_volume 2747.568918
_symmetry_space_group_name_H-M "C 2/C"
_symmetry_group_IT_number 15
_symmetry_cell_setting 'monoclinic'
loop_
_space_group_symop_operation_xyz
x,y,z
-x,y,1/2-z
-x,-y,-z
x,-y,1/2+z
1/2+x,1/2+y,z
1/2-x,1/2+y,1/2-z
1/2-x,1/2-y,-z
1/2+x,1/2-y,1/2+z
loop_
_atom_site_type_symbol
_atom_site_label
_atom_site_fract_x
_atom_site_fract_y
_atom_site_fract_z
Si Si1 0.877724 0.554885 0.406465
Si Si2 0.208688 0.303025 0.788964
Si Si3 0.006214 0.180845 0.660992
Si Si4 0.377722 0.445116 0.348981
Si Si5 0.506210 0.819154 0.351432
Si Si6 0.208685 0.196974 0.628409
O O1 0.838149 0.612641 0.292449
O O2 0.750000 0.500001 0.300223
O O3 0.925415 0.610304 0.528338
O O4 0.000000 0.500000 0.500000
O O5 0.095447 0.258858 0.729536
O O6 0.227468 0.250000 0.727467
O O7 0.352813 0.308298 0.976641
O O8 0.074589 0.110302 0.677513
O O9 0.000000 0.165281 0.750000
O O10 0.500000 0.500000 0.500000
O O11 0.338148 0.387361 0.383847
O O12 0.500000 0.834717 0.250000
O O13 0.352809 0.808297 0.228979
O O14 0.595441 0.741140 0.461354
#
# Coordination Sequence:
#
# PCOD9282968 Si02
#       6
#     8   8   8   8   8   8
#     4  11  22  41  64  86 120 162 204 243 297 372
#     4  10  21  39  66  85 118 161 207 241 288 370
#     4  11  23  40  60  94 121 155 203 256 305 346
#     4  11  22  41  64  86 120 162 204 243 297 372
#     4  11  23  40  60  94 121 155 203 256 305 346
#     4  10  21  39  66  85 118 161 207 241 288 370
#
# _framework density 17.469989999999999
#
# number of rings (size 3 to 8) (size 9 to 14) (size 15 to 20)
#    0.000    1.333    3.333    4.000    4.667    0.000 
#    6.000    0.000    0.000    0.000    0.000    0.000 
#    0.000    0.000    0.000    0.000    0.000    0.000 
#
# Total GULP energy -134041.043893 kJ/mol
# GULP energy per Si atom -5585.043496 kJ/mol
# Density = 1.743023 g / cm^3
# Si number density = 17.469990 Si / 1000 Ang^3
#
#
#
# Elastic Constant Matrix: (Units=GPa)
#
#
# Indices 1 2 3 4 5 6 
#
# 1 104.7958 50.7091 90.2590 0.0001 7.6657 0.0001
# 2 50.7091 112.1564 68.3058 0.0000 17.8568 0.0000
# 3 90.2590 68.3058 137.6965 -0.0002 25.7313 -0.0001
# 4 0.0001 0.0000 -0.0002 30.5015 0.0000 12.8517
# 5 7.6657 17.8568 25.7313 0.0000 29.3652 0.0000
# 6 0.0001 0.0000 -0.0001 12.8517 0.0000 17.8293
#
#
#
# Elastic Compliance Matrix: (Units=1/GPa)
#
#
# Indices 1 2 3 4 5 6 
#
# 1 0.024162 -0.002454 -0.016407 0.000000 0.009562 0.000000
# 2 -0.002454 0.013200 -0.004256 0.000000 -0.003657 0.000000
# 3 -0.016407 -0.004256 0.022534 0.000000 -0.012875 0.000000
# 4 0.000000 0.000000 0.000000 0.047086 0.000000 -0.033940
# 5 0.009562 -0.003657 -0.012875 0.000000 0.045063 0.000000
# 6 0.000000 0.000000 0.000000 -0.033940 0.000000 0.080552
#
#
# Mechanical properties :
#
#
# Convention : Reuss Voigt Hill
#
# Bulk Modulus (GPa) = 73.19992 85.91074 79.55533
# Shear Modulus (GPa) = 17.64380 25.23085 21.43733
#
# Velocity S-wave (km/s) = 3.18142 3.80444 3.50679
# Velocity P-wave (km/s) = 7.44893 8.28138 7.87616
#
# Compressibility (1/GPa) = 0.01366122
#
# Stress axis : x y z
#
# Youngs Moduli (GPa) = 41.38763 75.75821 44.37696
#
# Poissons Ratio (x) = 0.18593 0.72810
# Poissons Ratio (y) = 0.10157 0.18886
# Poissons Ratio (z) = 0.67906 0.32242
#
# Static dielectric constant tensor:
#      x y z
#    x 1.570890 0.000000 0.015910 
#    y 0.000000 1.640250 0.000000 
#    z 0.015910 0.000000 1.586580 
# 
# From -- ./inp_files/48364.got.cif
#   From: 2010.05.17/outbox.cif.g08.bks.cpg/sg15_25_cif.got.tgz:48364.got - 2010.06.03 18:47:42.
