data_PCOD9282105
_publ_section_title
;
Structure prediction by ZEFSAII (Michael W. Deem and Ramdas Pophale) SiO2 
 PCOD9282105
Probable space group: C 2/C
;
_chemical_formula_sum "Si O2"
_cell_formula_units_Z 40
_cell_length_a 9.433176
_cell_length_b 15.376692
_cell_length_c 17.719182
_cell_angle_alpha 90.000000
_cell_angle_beta 136.668664
_cell_angle_gamma 90.000000
_cell_volume 1763.703349
_symmetry_space_group_name_H-M "C 2/C"
_symmetry_group_IT_number 15
_symmetry_cell_setting 'monoclinic'
loop_
_space_group_symop_operation_xyz
x,y,z
-x,y,1/2-z
-x,-y,-z
x,-y,1/2+z
1/2+x,1/2+y,z
1/2-x,1/2+y,1/2-z
1/2-x,1/2-y,-z
1/2+x,1/2-y,1/2+z
loop_
_atom_site_type_symbol
_atom_site_label
_atom_site_fract_x
_atom_site_fract_y
_atom_site_fract_z
Si Si1 0.000000 0.633984 0.750000
Si Si2 0.681890 0.984825 0.899892
Si Si3 0.436114 0.563217 0.357085
Si Si4 0.000000 0.929753 0.250000
Si Si5 0.583050 0.095538 0.508667
Si Si6 0.201050 0.786086 0.899316
O O1 0.976603 0.565111 0.673442
O O2 0.821423 0.703947 0.665686
O O3 0.246427 0.942988 0.651971
O O4 0.614914 0.911198 0.931468
O O5 0.870397 0.032436 0.016507
O O6 0.414971 0.491569 0.283754
O O7 0.501423 0.651523 0.338502
O O8 0.201588 0.883995 0.364777
O O9 0.396106 0.158437 0.451831
O O10 0.500000 0.000000 0.500000
O O11 0.250000 0.750000 0.000000
#
# Coordination Sequence:
#
# PCOD9282105 Si02
#       6
#     4   8   8   4   8   8
#     4  12  25  40  70 101 140 184 220 302 359 402
#     4  10  23  41  68  99 131 182 244 279 336 422
#     4  10  21  41  67  98 132 182 234 285 332 433
#     4  10  21  38  74  97 134 182 242 278 343 400
#     4  11  22  43  69 105 136 186 237 284 337 437
#     4  12  24  42  68 108 143 178 232 290 358 419
#
# _framework density 22.679552000000001
#
# number of rings (size 3 to 8) (size 9 to 14) (size 15 to 20)
#    0.000    1.200    6.000    0.600    5.600    0.000 
#    0.000    1.000    0.000    3.600    5.200    0.000 
#    0.000    0.000    0.000    0.000    0.000    0.000 
#
# Total GULP energy -111560.121200 kJ/mol
# GULP energy per Si atom -5578.006060 kJ/mol
# Density = 2.262793 g / cm^3
# Si number density = 22.679552 Si / 1000 Ang^3
#
#
#
# Elastic Constant Matrix: (Units=GPa)
#
#
# Indices 1 2 3 4 5 6 
#
# 1 163.4664 50.2718 50.7900 0.0000 -1.9080 0.0000
# 2 50.2718 86.6138 60.9956 0.0001 10.1246 0.0000
# 3 50.7900 60.9956 122.1456 0.0001 -4.2299 0.0001
# 4 0.0000 0.0001 0.0001 38.1141 0.0000 3.5949
# 5 -1.9080 10.1246 -4.2299 0.0000 33.2577 0.0000
# 6 0.0000 0.0000 0.0001 3.5949 0.0000 10.1144
#
#
#
# Elastic Compliance Matrix: (Units=1/GPa)
#
#
# Indices 1 2 3 4 5 6 
#
# 1 0.007676 -0.003711 -0.001290 0.000000 0.001406 0.000000
# 2 -0.003711 0.021162 -0.009296 0.000000 -0.007838 0.000000
# 3 -0.001290 -0.009296 0.013520 0.000000 0.004476 0.000000
# 4 0.000000 0.000000 0.000000 0.027147 0.000000 -0.009649
# 5 0.001406 -0.007838 0.004476 0.000000 0.033104 0.000000
# 6 0.000000 0.000000 0.000000 -0.009649 0.000000 0.102298
#
#
# Mechanical properties :
#
#
# Convention : Reuss Voigt Hill
#
# Bulk Modulus (GPa) = 72.65075 77.37115 75.01095
# Shear Modulus (GPa) = 21.00045 30.30848 25.65446
#
# Velocity S-wave (km/s) = 3.04627 3.65962 3.36694
# Velocity P-wave (km/s) = 6.66904 7.21430 6.94702
#
# Compressibility (1/GPa) = 0.01376448
#
# Stress axis : x y z
#
# Youngs Moduli (GPa) = 130.27649 47.25413 73.96275
#
# Poissons Ratio (x) = 0.17537 0.09540
# Poissons Ratio (y) = 0.48350 0.68755
# Poissons Ratio (z) = 0.16803 0.43927
#
# Static dielectric constant tensor:
#      x y z
#    x 1.962830 0.000000 -0.009900 
#    y 0.000000 1.812430 0.000000 
#    z -0.009900 0.000000 1.963190 
# 
# From -- ./inp_files/270054.got.cif
#   From: 2010.05.17/outbox.cif.g08.bks.cpg/sg15_136_cif.got.tgz:270054.got - 2010.06.03 18:47:42.
