data_PCOD9282995
_publ_section_title
;
Structure prediction by ZEFSAII (Michael W. Deem and Ramdas Pophale) SiO2 
 PCOD9282995
Probable space group: C 2/C
;
_chemical_formula_sum "Si O2"
_cell_formula_units_Z 44
_cell_length_a 19.291531
_cell_length_b 22.427373
_cell_length_c 5.056809
_cell_angle_alpha 90.000000
_cell_angle_beta 122.117249
_cell_angle_gamma 90.000000
_cell_volume 1853.043132
_symmetry_space_group_name_H-M "C 2/C"
_symmetry_group_IT_number 15
_symmetry_cell_setting 'monoclinic'
loop_
_space_group_symop_operation_xyz
x,y,z
-x,y,1/2-z
-x,-y,-z
x,-y,1/2+z
1/2+x,1/2+y,z
1/2-x,1/2+y,1/2-z
1/2-x,1/2-y,-z
1/2+x,1/2-y,1/2+z
loop_
_atom_site_type_symbol
_atom_site_label
_atom_site_fract_x
_atom_site_fract_y
_atom_site_fract_z
Si Si1 0.080353 0.736259 0.022953
Si Si2 0.000000 0.358850 0.750000
Si Si3 0.290537 0.185358 0.589113
Si Si4 0.182586 0.964223 0.117245
Si Si5 0.698750 0.344061 0.403306
Si Si6 0.380967 0.964413 0.509735
O O1 0.141420 0.785384 0.271575
O O2 0.045467 0.685435 0.142042
O O3 0.124200 0.700749 0.873803
O O4 0.000000 0.769325 0.750000
O O5 0.071297 0.405535 0.982205
O O6 0.250000 0.250000 0.500000
O O7 0.275033 0.166641 0.857790
O O8 0.237019 0.146666 0.271390
O O9 0.155560 0.901520 0.188759
O O10 0.282368 0.960216 0.306982
O O11 0.157820 0.015391 0.276083
O O12 0.403495 0.016969 0.352101
#
# Coordination Sequence:
#
# PCOD9282995 Si02
#       6
#     8   4   8   8   8   8
#     4  11  27  38  61  95 133 173 213 259 321 389
#     4  12  26  38  60  88 138 172 212 240 316 388
#     4  10  22  40  64  88 125 172 216 253 315 378
#     4  10  21  39  66  93 113 157 221 273 317 370
#     4  11  23  44  67  91 130 169 214 278 322 376
#     4  10  23  40  61  87 124 167 212 256 304 364
#
# _framework density 23.744724000000001
#
# number of rings (size 3 to 8) (size 9 to 14) (size 15 to 20)
#    0.000    1.455    0.000    4.909   12.727    1.455 
#    0.000    0.000    0.000    1.091    0.000    0.000 
#    0.000    0.000    0.000    0.000    0.000    0.000 
#
# Total GULP energy -122950.390853 kJ/mol
# GULP energy per Si atom -5588.654130 kJ/mol
# Density = 2.369068 g / cm^3
# Si number density = 23.744724 Si / 1000 Ang^3
#
#
#
# Elastic Constant Matrix: (Units=GPa)
#
#
# Indices 1 2 3 4 5 6 
#
# 1 91.7039 34.1020 33.1907 0.0000 -15.5966 0.0000
# 2 34.1020 118.1749 3.5377 0.0000 -12.4857 0.0000
# 3 33.1907 3.5377 73.0132 0.0000 -10.5986 0.0000
# 4 0.0000 0.0000 0.0000 27.4593 0.0000 -6.8273
# 5 -15.5966 -12.4857 -10.5986 0.0000 34.0927 0.0000
# 6 0.0000 0.0000 0.0000 -6.8273 0.0000 42.3031
#
#
#
# Elastic Compliance Matrix: (Units=1/GPa)
#
#
# Indices 1 2 3 4 5 6 
#
# 1 0.015179 -0.003812 -0.006189 0.000000 0.003624 0.000000
# 2 -0.003812 0.009760 0.001598 0.000000 0.002327 0.000000
# 3 -0.006189 0.001598 0.016867 0.000000 0.002997 0.000000
# 4 0.000000 0.000000 0.000000 0.037940 0.000000 0.006123
# 5 0.003624 0.002327 0.002997 0.000000 0.032774 0.000000
# 6 0.000000 0.000000 0.000000 0.006123 0.000000 0.024627
#
#
# Mechanical properties :
#
#
# Convention : Reuss Voigt Hill
#
# Bulk Modulus (GPa) = 40.00120 47.17252 43.58686
# Shear Modulus (GPa) = 30.80963 34.90846 32.85905
#
# Velocity S-wave (km/s) = 3.60604 3.83842 3.72404
# Velocity P-wave (km/s) = 5.84987 6.28922 6.07352
#
# Compressibility (1/GPa) = 0.02499925
#
# Stress axis : x y z
#
# Youngs Moduli (GPa) = 65.88202 102.45766 59.28598
#
# Poissons Ratio (x) = 0.39057 0.36694
# Poissons Ratio (y) = 0.25114 -0.09473
# Poissons Ratio (z) = 0.40776 -0.16371
#
# Static dielectric constant tensor:
#      x y z
#    x 1.935750 0.000000 0.013450 
#    y 0.000000 1.928360 0.000000 
#    z 0.013450 0.000000 2.001840 
# 
# From -- ./inp_files/10424.got.cif
#   From: 2010.05.17/outbox.cif.g08.bks.cpg/sg15_6_cif.got.tgz:10424.got - 2010.06.03 18:47:42.
