data_PCOD9282813
_publ_section_title
;
Structure prediction by ZEFSAII (Michael W. Deem and Ramdas Pophale) SiO2 
 PCOD9282813
Probable space group: C 2/C
;
_chemical_formula_sum "Si O2"
_cell_formula_units_Z 60
_cell_length_a 21.722819
_cell_length_b 19.971662
_cell_length_c 9.393660
_cell_angle_alpha 90.000000
_cell_angle_beta 42.210942
_cell_angle_gamma 90.000000
_cell_volume 2738.074998
_symmetry_space_group_name_H-M "C 2/C"
_symmetry_group_IT_number 15
_symmetry_cell_setting 'monoclinic'
loop_
_space_group_symop_operation_xyz
x,y,z
-x,y,1/2-z
-x,-y,-z
x,-y,1/2+z
1/2+x,1/2+y,z
1/2-x,1/2+y,1/2-z
1/2-x,1/2-y,-z
1/2+x,1/2-y,1/2+z
loop_
_atom_site_type_symbol
_atom_site_label
_atom_site_fract_x
_atom_site_fract_y
_atom_site_fract_z
Si Si1 0.415537 0.137070 0.155203
Si Si2 0.811627 0.290427 0.506030
Si Si3 0.965151 0.215780 0.652656
Si Si4 0.162378 0.524393 0.393772
Si Si5 0.917561 0.161266 0.293108
Si Si6 0.000000 0.563176 0.250000
Si Si7 0.769115 0.180666 0.043864
Si Si8 0.763244 0.578171 0.968463
O O1 0.438492 0.215897 0.113784
O O2 0.399757 0.087871 0.050106
O O3 0.492807 0.107388 0.122802
O O4 0.308709 0.133885 0.392307
O O5 0.750000 0.250000 0.500000
O O6 0.887480 0.234189 0.407332
O O7 0.757599 0.309464 0.743825
O O8 0.831693 0.358931 0.385854
O O9 0.000000 0.235413 0.750000
O O10 0.041432 0.177579 0.432225
O O11 0.875458 0.169449 0.831842
O O12 0.090184 0.480286 0.602326
O O13 0.242474 0.545900 0.364143
O O14 0.199392 0.477489 0.203606
O O15 0.830313 0.112342 0.427555
O O16 0.000000 0.134848 0.250000
O O17 0.750000 0.250000 0.000000
#
# Coordination Sequence:
#
# PCOD9282813 Si02
#       8
#     8   8   8   8   8   4   8   8
#     4  11  23  41  65  96 140 174 222 280 357 412
#     4  10  21  41  68  98 138 179 225 286 364 414
#     4  11  23  39  69 103 138 171 233 289 346 418
#     4  12  26  46  69  98 140 190 234 288 346 432
#     4  11  25  45  71 108 140 184 234 296 355 420
#     4  12  26  42  64 106 126 176 232 288 342 406
#     4  10  21  39  64  98 134 179 217 281 354 417
#     4  11  26  47  71  97 143 190 238 280 360 423
#
# _framework density 21.913205000000001
#
# number of rings (size 3 to 8) (size 9 to 14) (size 15 to 20)
#    0.000    1.067    3.333    3.600    1.867    5.333 
#    0.000    0.667    0.000    0.000    0.000    0.000 
#    0.000    0.000    0.000    0.000    0.000    0.000 
#
# Total GULP energy -167163.126678 kJ/mol
# GULP energy per Si atom -5572.104223 kJ/mol
# Density = 2.186333 g / cm^3
# Si number density = 21.913205 Si / 1000 Ang^3
#
#
#
# Elastic Constant Matrix: (Units=GPa)
#
#
# Indices 1 2 3 4 5 6 
#
# 1 126.2329 40.9161 16.4017 0.0000 9.1465 0.0000
# 2 40.9161 69.3230 25.0366 0.0000 6.9601 0.0000
# 3 16.4017 25.0366 81.3425 0.0000 5.6557 0.0000
# 4 0.0000 0.0000 0.0000 25.3505 0.0000 -2.6337
# 5 9.1465 6.9601 5.6557 0.0000 34.5547 0.0000
# 6 0.0000 0.0000 0.0000 -2.6337 0.0000 33.6929
#
#
#
# Elastic Compliance Matrix: (Units=1/GPa)
#
#
# Indices 1 2 3 4 5 6 
#
# 1 0.009870 -0.005622 -0.000159 0.000000 -0.001454 0.000000
# 2 -0.005622 0.019645 -0.004796 0.000000 -0.001684 0.000000
# 3 -0.000159 -0.004796 0.013890 0.000000 -0.001265 0.000000
# 4 0.000000 0.000000 0.000000 0.039770 0.000000 0.003109
# 5 -0.001454 -0.001684 -0.001265 0.000000 0.029871 0.000000
# 6 0.000000 0.000000 0.000000 0.003109 0.000000 0.029923
#
#
# Mechanical properties :
#
#
# Convention : Reuss Voigt Hill
#
# Bulk Modulus (GPa) = 44.94111 49.06746 47.00429
# Shear Modulus (GPa) = 29.14790 31.68922 30.41856
#
# Velocity S-wave (km/s) = 3.65108 3.80692 3.72981
# Velocity P-wave (km/s) = 6.19089 6.46250 6.32815
#
# Compressibility (1/GPa) = 0.02225134
#
# Stress axis : x y z
#
# Youngs Moduli (GPa) = 101.31479 50.90410 71.99544
#
# Poissons Ratio (x) = 0.28620 0.01142
# Poissons Ratio (y) = 0.56963 0.34527
# Poissons Ratio (z) = 0.01607 0.24412
#
# Static dielectric constant tensor:
#      x y z
#    x 1.855850 0.000000 0.019380 
#    y 0.000000 1.950050 0.000000 
#    z 0.019380 0.000000 1.877570 
# 
# From -- ./inp_files/58069.got.cif
#   From: 2010.05.17/outbox.cif.g08.bks.cpg/sg15_30_cif.got.tgz:58069.got - 2010.06.03 18:47:42.
