data_PCOD9282961
_publ_section_title
;
Structure prediction by ZEFSAII (Michael W. Deem and Ramdas Pophale) SiO2 
 PCOD9282961
Probable space group: C 2/C
;
_chemical_formula_sum "Si O2"
_cell_formula_units_Z 60
_cell_length_a 16.841459
_cell_length_b 20.132806
_cell_length_c 8.635866
_cell_angle_alpha 90.000000
_cell_angle_beta 113.920402
_cell_angle_gamma 90.000000
_cell_volume 2676.629141
_symmetry_space_group_name_H-M "C 2/C"
_symmetry_group_IT_number 15
_symmetry_cell_setting 'monoclinic'
loop_
_space_group_symop_operation_xyz
x,y,z
-x,y,1/2-z
-x,-y,-z
x,-y,1/2+z
1/2+x,1/2+y,z
1/2-x,1/2+y,1/2-z
1/2-x,1/2-y,-z
1/2+x,1/2-y,1/2+z
loop_
_atom_site_type_symbol
_atom_site_label
_atom_site_fract_x
_atom_site_fract_y
_atom_site_fract_z
Si Si1 0.500000 0.601116 0.750000
Si Si2 0.474122 0.171871 0.901326
Si Si3 0.676514 0.456996 0.261757
Si Si4 0.725318 0.839488 0.319938
Si Si5 0.245556 0.190623 0.305865
Si Si6 0.260377 0.063127 0.146154
Si Si7 0.050187 0.554780 0.132652
Si Si8 0.539342 0.325579 0.614567
O O1 0.416938 0.558996 0.740217
O O2 0.475426 0.639499 0.566648
O O3 0.500000 0.152001 0.750000
O O4 0.370640 0.156608 0.832745
O O5 0.493107 0.249828 0.933451
O O6 0.535525 0.127692 0.054219
O O7 0.710740 0.399392 0.173513
O O8 0.685134 0.527983 0.186784
O O9 0.742346 0.453366 0.456494
O O10 0.716535 0.833882 0.499530
O O11 0.765510 0.768285 0.301197
O O12 0.268671 0.141135 0.185896
O O13 0.141306 0.183330 0.231275
O O14 0.350972 0.033618 0.272213
O O15 0.000000 0.556749 0.250000
O O16 0.000000 0.500000 0.000000
O O17 0.500000 0.351846 0.750000
#
# Coordination Sequence:
#
# PCOD9282961 Si02
#       8
#     4   8   8   8   8   8   8   8
#     4  12  26  48  72 102 136 180 244 294 352 418
#     4  10  21  39  66 103 138 181 224 275 350 418
#     4  12  27  46  68 100 133 183 233 291 352 414
#     4  10  21  41  70 100 141 180 227 282 347 417
#     4  10  21  42  68 100 133 185 226 279 351 412
#     4  12  25  45  67  95 138 178 229 284 348 416
#     4  12  25  41  64  96 135 180 226 280 343 423
#     4  10  22  43  69 103 143 178 232 293 349 413
#
# _framework density 22.416255
#
# number of rings (size 3 to 8) (size 9 to 14) (size 15 to 20)
#    0.000    1.067    1.333    5.200    0.933    4.267 
#    1.200    0.000    0.000    0.000    0.000    0.000 
#    0.000    0.000    0.000    0.000    0.000    0.000 
#
# Total GULP energy -167611.621900 kJ/mol
# GULP energy per Si atom -5587.054063 kJ/mol
# Density = 2.236523 g / cm^3
# Si number density = 22.416255 Si / 1000 Ang^3
#
#
#
# Elastic Constant Matrix: (Units=GPa)
#
#
# Indices 1 2 3 4 5 6 
#
# 1 81.7213 11.5714 9.3214 0.0000 2.8382 0.0000
# 2 11.5714 62.3483 20.9346 0.0000 -9.3419 0.0000
# 3 9.3214 20.9346 92.6835 0.0000 -4.0847 0.0000
# 4 0.0000 0.0000 0.0000 28.0487 0.0000 -2.3807
# 5 2.8382 -9.3419 -4.0847 0.0000 40.2915 0.0000
# 6 0.0000 0.0000 0.0000 -2.3807 0.0000 30.1651
#
#
#
# Elastic Compliance Matrix: (Units=1/GPa)
#
#
# Indices 1 2 3 4 5 6 
#
# 1 0.012710 -0.002309 -0.000823 0.000000 -0.001514 0.000000
# 2 -0.002309 0.018324 -0.003729 0.000000 0.004033 0.000000
# 3 -0.000823 -0.003729 0.011731 0.000000 0.000383 0.000000
# 4 0.000000 0.000000 0.000000 0.035893 0.000000 0.002833
# 5 -0.001514 0.004033 0.000383 0.000000 0.025900 0.000000
# 6 0.000000 0.000000 0.000000 0.002833 0.000000 0.033374
#
#
# Mechanical properties :
#
#
# Convention : Reuss Voigt Hill
#
# Bulk Modulus (GPa) = 34.43264 35.60088 35.01676
# Shear Modulus (GPa) = 30.99118 32.69611 31.84364
#
# Velocity S-wave (km/s) = 3.72227 3.82329 3.77312
# Velocity P-wave (km/s) = 5.81959 5.95032 5.88532
#
# Compressibility (1/GPa) = 0.02904221
#
# Stress axis : x y z
#
# Youngs Moduli (GPa) = 78.67692 54.57370 85.24191
#
# Poissons Ratio (x) = 0.12603 0.07019
# Poissons Ratio (y) = 0.18169 0.31785
# Poissons Ratio (z) = 0.06478 0.20350
#
# Static dielectric constant tensor:
#      x y z
#    x 1.832110 0.000000 0.010220 
#    y 0.000000 1.842290 0.000000 
#    z 0.010220 0.000000 1.798160 
# 
# From -- ./inp_files/50673.got.cif
#   From: 2010.05.17/outbox.cif.g08.bks.cpg/sg15_26_cif.got.tgz:50673.got - 2010.06.03 18:47:42.
