data_PCOD9282695
_publ_section_title
;
Structure prediction by ZEFSAII (Michael W. Deem and Ramdas Pophale) SiO2 
 PCOD9282695
Probable space group: C 2/C
;
_chemical_formula_sum "Si O2"
_cell_formula_units_Z 56
_cell_length_a 15.643529
_cell_length_b 14.038191
_cell_length_c 13.152290
_cell_angle_alpha 90.000000
_cell_angle_beta 57.401505
_cell_angle_gamma 90.000000
_cell_volume 2433.323893
_symmetry_space_group_name_H-M "C 2/C"
_symmetry_group_IT_number 15
_symmetry_cell_setting 'monoclinic'
loop_
_space_group_symop_operation_xyz
x,y,z
-x,y,1/2-z
-x,-y,-z
x,-y,1/2+z
1/2+x,1/2+y,z
1/2-x,1/2+y,1/2-z
1/2-x,1/2-y,-z
1/2+x,1/2-y,1/2+z
loop_
_atom_site_type_symbol
_atom_site_label
_atom_site_fract_x
_atom_site_fract_y
_atom_site_fract_z
Si Si1 0.084641 0.538660 0.275067
Si Si2 0.894911 0.965285 0.378382
Si Si3 0.094533 0.692039 0.431316
Si Si4 0.192131 0.849402 0.241385
Si Si5 0.817921 0.954625 0.634918
Si Si6 0.409370 0.184030 0.686308
Si Si7 0.683224 0.344610 0.651888
O O1 0.071668 0.591853 0.390879
O O2 0.202026 0.558628 0.169634
O O3 0.073104 0.425447 0.295331
O O4 0.000000 0.572349 0.250000
O O5 0.827519 0.891609 0.356937
O O6 0.896082 0.936088 0.494666
O O7 0.000000 0.968418 0.250000
O O8 0.848219 0.071942 0.403797
O O9 0.118755 0.765737 0.325224
O O10 0.198573 0.681655 0.428303
O O11 0.002411 0.720735 0.560778
O O12 0.307046 0.815972 0.183949
O O13 0.175610 0.937666 0.328658
O O14 0.831978 0.891619 0.726166
O O15 0.383348 0.249983 0.799231
#
# Coordination Sequence:
#
# PCOD9282695 Si02
#       7
#     8   8   8   8   8   8   8
#     4  10  22  37  58  92 116 148 201 242 294 352
#     4  11  24  37  65  88 118 157 195 241 301 340
#     4  10  21  39  64  82 118 163 189 240 301 338
#     4   9  22  42  58  91 119 151 204 236 287 363
#     4   9  21  41  61  85 121 153 190 252 287 343
#     4  10  21  39  64  82 118 163 189 240 301 338
#     4   9  22  42  58  91 119 151 204 236 287 363
#
# _framework density 23.013788000000002
#
# number of rings (size 3 to 8) (size 9 to 14) (size 15 to 20)
#    0.000    2.286    0.000    1.286    8.000    2.286 
#    0.000    4.286    0.000    0.000    0.000    0.000 
#    0.000    0.000    0.000    0.000    0.000    0.000 
#
# Total GULP energy -156675.676102 kJ/mol
# GULP energy per Si atom -5595.559861 kJ/mol
# Density = 2.296141 g / cm^3
# Si number density = 23.013788 Si / 1000 Ang^3
#
#
#
# Elastic Constant Matrix: (Units=GPa)
#
#
# Indices 1 2 3 4 5 6 
#
# 1 54.1373 10.6696 20.1889 0.0000 -5.5286 0.0000
# 2 10.6696 90.5760 15.3024 0.0000 -1.4536 0.0000
# 3 20.1889 15.3024 116.8685 0.0000 -6.3260 0.0000
# 4 0.0000 0.0000 0.0000 9.7501 0.0000 -11.1402
# 5 -5.5286 -1.4536 -6.3260 0.0000 22.6471 0.0000
# 6 0.0000 0.0000 0.0000 -11.1402 0.0000 0.9915
#
#
#
# Elastic Compliance Matrix: (Units=1/GPa)
#
#
# Indices 1 2 3 4 5 6 
#
# 1 0.020382 -0.001819 -0.003066 0.000000 0.004002 0.000000
# 2 -0.001819 0.011455 -0.001188 0.000000 -0.000041 0.000000
# 3 -0.003066 -0.001188 0.009338 0.000000 0.001784 0.000000
# 4 0.000000 0.000000 0.000000 -0.008664 0.000000 -0.097347
# 5 0.004002 -0.000041 0.001784 0.000000 0.045628 0.000000
# 6 0.000000 0.000000 0.000000 -0.097347 0.000000 -0.085200
#
#
# Mechanical properties :
#
#
# Convention : Reuss Voigt Hill
#
# Bulk Modulus (GPa) = 34.44743 39.32262 36.88503
# Shear Modulus (GPa) = 338.69871 21.03912 179.86891
#
# Velocity S-wave (km/s) = 12.14461 3.02685 8.85024
# Velocity P-wave (km/s) = 14.54841 5.41658 10.97715
#
# Compressibility (1/GPa) = 0.02902974
#
# Stress axis : x y z
#
# Youngs Moduli (GPa) = 49.06248 87.30022 107.08474
#
# Poissons Ratio (x) = 0.15877 0.32834
# Poissons Ratio (y) = 0.08923 0.12720
# Poissons Ratio (z) = 0.15044 0.10370
#
# Static dielectric constant tensor:
#      x y z
#    x 1.872360 0.000000 -0.010100 
#    y 0.000000 1.900660 0.000000 
#    z -0.010100 0.000000 1.827840 
# 
# From -- ./inp_files/162189.got.cif
#   From: 2010.05.17/outbox.cif.g08.bks.cpg/sg15_82_cif.got.tgz:162189.got - 2010.06.03 18:47:42.
