data_PCOD9282230
_publ_section_title
;
Structure prediction by ZEFSAII (Michael W. Deem and Ramdas Pophale) SiO2 
 PCOD9282230
Probable space group: C 2/C
;
_chemical_formula_sum "Si O2"
_cell_formula_units_Z 52
_cell_length_a 13.029912
_cell_length_b 19.662712
_cell_length_c 18.416696
_cell_angle_alpha 90.000000
_cell_angle_beta 28.905405
_cell_angle_gamma 90.000000
_cell_volume 2280.719059
_symmetry_space_group_name_H-M "C 2/C"
_symmetry_group_IT_number 15
_symmetry_cell_setting 'monoclinic'
loop_
_space_group_symop_operation_xyz
x,y,z
-x,y,1/2-z
-x,-y,-z
x,-y,1/2+z
1/2+x,1/2+y,z
1/2-x,1/2+y,1/2-z
1/2-x,1/2-y,-z
1/2+x,1/2-y,1/2+z
loop_
_atom_site_type_symbol
_atom_site_label
_atom_site_fract_x
_atom_site_fract_y
_atom_site_fract_z
Si Si1 0.653033 0.167048 0.397948
Si Si2 0.955215 0.060308 0.142956
Si Si3 0.055924 0.787331 0.055760
Si Si4 0.000000 0.270483 0.250000
Si Si5 0.899570 0.607889 0.920587
Si Si6 0.000000 0.258351 0.750000
Si Si7 0.973187 0.070155 0.960259
Si Si8 0.500000 0.991675 0.750000
O O1 0.766073 0.110233 0.279268
O O2 0.512164 0.215866 0.435473
O O3 0.546086 0.128045 0.531216
O O4 0.820998 0.220542 0.328893
O O5 0.013572 0.064422 0.021468
O O6 0.152530 0.084698 0.069129
O O7 0.920012 0.979686 0.165462
O O8 0.043280 0.782881 0.150049
O O9 0.286125 0.800907 0.877988
O O10 0.935178 0.854887 0.110054
O O11 0.080369 0.322817 0.138660
O O12 0.013304 0.544359 0.810186
O O13 0.718601 0.051530 0.108904
#
# Coordination Sequence:
#
# PCOD9282230 Si02
#       8
#     8   8   8   4   8   4   8   4
#     4  12  23  37  67 102 135 174 216 287 333 409
#     4  10  21  40  60  94 137 180 218 266 344 406
#     4  11  24  43  72  97 133 175 241 279 353 383
#     4  11  22  32  60  96 144 165 210 264 340 409
#     4  10  21  39  59  99 134 175 218 272 341 405
#     4  10  25  48  64  98 129 176 232 306 323 406
#     4  10  21  40  66  91 129 186 226 277 331 412
#     4   9  21  42  66  88 133 185 228 272 335 403
#
# _framework density 22.799825999999999
#
# number of rings (size 3 to 8) (size 9 to 14) (size 15 to 20)
#    0.000    1.538    1.538    2.769    4.308    2.462 
#    5.538    0.769    0.000    0.000    0.000    0.000 
#    0.000    0.000    0.000    0.000    0.000    0.000 
#
# Total GULP energy -145060.998283 kJ/mol
# GULP energy per Si atom -5579.269165 kJ/mol
# Density = 2.274793 g / cm^3
# Si number density = 22.799826 Si / 1000 Ang^3
#
#
#
# Elastic Constant Matrix: (Units=GPa)
#
#
# Indices 1 2 3 4 5 6 
#
# 1 46.9787 -4.6815 24.1916 -0.0159 1.1916 0.0259
# 2 -4.6815 98.7712 48.3904 -0.0695 5.5572 0.0471
# 3 24.1916 48.3904 94.8371 -0.0416 1.7437 0.1089
# 4 -0.0159 -0.0695 -0.0416 22.9197 0.0048 7.0085
# 5 1.1916 5.5572 1.7437 0.0048 25.7334 -0.0445
# 6 0.0259 0.0471 0.1089 7.0085 -0.0445 27.2606
#
#
#
# Elastic Compliance Matrix: (Units=1/GPa)
#
#
# Indices 1 2 3 4 5 6 
#
# 1 0.027200 0.006374 -0.010155 0.000022 -0.001948 -0.000005
# 2 0.006374 0.015149 -0.009302 0.000037 -0.002936 -0.000009
# 3 -0.010155 -0.009302 0.017858 0.000011 0.001269 -0.000046
# 4 0.000022 0.000037 0.000011 0.047353 -0.000040 -0.012174
# 5 -0.001948 -0.002936 0.001269 -0.000040 0.039498 0.000077
# 6 -0.000005 -0.000009 -0.000046 -0.012174 0.000077 0.039813
#
#
# Mechanical properties :
#
#
# Convention : Reuss Voigt Hill
#
# Bulk Modulus (GPa) = 29.37583 41.82089 35.59836
# Shear Modulus (GPa) = 22.28328 26.69519 24.48924
#
# Velocity S-wave (km/s) = 3.12964 3.42548 3.28090
# Velocity P-wave (km/s) = 5.09625 5.83333 5.47720
#
# Compressibility (1/GPa) = 0.03404159
#
# Stress axis : x y z
#
# Youngs Moduli (GPa) = 36.76462 66.01184 55.99865
#
# Poissons Ratio (x) = -0.42075 0.56866
# Poissons Ratio (y) = -0.23434 0.52087
# Poissons Ratio (z) = 0.37334 0.61401
#
# Static dielectric constant tensor:
#      x y z
#    x 1.930320 -0.000010 -0.105320 
#    y -0.000010 1.920540 0.000020 
#    z -0.105320 0.000020 1.895770 
# 
# From -- ./inp_files/206814.got.cif
#   From: 2010.05.17/outbox.cif.g08.bks.cpg/sg15_104_cif.got.tgz:206814.got - 2010.06.03 18:47:42.
