data_PCOD9282480
_publ_section_title
;
Structure prediction by ZEFSAII (Michael W. Deem and Ramdas Pophale) SiO2 
 PCOD9282480
Probable space group: C 2/C
;
_chemical_formula_sum "Si O2"
_cell_formula_units_Z 48
_cell_length_a 8.813363
_cell_length_b 18.823393
_cell_length_c 30.959226
_cell_angle_alpha 90.000000
_cell_angle_beta 149.724124
_cell_angle_gamma 90.000000
_cell_volume 2589.414280
_symmetry_space_group_name_H-M "C 2/C"
_symmetry_group_IT_number 15
_symmetry_cell_setting 'monoclinic'
loop_
_space_group_symop_operation_xyz
x,y,z
-x,y,1/2-z
-x,-y,-z
x,-y,1/2+z
1/2+x,1/2+y,z
1/2-x,1/2+y,1/2-z
1/2-x,1/2-y,-z
1/2+x,1/2-y,1/2+z
loop_
_atom_site_type_symbol
_atom_site_label
_atom_site_fract_x
_atom_site_fract_y
_atom_site_fract_z
Si Si1 0.216436 0.577449 0.342411
Si Si2 0.309775 0.674963 0.992267
Si Si3 0.146836 0.572579 0.160957
Si Si4 0.760621 0.075176 0.652749
Si Si5 0.821237 0.043274 0.572800
Si Si6 0.794396 0.169762 0.495298
O O1 0.447609 0.635686 0.417518
O O2 0.426954 0.511811 0.380953
O O3 0.000000 0.600013 0.250000
O O4 0.998168 0.558970 0.328351
O O5 0.443057 0.672697 0.976361
O O6 0.250000 0.750000 0.000000
O O7 0.996836 0.633355 0.913332
O O8 0.500000 0.583744 0.250000
O O9 0.100945 0.500629 0.122661
O O10 0.991360 0.639671 0.101051
O O11 0.907725 0.069542 0.641939
O O12 0.000000 0.086375 0.750000
O O13 0.821391 0.111127 0.540401
O O14 0.500000 0.000000 0.500000
O O15 0.750000 0.250000 0.500000
#
# Coordination Sequence:
#
# PCOD9282480 Si02
#       6
#     8   8   8   8   8   8
#     4  11  23  38  65  96 124 167 221 267 327 398
#     4  11  24  42  62  90 133 173 216 272 336 402
#     4  10  21  39  62  92 125 161 214 273 326 388
#     4  11  22  39  66  92 126 168 215 271 329 388
#     4  12  22  40  67  95 132 169 219 276 328 395
#     4  11  24  40  63  90 125 173 216 265 337 401
#
# _framework density 18.537011
#
# number of rings (size 3 to 8) (size 9 to 14) (size 15 to 20)
#    0.000    1.000    3.333    4.000    0.000    3.333 
#    0.000    4.167    0.000    0.000    0.000    0.000 
#    0.000    0.000    0.000    0.000    0.000    0.000 
#
# Total GULP energy -133950.814269 kJ/mol
# GULP energy per Si atom -5581.283928 kJ/mol
# Density = 1.849482 g / cm^3
# Si number density = 18.537011 Si / 1000 Ang^3
#
#
#
# Elastic Constant Matrix: (Units=GPa)
#
#
# Indices 1 2 3 4 5 6 
#
# 1 177.8497 86.5450 77.0088 -0.0002 -11.2788 0.0004
# 2 86.5450 135.5578 57.8326 -0.0005 -0.1142 0.0004
# 3 77.0088 57.8326 103.3108 0.0005 -7.7089 0.0005
# 4 -0.0002 -0.0005 0.0005 9.6328 -0.0004 -7.9886
# 5 -11.2788 -0.1142 -7.7089 -0.0004 39.2623 0.0005
# 6 0.0004 0.0004 0.0005 -7.9886 0.0005 33.5960
#
#
#
# Elastic Compliance Matrix: (Units=1/GPa)
#
#
# Indices 1 2 3 4 5 6 
#
# 1 0.009923 -0.004254 -0.004875 0.000000 0.001881 0.000000
# 2 -0.004254 0.011558 -0.003438 0.000001 -0.001863 0.000000
# 3 -0.004875 -0.003438 0.015358 -0.000001 0.001605 -0.000001
# 4 0.000000 0.000001 -0.000001 0.129311 0.000001 0.030748
# 5 0.001881 -0.001863 0.001605 0.000001 0.026320 0.000000
# 6 0.000000 0.000000 -0.000001 0.030748 0.000000 0.037077
#
#
# Mechanical properties :
#
#
# Convention : Reuss Voigt Hill
#
# Bulk Modulus (GPa) = 85.43668 95.49901 90.46784
# Shear Modulus (GPa) = 19.33619 29.52034 24.42827
#
# Velocity S-wave (km/s) = 3.23323 3.99495 3.63410
# Velocity P-wave (km/s) = 7.75424 8.53870 8.15591
#
# Compressibility (1/GPa) = 0.01170457
#
# Stress axis : x y z
#
# Youngs Moduli (GPa) = 100.77791 86.52042 65.11285
#
# Poissons Ratio (x) = 0.36803 0.31743
# Poissons Ratio (y) = 0.42868 0.22388
# Poissons Ratio (z) = 0.49129 0.29749
#
# Static dielectric constant tensor:
#      x y z
#    x 1.660130 0.000000 -0.025030 
#    y 0.000000 1.595770 0.000000 
#    z -0.025030 0.000000 1.640160 
# 
# From -- ./inp_files/134799.got.cif
#   From: 2010.05.17/outbox.cif.g08.bks.cpg/sg15_68_cif.got.tgz:134799.got - 2010.06.03 18:47:42.
