data_PCOD9282644
_publ_section_title
;
Structure prediction by ZEFSAII (Michael W. Deem and Ramdas Pophale) SiO2 
 PCOD9282644
Probable space group: C 2/C
;
_chemical_formula_sum "Si O2"
_cell_formula_units_Z 40
_cell_length_a 8.096197
_cell_length_b 20.717105
_cell_length_c 13.401610
_cell_angle_alpha 90.000000
_cell_angle_beta 127.104978
_cell_angle_gamma 90.000000
_cell_volume 1792.730324
_symmetry_space_group_name_H-M "C 2/C"
_symmetry_group_IT_number 15
_symmetry_cell_setting 'monoclinic'
loop_
_space_group_symop_operation_xyz
x,y,z
-x,y,1/2-z
-x,-y,-z
x,-y,1/2+z
1/2+x,1/2+y,z
1/2-x,1/2+y,1/2-z
1/2-x,1/2-y,-z
1/2+x,1/2-y,1/2+z
loop_
_atom_site_type_symbol
_atom_site_label
_atom_site_fract_x
_atom_site_fract_y
_atom_site_fract_z
Si Si1 0.872565 0.909627 0.027772
Si Si2 0.321321 0.324922 0.813757
Si Si3 0.269777 0.208195 0.906954
Si Si4 0.307038 0.041272 0.605467
Si Si5 0.291207 0.152153 0.438370
O O1 0.810369 0.867569 0.908367
O O2 0.739289 0.974360 0.968174
O O3 0.832019 0.861279 0.105598
O O4 0.107949 0.934338 0.097614
O O5 0.214500 0.255410 0.794306
O O6 0.223179 0.362188 0.684812
O O7 0.566788 0.318396 0.881534
O O8 0.250000 0.250000 0.000000
O O9 0.512884 0.197263 0.979102
O O10 0.500000 0.037039 0.750000
O O11 0.329884 0.093369 0.526297
#
# Coordination Sequence:
#
# PCOD9282644 Si02
#       5
#     8   8   8   8   8
#     4   9  21  41  66  96 126 165 217 264 324 377
#     4   9  20  41  66  90 129 166 208 269 320 390
#     4  10  21  39  63  94 124 163 213 265 317 380
#     4  10  22  43  65  90 133 171 212 263 314 389
#     4  10  21  40  64  93 125 172 211 253 332 378
#
# _framework density 22.312334
#
# number of rings (size 3 to 8) (size 9 to 14) (size 15 to 20)
#    0.000    2.400    0.000    0.600    2.800    3.200 
#   18.000    0.000    0.000    0.000    0.000    0.000 
#    0.000    0.000    0.000    0.000    0.000    0.000 
#
# Total GULP energy -111640.067458 kJ/mol
# GULP energy per Si atom -5582.003373 kJ/mol
# Density = 2.226155 g / cm^3
# Si number density = 22.312334 Si / 1000 Ang^3
#
#
#
# Elastic Constant Matrix: (Units=GPa)
#
#
# Indices 1 2 3 4 5 6 
#
# 1 39.6635 47.2886 29.5803 0.0000 -6.1078 0.0000
# 2 47.2886 126.0703 50.6473 0.0000 0.9457 0.0000
# 3 29.5803 50.6473 114.7287 0.0000 1.8076 0.0000
# 4 0.0000 0.0000 0.0000 -0.7516 0.0000 10.3971
# 5 -6.1078 0.9457 1.8076 0.0000 23.8113 0.0000
# 6 0.0000 0.0000 0.0000 10.3971 0.0000 29.9847
#
#
#
# Elastic Compliance Matrix: (Units=1/GPa)
#
#
# Indices 1 2 3 4 5 6 
#
# 1 0.052924 -0.017489 -0.006157 0.000000 0.014737 0.000000
# 2 -0.017489 0.015421 -0.002221 0.000000 -0.004930 0.000000
# 3 -0.006157 -0.002221 0.011321 0.000000 -0.002351 0.000000
# 4 0.000000 0.000000 0.000000 -0.229528 0.000000 0.079588
# 5 0.014737 -0.004930 -0.002351 0.000000 0.046151 0.000000
# 6 0.000000 0.000000 0.000000 0.079588 0.000000 0.005753
#
#
# Mechanical properties :
#
#
# Convention : Reuss Voigt Hill
#
# Bulk Modulus (GPa) = 35.80000 59.49945 47.64973
# Shear Modulus (GPa) = -135.45543 20.80530 -57.32507
#
# Velocity S-wave (km/s) = -7.80004 3.05693 -5.07424
# Velocity P-wave (km/s) = 8.06480 6.25973 3.59560
#
# Compressibility (1/GPa) = 0.02793296
#
# Stress axis : x y z
#
# Youngs Moduli (GPa) = 18.89502 64.84552 88.32987
#
# Poissons Ratio (x) = 1.13406 0.54385
# Poissons Ratio (y) = 0.33045 0.19618
# Poissons Ratio (z) = 0.11634 0.14402
#
# Static dielectric constant tensor:
#      x y z
#    x 1.847180 0.000000 0.008370 
#    y 0.000000 1.820590 0.000000 
#    z 0.008370 0.000000 1.811120 
# 
# From -- ./inp_files/136314.got.cif
#   From: 2010.05.17/outbox.cif.g08.bks.cpg/sg15_69_cif.got.tgz:136314.got - 2010.06.03 18:47:42.
