data_PCOD9282287
_publ_section_title
;
Structure prediction by ZEFSAII (Michael W. Deem and Ramdas Pophale) SiO2 
 PCOD9282287
Probable space group: C 2/C
;
_chemical_formula_sum "Si O2"
_cell_formula_units_Z 48
_cell_length_a 7.357114
_cell_length_b 14.436023
_cell_length_c 23.621051
_cell_angle_alpha 90.000000
_cell_angle_beta 117.404269
_cell_angle_gamma 90.000000
_cell_volume 2227.204833
_symmetry_space_group_name_H-M "C 2/C"
_symmetry_group_IT_number 15
_symmetry_cell_setting 'monoclinic'
loop_
_space_group_symop_operation_xyz
x,y,z
-x,y,1/2-z
-x,-y,-z
x,-y,1/2+z
1/2+x,1/2+y,z
1/2-x,1/2+y,1/2-z
1/2-x,1/2-y,-z
1/2+x,1/2-y,1/2+z
loop_
_atom_site_type_symbol
_atom_site_label
_atom_site_fract_x
_atom_site_fract_y
_atom_site_fract_z
Si Si1 0.495710 0.169486 0.815146
Si Si2 0.019641 0.546339 0.185000
Si Si3 0.539941 0.892140 0.000213
Si Si4 0.639498 0.579778 0.044970
Si Si5 0.621777 0.788464 0.625428
Si Si6 0.332495 0.755475 0.395116
O O1 0.500000 0.190227 0.750000
O O2 0.427090 0.062685 0.812187
O O3 0.726190 0.202746 0.862479
O O4 0.347345 0.234330 0.830445
O O5 0.810754 0.550094 0.116393
O O6 0.000000 0.564846 0.250000
O O7 0.160284 0.625763 0.175562
O O8 0.562050 0.845595 0.063643
O O9 0.749080 0.881505 0.994845
O O10 0.389260 0.839875 0.936411
O O11 0.500000 0.000000 0.000000
O O12 0.544551 0.667897 0.062523
O O13 0.500000 0.500000 0.000000
O O14 0.400032 0.752658 0.615853
#
# Coordination Sequence:
#
# PCOD9282287 Si02
#       6
#     8   8   8   8   8   8
#     4  11  25  41  66  96 122 174 228 261 330 401
#     4   9  21  42  62  90 133 167 213 279 323 384
#     4  10  21  39  60  94 127 162 208 267 330 388
#     4  10  22  36  64  94 124 169 213 269 328 392
#     4  10  23  40  67  88 130 172 204 277 325 386
#     4  10  22  41  62  94 129 165 215 273 323 397
#
# _framework density 21.551677000000002
#
# number of rings (size 3 to 8) (size 9 to 14) (size 15 to 20)
#    0.000    2.333    0.000    4.000   11.667    0.667 
#    0.000    0.000    0.000    0.000    0.000    0.000 
#    0.000    0.000    0.000    0.000    0.000    0.000 
#
# Total GULP energy -133619.562307 kJ/mol
# GULP energy per Si atom -5567.481763 kJ/mol
# Density = 2.150262 g / cm^3
# Si number density = 21.551677 Si / 1000 Ang^3
#
#
#
# Elastic Constant Matrix: (Units=GPa)
#
#
# Indices 1 2 3 4 5 6 
#
# 1 53.7352 8.5786 -4.5232 0.0000 -14.1580 0.0000
# 2 8.5786 91.6338 6.9156 0.0000 -5.7592 0.0000
# 3 -4.5232 6.9156 68.0874 0.0000 -14.7099 0.0000
# 4 0.0000 0.0000 0.0000 22.8176 0.0000 -3.9462
# 5 -14.1580 -5.7592 -14.7099 0.0000 25.4748 0.0000
# 6 0.0000 0.0000 0.0000 -3.9462 0.0000 18.9437
#
#
#
# Elastic Compliance Matrix: (Units=1/GPa)
#
#
# Indices 1 2 3 4 5 6 
#
# 1 0.023396 -0.001595 0.005081 0.000000 0.015576 0.000000
# 2 -0.001595 0.011206 -0.001015 0.000000 0.001061 0.000000
# 3 0.005081 -0.001015 0.017924 0.000000 0.012945 0.000000
# 4 0.000000 0.000000 0.000000 0.045464 0.000000 0.009471
# 5 0.015576 0.001061 0.012945 0.000000 0.055626 0.000000
# 6 0.000000 0.000000 0.000000 0.009471 0.000000 0.054761
#
#
# Mechanical properties :
#
#
# Convention : Reuss Voigt Hill
#
# Bulk Modulus (GPa) = 17.40054 26.15537 21.77796
# Shear Modulus (GPa) = 22.46290 26.94625 24.70457
#
# Velocity S-wave (km/s) = 3.23194 3.53981 3.38937
# Velocity P-wave (km/s) = 4.69240 5.37303 5.04421
#
# Compressibility (1/GPa) = 0.05746947
#
# Stress axis : x y z
#
# Youngs Moduli (GPa) = 42.74206 89.24131 55.79028
#
# Poissons Ratio (x) = 0.14232 -0.28349
# Poissons Ratio (y) = 0.06817 0.05662
# Poissons Ratio (z) = -0.21719 0.09057
#
# Static dielectric constant tensor:
#      x y z
#    x 1.841290 0.000000 0.050150 
#    y 0.000000 1.840450 0.000000 
#    z 0.050150 0.000000 1.828020 
# 
# From -- ./inp_files/231349.got.cif
#   From: 2010.05.17/outbox.cif.g08.bks.cpg/sg15_116_cif.got.tgz:231349.got - 2010.06.03 18:47:42.
