data_PCOD9282366
_publ_section_title
;
Structure prediction by ZEFSAII (Michael W. Deem and Ramdas Pophale) SiO2 
 PCOD9282366
Probable space group: C 2/C
;
_chemical_formula_sum "Si O2"
_cell_formula_units_Z 60
_cell_length_a 13.984627
_cell_length_b 8.168470
_cell_length_c 20.712775
_cell_angle_alpha 90.000000
_cell_angle_beta 98.917372
_cell_angle_gamma 90.000000
_cell_volume 2337.483506
_symmetry_space_group_name_H-M "C 2/C"
_symmetry_group_IT_number 15
_symmetry_cell_setting 'monoclinic'
loop_
_space_group_symop_operation_xyz
x,y,z
-x,y,1/2-z
-x,-y,-z
x,-y,1/2+z
1/2+x,1/2+y,z
1/2-x,1/2+y,1/2-z
1/2-x,1/2-y,-z
1/2+x,1/2-y,1/2+z
loop_
_atom_site_type_symbol
_atom_site_label
_atom_site_fract_x
_atom_site_fract_y
_atom_site_fract_z
Si Si1 0.035586 0.955925 0.820551
Si Si2 0.301123 0.213921 0.702533
Si Si3 0.269376 0.955228 0.587385
Si Si4 0.363452 0.756588 0.349991
Si Si5 0.125771 0.388862 0.625892
Si Si6 0.938693 0.213166 0.580169
Si Si7 0.560434 0.832726 0.491850
Si Si8 0.250000 0.750000 0.000000
O O1 0.093503 0.065857 0.877927
O O2 0.000000 0.041285 0.750000
O O3 0.940638 0.883476 0.844515
O O4 0.098786 0.802994 0.803181
O O5 0.283769 0.053982 0.656766
O O6 0.303425 0.196890 0.779772
O O7 0.215418 0.338665 0.676818
O O8 0.201601 0.803644 0.598994
O O9 0.365200 0.864028 0.573015
O O10 0.221075 0.069340 0.528643
O O11 0.411998 0.927794 0.373003
O O12 0.154453 0.352188 0.553553
O O13 0.035611 0.272713 0.628389
O O14 0.986421 0.200139 0.513739
O O15 0.500000 0.000000 0.500000
O O16 0.635879 0.774605 0.446924
#
# Coordination Sequence:
#
# PCOD9282366 Si02
#       8
#     8   8   8   8   8   8   8   4
#     4  10  22  38  59  89 128 167 211 267 326 392
#     4  11  22  39  62  93 129 170 215 266 330 399
#     4  12  23  39  67  93 125 177 213 272 335 395
#     4  11  23  40  60  93 131 169 216 268 331 400
#     4  10  21  39  61  91 124 160 213 264 316 396
#     4  10  22  39  61  90 125 162 217 264 324 391
#     4  10  21  40  66  89 125 166 217 275 329 402
#     4  12  20  42  66  92 128 174 218 276 342 398
#
# _framework density 25.66863
#
# number of rings (size 3 to 8) (size 9 to 14) (size 15 to 20)
#    0.800    0.533    2.667    4.000    0.000    4.267 
#    0.000    2.000    0.000    4.000    0.000    0.000 
#    0.000    0.000    0.000    0.000    0.000    0.000 
#
# Total GULP energy -167095.387046 kJ/mol
# GULP energy per Si atom -5569.846235 kJ/mol
# Density = 2.561021 g / cm^3
# Si number density = 25.668630 Si / 1000 Ang^3
#
#
#
# Elastic Constant Matrix: (Units=GPa)
#
#
# Indices 1 2 3 4 5 6 
#
# 1 109.2002 0.6756 2.9459 0.0000 -9.6546 0.0000
# 2 0.6756 79.3077 7.9362 0.0000 1.6240 0.0000
# 3 2.9459 7.9362 75.3770 0.0000 14.2297 0.0000
# 4 0.0000 0.0000 0.0000 18.8165 0.0000 -1.5131
# 5 -9.6546 1.6240 14.2297 0.0000 34.8210 0.0000
# 6 0.0000 0.0000 0.0000 -1.5131 0.0000 39.0809
#
#
#
# Elastic Compliance Matrix: (Units=1/GPa)
#
#
# Indices 1 2 3 4 5 6 
#
# 1 0.009448 -0.000049 -0.000931 0.000000 0.003002 0.000000
# 2 -0.000049 0.012744 -0.001327 0.000000 -0.000065 0.000000
# 3 -0.000931 -0.001327 0.014607 0.000000 -0.006165 0.000000
# 4 0.000000 0.000000 0.000000 0.053311 0.000000 0.002064
# 5 0.003002 -0.000065 -0.006165 0.000000 0.032073 0.000000
# 6 0.000000 0.000000 0.000000 0.002064 0.000000 0.025668
#
#
# Mechanical properties :
#
#
# Convention : Reuss Voigt Hill
#
# Bulk Modulus (GPa) = 31.07105 31.88892 31.47998
# Shear Modulus (GPa) = 30.63853 35.36549 33.00201
#
# Velocity S-wave (km/s) = 3.45863 3.71586 3.58955
# Velocity P-wave (km/s) = 5.29909 5.55522 5.42867
#
# Compressibility (1/GPa) = 0.03218430
#
# Stress axis : x y z
#
# Youngs Moduli (GPa) = 105.83851 78.47004 68.46187
#
# Poissons Ratio (x) = 0.00383 0.06373
# Poissons Ratio (y) = 0.00517 0.09088
# Poissons Ratio (z) = 0.09853 0.10417
#
# Static dielectric constant tensor:
#      x y z
#    x 0.177380 0.000000 1.300400 
#    y 0.000000 1.489760 0.000000 
#    z 1.300400 0.000000 1.346610 
# 
# From -- ./inp_files/272763.got.cif
#   From: 2010.05.17/outbox.cif.g08.bks.cpg/sg15_137_cif.got.tgz:272763.got - 2010.06.03 18:47:42.
