data_PCOD9282081
_publ_section_title
;
Structure prediction by ZEFSAII (Michael W. Deem and Ramdas Pophale) SiO2 
 PCOD9282081
Probable space group: C 2/C
;
_chemical_formula_sum "Si O2"
_cell_formula_units_Z 40
_cell_length_a 14.358382
_cell_length_b 11.980090
_cell_length_c 10.176988
_cell_angle_alpha 90.000000
_cell_angle_beta 74.597721
_cell_angle_gamma 90.000000
_cell_volume 1687.718848
_symmetry_space_group_name_H-M "C 2/C"
_symmetry_group_IT_number 15
_symmetry_cell_setting 'monoclinic'
loop_
_space_group_symop_operation_xyz
x,y,z
-x,y,1/2-z
-x,-y,-z
x,-y,1/2+z
1/2+x,1/2+y,z
1/2-x,1/2+y,1/2-z
1/2-x,1/2-y,-z
1/2+x,1/2-y,1/2+z
loop_
_atom_site_type_symbol
_atom_site_label
_atom_site_fract_x
_atom_site_fract_y
_atom_site_fract_z
Si Si1 0.859489 0.932117 0.290831
Si Si2 0.941462 0.439919 0.906046
Si Si3 0.527511 0.318317 0.051359
Si Si4 0.789704 0.393240 0.362524
Si Si5 0.385427 0.331817 0.875162
O O1 0.936257 0.860810 0.175118
O O2 0.756087 0.914492 0.263235
O O3 0.883627 0.893550 0.430665
O O4 0.880870 0.062966 0.281103
O O5 0.841497 0.501982 0.911328
O O6 0.000000 0.454041 0.750000
O O7 0.941116 0.308458 0.935360
O O8 0.000000 0.500000 0.000000
O O9 0.482655 0.328480 0.924150
O O10 0.702405 0.356751 0.490299
O O11 0.863246 0.289728 0.326289
#
# Coordination Sequence:
#
# PCOD9282081 Si02
#       5
#     8   8   8   8   8
#     4  10  21  38  70  91 134 184 224 279 352 421
#     4  12  25  45  73 100 142 183 233 287 356 416
#     4  10  21  43  67  94 133 187 224 287 352 414
#     4  10  24  38  66 102 134 181 224 299 343 414
#     4  10  21  42  64  97 139 175 236 280 356 412
#
# _framework density 23.700631000000001
#
# number of rings (size 3 to 8) (size 9 to 14) (size 15 to 20)
#    0.000    1.600    4.000    0.600    5.600    0.000 
#    3.600    3.000    0.000    0.000    0.000    0.000 
#    0.000    0.000    0.000    0.000    0.000    0.000 
#
# Total GULP energy -111857.411203 kJ/mol
# GULP energy per Si atom -5592.870560 kJ/mol
# Density = 2.364669 g / cm^3
# Si number density = 23.700631 Si / 1000 Ang^3
#
#
#
# Elastic Constant Matrix: (Units=GPa)
#
#
# Indices 1 2 3 4 5 6 
#
# 1 139.8992 67.8331 63.9478 0.0000 56.7802 0.0000
# 2 67.8331 179.4332 46.1549 0.0000 25.5238 0.0000
# 3 63.9478 46.1549 59.4073 0.0000 34.1048 0.0000
# 4 0.0000 0.0000 0.0000 26.7276 0.0000 1.1541
# 5 56.7802 25.5238 34.1048 0.0000 54.6506 0.0000
# 6 0.0000 0.0000 0.0000 1.1541 0.0000 32.1561
#
#
#
# Elastic Compliance Matrix: (Units=1/GPa)
#
#
# Indices 1 2 3 4 5 6 
#
# 1 0.017500 -0.002281 -0.011281 0.000000 -0.010077 0.000000
# 2 -0.002281 0.007264 -0.004053 0.000000 0.001507 0.000000
# 3 -0.011281 -0.004053 0.037881 0.000000 -0.010026 0.000000
# 4 0.000000 0.000000 0.000000 0.037473 0.000000 -0.001345
# 5 -0.010077 0.001507 -0.010026 0.000000 0.034321 0.000000
# 6 0.000000 0.000000 0.000000 -0.001345 0.000000 0.031147
#
#
# Mechanical properties :
#
#
# Convention : Reuss Voigt Hill
#
# Bulk Modulus (GPa) = 36.47566 81.62349 59.04957
# Shear Modulus (GPa) = 23.81491 36.09377 29.95434
#
# Velocity S-wave (km/s) = 3.17333 3.90667 3.55894
# Velocity P-wave (km/s) = 5.37125 7.40700 6.46969
#
# Compressibility (1/GPa) = 0.02741555
#
# Stress axis : x y z
#
# Youngs Moduli (GPa) = 57.14207 137.67359 26.39870
#
# Poissons Ratio (x) = 0.31399 0.29779
# Poissons Ratio (y) = 0.13032 0.10700
# Poissons Ratio (z) = 0.64460 0.55801
#
# Static dielectric constant tensor:
#      x y z
#    x 1.891620 0.000000 -0.035630 
#    y 0.000000 1.867680 0.000000 
#    z -0.035630 0.000000 1.974160 
# 
# From -- ./inp_files/94601.got.cif
#   From: 2010.05.17/outbox.cif.g08.bks.cpg/sg15_48_cif.got.tgz:94601.got - 2010.06.03 18:47:42.
