data_PCOD9282339
_publ_section_title
;
Structure prediction by ZEFSAII (Michael W. Deem and Ramdas Pophale) SiO2 
 PCOD9282339
Probable space group: C 2/C
;
_chemical_formula_sum "Si O2"
_cell_formula_units_Z 36
_cell_length_a 9.239673
_cell_length_b 26.564853
_cell_length_c 7.607285
_cell_angle_alpha 90.000000
_cell_angle_beta 115.927234
_cell_angle_gamma 90.000000
_cell_volume 1679.277508
_symmetry_space_group_name_H-M "C 2/C"
_symmetry_group_IT_number 15
_symmetry_cell_setting 'monoclinic'
loop_
_space_group_symop_operation_xyz
x,y,z
-x,y,1/2-z
-x,-y,-z
x,-y,1/2+z
1/2+x,1/2+y,z
1/2-x,1/2+y,1/2-z
1/2-x,1/2-y,-z
1/2+x,1/2-y,1/2+z
loop_
_atom_site_type_symbol
_atom_site_label
_atom_site_fract_x
_atom_site_fract_y
_atom_site_fract_z
Si Si1 0.314977 0.872072 0.602160
Si Si2 0.288900 0.641037 0.849503
Si Si3 0.000000 0.301176 0.250000
Si Si4 0.476352 0.558122 0.528415
Si Si5 0.566070 0.704337 0.095258
O O1 0.500000 0.877546 0.750000
O O2 0.195857 0.916863 0.605968
O O3 0.232282 0.820918 0.630621
O O4 0.293749 0.871502 0.379867
O O5 0.500000 0.685106 0.250000
O O6 0.427074 0.683075 0.895697
O O7 0.381168 0.592705 0.973712
O O8 0.937598 0.263827 0.370744
O O9 0.148643 0.334586 0.390234
O O10 0.500000 0.564667 0.750000
O O11 0.500000 0.500000 0.500000
#
# Coordination Sequence:
#
# PCOD9282339 Si02
#       5
#     8   8   4   8   8
#     4  10  22  40  62  92 128 160 208 256 303 366
#     4  10  21  39  61  88 130 160 204 256 306 363
#     4  10  22  36  62  92 128 158 222 244 298 360
#     4   9  20  42  63  87 117 163 200 255 322 370
#     4   9  21  37  61  87 121 169 207 239 304 359
#
# _framework density 21.437792000000002
#
# number of rings (size 3 to 8) (size 9 to 14) (size 15 to 20)
#    0.667    1.778    0.000    2.667    3.111    4.444 
#    2.000    5.556    0.000    0.000    0.000    0.000 
#    0.000    0.000    0.000    0.000    0.000    0.000 
#
# Total GULP energy -100413.563615 kJ/mol
# GULP energy per Si atom -5578.531312 kJ/mol
# Density = 2.138900 g / cm^3
# Si number density = 21.437792 Si / 1000 Ang^3
#
#
#
# Elastic Constant Matrix: (Units=GPa)
#
#
# Indices 1 2 3 4 5 6 
#
# 1 110.6822 73.5098 49.8385 0.0000 46.5063 0.0000
# 2 73.5098 156.9737 25.8952 0.0000 44.5896 0.0000
# 3 49.8385 25.8952 105.0697 0.0000 44.5122 0.0000
# 4 0.0000 0.0000 0.0000 8.9837 0.0000 -8.7699
# 5 46.5063 44.5896 44.5122 0.0000 52.1073 0.0000
# 6 0.0000 0.0000 0.0000 -8.7699 0.0000 27.7164
#
#
#
# Elastic Compliance Matrix: (Units=1/GPa)
#
#
# Indices 1 2 3 4 5 6 
#
# 1 0.017603 -0.005367 -0.003631 0.000000 -0.008016 0.000000
# 2 -0.005367 0.010213 0.002667 0.000000 -0.006227 0.000000
# 3 -0.003631 0.002667 0.015948 0.000000 -0.012665 0.000000
# 4 0.000000 0.000000 0.000000 0.161062 0.000000 0.050962
# 5 -0.008016 -0.006227 -0.012665 0.000000 0.042494 0.000000
# 6 0.000000 0.000000 0.000000 0.050962 0.000000 0.052205
#
#
# Mechanical properties :
#
#
# Convention : Reuss Voigt Hill
#
# Bulk Modulus (GPa) = 32.15288 74.57920 53.36604
# Shear Modulus (GPa) = 15.50134 32.66029 24.08081
#
# Velocity S-wave (km/s) = 2.69194 3.90743 3.35518
# Velocity P-wave (km/s) = 4.96919 7.43112 6.32117
#
# Compressibility (1/GPa) = 0.03110141
#
# Stress axis : x y z
#
# Youngs Moduli (GPa) = 56.80986 97.91525 62.70409
#
# Poissons Ratio (x) = 0.52553 0.22767
# Poissons Ratio (y) = 0.30491 -0.16724
# Poissons Ratio (z) = 0.20627 -0.26115
#
# Static dielectric constant tensor:
#      x y z
#    x 1.796770 0.000000 -0.043370 
#    y 0.000000 1.808100 0.000000 
#    z -0.043370 0.000000 1.834660 
# 
# From -- ./inp_files/34690.got.cif
#   From: 2010.05.17/outbox.cif.g08.bks.cpg/sg15_18_cif.got.tgz:34690.got - 2010.06.03 18:47:42.
