data_PCOD9282703
_publ_section_title
;
Structure prediction by ZEFSAII (Michael W. Deem and Ramdas Pophale) SiO2 
 PCOD9282703
Probable space group: C 2/C
;
_chemical_formula_sum "Si O2"
_cell_formula_units_Z 40
_cell_length_a 23.347137
_cell_length_b 7.819408
_cell_length_c 8.629679
_cell_angle_alpha 90.000000
_cell_angle_beta 102.345649
_cell_angle_gamma 90.000000
_cell_volume 1539.009788
_symmetry_space_group_name_H-M "C 2/C"
_symmetry_group_IT_number 15
_symmetry_cell_setting 'monoclinic'
loop_
_space_group_symop_operation_xyz
x,y,z
-x,y,1/2-z
-x,-y,-z
x,-y,1/2+z
1/2+x,1/2+y,z
1/2-x,1/2+y,1/2-z
1/2-x,1/2-y,-z
1/2+x,1/2-y,1/2+z
loop_
_atom_site_type_symbol
_atom_site_label
_atom_site_fract_x
_atom_site_fract_y
_atom_site_fract_z
Si Si1 0.461566 0.779550 0.485795
Si Si2 0.820120 0.640504 0.464049
Si Si3 0.641155 0.353533 0.740630
Si Si4 0.927976 0.379087 0.808572
Si Si5 0.711967 0.516300 0.019473
O O1 0.421066 0.640296 0.378513
O O2 0.430417 0.835418 0.629389
O O3 0.528493 0.748351 0.573684
O O4 0.458192 0.939798 0.366846
O O5 0.853708 0.691310 0.642261
O O6 0.865564 0.614239 0.354181
O O7 0.774643 0.488746 0.472459
O O8 0.788289 0.821944 0.410921
O O9 0.659439 0.508432 0.863940
O O10 0.692232 0.357857 0.641330
#
# Coordination Sequence:
#
# PCOD9282703 Si02
#       5
#     8   8   8   8   8
#     4  10  22  38  65  93 119 162 196 268 305 361
#     4   9  21  42  61  85 127 161 202 255 300 368
#     4  10  21  39  64  87 124 162 206 252 309 360
#     4  10  21  40  63  92 123 151 214 248 313 369
#     4   9  22  41  56  90 125 159 206 247 305 369
#
# _framework density 25.990739000000001
#
# number of rings (size 3 to 8) (size 9 to 14) (size 15 to 20)
#    1.200    1.200    0.000    1.200    2.800    5.600 
#    0.000    4.000    0.000    0.000    0.000    0.000 
#    0.000    0.000    0.000    0.000    0.000    0.000 
#
# Total GULP energy -111660.502767 kJ/mol
# GULP energy per Si atom -5583.025138 kJ/mol
# Density = 2.593158 g / cm^3
# Si number density = 25.990739 Si / 1000 Ang^3
#
#
#
# Elastic Constant Matrix: (Units=GPa)
#
#
# Indices 1 2 3 4 5 6 
#
# 1 75.2705 1.1781 20.0066 0.0000 -18.5159 0.0000
# 2 1.1781 47.0915 27.9340 0.0000 -8.2405 0.0000
# 3 20.0066 27.9340 137.7540 0.0000 12.6712 0.0000
# 4 0.0000 0.0000 0.0000 14.8449 0.0000 -9.8736
# 5 -18.5159 -8.2405 12.6712 0.0000 45.1656 0.0000
# 6 0.0000 0.0000 0.0000 -9.8736 0.0000 26.5867
#
#
#
# Elastic Compliance Matrix: (Units=1/GPa)
#
#
# Indices 1 2 3 4 5 6 
#
# 1 0.016301 0.003313 -0.003808 0.000000 0.008355 0.000000
# 2 0.003313 0.026466 -0.006587 0.000000 0.008035 0.000000
# 3 -0.003808 -0.006587 0.009651 0.000000 -0.005471 0.000000
# 4 0.000000 0.000000 0.000000 0.089460 0.000000 0.033223
# 5 0.008355 0.008035 -0.005471 0.000000 0.028567 0.000000
# 6 0.000000 0.000000 0.000000 0.033223 0.000000 0.049951
#
#
# Mechanical properties :
#
#
# Convention : Reuss Voigt Hill
#
# Bulk Modulus (GPa) = 26.14078 39.81706 32.97892
# Shear Modulus (GPa) = 20.21746 31.38593 25.80169
#
# Velocity S-wave (km/s) = 2.79206 3.47880 3.15417
# Velocity P-wave (km/s) = 4.52479 5.61151 5.09719
#
# Compressibility (1/GPa) = 0.03825441
#
# Stress axis : x y z
#
# Youngs Moduli (GPa) = 61.34572 37.78475 103.61316
#
# Poissons Ratio (x) = -0.12518 0.39455
# Poissons Ratio (y) = -0.20324 0.68250
# Poissons Ratio (z) = 0.23360 0.24889
#
# Static dielectric constant tensor:
#      x y z
#    x 2.101150 0.000000 0.062530 
#    y 0.000000 2.076080 0.000000 
#    z 0.062530 0.000000 2.046900 
# 
# From -- ./inp_files/60074.got.cif
#   From: 2010.05.17/outbox.cif.g08.bks.cpg/sg15_31_cif.got.tgz:60074.got - 2010.06.03 18:47:42.
