data_PCOD9282656
_publ_section_title
;
Structure prediction by ZEFSAII (Michael W. Deem and Ramdas Pophale) SiO2 
 PCOD9282656
Probable space group: C 2/C
;
_chemical_formula_sum "Si O2"
_cell_formula_units_Z 64
_cell_length_a 13.254149
_cell_length_b 14.866197
_cell_length_c 13.675530
_cell_angle_alpha 90.000000
_cell_angle_beta 99.426571
_cell_angle_gamma 90.000000
_cell_volume 2658.222716
_symmetry_space_group_name_H-M "C 2/C"
_symmetry_group_IT_number 15
_symmetry_cell_setting 'monoclinic'
loop_
_space_group_symop_operation_xyz
x,y,z
-x,y,1/2-z
-x,-y,-z
x,-y,1/2+z
1/2+x,1/2+y,z
1/2-x,1/2+y,1/2-z
1/2-x,1/2-y,-z
1/2+x,1/2-y,1/2+z
loop_
_atom_site_type_symbol
_atom_site_label
_atom_site_fract_x
_atom_site_fract_y
_atom_site_fract_z
Si Si1 0.395254 0.982142 0.371378
Si Si2 0.982668 0.129876 0.032456
Si Si3 0.224638 0.035485 0.459545
Si Si4 0.777790 0.295957 0.401064
Si Si5 0.411692 0.602000 0.657709
Si Si6 0.599876 0.326719 0.721837
Si Si7 0.346297 0.240836 0.585535
Si Si8 0.869269 0.466929 0.138793
O O1 0.349221 0.886406 0.405234
O O2 0.367798 0.990208 0.252399
O O3 0.518579 0.986394 0.389177
O O4 0.332778 0.057422 0.422744
O O5 0.870938 0.086157 0.006716
O O6 0.949679 0.233516 0.043574
O O7 0.041515 0.100430 0.142705
O O8 0.044279 0.113720 0.944768
O O9 0.277012 0.988056 0.563286
O O10 0.163361 0.982574 0.365238
O O11 0.750000 0.250000 0.500000
O O12 0.668792 0.319298 0.334869
O O13 0.835142 0.223613 0.346570
O O14 0.500000 0.595547 0.750000
O O15 0.500000 0.275185 0.750000
O O16 0.664269 0.318869 0.832013
O O17 0.250000 0.250000 0.500000
O O18 0.350031 0.140957 0.628443
#
# Coordination Sequence:
#
# PCOD9282656 Si02
#       8
#     8   8   8   8   8   8   8   8
#     4  10  23  42  72  97 126 182 225 282 346 406
#     4  11  23  43  62 102 137 172 227 278 335 410
#     4  11  25  43  64  97 135 182 226 281 332 406
#     4  11  21  41  67 100 132 173 226 278 338 404
#     4  11  27  43  67  96 140 187 228 273 343 410
#     4  10  21  39  63  94 131 172 219 273 337 399
#     4  11  22  37  67  99 130 170 221 285 339 397
#     4  11  22  44  71  96 130 171 239 281 340 413
#
# _framework density 24.076236999999999
#
# number of rings (size 3 to 8) (size 9 to 14) (size 15 to 20)
#    0.000    1.250    3.750    2.250    7.000    1.500 
#    6.750    0.000    0.000    0.000    0.000    0.000 
#    0.000    0.000    0.000    0.000    0.000    0.000 
#
# Total GULP energy -178173.855433 kJ/mol
# GULP energy per Si atom -5567.932982 kJ/mol
# Density = 2.402144 g / cm^3
# Si number density = 24.076237 Si / 1000 Ang^3
#
#
#
# Elastic Constant Matrix: (Units=GPa)
#
#
# Indices 1 2 3 4 5 6 
#
# 1 158.4716 17.1083 66.1637 0.0000 8.4619 0.0000
# 2 17.1083 27.2951 2.4296 0.0000 -2.8765 0.0000
# 3 66.1637 2.4296 131.2241 0.0000 14.3900 0.0000
# 4 0.0000 0.0000 0.0000 25.7718 0.0000 -3.2331
# 5 8.4619 -2.8765 14.3900 0.0000 68.3562 0.0000
# 6 0.0000 0.0000 0.0000 -3.2331 0.0000 37.5272
#
#
#
# Elastic Compliance Matrix: (Units=1/GPa)
#
#
# Indices 1 2 3 4 5 6 
#
# 1 0.008642 -0.005083 -0.004220 0.000000 -0.000395 0.000000
# 2 -0.005083 0.039887 0.001608 0.000000 0.001969 0.000000
# 3 -0.004220 0.001608 0.009882 0.000000 -0.001490 0.000000
# 4 0.000000 0.000000 0.000000 0.039226 0.000000 0.003379
# 5 -0.000395 0.001969 -0.001490 0.000000 0.015075 0.000000
# 6 0.000000 0.000000 0.000000 0.003379 0.000000 0.026938
#
#
# Mechanical properties :
#
#
# Convention : Reuss Voigt Hill
#
# Bulk Modulus (GPa) = 23.24389 54.26599 38.75494
# Shear Modulus (GPa) = 29.51959 41.75034 35.63496
#
# Velocity S-wave (km/s) = 3.50535 4.16876 3.85137
# Velocity P-wave (km/s) = 5.10476 6.76458 5.99242
#
# Compressibility (1/GPa) = 0.04302206
#
# Stress axis : x y z
#
# Youngs Moduli (GPa) = 115.71467 25.07096 101.19561
#
# Poissons Ratio (x) = 0.12743 0.42703
# Poissons Ratio (y) = 0.58815 -0.16276
# Poissons Ratio (z) = 0.48830 -0.04032
#
# Static dielectric constant tensor:
#      x y z
#    x 1.915060 0.000000 0.080980 
#    y 0.000000 2.165760 0.000000 
#    z 0.080980 0.000000 2.077490 
# 
# From -- ./inp_files/146085.got.cif
#   From: 2010.05.17/outbox.cif.g08.bks.cpg/sg15_74_cif.got.tgz:146085.got - 2010.06.03 18:47:42.
