data_PCOD9282938
_publ_section_title
;
Structure prediction by ZEFSAII (Michael W. Deem and Ramdas Pophale) SiO2 
 PCOD9282938
Probable space group: C 2/C
;
_chemical_formula_sum "Si O2"
_cell_formula_units_Z 56
_cell_length_a 12.366815
_cell_length_b 8.296219
_cell_length_c 27.580677
_cell_angle_alpha 90.000000
_cell_angle_beta 58.713959
_cell_angle_gamma 90.000000
_cell_volume 2418.234711
_symmetry_space_group_name_H-M "C 2/C"
_symmetry_group_IT_number 15
_symmetry_cell_setting 'monoclinic'
loop_
_space_group_symop_operation_xyz
x,y,z
-x,y,1/2-z
-x,-y,-z
x,-y,1/2+z
1/2+x,1/2+y,z
1/2-x,1/2+y,1/2-z
1/2-x,1/2-y,-z
1/2+x,1/2-y,1/2+z
loop_
_atom_site_type_symbol
_atom_site_label
_atom_site_fract_x
_atom_site_fract_y
_atom_site_fract_z
Si Si1 0.247856 0.495841 0.876074
Si Si2 0.023076 0.314304 0.392711
Si Si3 0.961342 0.028763 0.953864
Si Si4 0.320987 0.671569 0.652176
Si Si5 0.502347 0.334045 0.306950
Si Si6 0.800733 0.427784 0.503338
Si Si7 0.565063 0.964752 0.183358
O O1 0.239618 0.346576 0.841257
O O2 0.388890 0.556689 0.852950
O O3 0.190639 0.441954 0.941033
O O4 0.165451 0.637527 0.871809
O O5 0.932767 0.434897 0.444861
O O6 0.984182 0.344625 0.346499
O O7 0.995471 0.134496 0.416673
O O8 0.810284 0.049395 0.986808
O O9 0.050522 0.162199 0.909270
O O10 0.000000 0.000000 0.000000
O O11 0.366611 0.632944 0.695837
O O12 0.215344 0.552157 0.655808
O O13 0.500000 0.358870 0.250000
O O14 0.471885 0.145809 0.322767
O O15 0.750000 0.250000 0.500000
O O16 0.500000 0.929227 0.250000
#
# Coordination Sequence:
#
# PCOD9282938 Si02
#       7
#     8   8   8   8   8   8   8
#     4  12  24  45  70 105 142 183 237 293 352 425
#     4  11  23  43  69 104 142 185 236 295 350 425
#     4  11  22  42  68 101 142 183 230 288 355 422
#     4  12  24  45  72 101 143 185 232 287 356 418
#     4  11  27  47  70 105 139 184 241 293 351 423
#     4  10  21  39  65  97 138 177 230 279 347 419
#     4  11  26  49  72 103 142 189 239 293 356 418
#
# _framework density 23.157388000000001
#
# number of rings (size 3 to 8) (size 9 to 14) (size 15 to 20)
#    0.000    0.857    2.857    5.571    2.000    0.571 
#    0.000    2.143    0.000    0.000    0.000    0.000 
#    0.000    0.000    0.000    0.000    0.000    0.000 
#
# Total GULP energy -156734.139196 kJ/mol
# GULP energy per Si atom -5597.647828 kJ/mol
# Density = 2.310468 g / cm^3
# Si number density = 23.157388 Si / 1000 Ang^3
#
#
#
# Elastic Constant Matrix: (Units=GPa)
#
#
# Indices 1 2 3 4 5 6 
#
# 1 127.9122 18.9953 11.6787 0.0000 28.6070 0.0000
# 2 18.9953 62.4170 25.3286 0.0000 9.0380 0.0000
# 3 11.6787 25.3286 82.0842 0.0000 31.0242 0.0000
# 4 0.0000 0.0000 0.0000 27.9279 0.0000 9.4600
# 5 28.6070 9.0380 31.0242 0.0000 46.0712 0.0000
# 6 0.0000 0.0000 0.0000 9.4600 0.0000 17.5400
#
#
#
# Elastic Compliance Matrix: (Units=1/GPa)
#
#
# Indices 1 2 3 4 5 6 
#
# 1 0.009555 -0.002760 0.002052 0.000000 -0.006774 0.000000
# 2 -0.002760 0.019115 -0.006353 0.000000 0.002242 0.000000
# 3 0.002052 -0.006353 0.018594 0.000000 -0.012549 0.000000
# 4 0.000000 0.000000 0.000000 0.043810 0.000000 -0.023629
# 5 -0.006774 0.002242 -0.012549 0.000000 0.033922 0.000000
# 6 0.000000 0.000000 0.000000 -0.023629 0.000000 0.069756
#
#
# Mechanical properties :
#
#
# Convention : Reuss Voigt Hill
#
# Bulk Modulus (GPa) = 30.17241 42.71319 36.44280
# Shear Modulus (GPa) = 22.73542 32.73520 27.73531
#
# Velocity S-wave (km/s) = 3.13673 3.76386 3.46452
# Velocity P-wave (km/s) = 5.11628 6.11340 5.63693
#
# Compressibility (1/GPa) = 0.03314286
#
# Stress axis : x y z
#
# Youngs Moduli (GPa) = 104.65446 52.31626 53.78089
#
# Poissons Ratio (x) = 0.14439 -0.11038
# Poissons Ratio (y) = 0.28884 0.34166
# Poissons Ratio (z) = -0.21478 0.33236
#
# Static dielectric constant tensor:
#      x y z
#    x 1.876520 0.000000 -0.017630 
#    y 0.000000 1.865730 0.000000 
#    z -0.017630 0.000000 1.880460 
# 
# From -- ./inp_files/291530.got.cif
#   From: 2010.05.17/outbox.cif.g08.bks.cpg/sg15_146_cif.got.tgz:291530.got - 2010.06.03 18:47:42.
