data_PCOD9282256
_publ_section_title
;
Structure prediction by ZEFSAII (Michael W. Deem and Ramdas Pophale) SiO2 
 PCOD9282256
Probable space group: C 2/C
;
_chemical_formula_sum "Si O2"
_cell_formula_units_Z 56
_cell_length_a 7.860742
_cell_length_b 12.372477
_cell_length_c 32.884428
_cell_angle_alpha 90.000000
_cell_angle_beta 66.929863
_cell_angle_gamma 90.000000
_cell_volume 2942.459710
_symmetry_space_group_name_H-M "C 2/C"
_symmetry_group_IT_number 15
_symmetry_cell_setting 'monoclinic'
loop_
_space_group_symop_operation_xyz
x,y,z
-x,y,1/2-z
-x,-y,-z
x,-y,1/2+z
1/2+x,1/2+y,z
1/2-x,1/2+y,1/2-z
1/2-x,1/2-y,-z
1/2+x,1/2-y,1/2+z
loop_
_atom_site_type_symbol
_atom_site_label
_atom_site_fract_x
_atom_site_fract_y
_atom_site_fract_z
Si Si1 0.618314 0.270071 0.896058
Si Si2 0.368634 0.892202 0.459806
Si Si3 0.888022 0.275067 0.199124
Si Si4 0.718064 0.175726 0.445349
Si Si5 0.000000 0.310414 0.750000
Si Si6 0.000000 0.900038 0.750000
Si Si7 0.452467 0.095887 0.401471
Si Si8 0.097149 0.483501 0.803684
O O1 0.560376 0.164224 0.927450
O O2 0.626769 0.240198 0.847858
O O3 0.799812 0.325523 0.896419
O O4 0.435805 0.345560 0.917755
O O5 0.352586 0.892944 0.509745
O O6 0.719345 0.302508 0.458472
O O7 0.354032 0.004578 0.438216
O O8 0.681732 0.261035 0.236042
O O9 0.998071 0.179781 0.211151
O O10 0.962735 0.394602 0.200595
O O11 0.596627 0.155674 0.417309
O O12 0.987289 0.392231 0.789105
O O13 0.188567 0.967435 0.729135
O O14 0.561029 0.039092 0.354318
#
# Coordination Sequence:
#
# PCOD9282256 Si02
#       8
#     8   8   8   8   4   4   8   8
#     4  10  21  39  60  88 119 153 195 243 285 351
#     4   9  21  43  57  86 126 150 195 250 282 345
#     4  11  20  40  56  81 119 143 189 243 284 341
#     4   9  21  42  57  88 124 151 197 244 283 350
#     4  10  22  36  58  82 110 146 188 234 284 350
#     4  10  24  36  60  82 108 156 188 236 292 348
#     4  12  21  37  65  86 115 161 191 237 302 343
#     4  11  21  37  58  83 111 149 189 232 295 342
#
# _framework density 19.031694999999999
#
# number of rings (size 3 to 8) (size 9 to 14) (size 15 to 20)
#    0.857    0.857    2.857    2.143    0.000    1.143 
#    2.571    0.000    0.000    0.000    0.000    0.000 
#    0.000    0.000    0.000    0.000    0.000    0.000 
#
# Total GULP energy -156071.977453 kJ/mol
# GULP energy per Si atom -5573.999195 kJ/mol
# Density = 1.898838 g / cm^3
# Si number density = 19.031695 Si / 1000 Ang^3
#
#
#
# Elastic Constant Matrix: (Units=GPa)
#
#
# Indices 1 2 3 4 5 6 
#
# 1 44.8101 3.7692 8.8973 0.0000 12.9514 0.0000
# 2 3.7692 46.3536 7.5843 0.0000 4.4928 0.0000
# 3 8.8973 7.5843 77.4055 0.0000 12.1761 0.0000
# 4 0.0000 0.0000 0.0000 21.2526 0.0000 6.7186
# 5 12.9514 4.4928 12.1761 0.0000 22.5514 0.0000
# 6 0.0000 0.0000 0.0000 6.7186 0.0000 9.2542
#
#
#
# Elastic Compliance Matrix: (Units=1/GPa)
#
#
# Indices 1 2 3 4 5 6 
#
# 1 0.026812 -0.000625 -0.000675 0.000000 -0.014909 0.000000
# 2 -0.000625 0.022196 -0.001600 0.000000 -0.003200 0.000000
# 3 -0.000675 -0.001600 0.014253 0.000000 -0.006989 0.000000
# 4 0.000000 0.000000 0.000000 0.061069 0.000000 -0.044336
# 5 -0.014909 -0.003200 -0.006989 0.000000 0.057316 0.000000
# 6 0.000000 0.000000 0.000000 -0.044336 0.000000 0.140247
#
#
# Mechanical properties :
#
#
# Convention : Reuss Voigt Hill
#
# Bulk Modulus (GPa) = 17.40302 23.23010 20.31656
# Shear Modulus (GPa) = 14.41561 20.49954 17.45757
#
# Velocity S-wave (km/s) = 2.75517 3.28552 3.03196
# Velocity P-wave (km/s) = 4.39151 5.15998 4.79118
#
# Compressibility (1/GPa) = 0.05746129
#
# Stress axis : x y z
#
# Youngs Moduli (GPa) = 37.29645 45.05326 70.16205
#
# Poissons Ratio (x) = 0.02814 0.04739
# Poissons Ratio (y) = 0.02330 0.11224
# Poissons Ratio (z) = 0.02519 0.07207
#
# Static dielectric constant tensor:
#      x y z
#    x 1.634620 0.000000 -0.005500 
#    y 0.000000 1.654240 0.000000 
#    z -0.005500 0.000000 1.672780 
# 
# From -- ./inp_files/307101.got.cif
#   From: 2010.05.17/outbox.cif.g08.bks.cpg/sg15_154_cif.got.tgz:307101.got - 2010.06.03 18:47:42.
