data_PCOD9282111
_publ_section_title
;
Structure prediction by ZEFSAII (Michael W. Deem and Ramdas Pophale) SiO2 
 PCOD9282111
Probable space group: C 2/C
;
_chemical_formula_sum "Si O2"
_cell_formula_units_Z 40
_cell_length_a 9.608124
_cell_length_b 11.021599
_cell_length_c 25.383017
_cell_angle_alpha 90.000000
_cell_angle_beta 144.043123
_cell_angle_gamma 90.000000
_cell_volume 1578.319352
_symmetry_space_group_name_H-M "C 2/C"
_symmetry_group_IT_number 15
_symmetry_cell_setting 'monoclinic'
loop_
_space_group_symop_operation_xyz
x,y,z
-x,y,1/2-z
-x,-y,-z
x,-y,1/2+z
1/2+x,1/2+y,z
1/2-x,1/2+y,1/2-z
1/2-x,1/2-y,-z
1/2+x,1/2-y,1/2+z
loop_
_atom_site_type_symbol
_atom_site_label
_atom_site_fract_x
_atom_site_fract_y
_atom_site_fract_z
Si Si1 0.065702 0.504956 0.889828
Si Si2 0.747843 0.668797 0.646557
Si Si3 0.911767 0.377701 0.503504
Si Si4 0.268555 0.213964 0.852790
Si Si5 0.750773 0.448912 0.705107
O O1 0.926056 0.608488 0.877702
O O2 0.852322 0.432937 0.794468
O O3 0.219600 0.577158 0.893661
O O4 0.193128 0.423563 0.972602
O O5 0.618681 0.787553 0.586601
O O6 0.642822 0.580395 0.660525
O O7 0.000000 0.704780 0.750000
O O8 0.777268 0.298518 0.418213
O O9 0.000000 0.500000 0.500000
O O10 0.377601 0.337243 0.861286
O O11 0.000000 0.202483 0.750000
O O12 0.000000 0.451854 0.750000
#
# Coordination Sequence:
#
# PCOD9282111 Si02
#       5
#     8   8   8   8   8
#     4   9  20  38  62  87 121 161 206 258 305 370
#     4   9  20  40  63  88 122 162 204 253 311 371
#     4  10  22  37  59  92 126 155 210 256 300 384
#     4  10  21  39  54  86 126 154 200 258 306 364
#     4   8  18  37  59  81 117 154 199 248 302 369
#
# _framework density 25.343412000000001
#
# number of rings (size 3 to 8) (size 9 to 14) (size 15 to 20)
#    0.000    3.200    0.000    0.000    5.600    7.200 
#    3.600    9.000    0.000    0.000    0.000    0.000 
#    0.000    0.000    0.000    0.000    0.000    0.000 
#
# Total GULP energy -111575.300922 kJ/mol
# GULP energy per Si atom -5578.765046 kJ/mol
# Density = 2.528573 g / cm^3
# Si number density = 25.343412 Si / 1000 Ang^3
#
#
#
# Elastic Constant Matrix: (Units=GPa)
#
#
# Indices 1 2 3 4 5 6 
#
# 1 37.2116 2.0145 18.0868 0.0000 -27.2901 0.0000
# 2 2.0145 109.9443 74.5684 0.0000 -16.3175 0.0000
# 3 18.0868 74.5684 193.6009 0.0000 -27.8942 0.0000
# 4 0.0000 0.0000 0.0000 28.4514 0.0000 -9.3919
# 5 -27.2901 -16.3175 -27.8942 0.0000 34.4723 0.0000
# 6 0.0000 0.0000 0.0000 -9.3919 0.0000 30.9710
#
#
#
# Elastic Compliance Matrix: (Units=1/GPa)
#
#
# Indices 1 2 3 4 5 6 
#
# 1 0.069465 0.008202 -0.001320 0.000000 0.057806 0.000000
# 2 0.008202 0.013437 -0.004629 0.000000 0.009107 0.000000
# 3 -0.001320 -0.004629 0.007477 0.000000 0.002814 0.000000
# 4 0.000000 0.000000 0.000000 0.039057 0.000000 0.011844
# 5 0.057806 0.009107 0.002814 0.000000 0.081359 0.000000
# 6 0.000000 0.000000 0.000000 0.011844 0.000000 0.035880
#
#
# Mechanical properties :
#
#
# Convention : Reuss Voigt Hill
#
# Bulk Modulus (GPa) = 10.53923 58.89959 34.71941
# Shear Modulus (GPa) = 18.26162 35.18474 26.72318
#
# Velocity S-wave (km/s) = 2.68725 3.73006 3.25074
# Velocity P-wave (km/s) = 3.71430 6.46855 5.27438
#
# Compressibility (1/GPa) = 0.09488357
#
# Stress axis : x y z
#
# Youngs Moduli (GPa) = 14.39580 74.42267 133.74126
#
# Poissons Ratio (x) = -0.61040 0.17653
# Poissons Ratio (y) = -0.11807 0.61915
# Poissons Ratio (z) = 0.01900 0.34453
#
# Static dielectric constant tensor:
#      x y z
#    x 2.067360 0.000000 -0.001680 
#    y 0.000000 2.123090 0.000000 
#    z -0.001680 0.000000 2.105690 
# 
# From -- ./inp_files/292129.got.cif
#   From: 2010.05.17/outbox.cif.g08.bks.cpg/sg15_147_cif.got.tgz:292129.got - 2010.06.03 18:47:42.
