data_PCOD9282476
_publ_section_title
;
Structure prediction by ZEFSAII (Michael W. Deem and Ramdas Pophale) SiO2 
 PCOD9282476
Probable space group: C 2/C
;
_chemical_formula_sum "Si O2"
_cell_formula_units_Z 64
_cell_length_a 16.438997
_cell_length_b 15.242845
_cell_length_c 18.066082
_cell_angle_alpha 90.000000
_cell_angle_beta 37.279281
_cell_angle_gamma 90.000000
_cell_volume 2741.974467
_symmetry_space_group_name_H-M "C 2/C"
_symmetry_group_IT_number 15
_symmetry_cell_setting 'monoclinic'
loop_
_space_group_symop_operation_xyz
x,y,z
-x,y,1/2-z
-x,-y,-z
x,-y,1/2+z
1/2+x,1/2+y,z
1/2-x,1/2+y,1/2-z
1/2-x,1/2-y,-z
1/2+x,1/2-y,1/2+z
loop_
_atom_site_type_symbol
_atom_site_label
_atom_site_fract_x
_atom_site_fract_y
_atom_site_fract_z
Si Si1 0.219173 0.892663 0.470422
Si Si2 0.944545 0.193743 0.906178
Si Si3 0.679472 0.765858 0.654623
Si Si4 0.863274 0.453912 0.776209
Si Si5 0.232810 0.591881 0.313742
Si Si6 0.479942 0.495566 0.177140
Si Si7 0.560969 0.908049 0.070630
Si Si8 0.387656 0.246029 0.769040
O O1 0.066327 0.920255 0.589656
O O2 0.295249 0.895265 0.493645
O O3 0.264492 0.802924 0.400040
O O4 0.284721 0.969456 0.374183
O O5 0.870969 0.210590 0.879971
O O6 0.092378 0.233824 0.787509
O O7 0.963736 0.090715 0.903515
O O8 0.840882 0.235901 0.039106
O O9 0.637391 0.867273 0.673004
O O10 0.791237 0.419766 0.754838
O O11 0.997816 0.502891 0.650469
O O12 0.325058 0.510518 0.272427
O O13 0.094962 0.590538 0.459889
O O14 0.318173 0.677719 0.273152
O O15 0.500000 0.483935 0.250000
O O16 0.464758 0.828122 0.164902
O O17 0.500000 0.272095 0.750000
#
# Coordination Sequence:
#
# PCOD9282476 Si02
#       8
#     8   8   8   8   8   8   8   8
#     4  10  22  43  73  95 130 170 228 278 325 398
#     4  10  22  38  63  96 129 170 225 276 330 390
#     4  10  21  39  62  91 133 169 218 275 323 403
#     4  11  24  44  64  99 132 179 214 266 353 400
#     4  12  26  41  66  98 139 175 217 278 336 406
#     4  12  22  41  66 102 131 171 226 274 333 391
#     4  10  23  43  71  98 128 172 229 279 327 395
#     4   9  22  43  68  98 124 172 226 278 329 386
#
# _framework density 23.340845000000002
#
# number of rings (size 3 to 8) (size 9 to 14) (size 15 to 20)
#    0.000    1.500    3.750    1.875    5.250    2.500 
#    6.750    0.000    0.000    0.000    0.000    0.000 
#    0.000    0.000    0.000    0.000    0.000    0.000 
#
# Total GULP energy -178901.967751 kJ/mol
# GULP energy per Si atom -5590.686492 kJ/mol
# Density = 2.328772 g / cm^3
# Si number density = 23.340845 Si / 1000 Ang^3
#
#
#
# Elastic Constant Matrix: (Units=GPa)
#
#
# Indices 1 2 3 4 5 6 
#
# 1 40.8340 22.3735 12.0960 0.0000 6.0615 -0.0001
# 2 22.3735 102.2963 20.2154 0.0000 -6.5775 0.0000
# 3 12.0960 20.2154 125.3620 -0.0001 -22.5739 0.0000
# 4 0.0000 0.0000 -0.0001 36.8300 0.0000 -6.6466
# 5 6.0615 -6.5775 -22.5739 0.0000 29.5314 0.0000
# 6 -0.0001 0.0000 0.0000 -6.6466 0.0000 13.9895
#
#
#
# Elastic Compliance Matrix: (Units=1/GPa)
#
#
# Indices 1 2 3 4 5 6 
#
# 1 0.030890 -0.006689 -0.003841 0.000000 -0.010766 0.000000
# 2 -0.006689 0.011581 -0.000592 0.000000 0.003500 0.000000
# 3 -0.003841 -0.000592 0.009928 0.000000 0.008245 0.000000
# 4 0.000000 0.000000 0.000000 0.029698 0.000000 0.014110
# 5 -0.010766 0.003500 0.008245 0.000000 0.043154 0.000000
# 6 0.000000 0.000000 0.000000 0.014110 0.000000 0.078186
#
#
# Mechanical properties :
#
#
# Convention : Reuss Voigt Hill
#
# Bulk Modulus (GPa) = 33.16171 41.98469 37.57320
# Shear Modulus (GPa) = 21.21049 30.32401 25.76725
#
# Velocity S-wave (km/s) = 3.01778 3.60833 3.32619
# Velocity P-wave (km/s) = 5.13625 5.94867 5.55733
#
# Compressibility (1/GPa) = 0.03015526
#
# Stress axis : x y z
#
# Youngs Moduli (GPa) = 32.37248 86.35155 100.72936
#
# Poissons Ratio (x) = 0.57764 0.38685
# Poissons Ratio (y) = 0.21655 0.05960
# Poissons Ratio (z) = 0.12433 0.05110
#
# Static dielectric constant tensor:
#      x y z
#    x 1.840250 0.000000 -0.016650 
#    y 0.000000 1.879050 0.000000 
#    z -0.016650 0.000000 1.884090 
# 
# From -- ./inp_files/211382.got.cif
#   From: 2010.05.17/outbox.cif.g08.bks.cpg/sg15_106_cif.got.tgz:211382.got - 2010.06.03 18:47:42.
