data_PCOD9282716
_publ_section_title
;
Structure prediction by ZEFSAII (Michael W. Deem and Ramdas Pophale) SiO2 
 PCOD9282716
Probable space group: C 2/C
;
_chemical_formula_sum "Si O2"
_cell_formula_units_Z 56
_cell_length_a 20.723573
_cell_length_b 15.308589
_cell_length_c 9.300397
_cell_angle_alpha 90.000000
_cell_angle_beta 99.013586
_cell_angle_gamma 90.000000
_cell_volume 2914.102948
_symmetry_space_group_name_H-M "C 2/C"
_symmetry_group_IT_number 15
_symmetry_cell_setting 'monoclinic'
loop_
_space_group_symop_operation_xyz
x,y,z
-x,y,1/2-z
-x,-y,-z
x,-y,1/2+z
1/2+x,1/2+y,z
1/2-x,1/2+y,1/2-z
1/2-x,1/2-y,-z
1/2+x,1/2-y,1/2+z
loop_
_atom_site_type_symbol
_atom_site_label
_atom_site_fract_x
_atom_site_fract_y
_atom_site_fract_z
Si Si1 0.639429 0.990763 0.458942
Si Si2 0.849906 0.818048 0.101406
Si Si3 0.520466 0.587330 0.923492
Si Si4 0.436404 0.074472 0.318414
Si Si5 0.188277 0.700558 0.910716
Si Si6 0.584883 0.730745 0.585733
Si Si7 0.198438 0.661368 0.583133
O O1 0.575325 0.966638 0.529274
O O2 0.679591 0.901163 0.452845
O O3 0.621323 0.037518 0.303333
O O4 0.675926 0.062554 0.565325
O O5 0.868951 0.812952 0.276309
O O6 0.773734 0.840917 0.058754
O O7 0.903681 0.881749 0.048524
O O8 0.848913 0.721423 0.031109
O O9 0.500000 0.575124 0.750000
O O10 0.476487 0.668489 0.961626
O O11 0.500000 0.500000 0.000000
O O12 0.500000 0.052313 0.250000
O O13 0.435563 0.177886 0.348483
O O14 0.193809 0.700364 0.741218
O O15 0.250000 0.750000 0.000000
O O16 0.125131 0.748171 0.956357
#
# Coordination Sequence:
#
# PCOD9282716 Si02
#       7
#     8   8   8   8   8   8   8
#     4  11  23  37  60  93 125 160 208 258 304 381
#     4  10  21  39  64  89 119 169 204 266 318 369
#     4  10  23  43  65  94 128 169 219 262 316 383
#     4  11  21  38  60  88 126 159 202 253 314 373
#     4  11  23  41  62  91 129 165 206 261 319 377
#     4  10  21  39  66  87 122 170 201 259 319 365
#     4  11  22  40  62  93 125 158 217 256 320 380
#
# _framework density 19.216891
#
# number of rings (size 3 to 8) (size 9 to 14) (size 15 to 20)
#    0.000    1.429    4.286    1.714    0.000    2.286 
#    0.000    0.000    0.000    0.000    0.000    0.000 
#    0.000    0.000    0.000    0.000    0.000    0.000 
#
# Total GULP energy -156114.338241 kJ/mol
# GULP energy per Si atom -5575.512080 kJ/mol
# Density = 1.917315 g / cm^3
# Si number density = 19.216891 Si / 1000 Ang^3
#
#
#
# Elastic Constant Matrix: (Units=GPa)
#
#
# Indices 1 2 3 4 5 6 
#
# 1 102.2710 59.3782 37.1628 0.0000 -15.6325 0.0000
# 2 59.3782 124.8224 31.4783 0.0000 -11.0083 0.0000
# 3 37.1628 31.4783 58.0782 0.0000 -12.1460 0.0000
# 4 0.0000 0.0000 0.0000 31.8196 0.0000 0.1984
# 5 -15.6325 -11.0083 -12.1460 0.0000 25.1618 0.0000
# 6 0.0000 0.0000 0.0000 0.1984 0.0000 22.0351
#
#
#
# Elastic Compliance Matrix: (Units=1/GPa)
#
#
# Indices 1 2 3 4 5 6 
#
# 1 0.016009 -0.005646 -0.006251 0.000000 0.004458 0.000000
# 2 -0.005646 0.011346 -0.002483 0.000000 0.000258 0.000000
# 3 -0.006251 -0.002483 0.023942 0.000000 0.006587 0.000000
# 4 0.000000 0.000000 0.000000 0.031429 0.000000 -0.000283
# 5 0.004458 0.000258 0.006587 0.000000 0.045805 0.000000
# 6 0.000000 0.000000 0.000000 -0.000283 0.000000 0.045385
#
#
# Mechanical properties :
#
#
# Convention : Reuss Voigt Hill
#
# Bulk Modulus (GPa) = 44.37310 60.13446 52.25378
# Shear Modulus (GPa) = 23.78829 26.28011 25.03420
#
# Velocity S-wave (km/s) = 3.52218 3.70206 3.61324
# Velocity P-wave (km/s) = 6.29935 7.04514 6.68266
#
# Compressibility (1/GPa) = 0.02253617
#
# Stress axis : x y z
#
# Youngs Moduli (GPa) = 62.46505 88.13676 41.76841
#
# Poissons Ratio (x) = 0.49760 0.26111
# Poissons Ratio (y) = 0.35267 0.10371
# Poissons Ratio (z) = 0.39049 0.21884
#
# Static dielectric constant tensor:
#      x y z
#    x 1.679720 0.000000 -0.006940 
#    y 0.000000 1.670100 0.000000 
#    z -0.006940 0.000000 1.685470 
# 
# From -- ./inp_files/55655.got.cif
#   From: 2010.05.17/outbox.cif.g08.bks.cpg/sg15_28_cif.got.tgz:55655.got - 2010.06.03 18:47:42.
