data_PCOD9282658
_publ_section_title
;
Structure prediction by ZEFSAII (Michael W. Deem and Ramdas Pophale) SiO2 
 PCOD9282658
Probable space group: C 2/C
;
_chemical_formula_sum "Si O2"
_cell_formula_units_Z 56
_cell_length_a 9.186940
_cell_length_b 12.696277
_cell_length_c 20.514700
_cell_angle_alpha 90.000000
_cell_angle_beta 82.125321
_cell_angle_gamma 90.000000
_cell_volume 2370.269116
_symmetry_space_group_name_H-M "C 2/C"
_symmetry_group_IT_number 15
_symmetry_cell_setting 'monoclinic'
loop_
_space_group_symop_operation_xyz
x,y,z
-x,y,1/2-z
-x,-y,-z
x,-y,1/2+z
1/2+x,1/2+y,z
1/2-x,1/2+y,1/2-z
1/2-x,1/2-y,-z
1/2+x,1/2-y,1/2+z
loop_
_atom_site_type_symbol
_atom_site_label
_atom_site_fract_x
_atom_site_fract_y
_atom_site_fract_z
Si Si1 0.066734 0.114711 0.503345
Si Si2 0.522896 0.814412 0.671860
Si Si3 0.855166 0.482992 0.298532
Si Si4 0.755858 0.867539 0.387330
Si Si5 0.633212 0.553881 0.204467
Si Si6 0.696796 0.697457 0.892176
Si Si7 0.003965 0.227974 0.118287
O O1 0.215042 0.124929 0.536831
O O2 0.936916 0.168480 0.553165
O O3 0.080502 0.160301 0.430417
O O4 0.000000 0.000000 0.500000
O O5 0.500000 0.806054 0.750000
O O6 0.586146 0.930060 0.654226
O O7 0.634577 0.722945 0.644985
O O8 0.368776 0.791966 0.646838
O O9 0.756902 0.550102 0.253049
O O10 0.757025 0.394304 0.339772
O O11 0.000000 0.443300 0.250000
O O12 0.599195 0.830121 0.369265
O O13 0.806611 0.979235 0.356012
O O14 0.500000 0.495832 0.250000
O O15 0.552936 0.656800 0.177263
O O16 0.841346 0.734605 0.920161
#
# Coordination Sequence:
#
# PCOD9282658 Si02
#       7
#     8   8   8   8   8   8   8
#     4  11  24  47  69  91 131 180 227 280 341 402
#     4  10  21  39  63  94 132 173 214 265 335 406
#     4  11  23  41  67 100 138 175 220 273 339 411
#     4  11  23  41  69  96 132 174 226 278 335 407
#     4  12  24  41  69 100 139 180 223 276 341 412
#     4  11  25  43  68  96 136 174 222 281 334 403
#     4  12  25  43  68 102 130 174 227 281 339 396
#
# _framework density 23.626010000000001
#
# number of rings (size 3 to 8) (size 9 to 14) (size 15 to 20)
#    0.000    0.857    1.429    7.286    2.000    1.714 
#    0.000    0.714    0.000    0.000    0.000    0.000 
#    0.000    0.000    0.000    0.000    0.000    0.000 
#
# Total GULP energy -156434.745528 kJ/mol
# GULP energy per Si atom -5586.955197 kJ/mol
# Density = 2.357224 g / cm^3
# Si number density = 23.626010 Si / 1000 Ang^3
#
#
#
# Elastic Constant Matrix: (Units=GPa)
#
#
# Indices 1 2 3 4 5 6 
#
# 1 129.5628 16.0170 26.1560 0.0000 26.1779 0.0000
# 2 16.0170 86.2279 27.0330 0.0000 22.9833 0.0000
# 3 26.1560 27.0330 76.1762 0.0000 22.7636 0.0000
# 4 0.0000 0.0000 0.0000 28.2183 0.0000 -1.2099
# 5 26.1779 22.9833 22.7636 0.0000 33.8912 0.0000
# 6 0.0000 0.0000 0.0000 -1.2099 0.0000 33.8144
#
#
#
# Elastic Compliance Matrix: (Units=1/GPa)
#
#
# Indices 1 2 3 4 5 6 
#
# 1 0.009262 0.000456 -0.001391 0.000000 -0.006529 0.000000
# 2 0.000456 0.014635 -0.002851 0.000000 -0.008362 0.000000
# 3 -0.001391 -0.002851 0.017163 0.000000 -0.008520 0.000000
# 4 0.000000 0.000000 0.000000 0.035493 0.000000 0.001270
# 5 -0.006529 -0.008362 -0.008520 0.000000 0.045942 0.000000
# 6 0.000000 0.000000 0.000000 0.001270 0.000000 0.029619
#
#
# Mechanical properties :
#
#
# Convention : Reuss Voigt Hill
#
# Bulk Modulus (GPa) = 29.86245 47.81986 38.84116
# Shear Modulus (GPa) = 29.26572 34.03551 31.65062
#
# Velocity S-wave (km/s) = 3.52335 3.79963 3.66410
# Velocity P-wave (km/s) = 5.40546 6.28760 5.86315
#
# Compressibility (1/GPa) = 0.03348687
#
# Stress axis : x y z
#
# Youngs Moduli (GPa) = 107.96986 68.32852 58.26528
#
# Poissons Ratio (x) = -0.03115 0.08104
# Poissons Ratio (y) = -0.04922 0.16614
# Poissons Ratio (z) = 0.15018 0.19484
#
# Static dielectric constant tensor:
#      x y z
#    x 1.968530 0.000000 0.002770 
#    y 0.000000 2.016350 0.000000 
#    z 0.002770 0.000000 2.256650 
# 
# From -- ./inp_files/231570.got.cif
#   From: 2010.05.17/outbox.cif.g08.bks.cpg/sg15_116_cif.got.tgz:231570.got - 2010.06.03 18:47:42.
