data_PCOD9282296
_publ_section_title
;
Structure prediction by ZEFSAII (Michael W. Deem and Ramdas Pophale) SiO2 
 PCOD9282296
Probable space group: C 2/C
;
_chemical_formula_sum "Si O2"
_cell_formula_units_Z 52
_cell_length_a 26.535579
_cell_length_b 6.528242
_cell_length_c 19.596834
_cell_angle_alpha 90.000000
_cell_angle_beta 122.203013
_cell_angle_gamma 90.000000
_cell_volume 2872.538500
_symmetry_space_group_name_H-M "C 2/C"
_symmetry_group_IT_number 15
_symmetry_cell_setting 'monoclinic'
loop_
_space_group_symop_operation_xyz
x,y,z
-x,y,1/2-z
-x,-y,-z
x,-y,1/2+z
1/2+x,1/2+y,z
1/2-x,1/2+y,1/2-z
1/2-x,1/2-y,-z
1/2+x,1/2-y,1/2+z
loop_
_atom_site_type_symbol
_atom_site_label
_atom_site_fract_x
_atom_site_fract_y
_atom_site_fract_z
Si Si1 0.315616 0.631620 0.645586
Si Si2 0.327888 0.854713 0.329901
Si Si3 0.237894 0.987838 0.655298
Si Si4 0.500000 0.867201 0.250000
Si Si5 0.199084 0.619955 0.058155
Si Si6 0.393194 0.730265 0.252159
Si Si7 0.879492 0.522579 0.120857
O O1 0.259930 0.496351 0.580611
O O2 0.359228 0.485396 0.720623
O O3 0.282875 0.809252 0.664638
O O4 0.353602 0.752162 0.616297
O O5 0.271353 0.889094 0.239039
O O6 0.318724 0.635069 0.357917
O O7 0.323605 0.024021 0.385964
O O8 0.382934 0.835527 0.317765
O O9 0.216761 0.145825 0.583048
O O10 0.461017 0.732634 0.274558
O O11 0.451068 0.004600 0.175510
O O12 0.149643 0.574698 0.966449
O O13 0.362742 0.877615 0.173302
#
# Coordination Sequence:
#
# PCOD9282296 Si02
#       7
#     8   8   8   4   8   8   8
#     4  11  20  34  62  90 116 153 186 237 301 350
#     4  11  19  34  55  87 120 161 187 226 297 357
#     4  11  19  33  53  87 126 154 183 221 296 369
#     4   8  22  46  60  74 112 158 210 248 286 326
#     4  11  23  34  58  96 130 146 183 241 298 361
#     4  10  21  39  61  80 113 155 205 241 281 346
#     4  10  22  41  60  86 117 157 198 247 283 342
#
# _framework density 18.102454999999999
#
# number of rings (size 3 to 8) (size 9 to 14) (size 15 to 20)
#    0.923    0.615    4.615    1.385    0.000    5.538 
#    0.000    0.769    0.000    0.923    0.000    0.000 
#    0.000    0.000    0.000    0.000    0.000    0.000 
#
# Total GULP energy -144784.525971 kJ/mol
# GULP energy per Si atom -5568.635614 kJ/mol
# Density = 1.806125 g / cm^3
# Si number density = 18.102455 Si / 1000 Ang^3
#
#
#
# Elastic Constant Matrix: (Units=GPa)
#
#
# Indices 1 2 3 4 5 6 
#
# 1 116.5800 29.1123 33.9886 0.0000 9.7271 0.0000
# 2 29.1123 66.9277 10.2803 0.0000 2.6002 0.0002
# 3 33.9886 10.2803 60.6986 -0.0001 10.3154 0.0000
# 4 0.0000 0.0000 -0.0001 12.7163 0.0000 -5.0432
# 5 9.7271 2.6002 10.3154 0.0000 20.8894 0.0000
# 6 0.0000 0.0002 0.0000 -5.0432 0.0000 22.0763
#
#
#
# Elastic Compliance Matrix: (Units=1/GPa)
#
#
# Indices 1 2 3 4 5 6 
#
# 1 0.011301 -0.004021 -0.005281 0.000000 -0.002154 0.000000
# 2 -0.004021 0.016780 -0.000604 0.000000 0.000082 0.000000
# 3 -0.005281 -0.000604 0.020854 0.000000 -0.007763 0.000000
# 4 0.000000 0.000000 0.000000 0.086474 0.000000 0.019754
# 5 -0.002154 0.000082 -0.007763 0.000000 0.052698 0.000000
# 6 0.000000 0.000000 0.000000 0.019754 0.000000 0.049810
#
#
# Mechanical properties :
#
#
# Convention : Reuss Voigt Hill
#
# Bulk Modulus (GPa) = 34.33800 43.44095 38.88948
# Shear Modulus (GPa) = 18.69597 22.52476 20.61036
#
# Velocity S-wave (km/s) = 3.21719 3.53128 3.37789
# Velocity P-wave (km/s) = 5.72802 6.37777 6.06161
#
# Compressibility (1/GPa) = 0.02912225
#
# Stress axis : x y z
#
# Youngs Moduli (GPa) = 88.48497 59.59409 47.95295
#
# Poissons Ratio (x) = 0.23963 0.25325
# Poissons Ratio (y) = 0.35580 0.02898
# Poissons Ratio (z) = 0.46730 0.03602
#
# Static dielectric constant tensor:
#      x y z
#    x 1.682020 0.000000 -0.016310 
#    y 0.000000 1.653880 0.000000 
#    z -0.016310 0.000000 1.593620 
# 
# From -- ./inp_files/256800.got.cif
#   From: 2010.05.17/outbox.cif.g08.bks.cpg/sg15_129_cif.got.tgz:256800.got - 2010.06.03 18:47:42.
