data_PCOD9282573
_publ_section_title
;
Structure prediction by ZEFSAII (Michael W. Deem and Ramdas Pophale) SiO2 
 PCOD9282573
Probable space group: C 2/C
;
_chemical_formula_sum "Si O2"
_cell_formula_units_Z 60
_cell_length_a 17.294006
_cell_length_b 13.738852
_cell_length_c 16.016672
_cell_angle_alpha 90.000000
_cell_angle_beta 120.055294
_cell_angle_gamma 90.000000
_cell_volume 3293.871970
_symmetry_space_group_name_H-M "C 2/C"
_symmetry_group_IT_number 15
_symmetry_cell_setting 'monoclinic'
loop_
_space_group_symop_operation_xyz
x,y,z
-x,y,1/2-z
-x,-y,-z
x,-y,1/2+z
1/2+x,1/2+y,z
1/2-x,1/2+y,1/2-z
1/2-x,1/2-y,-z
1/2+x,1/2-y,1/2+z
loop_
_atom_site_type_symbol
_atom_site_label
_atom_site_fract_x
_atom_site_fract_y
_atom_site_fract_z
Si Si1 0.365259 0.962190 0.928054
Si Si2 0.919920 0.239722 0.272758
Si Si3 0.337422 0.949020 0.235756
Si Si4 0.465001 0.857069 0.550568
Si Si5 0.141323 0.049145 0.549790
Si Si6 0.040765 0.150117 0.026798
Si Si7 0.000000 0.566488 0.250000
Si Si8 0.212357 0.154851 0.432240
O O1 0.450623 0.892514 0.959598
O O2 0.295431 0.906635 0.946008
O O3 0.331337 0.989954 0.817676
O O4 0.392248 0.062207 0.987398
O O5 0.879763 0.343697 0.277942
O O6 0.948630 0.179746 0.369980
O O7 0.844308 0.185982 0.178467
O O8 0.000000 0.255302 0.250000
O O9 0.239036 0.939932 0.143718
O O10 0.411141 0.001189 0.216547
O O11 0.440505 0.747823 0.514463
O O12 0.488291 0.871165 0.660031
O O13 0.154259 0.089510 0.463427
O O14 0.060783 0.113867 0.544240
O O15 0.106348 0.938633 0.538961
O O16 0.250000 0.250000 0.500000
#
# Coordination Sequence:
#
# PCOD9282573 Si02
#       8
#     8   8   8   8   8   8   4   8
#     4  10  22  37  63  91 124 161 205 262 321 364
#     4  12  23  37  66  95 125 161 212 263 318 370
#     4  11  21  40  63  95 126 162 207 269 316 373
#     4  10  21  39  63  89 125 168 204 256 315 376
#     4  11  24  41  65  89 127 166 209 261 316 379
#     4  11  24  45  61  90 131 174 207 257 319 379
#     4  10  22  38  62  94 128 156 216 264 316 368
#     4  12  23  38  64  95 122 159 215 262 313 375
#
# _framework density 18.215644999999999
#
# number of rings (size 3 to 8) (size 9 to 14) (size 15 to 20)
#    0.000    1.067    4.667    2.400    0.000    0.000 
#    0.000    6.667    0.000    0.000    0.000    0.000 
#    0.000    0.000    0.000    0.000    0.000    0.000 
#
# Total GULP energy -167566.729129 kJ/mol
# GULP energy per Si atom -5585.557638 kJ/mol
# Density = 1.817419 g / cm^3
# Si number density = 18.215645 Si / 1000 Ang^3
#
#
#
# Elastic Constant Matrix: (Units=GPa)
#
#
# Indices 1 2 3 4 5 6 
#
# 1 102.9611 56.7596 23.8321 0.0000 2.8350 0.0000
# 2 56.7596 127.8257 33.7648 0.0000 -4.3319 0.0000
# 3 23.8321 33.7648 76.2634 0.0000 7.4367 0.0000
# 4 0.0000 0.0000 0.0000 23.2463 0.0000 -4.1281
# 5 2.8350 -4.3319 7.4367 0.0000 30.2605 0.0000
# 6 0.0000 0.0000 0.0000 -4.1281 0.0000 18.0096
#
#
#
# Elastic Compliance Matrix: (Units=1/GPa)
#
#
# Indices 1 2 3 4 5 6 
#
# 1 0.013133 -0.005487 -0.001514 0.000000 -0.001644 0.000000
# 2 -0.005487 0.011309 -0.003586 0.000000 0.003014 0.000000
# 3 -0.001514 -0.003586 0.015583 0.000000 -0.004201 0.000000
# 4 0.000000 0.000000 0.000000 0.044843 0.000000 0.010279
# 5 -0.001644 0.003014 -0.004201 0.000000 0.034664 0.000000
# 6 0.000000 0.000000 0.000000 0.010279 0.000000 0.057882
#
#
# Mechanical properties :
#
#
# Convention : Reuss Voigt Hill
#
# Bulk Modulus (GPa) = 53.05112 59.52925 56.29018
# Shear Modulus (GPa) = 24.40525 27.14949 25.77737
#
# Velocity S-wave (km/s) = 3.66429 3.86482 3.76589
# Velocity P-wave (km/s) = 6.86221 7.25721 7.06247
#
# Compressibility (1/GPa) = 0.01884975
#
# Stress axis : x y z
#
# Youngs Moduli (GPa) = 76.14273 88.42365 64.17211
#
# Poissons Ratio (x) = 0.48521 0.09718
# Poissons Ratio (y) = 0.41782 0.23013
# Poissons Ratio (z) = 0.11531 0.31710
#
# Static dielectric constant tensor:
#      x y z
#    x 1.625240 0.000000 0.020610 
#    y 0.000000 1.605500 0.000000 
#    z 0.020610 0.000000 1.629370 
# 
# From -- ./inp_files/204515.got.cif
#   From: 2010.05.17/outbox.cif.g08.bks.cpg/sg15_103_cif.got.tgz:204515.got - 2010.06.03 18:47:42.
