data_PCOD9282378
_publ_section_title
;
Structure prediction by ZEFSAII (Michael W. Deem and Ramdas Pophale) SiO2 
 PCOD9282378
Probable space group: C 2/C
;
_chemical_formula_sum "Si O2"
_cell_formula_units_Z 56
_cell_length_a 16.764834
_cell_length_b 16.388296
_cell_length_c 10.588867
_cell_angle_alpha 90.000000
_cell_angle_beta 49.490705
_cell_angle_gamma 90.000000
_cell_volume 2211.912188
_symmetry_space_group_name_H-M "C 2/C"
_symmetry_group_IT_number 15
_symmetry_cell_setting 'monoclinic'
loop_
_space_group_symop_operation_xyz
x,y,z
-x,y,1/2-z
-x,-y,-z
x,-y,1/2+z
1/2+x,1/2+y,z
1/2-x,1/2+y,1/2-z
1/2-x,1/2-y,-z
1/2+x,1/2-y,1/2+z
loop_
_atom_site_type_symbol
_atom_site_label
_atom_site_fract_x
_atom_site_fract_y
_atom_site_fract_z
Si Si1 0.128692 0.141983 0.321247
Si Si2 0.903337 0.016753 0.941289
Si Si3 0.123597 0.695975 0.703392
Si Si4 0.072078 0.383565 0.998345
Si Si5 0.679150 0.636187 0.856671
Si Si6 0.195550 0.717033 0.186243
Si Si7 0.768497 0.495709 0.075117
O O1 0.072382 0.082269 0.476503
O O2 0.086105 0.213078 0.276566
O O3 0.203181 0.194976 0.336043
O O4 0.197984 0.075436 0.176602
O O5 0.000000 0.024217 0.750000
O O6 0.786699 0.032393 0.999768
O O7 0.898668 0.924229 0.993702
O O8 0.113082 0.678217 0.566197
O O9 0.241122 0.676296 0.625974
O O10 0.051026 0.631771 0.856222
O O11 0.116809 0.357262 0.814031
O O12 0.116276 0.469414 0.008572
O O13 0.636268 0.705539 0.808558
O O14 0.743132 0.575398 0.698754
O O15 0.250000 0.750000 0.000000
#
# Coordination Sequence:
#
# PCOD9282378 Si02
#       7
#     8   8   8   8   8   8   8
#     4   9  22  37  59  91 130 171 216 273 323 390
#     4  11  23  39  63  96 138 175 220 271 338 407
#     4  10  21  41  66 102 130 173 231 273 332 393
#     4  10  22  39  69  97 131 175 225 281 327 398
#     4  10  22  39  65  95 133 175 218 278 339 401
#     4  10  21  39  63  90 127 176 225 272 333 391
#     4  10  21  39  61  92 133 170 217 271 333 397
#
# _framework density 25.317461000000002
#
# number of rings (size 3 to 8) (size 9 to 14) (size 15 to 20)
#    0.000    2.000    1.429    0.857    2.000    8.000 
#    0.000    2.143    0.000    0.000    0.000    0.000 
#    0.000    0.000    0.000    0.000    0.000    0.000 
#
# Total GULP energy -156165.048225 kJ/mol
# GULP energy per Si atom -5577.323151 kJ/mol
# Density = 2.525984 g / cm^3
# Si number density = 25.317461 Si / 1000 Ang^3
#
#
#
# Elastic Constant Matrix: (Units=GPa)
#
#
# Indices 1 2 3 4 5 6 
#
# 1 61.6857 14.0357 -0.0477 0.0000 8.5816 0.0000
# 2 14.0357 93.6349 14.9464 0.0000 6.5408 0.0000
# 3 -0.0477 14.9464 113.8246 0.0000 4.2002 0.0000
# 4 0.0000 0.0000 0.0000 27.7541 0.0000 13.8339
# 5 8.5816 6.5408 4.2002 0.0000 34.2981 0.0000
# 6 0.0000 0.0000 0.0000 13.8339 0.0000 26.8476
#
#
#
# Elastic Compliance Matrix: (Units=1/GPa)
#
#
# Indices 1 2 3 4 5 6 
#
# 1 0.017303 -0.002394 0.000467 0.000000 -0.003930 0.000000
# 2 -0.002394 0.011366 -0.001442 0.000000 -0.001392 0.000000
# 3 0.000467 -0.001442 0.009010 0.000000 -0.000945 0.000000
# 4 0.000000 0.000000 0.000000 0.048483 0.000000 -0.024982
# 5 -0.003930 -0.001392 -0.000945 0.000000 0.030521 0.000000
# 6 0.000000 0.000000 0.000000 -0.024982 0.000000 0.050120
#
#
# Mechanical properties :
#
#
# Convention : Reuss Voigt Hill
#
# Bulk Modulus (GPa) = 32.32010 36.33489 34.32750
# Shear Modulus (GPa) = 27.19551 33.79401 30.49476
#
# Velocity S-wave (km/s) = 3.28102 3.65747 3.47435
# Velocity P-wave (km/s) = 5.21029 5.67618 5.44822
#
# Compressibility (1/GPa) = 0.03094050
#
# Stress axis : x y z
#
# Youngs Moduli (GPa) = 57.79363 87.98156 110.98921
#
# Poissons Ratio (x) = 0.21060 -0.05179
# Poissons Ratio (y) = 0.13834 0.16006
# Poissons Ratio (z) = -0.02697 0.12688
#
# Static dielectric constant tensor:
#      x y z
#    x 2.084240 0.000000 -0.018070 
#    y 0.000000 2.101820 0.000000 
#    z -0.018070 0.000000 2.057570 
# 
# From -- ./inp_files/106626.got.cif
#   From: 2010.05.17/outbox.cif.g08.bks.cpg/sg15_54_cif.got.tgz:106626.got - 2010.06.03 18:47:42.
