data_PCOD9282160
_publ_section_title
;
Structure prediction by ZEFSAII (Michael W. Deem and Ramdas Pophale) SiO2 
 PCOD9282160
Probable space group: C 2/C
;
_chemical_formula_sum "Si O2"
_cell_formula_units_Z 48
_cell_length_a 15.680928
_cell_length_b 27.419084
_cell_length_c 5.480859
_cell_angle_alpha 90.000000
_cell_angle_beta 67.916235
_cell_angle_gamma 90.000000
_cell_volume 2183.645451
_symmetry_space_group_name_H-M "C 2/C"
_symmetry_group_IT_number 15
_symmetry_cell_setting 'monoclinic'
loop_
_space_group_symop_operation_xyz
x,y,z
-x,y,1/2-z
-x,-y,-z
x,-y,1/2+z
1/2+x,1/2+y,z
1/2-x,1/2+y,1/2-z
1/2-x,1/2-y,-z
1/2+x,1/2-y,1/2+z
loop_
_atom_site_type_symbol
_atom_site_label
_atom_site_fract_x
_atom_site_fract_y
_atom_site_fract_z
Si Si1 0.773973 0.898160 0.252895
Si Si2 0.037288 0.944281 0.458832
Si Si3 0.332682 0.111191 0.141239
Si Si4 0.608631 0.788219 0.098602
Si Si5 0.271411 0.709374 0.776854
Si Si6 0.898222 0.515158 0.908435
O O1 0.853545 0.938321 0.168662
O O2 0.703571 0.904859 0.554636
O O3 0.811143 0.843897 0.287943
O O4 0.739220 0.893483 0.008936
O O5 0.000000 0.921232 0.250000
O O6 0.000000 0.000000 0.500000
O O7 0.000000 0.921594 0.750000
O O8 0.369422 0.166321 0.104392
O O9 0.406398 0.071336 0.976666
O O10 0.500000 0.784772 0.250000
O O11 0.671423 0.801053 0.264761
O O12 0.654758 0.737459 0.969535
O O13 0.250000 0.750000 0.000000
O O14 0.851913 0.509750 0.693461
O O15 0.000000 0.494045 0.750000
#
# Coordination Sequence:
#
# PCOD9282160 Si02
#       6
#     8   8   8   8   8   8
#     4  11  23  41  67  89 131 170 210 275 343 383
#     4  10  22  44  64  91 127 168 219 276 330 404
#     4  11  22  41  63  97 125 166 217 267 330 402
#     4  10  22  40  66  96 130 180 225 277 346 407
#     4  10  21  42  62  93 139 169 225 287 334 418
#     4  10  21  39  58  86 125 160 201 255 311 380
#
# _framework density 21.981591000000002
#
# number of rings (size 3 to 8) (size 9 to 14) (size 15 to 20)
#    0.000    1.667    1.667    2.500    0.000    1.333 
#   21.000    1.667    0.000    0.000    0.000    0.000 
#    0.000    0.000    0.000    0.000    0.000    0.000 
#
# Total GULP energy -133659.290147 kJ/mol
# GULP energy per Si atom -5569.137089 kJ/mol
# Density = 2.193156 g / cm^3
# Si number density = 21.981591 Si / 1000 Ang^3
#
#
#
# Elastic Constant Matrix: (Units=GPa)
#
#
# Indices 1 2 3 4 5 6 
#
# 1 94.9838 18.1729 42.0255 0.0000 -15.1581 0.0000
# 2 18.1729 88.8774 16.5831 0.0000 -3.8847 0.0000
# 3 42.0255 16.5831 136.6449 0.0000 14.6339 0.0000
# 4 0.0000 0.0000 0.0000 35.5473 0.0000 2.7276
# 5 -15.1581 -3.8847 14.6339 0.0000 38.9068 0.0000
# 6 0.0000 0.0000 0.0000 2.7276 0.0000 20.7601
#
#
#
# Elastic Compliance Matrix: (Units=1/GPa)
#
#
# Indices 1 2 3 4 5 6 
#
# 1 0.014180 -0.001664 -0.004932 0.000000 0.007213 0.000000
# 2 -0.001664 0.011822 -0.001021 0.000000 0.000916 0.000000
# 3 -0.004932 -0.001021 0.009561 0.000000 -0.005619 0.000000
# 4 0.000000 0.000000 0.000000 0.028418 0.000000 -0.003734
# 5 0.007213 0.000916 -0.005619 0.000000 0.030718 0.000000
# 6 0.000000 0.000000 0.000000 -0.003734 0.000000 0.048660
#
#
# Mechanical properties :
#
#
# Convention : Reuss Voigt Hill
#
# Bulk Modulus (GPa) = 49.18991 52.67436 50.93214
# Shear Modulus (GPa) = 30.23565 35.29113 32.76339
#
# Velocity S-wave (km/s) = 3.71280 4.01120 3.86488
# Velocity P-wave (km/s) = 6.38797 6.74299 6.56788
#
# Compressibility (1/GPa) = 0.02032937
#
# Stress axis : x y z
#
# Youngs Moduli (GPa) = 70.52435 84.58626 104.59531
#
# Poissons Ratio (x) = 0.14074 0.51581
# Poissons Ratio (y) = 0.11734 0.10681
# Poissons Ratio (z) = 0.34779 0.08637
#
# Static dielectric constant tensor:
#      x y z
#    x 1.841810 0.000000 0.080990 
#    y 0.000000 1.882520 0.000000 
#    z 0.080990 0.000000 1.878330 
# 
# From -- ./inp_files/8931.got.cif
#   From: 2010.05.17/outbox.cif.g08.bks.cpg/sg15_5_cif.got.tgz:8931.got - 2010.06.03 18:47:42.
