data_PCOD9282033
_publ_section_title
;
Structure prediction by ZEFSAII (Michael W. Deem and Ramdas Pophale) SiO2 
 PCOD9282033
Probable space group: C 2/C
;
_chemical_formula_sum "Si O2"
_cell_formula_units_Z 64
_cell_length_a 12.972588
_cell_length_b 9.641330
_cell_length_c 22.990224
_cell_angle_alpha 90.000000
_cell_angle_beta 71.629542
_cell_angle_gamma 90.000000
_cell_volume 2728.919152
_symmetry_space_group_name_H-M "C 2/C"
_symmetry_group_IT_number 15
_symmetry_cell_setting 'monoclinic'
loop_
_space_group_symop_operation_xyz
x,y,z
-x,y,1/2-z
-x,-y,-z
x,-y,1/2+z
1/2+x,1/2+y,z
1/2-x,1/2+y,1/2-z
1/2-x,1/2-y,-z
1/2+x,1/2-y,1/2+z
loop_
_atom_site_type_symbol
_atom_site_label
_atom_site_fract_x
_atom_site_fract_y
_atom_site_fract_z
Si Si1 0.417527 0.481999 0.148344
Si Si2 0.322898 0.576461 0.048977
Si Si3 0.971760 0.337911 0.656047
Si Si4 0.684284 0.740030 0.661311
Si Si5 0.755432 0.869886 0.758986
Si Si6 0.178631 0.424936 0.982289
Si Si7 0.035427 0.682440 0.013693
Si Si8 0.857171 0.083457 0.357066
O O1 0.388982 0.495175 0.085960
O O2 0.442597 0.324341 0.157692
O O3 0.317795 0.522957 0.206887
O O4 0.518395 0.584009 0.144705
O O5 0.255201 0.688488 0.098589
O O6 0.245007 0.475509 0.026765
O O7 0.402346 0.671042 0.995550
O O8 0.862705 0.413361 0.695411
O O9 0.007983 0.369946 0.583757
O O10 0.075444 0.334871 0.679586
O O11 0.735766 0.749206 0.715638
O O12 0.662383 0.580788 0.651055
O O13 0.829654 0.840337 0.801821
O O14 0.077405 0.318606 0.002117
O O15 0.268735 0.374462 0.920706
O O16 0.117046 0.566846 0.973596
#
# Coordination Sequence:
#
# PCOD9282033 Si02
#       8
#     8   8   8   8   8   8   8   8
#     4  10  25  41  65  92 127 170 224 264 331 405
#     4  11  21  42  65  98 132 173 206 274 331 391
#     4  11  21  41  63  93 123 169 218 267 328 394
#     4  10  21  38  68  89 120 168 219 264 327 395
#     4  11  22  38  61  92 123 161 218 277 321 380
#     4  11  22  38  66 102 132 163 220 270 328 410
#     4  11  22  38  66 101 132 167 215 270 333 403
#     4  11  21  41  65  91 124 173 212 270 329 397
#
# _framework density 23.45251
#
# number of rings (size 3 to 8) (size 9 to 14) (size 15 to 20)
#    0.000    1.250    3.750    3.375    0.000    4.000 
#    2.250    1.250    0.000    3.000    0.000    0.000 
#    0.000    0.000    0.000    0.000    0.000    0.000 
#
# Total GULP energy -178895.936558 kJ/mol
# GULP energy per Si atom -5590.498017 kJ/mol
# Density = 2.339913 g / cm^3
# Si number density = 23.452510 Si / 1000 Ang^3
#
#
#
# Elastic Constant Matrix: (Units=GPa)
#
#
# Indices 1 2 3 4 5 6 
#
# 1 146.5831 25.7953 47.0879 0.0000 17.3895 0.0000
# 2 25.7953 18.4834 4.4426 0.0000 -4.3300 0.0000
# 3 47.0879 4.4426 101.0294 0.0000 6.7896 0.0000
# 4 0.0000 0.0000 0.0000 27.7260 0.0000 -5.2170
# 5 17.3895 -4.3300 6.7896 0.0000 46.4971 0.0000
# 6 0.0000 0.0000 0.0000 -5.2170 0.0000 25.8636
#
#
#
# Elastic Compliance Matrix: (Units=1/GPa)
#
#
# Indices 1 2 3 4 5 6 
#
# 1 0.011801 -0.016656 -0.004410 0.000000 -0.005321 0.000000
# 2 -0.016656 0.079616 0.003378 0.000000 0.013150 0.000000
# 3 -0.004410 0.003378 0.011789 0.000000 0.000243 0.000000
# 4 0.000000 0.000000 0.000000 0.037490 0.000000 0.007562
# 5 -0.005321 0.013150 0.000243 0.000000 0.024686 0.000000
# 6 0.000000 0.000000 0.000000 0.007562 0.000000 0.040190
#
#
# Mechanical properties :
#
#
# Convention : Reuss Voigt Hill
#
# Bulk Modulus (GPa) = 14.74275 46.74971 30.74623
# Shear Modulus (GPa) = 18.97126 32.60201 25.78663
#
# Velocity S-wave (km/s) = 2.84724 3.73249 3.31951
# Velocity P-wave (km/s) = 4.13629 6.20905 5.27547
#
# Compressibility (1/GPa) = 0.06782993
#
# Stress axis : x y z
#
# Youngs Moduli (GPa) = 84.73842 12.56034 84.82628
#
# Poissons Ratio (x) = 0.20920 0.37411
# Poissons Ratio (y) = 1.41138 -0.28656
# Poissons Ratio (z) = 0.37372 -0.04243
#
# Static dielectric constant tensor:
#      x y z
#    x 1.955340 0.000000 -0.011180 
#    y 0.000000 1.883590 0.000000 
#    z -0.011180 0.000000 1.892140 
# 
# From -- ./inp_files/268814.got.cif
#   From: 2010.05.17/outbox.cif.g08.bks.cpg/sg15_135_cif.got.tgz:268814.got - 2010.06.03 18:47:42.
