data_PCOD9282096
_publ_section_title
;
Structure prediction by ZEFSAII (Michael W. Deem and Ramdas Pophale) SiO2 
 PCOD9282096
Probable space group: C 2/C
;
_chemical_formula_sum "Si O2"
_cell_formula_units_Z 60
_cell_length_a 26.545483
_cell_length_b 9.234522
_cell_length_c 22.628323
_cell_angle_alpha 90.000000
_cell_angle_beta 28.814765
_cell_angle_gamma 90.000000
_cell_volume 2673.535595
_symmetry_space_group_name_H-M "C 2/C"
_symmetry_group_IT_number 15
_symmetry_cell_setting 'monoclinic'
loop_
_space_group_symop_operation_xyz
x,y,z
-x,y,1/2-z
-x,-y,-z
x,-y,1/2+z
1/2+x,1/2+y,z
1/2-x,1/2+y,1/2-z
1/2-x,1/2-y,-z
1/2+x,1/2-y,1/2+z
loop_
_atom_site_type_symbol
_atom_site_label
_atom_site_fract_x
_atom_site_fract_y
_atom_site_fract_z
Si Si1 0.960900 0.621792 0.661088
Si Si2 0.534066 0.205602 0.085047
Si Si3 0.681712 0.132718 0.035905
Si Si4 0.781115 0.232744 0.183858
Si Si5 0.248173 0.918984 0.328017
Si Si6 0.500000 0.082645 0.750000
Si Si7 0.654144 0.419148 0.222117
Si Si8 0.011633 0.897820 0.547644
O O1 0.834981 0.603084 0.788562
O O2 0.999048 0.665643 0.688145
O O3 0.008830 0.462389 0.602789
O O4 0.999167 0.724179 0.567744
O O5 0.611645 0.219664 0.060569
O O6 0.429581 0.293468 0.205943
O O7 0.599472 0.261987 0.961658
O O8 0.600704 0.024769 0.149993
O O9 0.750000 0.250000 0.000000
O O10 0.766717 0.043922 0.910945
O O11 0.767664 0.286635 0.263485
O O12 0.720877 0.352212 0.206914
O O13 0.731995 0.075933 0.222437
O O14 0.123417 0.924741 0.464182
O O15 0.584680 0.550450 0.314052
O O16 0.000000 0.000000 0.500000
#
# Coordination Sequence:
#
# PCOD9282096 Si02
#       8
#     8   8   8   8   8   4   8   8
#     4  11  26  45  72  98 144 191 237 296 369 430
#     4  10  22  40  64 100 138 183 234 293 360 427
#     4  10  21  38  71  99 137 180 243 302 357 416
#     4  11  24  38  65  98 141 179 236 288 358 434
#     4  12  25  41  67 100 137 189 234 291 363 430
#     4  10  24  48  68 106 142 194 246 304 360 442
#     4  11  22  41  64 101 138 178 232 295 352 430
#     4  12  26  46  68 104 148 185 240 297 358 444
#
# _framework density 22.442191999999999
#
# number of rings (size 3 to 8) (size 9 to 14) (size 15 to 20)
#    0.000    1.067    4.000    2.400    3.733    2.667 
#    0.000    4.000    0.000    0.000    0.000    0.000 
#    0.000    0.000    0.000    0.000    0.000    0.000 
#
# Total GULP energy -167436.979112 kJ/mol
# GULP energy per Si atom -5581.232637 kJ/mol
# Density = 2.239111 g / cm^3
# Si number density = 22.442192 Si / 1000 Ang^3
#
#
#
# Elastic Constant Matrix: (Units=GPa)
#
#
# Indices 1 2 3 4 5 6 
#
# 1 113.9635 28.7045 33.1303 -0.0004 -21.7809 0.0002
# 2 28.7045 81.4317 10.0795 -0.0005 -4.8726 0.0004
# 3 33.1303 10.0795 108.0972 0.0006 -19.6929 -0.0001
# 4 -0.0004 -0.0005 0.0006 30.2208 -0.0001 -4.3859
# 5 -21.7809 -4.8726 -19.6929 -0.0001 33.6467 0.0000
# 6 0.0002 0.0004 -0.0001 -4.3859 0.0000 25.8601
#
#
#
# Elastic Compliance Matrix: (Units=1/GPa)
#
#
# Indices 1 2 3 4 5 6 
#
# 1 0.011317 -0.003391 -0.002135 0.000000 0.005585 0.000000
# 2 -0.003391 0.013487 -0.000294 0.000000 -0.000414 0.000000
# 3 -0.002135 -0.000294 0.010828 0.000000 0.004913 0.000000
# 4 0.000000 0.000000 0.000000 0.033925 0.000000 0.005754
# 5 0.005585 -0.000414 0.004913 0.000000 0.036152 0.000000
# 6 0.000000 0.000000 0.000000 0.005754 0.000000 0.039645
#
#
# Mechanical properties :
#
#
# Convention : Reuss Voigt Hill
#
# Bulk Modulus (GPa) = 41.67877 49.70235 45.69056
# Shear Modulus (GPa) = 30.30493 33.38406 31.84450
#
# Velocity S-wave (km/s) = 3.67870 3.86107 3.77099
# Velocity P-wave (km/s) = 6.05440 6.48630 6.27407
#
# Compressibility (1/GPa) = 0.02399303
#
# Stress axis : x y z
#
# Youngs Moduli (GPa) = 88.36367 74.14514 92.35660
#
# Poissons Ratio (x) = 0.25141 0.19716
# Poissons Ratio (y) = 0.29962 0.02713
# Poissons Ratio (z) = 0.18864 0.02178
#
# Static dielectric constant tensor:
#      x y z
#    x 1.906260 0.000000 0.008640 
#    y 0.000000 1.848120 0.000000 
#    z 0.008640 0.000000 1.849110 
# 
# From -- ./inp_files/283387.got.cif
#   From: 2010.05.17/outbox.cif.g08.bks.cpg/sg15_142_cif.got.tgz:283387.got - 2010.06.03 18:47:42.
