data_PCOD9282712
_publ_section_title
;
Structure prediction by ZEFSAII (Michael W. Deem and Ramdas Pophale) SiO2 
 PCOD9282712
Probable space group: C 2/C
;
_chemical_formula_sum "Si O2"
_cell_formula_units_Z 60
_cell_length_a 5.073973
_cell_length_b 19.843333
_cell_length_c 31.217203
_cell_angle_alpha 90.000000
_cell_angle_beta 112.947750
_cell_angle_gamma 90.000000
_cell_volume 2894.347974
_symmetry_space_group_name_H-M "C 2/C"
_symmetry_group_IT_number 15
_symmetry_cell_setting 'monoclinic'
loop_
_space_group_symop_operation_xyz
x,y,z
-x,y,1/2-z
-x,-y,-z
x,-y,1/2+z
1/2+x,1/2+y,z
1/2-x,1/2+y,1/2-z
1/2-x,1/2-y,-z
1/2+x,1/2-y,1/2+z
loop_
_atom_site_type_symbol
_atom_site_label
_atom_site_fract_x
_atom_site_fract_y
_atom_site_fract_z
Si Si1 0.707680 0.471563 0.849145
Si Si2 0.508241 0.660871 0.367804
Si Si3 0.500000 0.132467 0.750000
Si Si4 0.585916 0.316753 0.401290
Si Si5 0.428218 0.109961 0.291100
Si Si6 0.785783 0.253645 0.810248
Si Si7 0.681933 0.938437 0.344544
Si Si8 0.823264 0.734898 0.553334
O O1 0.722510 0.403645 0.878634
O O2 0.418558 0.511254 0.840363
O O3 0.716042 0.437786 0.802899
O O4 0.974348 0.523132 0.864520
O O5 0.205670 0.626035 0.337938
O O6 0.571579 0.715290 0.333367
O O7 0.552587 0.698785 0.415015
O O8 0.737983 0.186949 0.779155
O O9 0.514205 0.089220 0.707343
O O10 0.543752 0.267224 0.357789
O O11 0.377714 0.379303 0.376954
O O12 0.449860 0.285571 0.435539
O O13 0.925939 0.321718 0.427977
O O14 0.500000 0.081139 0.250000
O O15 0.310613 0.185205 0.279229
O O16 0.750000 0.750000 0.500000
#
# Coordination Sequence:
#
# PCOD9282712 Si02
#       8
#     8   8   4   8   8   8   8   8
#     4  11  24  42  59  87 119 174 215 252 299 358
#     4  10  21  39  64  88 125 157 205 258 315 372
#     4  10  22  38  54  86 122 166 214 256 306 356
#     4  10  21  40  63  92 127 158 198 246 319 378
#     4  11  21  35  61  87 123 161 207 263 301 356
#     4   9  19  37  56  87 119 160 201 255 312 366
#     4  11  24  41  62  85 127 174 214 254 295 373
#     4  11  22  40  70 101 124 149 198 265 328 380
#
# _framework density 20.730060000000002
#
# number of rings (size 3 to 8) (size 9 to 14) (size 15 to 20)
#    0.000    1.600    2.667    2.000    0.933    3.200 
#    7.200    0.000    0.000    4.800    0.000    0.000 
#    0.000    0.000    0.000    0.000    0.000    0.000 
#
# Total GULP energy -167166.834254 kJ/mol
# GULP energy per Si atom -5572.227808 kJ/mol
# Density = 2.068288 g / cm^3
# Si number density = 20.730060 Si / 1000 Ang^3
#
#
#
# Elastic Constant Matrix: (Units=GPa)
#
#
# Indices 1 2 3 4 5 6 
#
# 1 79.7087 21.2471 20.8830 0.0000 4.9978 0.0000
# 2 21.2471 99.6945 32.1886 0.0000 -0.9677 0.0000
# 3 20.8830 32.1886 112.1635 0.0000 -5.2568 0.0000
# 4 0.0000 0.0000 0.0000 8.9185 0.0000 -3.2309
# 5 4.9978 -0.9677 -5.2568 0.0000 16.5115 0.0000
# 6 0.0000 0.0000 0.0000 -3.2309 0.0000 31.8322
#
#
#
# Elastic Compliance Matrix: (Units=1/GPa)
#
#
# Indices 1 2 3 4 5 6 
#
# 1 0.014061 -0.002341 -0.002185 0.000000 -0.005089 0.000000
# 2 -0.002341 0.011447 -0.002827 0.000000 0.000479 0.000000
# 3 -0.002185 -0.002827 0.010311 0.000000 0.003778 0.000000
# 4 0.000000 0.000000 0.000000 0.116407 0.000000 0.011815
# 5 -0.005089 0.000479 0.003778 0.000000 0.063335 0.000000
# 6 0.000000 0.000000 0.000000 0.011815 0.000000 0.032614
#
#
# Mechanical properties :
#
#
# Convention : Reuss Voigt Hill
#
# Bulk Modulus (GPa) = 47.36156 48.91158 48.13657
# Shear Modulus (GPa) = 18.52420 25.93562 22.22991
#
# Velocity S-wave (km/s) = 2.99254 3.54094 3.27823
# Velocity P-wave (km/s) = 5.90227 6.35322 6.13189
#
# Compressibility (1/GPa) = 0.02111417
#
# Stress axis : x y z
#
# Youngs Moduli (GPa) = 71.11830 87.36036 96.98753
#
# Poissons Ratio (x) = 0.20449 0.21189
# Poissons Ratio (y) = 0.16647 0.27416
# Poissons Ratio (z) = 0.15537 0.24694
#
# Static dielectric constant tensor:
#      x y z
#    x 1.835600 0.000000 0.029950 
#    y 0.000000 1.832430 0.000000 
#    z 0.029950 0.000000 1.741460 
# 
# From -- ./inp_files/286441.got.cif
#   From: 2010.05.17/outbox.cif.g08.bks.cpg/sg15_144_cif.got.tgz:286441.got - 2010.06.03 18:47:42.
