data_PCOD9282917
_publ_section_title
;
Structure prediction by ZEFSAII (Michael W. Deem and Ramdas Pophale) SiO2 
 PCOD9282917
Probable space group: C 2/C
;
_chemical_formula_sum "Si O2"
_cell_formula_units_Z 36
_cell_length_a 7.374900
_cell_length_b 34.251224
_cell_length_c 7.542733
_cell_angle_alpha 90.000000
_cell_angle_beta 53.517765
_cell_angle_gamma 90.000000
_cell_volume 1531.931327
_symmetry_space_group_name_H-M "C 2/C"
_symmetry_group_IT_number 15
_symmetry_cell_setting 'monoclinic'
loop_
_space_group_symop_operation_xyz
x,y,z
-x,y,1/2-z
-x,-y,-z
x,-y,1/2+z
1/2+x,1/2+y,z
1/2-x,1/2+y,1/2-z
1/2-x,1/2-y,-z
1/2+x,1/2-y,1/2+z
loop_
_atom_site_type_symbol
_atom_site_label
_atom_site_fract_x
_atom_site_fract_y
_atom_site_fract_z
Si Si1 0.201926 0.782814 0.263702
Si Si2 0.023328 0.454533 0.526195
Si Si3 0.294927 0.801465 0.610608
Si Si4 0.000000 0.917719 0.250000
Si Si5 0.770993 0.615279 0.271229
O O1 0.236260 0.735761 0.242174
O O2 0.000000 0.793811 0.250000
O O3 0.185761 0.792061 0.482737
O O4 0.434201 0.802688 0.070969
O O5 0.275249 0.441699 0.327908
O O6 0.000000 0.454210 0.750000
O O7 0.000000 0.500000 0.500000
O O8 0.837611 0.420265 0.595274
O O9 0.220695 0.843778 0.713119
O O10 0.918056 0.895294 0.473636
O O11 0.000000 0.622287 0.250000
#
# Coordination Sequence:
#
# PCOD9282917 Si02
#       5
#     8   8   8   4   8
#     4  10  21  39  65  95 135 185 230 293 352 407
#     4   9  19  37  63  99 136 171 222 273 341 418
#     4  10  21  40  63  98 135 178 243 285 343 422
#     4   8  18  38  68  94 130 184 214 280 348 398
#     4   9  19  38  63  95 131 177 233 286 338 418
#
# _framework density 23.499745999999998
#
# number of rings (size 3 to 8) (size 9 to 14) (size 15 to 20)
#    0.000    3.111    0.000    1.333    0.000    3.556 
#   20.000    0.000    0.000   21.333    0.000    0.000 
#    0.000    0.000    0.000    0.000    0.000    0.000 
#
# Total GULP energy -100507.719407 kJ/mol
# GULP energy per Si atom -5583.762189 kJ/mol
# Density = 2.344626 g / cm^3
# Si number density = 23.499746 Si / 1000 Ang^3
#
#
#
# Elastic Constant Matrix: (Units=GPa)
#
#
# Indices 1 2 3 4 5 6 
#
# 1 135.1007 42.6403 46.9928 0.0000 -19.6704 0.0000
# 2 42.6403 210.6087 73.6508 0.0000 -4.6547 0.0000
# 3 46.9928 73.6508 146.2111 0.0000 -31.7244 0.0000
# 4 0.0000 0.0000 0.0000 -22.0255 0.0000 -14.3642
# 5 -19.6704 -4.6547 -31.7244 0.0000 26.9590 0.0000
# 6 0.0000 0.0000 0.0000 -14.3642 0.0000 -5.6006
#
#
#
# Elastic Compliance Matrix: (Units=1/GPa)
#
#
# Indices 1 2 3 4 5 6 
#
# 1 0.008929 -0.001299 -0.001142 0.000000 0.004947 0.000000
# 2 -0.001299 0.006173 -0.003580 0.000000 -0.004096 0.000000
# 3 -0.001142 -0.003580 0.011677 0.000000 0.012289 0.000000
# 4 0.000000 0.000000 0.000000 0.067496 0.000000 -0.173113
# 5 0.004947 -0.004096 0.012289 0.000000 0.054457 0.000000
# 6 0.000000 0.000000 0.000000 -0.173113 0.000000 0.265444
#
#
# Mechanical properties :
#
#
# Convention : Reuss Voigt Hill
#
# Bulk Modulus (GPa) = 67.86477 90.94314 79.40395
# Shear Modulus (GPa) = 11.59740 21.77570 16.68655
#
# Velocity S-wave (km/s) = 2.22392 3.04737 2.66761
# Velocity P-wave (km/s) = 5.96121 7.15301 6.58414
#
# Compressibility (1/GPa) = 0.01473519
#
# Stress axis : x y z
#
# Youngs Moduli (GPa) = 111.98879 162.00200 85.64166
#
# Poissons Ratio (x) = 0.21046 0.09782
# Poissons Ratio (y) = 0.14549 0.30664
# Poissons Ratio (z) = 0.12791 0.58005
#
# Static dielectric constant tensor:
#      x y z
#    x 1.841370 0.000000 0.062870 
#    y 0.000000 2.088380 0.000000 
#    z 0.062870 0.000000 1.860030 
# 
# From -- ./inp_files/92397.got.cif
#   From: 2010.05.17/outbox.cif.g08.bks.cpg/sg15_47_cif.got.tgz:92397.got - 2010.06.03 18:47:42.
