data_PCOD9282901
_publ_section_title
;
Structure prediction by ZEFSAII (Michael W. Deem and Ramdas Pophale) SiO2 
 PCOD9282901
Probable space group: C 2/C
;
_chemical_formula_sum "Si O2"
_cell_formula_units_Z 40
_cell_length_a 11.384104
_cell_length_b 17.611542
_cell_length_c 10.425802
_cell_angle_alpha 90.000000
_cell_angle_beta 105.453651
_cell_angle_gamma 90.000000
_cell_volume 2014.714458
_symmetry_space_group_name_H-M "C 2/C"
_symmetry_group_IT_number 15
_symmetry_cell_setting 'monoclinic'
loop_
_space_group_symop_operation_xyz
x,y,z
-x,y,1/2-z
-x,-y,-z
x,-y,1/2+z
1/2+x,1/2+y,z
1/2-x,1/2+y,1/2-z
1/2-x,1/2-y,-z
1/2+x,1/2-y,1/2+z
loop_
_atom_site_type_symbol
_atom_site_label
_atom_site_fract_x
_atom_site_fract_y
_atom_site_fract_z
Si Si1 0.320789 0.148204 0.060808
Si Si2 0.447490 0.554684 0.874791
Si Si3 0.818027 0.587411 0.778889
Si Si4 0.565711 0.703308 0.017362
Si Si5 0.000000 0.713077 0.750000
Si Si6 0.500000 0.032954 0.250000
O O1 0.195514 0.166658 0.096484
O O2 0.405596 0.086201 0.149403
O O3 0.283756 0.118027 0.909119
O O4 0.396122 0.225728 0.060741
O O5 0.500000 0.533686 0.750000
O O6 0.301242 0.555441 0.824603
O O7 0.500000 0.500000 0.000000
O O8 0.489973 0.639800 0.922161
O O9 0.920518 0.522321 0.816943
O O10 0.882993 0.657544 0.725471
O O11 0.499295 0.736522 0.122377
#
# Coordination Sequence:
#
# PCOD9282901 Si02
#       6
#     8   8   8   8   4   4
#     4  10  21  39  65  94 127 172 213 269 320 390
#     4  12  26  44  67  95 133 176 217 270 325 388
#     4  10  22  42  62  94 136 164 217 270 319 381
#     4  10  22  41  65  93 131 167 218 267 326 385
#     4   9  22  42  66  97 130 168 212 275 322 384
#     4  11  22  38  66  93 126 172 218 259 326 388
#
# _framework density 19.853932
#
# number of rings (size 3 to 8) (size 9 to 14) (size 15 to 20)
#    0.000    1.600    2.000    1.800    2.800    0.800 
#    0.000    0.000    0.000    0.000    0.000    0.000 
#    0.000    0.000    0.000    0.000    0.000    0.000 
#
# Total GULP energy -111754.358501 kJ/mol
# GULP energy per Si atom -5587.717925 kJ/mol
# Density = 1.980874 g / cm^3
# Si number density = 19.853932 Si / 1000 Ang^3
#
#
#
# Elastic Constant Matrix: (Units=GPa)
#
#
# Indices 1 2 3 4 5 6 
#
# 1 77.7757 21.5582 34.0357 0.0000 -5.5381 0.0000
# 2 21.5582 92.8750 36.6223 0.0000 4.2269 0.0000
# 3 34.0357 36.6223 79.2961 0.0000 -6.4618 0.0000
# 4 0.0000 0.0000 0.0000 37.4216 0.0000 17.9498
# 5 -5.5381 4.2269 -6.4618 0.0000 23.0672 0.0000
# 6 0.0000 0.0000 0.0000 17.9498 0.0000 16.3273
#
#
#
# Elastic Compliance Matrix: (Units=1/GPa)
#
#
# Indices 1 2 3 4 5 6 
#
# 1 0.016074 -0.001467 -0.006023 0.000000 0.002441 0.000000
# 2 -0.001467 0.013711 -0.006075 0.000000 -0.004566 0.000000
# 3 -0.006023 -0.006075 0.018394 0.000000 0.004820 0.000000
# 4 0.000000 0.000000 0.000000 0.056535 0.000000 -0.062153
# 5 0.002441 -0.004566 0.004820 0.000000 0.046125 0.000000
# 6 0.000000 0.000000 0.000000 -0.062153 0.000000 0.129577
#
#
# Mechanical properties :
#
#
# Convention : Reuss Voigt Hill
#
# Bulk Modulus (GPa) = 47.50636 48.26435 47.88535
# Shear Modulus (GPa) = 15.89518 25.87859 20.88688
#
# Velocity S-wave (km/s) = 2.83257 3.61425 3.24702
# Velocity P-wave (km/s) = 5.88879 6.46371 6.18293
#
# Compressibility (1/GPa) = 0.02104981
#
# Stress axis : x y z
#
# Youngs Moduli (GPa) = 62.21403 72.93462 54.36465
#
# Poissons Ratio (x) = 0.10701 0.32742
# Poissons Ratio (y) = 0.09128 0.33024
# Poissons Ratio (z) = 0.37469 0.44305
#
# Static dielectric constant tensor:
#      x y z
#    x 1.698720 0.000000 -0.004470 
#    y 0.000000 1.699720 0.000000 
#    z -0.004470 0.000000 1.667300 
# 
# From -- ./inp_files/62891.got.cif
#   From: 2010.05.17/outbox.cif.g08.bks.cpg/sg15_32_cif.got.tgz:62891.got - 2010.06.03 18:47:42.
