data_PCOD9282344
_publ_section_title
;
Structure prediction by ZEFSAII (Michael W. Deem and Ramdas Pophale) SiO2 
 PCOD9282344
Probable space group: C 2/C
;
_chemical_formula_sum "Si O2"
_cell_formula_units_Z 48
_cell_length_a 12.721308
_cell_length_b 15.395217
_cell_length_c 14.705734
_cell_angle_alpha 90.000000
_cell_angle_beta 62.932831
_cell_angle_gamma 90.000000
_cell_volume 2564.633912
_symmetry_space_group_name_H-M "C 2/C"
_symmetry_group_IT_number 15
_symmetry_cell_setting 'monoclinic'
loop_
_space_group_symop_operation_xyz
x,y,z
-x,y,1/2-z
-x,-y,-z
x,-y,1/2+z
1/2+x,1/2+y,z
1/2-x,1/2+y,1/2-z
1/2-x,1/2-y,-z
1/2+x,1/2-y,1/2+z
loop_
_atom_site_type_symbol
_atom_site_label
_atom_site_fract_x
_atom_site_fract_y
_atom_site_fract_z
Si Si1 0.847367 0.653301 0.054298
Si Si2 0.557381 0.646890 0.629321
Si Si3 0.416759 0.583228 0.522570
Si Si4 0.232526 0.516588 0.003312
Si Si5 0.090429 0.776904 0.631069
Si Si6 0.955035 0.339928 0.869972
O O1 0.814991 0.552891 0.050097
O O2 0.723407 0.704753 0.114747
O O3 0.936397 0.660265 0.102468
O O4 0.904135 0.695648 0.940562
O O5 0.500000 0.635833 0.750000
O O6 0.452902 0.637655 0.596058
O O7 0.658209 0.575153 0.574572
O O8 0.604891 0.744806 0.601089
O O9 0.500000 0.500000 0.500000
O O10 0.286219 0.544279 0.562428
O O11 0.439265 0.640863 0.423464
O O12 0.132791 0.582643 0.072372
O O13 0.000000 0.768695 0.750000
O O14 0.000000 0.349975 0.750000
#
# Coordination Sequence:
#
# PCOD9282344 Si02
#       6
#     8   8   8   8   8   8
#     4  10  22  41  61  91 125 154 208 255 295 370
#     4  10  21  39  61  89 123 164 207 248 299 364
#     4   9  19  36  61  88 117 150 208 251 285 356
#     4  10  22  38  62  88 124 162 202 255 307 353
#     4  10  21  40  65  89 119 163 205 252 306 356
#     4  11  23  40  60  88 129 161 198 250 315 369
#
# _framework density 18.716123
#
# number of rings (size 3 to 8) (size 9 to 14) (size 15 to 20)
#    0.000    2.000    1.667    1.000    0.000   10.667 
#    6.000    0.000    0.000    0.000    0.000    0.000 
#    0.000    0.000    0.000    0.000    0.000    0.000 
#
# Total GULP energy -133815.644764 kJ/mol
# GULP energy per Si atom -5575.651865 kJ/mol
# Density = 1.867352 g / cm^3
# Si number density = 18.716123 Si / 1000 Ang^3
#
#
#
# Elastic Constant Matrix: (Units=GPa)
#
#
# Indices 1 2 3 4 5 6 
#
# 1 104.9158 53.9393 85.3674 0.0000 10.7278 0.0000
# 2 53.9393 113.8502 46.2388 0.0000 1.4965 0.0000
# 3 85.3674 46.2388 124.2321 0.0000 8.7699 0.0000
# 4 0.0000 0.0000 0.0000 502.1968 0.0000 -60.5611
# 5 10.7278 1.4965 8.7699 0.0000 19.3555 0.0000
# 6 0.0000 0.0000 0.0000 -60.5611 0.0000 35.8202
#
#
#
# Elastic Compliance Matrix: (Units=1/GPa)
#
#
# Indices 1 2 3 4 5 6 
#
# 1 0.025141 -0.005892 -0.014598 0.000000 -0.006864 0.000000
# 2 -0.005892 0.011746 -0.000506 0.000000 0.002587 0.000000
# 3 -0.014598 -0.000506 0.018280 0.000000 -0.000152 0.000000
# 4 0.000000 0.000000 0.000000 0.002501 0.000000 0.004229
# 5 -0.006864 0.002587 -0.000152 0.000000 0.055338 0.000000
# 6 0.000000 0.000000 0.000000 0.004229 0.000000 0.035067
#
#
# Mechanical properties :
#
#
# Convention : Reuss Voigt Hill
#
# Bulk Modulus (GPa) = 75.90176 79.34323 77.62249
# Shear Modulus (GPa) = 25.71268 121.97135 73.84202
#
# Velocity S-wave (km/s) = 3.71054 8.08150 6.28803
# Velocity P-wave (km/s) = 7.68113 11.38270 9.70993
#
# Compressibility (1/GPa) = 0.01317493
#
# Stress axis : x y z
#
# Youngs Moduli (GPa) = 39.77632 85.13277 54.70542
#
# Poissons Ratio (x) = 0.50159 0.79860
# Poissons Ratio (y) = 0.23436 0.02767
# Poissons Ratio (z) = 0.58066 0.04307
#
# Static dielectric constant tensor:
#      x y z
#    x 1.667740 0.000000 0.020030 
#    y 0.000000 1.682390 0.000000 
#    z 0.020030 0.000000 1.603820 
# 
# From -- ./inp_files/143426.got.cif
#   From: 2010.05.17/outbox.cif.g08.bks.cpg/sg15_72_cif.got.tgz:143426.got - 2010.06.03 18:47:42.
