data_PCOD9282138
_publ_section_title
;
Structure prediction by ZEFSAII (Michael W. Deem and Ramdas Pophale) SiO2 
 PCOD9282138
Probable space group: C 2/C
;
_chemical_formula_sum "Si O2"
_cell_formula_units_Z 52
_cell_length_a 5.993808
_cell_length_b 29.069110
_cell_length_c 15.164817
_cell_angle_alpha 90.000000
_cell_angle_beta 110.569865
_cell_angle_gamma 90.000000
_cell_volume 2473.779560
_symmetry_space_group_name_H-M "C 2/C"
_symmetry_group_IT_number 15
_symmetry_cell_setting 'monoclinic'
loop_
_space_group_symop_operation_xyz
x,y,z
-x,y,1/2-z
-x,-y,-z
x,-y,1/2+z
1/2+x,1/2+y,z
1/2-x,1/2+y,1/2-z
1/2-x,1/2-y,-z
1/2+x,1/2-y,1/2+z
loop_
_atom_site_type_symbol
_atom_site_label
_atom_site_fract_x
_atom_site_fract_y
_atom_site_fract_z
Si Si1 0.535948 0.476156 0.649745
Si Si2 0.250637 0.100901 0.484030
Si Si3 0.194506 0.730409 0.848395
Si Si4 0.509973 0.805811 0.513342
Si Si5 0.272317 0.937057 0.378472
Si Si6 0.000000 0.484588 0.250000
Si Si7 0.977805 0.848994 0.102582
O O1 0.500000 0.470597 0.750000
O O2 0.434708 0.431138 0.590891
O O3 0.391395 0.522566 0.604344
O O4 0.813993 0.484709 0.670234
O O5 0.346230 0.146858 0.450444
O O6 0.482115 0.070166 0.535949
O O7 0.128307 0.120594 0.554734
O O8 0.386011 0.768807 0.904157
O O9 0.340673 0.687030 0.830229
O O10 0.000000 0.745714 0.750000
O O11 0.071854 0.713038 0.923091
O O12 0.231167 0.819407 0.474960
O O13 0.341883 0.953503 0.291018
O O14 0.153117 0.887173 0.358037
#
# Coordination Sequence:
#
# PCOD9282138 Si02
#       7
#     8   8   8   8   8   4   8
#     4  10  22  39  58  83 120 160 199 247 293 350
#     4  10  21  39  61  87 114 157 203 241 295 356
#     4  10  21  41  63  89 118 158 197 245 307 365
#     4   9  21  41  61  87 124 151 197 254 299 360
#     4  10  21  39  57  83 120 161 197 246 293 350
#     4  10  22  38  52  86 120 162 196 252 294 348
#     4  10  21  39  59  91 118 158 196 249 299 360
#
# _framework density 21.020468999999999
#
# number of rings (size 3 to 8) (size 9 to 14) (size 15 to 20)
#    0.000    2.154    0.000    1.846    0.000    8.615 
#   41.538    0.000    0.000    3.692    0.000    0.000 
#    0.000    0.000    0.000    0.000    0.000    0.000 
#
# Total GULP energy -145252.817942 kJ/mol
# GULP energy per Si atom -5586.646844 kJ/mol
# Density = 2.097263 g / cm^3
# Si number density = 21.020469 Si / 1000 Ang^3
#
#
#
# Elastic Constant Matrix: (Units=GPa)
#
#
# Indices 1 2 3 4 5 6 
#
# 1 58.8417 13.3505 11.0985 0.0000 26.3877 0.0000
# 2 13.3505 91.7073 42.8002 0.0000 18.4026 0.0000
# 3 11.0985 42.8002 67.8252 0.0000 21.9814 0.0000
# 4 0.0000 0.0000 0.0000 10.0879 0.0000 -4.9630
# 5 26.3877 18.4026 21.9814 0.0000 24.0990 0.0000
# 6 0.0000 0.0000 0.0000 -4.9630 0.0000 6.3630
#
#
#
# Elastic Compliance Matrix: (Units=1/GPa)
#
#
# Indices 1 2 3 4 5 6 
#
# 1 0.037842 -0.000157 0.010359 0.000000 -0.050765 0.000000
# 2 -0.000157 0.015751 -0.008619 0.000000 -0.003994 0.000000
# 3 0.010359 -0.008619 0.028437 0.000000 -0.030699 0.000000
# 4 0.000000 0.000000 0.000000 0.160853 0.000000 0.125463
# 5 -0.050765 -0.003994 -0.030699 0.000000 0.128135 0.000000
# 6 0.000000 0.000000 0.000000 0.125463 0.000000 0.255017
#
#
# Mechanical properties :
#
#
# Convention : Reuss Voigt Hill
#
# Bulk Modulus (GPa) = 11.73751 39.20805 25.47278
# Shear Modulus (GPa) = 7.67732 18.18498 12.93115
#
# Velocity S-wave (km/s) = 1.91317 2.94446 2.48295
# Velocity P-wave (km/s) = 3.23671 5.50024 4.51270
#
# Compressibility (1/GPa) = 0.08519692
#
# Stress axis : x y z
#
# Youngs Moduli (GPa) = 26.42548 63.48642 35.16511
#
# Poissons Ratio (x) = 0.00995 -0.36428
# Poissons Ratio (y) = 0.00414 0.30311
# Poissons Ratio (z) = -0.27375 0.54722
#
# Static dielectric constant tensor:
#      x y z
#    x 1.799120 0.000000 0.011370 
#    y 0.000000 1.743630 0.000000 
#    z 0.011370 0.000000 1.773890 
# 
# From -- ./inp_files/186292.got.cif
#   From: 2010.05.17/outbox.cif.g08.bks.cpg/sg15_94_cif.got.tgz:186292.got - 2010.06.03 18:47:42.
