data_PCOD9282998
_publ_section_title
;
Structure prediction by ZEFSAII (Michael W. Deem and Ramdas Pophale) SiO2 
 PCOD9282998
Probable space group: C 2/C
;
_chemical_formula_sum "Si O2"
_cell_formula_units_Z 64
_cell_length_a 17.347503
_cell_length_b 8.073772
_cell_length_c 29.069982
_cell_angle_alpha 90.000000
_cell_angle_beta 39.463213
_cell_angle_gamma 90.000000
_cell_volume 2587.797317
_symmetry_space_group_name_H-M "C 2/C"
_symmetry_group_IT_number 15
_symmetry_cell_setting 'monoclinic'
loop_
_space_group_symop_operation_xyz
x,y,z
-x,y,1/2-z
-x,-y,-z
x,-y,1/2+z
1/2+x,1/2+y,z
1/2-x,1/2+y,1/2-z
1/2-x,1/2-y,-z
1/2+x,1/2-y,1/2+z
loop_
_atom_site_type_symbol
_atom_site_label
_atom_site_fract_x
_atom_site_fract_y
_atom_site_fract_z
Si Si1 0.452207 0.867048 0.986584
Si Si2 0.656750 0.334117 0.273707
Si Si3 0.890165 0.656268 0.836786
Si Si4 0.154526 0.791841 0.879392
Si Si5 0.229900 0.082773 0.536629
Si Si6 0.478351 0.364341 0.883011
Si Si7 0.302195 0.681212 0.646976
Si Si8 0.561648 0.790295 0.672286
O O1 0.374488 0.746156 0.054862
O O2 0.363460 0.958778 0.992088
O O3 0.564567 0.761727 0.916048
O O4 0.500000 0.000000 0.000000
O O5 0.745788 0.329272 0.189149
O O6 0.579587 0.500660 0.319142
O O7 0.734845 0.288002 0.282889
O O8 0.551053 0.201852 0.311285
O O9 0.936104 0.750574 0.860465
O O10 0.779704 0.735284 0.858414
O O11 0.869262 0.464146 0.859271
O O12 0.000000 0.652382 0.750000
O O13 0.037599 0.780622 0.900112
O O14 0.195835 0.982153 0.857332
O O15 0.250000 0.250000 0.500000
O O16 0.144836 0.137539 0.618736
O O17 0.146689 0.958559 0.546504
O O18 0.500000 0.761482 0.750000
#
# Coordination Sequence:
#
# PCOD9282998 Si02
#       8
#     8   8   8   8   8   8   8   8
#     4  12  26  42  63  94 129 167 210 264 318 373
#     4  10  22  42  66  92 122 163 209 255 309 373
#     4  11  22  39  63  95 127 159 202 260 313 367
#     4  11  23  43  66  91 127 171 211 256 314 380
#     4  11  23  44  65  88 124 169 212 255 309 375
#     4  10  24  40  63  94 125 161 208 262 312 365
#     4  11  24  43  65  93 127 167 211 258 314 378
#     4  10  21  39  66  93 120 163 211 254 309 375
#
# _framework density 24.731459000000001
#
# number of rings (size 3 to 8) (size 9 to 14) (size 15 to 20)
#    0.000    1.250    0.000    7.125    0.000   10.000 
#    0.000    1.875    0.000    0.000    0.000    0.000 
#    0.000    0.000    0.000    0.000    0.000    0.000 
#
# Total GULP energy -179039.948935 kJ/mol
# GULP energy per Si atom -5594.998404 kJ/mol
# Density = 2.467517 g / cm^3
# Si number density = 24.731459 Si / 1000 Ang^3
#
#
#
# Elastic Constant Matrix: (Units=GPa)
#
#
# Indices 1 2 3 4 5 6 
#
# 1 168.4914 14.2235 -8.9888 -0.0003 -27.7661 0.0030
# 2 14.2235 35.2101 5.5420 -0.0017 -8.4009 0.0006
# 3 -8.9888 5.5420 52.9126 0.0001 -3.3582 -0.0002
# 4 -0.0003 -0.0017 0.0001 18.7184 0.0000 -0.1993
# 5 -27.7661 -8.4009 -3.3582 0.0000 38.2745 0.0002
# 6 0.0030 0.0006 -0.0002 -0.1993 0.0002 34.7223
#
#
#
# Elastic Compliance Matrix: (Units=1/GPa)
#
#
# Indices 1 2 3 4 5 6 
#
# 1 0.006978 -0.001944 0.001693 0.000000 0.004784 -0.000001
# 2 -0.001944 0.030911 -0.003245 0.000003 0.005090 0.000000
# 3 0.001693 -0.003245 0.019669 0.000000 0.002241 0.000000
# 4 0.000000 0.000003 0.000000 0.053427 0.000000 0.000307
# 5 0.004784 0.005090 0.002241 0.000000 0.030911 -0.000001
# 6 -0.000001 0.000000 0.000000 0.000307 -0.000001 0.028802
#
#
# Mechanical properties :
#
#
# Convention : Reuss Voigt Hill
#
# Bulk Modulus (GPa) = 19.77620 30.90751 25.34186
# Shear Modulus (GPa) = 25.70106 34.73220 30.21663
#
# Velocity S-wave (km/s) = 3.22717 3.75156 3.49920
# Velocity P-wave (km/s) = 4.67973 5.59375 5.15703
#
# Compressibility (1/GPa) = 0.05056583
#
# Stress axis : x y z
#
# Youngs Moduli (GPa) = 143.31276 32.35065 50.84210
#
# Poissons Ratio (x) = 0.06288 -0.08605
# Poissons Ratio (y) = 0.27856 0.16497
# Poissons Ratio (z) = -0.24257 0.10497
#
# Static dielectric constant tensor:
#      x y z
#    x 2.001340 0.000000 -0.000150 
#    y 0.000000 1.955860 0.000000 
#    z -0.000150 0.000000 2.261410 
# 
# From -- ./inp_files/315710.got.cif
#   From: 2010.05.17/outbox.cif.g08.bks.cpg/sg15_158_cif.got.tgz:315710.got - 2010.06.03 18:47:42.
