data_PCOD9282806
_publ_section_title
;
Structure prediction by ZEFSAII (Michael W. Deem and Ramdas Pophale) SiO2 
 PCOD9282806
Probable space group: C 2/C
;
_chemical_formula_sum "Si O2"
_cell_formula_units_Z 48
_cell_length_a 9.690456
_cell_length_b 24.469584
_cell_length_c 16.531597
_cell_angle_alpha 90.000000
_cell_angle_beta 35.626384
_cell_angle_gamma 90.000000
_cell_volume 2283.387135
_symmetry_space_group_name_H-M "C 2/C"
_symmetry_group_IT_number 15
_symmetry_cell_setting 'monoclinic'
loop_
_space_group_symop_operation_xyz
x,y,z
-x,y,1/2-z
-x,-y,-z
x,-y,1/2+z
1/2+x,1/2+y,z
1/2-x,1/2+y,1/2-z
1/2-x,1/2-y,-z
1/2+x,1/2-y,1/2+z
loop_
_atom_site_type_symbol
_atom_site_label
_atom_site_fract_x
_atom_site_fract_y
_atom_site_fract_z
Si Si1 0.557624 0.552806 0.412452
Si Si2 0.055632 0.397475 0.133048
Si Si3 0.346097 0.332341 0.239697
Si Si4 0.487244 0.778430 0.852601
Si Si5 0.061616 0.512302 0.378887
Si Si6 0.275137 0.110337 0.450697
O O1 0.500000 0.500000 0.500000
O O2 0.332995 0.589986 0.497598
O O3 0.684096 0.534862 0.269476
O O4 0.737971 0.591771 0.375931
O O5 0.000000 0.377279 0.250000
O O6 0.912207 0.359699 0.138305
O O7 0.954512 0.458034 0.167265
O O8 0.500000 0.332311 0.250000
O O9 0.324601 0.269514 0.219277
O O10 0.515734 0.368244 0.101142
O O11 0.500000 0.783104 0.750000
O O12 0.454888 0.841356 0.891837
O O13 0.250000 0.750000 0.000000
O O14 0.000000 0.500000 0.500000
O O15 0.861520 0.555629 0.450975
#
# Coordination Sequence:
#
# PCOD9282806 Si02
#       6
#     8   8   8   8   8   8
#     4  12  22  39  62  93 134 170 223 264 325 413
#     4  12  22  40  64  94 131 175 217 267 336 398
#     4  10  21  39  64  97 131 166 224 283 333 386
#     4   9  19  35  61  93 118 162 221 277 320 380
#     4  12  25  38  59  95 134 175 215 271 335 396
#     4  11  20  38  66  92 128 176 226 271 323 404
#
# _framework density 21.021402999999999
#
# number of rings (size 3 to 8) (size 9 to 14) (size 15 to 20)
#    0.000    1.000    5.000    2.500    0.000    0.667 
#    0.000    0.000    0.000    9.000   13.000    0.000 
#    0.000    0.000    0.000    0.000    0.000    0.000 
#
# Total GULP energy -133645.296383 kJ/mol
# GULP energy per Si atom -5568.554016 kJ/mol
# Density = 2.097356 g / cm^3
# Si number density = 21.021403 Si / 1000 Ang^3
#
#
#
# Elastic Constant Matrix: (Units=GPa)
#
#
# Indices 1 2 3 4 5 6 
#
# 1 96.7246 40.3697 36.4322 0.0000 -16.2745 0.0000
# 2 40.3697 113.8038 -0.2981 0.0000 -21.3148 0.0000
# 3 36.4322 -0.2981 101.1309 0.0002 4.0026 -0.0002
# 4 0.0000 0.0000 0.0002 24.5413 -0.0001 -0.3266
# 5 -16.2745 -21.3148 4.0026 -0.0001 37.2790 0.0001
# 6 0.0000 0.0000 -0.0002 -0.3266 0.0001 20.8301
#
#
#
# Elastic Compliance Matrix: (Units=1/GPa)
#
#
# Indices 1 2 3 4 5 6 
#
# 1 0.015129 -0.004514 -0.005647 0.000000 0.004630 0.000000
# 2 -0.004514 0.011192 0.001490 0.000000 0.004268 0.000000
# 3 -0.005647 0.001490 0.012042 0.000000 -0.002906 0.000000
# 4 0.000000 0.000000 0.000000 0.040756 0.000000 0.000639
# 5 0.004630 0.004268 -0.002906 0.000000 0.031598 0.000000
# 6 0.000000 0.000000 0.000000 0.000639 0.000000 0.048017
#
#
# Mechanical properties :
#
#
# Convention : Reuss Voigt Hill
#
# Bulk Modulus (GPa) = 47.57149 51.62968 49.60059
# Shear Modulus (GPa) = 27.31017 32.20711 29.75864
#
# Velocity S-wave (km/s) = 3.60830 3.91846 3.76657
# Velocity P-wave (km/s) = 6.32763 6.71464 6.52400
#
# Compressibility (1/GPa) = 0.02102099
#
# Stress axis : x y z
#
# Youngs Moduli (GPa) = 66.10020 89.35173 83.04448
#
# Poissons Ratio (x) = 0.40335 0.46892
# Poissons Ratio (y) = 0.29839 -0.12376
# Poissons Ratio (z) = 0.37324 -0.13316
#
# Static dielectric constant tensor:
#      x y z
#    x 1.794580 0.000000 0.050030 
#    y 0.000000 1.810570 0.000000 
#    z 0.050030 0.000000 2.107830 
# 
# From -- ./inp_files/138935.got.cif
#   From: 2010.05.17/outbox.cif.g08.bks.cpg/sg15_70_cif.got.tgz:138935.got - 2010.06.03 18:47:42.
