data_PCOD9282885
_publ_section_title
;
Structure prediction by ZEFSAII (Michael W. Deem and Ramdas Pophale) SiO2 
 PCOD9282885
Probable space group: C 2/C
;
_chemical_formula_sum "Si O2"
_cell_formula_units_Z 52
_cell_length_a 9.765268
_cell_length_b 16.910733
_cell_length_c 28.617830
_cell_angle_alpha 90.000000
_cell_angle_beta 37.019957
_cell_angle_gamma 90.000000
_cell_volume 2845.424030
_symmetry_space_group_name_H-M "C 2/C"
_symmetry_group_IT_number 15
_symmetry_cell_setting 'monoclinic'
loop_
_space_group_symop_operation_xyz
x,y,z
-x,y,1/2-z
-x,-y,-z
x,-y,1/2+z
1/2+x,1/2+y,z
1/2-x,1/2+y,1/2-z
1/2-x,1/2-y,-z
1/2+x,1/2-y,1/2+z
loop_
_atom_site_type_symbol
_atom_site_label
_atom_site_fract_x
_atom_site_fract_y
_atom_site_fract_z
Si Si1 0.915408 0.260985 0.025430
Si Si2 0.500000 0.887562 0.250000
Si Si3 0.253715 0.911883 0.671446
Si Si4 0.038133 0.099866 0.036570
Si Si5 0.848405 0.421889 0.537478
Si Si6 0.623824 0.985032 0.124995
Si Si7 0.595560 0.737389 0.870346
O O1 0.647013 0.269640 0.089125
O O2 0.977120 0.191153 0.044315
O O3 0.008008 0.345236 0.016667
O O4 0.030930 0.240053 0.943442
O O5 0.519029 0.941307 0.198408
O O6 0.724020 0.831616 0.188913
O O7 0.275369 0.908528 0.610122
O O8 0.299009 0.821321 0.674189
O O9 0.000000 0.938703 0.750000
O O10 0.435851 0.969622 0.645526
O O11 0.139405 0.075252 0.058891
O O12 0.232916 0.075187 0.946335
O O13 0.811669 0.049462 0.089034
O O14 0.000000 0.500000 0.500000
#
# Coordination Sequence:
#
# PCOD9282885 Si02
#       7
#     8   4   8   8   8   8   8
#     4  10  21  39  66  89 129 169 214 265 316 389
#     4  12  24  40  66  98 128 170 222 276 332 382
#     4  11  23  42  62  91 129 169 207 265 326 390
#     4  11  22  43  62  96 126 165 218 265 316 391
#     4  11  24  38  65  94 124 165 215 262 321 375
#     4  11  25  39  67  90 129 164 214 270 320 381
#     4  10  21  39  65  93 121 170 220 257 322 396
#
# _framework density 18.274954999999999
#
# number of rings (size 3 to 8) (size 9 to 14) (size 15 to 20)
#    0.000    1.231    5.385    0.462    4.308    0.000 
#    0.000    0.000    0.000    1.846    0.000    0.000 
#    0.000    0.000    0.000    0.000    0.000    0.000 
#
# Total GULP energy -145139.905823 kJ/mol
# GULP energy per Si atom -5582.304070 kJ/mol
# Density = 1.823336 g / cm^3
# Si number density = 18.274955 Si / 1000 Ang^3
#
#
#
# Elastic Constant Matrix: (Units=GPa)
#
#
# Indices 1 2 3 4 5 6 
#
# 1 117.8985 36.7860 45.5704 0.0001 -19.1942 0.0002
# 2 36.7860 93.0992 35.6022 -0.0010 -4.5911 0.0006
# 3 45.5704 35.6022 86.8286 0.0031 -14.9988 -0.0005
# 4 0.0001 -0.0010 0.0031 12.5655 -0.0006 4.7904
# 5 -19.1942 -4.5911 -14.9988 -0.0006 31.6247 -0.0002
# 6 0.0002 0.0006 -0.0005 4.7904 -0.0002 32.5855
#
#
#
# Elastic Compliance Matrix: (Units=1/GPa)
#
#
# Indices 1 2 3 4 5 6 
#
# 1 0.011750 -0.002803 -0.004200 0.000001 0.004733 0.000000
# 2 -0.002803 0.013421 -0.004345 0.000002 -0.001814 -0.000001
# 3 -0.004200 -0.004345 0.016288 -0.000005 0.004545 0.000001
# 4 0.000001 0.000002 -0.000005 0.084308 0.000000 -0.012394
# 5 0.004733 -0.001814 0.004545 0.000000 0.036386 0.000000
# 6 0.000000 -0.000001 0.000001 -0.012394 0.000000 0.032511
#
#
# Mechanical properties :
#
#
# Convention : Reuss Voigt Hill
#
# Bulk Modulus (GPa) = 53.29743 59.30481 56.30112
# Shear Modulus (GPa) = 22.35990 27.34633 24.85312
#
# Velocity S-wave (km/s) = 3.50169 3.87251 3.69176
# Velocity P-wave (km/s) = 6.75105 7.24686 7.00334
#
# Compressibility (1/GPa) = 0.01876263
#
# Stress axis : x y z
#
# Youngs Moduli (GPa) = 85.10287 74.50963 61.39511
#
# Poissons Ratio (x) = 0.20888 0.25786
# Poissons Ratio (y) = 0.23858 0.26676
# Poissons Ratio (z) = 0.35743 0.32375
#
# Static dielectric constant tensor:
#      x y z
#    x 1.613260 0.000000 -0.006510 
#    y 0.000000 1.642970 0.000000 
#    z -0.006510 0.000000 1.606460 
# 
# From -- ./inp_files/190567.got.cif
#   From: 2010.05.17/outbox.cif.g08.bks.cpg/sg15_96_cif.got.tgz:190567.got - 2010.06.03 18:47:42.
