data_PCOD9282879
_publ_section_title
;
Structure prediction by ZEFSAII (Michael W. Deem and Ramdas Pophale) SiO2 
 PCOD9282879
Probable space group: C 2/C
;
_chemical_formula_sum "Si O2"
_cell_formula_units_Z 60
_cell_length_a 17.173608
_cell_length_b 17.375379
_cell_length_c 18.036149
_cell_angle_alpha 90.000000
_cell_angle_beta 31.338886
_cell_angle_gamma 90.000000
_cell_volume 2799.146216
_symmetry_space_group_name_H-M "C 2/C"
_symmetry_group_IT_number 15
_symmetry_cell_setting 'monoclinic'
loop_
_space_group_symop_operation_xyz
x,y,z
-x,y,1/2-z
-x,-y,-z
x,-y,1/2+z
1/2+x,1/2+y,z
1/2-x,1/2+y,1/2-z
1/2-x,1/2-y,-z
1/2+x,1/2-y,1/2+z
loop_
_atom_site_type_symbol
_atom_site_label
_atom_site_fract_x
_atom_site_fract_y
_atom_site_fract_z
Si Si1 0.619702 0.494565 0.252559
Si Si2 0.348607 0.173463 0.417820
Si Si3 0.833209 0.135848 0.197273
Si Si4 0.281264 0.488670 0.497662
Si Si5 0.093792 0.858634 0.380717
Si Si6 0.405025 0.194750 0.682631
Si Si7 0.000000 0.397379 0.250000
Si Si8 0.516101 0.812100 0.924476
O O1 0.703345 0.566609 0.219327
O O2 0.440428 0.508934 0.404680
O O3 0.646128 0.417071 0.276216
O O4 0.674678 0.488981 0.124509
O O5 0.500000 0.189593 0.250000
O O6 0.250000 0.250000 0.500000
O O7 0.268976 0.099221 0.446853
O O8 0.400813 0.154316 0.459452
O O9 0.892462 0.212045 0.192071
O O10 0.683573 0.158398 0.275903
O O11 0.961391 0.108077 0.037795
O O12 0.146408 0.547396 0.624939
O O13 0.234822 0.835423 0.316412
O O14 0.026526 0.779615 0.403064
O O15 0.483820 0.155871 0.689259
O O16 0.476019 0.176240 0.543848
#
# Coordination Sequence:
#
# PCOD9282879 Si02
#       8
#     8   8   8   8   8   8   4   8
#     4  11  23  41  65  93 137 180 222 276 350 395
#     4  12  28  44  72 102 136 183 218 274 348 411
#     4  10  22  40  65  99 124 181 228 283 326 404
#     4  11  26  42  62  98 140 169 226 285 328 420
#     4  10  21  39  65  92 130 169 222 276 337 408
#     4  10  23  42  68  94 134 176 231 289 332 405
#     4  12  24  46  66  94 134 180 226 290 356 382
#     4  10  23  42  66  98 134 168 228 277 332 412
#
# _framework density 21.435106999999999
#
# number of rings (size 3 to 8) (size 9 to 14) (size 15 to 20)
#    0.000    1.333    0.667    3.600   11.200    2.133 
#    0.000   10.000    0.000    0.000    0.000    0.000 
#    0.000    0.000    0.000    0.000    0.000    0.000 
#
# Total GULP energy -167699.578753 kJ/mol
# GULP energy per Si atom -5589.985958 kJ/mol
# Density = 2.138632 g / cm^3
# Si number density = 21.435107 Si / 1000 Ang^3
#
#
#
# Elastic Constant Matrix: (Units=GPa)
#
#
# Indices 1 2 3 4 5 6 
#
# 1 70.6238 31.1364 11.1670 -0.0010 14.8173 0.0000
# 2 31.1364 51.0145 25.8647 0.0025 8.6074 0.0015
# 3 11.1670 25.8647 98.1122 0.0039 7.2893 0.0005
# 4 -0.0010 0.0025 0.0039 34.5521 -0.0017 1.0490
# 5 14.8173 8.6074 7.2893 -0.0017 26.2282 -0.0004
# 6 0.0000 0.0015 0.0005 1.0490 -0.0004 37.2129
#
#
#
# Elastic Compliance Matrix: (Units=1/GPa)
#
#
# Indices 1 2 3 4 5 6 
#
# 1 0.021036 -0.012165 0.001428 0.000001 -0.008289 0.000000
# 2 -0.012165 0.030589 -0.006580 -0.000002 -0.001337 -0.000001
# 3 0.001428 -0.006580 0.011910 -0.000001 -0.001958 0.000000
# 4 0.000001 -0.000002 -0.000001 0.028967 0.000002 -0.000817
# 5 -0.008289 -0.001337 -0.001958 0.000002 0.043792 0.000001
# 6 0.000000 -0.000001 0.000000 -0.000817 0.000001 0.026895
#
#
# Mechanical properties :
#
#
# Convention : Reuss Voigt Hill
#
# Bulk Modulus (GPa) = 34.59987 39.56520 37.08253
# Shear Modulus (GPa) = 24.10155 29.70415 26.90285
#
# Velocity S-wave (km/s) = 3.35684 3.72663 3.54656
# Velocity P-wave (km/s) = 5.58580 6.08402 5.84023
#
# Compressibility (1/GPa) = 0.02890185
#
# Stress axis : x y z
#
# Youngs Moduli (GPa) = 47.53785 32.69173 83.96376
#
# Poissons Ratio (x) = 0.39769 -0.11994
# Poissons Ratio (y) = 0.57829 0.55248
# Poissons Ratio (z) = -0.06791 0.21511
#
# Static dielectric constant tensor:
#      x y z
#    x 1.792400 0.000000 0.011990 
#    y 0.000000 1.774540 0.000000 
#    z 0.011990 0.000000 1.775240 
# 
# From -- ./inp_files/211738.got.cif
#   From: 2010.05.17/outbox.cif.g08.bks.cpg/sg15_106_cif.got.tgz:211738.got - 2010.06.03 18:47:42.
