data_PCOD9282003
_publ_section_title
;
Structure prediction by ZEFSAII (Michael W. Deem and Ramdas Pophale) SiO2 
 PCOD9282003
Probable space group: C 2/C
;
_chemical_formula_sum "Si O2"
_cell_formula_units_Z 32
_cell_length_a 14.268794
_cell_length_b 7.901767
_cell_length_c 25.689279
_cell_angle_alpha 90.000000
_cell_angle_beta 154.255868
_cell_angle_gamma 90.000000
_cell_volume 1258.074147
_symmetry_space_group_name_H-M "C 2/C"
_symmetry_group_IT_number 15
_symmetry_cell_setting 'monoclinic'
loop_
_space_group_symop_operation_xyz
x,y,z
-x,y,1/2-z
-x,-y,-z
x,-y,1/2+z
1/2+x,1/2+y,z
1/2-x,1/2+y,1/2-z
1/2-x,1/2-y,-z
1/2+x,1/2-y,1/2+z
loop_
_atom_site_type_symbol
_atom_site_label
_atom_site_fract_x
_atom_site_fract_y
_atom_site_fract_z
Si Si1 0.121306 0.462502 0.686430
Si Si2 0.652933 0.903850 0.533363
Si Si3 0.344877 0.687941 0.878109
Si Si4 0.846321 0.249854 0.624327
O O1 0.261777 0.530647 0.803856
O O2 0.225157 0.346563 0.693698
O O3 0.996231 0.610524 0.592144
O O4 0.947727 0.337973 0.625359
O O5 0.730887 0.735587 0.601408
O O6 0.500000 0.000000 0.500000
O O7 0.829069 0.046630 0.609568
O O8 0.604548 0.682208 0.011813
O O9 0.000000 0.283903 0.750000
#
# Coordination Sequence:
#
# PCOD9282003 Si02
#       4
#     8   8   8   8
#     4  10  21  39  67  98 128 176 216 268 327 386
#     4   8  18  39  62  92 128 171 215 264 324 378
#     4  10  22  40  68  97 132 171 219 268 328 386
#     4  10  21  38  67  94 133 172 217 264 331 383
#
# _framework density 25.435701999999999
#
# number of rings (size 3 to 8) (size 9 to 14) (size 15 to 20)
#    0.000    3.000    0.000    3.000   10.500    1.000 
#    0.000    2.500    0.000    0.000    0.000    0.000 
#    0.000    0.000    0.000    0.000    0.000    0.000 
#
# Total GULP energy -89415.674136 kJ/mol
# GULP energy per Si atom -5588.479633 kJ/mol
# Density = 2.537781 g / cm^3
# Si number density = 25.435702 Si / 1000 Ang^3
#
#
#
# Elastic Constant Matrix: (Units=GPa)
#
#
# Indices 1 2 3 4 5 6 
#
# 1 55.9941 17.8428 30.6417 -0.0001 -17.8815 -0.0001
# 2 17.8428 60.2647 43.2539 -0.0001 -0.6170 0.0000
# 3 30.6417 43.2539 157.6312 0.0002 -23.3537 0.0000
# 4 -0.0001 -0.0001 0.0002 51.1486 -0.0001 -19.7182
# 5 -17.8815 -0.6170 -23.3537 -0.0001 34.9009 -0.0001
# 6 -0.0001 0.0000 0.0000 -19.7182 -0.0001 36.0361
#
#
#
# Elastic Compliance Matrix: (Units=1/GPa)
#
#
# Indices 1 2 3 4 5 6 
#
# 1 0.024162 -0.006071 -0.001346 0.000000 0.011371 0.000000
# 2 -0.006071 0.022654 -0.006036 0.000000 -0.006749 0.000000
# 3 -0.001346 -0.006036 0.009040 0.000000 0.005253 0.000000
# 4 0.000000 0.000000 0.000000 0.024777 0.000000 0.013558
# 5 0.011371 -0.006749 0.005253 0.000000 0.037874 0.000000
# 6 0.000000 0.000000 0.000000 0.013558 0.000000 0.035168
#
#
# Mechanical properties :
#
#
# Convention : Reuss Voigt Hill
#
# Bulk Modulus (GPa) = 34.54309 50.81853 42.68081
# Shear Modulus (GPa) = 26.28371 36.56056 31.42213
#
# Velocity S-wave (km/s) = 3.21805 3.79538 3.51858
# Velocity P-wave (km/s) = 5.23620 6.26332 5.77265
#
# Compressibility (1/GPa) = 0.02894935
#
# Stress axis : x y z
#
# Youngs Moduli (GPa) = 41.38806 44.14221 110.61833
#
# Poissons Ratio (x) = 0.26799 0.14891
# Poissons Ratio (y) = 0.25127 0.66769
# Poissons Ratio (z) = 0.05572 0.26644
#
# Static dielectric constant tensor:
#      x y z
#    x 2.047080 0.000000 0.012340 
#    y 0.000000 2.113440 0.000000 
#    z 0.012340 0.000000 2.019700 
# 
# From -- ./inp_files/150085.got.cif
#   From: 2010.05.17/outbox.cif.g08.bks.cpg/sg15_76_cif.got.tgz:150085.got - 2010.06.03 18:47:42.
