data_PCOD9282940
_publ_section_title
;
Structure prediction by ZEFSAII (Michael W. Deem and Ramdas Pophale) SiO2 
 PCOD9282940
Probable space group: C 2/C
;
_chemical_formula_sum "Si O2"
_cell_formula_units_Z 48
_cell_length_a 20.340763
_cell_length_b 18.027121
_cell_length_c 16.655018
_cell_angle_alpha 90.000000
_cell_angle_beta 160.856656
_cell_angle_gamma 90.000000
_cell_volume 2002.734526
_symmetry_space_group_name_H-M "C 2/C"
_symmetry_group_IT_number 15
_symmetry_cell_setting 'monoclinic'
loop_
_space_group_symop_operation_xyz
x,y,z
-x,y,1/2-z
-x,-y,-z
x,-y,1/2+z
1/2+x,1/2+y,z
1/2-x,1/2+y,1/2-z
1/2-x,1/2-y,-z
1/2+x,1/2-y,1/2+z
loop_
_atom_site_type_symbol
_atom_site_label
_atom_site_fract_x
_atom_site_fract_y
_atom_site_fract_z
Si Si1 0.000000 0.691318 0.250000
Si Si2 0.354267 0.971459 0.213550
Si Si3 0.346120 0.679915 0.001795
Si Si4 0.000000 0.937846 0.250000
Si Si5 0.731611 0.477197 0.750958
Si Si6 0.416389 0.679032 0.775660
Si Si7 0.115004 0.177740 0.167219
O O1 0.193209 0.650034 0.503223
O O2 0.057699 0.745160 0.243118
O O3 0.585240 0.998018 0.477546
O O4 0.288228 0.992337 0.228706
O O5 0.310975 0.883434 0.153619
O O6 0.196167 0.011142 0.972496
O O7 0.500000 0.700467 0.250000
O O8 0.487635 0.647745 0.094868
O O9 0.238239 0.752146 0.841031
O O10 0.958613 0.883254 0.126969
O O11 0.500000 0.500000 0.500000
O O12 0.739388 0.388004 0.769766
O O13 0.462029 0.696931 0.919423
#
# Coordination Sequence:
#
# PCOD9282940 Si02
#       7
#     4   8   8   4   8   8   8
#     4   9  20  38  58  98 140 177 230 298 347 440
#     4  11  24  46  73 104 155 190 241 308 360 436
#     4  12  26  46  71 104 148 191 248 314 368 438
#     4  11  22  44  70 102 144 185 234 302 359 438
#     4  11  24  46  72 108 140 197 248 295 367 435
#     4  10  21  39  65  97 138 182 236 288 365 431
#     4  12  24  43  71 101 142 188 251 295 370 446
#
# _framework density 23.967230000000001
#
# number of rings (size 3 to 8) (size 9 to 14) (size 15 to 20)
#    0.000    1.000    4.167    2.500    0.000    1.333 
#    9.000    1.667    0.000    0.000    0.000    0.000 
#    0.000    0.000    0.000    0.000    0.000    0.000 
#
# Total GULP energy -134076.492062 kJ/mol
# GULP energy per Si atom -5586.520503 kJ/mol
# Density = 2.391268 g / cm^3
# Si number density = 23.967230 Si / 1000 Ang^3
#
#
#
# Elastic Constant Matrix: (Units=GPa)
#
#
# Indices 1 2 3 4 5 6 
#
# 1 69.8821 7.9599 31.5795 0.0000 -32.1636 0.0000
# 2 7.9599 121.3747 38.6749 0.0000 -13.1417 0.0000
# 3 31.5795 38.6749 163.1778 0.0009 -20.4308 0.0004
# 4 0.0000 0.0000 0.0009 35.6559 0.0003 -4.3924
# 5 -32.1636 -13.1417 -20.4308 0.0003 38.6095 0.0002
# 6 0.0000 0.0000 0.0004 -4.3924 0.0002 23.3270
#
#
#
# Elastic Compliance Matrix: (Units=1/GPa)
#
#
# Indices 1 2 3 4 5 6 
#
# 1 0.024173 0.001319 -0.002585 0.000000 0.019219 0.000000
# 2 0.001319 0.009138 -0.002029 0.000000 0.003136 0.000000
# 3 -0.002585 -0.002029 0.007232 0.000000 0.000984 0.000000
# 4 0.000000 0.000000 0.000000 0.028712 0.000000 0.005406
# 5 0.019219 0.003136 0.000984 0.000000 0.043498 0.000000
# 6 0.000000 0.000000 0.000000 0.005406 0.000000 0.043887
#
#
# Mechanical properties :
#
#
# Convention : Reuss Voigt Hill
#
# Bulk Modulus (GPa) = 29.44999 56.76259 43.10629
# Shear Modulus (GPa) = 28.64553 37.93315 33.28934
#
# Velocity S-wave (km/s) = 3.46091 3.98264 3.73091
# Velocity P-wave (km/s) = 5.31835 6.69951 6.04848
#
# Compressibility (1/GPa) = 0.03395587
#
# Stress axis : x y z
#
# Youngs Moduli (GPa) = 41.36850 109.42890 138.26667
#
# Poissons Ratio (x) = -0.14435 0.35735
# Poissons Ratio (y) = -0.05457 0.28048
# Poissons Ratio (z) = 0.10692 0.22198
#
# Static dielectric constant tensor:
#      x y z
#    x 1.994570 0.000000 0.018890 
#    y 0.000000 1.921550 0.000000 
#    z 0.018890 0.000000 2.020580 
# 
# From -- ./inp_files/216315.got.cif
#   From: 2010.05.17/outbox.cif.g08.bks.cpg/sg15_109_cif.got.tgz:216315.got - 2010.06.03 18:47:42.
