data_PCOD9282125
_publ_section_title
;
Structure prediction by ZEFSAII (Michael W. Deem and Ramdas Pophale) SiO2 
 PCOD9282125
Probable space group: C 2/C
;
_chemical_formula_sum "Si O2"
_cell_formula_units_Z 40
_cell_length_a 13.053189
_cell_length_b 6.851832
_cell_length_c 22.949005
_cell_angle_alpha 90.000000
_cell_angle_beta 127.118882
_cell_angle_gamma 90.000000
_cell_volume 1636.648086
_symmetry_space_group_name_H-M "C 2/C"
_symmetry_group_IT_number 15
_symmetry_cell_setting 'monoclinic'
loop_
_space_group_symop_operation_xyz
x,y,z
-x,y,1/2-z
-x,-y,-z
x,-y,1/2+z
1/2+x,1/2+y,z
1/2-x,1/2+y,1/2-z
1/2-x,1/2-y,-z
1/2+x,1/2-y,1/2+z
loop_
_atom_site_type_symbol
_atom_site_label
_atom_site_fract_x
_atom_site_fract_y
_atom_site_fract_z
Si Si1 0.971581 0.750515 0.671842
Si Si2 0.439972 0.728607 0.515534
Si Si3 0.373396 0.544422 0.373597
Si Si4 0.724865 0.487278 0.450366
Si Si5 0.105653 0.342031 0.827326
O O1 0.966789 0.517038 0.664831
O O2 0.000000 0.786636 0.750000
O O3 0.834149 0.819661 0.597405
O O4 0.075197 0.866891 0.668792
O O5 0.437828 0.674941 0.447140
O O6 0.570696 0.671166 0.593125
O O7 0.338898 0.572505 0.510307
O O8 0.375518 0.939861 0.502271
O O9 0.221950 0.562791 0.330437
O O10 0.665577 0.321052 0.388063
O O11 0.000000 0.247376 0.750000
#
# Coordination Sequence:
#
# PCOD9282125 Si02
#       5
#     8   8   8   8   8
#     4  10  21  39  56  85 119 155 194 243 290 346
#     4   8  16  34  58  84 114 151 189 240 296 342
#     4   9  18  38  60  80 120 155 184 246 298 335
#     4   9  17  36  60  82 117 151 192 244 290 345
#     4  10  21  39  56  85 119 155 194 243 290 346
#
# _framework density 24.440194999999999
#
# number of rings (size 3 to 8) (size 9 to 14) (size 15 to 20)
#    0.000    2.800    0.000    0.600    0.000    0.000 
#   28.800   38.000    0.000    0.000    0.000    0.000 
#    0.000    0.000    0.000    0.000    0.000    0.000 
#
# Total GULP energy -111734.273160 kJ/mol
# GULP energy per Si atom -5586.713658 kJ/mol
# Density = 2.438457 g / cm^3
# Si number density = 24.440195 Si / 1000 Ang^3
#
#
#
# Elastic Constant Matrix: (Units=GPa)
#
#
# Indices 1 2 3 4 5 6 
#
# 1 85.0276 -4.7426 46.3602 0.0000 -0.4189 0.0000
# 2 -4.7426 60.5278 15.3919 0.0000 1.0907 0.0000
# 3 46.3602 15.3919 89.6838 0.0000 -12.9909 0.0000
# 4 0.0000 0.0000 0.0000 -99.3235 0.0000 78.1534
# 5 -0.4189 1.0907 -12.9909 0.0000 47.1479 0.0000
# 6 0.0000 0.0000 0.0000 78.1534 0.0000 -12.6442
#
#
#
# Elastic Compliance Matrix: (Units=1/GPa)
#
#
# Indices 1 2 3 4 5 6 
#
# 1 0.017488 0.003993 -0.010120 0.000000 -0.002725 0.000000
# 2 0.003993 0.018260 -0.005472 0.000000 -0.001895 0.000000
# 3 -0.010120 -0.005472 0.018046 0.000000 0.005009 0.000000
# 4 0.000000 0.000000 0.000000 0.002606 0.000000 0.016107
# 5 -0.002725 -0.001895 0.005009 0.000000 0.022610 0.000000
# 6 0.000000 0.000000 0.000000 0.016107 0.000000 0.020470
#
#
# Mechanical properties :
#
#
# Convention : Reuss Voigt Hill
#
# Bulk Modulus (GPa) = 32.68487 38.80648 35.74568
# Shear Modulus (GPa) = 37.62848 -1.08199 18.27325
#
# Velocity S-wave (km/s) = 3.92805 -0.66609 2.73733
# Velocity P-wave (km/s) = 5.82883 3.91421 4.96469
#
# Compressibility (1/GPa) = 0.03059519
#
# Stress axis : x y z
#
# Youngs Moduli (GPa) = 57.18189 54.76469 55.41248
#
# Poissons Ratio (x) = -0.21867 0.56078
# Poissons Ratio (y) = -0.22832 0.30324
# Poissons Ratio (z) = 0.57869 0.29969
#
# Static dielectric constant tensor:
#      x y z
#    x 1.993120 0.000000 0.014320 
#    y 0.000000 1.953180 0.000000 
#    z 0.014320 0.000000 1.996850 
# 
# From -- ./inp_files/202230.got.cif
#   From: 2010.05.17/outbox.cif.g08.bks.cpg/sg15_102_cif.got.tgz:202230.got - 2010.06.03 18:47:42.
