data_PCOD9282595
_publ_section_title
;
Structure prediction by ZEFSAII (Michael W. Deem and Ramdas Pophale) SiO2 
 PCOD9282595
Probable space group: C 2/C
;
_chemical_formula_sum "Si O2"
_cell_formula_units_Z 60
_cell_length_a 7.624109
_cell_length_b 24.118199
_cell_length_c 22.803825
_cell_angle_alpha 90.000000
_cell_angle_beta 44.531133
_cell_angle_gamma 90.000000
_cell_volume 2940.650962
_symmetry_space_group_name_H-M "C 2/C"
_symmetry_group_IT_number 15
_symmetry_cell_setting 'monoclinic'
loop_
_space_group_symop_operation_xyz
x,y,z
-x,y,1/2-z
-x,-y,-z
x,-y,1/2+z
1/2+x,1/2+y,z
1/2-x,1/2+y,1/2-z
1/2-x,1/2-y,-z
1/2+x,1/2-y,1/2+z
loop_
_atom_site_type_symbol
_atom_site_label
_atom_site_fract_x
_atom_site_fract_y
_atom_site_fract_z
Si Si1 0.663224 0.337352 0.499196
Si Si2 0.788865 0.384349 0.259871
Si Si3 0.040336 0.045646 0.077426
Si Si4 0.000000 0.807674 0.250000
Si Si5 0.644363 0.037356 0.067606
Si Si6 0.599412 0.637602 0.552624
Si Si7 0.348918 0.225271 0.570674
Si Si8 0.795381 0.000518 0.754855
O O1 0.593261 0.388910 0.557729
O O2 0.624916 0.358596 0.441667
O O3 0.469099 0.286022 0.542488
O O4 0.927227 0.313387 0.457493
O O5 0.719258 0.346524 0.222209
O O6 0.532271 0.387507 0.358464
O O7 0.866287 0.446327 0.225241
O O8 0.000000 0.357942 0.250000
O O9 0.830666 0.031892 0.078637
O O10 0.927325 0.027783 0.167323
O O11 0.281714 0.010834 0.996676
O O12 0.115332 0.772927 0.170287
O O13 0.374975 0.036735 0.162254
O O14 0.704326 0.094857 0.021203
O O15 0.736763 0.694083 0.540122
O O16 0.000000 0.025024 0.750000
#
# Coordination Sequence:
#
# PCOD9282595 Si02
#       8
#     8   8   8   4   8   8   8   8
#     4  10  22  40  65  86 115 167 204 253 313 363
#     4  11  21  36  60  89 127 154 198 253 306 373
#     4  10  22  41  61  90 121 162 208 249 310 377
#     4  10  22  38  56  94 118 158 200 260 308 360
#     4  10  22  38  62  89 120 163 203 251 311 375
#     4  10  21  39  63  91 117 159 204 256 310 365
#     4  10  22  40  62  87 122 154 212 257 305 368
#     4  12  25  37  57  92 132 164 202 250 309 382
#
# _framework density 20.403646999999999
#
# number of rings (size 3 to 8) (size 9 to 14) (size 15 to 20)
#    0.000    1.600    2.000    2.400    7.467    0.533 
#    4.800    0.000    0.000    0.800    0.000    0.000 
#    0.000    0.000    0.000    0.000    0.000    0.000 
#
# Total GULP energy -167286.464074 kJ/mol
# GULP energy per Si atom -5576.215469 kJ/mol
# Density = 2.035721 g / cm^3
# Si number density = 20.403647 Si / 1000 Ang^3
#
#
#
# Elastic Constant Matrix: (Units=GPa)
#
#
# Indices 1 2 3 4 5 6 
#
# 1 64.9466 -2.7593 -8.4498 0.0000 0.4581 0.0000
# 2 -2.7593 65.6642 33.3468 0.0000 1.7206 0.0000
# 3 -8.4498 33.3468 111.7168 0.0000 13.4597 0.0000
# 4 0.0000 0.0000 0.0000 -3.7980 0.0000 -4.4059
# 5 0.4581 1.7206 13.4597 0.0000 12.5452 0.0000
# 6 0.0000 0.0000 0.0000 -4.4059 0.0000 16.0708
#
#
#
# Elastic Compliance Matrix: (Units=1/GPa)
#
#
# Indices 1 2 3 4 5 6 
#
# 1 0.015599 -0.000021 0.001440 0.000000 -0.002112 0.000000
# 2 -0.000021 0.018107 -0.005865 0.000000 0.003810 0.000000
# 3 0.001440 -0.005865 0.012312 0.000000 -0.012457 0.000000
# 4 0.000000 0.000000 0.000000 -0.199765 0.000000 -0.054767
# 5 -0.002112 0.003810 -0.012457 0.000000 0.092632 0.000000
# 6 0.000000 0.000000 0.000000 -0.054767 0.000000 0.047210
#
#
# Mechanical properties :
#
#
# Convention : Reuss Voigt Hill
#
# Bulk Modulus (GPa) = 26.93520 31.84478 29.38999
# Shear Modulus (GPa) = 679.24522 19.64293 349.44408
#
# Velocity S-wave (km/s) = 18.26545 3.10613 13.10104
# Velocity P-wave (km/s) = 21.40246 5.33904 15.59761
#
# Compressibility (1/GPa) = 0.03712614
#
# Stress axis : x y z
#
# Youngs Moduli (GPa) = 64.10792 55.22723 81.22251
#
# Poissons Ratio (x) = 0.00114 -0.11700
# Poissons Ratio (y) = 0.00133 0.47641
# Poissons Ratio (z) = -0.09235 0.32393
#
# Static dielectric constant tensor:
#      x y z
#    x 1.802810 0.000000 0.016100 
#    y 0.000000 1.714960 0.000000 
#    z 0.016100 0.000000 1.743850 
# 
# From -- ./inp_files/266517.got.cif
#   From: 2010.05.17/outbox.cif.g08.bks.cpg/sg15_134_cif.got.tgz:266517.got - 2010.06.03 18:47:42.
