data_PCOD9282877
_publ_section_title
;
Structure prediction by ZEFSAII (Michael W. Deem and Ramdas Pophale) SiO2 
 PCOD9282877
Probable space group: C 2/C
;
_chemical_formula_sum "Si O2"
_cell_formula_units_Z 60
_cell_length_a 16.087039
_cell_length_b 31.758934
_cell_length_c 5.085822
_cell_angle_alpha 90.000000
_cell_angle_beta 75.121158
_cell_angle_gamma 90.000000
_cell_volume 2511.261853
_symmetry_space_group_name_H-M "C 2/C"
_symmetry_group_IT_number 15
_symmetry_cell_setting 'monoclinic'
loop_
_space_group_symop_operation_xyz
x,y,z
-x,y,1/2-z
-x,-y,-z
x,-y,1/2+z
1/2+x,1/2+y,z
1/2-x,1/2+y,1/2-z
1/2-x,1/2-y,-z
1/2+x,1/2-y,1/2+z
loop_
_atom_site_type_symbol
_atom_site_label
_atom_site_fract_x
_atom_site_fract_y
_atom_site_fract_z
Si Si1 0.426085 0.414496 0.976434
Si Si2 0.000000 0.841240 0.250000
Si Si3 0.224477 0.862386 0.531850
Si Si4 0.341211 0.123554 0.436845
Si Si5 0.943934 0.295954 0.038672
Si Si6 0.842259 0.974201 0.447892
Si Si7 0.098340 0.209413 0.293233
Si Si8 0.636113 0.028336 0.082530
O O1 0.500000 0.436316 0.750000
O O2 0.345626 0.399179 0.869797
O O3 0.468675 0.371534 0.046135
O O4 0.395123 0.438009 0.262573
O O5 0.920846 0.813758 0.416004
O O6 0.266333 0.872572 0.217017
O O7 0.172342 0.818408 0.597316
O O8 0.297873 0.867501 0.690710
O O9 0.402677 0.161825 0.463183
O O10 0.387655 0.077776 0.404656
O O11 0.880241 0.258318 0.178347
O O12 0.000000 0.305885 0.250000
O O13 0.000000 0.278310 0.750000
O O14 0.740251 0.967335 0.505294
O O15 0.859714 0.987268 0.731109
O O16 0.000000 0.210175 0.250000
O O17 0.611198 0.999710 0.854094
#
# Coordination Sequence:
#
# PCOD9282877 Si02
#       8
#     8   4   8   8   8   8   8   8
#     4  12  25  36  61  88 124 182 224 277 321 366
#     4  12  20  40  60  86 124 180 234 256 318 376
#     4  12  24  40  65 100 138 168 231 279 313 383
#     4  12  26  43  71 103 132 172 215 284 336 377
#     4  11  26  48  74  99 135 172 213 264 341 427
#     4  10  24  39  56  83 123 170 222 274 325 371
#     4  11  23  40  66  94 134 188 225 262 320 385
#     4  10  21  39  65  92 128 172 214 261 330 407
#
# _framework density 23.892368999999999
#
# number of rings (size 3 to 8) (size 9 to 14) (size 15 to 20)
#    0.000    0.800    4.667    2.400    5.600    1.600 
#    0.000    0.000    0.000    2.400    0.000    0.000 
#    0.000    0.000    0.000    0.000    0.000    0.000 
#
# Total GULP energy -167834.711173 kJ/mol
# GULP energy per Si atom -5594.490372 kJ/mol
# Density = 2.383799 g / cm^3
# Si number density = 23.892369 Si / 1000 Ang^3
#
#
#
# Elastic Constant Matrix: (Units=GPa)
#
#
# Indices 1 2 3 4 5 6 
#
# 1 35.5098 27.2141 11.7671 0.0000 3.6228 0.0000
# 2 27.2141 170.3266 -7.6277 0.0000 11.6747 0.0000
# 3 11.7671 -7.6277 46.9644 0.0000 16.5041 0.0000
# 4 0.0000 0.0000 0.0000 28.8943 0.0000 -2.7925
# 5 3.6228 11.6747 16.5041 0.0000 28.1058 0.0000
# 6 0.0000 0.0000 0.0000 -2.7925 0.0000 9.8448
#
#
#
# Elastic Compliance Matrix: (Units=1/GPa)
#
#
# Indices 1 2 3 4 5 6 
#
# 1 0.036870 -0.006794 -0.012175 0.000000 0.005219 0.000000
# 2 -0.006794 0.007508 0.004674 0.000000 -0.004988 0.000000
# 3 -0.012175 0.004674 0.031794 0.000000 -0.019042 0.000000
# 4 0.000000 0.000000 0.000000 0.035584 0.000000 0.010094
# 5 0.005219 -0.004988 -0.019042 0.000000 0.048161 0.000000
# 6 0.000000 0.000000 0.000000 0.010094 0.000000 0.104439
#
#
# Mechanical properties :
#
#
# Convention : Reuss Voigt Hill
#
# Bulk Modulus (GPa) = 21.01626 35.05642 28.03634
# Shear Modulus (GPa) = 16.19132 28.13214 22.16173
#
# Velocity S-wave (km/s) = 2.60605 3.43513 3.04890
# Velocity P-wave (km/s) = 4.22737 5.51706 4.91470
#
# Compressibility (1/GPa) = 0.04758221
#
# Stress axis : x y z
#
# Youngs Moduli (GPa) = 27.12224 133.19500 31.45223
#
# Poissons Ratio (x) = 0.90492 0.38294
# Poissons Ratio (y) = 0.18427 -0.14702
# Poissons Ratio (z) = 0.33022 -0.62260
#
# Static dielectric constant tensor:
#      x y z
#    x 1.939030 0.000000 0.002180 
#    y 0.000000 1.963720 0.000000 
#    z 0.002180 0.000000 1.908130 
# 
# From -- ./inp_files/11989.got.cif
#   From: 2010.05.17/outbox.cif.g08.bks.cpg/sg15_6_cif.got.tgz:11989.got - 2010.06.03 18:47:42.
