data_PCOD9282306
_publ_section_title
;
Structure prediction by ZEFSAII (Michael W. Deem and Ramdas Pophale) SiO2 
 PCOD9282306
Probable space group: C 2/C
;
_chemical_formula_sum "Si O2"
_cell_formula_units_Z 64
_cell_length_a 9.832213
_cell_length_b 29.484247
_cell_length_c 27.235204
_cell_angle_alpha 90.000000
_cell_angle_beta 25.735660
_cell_angle_gamma 90.000000
_cell_volume 3428.321889
_symmetry_space_group_name_H-M "C 2/C"
_symmetry_group_IT_number 15
_symmetry_cell_setting 'monoclinic'
loop_
_space_group_symop_operation_xyz
x,y,z
-x,y,1/2-z
-x,-y,-z
x,-y,1/2+z
1/2+x,1/2+y,z
1/2-x,1/2+y,1/2-z
1/2-x,1/2-y,-z
1/2+x,1/2-y,1/2+z
loop_
_atom_site_type_symbol
_atom_site_label
_atom_site_fract_x
_atom_site_fract_y
_atom_site_fract_z
Si Si1 0.565030 0.380743 0.575568
Si Si2 0.601466 0.232742 0.099079
Si Si3 0.363272 0.289903 0.998260
Si Si4 0.332637 0.309243 0.253435
Si Si5 0.718499 0.092774 0.814520
Si Si6 0.887026 0.465868 0.340970
Si Si7 0.734297 0.066132 0.094707
Si Si8 0.227189 0.863664 0.723396
O O1 0.498079 0.329992 0.579025
O O2 0.362700 0.412066 0.604164
O O3 0.471866 0.377454 0.662873
O O4 0.929169 0.392724 0.444518
O O5 0.439737 0.276531 0.175833
O O6 0.374447 0.187988 0.172856
O O7 0.750000 0.250000 0.000000
O O8 0.890707 0.222360 0.040797
O O9 0.040726 0.307149 0.125606
O O10 0.250000 0.250000 0.000000
O O11 0.500000 0.293092 0.250000
O O12 0.387670 0.362995 0.235698
O O13 0.577251 0.062661 0.818333
O O14 0.000000 0.067633 0.750000
O O15 0.931912 0.519157 0.337201
O O16 0.529579 0.450109 0.466119
O O17 0.000000 0.455658 0.250000
O O18 0.521992 0.101965 0.134097
O O19 0.000000 0.869335 0.750000
#
# Coordination Sequence:
#
# PCOD9282306 Si02
#       8
#     8   8   8   8   8   8   8   8
#     4  10  21  41  66  88 120 166 216 253 306 384
#     4  12  28  40  57  90 130 164 208 268 316 370
#     4  11  21  37  65  83 112 164 210 249 303 370
#     4  10  21  39  61  85 116 161 212 250 302 374
#     4   9  21  39  62  93 123 163 205 256 313 388
#     4  10  21  39  68  97 128 163 207 265 328 385
#     4  10  22  43  66  96 125 167 218 260 318 390
#     4  12  27  41  63  93 130 167 212 273 322 370
#
# _framework density 18.668023999999999
#
# number of rings (size 3 to 8) (size 9 to 14) (size 15 to 20)
#    0.000    1.500    2.500    1.875    3.500    2.500 
#    0.000    0.000    0.000    6.000    0.000    0.000 
#    0.000    0.000    0.000    0.000    0.000    0.000 
#
# Total GULP energy -178334.251404 kJ/mol
# GULP energy per Si atom -5572.945356 kJ/mol
# Density = 1.862554 g / cm^3
# Si number density = 18.668024 Si / 1000 Ang^3
#
#
#
# Elastic Constant Matrix: (Units=GPa)
#
#
# Indices 1 2 3 4 5 6 
#
# 1 121.5331 43.0683 52.9079 -0.0041 -0.8052 0.0020
# 2 43.0683 98.0548 35.9797 -0.0005 11.5298 -0.0001
# 3 52.9079 35.9797 73.6109 -0.0033 13.3059 0.0007
# 4 -0.0041 -0.0005 -0.0033 27.5333 0.0039 -3.2100
# 5 -0.8052 11.5298 13.3059 0.0039 35.7485 -0.0037
# 6 0.0020 -0.0001 0.0007 -3.2100 -0.0037 19.9764
#
#
#
# Elastic Compliance Matrix: (Units=1/GPa)
#
#
# Indices 1 2 3 4 5 6 
#
# 1 0.013182 -0.003104 -0.008783 0.000000 0.004567 0.000000
# 2 -0.003104 0.013276 -0.003722 0.000000 -0.002967 0.000000
# 3 -0.008783 -0.003722 0.023089 0.000002 -0.007591 -0.000001
# 4 0.000000 0.000000 0.000002 0.037013 -0.000004 0.005948
# 5 0.004567 -0.002967 -0.007591 -0.000004 0.031858 0.000005
# 6 0.000000 0.000000 -0.000001 0.005948 0.000005 0.051015
#
#
# Mechanical properties :
#
#
# Convention : Reuss Voigt Hill
#
# Bulk Modulus (GPa) = 54.55672 61.90118 58.22895
# Shear Modulus (GPa) = 24.18245 27.40116 25.79181
#
# Velocity S-wave (km/s) = 3.60306 3.83536 3.72103
# Velocity P-wave (km/s) = 6.82624 7.26940 7.05130
#
# Compressibility (1/GPa) = 0.01832955
#
# Stress axis : x y z
#
# Youngs Moduli (GPa) = 75.86072 75.32207 43.31051
#
# Poissons Ratio (x) = 0.23381 0.38039
# Poissons Ratio (y) = 0.23549 0.16120
# Poissons Ratio (z) = 0.66628 0.28034
#
# Static dielectric constant tensor:
#      x y z
#    x 1.613400 0.000010 0.009010 
#    y 0.000010 1.514770 -0.000010 
#    z 0.009010 -0.000010 1.684020 
# 
# From -- ./inp_files/266706.got.cif
#   From: 2010.05.17/outbox.cif.g08.bks.cpg/sg15_134_cif.got.tgz:266706.got - 2010.06.03 18:47:42.
