data_PCOD9282909
_publ_section_title
;
Structure prediction by ZEFSAII (Michael W. Deem and Ramdas Pophale) SiO2 
 PCOD9282909
Probable space group: C 2/C
;
_chemical_formula_sum "Si O2"
_cell_formula_units_Z 64
_cell_length_a 15.582176
_cell_length_b 18.092980
_cell_length_c 11.799863
_cell_angle_alpha 90.000000
_cell_angle_beta 96.869465
_cell_angle_gamma 90.000000
_cell_volume 3302.830050
_symmetry_space_group_name_H-M "C 2/C"
_symmetry_group_IT_number 15
_symmetry_cell_setting 'monoclinic'
loop_
_space_group_symop_operation_xyz
x,y,z
-x,y,1/2-z
-x,-y,-z
x,-y,1/2+z
1/2+x,1/2+y,z
1/2-x,1/2+y,1/2-z
1/2-x,1/2-y,-z
1/2+x,1/2-y,1/2+z
loop_
_atom_site_type_symbol
_atom_site_label
_atom_site_fract_x
_atom_site_fract_y
_atom_site_fract_z
Si Si1 0.268968 0.373682 0.935862
Si Si2 0.591340 0.640369 0.215834
Si Si3 0.149327 0.503113 0.512889
Si Si4 0.492677 0.085005 0.879906
Si Si5 0.350421 0.286296 0.397097
Si Si6 0.026008 0.744756 0.530339
Si Si7 0.831393 0.771346 0.136189
Si Si8 0.241434 0.860962 0.926693
O O1 0.354170 0.397373 0.878691
O O2 0.202777 0.439775 0.944313
O O3 0.229283 0.301450 0.866225
O O4 0.287705 0.339430 0.063031
O O5 0.500000 0.609658 0.250000
O O6 0.564885 0.717336 0.149271
O O7 0.659751 0.645031 0.329073
O O8 0.097592 0.546151 0.602835
O O9 0.211074 0.439301 0.571426
O O10 0.072783 0.465698 0.428814
O O11 0.500000 0.101832 0.750000
O O12 0.496870 0.160711 0.949432
O O13 0.441228 0.287010 0.475733
O O14 0.360062 0.294992 0.264782
O O15 0.306337 0.206170 0.409276
O O16 0.290320 0.345719 0.450083
O O17 0.093061 0.748455 0.437878
#
# Coordination Sequence:
#
# PCOD9282909 Si02
#       8
#     8   8   8   8   8   8   8   8
#     4  10  22  41  66  92 129 177 218 270 324 394
#     4  11  22  41  69  93 125 170 227 274 325 376
#     4  11  25  46  59 100 139 173 219 262 335 413
#     4  11  25  39  66 100 143 174 206 264 344 407
#     4  11  22  39  63  97 130 165 221 274 321 386
#     4  11  21  41  67  99 132 167 214 275 328 392
#     4  10  21  39  65  95 127 173 222 266 324 386
#     4  11  24  39  64  95 128 173 217 272 329 385
#
# _framework density 19.377320999999998
#
# number of rings (size 3 to 8) (size 9 to 14) (size 15 to 20)
#    0.000    1.250    5.000    0.750    1.750    1.000 
#    0.000    0.625    0.000    0.000    0.000    0.000 
#    0.000    0.000    0.000    0.000    0.000    0.000 
#
# Total GULP energy -178589.660526 kJ/mol
# GULP energy per Si atom -5580.926891 kJ/mol
# Density = 1.933322 g / cm^3
# Si number density = 19.377321 Si / 1000 Ang^3
#
#
#
# Elastic Constant Matrix: (Units=GPa)
#
#
# Indices 1 2 3 4 5 6 
#
# 1 115.7324 32.9905 32.7759 0.0000 -14.3501 0.0000
# 2 32.9905 55.5407 28.6465 0.0000 -6.7995 0.0000
# 3 32.7759 28.6465 100.6204 0.0000 -14.9029 0.0000
# 4 0.0000 0.0000 0.0000 3.1605 0.0000 4.9848
# 5 -14.3501 -6.7995 -14.9029 0.0000 30.0820 0.0000
# 6 0.0000 0.0000 0.0000 4.9848 0.0000 31.5171
#
#
#
# Elastic Compliance Matrix: (Units=1/GPa)
#
#
# Indices 1 2 3 4 5 6 
#
# 1 0.011012 -0.005322 -0.001589 0.000000 0.003263 0.000000
# 2 -0.005322 0.023781 -0.004982 0.000000 0.000368 0.000000
# 3 -0.001589 -0.004982 0.012513 0.000000 0.004315 0.000000
# 4 0.000000 0.000000 0.000000 0.421560 0.000000 -0.066674
# 5 0.003263 0.000368 0.004315 0.000000 0.037020 0.000000
# 6 0.000000 0.000000 0.000000 -0.066674 0.000000 0.042274
#
#
# Mechanical properties :
#
#
# Convention : Reuss Voigt Hill
#
# Bulk Modulus (GPa) = 42.51616 51.19102 46.85359
# Shear Modulus (GPa) = 8.62385 24.78398 16.70391
#
# Velocity S-wave (km/s) = 2.11191 3.58022 2.93923
# Velocity P-wave (km/s) = 5.28542 6.60045 5.97920
#
# Compressibility (1/GPa) = 0.02352047
#
# Stress axis : x y z
#
# Youngs Moduli (GPa) = 90.80753 42.05043 79.91466
#
# Poissons Ratio (x) = 0.22381 0.12695
# Poissons Ratio (y) = 0.48331 0.39815
# Poissons Ratio (z) = 0.14425 0.20950
#
# Static dielectric constant tensor:
#      x y z
#    x 1.709800 0.000000 -0.003310 
#    y 0.000000 1.645600 0.000000 
#    z -0.003310 0.000000 1.695470 
# 
# From -- ./inp_files/98766.got.cif
#   From: 2010.05.17/outbox.cif.g08.bks.cpg/sg15_50_cif.got.tgz:98766.got - 2010.06.03 18:47:42.
