data_PCOD9282570
_publ_section_title
;
Structure prediction by ZEFSAII (Michael W. Deem and Ramdas Pophale) SiO2 
 PCOD9282570
Probable space group: C 2/C
;
_chemical_formula_sum "Si O2"
_cell_formula_units_Z 44
_cell_length_a 14.489885
_cell_length_b 9.347757
_cell_length_c 15.954014
_cell_angle_alpha 90.000000
_cell_angle_beta 121.288776
_cell_angle_gamma 90.000000
_cell_volume 1846.652506
_symmetry_space_group_name_H-M "C 2/C"
_symmetry_group_IT_number 15
_symmetry_cell_setting 'monoclinic'
loop_
_space_group_symop_operation_xyz
x,y,z
-x,y,1/2-z
-x,-y,-z
x,-y,1/2+z
1/2+x,1/2+y,z
1/2-x,1/2+y,1/2-z
1/2-x,1/2-y,-z
1/2+x,1/2-y,1/2+z
loop_
_atom_site_type_symbol
_atom_site_label
_atom_site_fract_x
_atom_site_fract_y
_atom_site_fract_z
Si Si1 0.613845 0.700461 0.581123
Si Si2 0.618100 0.812966 0.761892
Si Si3 0.683805 0.079025 0.901735
Si Si4 0.983070 0.936166 0.884381
Si Si5 0.500000 0.744322 0.250000
Si Si6 0.298268 0.390390 0.070929
O O1 0.608685 0.807564 0.656916
O O2 0.724597 0.690215 0.582966
O O3 0.600778 0.544110 0.616924
O O4 0.517472 0.684205 0.468295
O O5 0.500000 0.806807 0.750000
O O6 0.679406 0.672390 0.826816
O O7 0.673870 0.952000 0.828206
O O8 0.572439 0.159937 0.842689
O O9 0.710898 0.008960 0.003724
O O10 0.936049 0.859817 0.781072
O O11 0.089511 0.034576 0.910192
O O12 0.250000 0.250000 0.000000
#
# Coordination Sequence:
#
# PCOD9282570 Si02
#       6
#     8   8   8   8   4   8
#     4  10  22  39  61  90 120 159 211 261 302 369
#     4  11  19  39  66  87 120 167 212 257 313 368
#     4  10  24  40  58  92 128 160 211 264 305 371
#     4  10  21  39  63  89 124 162 205 257 313 369
#     4  12  24  42  62  90 132 174 200 252 326 374
#     4   9  19  38  65  90 115 162 212 254 300 369
#
# _framework density 23.826898
#
# number of rings (size 3 to 8) (size 9 to 14) (size 15 to 20)
#    0.000    1.818    2.727    1.091    2.545    2.909 
#    3.273    0.909    0.000    0.000    0.000    0.000 
#    0.000    0.000    0.000    0.000    0.000    0.000 
#
# Total GULP energy -122719.073344 kJ/mol
# GULP energy per Si atom -5578.139697 kJ/mol
# Density = 2.377267 g / cm^3
# Si number density = 23.826898 Si / 1000 Ang^3
#
#
#
# Elastic Constant Matrix: (Units=GPa)
#
#
# Indices 1 2 3 4 5 6 
#
# 1 22.8030 8.6700 3.3750 0.0000 2.7259 0.0000
# 2 8.6700 86.2740 37.4678 0.0000 -6.4887 0.0000
# 3 3.3750 37.4678 61.4581 0.0000 -15.9700 0.0000
# 4 0.0000 0.0000 0.0000 19.2133 0.0000 -8.8095
# 5 2.7259 -6.4887 -15.9700 0.0000 38.8544 0.0000
# 6 0.0000 0.0000 0.0000 -8.8095 0.0000 -1.7789
#
#
#
# Elastic Compliance Matrix: (Units=1/GPa)
#
#
# Indices 1 2 3 4 5 6 
#
# 1 0.046254 -0.004598 -0.000873 0.000000 -0.004372 0.000000
# 2 -0.004598 0.016298 -0.009956 0.000000 -0.001048 0.000000
# 3 -0.000873 -0.009956 0.024600 0.000000 0.008510 0.000000
# 4 0.000000 0.000000 0.000000 0.015913 0.000000 -0.078808
# 5 -0.004372 -0.001048 0.008510 0.000000 0.029367 0.000000
# 6 0.000000 0.000000 0.000000 -0.078808 0.000000 -0.171876
#
#
# Mechanical properties :
#
#
# Convention : Reuss Voigt Hill
#
# Bulk Modulus (GPa) = 17.76243 29.95120 23.85682
# Shear Modulus (GPa) = 491.42370 19.32590 255.37480
#
# Velocity S-wave (km/s) = 14.37690 2.85106 10.36397
# Velocity P-wave (km/s) = 16.82452 4.84104 12.37942
#
# Compressibility (1/GPa) = 0.05629859
#
# Stress axis : x y z
#
# Youngs Moduli (GPa) = 21.61978 61.35756 40.65053
#
# Poissons Ratio (x) = 0.28212 0.03548
# Poissons Ratio (y) = 0.09941 0.40471
# Poissons Ratio (z) = 0.01887 0.61086
#
# Static dielectric constant tensor:
#      x y z
#    x 1.955400 0.000000 -0.041600 
#    y 0.000000 1.921860 0.000000 
#    z -0.041600 0.000000 1.989620 
# 
# From -- ./inp_files/151767.got.cif
#   From: 2010.05.17/outbox.cif.g08.bks.cpg/sg15_76_cif.got.tgz:151767.got - 2010.06.03 18:47:42.
