data_PCOD9282832
_publ_section_title
;
Structure prediction by ZEFSAII (Michael W. Deem and Ramdas Pophale) SiO2 
 PCOD9282832
Probable space group: C 2/C
;
_chemical_formula_sum "Si O2"
_cell_formula_units_Z 36
_cell_length_a 12.081717
_cell_length_b 14.778598
_cell_length_c 9.792803
_cell_angle_alpha 90.000000
_cell_angle_beta 101.952860
_cell_angle_gamma 90.000000
_cell_volume 1710.602500
_symmetry_space_group_name_H-M "C 2/C"
_symmetry_group_IT_number 15
_symmetry_cell_setting 'monoclinic'
loop_
_space_group_symop_operation_xyz
x,y,z
-x,y,1/2-z
-x,-y,-z
x,-y,1/2+z
1/2+x,1/2+y,z
1/2-x,1/2+y,1/2-z
1/2-x,1/2-y,-z
1/2+x,1/2-y,1/2+z
loop_
_atom_site_type_symbol
_atom_site_label
_atom_site_fract_x
_atom_site_fract_y
_atom_site_fract_z
Si Si1 0.000000 0.409656 0.750000
Si Si2 0.877315 0.966755 0.184379
Si Si3 0.847196 0.319378 0.918979
Si Si4 0.723955 0.991485 0.413278
Si Si5 0.889657 0.177238 0.151643
O O1 0.952403 0.349188 0.858952
O O2 0.892361 0.466415 0.671637
O O3 0.906575 0.070060 0.144856
O O4 0.000000 0.923150 0.250000
O O5 0.803661 0.970071 0.303830
O O6 0.794022 0.943113 0.036234
O O7 0.730594 0.308043 0.803957
O O8 0.814404 0.401436 0.013740
O O9 0.873068 0.228597 0.006118
O O10 0.000000 0.216825 0.250000
#
# Coordination Sequence:
#
# PCOD9282832 Si02
#       5
#     4   8   8   8   8
#     4  12  22  38  58  96 122 152 200 248 292 364
#     4  10  21  39  65  87 121 157 202 243 298 349
#     4  10  22  37  62  85 123 154 198 241 302 348
#     4  11  21  37  61  92 121 160 190 250 294 352
#     4   9  19  39  62  79 113 163 193 244 297 345
#
# _framework density 21.045216
#
# number of rings (size 3 to 8) (size 9 to 14) (size 15 to 20)
#    0.000    1.778    4.444    1.333    1.556    0.000 
#    0.000    1.111   51.333    0.000    0.000    0.000 
#    0.000    0.000    0.000    0.000    0.000    0.000 
#
# Total GULP energy -100302.501228 kJ/mol
# GULP energy per Si atom -5572.361179 kJ/mol
# Density = 2.099732 g / cm^3
# Si number density = 21.045216 Si / 1000 Ang^3
#
#
#
# Elastic Constant Matrix: (Units=GPa)
#
#
# Indices 1 2 3 4 5 6 
#
# 1 168.3322 10.1133 53.0126 0.0000 8.4271 0.0000
# 2 10.1133 38.1625 1.8107 0.0000 -10.1531 0.0000
# 3 53.0126 1.8107 82.0886 0.0000 1.0388 0.0000
# 4 0.0000 0.0000 0.0000 46.3433 0.0000 -11.3917
# 5 8.4271 -10.1531 1.0388 0.0000 51.7492 0.0000
# 6 0.0000 0.0000 0.0000 -11.3917 0.0000 -0.0402
#
#
#
# Elastic Compliance Matrix: (Units=1/GPa)
#
#
# Indices 1 2 3 4 5 6 
#
# 1 0.007698 -0.002231 -0.004902 0.000000 -0.001593 0.000000
# 2 -0.002231 0.028331 0.000741 0.000000 0.005907 0.000000
# 3 -0.004902 0.000741 0.015323 0.000000 0.000636 0.000000
# 4 0.000000 0.000000 0.000000 0.000305 0.000000 -0.086542
# 5 -0.001593 0.005907 0.000636 0.000000 0.020730 0.000000
# 6 0.000000 0.000000 0.000000 -0.086542 0.000000 -0.352066
#
#
# Mechanical properties :
#
#
# Convention : Reuss Voigt Hill
#
# Bulk Modulus (GPa) = 25.92773 46.49515 36.21144
# Shear Modulus (GPa) = -19.68214 34.52026 7.41906
#
# Velocity S-wave (km/s) = -3.06147 4.05444 1.87961
# Velocity P-wave (km/s) = 0.38738 6.63769 4.68556
#
# Compressibility (1/GPa) = 0.03856875
#
# Stress axis : x y z
#
# Youngs Moduli (GPa) = 129.89944 35.29649 65.25990
#
# Poissons Ratio (x) = 0.07876 0.31991
# Poissons Ratio (y) = 0.28985 -0.04838
# Poissons Ratio (z) = 0.63679 -0.02617
#
# Static dielectric constant tensor:
#      x y z
#    x 1.813610 0.000000 0.066550 
#    y 0.000000 1.775430 0.000000 
#    z 0.066550 0.000000 1.850090 
# 
# From -- ./inp_files/28723.got.cif
#   From: 2010.05.17/outbox.cif.g08.bks.cpg/sg15_15_cif.got.tgz:28723.got - 2010.06.03 18:47:42.
