data_PCOD9282872
_publ_section_title
;
Structure prediction by ZEFSAII (Michael W. Deem and Ramdas Pophale) SiO2 
 PCOD9282872
Probable space group: C 2/C
;
_chemical_formula_sum "Si O2"
_cell_formula_units_Z 48
_cell_length_a 24.627601
_cell_length_b 9.369473
_cell_length_c 13.192265
_cell_angle_alpha 90.000000
_cell_angle_beta 49.684548
_cell_angle_gamma 90.000000
_cell_volume 2321.095429
_symmetry_space_group_name_H-M "C 2/C"
_symmetry_group_IT_number 15
_symmetry_cell_setting 'monoclinic'
loop_
_space_group_symop_operation_xyz
x,y,z
-x,y,1/2-z
-x,-y,-z
x,-y,1/2+z
1/2+x,1/2+y,z
1/2-x,1/2+y,1/2-z
1/2-x,1/2-y,-z
1/2+x,1/2-y,1/2+z
loop_
_atom_site_type_symbol
_atom_site_label
_atom_site_fract_x
_atom_site_fract_y
_atom_site_fract_z
Si Si1 0.272753 0.310658 0.614487
Si Si2 0.764513 0.464022 0.630906
Si Si3 0.614711 0.207448 0.264418
Si Si4 0.000000 0.852118 0.750000
Si Si5 0.361535 0.518694 0.845819
Si Si6 0.000000 0.389432 0.750000
Si Si7 0.920977 0.379933 0.472664
O O1 0.266193 0.393988 0.728763
O O2 0.196674 0.338378 0.650176
O O3 0.332934 0.383421 0.473069
O O4 0.277649 0.137600 0.623014
O O5 0.707329 0.434279 0.611530
O O6 0.841244 0.389911 0.523544
O O7 0.620386 0.377370 0.270822
O O8 0.561729 0.189618 0.235432
O O9 0.587356 0.129112 0.397050
O O10 0.965955 0.752742 0.877686
O O11 0.932861 0.939184 0.789577
O O12 0.962318 0.484606 0.880672
#
# Coordination Sequence:
#
# PCOD9282872 Si02
#       7
#     8   8   8   4   8   4   8
#     4  10  22  41  68  97 128 164 224 273 319 387
#     4  10  22  43  67  96 123 174 216 274 320 386
#     4  10  21  39  65  92 126 168 215 269 319 392
#     4  11  27  42  60  98 135 173 208 284 317 393
#     4  11  23  41  64  93 128 173 217 264 333 383
#     4  11  19  38  62  96 121 179 202 260 339 381
#     4  10  23  42  61  90 138 162 224 267 320 384
#
# _framework density 20.679891000000001
#
# number of rings (size 3 to 8) (size 9 to 14) (size 15 to 20)
#    0.000    1.667    0.000    5.000    7.000    1.333 
#   18.000    0.000    0.000    0.000    0.000    0.000 
#    0.000    0.000    0.000    0.000    0.000    0.000 
#
# Total GULP energy -133876.495896 kJ/mol
# GULP energy per Si atom -5578.187329 kJ/mol
# Density = 2.063282 g / cm^3
# Si number density = 20.679891 Si / 1000 Ang^3
#
#
#
# Elastic Constant Matrix: (Units=GPa)
#
#
# Indices 1 2 3 4 5 6 
#
# 1 128.9794 46.6780 48.1005 0.0000 -39.4552 0.0000
# 2 46.6780 53.1693 45.2505 0.0000 -14.8753 0.0000
# 3 48.1005 45.2505 123.3883 0.0000 -24.7383 0.0000
# 4 0.0000 0.0000 0.0000 -29.7404 0.0000 -37.9370
# 5 -39.4552 -14.8753 -24.7383 0.0000 28.8939 0.0000
# 6 0.0000 0.0000 0.0000 -37.9370 0.0000 26.9668
#
#
#
# Elastic Compliance Matrix: (Units=1/GPa)
#
#
# Indices 1 2 3 4 5 6 
#
# 1 0.016787 -0.010411 0.000960 0.000000 0.018385 0.000000
# 2 -0.010411 0.034892 -0.009641 0.000000 -0.004508 0.000000
# 3 0.000960 -0.009641 0.012717 0.000000 0.007235 0.000000
# 4 0.000000 0.000000 0.000000 -0.012032 0.000000 -0.016927
# 5 0.018385 -0.004508 0.007235 0.000000 0.063588 0.000000
# 6 0.000000 0.000000 0.000000 -0.016927 0.000000 0.013270
#
#
# Mechanical properties :
#
#
# Convention : Reuss Voigt Hill
#
# Bulk Modulus (GPa) = 38.15176 65.06612 51.60894
# Shear Modulus (GPa) = 28.38609 16.25792 22.32201
#
# Velocity S-wave (km/s) = 3.70894 2.80691 3.28900
# Velocity P-wave (km/s) = 6.06881 6.48358 6.27962
#
# Compressibility (1/GPa) = 0.02621111
#
# Stress axis : x y z
#
# Youngs Moduli (GPa) = 59.57013 28.65997 78.63750
#
# Poissons Ratio (x) = 0.29837 -0.07549
# Poissons Ratio (y) = 0.62018 0.75817
# Poissons Ratio (z) = -0.05719 0.27632
#
# Static dielectric constant tensor:
#      x y z
#    x 1.756040 0.000000 -0.019530 
#    y 0.000000 1.772930 0.000000 
#    z -0.019530 0.000000 1.753450 
# 
# From -- ./inp_files/176927.got.cif
#   From: 2010.05.17/outbox.cif.g08.bks.cpg/sg15_89_cif.got.tgz:176927.got - 2010.06.03 18:47:42.
