data_PCOD9282953
_publ_section_title
;
Structure prediction by ZEFSAII (Michael W. Deem and Ramdas Pophale) SiO2 
 PCOD9282953
Probable space group: C 2/C
;
_chemical_formula_sum "Si O2"
_cell_formula_units_Z 40
_cell_length_a 29.022182
_cell_length_b 9.562810
_cell_length_c 10.128149
_cell_angle_alpha 90.000000
_cell_angle_beta 35.916124
_cell_angle_gamma 90.000000
_cell_volume 1648.875806
_symmetry_space_group_name_H-M "C 2/C"
_symmetry_group_IT_number 15
_symmetry_cell_setting 'monoclinic'
loop_
_space_group_symop_operation_xyz
x,y,z
-x,y,1/2-z
-x,-y,-z
x,-y,1/2+z
1/2+x,1/2+y,z
1/2-x,1/2+y,1/2-z
1/2-x,1/2-y,-z
1/2+x,1/2-y,1/2+z
loop_
_atom_site_type_symbol
_atom_site_label
_atom_site_fract_x
_atom_site_fract_y
_atom_site_fract_z
Si Si1 0.359193 0.391451 0.249701
Si Si2 0.809033 0.365919 0.731123
Si Si3 0.114754 0.462209 0.204290
Si Si4 0.839913 0.784024 0.748568
Si Si5 0.562368 0.769856 0.714576
O O1 0.280563 0.366822 0.517866
O O2 0.346655 0.288995 0.153790
O O3 0.359760 0.553321 0.214281
O O4 0.427864 0.331482 0.183432
O O5 0.823463 0.433883 0.556656
O O6 0.851288 0.452588 0.750273
O O7 0.102798 0.308039 0.290482
O O8 0.052778 0.568673 0.282570
O O9 0.857590 0.735213 0.558920
O O10 0.750000 0.750000 0.000000
O O11 0.500000 0.725916 0.750000
#
# Coordination Sequence:
#
# PCOD9282953 Si02
#       5
#     8   8   8   8   8
#     4  10  23  39  65  96 137 170 217 275 335 389
#     4  10  21  39  66 100 132 169 218 282 335 382
#     4  11  21  42  65  98 128 171 227 266 334 385
#     4  12  23  40  70 101 126 170 223 278 330 387
#     4  11  26  45  64  94 138 179 220 269 327 401
#
# _framework density 24.258953000000002
#
# number of rings (size 3 to 8) (size 9 to 14) (size 15 to 20)
#    0.000    1.200    4.000    1.200    2.800    3.200 
#    0.000    1.000    0.000    0.000    0.000    0.000 
#    0.000    0.000    0.000    0.000    0.000    0.000 
#
# Total GULP energy -111812.980247 kJ/mol
# GULP energy per Si atom -5590.649012 kJ/mol
# Density = 2.420374 g / cm^3
# Si number density = 24.258953 Si / 1000 Ang^3
#
#
#
# Elastic Constant Matrix: (Units=GPa)
#
#
# Indices 1 2 3 4 5 6 
#
# 1 71.9974 48.6031 0.1732 0.0000 1.8441 0.0000
# 2 48.6031 222.4718 15.4605 0.0000 4.1397 0.0000
# 3 0.1732 15.4605 47.7455 0.0000 13.2252 0.0000
# 4 0.0000 0.0000 0.0000 31.0393 0.0000 5.3654
# 5 1.8441 4.1397 13.2252 0.0000 41.7118 0.0000
# 6 0.0000 0.0000 0.0000 5.3654 0.0000 32.4544
#
#
#
# Elastic Compliance Matrix: (Units=1/GPa)
#
#
# Indices 1 2 3 4 5 6 
#
# 1 0.016374 -0.003656 0.001342 0.000000 -0.000787 0.000000
# 2 -0.003656 0.005415 -0.001794 0.000000 0.000193 0.000000
# 3 0.001342 -0.001794 0.023556 0.000000 -0.007350 0.000000
# 4 0.000000 0.000000 0.000000 0.033165 0.000000 -0.005483
# 5 -0.000787 0.000193 -0.007350 0.000000 0.026320 0.000000
# 6 0.000000 0.000000 0.000000 -0.005483 0.000000 0.031719
#
#
# Mechanical properties :
#
#
# Convention : Reuss Voigt Hill
#
# Bulk Modulus (GPa) = 26.93163 52.29870 39.61517
# Shear Modulus (GPa) = 31.81867 39.57296 35.69581
#
# Velocity S-wave (km/s) = 3.62557 4.04328 3.84011
# Velocity P-wave (km/s) = 5.35277 6.58808 6.00229
#
# Compressibility (1/GPa) = 0.03713106
#
# Stress axis : x y z
#
# Youngs Moduli (GPa) = 61.07128 184.68228 42.45162
#
# Poissons Ratio (x) = 0.67518 -0.05698
# Poissons Ratio (y) = 0.22327 0.07614
# Poissons Ratio (z) = -0.08198 0.33123
#
# Static dielectric constant tensor:
#      x y z
#    x 1.924950 0.000000 -0.075140 
#    y 0.000000 1.960810 0.000000 
#    z -0.075140 0.000000 2.037120 
# 
# From -- ./inp_files/125441.got.cif
#   From: 2010.05.17/outbox.cif.g08.bks.cpg/sg15_63_cif.got.tgz:125441.got - 2010.06.03 18:47:42.
