data_PCOD9282704
_publ_section_title
;
Structure prediction by ZEFSAII (Michael W. Deem and Ramdas Pophale) SiO2 
 PCOD9282704
Probable space group: C 2/C
;
_chemical_formula_sum "Si O2"
_cell_formula_units_Z 60
_cell_length_a 27.921024
_cell_length_b 7.738633
_cell_length_c 13.825828
_cell_angle_alpha 90.000000
_cell_angle_beta 85.853926
_cell_angle_gamma 90.000000
_cell_volume 2979.536360
_symmetry_space_group_name_H-M "C 2/C"
_symmetry_group_IT_number 15
_symmetry_cell_setting 'monoclinic'
loop_
_space_group_symop_operation_xyz
x,y,z
-x,y,1/2-z
-x,-y,-z
x,-y,1/2+z
1/2+x,1/2+y,z
1/2-x,1/2+y,1/2-z
1/2-x,1/2-y,-z
1/2+x,1/2-y,1/2+z
loop_
_atom_site_type_symbol
_atom_site_label
_atom_site_fract_x
_atom_site_fract_y
_atom_site_fract_z
Si Si1 0.500000 0.917792 0.750000
Si Si2 0.720890 0.966205 0.330204
Si Si3 0.363057 0.412903 0.767005
Si Si4 0.231521 0.916770 0.855056
Si Si5 0.400965 0.036062 0.822227
Si Si6 0.202617 0.901941 0.555803
Si Si7 0.356251 0.897304 0.526292
Si Si8 0.585962 0.733697 0.817395
O O1 0.530934 0.795312 0.816713
O O2 0.459099 0.031368 0.807262
O O3 0.727191 0.990809 0.214815
O O4 0.754615 0.111996 0.373066
O O5 0.670568 0.981523 0.392460
O O6 0.744012 0.784618 0.355867
O O7 0.318553 0.425852 0.698234
O O8 0.380943 0.216432 0.781751
O O9 0.341603 0.474102 0.873655
O O10 0.403145 0.542335 0.721009
O O11 0.220986 0.990061 0.961947
O O12 0.387744 0.868687 0.760010
O O13 0.383478 0.013682 0.934246
O O14 0.183561 0.721752 0.518555
O O15 0.391530 0.773403 0.581856
#
# Coordination Sequence:
#
# PCOD9282704 Si02
#       8
#     4   8   8   8   8   8   8   8
#     4   8  22  42  62  96 120 154 196 260 314 368
#     4  11  24  35  58  87 123 166 202 257 290 351
#     4  10  21  39  64  87 125 163 205 253 299 365
#     4  11  22  38  55  89 123 165 212 243 303 348
#     4   9  22  41  60  97 120 155 202 254 311 369
#     4  10  22  38  56  89 124 161 209 250 290 358
#     4  11  21  39  66  85 124 164 201 252 307 360
#     4  10  21  41  65  90 122 157 201 254 309 368
#
# _framework density 20.137360999999999
#
# number of rings (size 3 to 8) (size 9 to 14) (size 15 to 20)
#    0.800    1.067    1.333    2.400    3.733    4.267 
#    0.000    0.000    0.000    2.400    0.000    0.000 
#    0.000    0.000    0.000    0.000    0.000    0.000 
#
# Total GULP energy -167243.444186 kJ/mol
# GULP energy per Si atom -5574.781473 kJ/mol
# Density = 2.009153 g / cm^3
# Si number density = 20.137361 Si / 1000 Ang^3
#
#
#
# Elastic Constant Matrix: (Units=GPa)
#
#
# Indices 1 2 3 4 5 6 
#
# 1 51.6327 5.7676 19.0913 0.0000 1.8877 0.0000
# 2 5.7676 54.3545 14.7685 0.0000 6.4459 0.0000
# 3 19.0913 14.7685 99.0191 0.0000 9.0170 0.0000
# 4 0.0000 0.0000 0.0000 31.2097 0.0000 -2.6169
# 5 1.8877 6.4459 9.0170 0.0000 14.5142 0.0000
# 6 0.0000 0.0000 0.0000 -2.6169 0.0000 27.8789
#
#
#
# Elastic Compliance Matrix: (Units=1/GPa)
#
#
# Indices 1 2 3 4 5 6 
#
# 1 0.020926 -0.001193 -0.003876 0.000000 0.000216 0.000000
# 2 -0.001193 0.019968 -0.002072 0.000000 -0.007426 0.000000
# 3 -0.003876 -0.002072 0.011687 0.000000 -0.005836 0.000000
# 4 0.000000 0.000000 0.000000 0.032295 0.000000 0.003032
# 5 0.000216 -0.007426 -0.005836 0.000000 0.075794 0.000000
# 6 0.000000 0.000000 0.000000 0.003032 0.000000 0.036154
#
#
# Mechanical properties :
#
#
# Convention : Reuss Voigt Hill
#
# Bulk Modulus (GPa) = 26.11075 31.58458 28.84766
# Shear Modulus (GPa) = 22.33409 25.74582 24.03996
#
# Velocity S-wave (km/s) = 3.33391 3.57951 3.45889
# Velocity P-wave (km/s) = 5.27394 5.72734 5.50531
#
# Compressibility (1/GPa) = 0.03829840
#
# Stress axis : x y z
#
# Youngs Moduli (GPa) = 47.78695 50.08041 85.56543
#
# Poissons Ratio (x) = 0.05974 0.33169
# Poissons Ratio (y) = 0.05701 0.17729
# Poissons Ratio (z) = 0.18524 0.10377
#
# Static dielectric constant tensor:
#      x y z
#    x 1.756420 0.000000 -0.002290 
#    y 0.000000 1.732940 0.000000 
#    z -0.002290 0.000000 1.727160 
# 
# From -- ./inp_files/180529.got.cif
#   From: 2010.05.17/outbox.cif.g08.bks.cpg/sg15_91_cif.got.tgz:180529.got - 2010.06.03 18:47:42.
