data_PCOD9282351
_publ_section_title
;
Structure prediction by ZEFSAII (Michael W. Deem and Ramdas Pophale) SiO2 
 PCOD9282351
Probable space group: C 2/C
;
_chemical_formula_sum "Si O2"
_cell_formula_units_Z 48
_cell_length_a 8.888668
_cell_length_b 21.113560
_cell_length_c 20.782093
_cell_angle_alpha 90.000000
_cell_angle_beta 41.302859
_cell_angle_gamma 90.000000
_cell_volume 2574.288017
_symmetry_space_group_name_H-M "C 2/C"
_symmetry_group_IT_number 15
_symmetry_cell_setting 'monoclinic'
loop_
_space_group_symop_operation_xyz
x,y,z
-x,y,1/2-z
-x,-y,-z
x,-y,1/2+z
1/2+x,1/2+y,z
1/2-x,1/2+y,1/2-z
1/2-x,1/2-y,-z
1/2+x,1/2-y,1/2+z
loop_
_atom_site_type_symbol
_atom_site_label
_atom_site_fract_x
_atom_site_fract_y
_atom_site_fract_z
Si Si1 0.661829 0.035560 0.498040
Si Si2 0.744948 0.122789 0.702558
Si Si3 0.247601 0.625492 0.841577
Si Si4 0.621787 0.067560 0.112670
Si Si5 0.166124 0.970650 0.819827
Si Si6 0.296647 0.677419 0.970715
O O1 0.488996 0.087535 0.580332
O O2 0.907827 0.051067 0.389560
O O3 0.500000 0.000000 0.500000
O O4 0.721860 0.987371 0.535593
O O5 0.500000 0.125314 0.750000
O O6 0.735359 0.157240 0.775424
O O7 0.942626 0.157310 0.600017
O O8 0.810667 0.047624 0.685932
O O9 0.500000 0.592201 0.750000
O O10 0.257399 0.660025 0.907558
O O11 0.749830 0.059763 0.139482
O O12 0.355815 0.052487 0.208696
O O13 0.652655 0.132385 0.064148
O O14 0.250000 0.750000 0.000000
#
# Coordination Sequence:
#
# PCOD9282351 Si02
#       6
#     8   8   8   8   8   8
#     4  12  20  32  61  94 127 153 196 264 335 376
#     4  11  20  39  69  94 122 159 210 269 317 379
#     4  10  21  39  61  90 122 166 211 252 318 379
#     4  11  22  38  61  91 128 164 203 261 326 373
#     4  11  22  36  60 102 128 149 207 271 335 376
#     4  11  25  45  61  84 132 182 217 245 304 383
#
# _framework density 18.645931000000001
#
# number of rings (size 3 to 8) (size 9 to 14) (size 15 to 20)
#    0.000    1.000    6.667    1.500    2.333    0.000 
#    9.000    2.500    0.000    0.000    0.000    0.000 
#    0.000    0.000    0.000    0.000    0.000    0.000 
#
# Total GULP energy -133655.678107 kJ/mol
# GULP energy per Si atom -5568.986588 kJ/mol
# Density = 1.860349 g / cm^3
# Si number density = 18.645931 Si / 1000 Ang^3
#
#
#
# Elastic Constant Matrix: (Units=GPa)
#
#
# Indices 1 2 3 4 5 6 
#
# 1 74.9537 15.3138 34.8549 -0.0003 -14.5563 0.0006
# 2 15.3138 106.9664 57.3679 -0.0001 -7.3703 0.0002
# 3 34.8549 57.3679 132.1407 0.0001 -25.8326 0.0001
# 4 -0.0003 -0.0001 0.0001 7.8604 0.0000 -2.1905
# 5 -14.5563 -7.3703 -25.8326 0.0000 49.1965 -0.0002
# 6 0.0006 0.0002 0.0001 -2.1905 -0.0002 8.3605
#
#
#
# Elastic Compliance Matrix: (Units=1/GPa)
#
#
# Indices 1 2 3 4 5 6 
#
# 1 0.015530 -0.000163 -0.003490 0.000000 0.002738 -0.000001
# 2 -0.000163 0.012238 -0.005484 0.000000 -0.001094 0.000000
# 3 -0.003490 -0.005484 0.011709 0.000000 0.004294 0.000000
# 4 0.000000 0.000000 0.000000 0.137240 0.000000 0.035958
# 5 0.002738 -0.001094 0.004294 0.000000 0.023227 0.000000
# 6 -0.000001 0.000000 0.000000 0.035958 0.000000 0.129032
#
#
# Mechanical properties :
#
#
# Convention : Reuss Voigt Hill
#
# Bulk Modulus (GPa) = 47.16577 58.79268 52.97922
# Shear Modulus (GPa) = 14.11167 26.85176 20.48171
#
# Velocity S-wave (km/s) = 2.75403 3.79896 3.31789
# Velocity P-wave (km/s) = 5.95510 7.13039 6.56908
#
# Compressibility (1/GPa) = 0.02120182
#
# Stress axis : x y z
#
# Youngs Moduli (GPa) = 64.39318 81.71432 85.40747
#
# Poissons Ratio (x) = 0.01329 0.29811
# Poissons Ratio (y) = 0.01048 0.46837
# Poissons Ratio (z) = 0.22476 0.44812
#
# Static dielectric constant tensor:
#      x y z
#    x 1.689660 0.000000 0.030550 
#    y 0.000000 0.999170 0.000030 
#    z 0.030550 0.000030 1.786190 
# 
# From -- ./inp_files/191959.got.cif
#   From: 2010.05.17/outbox.cif.g08.bks.cpg/sg15_96_cif.got.tgz:191959.got - 2010.06.03 18:47:42.
