data_PCOD9282597
_publ_section_title
;
Structure prediction by ZEFSAII (Michael W. Deem and Ramdas Pophale) SiO2 
 PCOD9282597
Probable space group: C 2/C
;
_chemical_formula_sum "Si O2"
_cell_formula_units_Z 44
_cell_length_a 13.911064
_cell_length_b 31.716931
_cell_length_c 13.710649
_cell_angle_alpha 90.000000
_cell_angle_beta 159.300307
_cell_angle_gamma 90.000000
_cell_volume 2138.266696
_symmetry_space_group_name_H-M "C 2/C"
_symmetry_group_IT_number 15
_symmetry_cell_setting 'monoclinic'
loop_
_space_group_symop_operation_xyz
x,y,z
-x,y,1/2-z
-x,-y,-z
x,-y,1/2+z
1/2+x,1/2+y,z
1/2-x,1/2+y,1/2-z
1/2-x,1/2-y,-z
1/2+x,1/2-y,1/2+z
loop_
_atom_site_type_symbol
_atom_site_label
_atom_site_fract_x
_atom_site_fract_y
_atom_site_fract_z
Si Si1 0.383425 0.279452 0.848782
Si Si2 0.500000 0.514151 0.250000
Si Si3 0.486552 0.659379 0.849221
Si Si4 0.035884 0.603483 0.131844
Si Si5 0.500000 0.718495 0.250000
Si Si6 0.761903 0.971266 0.726233
Si Si7 0.500000 0.038589 0.250000
O O1 0.459818 0.302504 0.818303
O O2 0.081570 0.260935 0.550212
O O3 0.428691 0.307599 0.986815
O O4 0.660868 0.535255 0.313960
O O5 0.737911 0.487878 0.528904
O O6 0.500000 0.675829 0.750000
O O7 0.197001 0.638506 0.604667
O O8 0.721596 0.624287 0.076706
O O9 0.187630 0.575656 0.194281
O O10 0.897772 0.567577 0.065783
O O11 0.750000 0.750000 0.500000
O O12 0.500000 0.000000 0.500000
O O13 0.000000 0.000000 0.000000
#
# Coordination Sequence:
#
# PCOD9282597 Si02
#       7
#     8   4   8   8   4   8   4
#     4  10  21  39  63  91 120 155 204 248 299 365
#     4  12  22  38  59  92 114 151 210 261 310 352
#     4  12  24  38  60  89 125 163 198 251 312 369
#     4  12  23  38  57  88 121 161 208 249 302 369
#     4   8  16  34  61  86 111 144 194 248 280 337
#     4  12  23  37  61  86 115 156 202 258 308 357
#     4  12  20  36  64  82 115 159 208 253 296 359
#
# _framework density 20.577414000000001
#
# number of rings (size 3 to 8) (size 9 to 14) (size 15 to 20)
#    0.000    0.727    5.455    3.273    0.000    0.727 
#    0.000    0.909    0.000    2.182    0.000    0.000 
#    0.000    0.000    0.000    0.000    0.000    0.000 
#
# Total GULP energy -122554.613501 kJ/mol
# GULP energy per Si atom -5570.664250 kJ/mol
# Density = 2.053058 g / cm^3
# Si number density = 20.577414 Si / 1000 Ang^3
#
#
#
# Elastic Constant Matrix: (Units=GPa)
#
#
# Indices 1 2 3 4 5 6 
#
# 1 174.4355 39.7397 2.6337 0.0000 -15.0902 -0.0003
# 2 39.7397 23.6921 -2.3775 0.0000 -6.8074 0.0000
# 3 2.6337 -2.3775 105.1342 -0.0007 11.5737 0.0003
# 4 0.0000 0.0000 -0.0007 19.9121 0.0000 2.2060
# 5 -15.0902 -6.8074 11.5737 0.0000 34.0470 -0.0002
# 6 -0.0003 0.0000 0.0003 2.2060 -0.0002 19.4740
#
#
#
# Elastic Compliance Matrix: (Units=1/GPa)
#
#
# Indices 1 2 3 4 5 6 
#
# 1 0.009368 -0.015407 -0.000728 0.000000 0.001319 0.000000
# 2 -0.015407 0.070121 0.001226 0.000000 0.006775 0.000000
# 3 -0.000728 0.001226 0.009938 0.000000 -0.003456 0.000000
# 4 0.000000 0.000000 0.000000 0.050859 0.000000 -0.005761
# 5 0.001319 0.006775 -0.003456 0.000000 0.032485 0.000000
# 6 0.000000 0.000000 0.000000 -0.005761 0.000000 0.052003
#
#
# Mechanical properties :
#
#
# Convention : Reuss Voigt Hill
#
# Bulk Modulus (GPa) = 16.77637 42.58374 29.68006
# Shear Modulus (GPa) = 18.21736 32.23766 25.22751
#
# Velocity S-wave (km/s) = 2.97864 3.96239 3.50520
# Velocity P-wave (km/s) = 4.47216 6.45549 5.55309
#
# Compressibility (1/GPa) = 0.05960765
#
# Stress axis : x y z
#
# Youngs Moduli (GPa) = 106.74656 14.26101 100.62317
#
# Poissons Ratio (x) = 0.21973 0.07328
# Poissons Ratio (y) = 1.64469 -0.12335
# Poissons Ratio (z) = 0.07774 -0.01748
#
# Static dielectric constant tensor:
#      x y z
#    x 1.847690 0.000000 -0.021410 
#    y 0.000000 1.736780 0.000000 
#    z -0.021410 0.000000 1.715910 
# 
# From -- ./inp_files/157581.got.cif
#   From: 2010.05.17/outbox.cif.g08.bks.cpg/sg15_79_cif.got.tgz:157581.got - 2010.06.03 18:47:42.
