data_PCOD9282229
_publ_section_title
;
Structure prediction by ZEFSAII (Michael W. Deem and Ramdas Pophale) SiO2 
 PCOD9282229
Probable space group: C 2/C
;
_chemical_formula_sum "Si O2"
_cell_formula_units_Z 40
_cell_length_a 20.583768
_cell_length_b 18.380851
_cell_length_c 13.987391
_cell_angle_alpha 90.000000
_cell_angle_beta 20.223102
_cell_angle_gamma 90.000000
_cell_volume 1829.351500
_symmetry_space_group_name_H-M "C 2/C"
_symmetry_group_IT_number 15
_symmetry_cell_setting 'monoclinic'
loop_
_space_group_symop_operation_xyz
x,y,z
-x,y,1/2-z
-x,-y,-z
x,-y,1/2+z
1/2+x,1/2+y,z
1/2-x,1/2+y,1/2-z
1/2-x,1/2-y,-z
1/2+x,1/2-y,1/2+z
loop_
_atom_site_type_symbol
_atom_site_label
_atom_site_fract_x
_atom_site_fract_y
_atom_site_fract_z
Si Si1 0.969878 0.987997 0.430860
Si Si2 0.403311 0.031358 0.281572
Si Si3 0.617816 0.646999 0.989207
Si Si4 0.897777 0.740212 0.709253
Si Si5 0.119439 0.398274 0.885148
O O1 0.837037 0.919594 0.595421
O O2 0.179302 0.982250 0.099902
O O3 0.000000 0.000000 0.500000
O O4 0.857699 0.061026 0.554791
O O5 0.500000 0.050858 0.250000
O O6 0.426075 0.088940 0.164190
O O7 0.502421 0.957633 0.107754
O O8 0.500000 0.652712 0.250000
O O9 0.498857 0.681728 0.066543
O O10 0.790065 0.700965 0.771668
O O11 0.056238 0.679441 0.511759
O O12 0.750000 0.750000 0.000000
#
# Coordination Sequence:
#
# PCOD9282229 Si02
#       5
#     8   8   8   8   8
#     4  12  24  40  67 103 147 187 247 294 352 421
#     4  11  22  39  64 101 140 187 241 296 358 421
#     4  10  21  39  59  95 135 176 221 294 347 417
#     4  10  22  38  65  95 140 176 225 284 369 422
#     4  11  23  41  67 101 143 187 234 305 354 417
#
# _framework density 21.865670999999999
#
# number of rings (size 3 to 8) (size 9 to 14) (size 15 to 20)
#    0.000    1.200    2.000    6.600    2.800    2.400 
#    0.000    0.000    0.000    1.200    5.200    0.000 
#    0.000    0.000    0.000    0.000    0.000    0.000 
#
# Total GULP energy -111607.369547 kJ/mol
# GULP energy per Si atom -5580.368477 kJ/mol
# Density = 2.181590 g / cm^3
# Si number density = 21.865671 Si / 1000 Ang^3
#
#
#
# Elastic Constant Matrix: (Units=GPa)
#
#
# Indices 1 2 3 4 5 6 
#
# 1 112.3067 23.7518 30.3473 -0.0005 -5.0878 -0.0018
# 2 23.7518 92.3333 33.2593 -0.0044 -3.6114 0.0004
# 3 30.3473 33.2593 122.1411 -0.0167 -9.7514 0.0066
# 4 -0.0005 -0.0044 -0.0167 41.8491 0.0058 -1.7201
# 5 -5.0878 -3.6114 -9.7514 0.0058 35.5993 -0.0008
# 6 -0.0018 0.0004 0.0066 -1.7201 -0.0008 29.5616
#
#
#
# Elastic Compliance Matrix: (Units=1/GPa)
#
#
# Indices 1 2 3 4 5 6 
#
# 1 0.009832 -0.001821 -0.001891 -0.000001 0.000703 0.000001
# 2 -0.001821 0.012349 -0.002894 0.000000 0.000200 0.000000
# 3 -0.001891 -0.002894 0.009610 0.000003 0.002069 -0.000002
# 4 -0.000001 0.000000 0.000003 0.023953 -0.000003 0.001394
# 5 0.000703 0.000200 0.002069 -0.000003 0.028778 0.000000
# 6 0.000001 0.000000 -0.000002 0.001394 0.000000 0.033909
#
#
# Mechanical properties :
#
#
# Convention : Reuss Voigt Hill
#
# Bulk Modulus (GPa) = 53.82273 55.72200 54.77236
# Shear Modulus (GPa) = 36.27503 37.36350 36.81927
#
# Velocity S-wave (km/s) = 4.07749 4.13822 4.10797
# Velocity P-wave (km/s) = 6.84372 6.95501 6.89959
#
# Compressibility (1/GPa) = 0.01857951
#
# Stress axis : x y z
#
# Youngs Moduli (GPa) = 101.70829 80.97795 104.05385
#
# Poissons Ratio (x) = 0.14742 0.19677
# Poissons Ratio (y) = 0.18516 0.30117
# Poissons Ratio (z) = 0.19234 0.23438
#
# Static dielectric constant tensor:
#      x y z
#    x 2.419560 0.000100 -0.277300 
#    y 0.000100 1.820220 -0.000030 
#    z -0.277300 -0.000030 1.963670 
# 
# From -- ./inp_files/169056.got.cif
#   From: 2010.05.17/outbox.cif.g08.bks.cpg/sg15_85_cif.got.tgz:169056.got - 2010.06.03 18:47:42.
