data_PCOD9282349
_publ_section_title
;
Structure prediction by ZEFSAII (Michael W. Deem and Ramdas Pophale) SiO2 
 PCOD9282349
Probable space group: C 2/C
;
_chemical_formula_sum "Si O2"
_cell_formula_units_Z 48
_cell_length_a 17.395321
_cell_length_b 21.268534
_cell_length_c 13.747936
_cell_angle_alpha 90.000000
_cell_angle_beta 151.635180
_cell_angle_gamma 90.000000
_cell_volume 2416.450580
_symmetry_space_group_name_H-M "C 2/C"
_symmetry_group_IT_number 15
_symmetry_cell_setting 'monoclinic'
loop_
_space_group_symop_operation_xyz
x,y,z
-x,y,1/2-z
-x,-y,-z
x,-y,1/2+z
1/2+x,1/2+y,z
1/2-x,1/2+y,1/2-z
1/2-x,1/2-y,-z
1/2+x,1/2-y,1/2+z
loop_
_atom_site_type_symbol
_atom_site_label
_atom_site_fract_x
_atom_site_fract_y
_atom_site_fract_z
Si Si1 0.457945 0.836322 0.313389
Si Si2 0.152358 0.537842 0.706821
Si Si3 0.394559 0.381261 0.359816
Si Si4 0.144507 0.927588 0.486496
Si Si5 0.608673 0.713859 0.468412
Si Si6 0.194119 0.679143 0.459771
O O1 0.500000 0.853057 0.250000
O O2 0.425253 0.899562 0.334271
O O3 0.589168 0.784121 0.489639
O O4 0.290166 0.798908 0.136795
O O5 0.281524 0.561963 0.771326
O O6 0.000000 0.500000 0.500000
O O7 0.249729 0.490116 0.884331
O O8 0.555376 0.406486 0.486386
O O9 0.432205 0.337025 0.494224
O O10 0.286329 0.343180 0.160604
O O11 0.246852 0.869588 0.557259
O O12 0.000000 0.939848 0.250000
O O13 0.500000 0.708387 0.250000
O O14 0.250000 0.750000 0.500000
O O15 0.000000 0.676727 0.250000
#
# Coordination Sequence:
#
# PCOD9282349 Si02
#       6
#     8   8   8   8   8   8
#     4  10  22  38  58  85 116 157 200 245 306 366
#     4  11  24  38  59  91 124 164 208 257 318 380
#     4  10  23  41  64  92 122 164 213 258 315 380
#     4  10  23  42  63  89 125 169 212 259 315 380
#     4  10  21  39  61  90 121 154 199 254 305 364
#     4  11  23  42  66  95 127 164 212 269 323 378
#
# _framework density 19.863845999999999
#
# number of rings (size 3 to 8) (size 9 to 14) (size 15 to 20)
#    0.000    1.667    0.000    5.000    0.000   15.333 
#    0.000    0.000    0.000    0.000    0.000    0.000 
#    0.000    0.000    0.000    0.000    0.000    0.000 
#
# Total GULP energy -134017.999484 kJ/mol
# GULP energy per Si atom -5584.083312 kJ/mol
# Density = 1.981863 g / cm^3
# Si number density = 19.863846 Si / 1000 Ang^3
#
#
#
# Elastic Constant Matrix: (Units=GPa)
#
#
# Indices 1 2 3 4 5 6 
#
# 1 120.0547 62.7786 35.6366 0.0000 17.7493 0.0000
# 2 62.7786 161.4655 70.0742 0.0000 14.8393 0.0000
# 3 35.6366 70.0742 73.3810 0.0000 20.7654 0.0000
# 4 0.0000 0.0000 0.0000 94.4133 0.0000 8.3837
# 5 17.7493 14.8393 20.7654 0.0000 27.1505 0.0000
# 6 0.0000 0.0000 0.0000 8.3837 0.0000 31.7765
#
#
#
# Elastic Compliance Matrix: (Units=1/GPa)
#
#
# Indices 1 2 3 4 5 6 
#
# 1 0.011112 -0.003635 -0.000551 0.000000 -0.004856 0.000000
# 2 -0.003635 0.011898 -0.010757 0.000000 0.004101 0.000000
# 3 -0.000551 -0.010757 0.028589 0.000000 -0.015626 0.000000
# 4 0.000000 0.000000 0.000000 0.010846 0.000000 -0.002861
# 5 -0.004856 0.004101 -0.015626 0.000000 0.049717 0.000000
# 6 0.000000 0.000000 0.000000 -0.002861 0.000000 0.032225
#
#
# Mechanical properties :
#
#
# Convention : Reuss Voigt Hill
#
# Bulk Modulus (GPa) = 46.05479 76.87555 61.46517
# Shear Modulus (GPa) = 27.54665 43.09553 35.32109
#
# Velocity S-wave (km/s) = 3.72798 4.66289 4.22140
# Velocity P-wave (km/s) = 6.46266 8.23258 7.40072
#
# Compressibility (1/GPa) = 0.02171327
#
# Stress axis : x y z
#
# Youngs Moduli (GPa) = 89.99450 84.04679 34.97797
#
# Poissons Ratio (x) = 0.30550 0.01927
# Poissons Ratio (y) = 0.32712 0.37626
# Poissons Ratio (z) = 0.04959 0.90410
#
# Static dielectric constant tensor:
#      x y z
#    x 1.713550 0.000000 0.000410 
#    y 0.000000 1.712140 0.000000 
#    z 0.000410 0.000000 1.688630 
# 
# From -- ./inp_files/163318.got.cif
#   From: 2010.05.17/outbox.cif.g08.bks.cpg/sg15_82_cif.got.tgz:163318.got - 2010.06.03 18:47:42.
