data_PCOD9282770
_publ_section_title
;
Structure prediction by ZEFSAII (Michael W. Deem and Ramdas Pophale) SiO2 
 PCOD9282770
Probable space group: C 2/C
;
_chemical_formula_sum "Si O2"
_cell_formula_units_Z 44
_cell_length_a 23.150656
_cell_length_b 9.105263
_cell_length_c 15.573028
_cell_angle_alpha 90.000000
_cell_angle_beta 138.763817
_cell_angle_gamma 90.000000
_cell_volume 2163.827635
_symmetry_space_group_name_H-M "C 2/C"
_symmetry_group_IT_number 15
_symmetry_cell_setting 'monoclinic'
loop_
_space_group_symop_operation_xyz
x,y,z
-x,y,1/2-z
-x,-y,-z
x,-y,1/2+z
1/2+x,1/2+y,z
1/2-x,1/2+y,1/2-z
1/2-x,1/2-y,-z
1/2+x,1/2-y,1/2+z
loop_
_atom_site_type_symbol
_atom_site_label
_atom_site_fract_x
_atom_site_fract_y
_atom_site_fract_z
Si Si1 0.729379 0.325453 0.217132
Si Si2 0.372337 0.613439 0.398391
Si Si3 0.500000 0.766449 0.250000
Si Si4 0.967444 0.000406 0.833065
Si Si5 0.190653 0.655888 0.000497
Si Si6 0.702980 0.644215 0.880476
O O1 0.704815 0.494454 0.170322
O O2 0.829908 0.271798 0.336465
O O3 0.692092 0.234106 0.095131
O O4 0.693432 0.291559 0.273033
O O5 0.448566 0.599484 0.553209
O O6 0.418124 0.551441 0.364134
O O7 0.502956 0.651268 0.175314
O O8 0.591039 0.852472 0.356220
O O9 0.892570 0.086694 0.697469
O O10 0.235851 0.498823 0.059882
O O11 0.250000 0.750000 0.000000
O O12 0.750000 0.750000 0.000000
#
# Coordination Sequence:
#
# PCOD9282770 Si02
#       6
#     8   8   4   8   8   8
#     4  11  21  41  64  93 125 169 214 270 326 382
#     4  10  21  39  66  90 126 167 225 267 326 399
#     4  12  22  38  70  92 130 174 220 274 326 390
#     4  10  21  39  64  94 120 174 224 262 326 400
#     4  12  24  43  68  97 128 175 225 268 330 402
#     4  11  26  44  64  97 135 170 222 277 331 389
#
# _framework density 20.334336
#
# number of rings (size 3 to 8) (size 9 to 14) (size 15 to 20)
#    0.000    1.091    7.273    0.000    5.091    0.000 
#    3.273    0.000    0.000    6.545    0.000    0.000 
#    0.000    0.000    0.000    0.000    0.000    0.000 
#
# Total GULP energy -122724.605711 kJ/mol
# GULP energy per Si atom -5578.391169 kJ/mol
# Density = 2.028805 g / cm^3
# Si number density = 20.334336 Si / 1000 Ang^3
#
#
#
# Elastic Constant Matrix: (Units=GPa)
#
#
# Indices 1 2 3 4 5 6 
#
# 1 64.1583 30.1298 39.8060 0.0000 -2.8870 0.0000
# 2 30.1298 73.3632 40.1301 0.0000 8.1467 0.0000
# 3 39.8060 40.1301 139.9662 0.0000 31.7680 0.0000
# 4 0.0000 0.0000 0.0000 38.6657 0.0000 -2.0139
# 5 -2.8870 8.1467 31.7680 0.0000 43.2005 0.0000
# 6 0.0000 0.0000 0.0000 -2.0139 0.0000 18.0013
#
#
#
# Elastic Compliance Matrix: (Units=1/GPa)
#
#
# Indices 1 2 3 4 5 6 
#
# 1 0.023034 -0.006854 -0.006276 0.000000 0.007447 0.000000
# 2 -0.006854 0.018212 -0.002868 0.000000 -0.001784 0.000000
# 3 -0.006276 -0.002868 0.011672 0.000000 -0.008462 0.000000
# 4 0.000000 0.000000 0.000000 0.026014 0.000000 0.002910
# 5 0.007447 -0.001784 -0.008462 0.000000 0.030204 0.000000
# 6 0.000000 0.000000 0.000000 0.002910 0.000000 0.055877
#
#
# Mechanical properties :
#
#
# Convention : Reuss Voigt Hill
#
# Bulk Modulus (GPa) = 47.79274 55.29108 51.54191
# Shear Modulus (GPa) = 24.51172 31.13496 27.82334
#
# Velocity S-wave (km/s) = 3.47570 3.91724 3.70306
# Velocity P-wave (km/s) = 6.29777 6.90722 6.60952
#
# Compressibility (1/GPa) = 0.02092368
#
# Stress axis : x y z
#
# Youngs Moduli (GPa) = 43.41398 54.90774 85.67347
#
# Poissons Ratio (x) = 0.37633 0.53768
# Poissons Ratio (y) = 0.29756 0.24568
# Poissons Ratio (z) = 0.27246 0.15746
#
# Static dielectric constant tensor:
#      x y z
#    x 1.795160 0.000000 -0.030070 
#    y 0.000000 1.695600 0.000000 
#    z -0.030070 0.000000 1.778000 
# 
# From -- ./inp_files/213591.got.cif
#   From: 2010.05.17/outbox.cif.g08.bks.cpg/sg15_107_cif.got.tgz:213591.got - 2010.06.03 18:47:42.
