data_PCOD9282106
_publ_section_title
;
Structure prediction by ZEFSAII (Michael W. Deem and Ramdas Pophale) SiO2 
 PCOD9282106
Probable space group: C 2/C
;
_chemical_formula_sum "Si O2"
_cell_formula_units_Z 56
_cell_length_a 16.830158
_cell_length_b 26.413826
_cell_length_c 8.099813
_cell_angle_alpha 90.000000
_cell_angle_beta 139.589328
_cell_angle_gamma 90.000000
_cell_volume 2334.236660
_symmetry_space_group_name_H-M "C 2/C"
_symmetry_group_IT_number 15
_symmetry_cell_setting 'monoclinic'
loop_
_space_group_symop_operation_xyz
x,y,z
-x,y,1/2-z
-x,-y,-z
x,-y,1/2+z
1/2+x,1/2+y,z
1/2-x,1/2+y,1/2-z
1/2-x,1/2-y,-z
1/2+x,1/2-y,1/2+z
loop_
_atom_site_type_symbol
_atom_site_label
_atom_site_fract_x
_atom_site_fract_y
_atom_site_fract_z
Si Si1 0.958051 0.347724 0.348923
Si Si2 0.463597 0.554684 0.382093
Si Si3 0.648428 0.310302 0.484001
Si Si4 0.661470 0.367136 0.188849
Si Si5 0.774445 0.589762 0.337986
Si Si6 0.255661 0.217233 0.673358
Si Si7 0.613747 0.920163 0.817126
O O1 0.879243 0.314488 0.345541
O O2 0.000000 0.317297 0.250000
O O3 0.057364 0.372649 0.625757
O O4 0.880140 0.391478 0.130416
O O5 0.500000 0.557892 0.250000
O O6 0.500000 0.500000 0.500000
O O7 0.547539 0.600987 0.577501
O O8 0.323578 0.560276 0.208470
O O9 0.500000 0.304466 0.250000
O O10 0.685769 0.323551 0.358582
O O11 0.700827 0.359584 0.664306
O O12 0.719853 0.261210 0.657084
O O13 0.657104 0.329772 0.024175
O O14 0.777927 0.404587 0.385902
O O15 0.819228 0.558030 0.245043
O O16 0.250000 0.250000 0.500000
O O17 0.500000 0.941143 0.750000
#
# Coordination Sequence:
#
# PCOD9282106 Si02
#       7
#     8   8   8   8   8   8   8
#     4  10  21  40  60  94 133 189 240 289 358 431
#     4  12  29  49  82 110 144 191 248 314 394 449
#     4  11  23  38  66  94 148 191 243 300 369 435
#     4  11  25  45  68 101 146 183 250 306 374 433
#     4  10  22  46  68 102 146 191 239 314 366 443
#     4  12  24  38  61  96 143 197 250 293 366 439
#     4  10  21  38  75  96 133 185 241 290 365 427
#
# _framework density 23.990711999999998
#
# number of rings (size 3 to 8) (size 9 to 14) (size 15 to 20)
#    0.000    1.143    4.286    1.286    6.000    1.143 
#    0.000    0.000    0.000    4.286    0.000    0.000 
#    0.000    0.000    0.000    0.000    0.000    0.000 
#
# Total GULP energy -155930.324407 kJ/mol
# GULP energy per Si atom -5568.940157 kJ/mol
# Density = 2.393611 g / cm^3
# Si number density = 23.990712 Si / 1000 Ang^3
#
#
#
# Elastic Constant Matrix: (Units=GPa)
#
#
# Indices 1 2 3 4 5 6 
#
# 1 115.0294 14.9136 -1.1280 0.0000 14.9450 0.0000
# 2 14.9136 51.3876 7.0310 0.0000 1.3121 0.0000
# 3 -1.1280 7.0310 58.2301 0.0000 13.5703 0.0000
# 4 0.0000 0.0000 0.0000 10.2451 0.0000 18.4597
# 5 14.9450 1.3121 13.5703 0.0000 39.5830 0.0000
# 6 0.0000 0.0000 0.0000 18.4597 0.0000 -145.8509
#
#
#
# Elastic Compliance Matrix: (Units=1/GPa)
#
#
# Indices 1 2 3 4 5 6 
#
# 1 0.009607 -0.002887 0.001476 0.000000 -0.004037 0.000000
# 2 -0.002887 0.020655 -0.002874 0.000000 0.001391 0.000000
# 3 0.001476 -0.002874 0.019190 0.000000 -0.007041 0.000000
# 4 0.000000 0.000000 0.000000 0.079482 0.000000 0.010060
# 5 -0.004037 0.001391 -0.007041 0.000000 0.029155 0.000000
# 6 0.000000 0.000000 0.000000 0.010060 0.000000 -0.005583
#
#
# Mechanical properties :
#
#
# Convention : Reuss Voigt Hill
#
# Bulk Modulus (GPa) = 24.46114 29.58671 27.02393
# Shear Modulus (GPa) = 28.61986 -5.61584 11.50201
#
# Velocity S-wave (km/s) = 3.45767 -1.53164 2.19198
# Velocity P-wave (km/s) = 5.11457 3.03833 4.20656
#
# Compressibility (1/GPa) = 0.04088117
#
# Stress axis : x y z
#
# Youngs Moduli (GPa) = 104.09379 48.41326 52.11138
#
# Poissons Ratio (x) = 0.13976 -0.07689
# Poissons Ratio (y) = 0.30050 0.14977
# Poissons Ratio (z) = -0.15360 0.13914
#
# Static dielectric constant tensor:
#      x y z
#    x 3.473640 0.000000 0.361560 
#    y 0.000000 1.880500 0.000000 
#    z 0.361560 0.000000 2.010860 
# 
# From -- ./inp_files/52361.got.cif
#   From: 2010.05.17/outbox.cif.g08.bks.cpg/sg15_27_cif.got.tgz:52361.got - 2010.06.03 18:47:42.
