data_PCOD9282717
_publ_section_title
;
Structure prediction by ZEFSAII (Michael W. Deem and Ramdas Pophale) SiO2 
 PCOD9282717
Probable space group: C 2/C
;
_chemical_formula_sum "Si O2"
_cell_formula_units_Z 32
_cell_length_a 7.216551
_cell_length_b 11.733273
_cell_length_c 17.829436
_cell_angle_alpha 90.000000
_cell_angle_beta 128.831728
_cell_angle_gamma 90.000000
_cell_volume 1176.031156
_symmetry_space_group_name_H-M "C 2/C"
_symmetry_group_IT_number 15
_symmetry_cell_setting 'monoclinic'
loop_
_space_group_symop_operation_xyz
x,y,z
-x,y,1/2-z
-x,-y,-z
x,-y,1/2+z
1/2+x,1/2+y,z
1/2-x,1/2+y,1/2-z
1/2-x,1/2-y,-z
1/2+x,1/2-y,1/2+z
loop_
_atom_site_type_symbol
_atom_site_label
_atom_site_fract_x
_atom_site_fract_y
_atom_site_fract_z
Si Si1 0.076564 0.670649 0.889786
Si Si2 0.107612 0.130599 0.967710
Si Si3 0.477768 0.056994 0.326865
Si Si4 0.805236 0.907354 0.597638
O O1 0.339760 0.660634 0.921013
O O2 0.917677 0.578002 0.808550
O O3 0.011311 0.802773 0.866760
O O4 0.108387 0.627435 0.983939
O O5 0.114800 0.035271 0.903325
O O6 0.250000 0.250000 0.000000
O O7 0.258243 0.068162 0.071023
O O8 0.500000 0.105791 0.250000
O O9 0.300550 0.100288 0.346035
#
# Coordination Sequence:
#
# PCOD9282717 Si02
#       4
#     8   8   8   8
#     4  10  21  40  65  90 115 168 218 245 308 381
#     4  11  21  40  68  91 120 168 214 251 300 386
#     4  11  23  42  59  93 133 159 204 273 315 355
#     4  10  21  39  64  89 120 164 211 251 304 375
#
# _framework density 27.210165
#
# number of rings (size 3 to 8) (size 9 to 14) (size 15 to 20)
#    0.000    1.500    2.500    6.000    3.500    0.000 
#    4.500    5.000    0.000    0.000    0.000    0.000 
#    0.000    0.000    0.000    0.000    0.000    0.000 
#
# Total GULP energy -89474.936080 kJ/mol
# GULP energy per Si atom -5592.183505 kJ/mol
# Density = 2.714823 g / cm^3
# Si number density = 27.210165 Si / 1000 Ang^3
#
#
#
# Elastic Constant Matrix: (Units=GPa)
#
#
# Indices 1 2 3 4 5 6 
#
# 1 129.2664 62.9251 50.2242 0.0000 -29.3720 0.0000
# 2 62.9251 204.7338 16.0254 0.0000 -21.4503 0.0000
# 3 50.2242 16.0254 119.7895 0.0000 -36.9705 0.0000
# 4 0.0000 0.0000 0.0000 2.0107 0.0000 -7.9738
# 5 -29.3720 -21.4503 -36.9705 0.0000 52.7597 0.0000
# 6 0.0000 0.0000 0.0000 -7.9738 0.0000 42.4975
#
#
#
# Elastic Compliance Matrix: (Units=1/GPa)
#
#
# Indices 1 2 3 4 5 6 
#
# 1 0.011055 -0.002858 -0.003460 0.000000 0.002568 0.000000
# 2 -0.002858 0.005841 0.000840 0.000000 0.001373 0.000000
# 3 -0.003460 0.000840 0.011735 0.000000 0.006639 0.000000
# 4 0.000000 0.000000 0.000000 1.943428 0.000000 0.364645
# 5 0.002568 0.001373 0.006639 0.000000 0.025593 0.000000
# 6 0.000000 0.000000 0.000000 0.364645 0.000000 0.091949
#
#
# Mechanical properties :
#
#
# Convention : Reuss Voigt Hill
#
# Bulk Modulus (GPa) = 56.57476 79.12656 67.85066
# Shear Modulus (GPa) = 2.37366 41.09457 21.73412
#
# Velocity S-wave (km/s) = 0.93501 3.89043 2.82928
# Velocity P-wave (km/s) = 4.69069 7.02307 5.97185
#
# Compressibility (1/GPa) = 0.01767573
#
# Stress axis : x y z
#
# Youngs Moduli (GPa) = 90.45674 171.20983 85.21406
#
# Poissons Ratio (x) = 0.48930 0.29486
# Poissons Ratio (y) = 0.25851 -0.07162
# Poissons Ratio (z) = 0.31300 -0.14390
#
# Static dielectric constant tensor:
#      x y z
#    x -8.933810 0.000000 -2.008950 
#    y 0.000000 2.353650 0.000000 
#    z -2.008950 0.000000 1.804240 
# 
# From -- ./inp_files/187698.got.cif
#   From: 2010.05.17/outbox.cif.g08.bks.cpg/sg15_94_cif.got.tgz:187698.got - 2010.06.03 18:47:42.
