data_PCOD9282264
_publ_section_title
;
Structure prediction by ZEFSAII (Michael W. Deem and Ramdas Pophale) SiO2 
 PCOD9282264
Probable space group: C 2/C
;
_chemical_formula_sum "Si O2"
_cell_formula_units_Z 56
_cell_length_a 14.902543
_cell_length_b 25.020943
_cell_length_c 8.624878
_cell_angle_alpha 90.000000
_cell_angle_beta 117.714979
_cell_angle_gamma 90.000000
_cell_volume 2847.041388
_symmetry_space_group_name_H-M "C 2/C"
_symmetry_group_IT_number 15
_symmetry_cell_setting 'monoclinic'
loop_
_space_group_symop_operation_xyz
x,y,z
-x,y,1/2-z
-x,-y,-z
x,-y,1/2+z
1/2+x,1/2+y,z
1/2-x,1/2+y,1/2-z
1/2-x,1/2-y,-z
1/2+x,1/2-y,1/2+z
loop_
_atom_site_type_symbol
_atom_site_label
_atom_site_fract_x
_atom_site_fract_y
_atom_site_fract_z
Si Si1 0.581809 0.327699 0.042504
Si Si2 0.640732 0.337417 0.727668
Si Si3 0.827493 0.937635 0.317667
Si Si4 0.382490 0.452191 0.703942
Si Si5 0.811521 0.269331 0.699843
Si Si6 0.000000 0.481623 0.250000
Si Si7 0.500000 0.841266 0.750000
Si Si8 0.101126 0.430477 0.035792
O O1 0.602378 0.385419 0.135028
O O2 0.644349 0.282184 0.177694
O O3 0.620446 0.330322 0.895249
O O4 0.461495 0.318201 0.940131
O O5 0.649994 0.401764 0.716936
O O6 0.735746 0.304365 0.744425
O O7 0.818595 0.950114 0.493996
O O8 0.720047 0.923452 0.156336
O O9 0.871363 0.990908 0.275669
O O10 0.500000 0.443505 0.750000
O O11 0.750000 0.250000 0.500000
O O12 0.907330 0.305423 0.732229
O O13 0.052824 0.446867 0.160789
O O14 0.079120 0.520660 0.400282
O O15 0.455393 0.879560 0.580354
#
# Coordination Sequence:
#
# PCOD9282264 Si02
#       8
#     8   8   8   8   8   4   4   8
#     4  10  22  43  63  94 124 161 219 263 312 400
#     4  10  22  43  68  89 128 169 209 270 326 377
#     4  11  22  37  63  92 129 166 206 259 320 386
#     4  11  22  40  61  96 135 164 211 260 321 390
#     4  12  25  43  66  93 124 170 213 269 337 378
#     4   9  20  38  62  86 124 166 212 263 308 376
#     4  11  26  44  58  92 130 160 220 271 308 396
#     4  10  21  39  60  89 125 165 212 260 317 374
#
# _framework density 19.669542
#
# number of rings (size 3 to 8) (size 9 to 14) (size 15 to 20)
#    0.000    1.429    2.857    3.429    0.000    8.000 
#    1.286    4.286    0.000    0.000    0.000    0.000 
#    0.000    0.000    0.000    0.000    0.000    0.000 
#
# Total GULP energy -156534.679536 kJ/mol
# GULP energy per Si atom -5590.524269 kJ/mol
# Density = 1.962477 g / cm^3
# Si number density = 19.669542 Si / 1000 Ang^3
#
#
#
# Elastic Constant Matrix: (Units=GPa)
#
#
# Indices 1 2 3 4 5 6 
#
# 1 76.6803 60.6165 39.7095 0.0000 12.7314 0.0000
# 2 60.6165 160.2465 56.6547 0.0000 2.6266 0.0000
# 3 39.7095 56.6547 113.0207 0.0000 18.9551 0.0000
# 4 0.0000 0.0000 0.0000 17.9914 0.0000 4.9009
# 5 12.7314 2.6266 18.9551 0.0000 22.3404 0.0000
# 6 0.0000 0.0000 0.0000 4.9009 0.0000 18.5447
#
#
#
# Elastic Compliance Matrix: (Units=1/GPa)
#
#
# Indices 1 2 3 4 5 6 
#
# 1 0.021465 -0.007116 -0.002406 0.000000 -0.009355 0.000000
# 2 -0.007116 0.010088 -0.003542 0.000000 0.005874 0.000000
# 3 -0.002406 -0.003542 0.013022 0.000000 -0.009261 0.000000
# 4 0.000000 0.000000 0.000000 0.059894 0.000000 -0.015828
# 5 -0.009355 0.005874 -0.009261 0.000000 0.057260 0.000000
# 6 0.000000 0.000000 0.000000 -0.015828 0.000000 0.058107
#
#
# Mechanical properties :
#
#
# Convention : Reuss Voigt Hill
#
# Bulk Modulus (GPa) = 54.20633 73.76766 63.98699
# Shear Modulus (GPa) = 19.83239 24.63976 22.23608
#
# Velocity S-wave (km/s) = 3.17879 3.54317 3.36591
# Velocity P-wave (km/s) = 6.41025 7.37046 6.90706
#
# Compressibility (1/GPa) = 0.01844803
#
# Stress axis : x y z
#
# Youngs Moduli (GPa) = 46.58675 99.12715 76.79312
#
# Poissons Ratio (x) = 0.70537 0.18476
# Poissons Ratio (y) = 0.33150 0.27200
# Poissons Ratio (z) = 0.11208 0.35111
#
# Static dielectric constant tensor:
#      x y z
#    x 1.667010 0.000000 0.000090 
#    y 0.000000 1.681120 0.000000 
#    z 0.000090 0.000000 1.695330 
# 
# From -- ./inp_files/42790.got.cif
#   From: 2010.05.17/outbox.cif.g08.bks.cpg/sg15_22_cif.got.tgz:42790.got - 2010.06.03 18:47:42.
