data_PCOD9282863
_publ_section_title
;
Structure prediction by ZEFSAII (Michael W. Deem and Ramdas Pophale) SiO2 
 PCOD9282863
Probable space group: C 2/C
;
_chemical_formula_sum "Si O2"
_cell_formula_units_Z 64
_cell_length_a 11.821164
_cell_length_b 31.441675
_cell_length_c 8.921899
_cell_angle_alpha 90.000000
_cell_angle_beta 80.021867
_cell_angle_gamma 90.000000
_cell_volume 3265.907437
_symmetry_space_group_name_H-M "C 2/C"
_symmetry_group_IT_number 15
_symmetry_cell_setting 'monoclinic'
loop_
_space_group_symop_operation_xyz
x,y,z
-x,y,1/2-z
-x,-y,-z
x,-y,1/2+z
1/2+x,1/2+y,z
1/2-x,1/2+y,1/2-z
1/2-x,1/2-y,-z
1/2+x,1/2-y,1/2+z
loop_
_atom_site_type_symbol
_atom_site_label
_atom_site_fract_x
_atom_site_fract_y
_atom_site_fract_z
Si Si1 0.199253 0.814323 0.972441
Si Si2 0.131493 0.040098 0.199848
Si Si3 0.852776 0.049829 0.963843
Si Si4 0.081142 0.270279 0.603815
Si Si5 0.821241 0.616779 0.638653
Si Si6 0.745572 0.614472 0.990089
Si Si7 0.966561 0.352924 0.582877
Si Si8 0.501589 0.629263 0.926749
O O1 0.312652 0.799033 0.858208
O O2 0.134380 0.769985 0.011523
O O3 0.258284 0.839011 0.100540
O O4 0.099109 0.847463 0.955757
O O5 0.178155 0.039596 0.357976
O O6 0.000000 0.055577 0.250000
O O7 0.128538 0.993402 0.129580
O O8 0.205441 0.071060 0.078455
O O9 0.754278 0.079166 0.915376
O O10 0.966618 0.079510 0.933035
O O11 0.000000 0.252598 0.750000
O O12 0.002210 0.304277 0.535849
O O13 0.812649 0.610695 0.817424
O O14 0.947320 0.618910 0.538203
O O15 0.625192 0.636517 0.971195
O O16 0.834826 0.637418 0.079118
O O17 0.000000 0.359651 0.750000
O O18 0.500000 0.642501 0.750000
#
# Coordination Sequence:
#
# PCOD9282863 Si02
#       8
#     8   8   8   8   8   8   8   8
#     4   9  18  33  61  89 118 161 201 254 308 375
#     4  12  24  36  58  90 131 165 207 252 309 374
#     4  11  22  38  59  92 128 165 201 257 314 369
#     4   9  18  34  58  87 118 163 204 248 314 364
#     4  10  21  39  65  92 121 160 213 256 311 379
#     4  12  23  38  61  94 119 167 209 260 307 372
#     4  10  22  42  63  86 123 165 212 256 309 377
#     4  11  20  36  60  93 123 157 206 257 317 371
#
# _framework density 19.596392000000002
#
# number of rings (size 3 to 8) (size 9 to 14) (size 15 to 20)
#    0.000    1.500    3.750    3.000    0.000    1.000 
#    0.000    1.250    0.000    0.000   13.000    0.000 
#    0.000    0.000    0.000    0.000    0.000    0.000 
#
# Total GULP energy -178311.797554 kJ/mol
# GULP energy per Si atom -5572.243674 kJ/mol
# Density = 1.955179 g / cm^3
# Si number density = 19.596392 Si / 1000 Ang^3
#
#
#
# Elastic Constant Matrix: (Units=GPa)
#
#
# Indices 1 2 3 4 5 6 
#
# 1 122.8607 51.4904 13.8898 0.0000 11.6722 0.0000
# 2 51.4904 90.8187 34.7331 0.0000 1.3924 0.0000
# 3 13.8898 34.7331 78.1108 0.0000 9.7166 0.0000
# 4 0.0000 0.0000 0.0000 15.0766 0.0000 -15.9661
# 5 11.6722 1.3924 9.7166 0.0000 34.2291 0.0000
# 6 0.0000 0.0000 0.0000 -15.9661 0.0000 24.2365
#
#
#
# Elastic Compliance Matrix: (Units=1/GPa)
#
#
# Indices 1 2 3 4 5 6 
#
# 1 0.011238 -0.006911 0.001572 0.000000 -0.003997 0.000000
# 2 -0.006911 0.017564 -0.007034 0.000000 0.003639 0.000000
# 3 0.001572 -0.007034 0.016255 0.000000 -0.004864 0.000000
# 4 0.000000 0.000000 0.000000 0.219358 0.000000 0.144504
# 5 -0.003997 0.003639 -0.004864 0.000000 0.031811 0.000000
# 6 0.000000 0.000000 0.000000 0.144504 0.000000 0.136454
#
#
# Mechanical properties :
#
#
# Convention : Reuss Voigt Hill
#
# Bulk Modulus (GPa) = 49.23369 54.66853 51.95111
# Shear Modulus (GPa) = 10.77133 27.48690 19.12911
#
# Velocity S-wave (km/s) = 2.34702 3.74926 3.12774
# Velocity P-wave (km/s) = 5.70290 6.83377 6.29379
#
# Compressibility (1/GPa) = 0.02031129
#
# Stress axis : x y z
#
# Youngs Moduli (GPa) = 88.98517 56.93613 61.51779
#
# Poissons Ratio (x) = 0.39351 -0.09671
# Poissons Ratio (y) = 0.61501 0.43269
# Poissons Ratio (z) = -0.13990 0.40046
#
# Static dielectric constant tensor:
#      x y z
#    x 1.717690 0.000000 -0.012000 
#    y 0.000000 1.688330 0.000000 
#    z -0.012000 0.000000 1.731580 
# 
# From -- ./inp_files/35701.got.cif
#   From: 2010.05.17/outbox.cif.g08.bks.cpg/sg15_18_cif.got.tgz:35701.got - 2010.06.03 18:47:42.
