data_PCOD9282515
_publ_section_title
;
Structure prediction by ZEFSAII (Michael W. Deem and Ramdas Pophale) SiO2 
 PCOD9282515
Probable space group: C 2/C
;
_chemical_formula_sum "Si O2"
_cell_formula_units_Z 56
_cell_length_a 14.081074
_cell_length_b 12.024882
_cell_length_c 18.496653
_cell_angle_alpha 90.000000
_cell_angle_beta 54.421446
_cell_angle_gamma 90.000000
_cell_volume 2547.243454
_symmetry_space_group_name_H-M "C 2/C"
_symmetry_group_IT_number 15
_symmetry_cell_setting 'monoclinic'
loop_
_space_group_symop_operation_xyz
x,y,z
-x,y,1/2-z
-x,-y,-z
x,-y,1/2+z
1/2+x,1/2+y,z
1/2-x,1/2+y,1/2-z
1/2-x,1/2-y,-z
1/2+x,1/2-y,1/2+z
loop_
_atom_site_type_symbol
_atom_site_label
_atom_site_fract_x
_atom_site_fract_y
_atom_site_fract_z
Si Si1 0.257004 0.280423 0.330285
Si Si2 0.405151 0.132776 0.352317
Si Si3 0.539737 0.312158 0.372290
Si Si4 0.900353 0.211232 0.343449
Si Si5 0.864998 0.023325 0.877744
Si Si6 0.515900 0.751044 0.042928
Si Si7 0.331811 0.085347 0.945569
O O1 0.287101 0.171730 0.365613
O O2 0.336273 0.284009 0.221860
O O3 0.305178 0.382066 0.356451
O O4 0.118459 0.285733 0.386372
O O5 0.500000 0.159946 0.250000
O O6 0.445712 0.212480 0.399001
O O7 0.409667 0.005223 0.371183
O O8 0.481237 0.419366 0.359060
O O9 0.543189 0.313320 0.457271
O O10 0.870387 0.089970 0.327801
O O11 0.809116 0.308099 0.403793
O O12 0.000000 0.262643 0.250000
O O13 0.953680 0.182394 0.398417
O O14 0.777135 0.985261 0.979669
O O15 0.598309 0.859822 0.018257
#
# Coordination Sequence:
#
# PCOD9282515 Si02
#       7
#     8   8   8   8   8   8   8
#     4  10  21  40  65  94 122 164 207 266 310 361
#     4   9  18  36  62  87 119 161 205 250 304 373
#     4  10  21  39  62  95 126 161 211 257 316 364
#     4  10  23  42  61  84 123 167 210 247 314 378
#     4  11  21  40  66  87 122 167 212 251 310 378
#     4  10  24  39  60  96 127 159 205 266 309 369
#     4  10  22  37  62  90 119 164 207 254 308 373
#
# _framework density 21.984551
#
# number of rings (size 3 to 8) (size 9 to 14) (size 15 to 20)
#    0.857    1.143    0.000    4.714    0.000    6.286 
#    0.000    4.286    0.000    0.000    0.000    0.000 
#    0.000    0.000    0.000    0.000    0.000    0.000 
#
# Total GULP energy -155981.434253 kJ/mol
# GULP energy per Si atom -5570.765509 kJ/mol
# Density = 2.193451 g / cm^3
# Si number density = 21.984551 Si / 1000 Ang^3
#
#
#
# Elastic Constant Matrix: (Units=GPa)
#
#
# Indices 1 2 3 4 5 6 
#
# 1 50.4020 5.7164 19.5011 0.0000 -6.6178 0.0000
# 2 5.7164 87.4108 -7.2064 0.0000 -0.5571 0.0000
# 3 19.5011 -7.2064 67.8147 0.0000 -6.9851 0.0000
# 4 0.0000 0.0000 0.0000 39.7399 0.0000 -4.5195
# 5 -6.6178 -0.5571 -6.9851 0.0000 20.2212 0.0000
# 6 0.0000 0.0000 0.0000 -4.5195 0.0000 15.4015
#
#
#
# Elastic Compliance Matrix: (Units=1/GPa)
#
#
# Indices 1 2 3 4 5 6 
#
# 1 0.023224 -0.002007 -0.006340 0.000000 0.005355 0.000000
# 2 -0.002007 0.011726 0.001855 0.000000 0.000307 0.000000
# 3 -0.006340 0.001855 0.017169 0.000000 0.003907 0.000000
# 4 0.000000 0.000000 0.000000 0.026032 0.000000 0.007639
# 5 0.005355 0.000307 0.003907 0.000000 0.052564 0.000000
# 6 0.000000 0.000000 0.000000 0.007639 0.000000 0.067171
#
#
# Mechanical properties :
#
#
# Convention : Reuss Voigt Hill
#
# Bulk Modulus (GPa) = 25.55300 26.84999 26.20150
# Shear Modulus (GPa) = 22.32977 27.58027 24.95502
#
# Velocity S-wave (km/s) = 3.19047 3.54578 3.37280
# Velocity P-wave (km/s) = 5.02200 5.38544 5.20689
#
# Compressibility (1/GPa) = 0.03913435
#
# Stress axis : x y z
#
# Youngs Moduli (GPa) = 43.05814 85.27767 58.24504
#
# Poissons Ratio (x) = 0.17119 0.36929
# Poissons Ratio (y) = 0.08643 -0.10804
# Poissons Ratio (z) = 0.27300 -0.15819
#
# Static dielectric constant tensor:
#      x y z
#    x 1.863950 0.000000 -0.034920 
#    y 0.000000 1.809060 0.000000 
#    z -0.034920 0.000000 1.878980 
# 
# From -- ./inp_files/204355.got.cif
#   From: 2010.05.17/outbox.cif.g08.bks.cpg/sg15_103_cif.got.tgz:204355.got - 2010.06.03 18:47:42.
