data_PCOD9282023
_publ_section_title
;
Structure prediction by ZEFSAII (Michael W. Deem and Ramdas Pophale) SiO2 
 PCOD9282023
Probable space group: C 2/C
;
_chemical_formula_sum "Si O2"
_cell_formula_units_Z 44
_cell_length_a 20.553791
_cell_length_b 9.652470
_cell_length_c 9.545737
_cell_angle_alpha 90.000000
_cell_angle_beta 69.327189
_cell_angle_gamma 90.000000
_cell_volume 1771.884822
_symmetry_space_group_name_H-M "C 2/C"
_symmetry_group_IT_number 15
_symmetry_cell_setting 'monoclinic'
loop_
_space_group_symop_operation_xyz
x,y,z
-x,y,1/2-z
-x,-y,-z
x,-y,1/2+z
1/2+x,1/2+y,z
1/2-x,1/2+y,1/2-z
1/2-x,1/2-y,-z
1/2+x,1/2-y,1/2+z
loop_
_atom_site_type_symbol
_atom_site_label
_atom_site_fract_x
_atom_site_fract_y
_atom_site_fract_z
Si Si1 0.905746 0.377440 0.843351
Si Si2 0.068573 0.642146 0.507921
Si Si3 0.881735 0.083338 0.836075
Si Si4 0.256932 0.961618 0.887571
Si Si5 0.296542 0.730965 0.651803
Si Si6 0.000000 0.144038 0.250000
O O1 0.939934 0.496670 0.907873
O O2 0.923149 0.386634 0.664296
O O3 0.920479 0.218621 0.869983
O O4 0.822575 0.403579 0.923632
O O5 0.143603 0.708349 0.492537
O O6 0.014148 0.754337 0.607130
O O7 0.843853 0.141128 0.725263
O O8 0.816946 0.049378 0.983054
O O9 0.934411 0.957733 0.776345
O O10 0.260261 0.863023 0.749867
O O11 0.261259 0.123579 0.852195
#
# Coordination Sequence:
#
# PCOD9282023 Si02
#       6
#     8   8   8   8   8   4
#     4  10  24  43  70  99 141 169 230 278 351 387
#     4  10  24  45  66 103 132 184 221 278 329 413
#     4  10  23  41  65  97 136 184 216 285 332 405
#     4  10  21  38  67  98 135 173 218 284 341 405
#     4  10  22  39  65 101 134 169 227 275 347 392
#     4  12  24  46  68  94 140 176 240 266 332 406
#
# _framework density 24.832312000000002
#
# number of rings (size 3 to 8) (size 9 to 14) (size 15 to 20)
#    0.000    2.182    1.818    2.182   10.182    6.545 
#    0.000    0.000    0.000    0.000    0.000    0.000 
#    0.000    0.000    0.000    0.000    0.000    0.000 
#
# Total GULP energy -123015.983935 kJ/mol
# GULP energy per Si atom -5591.635633 kJ/mol
# Density = 2.477579 g / cm^3
# Si number density = 24.832312 Si / 1000 Ang^3
#
#
#
# Elastic Constant Matrix: (Units=GPa)
#
#
# Indices 1 2 3 4 5 6 
#
# 1 64.4937 27.1029 41.5230 0.0000 -24.8488 0.0000
# 2 27.1029 127.2827 51.7789 0.0000 -13.0428 0.0000
# 3 41.5230 51.7789 127.8729 0.0000 -27.7845 0.0000
# 4 0.0000 0.0000 0.0000 42.6885 0.0000 -14.7024
# 5 -24.8488 -13.0428 -27.7845 0.0000 27.0390 0.0000
# 6 0.0000 0.0000 0.0000 -14.7024 0.0000 38.2710
#
#
#
# Elastic Compliance Matrix: (Units=1/GPa)
#
#
# Indices 1 2 3 4 5 6 
#
# 1 0.026088 -0.002197 -0.003351 0.000000 0.019472 0.000000
# 2 -0.002197 0.009604 -0.003357 0.000000 -0.000836 0.000000
# 3 -0.003351 -0.003357 0.011905 0.000000 0.007534 0.000000
# 4 0.000000 0.000000 0.000000 0.026998 0.000000 0.010372
# 5 0.019472 -0.000836 0.007534 0.000000 0.062217 0.000000
# 6 0.000000 0.000000 0.000000 0.010372 0.000000 0.030114
#
#
# Mechanical properties :
#
#
# Convention : Reuss Voigt Hill
#
# Bulk Modulus (GPa) = 33.57082 62.27324 47.92203
# Shear Modulus (GPa) = 25.68507 34.88268 30.28388
#
# Velocity S-wave (km/s) = 3.21961 3.75204 3.49597
# Velocity P-wave (km/s) = 5.23159 6.62588 5.96958
#
# Compressibility (1/GPa) = 0.02978777
#
# Stress axis : x y z
#
# Youngs Moduli (GPa) = 38.33112 104.11892 83.99890
#
# Poissons Ratio (x) = 0.22871 0.28148
# Poissons Ratio (y) = 0.08420 0.28202
# Poissons Ratio (z) = 0.12845 0.34957
#
# Static dielectric constant tensor:
#      x y z
#    x 2.070970 0.000000 0.052070 
#    y 0.000000 1.987420 0.000000 
#    z 0.052070 0.000000 1.991550 
# 
# From -- ./inp_files/121767.got.cif
#   From: 2010.05.17/outbox.cif.g08.bks.cpg/sg15_61_cif.got.tgz:121767.got - 2010.06.03 18:47:42.
