data_PCOD9282549
_publ_section_title
;
Structure prediction by ZEFSAII (Michael W. Deem and Ramdas Pophale) SiO2 
 PCOD9282549
Probable space group: C 2/C
;
_chemical_formula_sum "Si O2"
_cell_formula_units_Z 56
_cell_length_a 16.590400
_cell_length_b 9.541139
_cell_length_c 24.142571
_cell_angle_alpha 90.000000
_cell_angle_beta 43.806832
_cell_angle_gamma 90.000000
_cell_volume 2645.395026
_symmetry_space_group_name_H-M "C 2/C"
_symmetry_group_IT_number 15
_symmetry_cell_setting 'monoclinic'
loop_
_space_group_symop_operation_xyz
x,y,z
-x,y,1/2-z
-x,-y,-z
x,-y,1/2+z
1/2+x,1/2+y,z
1/2-x,1/2+y,1/2-z
1/2-x,1/2-y,-z
1/2+x,1/2-y,1/2+z
loop_
_atom_site_type_symbol
_atom_site_label
_atom_site_fract_x
_atom_site_fract_y
_atom_site_fract_z
Si Si1 0.715957 0.293263 0.941714
Si Si2 0.277831 0.967542 0.203553
Si Si3 0.744642 0.050138 0.500526
Si Si4 0.108394 0.245127 0.004243
Si Si5 0.367757 0.461291 0.334565
Si Si6 0.520967 0.877275 0.944160
Si Si7 0.647923 0.351250 0.853585
O O1 0.823959 0.192808 0.874038
O O2 0.683560 0.369048 0.899995
O O3 0.748499 0.399709 0.973894
O O4 0.600181 0.198450 0.010446
O O5 0.397511 0.056662 0.142933
O O6 0.197462 0.024724 0.292021
O O7 0.213909 0.999490 0.176874
O O8 0.302703 0.801239 0.190596
O O9 0.783535 0.153853 0.529762
O O10 0.628819 0.110249 0.528719
O O11 0.836634 0.051551 0.404061
O O12 0.990691 0.167268 0.080534
O O13 0.094959 0.269691 0.945703
O O14 0.500000 0.467223 0.250000
O O15 0.500000 0.000000 0.000000
#
# Coordination Sequence:
#
# PCOD9282549 Si02
#       7
#     8   8   8   8   8   8   8
#     4  10  23  39  63  94 121 164 218 261 317 379
#     4  11  22  40  66  90 126 166 212 259 326 376
#     4  11  22  39  63  94 125 166 212 254 323 388
#     4  10  21  39  63  87 125 164 206 262 309 386
#     4  11  22  39  61  89 129 163 202 260 321 380
#     4  11  18  40  68  84 116 167 212 256 308 379
#     4  10  23  41  62  94 128 163 216 266 318 378
#
# _framework density 21.168861
#
# number of rings (size 3 to 8) (size 9 to 14) (size 15 to 20)
#    0.000    1.429    5.714    1.286    0.000    6.857 
#    5.143    0.000    0.000    0.000    0.000    0.000 
#    0.000    0.000    0.000    0.000    0.000    0.000 
#
# Total GULP energy -156340.793399 kJ/mol
# GULP energy per Si atom -5583.599764 kJ/mol
# Density = 2.112068 g / cm^3
# Si number density = 21.168861 Si / 1000 Ang^3
#
#
#
# Elastic Constant Matrix: (Units=GPa)
#
#
# Indices 1 2 3 4 5 6 
#
# 1 74.4034 16.4378 12.9505 0.0000 9.4663 0.0000
# 2 16.4378 32.0677 -5.3353 0.0000 5.4137 0.0000
# 3 12.9505 -5.3353 66.2927 0.0000 -6.4213 0.0000
# 4 0.0000 0.0000 0.0000 32.2723 0.0000 5.1801
# 5 9.4663 5.4137 -6.4213 0.0000 28.9413 0.0000
# 6 0.0000 0.0000 0.0000 5.1801 0.0000 34.5763
#
#
#
# Elastic Compliance Matrix: (Units=1/GPa)
#
#
# Indices 1 2 3 4 5 6 
#
# 1 0.016699 -0.008474 -0.004415 0.000000 -0.004856 0.000000
# 2 -0.008474 0.036777 0.004310 0.000000 -0.003151 0.000000
# 3 -0.004415 0.004310 0.016715 0.000000 0.004346 0.000000
# 4 0.000000 0.000000 0.000000 0.031750 0.000000 -0.004757
# 5 -0.004856 -0.003151 0.004346 0.000000 0.037695 0.000000
# 6 0.000000 0.000000 0.000000 -0.004757 0.000000 0.029634
#
#
# Mechanical properties :
#
#
# Convention : Reuss Voigt Hill
#
# Bulk Modulus (GPa) = 18.85616 24.54107 21.69862
# Shear Modulus (GPa) = 24.49720 29.07202 26.78461
#
# Velocity S-wave (km/s) = 3.40550 3.70988 3.56094
# Velocity P-wave (km/s) = 4.93863 5.47441 5.21340
#
# Compressibility (1/GPa) = 0.05303305
#
# Stress axis : x y z
#
# Youngs Moduli (GPa) = 59.88484 27.19084 59.82689
#
# Poissons Ratio (x) = 0.23043 0.26411
# Poissons Ratio (y) = 0.50749 -0.25786
# Poissons Ratio (z) = 0.26436 -0.11720
#
# Static dielectric constant tensor:
#      x y z
#    x 1.781620 0.000000 -0.000600 
#    y 0.000000 1.855120 0.000000 
#    z -0.000600 0.000000 1.740810 
# 
# From -- ./inp_files/298502.got.cif
#   From: 2010.05.17/outbox.cif.g08.bks.cpg/sg15_150_cif.got.tgz:298502.got - 2010.06.03 18:47:42.
