data_PCOD9282955
_publ_section_title
;
Structure prediction by ZEFSAII (Michael W. Deem and Ramdas Pophale) SiO2 
 PCOD9282955
Probable space group: C 2/C
;
_chemical_formula_sum "Si O2"
_cell_formula_units_Z 40
_cell_length_a 14.063346
_cell_length_b 11.427131
_cell_length_c 13.242580
_cell_angle_alpha 90.000000
_cell_angle_beta 45.217395
_cell_angle_gamma 90.000000
_cell_volume 1510.515077
_symmetry_space_group_name_H-M "C 2/C"
_symmetry_group_IT_number 15
_symmetry_cell_setting 'monoclinic'
loop_
_space_group_symop_operation_xyz
x,y,z
-x,y,1/2-z
-x,-y,-z
x,-y,1/2+z
1/2+x,1/2+y,z
1/2-x,1/2+y,1/2-z
1/2-x,1/2-y,-z
1/2+x,1/2-y,1/2+z
loop_
_atom_site_type_symbol
_atom_site_label
_atom_site_fract_x
_atom_site_fract_y
_atom_site_fract_z
Si Si1 0.218284 0.453174 0.378511
Si Si2 0.652967 0.677722 0.303503
Si Si3 0.956385 0.448524 0.177594
Si Si4 0.227916 0.920465 0.945327
Si Si5 0.654320 0.304815 0.486573
O O1 0.347552 0.336431 0.575139
O O2 0.141456 0.401778 0.338110
O O3 0.273628 0.386094 0.435640
O O4 0.094954 0.521920 0.521724
O O5 0.503371 0.715058 0.384505
O O6 0.673518 0.544615 0.244330
O O7 0.784004 0.741678 0.158394
O O8 0.873687 0.561070 0.283066
O O9 0.000000 0.389480 0.250000
O O10 0.174196 0.054832 0.977496
O O11 0.750000 0.250000 0.500000
#
# Coordination Sequence:
#
# PCOD9282955 Si02
#       5
#     8   8   8   8   8
#     4   9  17  34  61 100 135 185 236 289 360 434
#     4  11  25  42  67 107 144 189 241 318 371 438
#     4   8  16  30  58  99 131 180 234 284 349 435
#     4  10  21  39  66 100 145 188 244 306 376 433
#     4  12  25  42  68 105 146 184 253 312 370 446
#
# _framework density 26.481031999999999
#
# number of rings (size 3 to 8) (size 9 to 14) (size 15 to 20)
#    0.000    2.000    2.000    1.200    2.800    1.600 
#    0.000    0.000    0.000    4.800   41.600    0.000 
#    0.000    0.000    0.000    0.000    0.000    0.000 
#
# Total GULP energy -111674.419786 kJ/mol
# GULP energy per Si atom -5583.720989 kJ/mol
# Density = 2.642076 g / cm^3
# Si number density = 26.481032 Si / 1000 Ang^3
#
#
#
# Elastic Constant Matrix: (Units=GPa)
#
#
# Indices 1 2 3 4 5 6 
#
# 1 194.9481 45.8048 78.9903 0.0000 29.1750 0.0000
# 2 45.8048 48.7152 11.6623 0.0000 0.7084 0.0000
# 3 78.9903 11.6623 105.8414 0.0000 11.0513 0.0000
# 4 0.0000 0.0000 0.0000 46.6404 0.0000 15.4292
# 5 29.1750 0.7084 11.0513 0.0000 81.6741 0.0000
# 6 0.0000 0.0000 0.0000 15.4292 0.0000 57.7354
#
#
#
# Elastic Compliance Matrix: (Units=1/GPa)
#
#
# Indices 1 2 3 4 5 6 
#
# 1 0.009869 -0.007748 -0.006239 0.000000 -0.002614 0.000000
# 2 -0.007748 0.027168 0.002561 0.000000 0.002186 0.000000
# 3 -0.006239 0.002561 0.013786 0.000000 0.000341 0.000000
# 4 0.000000 0.000000 0.000000 0.023520 0.000000 -0.006285
# 5 -0.002614 0.002186 0.000341 0.000000 0.013112 0.000000
# 6 0.000000 0.000000 0.000000 -0.006285 0.000000 0.019000
#
#
# Mechanical properties :
#
#
# Convention : Reuss Voigt Hill
#
# Bulk Modulus (GPa) = 35.75117 69.15775 52.45446
# Shear Modulus (GPa) = 36.06689 51.41315 43.74002
#
# Velocity S-wave (km/s) = 3.69452 4.41104 4.06858
# Velocity P-wave (km/s) = 5.63287 7.21912 6.47475
#
# Compressibility (1/GPa) = 0.02797111
#
# Stress axis : x y z
#
# Youngs Moduli (GPa) = 101.32695 36.80839 72.53552
#
# Poissons Ratio (x) = 0.28519 0.45253
# Poissons Ratio (y) = 0.78507 -0.18573
# Poissons Ratio (z) = 0.63215 -0.09425
#
# Static dielectric constant tensor:
#      x y z
#    x 2.107630 0.000000 0.051290 
#    y 0.000000 2.267320 0.000000 
#    z 0.051290 0.000000 2.075150 
# 
# From -- ./inp_files/142144.got.cif
#   From: 2010.05.17/outbox.cif.g08.bks.cpg/sg15_72_cif.got.tgz:142144.got - 2010.06.03 18:47:42.
