data_PCOD9282337
_publ_section_title
;
Structure prediction by ZEFSAII (Michael W. Deem and Ramdas Pophale) SiO2 
 PCOD9282337
Probable space group: C 2/C
;
_chemical_formula_sum "Si O2"
_cell_formula_units_Z 48
_cell_length_a 16.901939
_cell_length_b 9.342043
_cell_length_c 30.593343
_cell_angle_alpha 90.000000
_cell_angle_beta 32.282673
_cell_angle_gamma 90.000000
_cell_volume 2580.032804
_symmetry_space_group_name_H-M "C 2/C"
_symmetry_group_IT_number 15
_symmetry_cell_setting 'monoclinic'
loop_
_space_group_symop_operation_xyz
x,y,z
-x,y,1/2-z
-x,-y,-z
x,-y,1/2+z
1/2+x,1/2+y,z
1/2-x,1/2+y,1/2-z
1/2-x,1/2-y,-z
1/2+x,1/2-y,1/2+z
loop_
_atom_site_type_symbol
_atom_site_label
_atom_site_fract_x
_atom_site_fract_y
_atom_site_fract_z
Si Si1 0.657194 0.177536 0.504181
Si Si2 0.623112 0.920747 0.575913
Si Si3 0.659435 0.820656 0.654541
Si Si4 0.104015 0.999473 0.660098
Si Si5 0.971557 0.114197 0.891122
Si Si6 0.558733 0.423986 0.929141
O O1 0.750000 0.250000 0.500000
O O2 0.772415 0.112758 0.414570
O O3 0.548094 0.293251 0.534339
O O4 0.570479 0.053173 0.571251
O O5 0.649223 0.919749 0.615996
O O6 0.793375 0.903960 0.480267
O O7 0.517716 0.784900 0.616519
O O8 0.500000 0.823964 0.750000
O O9 0.684505 0.653594 0.630349
O O10 0.780504 0.869283 0.632503
O O11 0.000000 0.961360 0.750000
O O12 0.996625 0.035586 0.669252
O O13 0.053101 0.037986 0.892565
O O14 0.500000 0.500000 0.000000
#
# Coordination Sequence:
#
# PCOD9282337 Si02
#       6
#     8   8   8   8   8   8
#     4  11  20  36  63  93 118 160 209 255 298 361
#     4   9  17  36  60  85 115 160 201 238 303 361
#     4  10  21  39  61  88 126 164 201 253 313 363
#     4   9  19  38  64  87 123 163 200 250 314 364
#     4   9  17  34  63  85 118 159 196 245 297 367
#     4  12  22  37  62  93 122 154 210 254 299 365
#
# _framework density 18.604416000000001
#
# number of rings (size 3 to 8) (size 9 to 14) (size 15 to 20)
#    0.000    2.000    5.000    1.000    0.000    0.667 
#    0.000    8.333    7.333    0.000    0.000    0.000 
#    0.000    0.000    0.000    0.000    0.000    0.000 
#
# Total GULP energy -133680.085390 kJ/mol
# GULP energy per Si atom -5570.003558 kJ/mol
# Density = 1.856207 g / cm^3
# Si number density = 18.604416 Si / 1000 Ang^3
#
#
#
# Elastic Constant Matrix: (Units=GPa)
#
#
# Indices 1 2 3 4 5 6 
#
# 1 157.8605 75.6333 48.1426 0.0000 8.0021 -0.0001
# 2 75.6333 89.6710 29.9760 0.0000 1.1197 -0.0002
# 3 48.1426 29.9760 71.0826 0.0001 15.2430 0.0000
# 4 0.0000 0.0000 0.0001 17.0092 0.0000 10.2406
# 5 8.0021 1.1197 15.2430 0.0000 34.2521 0.0000
# 6 -0.0001 -0.0002 0.0000 10.2406 0.0000 43.3649
#
#
#
# Elastic Compliance Matrix: (Units=1/GPa)
#
#
# Indices 1 2 3 4 5 6 
#
# 1 0.011705 -0.008447 -0.004243 0.000000 -0.000570 0.000000
# 2 -0.008447 0.019233 -0.002961 0.000000 0.002662 0.000000
# 3 -0.004243 -0.002961 0.019851 0.000000 -0.007746 0.000000
# 4 0.000000 0.000000 0.000000 0.068536 0.000000 -0.016185
# 5 -0.000570 0.002662 -0.007746 0.000000 0.032689 0.000000
# 6 0.000000 0.000000 0.000000 -0.016185 0.000000 0.026882
#
#
# Mechanical properties :
#
#
# Convention : Reuss Voigt Hill
#
# Bulk Modulus (GPa) = 51.31343 69.56864 60.44103
# Shear Modulus (GPa) = 23.07419 29.91606 26.49512
#
# Velocity S-wave (km/s) = 3.52554 4.01435 3.77786
# Velocity P-wave (km/s) = 6.64935 7.67864 7.18245
#
# Compressibility (1/GPa) = 0.01948808
#
# Stress axis : x y z
#
# Youngs Moduli (GPa) = 85.43707 51.99452 50.37425
#
# Poissons Ratio (x) = 0.43918 0.21373
# Poissons Ratio (y) = 0.72167 0.14914
# Poissons Ratio (z) = 0.36250 0.15394
#
# Static dielectric constant tensor:
#      x y z
#    x 3.032070 0.000000 0.003060 
#    y 0.000000 1.744790 0.000000 
#    z 0.003060 0.000000 1.655060 
# 
# From -- ./inp_files/315629.got.cif
#   From: 2010.05.17/outbox.cif.g08.bks.cpg/sg15_158_cif.got.tgz:315629.got - 2010.06.03 18:47:42.
