data_PCOD9282520
_publ_section_title
;
Structure prediction by ZEFSAII (Michael W. Deem and Ramdas Pophale) SiO2 
 PCOD9282520
Probable space group: C 2/C
;
_chemical_formula_sum "Si O2"
_cell_formula_units_Z 44
_cell_length_a 28.255552
_cell_length_b 8.380511
_cell_length_c 8.439726
_cell_angle_alpha 90.000000
_cell_angle_beta 71.157124
_cell_angle_gamma 90.000000
_cell_volume 1891.389487
_symmetry_space_group_name_H-M "C 2/C"
_symmetry_group_IT_number 15
_symmetry_cell_setting 'monoclinic'
loop_
_space_group_symop_operation_xyz
x,y,z
-x,y,1/2-z
-x,-y,-z
x,-y,1/2+z
1/2+x,1/2+y,z
1/2-x,1/2+y,1/2-z
1/2-x,1/2-y,-z
1/2+x,1/2-y,1/2+z
loop_
_atom_site_type_symbol
_atom_site_label
_atom_site_fract_x
_atom_site_fract_y
_atom_site_fract_z
Si Si1 0.000000 0.099403 0.750000
Si Si2 0.015873 0.673104 0.544092
Si Si3 0.095037 0.124640 0.066397
Si Si4 0.695735 0.807527 0.613402
Si Si5 0.728077 0.888595 0.913841
Si Si6 0.161449 0.006910 0.224511
O O1 0.999297 0.203913 0.585478
O O2 0.048900 0.984257 0.682469
O O3 0.073720 0.717818 0.506857
O O4 0.000000 0.683881 0.750000
O O5 0.000000 0.500000 0.500000
O O6 0.136430 0.150881 0.155951
O O7 0.124106 0.026295 0.904438
O O8 0.750000 0.750000 0.500000
O O9 0.697878 0.824523 0.798870
O O10 0.660636 0.656871 0.620589
O O11 0.693873 0.980571 0.537456
O O12 0.780795 0.965080 0.793348
O O13 0.750000 0.750000 0.000000
#
# Coordination Sequence:
#
# PCOD9282520 Si02
#       6
#     4   8   8   8   8   8
#     4  12  24  48  76 108 144 202 256 304 390 458
#     4  12  25  46  74 107 147 195 244 310 392 460
#     4  12  23  44  72 102 138 190 259 304 367 450
#     4  10  21  39  62  95 140 188 238 295 373 441
#     4  11  21  40  67  98 143 195 234 296 381 445
#     4  11  23  40  68 104 135 185 253 305 349 447
#
# _framework density 23.26332
#
# number of rings (size 3 to 8) (size 9 to 14) (size 15 to 20)
#    0.000    0.727    3.636    7.091    0.000    0.000 
#    0.000    9.091    0.000    0.000    0.000    0.000 
#    0.000    0.000    0.000    0.000    0.000    0.000 
#
# Total GULP energy -122605.082695 kJ/mol
# GULP energy per Si atom -5572.958304 kJ/mol
# Density = 2.321037 g / cm^3
# Si number density = 23.263320 Si / 1000 Ang^3
#
#
#
# Elastic Constant Matrix: (Units=GPa)
#
#
# Indices 1 2 3 4 5 6 
#
# 1 90.3248 31.9410 21.8874 0.0000 -0.9498 0.0000
# 2 31.9410 131.2042 40.9163 0.0000 6.6794 0.0000
# 3 21.8874 40.9163 123.2976 0.0000 -1.4770 0.0000
# 4 0.0000 0.0000 0.0000 37.0018 0.0000 6.9115
# 5 -0.9498 6.6794 -1.4770 0.0000 33.7745 0.0000
# 6 0.0000 0.0000 0.0000 6.9115 0.0000 39.4825
#
#
#
# Elastic Compliance Matrix: (Units=1/GPa)
#
#
# Indices 1 2 3 4 5 6 
#
# 1 0.012328 -0.002636 -0.001304 0.000000 0.000811 0.000000
# 2 -0.002636 0.009177 -0.002601 0.000000 -0.002003 0.000000
# 3 -0.001304 -0.002601 0.009216 0.000000 0.000881 0.000000
# 4 0.000000 0.000000 0.000000 0.027939 0.000000 -0.004891
# 5 0.000811 -0.002003 0.000881 0.000000 0.030066 0.000000
# 6 0.000000 0.000000 0.000000 -0.004891 0.000000 0.026184
#
#
# Mechanical properties :
#
#
# Convention : Reuss Voigt Hill
#
# Bulk Modulus (GPa) = 56.69619 59.36842 58.03231
# Shear Modulus (GPa) = 37.34963 38.72388 38.03676
#
# Velocity S-wave (km/s) = 4.01124 4.08436 4.04797
# Velocity P-wave (km/s) = 6.77331 6.91508 6.84456
#
# Compressibility (1/GPa) = 0.01763787
#
# Stress axis : x y z
#
# Youngs Moduli (GPa) = 81.11797 108.97341 108.51002
#
# Poissons Ratio (x) = 0.28723 0.14150
# Poissons Ratio (y) = 0.21381 0.28227
# Poissons Ratio (z) = 0.10578 0.28348
#
# Static dielectric constant tensor:
#      x y z
#    x 1.869400 0.000000 0.020240 
#    y 0.000000 2.002050 0.000000 
#    z 0.020240 0.000000 1.989560 
# 
# From -- ./inp_files/68289.got.cif
#   From: 2010.05.17/outbox.cif.g08.bks.cpg/sg15_35_cif.got.tgz:68289.got - 2010.06.03 18:47:42.
