data_PCOD9282927
_publ_section_title
;
Structure prediction by ZEFSAII (Michael W. Deem and Ramdas Pophale) SiO2 
 PCOD9282927
Probable space group: C 2/C
;
_chemical_formula_sum "Si O2"
_cell_formula_units_Z 56
_cell_length_a 23.769529
_cell_length_b 10.572634
_cell_length_c 20.984921
_cell_angle_alpha 90.000000
_cell_angle_beta 24.731235
_cell_angle_gamma 90.000000
_cell_volume 2206.295314
_symmetry_space_group_name_H-M "C 2/C"
_symmetry_group_IT_number 15
_symmetry_cell_setting 'monoclinic'
loop_
_space_group_symop_operation_xyz
x,y,z
-x,y,1/2-z
-x,-y,-z
x,-y,1/2+z
1/2+x,1/2+y,z
1/2-x,1/2+y,1/2-z
1/2-x,1/2-y,-z
1/2+x,1/2-y,1/2+z
loop_
_atom_site_type_symbol
_atom_site_label
_atom_site_fract_x
_atom_site_fract_y
_atom_site_fract_z
Si Si1 0.295565 0.717271 0.196645
Si Si2 0.557300 0.109355 0.120004
Si Si3 0.059586 0.114296 0.895135
Si Si4 0.105552 0.322427 0.082012
Si Si5 0.636198 0.747600 0.240516
Si Si6 0.809335 0.530392 0.299072
Si Si7 0.059811 0.889654 0.117720
O O1 0.202854 0.835185 0.271863
O O2 0.298874 0.675872 0.266835
O O3 0.243557 0.601693 0.207659
O O4 0.453219 0.728036 0.018442
O O5 0.500000 0.111605 0.250000
O O6 0.428498 0.108387 0.207414
O O7 0.622949 0.247093 0.045242
O O8 0.622445 0.971430 0.046216
O O9 0.042555 0.088204 0.836533
O O10 0.000000 0.000000 0.000000
O O11 0.017389 0.236188 0.123346
O O12 0.000000 0.323843 0.250000
O O13 0.256854 0.271234 0.925799
O O14 0.640500 0.890135 0.262558
O O15 0.686879 0.522027 0.475141
O O16 0.000000 0.903789 0.250000
#
# Coordination Sequence:
#
# PCOD9282927 Si02
#       7
#     8   8   8   8   8   8   8
#     4  11  22  43  66  92 134 177 223 277 340 393
#     4   9  19  39  60  90 129 166 211 269 326 392
#     4  11  24  46  67 101 142 179 227 287 338 412
#     4  10  22  43  68  95 131 172 219 276 337 393
#     4  11  23  42  65  94 130 170 223 274 326 409
#     4  10  22  41  60  91 134 168 215 277 331 394
#     4  10  21  39  65  96 131 175 219 275 342 404
#
# _framework density 25.381916
#
# number of rings (size 3 to 8) (size 9 to 14) (size 15 to 20)
#    0.000    1.714    1.429    3.000    0.000    2.857 
#   10.286    8.571    0.000    0.000    0.000    0.000 
#    0.000    0.000    0.000    0.000    0.000    0.000 
#
# Total GULP energy -156385.888132 kJ/mol
# GULP energy per Si atom -5585.210290 kJ/mol
# Density = 2.532415 g / cm^3
# Si number density = 25.381916 Si / 1000 Ang^3
#
#
#
# Elastic Constant Matrix: (Units=GPa)
#
#
# Indices 1 2 3 4 5 6 
#
# 1 85.1243 17.9801 30.1575 0.0000 28.4323 0.0000
# 2 17.9801 78.5746 20.1192 0.0000 -2.2430 0.0000
# 3 30.1575 20.1192 76.3170 -0.0001 3.5995 0.0000
# 4 0.0000 0.0000 -0.0001 48.9656 0.0000 8.0585
# 5 28.4323 -2.2430 3.5995 0.0000 48.3217 0.0000
# 6 0.0000 0.0000 0.0000 8.0585 0.0000 30.9816
#
#
#
# Elastic Compliance Matrix: (Units=1/GPa)
#
#
# Indices 1 2 3 4 5 6 
#
# 1 0.017811 -0.002882 -0.005798 0.000000 -0.010182 0.000000
# 2 -0.002882 0.014154 -0.002713 0.000000 0.002555 0.000000
# 3 -0.005798 -0.002713 0.016011 0.000000 0.002093 0.000000
# 4 0.000000 0.000000 0.000000 0.021336 0.000000 -0.005550
# 5 -0.010182 0.002555 0.002093 0.000000 0.026648 0.000000
# 6 0.000000 0.000000 0.000000 -0.005550 0.000000 0.033721
#
#
# Mechanical properties :
#
#
# Convention : Reuss Voigt Hill
#
# Bulk Modulus (GPa) = 39.69860 41.83661 40.76760
# Shear Modulus (GPa) = 31.08215 37.10438 34.09327
#
# Velocity S-wave (km/s) = 3.50319 3.82755 3.66896
# Velocity P-wave (km/s) = 5.66018 6.00435 5.83480
#
# Compressibility (1/GPa) = 0.02518981
#
# Stress axis : x y z
#
# Youngs Moduli (GPa) = 56.14407 70.65251 62.45680
#
# Poissons Ratio (x) = 0.20360 0.36215
# Poissons Ratio (y) = 0.16179 0.16945
# Poissons Ratio (z) = 0.32555 0.19168
#
# Static dielectric constant tensor:
#      x y z
#    x 1.325850 0.000000 -0.224380 
#    y 0.000000 2.059730 0.000000 
#    z -0.224380 0.000000 1.878510 
# 
# From -- ./inp_files/255444.got.cif
#   From: 2010.05.17/outbox.cif.g08.bks.cpg/sg15_128_cif.got.tgz:255444.got - 2010.06.03 18:47:42.
