data_PCOD9282859
_publ_section_title
;
Structure prediction by ZEFSAII (Michael W. Deem and Ramdas Pophale) SiO2 
 PCOD9282859
Probable space group: C 2/C
;
_chemical_formula_sum "Si O2"
_cell_formula_units_Z 56
_cell_length_a 9.863093
_cell_length_b 16.673855
_cell_length_c 15.673421
_cell_angle_alpha 90.000000
_cell_angle_beta 119.981130
_cell_angle_gamma 90.000000
_cell_volume 2232.678179
_symmetry_space_group_name_H-M "C 2/C"
_symmetry_group_IT_number 15
_symmetry_cell_setting 'monoclinic'
loop_
_space_group_symop_operation_xyz
x,y,z
-x,y,1/2-z
-x,-y,-z
x,-y,1/2+z
1/2+x,1/2+y,z
1/2-x,1/2+y,1/2-z
1/2-x,1/2-y,-z
1/2+x,1/2-y,1/2+z
loop_
_atom_site_type_symbol
_atom_site_label
_atom_site_fract_x
_atom_site_fract_y
_atom_site_fract_z
Si Si1 0.202498 0.230708 0.080061
Si Si2 0.086477 0.126169 0.649856
Si Si3 0.671937 0.920935 0.561667
Si Si4 0.123255 0.363293 0.365207
Si Si5 0.228592 0.092637 0.871234
Si Si6 0.325472 0.190185 0.282275
Si Si7 0.534047 0.685224 0.375571
O O1 0.192205 0.320660 0.114267
O O2 0.330485 0.184313 0.179453
O O3 0.250000 0.250000 0.000000
O O4 0.095435 0.103992 0.902438
O O5 0.210052 0.105927 0.616093
O O6 0.151187 0.080942 0.754651
O O7 0.108484 0.221932 0.674529
O O8 0.963413 0.190592 0.449999
O O9 0.592468 0.901718 0.446717
O O10 0.614924 0.872854 0.628529
O O11 0.850436 0.887843 0.603212
O O12 0.675855 0.014919 0.576319
O O13 0.124147 0.267840 0.384514
O O14 0.000000 0.377326 0.250000
O O15 0.132579 0.186124 0.226917
#
# Coordination Sequence:
#
# PCOD9282859 Si02
#       7
#     8   8   8   8   8   8   8
#     4   9  21  41  66  94 148 188 225 274 356 443
#     4  10  21  39  65  91 147 177 219 274 362 425
#     4  12  24  38  70 112 134 169 244 308 347 398
#     4  12  22  42  66  97 135 183 239 288 348 421
#     4  10  24  41  61 108 140 177 224 299 365 401
#     4   9  20  38  65 100 133 184 220 281 339 424
#     4  10  21  39  69 100 136 177 237 276 343 424
#
# _framework density 25.081986000000001
#
# number of rings (size 3 to 8) (size 9 to 14) (size 15 to 20)
#    0.857    0.857    2.857    0.857    6.000    0.571 
#    2.571    2.857    0.000    0.000    3.714    0.000 
#    0.000    0.000    0.000    0.000    0.000    0.000 
#
# Total GULP energy -156371.859880 kJ/mol
# GULP energy per Si atom -5584.709281 kJ/mol
# Density = 2.502490 g / cm^3
# Si number density = 25.081986 Si / 1000 Ang^3
#
#
#
# Elastic Constant Matrix: (Units=GPa)
#
#
# Indices 1 2 3 4 5 6 
#
# 1 118.9388 17.5533 40.0024 0.0000 -16.6986 0.0000
# 2 17.5533 67.5877 35.0230 0.0000 5.9798 0.0000
# 3 40.0024 35.0230 159.0864 0.0000 -20.0545 0.0000
# 4 0.0000 0.0000 0.0000 19.5011 0.0000 -0.4479
# 5 -16.6986 5.9798 -20.0545 0.0000 46.7046 0.0000
# 6 0.0000 0.0000 0.0000 -0.4479 0.0000 31.2740
#
#
#
# Elastic Compliance Matrix: (Units=1/GPa)
#
#
# Indices 1 2 3 4 5 6 
#
# 1 0.009661 -0.001933 -0.001625 0.000000 0.003004 0.000000
# 2 -0.001933 0.017799 -0.004025 0.000000 -0.004698 0.000000
# 3 -0.001625 -0.004025 0.008006 0.000000 0.003372 0.000000
# 4 0.000000 0.000000 0.000000 0.051296 0.000000 0.000735
# 5 0.003004 -0.004698 0.003372 0.000000 0.024535 0.000000
# 6 0.000000 0.000000 0.000000 0.000735 0.000000 0.031986
#
#
# Mechanical properties :
#
#
# Convention : Reuss Voigt Hill
#
# Bulk Modulus (GPa) = 49.25999 58.97447 54.11723
# Shear Modulus (GPa) = 30.26375 36.36486 33.31431
#
# Velocity S-wave (km/s) = 3.47737 3.81181 3.64842
# Velocity P-wave (km/s) = 5.98373 6.55262 6.27463
#
# Compressibility (1/GPa) = 0.02030045
#
# Stress axis : x y z
#
# Youngs Moduli (GPa) = 103.50628 56.18374 124.91224
#
# Poissons Ratio (x) = 0.10859 0.20300
# Poissons Ratio (y) = 0.20005 0.50273
# Poissons Ratio (z) = 0.16821 0.22612
#
# Static dielectric constant tensor:
#      x y z
#    x 2.159670 0.000000 -0.030720 
#    y 0.000000 1.874780 0.000000 
#    z -0.030720 0.000000 2.191540 
# 
# From -- ./inp_files/162327.got.cif
#   From: 2010.05.17/outbox.cif.g08.bks.cpg/sg15_82_cif.got.tgz:162327.got - 2010.06.03 18:47:42.
