data_PCOD9282167
_publ_section_title
;
Structure prediction by ZEFSAII (Michael W. Deem and Ramdas Pophale) SiO2 
 PCOD9282167
Probable space group: C 2/C
;
_chemical_formula_sum "Si O2"
_cell_formula_units_Z 60
_cell_length_a 13.030872
_cell_length_b 17.495367
_cell_length_c 14.385541
_cell_angle_alpha 90.000000
_cell_angle_beta 90.284596
_cell_angle_gamma 90.000000
_cell_volume 3279.573568
_symmetry_space_group_name_H-M "C 2/C"
_symmetry_group_IT_number 15
_symmetry_cell_setting 'monoclinic'
loop_
_space_group_symop_operation_xyz
x,y,z
-x,y,1/2-z
-x,-y,-z
x,-y,1/2+z
1/2+x,1/2+y,z
1/2-x,1/2+y,1/2-z
1/2-x,1/2-y,-z
1/2+x,1/2-y,1/2+z
loop_
_atom_site_type_symbol
_atom_site_label
_atom_site_fract_x
_atom_site_fract_y
_atom_site_fract_z
Si Si1 0.898425 0.741870 0.810486
Si Si2 0.422230 0.430608 0.019335
Si Si3 0.708613 0.403258 0.662005
Si Si4 0.750000 0.250000 0.000000
Si Si5 0.005888 0.759069 0.001163
Si Si6 0.798083 0.806392 0.289142
Si Si7 0.618104 0.537088 0.770990
Si Si8 0.419892 0.175083 0.179552
O O1 0.853125 0.827924 0.805324
O O2 0.807325 0.689625 0.770649
O O3 0.000000 0.735192 0.750000
O O4 0.932851 0.730949 0.916823
O O5 0.478932 0.348464 0.017967
O O6 0.373844 0.443854 0.120264
O O7 0.500000 0.500000 0.000000
O O8 0.339882 0.428691 0.936017
O O9 0.689544 0.468694 0.737294
O O10 0.826323 0.379485 0.652369
O O11 0.775476 0.222139 0.892458
O O12 0.875021 0.249147 0.023222
O O13 0.976581 0.710205 0.091236
O O14 0.854228 0.887526 0.286991
O O15 0.869696 0.745482 0.236377
O O16 0.500000 0.515171 0.750000
O O17 0.500000 0.136726 0.250000
#
# Coordination Sequence:
#
# PCOD9282167 Si02
#       8
#     8   8   8   4   8   8   8   8
#     4  10  21  39  58  90 124 160 202 254 307 368
#     4  11  23  38  64  93 127 161 201 260 325 374
#     4  10  25  38  60  91 123 166 204 252 317 377
#     4  12  22  36  60  98 118 158 206 256 308 370
#     4  11  23  39  65  91 126 158 210 260 310 377
#     4  11  23  37  64  92 122 165 207 260 318 370
#     4  12  22  41  61  91 129 159 205 266 316 373
#     4  11  22  42  64  90 124 164 209 257 313 373
#
# _framework density 18.295062000000001
#
# number of rings (size 3 to 8) (size 9 to 14) (size 15 to 20)
#    0.000    1.067    5.333    1.600    3.733    1.600 
#    0.000    0.667    0.000    1.600    0.000    0.000 
#    0.000    0.000    0.000    0.000    0.000    0.000 
#
# Total GULP energy -167083.991941 kJ/mol
# GULP energy per Si atom -5569.466398 kJ/mol
# Density = 1.825342 g / cm^3
# Si number density = 18.295062 Si / 1000 Ang^3
#
#
#
# Elastic Constant Matrix: (Units=GPa)
#
#
# Indices 1 2 3 4 5 6 
#
# 1 85.0075 14.1468 0.7081 0.0000 6.3378 0.0000
# 2 14.1468 37.9984 14.6091 0.0000 -3.1877 0.0000
# 3 0.7081 14.6091 83.3831 0.0000 -14.2657 0.0000
# 4 0.0000 0.0000 0.0000 15.6699 0.0000 2.9038
# 5 6.3378 -3.1877 -14.2657 0.0000 33.3700 0.0000
# 6 0.0000 0.0000 0.0000 2.9038 0.0000 18.3592
#
#
#
# Elastic Compliance Matrix: (Units=1/GPa)
#
#
# Indices 1 2 3 4 5 6 
#
# 1 0.012823 -0.005128 0.000312 0.000000 -0.002792 0.000000
# 2 -0.005128 0.030281 -0.004963 0.000000 0.001745 0.000000
# 3 0.000312 -0.004963 0.013776 0.000000 0.005356 0.000000
# 4 0.000000 0.000000 0.000000 0.065743 0.000000 -0.010398
# 5 -0.002792 0.001745 0.005356 0.000000 0.032954 0.000000
# 6 0.000000 0.000000 0.000000 -0.010398 0.000000 0.056113
#
#
# Mechanical properties :
#
#
# Convention : Reuss Voigt Hill
#
# Bulk Modulus (GPa) = 26.79482 29.47968 28.13725
# Shear Modulus (GPa) = 20.51801 25.27483 22.89642
#
# Velocity S-wave (km/s) = 3.35252 3.72090 3.54150
# Velocity P-wave (km/s) = 5.44643 5.88291 5.66887
#
# Compressibility (1/GPa) = 0.03732064
#
# Stress axis : x y z
#
# Youngs Moduli (GPa) = 77.98732 33.02445 72.58946
#
# Poissons Ratio (x) = 0.16935 -0.02264
# Poissons Ratio (y) = 0.39992 0.36028
# Poissons Ratio (z) = -0.02432 0.16391
#
# Static dielectric constant tensor:
#      x y z
#    x 1.626340 0.000000 0.032690 
#    y 0.000000 1.608620 0.000000 
#    z 0.032690 0.000000 1.635690 
# 
# From -- ./inp_files/145640.got.cif
#   From: 2010.05.17/outbox.cif.g08.bks.cpg/sg15_73_cif.got.tgz:145640.got - 2010.06.03 18:47:42.
