data_PCOD9282433
_publ_section_title
;
Structure prediction by ZEFSAII (Michael W. Deem and Ramdas Pophale) SiO2 
 PCOD9282433
Probable space group: C 2/C
;
_chemical_formula_sum "Si O2"
_cell_formula_units_Z 56
_cell_length_a 30.113599
_cell_length_b 6.724016
_cell_length_c 12.259697
_cell_angle_alpha 90.000000
_cell_angle_beta 56.429748
_cell_angle_gamma 90.000000
_cell_volume 2068.353680
_symmetry_space_group_name_H-M "C 2/C"
_symmetry_group_IT_number 15
_symmetry_cell_setting 'monoclinic'
loop_
_space_group_symop_operation_xyz
x,y,z
-x,y,1/2-z
-x,-y,-z
x,-y,1/2+z
1/2+x,1/2+y,z
1/2-x,1/2+y,1/2-z
1/2-x,1/2-y,-z
1/2+x,1/2-y,1/2+z
loop_
_atom_site_type_symbol
_atom_site_label
_atom_site_fract_x
_atom_site_fract_y
_atom_site_fract_z
Si Si1 0.767130 0.432478 0.555435
Si Si2 0.269397 0.414958 0.187253
Si Si3 0.662758 0.009070 0.219055
Si Si4 0.636331 0.661057 0.503202
Si Si5 0.543643 0.322680 0.276258
Si Si6 0.411462 0.938517 0.362170
Si Si7 0.084912 0.825763 0.439977
O O1 0.750000 0.250000 0.500000
O O2 0.727514 0.549956 0.687902
O O3 0.799149 0.577708 0.433243
O O4 0.794613 0.289308 0.609743
O O5 0.206859 0.410100 0.237759
O O6 0.303240 0.586376 0.082674
O O7 0.626464 0.175827 0.322804
O O8 0.624519 0.871410 0.193202
O O9 0.601486 0.599407 0.656465
O O10 0.621207 0.893233 0.521847
O O11 0.610352 0.536081 0.439387
O O12 0.500000 0.399715 0.250000
O O13 0.539871 0.353340 0.409509
O O14 0.546091 0.084023 0.252524
O O15 0.429932 0.780709 0.425600
#
# Coordination Sequence:
#
# PCOD9282433 Si02
#       7
#     8   8   8   8   8   8   8
#     4  10  24  37  58  89 124 173 222 263 304 370
#     4  11  22  38  60  89 132 174 216 259 314 366
#     4  10  21  39  62  88 132 171 212 264 300 368
#     4  10  24  41  62  98 125 167 217 252 320 386
#     4   9  23  46  66  97 127 155 213 270 318 392
#     4   9  22  42  64  93 126 166 212 260 315 381
#     4  11  22  45  68  91 133 170 203 267 322 369
#
# _framework density 27.074670999999999
#
# number of rings (size 3 to 8) (size 9 to 14) (size 15 to 20)
#    0.857    1.143    0.000    2.571    6.000    4.000 
#    7.714    0.714    0.000    0.000    0.000    0.000 
#    0.000    0.000    0.000    0.000    0.000    0.000 
#
# Total GULP energy -155989.572360 kJ/mol
# GULP energy per Si atom -5571.056156 kJ/mol
# Density = 2.701305 g / cm^3
# Si number density = 27.074671 Si / 1000 Ang^3
#
#
#
# Elastic Constant Matrix: (Units=GPa)
#
#
# Indices 1 2 3 4 5 6 
#
# 1 136.5874 32.5712 28.5081 0.0000 44.1168 0.0000
# 2 32.5712 111.1264 43.6333 0.0000 18.3178 0.0000
# 3 28.5081 43.6333 87.2273 0.0000 30.0754 0.0000
# 4 0.0000 0.0000 0.0000 61.1451 0.0000 8.2112
# 5 44.1168 18.3178 30.0754 0.0000 47.1464 0.0000
# 6 0.0000 0.0000 0.0000 8.2112 0.0000 26.1311
#
#
#
# Elastic Compliance Matrix: (Units=1/GPa)
#
#
# Indices 1 2 3 4 5 6 
#
# 1 0.010789 -0.001850 0.000811 0.000000 -0.009894 0.000000
# 2 -0.001850 0.011552 -0.005414 0.000000 0.000696 0.000000
# 3 0.000811 -0.005414 0.017235 0.000000 -0.009649 0.000000
# 4 0.000000 0.000000 0.000000 0.017075 0.000000 -0.005366
# 5 -0.009894 0.000696 -0.009649 0.000000 0.036354 0.000000
# 6 0.000000 0.000000 0.000000 -0.005366 0.000000 0.039955
#
#
# Mechanical properties :
#
#
# Convention : Reuss Voigt Hill
#
# Bulk Modulus (GPa) = 37.49655 60.48513 48.99084
# Shear Modulus (GPa) = 32.30916 42.23309 37.27113
#
# Velocity S-wave (km/s) = 3.45822 3.95381 3.71429
# Velocity P-wave (km/s) = 5.46123 6.57511 6.04389
#
# Compressibility (1/GPa) = 0.02666912
#
# Stress axis : x y z
#
# Youngs Moduli (GPa) = 92.68775 86.56544 58.02266
#
# Poissons Ratio (x) = 0.16011 -0.04703
# Poissons Ratio (y) = 0.17143 0.31414
# Poissons Ratio (z) = -0.07512 0.46868
#
# Static dielectric constant tensor:
#      x y z
#    x 2.333690 0.000000 -0.030910 
#    y 0.000000 2.195930 0.000000 
#    z -0.030910 0.000000 2.207850 
# 
# From -- ./inp_files/125536.got.cif
#   From: 2010.05.17/outbox.cif.g08.bks.cpg/sg15_63_cif.got.tgz:125536.got - 2010.06.03 18:47:42.
