data_PCOD9282316
_publ_section_title
;
Structure prediction by ZEFSAII (Michael W. Deem and Ramdas Pophale) SiO2 
 PCOD9282316
Probable space group: C 2/C
;
_chemical_formula_sum "Si O2"
_cell_formula_units_Z 48
_cell_length_a 18.743364
_cell_length_b 29.540924
_cell_length_c 9.070269
_cell_angle_alpha 90.000000
_cell_angle_beta 30.769275
_cell_angle_gamma 90.000000
_cell_volume 2569.254840
_symmetry_space_group_name_H-M "C 2/C"
_symmetry_group_IT_number 15
_symmetry_cell_setting 'monoclinic'
loop_
_space_group_symop_operation_xyz
x,y,z
-x,y,1/2-z
-x,-y,-z
x,-y,1/2+z
1/2+x,1/2+y,z
1/2-x,1/2+y,1/2-z
1/2-x,1/2-y,-z
1/2+x,1/2-y,1/2+z
loop_
_atom_site_type_symbol
_atom_site_label
_atom_site_fract_x
_atom_site_fract_y
_atom_site_fract_z
Si Si1 0.852505 0.947173 0.804446
Si Si2 0.840151 0.710460 0.404816
Si Si3 0.160107 0.714215 0.755108
Si Si4 0.665718 0.545168 0.809852
Si Si5 0.388569 0.880318 0.318957
Si Si6 0.402446 0.112060 0.285601
O O1 0.017372 0.935779 0.513808
O O2 0.829676 0.994078 0.758696
O O3 0.824981 0.953606 0.028815
O O4 0.749434 0.910251 0.916238
O O5 0.750000 0.750000 0.500000
O O6 0.791298 0.707338 0.662627
O O7 0.831843 0.659027 0.359038
O O8 0.998074 0.725260 0.080005
O O9 0.250000 0.750000 0.500000
O O10 0.157493 0.667094 0.671217
O O11 0.790214 0.575465 0.528242
O O12 0.500000 0.871719 0.250000
O O13 0.486916 0.906196 0.027289
O O14 0.500000 0.126285 0.250000
#
# Coordination Sequence:
#
# PCOD9282316 Si02
#       6
#     8   8   8   8   8   8
#     4  10  22  41  59  91 121 159 202 244 302 360
#     4  10  21  39  61  87 117 154 200 246 300 360
#     4  10  22  39  59  87 120 154 197 248 299 356
#     4  10  22  39  64  86 123 160 198 251 299 359
#     4  11  24  40  62  90 123 157 204 250 298 360
#     4  11  20  42  62  86 120 160 200 250 302 350
#
# _framework density 18.682459000000001
#
# number of rings (size 3 to 8) (size 9 to 14) (size 15 to 20)
#    0.000    1.667    5.000    0.000    7.000    2.667 
#    0.000    0.000    0.000    0.000    0.000    0.000 
#    0.000    0.000    0.000    0.000    0.000    0.000 
#
# Total GULP energy -133630.091798 kJ/mol
# GULP energy per Si atom -5567.920492 kJ/mol
# Density = 1.863994 g / cm^3
# Si number density = 18.682459 Si / 1000 Ang^3
#
#
#
# Elastic Constant Matrix: (Units=GPa)
#
#
# Indices 1 2 3 4 5 6 
#
# 1 73.7062 39.5834 10.8444 0.0000 -13.1033 0.0000
# 2 39.5834 75.6398 44.3593 0.0000 -22.7972 0.0000
# 3 10.8444 44.3593 88.9793 0.0000 -1.8043 0.0000
# 4 0.0000 0.0000 0.0000 43.4829 0.0000 -3.0086
# 5 -13.1033 -22.7972 -1.8043 0.0000 21.1557 0.0000
# 6 0.0000 0.0000 0.0000 -3.0086 0.0000 22.3422
#
#
#
# Elastic Compliance Matrix: (Units=1/GPa)
#
#
# Indices 1 2 3 4 5 6 
#
# 1 0.019817 -0.013386 0.004222 0.000000 -0.001791 0.000000
# 2 -0.013386 0.041488 -0.018345 0.000000 0.034852 0.000000
# 3 0.004222 -0.018345 0.019556 0.000000 -0.015486 0.000000
# 4 0.000000 0.000000 0.000000 0.023214 0.000000 0.003126
# 5 -0.001791 0.034852 -0.015486 0.000000 0.082395 0.000000
# 6 0.000000 0.000000 0.000000 0.003126 0.000000 0.045179
#
#
# Mechanical properties :
#
#
# Convention : Reuss Voigt Hill
#
# Bulk Modulus (GPa) = 38.69645 47.54437 43.12041
# Shear Modulus (GPa) = 16.93301 26.96536 21.94918
#
# Velocity S-wave (km/s) = 3.01385 3.80327 3.43133
# Velocity P-wave (km/s) = 5.73312 6.69256 6.23134
#
# Compressibility (1/GPa) = 0.02584217
#
# Stress axis : x y z
#
# Youngs Moduli (GPa) = 50.46230 24.10323 51.13597
#
# Poissons Ratio (x) = 0.32265 -0.21589
# Poissons Ratio (y) = 0.67549 0.93810
# Poissons Ratio (z) = -0.21305 0.44218
#
# Static dielectric constant tensor:
#      x y z
#    x 1.711360 0.000000 0.016510 
#    y 0.000000 1.624480 0.000000 
#    z 0.016510 0.000000 1.655120 
# 
# From -- ./inp_files/52727.got.cif
#   From: 2010.05.17/outbox.cif.g08.bks.cpg/sg15_27_cif.got.tgz:52727.got - 2010.06.03 18:47:42.
