data_PCOD9282757
_publ_section_title
;
Structure prediction by ZEFSAII (Michael W. Deem and Ramdas Pophale) SiO2 
 PCOD9282757
Probable space group: C 2/C
;
_chemical_formula_sum "Si O2"
_cell_formula_units_Z 56
_cell_length_a 10.092824
_cell_length_b 12.306293
_cell_length_c 21.553606
_cell_angle_alpha 90.000000
_cell_angle_beta 105.236061
_cell_angle_gamma 90.000000
_cell_volume 2582.975404
_symmetry_space_group_name_H-M "C 2/C"
_symmetry_group_IT_number 15
_symmetry_cell_setting 'monoclinic'
loop_
_space_group_symop_operation_xyz
x,y,z
-x,y,1/2-z
-x,-y,-z
x,-y,1/2+z
1/2+x,1/2+y,z
1/2-x,1/2+y,1/2-z
1/2-x,1/2-y,-z
1/2+x,1/2-y,1/2+z
loop_
_atom_site_type_symbol
_atom_site_label
_atom_site_fract_x
_atom_site_fract_y
_atom_site_fract_z
Si Si1 0.535954 0.281568 0.945401
Si Si2 0.340957 0.572470 0.709670
Si Si3 0.292569 0.365293 0.336717
Si Si4 0.658651 0.125971 0.496889
Si Si5 0.107656 0.206387 0.895455
Si Si6 0.596435 0.657695 0.321602
Si Si7 0.753604 0.587783 0.538599
O O1 0.427464 0.203710 0.967111
O O2 0.507551 0.328990 0.873553
O O3 0.659760 0.197675 0.949604
O O4 0.604861 0.379031 0.993248
O O5 0.500000 0.577532 0.750000
O O6 0.266095 0.582222 0.766187
O O7 0.317725 0.670952 0.659032
O O8 0.326132 0.458710 0.671624
O O9 0.450610 0.328040 0.366364
O O10 0.202612 0.256186 0.329097
O O11 0.260651 0.443124 0.390954
O O12 0.814526 0.142918 0.539733
O O13 0.623662 0.172739 0.424263
O O14 0.657538 0.996687 0.490625
O O15 0.500000 0.660752 0.250000
#
# Coordination Sequence:
#
# PCOD9282757 Si02
#       7
#     8   8   8   8   8   8   8
#     4  10  21  40  62  92 129 160 209 272 309 390
#     4   9  20  40  62  86 118 169 207 246 317 377
#     4  10  21  41  62  87 128 159 205 274 305 377
#     4  11  22  38  63  94 125 165 210 263 312 389
#     4  10  22  40  56  93 123 157 210 253 314 375
#     4  10  22  40  63  91 116 166 212 250 320 380
#     4  10  21  39  64  93 123 167 209 254 337 369
#
# _framework density 21.680422
#
# number of rings (size 3 to 8) (size 9 to 14) (size 15 to 20)
#    0.000    2.000    1.429    1.286    2.000    1.714 
#   15.429    0.000    0.000    0.857    0.000    0.000 
#    0.000    0.000    0.000    0.000    0.000    0.000 
#
# Total GULP energy -155894.921766 kJ/mol
# GULP energy per Si atom -5567.675777 kJ/mol
# Density = 2.163108 g / cm^3
# Si number density = 21.680422 Si / 1000 Ang^3
#
#
#
# Elastic Constant Matrix: (Units=GPa)
#
#
# Indices 1 2 3 4 5 6 
#
# 1 59.1793 19.2548 43.8448 0.0000 -14.0160 0.0000
# 2 19.2548 69.3195 45.1969 0.0000 -16.5174 0.0000
# 3 43.8448 45.1969 133.8006 0.0000 -26.5991 0.0000
# 4 0.0000 0.0000 0.0000 16.9393 0.0000 -7.8056
# 5 -14.0160 -16.5174 -26.5991 0.0000 32.6563 0.0000
# 6 0.0000 0.0000 0.0000 -7.8056 0.0000 26.0629
#
#
#
# Elastic Compliance Matrix: (Units=1/GPa)
#
#
# Indices 1 2 3 4 5 6 
#
# 1 0.022928 -0.001317 -0.006258 0.000000 0.004078 0.000000
# 2 -0.001317 0.019314 -0.005087 0.000000 0.005061 0.000000
# 3 -0.006258 -0.005087 0.012167 0.000000 0.004652 0.000000
# 4 0.000000 0.000000 0.000000 0.068486 0.000000 0.020511
# 5 0.004078 0.005061 0.004652 0.000000 0.038721 0.000000
# 6 0.000000 0.000000 0.000000 0.020511 0.000000 0.044512
#
#
# Mechanical properties :
#
#
# Convention : Reuss Voigt Hill
#
# Bulk Modulus (GPa) = 34.37958 53.21026 43.79492
# Shear Modulus (GPa) = 20.73427 25.39855 23.06641
#
# Velocity S-wave (km/s) = 3.09586 3.42643 3.26533
# Velocity P-wave (km/s) = 5.35453 6.34430 5.87031
#
# Compressibility (1/GPa) = 0.02908703
#
# Stress axis : x y z
#
# Youngs Moduli (GPa) = 43.61408 51.77564 82.18663
#
# Poissons Ratio (x) = 0.06819 0.51431
# Poissons Ratio (y) = 0.05744 0.41805
# Poissons Ratio (z) = 0.27293 0.26336
#
# Static dielectric constant tensor:
#      x y z
#    x 1.833320 0.000000 -0.060870 
#    y 0.000000 1.821030 0.000000 
#    z -0.060870 0.000000 1.840720 
# 
# From -- ./inp_files/237646.got.cif
#   From: 2010.05.17/outbox.cif.g08.bks.cpg/sg15_119_cif.got.tgz:237646.got - 2010.06.03 18:47:42.
