data_PCOD9282235
_publ_section_title
;
Structure prediction by ZEFSAII (Michael W. Deem and Ramdas Pophale) SiO2 
 PCOD9282235
Probable space group: C 2/C
;
_chemical_formula_sum "Si O2"
_cell_formula_units_Z 56
_cell_length_a 26.759697
_cell_length_b 9.341491
_cell_length_c 10.982209
_cell_angle_alpha 90.000000
_cell_angle_beta 82.237090
_cell_angle_gamma 90.000000
_cell_volume 2720.123663
_symmetry_space_group_name_H-M "C 2/C"
_symmetry_group_IT_number 15
_symmetry_cell_setting 'monoclinic'
loop_
_space_group_symop_operation_xyz
x,y,z
-x,y,1/2-z
-x,-y,-z
x,-y,1/2+z
1/2+x,1/2+y,z
1/2-x,1/2+y,1/2-z
1/2-x,1/2-y,-z
1/2+x,1/2-y,1/2+z
loop_
_atom_site_type_symbol
_atom_site_label
_atom_site_fract_x
_atom_site_fract_y
_atom_site_fract_z
Si Si1 0.636283 0.488939 0.412038
Si Si2 0.704157 0.232606 0.920430
Si Si3 0.276021 0.323997 0.171405
Si Si4 0.385283 0.252445 0.887265
Si Si5 0.799722 0.432098 0.484204
Si Si6 0.456101 0.393794 0.670618
Si Si7 0.988190 0.384205 0.400342
O O1 0.662738 0.641798 0.428371
O O2 0.672989 0.405404 0.304553
O O3 0.636193 0.383371 0.527374
O O4 0.577119 0.498249 0.396529
O O5 0.734988 0.210755 0.785763
O O6 0.750000 0.250000 0.000000
O O7 0.681308 0.081264 0.970495
O O8 0.250840 0.430338 0.079827
O O9 0.289591 0.176429 0.099042
O O10 0.340576 0.142081 0.884223
O O11 0.411782 0.320441 0.763191
O O12 0.430085 0.161334 0.932863
O O13 0.500000 0.446080 0.750000
O O14 0.481239 0.263821 0.588907
O O15 0.000000 0.419915 0.250000
O O16 0.000000 0.500000 0.500000
#
# Coordination Sequence:
#
# PCOD9282235 Si02
#       7
#     8   8   8   8   8   8   8
#     4  11  22  38  62  91 120 161 207 261 301 375
#     4  12  24  36  57  94 123 160 214 258 293 362
#     4  10  22  40  59  82 128 167 202 248 311 370
#     4   9  21  40  61  86 120 165 201 246 326 372
#     4  10  21  39  60  84 119 170 199 246 312 368
#     4   9  21  40  65  86 119 164 200 258 319 376
#     4   9  20  41  65  92 125 162 208 261 319 381
#
# _framework density 20.587299000000002
#
# number of rings (size 3 to 8) (size 9 to 14) (size 15 to 20)
#    0.000    2.286    1.429    1.714    4.000    2.286 
#    0.000    2.143    0.000    0.000    0.000    0.000 
#    0.000    0.000    0.000    0.000    0.000    0.000 
#
# Total GULP energy -155985.837993 kJ/mol
# GULP energy per Si atom -5570.922785 kJ/mol
# Density = 2.054044 g / cm^3
# Si number density = 20.587299 Si / 1000 Ang^3
#
#
#
# Elastic Constant Matrix: (Units=GPa)
#
#
# Indices 1 2 3 4 5 6 
#
# 1 111.0802 39.0534 26.3671 0.0000 -3.1491 0.0000
# 2 39.0534 72.8090 20.9589 0.0000 8.0401 0.0000
# 3 26.3671 20.9589 41.8984 0.0000 -2.5796 0.0000
# 4 0.0000 0.0000 0.0000 9.0526 0.0000 -13.9217
# 5 -3.1491 8.0401 -2.5796 0.0000 23.9977 0.0000
# 6 0.0000 0.0000 0.0000 -13.9217 0.0000 155.1710
#
#
#
# Elastic Compliance Matrix: (Units=1/GPa)
#
#
# Indices 1 2 3 4 5 6 
#
# 1 0.012128 -0.005470 -0.004716 0.000000 0.002917 0.000000
# 2 -0.005470 0.019510 -0.006809 0.000000 -0.007986 0.000000
# 3 -0.004716 -0.006809 0.030546 0.000000 0.004946 0.000000
# 4 0.000000 0.000000 0.000000 0.128147 0.000000 0.011497
# 5 0.002917 -0.007986 0.004946 0.000000 0.045261 0.000000
# 6 0.000000 0.000000 0.000000 0.011497 0.000000 0.007476
#
#
# Mechanical properties :
#
#
# Convention : Reuss Voigt Hill
#
# Bulk Modulus (GPa) = 35.46918 44.28295 39.87607
# Shear Modulus (GPa) = 17.45464 46.93811 32.19638
#
# Velocity S-wave (km/s) = 2.91492 4.78007 3.95890
# Velocity P-wave (km/s) = 5.34744 7.21262 6.34890
#
# Compressibility (1/GPa) = 0.02819349
#
# Stress axis : x y z
#
# Youngs Moduli (GPa) = 82.45575 51.25467 32.73728
#
# Poissons Ratio (x) = 0.28034 0.15441
# Poissons Ratio (y) = 0.45099 0.22292
# Poissons Ratio (z) = 0.38890 0.34902
#
# Static dielectric constant tensor:
#      x y z
#    x 1.657220 0.000000 0.225570 
#    y 0.000000 1.786460 0.000000 
#    z 0.225570 0.000000 1.638970 
# 
# From -- ./inp_files/121890.got.cif
#   From: 2010.05.17/outbox.cif.g08.bks.cpg/sg15_61_cif.got.tgz:121890.got - 2010.06.03 18:47:42.
