data_PCOD9282002
_publ_section_title
;
Structure prediction by ZEFSAII (Michael W. Deem and Ramdas Pophale) SiO2 
 PCOD9282002
Probable space group: C 2/C
;
_chemical_formula_sum "Si O2"
_cell_formula_units_Z 56
_cell_length_a 15.347803
_cell_length_b 14.807199
_cell_length_c 11.978619
_cell_angle_alpha 90.000000
_cell_angle_beta 97.232183
_cell_angle_gamma 90.000000
_cell_volume 2700.578956
_symmetry_space_group_name_H-M "C 2/C"
_symmetry_group_IT_number 15
_symmetry_cell_setting 'monoclinic'
loop_
_space_group_symop_operation_xyz
x,y,z
-x,y,1/2-z
-x,-y,-z
x,-y,1/2+z
1/2+x,1/2+y,z
1/2-x,1/2+y,1/2-z
1/2-x,1/2-y,-z
1/2+x,1/2-y,1/2+z
loop_
_atom_site_type_symbol
_atom_site_label
_atom_site_fract_x
_atom_site_fract_y
_atom_site_fract_z
Si Si1 0.561528 0.912167 0.004396
Si Si2 0.144396 0.806412 0.272033
Si Si3 0.991698 0.061086 0.374023
Si Si4 0.290495 0.119628 0.151120
Si Si5 0.003788 0.217257 0.559959
Si Si6 0.346863 0.527889 0.496673
Si Si7 0.726860 0.972398 0.159593
O O1 0.634224 0.926675 0.112866
O O2 0.621290 0.904780 0.902500
O O3 0.508042 0.818001 0.992211
O O4 0.500000 0.000000 0.000000
O O5 0.203024 0.717431 0.295301
O O6 0.091033 0.797041 0.147988
O O7 0.204933 0.893661 0.296594
O O8 0.074431 0.799643 0.362926
O O9 0.900792 0.010755 0.390251
O O10 0.000000 0.091761 0.250000
O O11 0.998982 0.144952 0.459536
O O12 0.070951 0.992046 0.409244
O O13 0.208615 0.115372 0.051782
O O14 0.280480 0.044543 0.244207
O O15 0.268248 0.480874 0.553710
#
# Coordination Sequence:
#
# PCOD9282002 Si02
#       7
#     8   8   8   8   8   8   8
#     4  10  23  41  62  87 127 169 218 269 318 381
#     4  10  21  38  67  94 128 170 219 269 324 395
#     4  11  22  38  61  94 135 169 209 259 326 397
#     4  10  22  39  65  92 124 168 222 271 320 387
#     4  10  21  39  62  92 130 168 217 264 327 385
#     4  10  22  38  60  90 129 166 207 258 326 380
#     4  11  21  39  65  91 126 166 217 263 324 384
#
# _framework density 20.736294999999998
#
# number of rings (size 3 to 8) (size 9 to 14) (size 15 to 20)
#    0.000    1.714    1.429    2.571    2.000    4.571 
#    2.571    0.000    0.000    6.000    0.000    0.000 
#    0.000    0.000    0.000    0.000    0.000    0.000 
#
# Total GULP energy -155963.813999 kJ/mol
# GULP energy per Si atom -5570.136214 kJ/mol
# Density = 2.068910 g / cm^3
# Si number density = 20.736295 Si / 1000 Ang^3
#
#
#
# Elastic Constant Matrix: (Units=GPa)
#
#
# Indices 1 2 3 4 5 6 
#
# 1 97.8018 53.1348 33.1896 0.0000 24.1956 0.0000
# 2 53.1348 158.8499 58.1402 0.0000 11.0466 0.0000
# 3 33.1896 58.1402 128.8101 0.0000 12.9533 0.0000
# 4 0.0000 0.0000 0.0000 40.8199 0.0000 1.8783
# 5 24.1956 11.0466 12.9533 0.0000 29.8737 0.0000
# 6 0.0000 0.0000 0.0000 1.8783 0.0000 36.3671
#
#
#
# Elastic Compliance Matrix: (Units=1/GPa)
#
#
# Indices 1 2 3 4 5 6 
#
# 1 0.015371 -0.004011 -0.001095 0.000000 -0.010492 0.000000
# 2 -0.004011 0.008642 -0.003003 0.000000 0.001355 0.000000
# 3 -0.001095 -0.003003 0.009620 0.000000 -0.002174 0.000000
# 4 0.000000 0.000000 0.000000 0.024556 0.000000 -0.001268
# 5 -0.010492 0.001355 -0.002174 0.000000 0.042413 0.000000
# 6 0.000000 0.000000 0.000000 -0.001268 0.000000 0.027563
#
#
# Mechanical properties :
#
#
# Convention : Reuss Voigt Hill
#
# Bulk Modulus (GPa) = 57.42663 74.93235 66.17949
# Shear Modulus (GPa) = 33.29141 37.47862 35.38502
#
# Velocity S-wave (km/s) = 4.01117 4.25596 4.13538
# Velocity P-wave (km/s) = 7.01474 7.76950 7.40175
#
# Compressibility (1/GPa) = 0.01741352
#
# Stress axis : x y z
#
# Youngs Moduli (GPa) = 65.05689 115.71364 103.95282
#
# Poissons Ratio (x) = 0.46415 0.11383
# Poissons Ratio (y) = 0.26096 0.31222
# Poissons Ratio (z) = 0.07124 0.34754
#
# Static dielectric constant tensor:
#      x y z
#    x 1.774050 0.000000 0.009650 
#    y 0.000000 1.754520 0.000000 
#    z 0.009650 0.000000 1.801170 
# 
# From -- ./inp_files/97044.got.cif
#   From: 2010.05.17/outbox.cif.g08.bks.cpg/sg15_49_cif.got.tgz:97044.got - 2010.06.03 18:47:42.
