data_PCOD9282065
_publ_section_title
;
Structure prediction by ZEFSAII (Michael W. Deem and Ramdas Pophale) SiO2 
 PCOD9282065
Probable space group: C 2/C
;
_chemical_formula_sum "Si O2"
_cell_formula_units_Z 56
_cell_length_a 9.718587
_cell_length_b 10.215642
_cell_length_c 23.235220
_cell_angle_alpha 90.000000
_cell_angle_beta 55.981425
_cell_angle_gamma 90.000000
_cell_volume 1912.030399
_symmetry_space_group_name_H-M "C 2/C"
_symmetry_group_IT_number 15
_symmetry_cell_setting 'monoclinic'
loop_
_space_group_symop_operation_xyz
x,y,z
-x,y,1/2-z
-x,-y,-z
x,-y,1/2+z
1/2+x,1/2+y,z
1/2-x,1/2+y,1/2-z
1/2-x,1/2-y,-z
1/2+x,1/2-y,1/2+z
loop_
_atom_site_type_symbol
_atom_site_label
_atom_site_fract_x
_atom_site_fract_y
_atom_site_fract_z
Si Si1 0.500000 0.428247 0.250000
Si Si2 0.919608 0.795388 0.430252
Si Si3 0.707019 0.037851 0.888929
Si Si4 0.095358 0.797492 0.860892
Si Si5 0.152933 0.311727 0.787666
Si Si6 0.500000 0.044414 0.750000
Si Si7 0.276478 0.466260 0.100171
Si Si8 0.254306 0.396233 0.977504
O O1 0.659311 0.508582 0.189977
O O2 0.417258 0.322621 0.225841
O O3 0.750000 0.750000 0.500000
O O4 0.828873 0.880010 0.402406
O O5 0.049670 0.886340 0.435616
O O6 0.048531 0.693035 0.370942
O O7 0.593919 0.150373 0.886538
O O8 0.638830 0.935201 0.951338
O O9 0.160533 0.796687 0.780487
O O10 0.211690 0.887740 0.875408
O O11 0.931115 0.880553 0.904486
O O12 0.094479 0.445791 0.771250
O O13 0.358067 0.104782 0.825715
O O14 0.238924 0.473859 0.041042
O O15 0.250000 0.250000 0.000000
#
# Coordination Sequence:
#
# PCOD9282065 Si02
#       8
#     4   8   8   8   8   4   8   8
#     4   7  14  34  57  90 114 162 221 263 332 412
#     4  11  21  34  66 107 135 177 232 285 351 425
#     4  10  21  38  69  94 131 176 227 288 349 410
#     4  10  21  43  69  97 131 174 237 303 344 422
#     4   8  17  34  60  93 131 163 219 283 351 414
#     4   9  20  38  63  92 130 176 221 299 350 410
#     4  11  23  41  66  99 135 175 236 290 352 420
#     4  12  27  42  60  95 138 185 229 284 361 432
#
# _framework density 29.288239000000001
#
# number of rings (size 3 to 8) (size 9 to 14) (size 15 to 20)
#    0.000    2.000    1.429    3.857    4.000    1.714 
#    0.000    2.143    3.143    0.000    0.000    0.000 
#    0.000    0.000    0.000    0.000    0.000    0.000 
#
# Total GULP energy -156349.386496 kJ/mol
# GULP energy per Si atom -5583.906661 kJ/mol
# Density = 2.922158 g / cm^3
# Si number density = 29.288239 Si / 1000 Ang^3
#
#
#
# Elastic Constant Matrix: (Units=GPa)
#
#
# Indices 1 2 3 4 5 6 
#
# 1 97.2369 26.3231 73.7296 0.0000 1.2463 0.0000
# 2 26.3231 94.9949 82.5899 0.0000 2.8290 0.0000
# 3 73.7296 82.5899 252.3655 0.0000 -7.0094 0.0000
# 4 0.0000 0.0000 0.0000 52.7475 0.0000 15.9680
# 5 1.2463 2.8290 -7.0094 0.0000 63.8143 0.0000
# 6 0.0000 0.0000 0.0000 15.9680 0.0000 22.1446
#
#
#
# Elastic Compliance Matrix: (Units=1/GPa)
#
#
# Indices 1 2 3 4 5 6 
#
# 1 0.013250 -0.000378 -0.003765 0.000000 -0.000656 0.000000
# 2 -0.000378 0.014814 -0.004770 0.000000 -0.001173 0.000000
# 3 -0.003765 -0.004770 0.006652 0.000000 0.001016 0.000000
# 4 0.000000 0.000000 0.000000 0.024252 0.000000 -0.017488
# 5 -0.000656 -0.001173 0.001016 0.000000 0.015847 0.000000
# 6 0.000000 0.000000 0.000000 -0.017488 0.000000 0.057768
#
#
# Mechanical properties :
#
#
# Convention : Reuss Voigt Hill
#
# Bulk Modulus (GPa) = 59.21334 89.98696 74.60015
# Shear Modulus (GPa) = 32.04308 45.20492 38.62400
#
# Velocity S-wave (km/s) = 3.31125 3.93294 3.63541
# Velocity P-wave (km/s) = 5.90597 7.17045 6.56871
#
# Compressibility (1/GPa) = 0.01688809
#
# Stress axis : x y z
#
# Youngs Moduli (GPa) = 75.47082 67.50449 150.33321
#
# Poissons Ratio (x) = 0.02554 0.56608
# Poissons Ratio (y) = 0.02855 0.71710
# Poissons Ratio (z) = 0.28418 0.32200
#
# Static dielectric constant tensor:
#      x y z
#    x 2.380410 0.000000 0.046680 
#    y 0.000000 2.388780 0.000000 
#    z 0.046680 0.000000 2.683200 
# 
# From -- ./inp_files/295932.got.cif
#   From: 2010.05.17/outbox.cif.g08.bks.cpg/sg15_148_cif.got.tgz:295932.got - 2010.06.03 18:47:42.
