data_PCOD9282572
_publ_section_title
;
Structure prediction by ZEFSAII (Michael W. Deem and Ramdas Pophale) SiO2 
 PCOD9282572
Probable space group: C 2/C
;
_chemical_formula_sum "Si O2"
_cell_formula_units_Z 60
_cell_length_a 15.165397
_cell_length_b 13.888263
_cell_length_c 23.469047
_cell_angle_alpha 90.000000
_cell_angle_beta 35.559900
_cell_angle_gamma 90.000000
_cell_volume 2874.663643
_symmetry_space_group_name_H-M "C 2/C"
_symmetry_group_IT_number 15
_symmetry_cell_setting 'monoclinic'
loop_
_space_group_symop_operation_xyz
x,y,z
-x,y,1/2-z
-x,-y,-z
x,-y,1/2+z
1/2+x,1/2+y,z
1/2-x,1/2+y,1/2-z
1/2-x,1/2-y,-z
1/2+x,1/2-y,1/2+z
loop_
_atom_site_type_symbol
_atom_site_label
_atom_site_fract_x
_atom_site_fract_y
_atom_site_fract_z
Si Si1 0.602243 0.130016 0.972205
Si Si2 0.861160 0.507739 0.658086
Si Si3 0.500000 0.711721 0.250000
Si Si4 0.489720 0.690038 0.933864
Si Si5 0.571611 0.333694 0.154668
Si Si6 0.482624 0.551148 0.167368
Si Si7 0.814445 0.385605 0.294452
Si Si8 0.862017 0.000853 0.027623
O O1 0.512912 0.230041 0.016315
O O2 0.496411 0.058371 0.063514
O O3 0.650477 0.086981 0.886310
O O4 0.750728 0.156755 0.929324
O O5 0.700583 0.449778 0.745419
O O6 0.896444 0.558222 0.699895
O O7 0.539088 0.635553 0.179322
O O8 0.384154 0.786720 0.281359
O O9 0.472855 0.725046 0.878031
O O10 0.651176 0.638252 0.852627
O O11 0.355886 0.612467 0.013277
O O12 0.500000 0.294363 0.250000
O O13 0.514986 0.444186 0.175122
O O14 0.576740 0.555974 0.059399
O O15 0.780477 0.454604 0.366139
O O16 0.000000 0.000000 0.000000
#
# Coordination Sequence:
#
# PCOD9282572 Si02
#       8
#     8   8   4   8   8   8   8   8
#     4  11  23  37  66 100 125 163 234 285 321 398
#     4  11  22  43  66  92 137 180 206 283 351 389
#     4  12  26  36  66 104 138 166 240 280 326 414
#     4  10  21  39  63  89 124 171 225 268 334 407
#     4  11  19  39  65  89 128 165 220 273 334 397
#     4  11  20  42  68  89 124 188 215 266 342 409
#     4  11  23  43  58  96 134 178 217 276 342 409
#     4   9  19  39  66  84 124 175 216 257 337 400
#
# _framework density 20.872007
#
# number of rings (size 3 to 8) (size 9 to 14) (size 15 to 20)
#    0.000    1.333    6.000    1.200    0.000    5.867 
#    4.800    0.000    0.000    0.000    0.000    0.000 
#    0.000    0.000    0.000    0.000    0.000    0.000 
#
# Total GULP energy -167303.044338 kJ/mol
# GULP energy per Si atom -5576.768145 kJ/mol
# Density = 2.082450 g / cm^3
# Si number density = 20.872007 Si / 1000 Ang^3
#
#
#
# Elastic Constant Matrix: (Units=GPa)
#
#
# Indices 1 2 3 4 5 6 
#
# 1 54.5225 4.0239 26.8093 0.0000 29.2518 0.0001
# 2 4.0239 68.8158 37.1841 -0.0001 27.4148 0.0001
# 3 26.8093 37.1841 113.7235 -0.0004 39.1184 0.0002
# 4 0.0000 -0.0001 -0.0004 21.5032 0.0001 -6.2331
# 5 29.2518 27.4148 39.1184 0.0001 37.5301 -0.0001
# 6 0.0001 0.0001 0.0002 -6.2331 -0.0001 19.1460
#
#
#
# Elastic Compliance Matrix: (Units=1/GPa)
#
#
# Indices 1 2 3 4 5 6 
#
# 1 0.039136 0.013852 0.000340 0.000000 -0.040976 0.000000
# 2 0.013852 0.025835 -0.002350 0.000000 -0.027219 0.000000
# 3 0.000340 -0.002350 0.014003 0.000000 -0.013143 0.000000
# 4 0.000000 0.000000 0.000000 0.051351 -0.000001 0.016717
# 5 -0.040976 -0.027219 -0.013143 -0.000001 0.092165 0.000000
# 6 0.000000 0.000000 0.000000 0.016717 0.000000 0.057673
#
#
# Mechanical properties :
#
#
# Convention : Reuss Voigt Hill
#
# Bulk Modulus (GPa) = 9.74122 41.45515 25.59818
# Shear Modulus (GPa) = 17.20007 26.90552 22.05279
#
# Velocity S-wave (km/s) = 2.87378 3.59426 3.25402
# Velocity P-wave (km/s) = 3.96090 6.09341 5.13899
#
# Compressibility (1/GPa) = 0.10265654
#
# Stress axis : x y z
#
# Youngs Moduli (GPa) = 25.55214 38.70749 71.41554
#
# Poissons Ratio (x) = -0.53618 -0.02426
# Poissons Ratio (y) = -0.35395 0.16783
# Poissons Ratio (z) = -0.00868 0.09096
#
# Static dielectric constant tensor:
#      x y z
#    x 1.767960 0.000000 -0.001540 
#    y 0.000000 1.824460 0.000000 
#    z -0.001540 0.000000 1.788910 
# 
# From -- ./inp_files/277537.got.cif
#   From: 2010.05.17/outbox.cif.g08.bks.cpg/sg15_139_cif.got.tgz:277537.got - 2010.06.03 18:47:42.
