data_PCOD9282182
_publ_section_title
;
Structure prediction by ZEFSAII (Michael W. Deem and Ramdas Pophale) SiO2 
 PCOD9282182
Probable space group: C 2/C
;
_chemical_formula_sum "Si O2"
_cell_formula_units_Z 40
_cell_length_a 7.156477
_cell_length_b 23.231187
_cell_length_c 18.700471
_cell_angle_alpha 90.000000
_cell_angle_beta 30.029351
_cell_angle_gamma 90.000000
_cell_volume 1555.888042
_symmetry_space_group_name_H-M "C 2/C"
_symmetry_group_IT_number 15
_symmetry_cell_setting 'monoclinic'
loop_
_space_group_symop_operation_xyz
x,y,z
-x,y,1/2-z
-x,-y,-z
x,-y,1/2+z
1/2+x,1/2+y,z
1/2-x,1/2+y,1/2-z
1/2-x,1/2-y,-z
1/2+x,1/2-y,1/2+z
loop_
_atom_site_type_symbol
_atom_site_label
_atom_site_fract_x
_atom_site_fract_y
_atom_site_fract_z
Si Si1 0.128935 0.231909 0.279842
Si Si2 0.762896 0.853347 0.528195
Si Si3 0.861095 0.332791 0.457541
Si Si4 0.762332 0.911817 0.236130
Si Si5 0.074927 0.472241 0.646137
O O1 0.497290 0.199962 0.132559
O O2 0.000000 0.262479 0.250000
O O3 0.097920 0.277104 0.354080
O O4 0.846462 0.181950 0.400811
O O5 0.569277 0.915857 0.600012
O O6 0.054414 0.844879 0.496831
O O7 0.950516 0.863416 0.388721
O O8 0.105370 0.388426 0.363035
O O9 0.500000 0.913090 0.250000
O O10 0.750638 0.980196 0.254982
O O11 0.500000 0.500000 0.500000
O O12 0.000000 0.448950 0.750000
#
# Coordination Sequence:
#
# PCOD9282182 Si02
#       5
#     8   8   8   8   8
#     4  11  24  38  57  86 120 157 194 243 293 354
#     4  11  21  37  61  87 120 153 195 246 296 346
#     4  10  21  39  59  83 114 152 204 239 285 349
#     4   9  18  32  55  90 114 141 191 253 292 336
#     4  11  17  30  56  94 117 141 190 260 296 331
#
# _framework density 25.708791999999999
#
# number of rings (size 3 to 8) (size 9 to 14) (size 15 to 20)
#    0.000    1.600    6.000    3.600    0.000    3.200 
#    0.000    3.000    0.000    4.800    0.000    0.000 
#    0.000    0.000    0.000    0.000    0.000    0.000 
#
# Total GULP energy -111446.482177 kJ/mol
# GULP energy per Si atom -5572.324109 kJ/mol
# Density = 2.565028 g / cm^3
# Si number density = 25.708792 Si / 1000 Ang^3
#
#
#
# Elastic Constant Matrix: (Units=GPa)
#
#
# Indices 1 2 3 4 5 6 
#
# 1 56.6227 -13.4602 10.5396 -0.0005 5.7076 0.0002
# 2 -13.4602 93.9368 5.8086 0.0015 -16.0802 -0.0011
# 3 10.5396 5.8086 94.6897 -0.0052 14.0916 0.0018
# 4 -0.0005 0.0015 -0.0052 68.0883 0.0021 7.5582
# 5 5.7076 -16.0802 14.0916 0.0021 36.7691 -0.0013
# 6 0.0002 -0.0011 0.0018 7.5582 -0.0013 9.5628
#
#
#
# Elastic Compliance Matrix: (Units=1/GPa)
#
#
# Indices 1 2 3 4 5 6 
#
# 1 0.018782 0.002661 -0.002114 0.000000 -0.000942 0.000000
# 2 0.002661 0.012100 -0.001871 -0.000001 0.005596 0.000003
# 3 -0.002114 -0.001871 0.011648 0.000002 -0.004954 -0.000004
# 4 0.000000 -0.000001 0.000002 0.016099 -0.000002 -0.012724
# 5 -0.000942 0.005596 -0.004954 -0.000002 0.031689 0.000008
# 6 0.000000 0.000003 -0.000004 -0.012724 0.000008 0.114629
#
#
# Mechanical properties :
#
#
# Convention : Reuss Voigt Hill
#
# Bulk Modulus (GPa) = 25.07404 27.89170 26.48287
# Shear Modulus (GPa) = 22.63579 39.04145 30.83862
#
# Velocity S-wave (km/s) = 2.97049 3.90115 3.46719
# Velocity P-wave (km/s) = 4.64105 5.58253 5.13342
#
# Compressibility (1/GPa) = 0.03988189
#
# Stress axis : x y z
#
# Youngs Moduli (GPa) = 53.24355 82.64237 85.85052
#
# Poissons Ratio (x) = -0.21989 0.18145
# Poissons Ratio (y) = -0.14166 0.16064
# Poissons Ratio (z) = 0.11253 0.15464
#
# Static dielectric constant tensor:
#      x y z
#    x 2.162790 0.000000 -0.160640 
#    y 0.000000 2.013750 0.000000 
#    z -0.160640 0.000000 2.328770 
# 
# From -- ./inp_files/234359.got.cif
#   From: 2010.05.17/outbox.cif.g08.bks.cpg/sg15_118_cif.got.tgz:234359.got - 2010.06.03 18:47:42.
