data_PCOD9282633
_publ_section_title
;
Structure prediction by ZEFSAII (Michael W. Deem and Ramdas Pophale) SiO2 
 PCOD9282633
Probable space group: C 2/C
;
_chemical_formula_sum "Si O2"
_cell_formula_units_Z 64
_cell_length_a 19.090764
_cell_length_b 9.041724
_cell_length_c 22.324076
_cell_angle_alpha 90.000000
_cell_angle_beta 128.448939
_cell_angle_gamma 90.000000
_cell_volume 3017.866318
_symmetry_space_group_name_H-M "C 2/C"
_symmetry_group_IT_number 15
_symmetry_cell_setting 'monoclinic'
loop_
_space_group_symop_operation_xyz
x,y,z
-x,y,1/2-z
-x,-y,-z
x,-y,1/2+z
1/2+x,1/2+y,z
1/2-x,1/2+y,1/2-z
1/2-x,1/2-y,-z
1/2+x,1/2-y,1/2+z
loop_
_atom_site_type_symbol
_atom_site_label
_atom_site_fract_x
_atom_site_fract_y
_atom_site_fract_z
Si Si1 0.942463 0.602465 0.012357
Si Si2 0.704332 0.402709 0.122592
Si Si3 0.722478 0.731782 0.135051
Si Si4 0.324299 0.504652 0.651394
Si Si5 0.952818 0.139694 0.134982
Si Si6 0.835983 0.348182 0.998540
Si Si7 0.158793 0.780519 0.738263
Si Si8 0.978969 0.083603 0.926034
O O1 0.859645 0.670009 0.932077
O O2 0.906772 0.481713 0.038863
O O3 0.000000 0.500000 0.000000
O O4 0.993349 0.746308 0.061512
O O5 0.716204 0.567832 0.103775
O O6 0.668720 0.277156 0.057242
O O7 0.796981 0.352436 0.200865
O O8 0.628147 0.417454 0.132944
O O9 0.702819 0.720073 0.195731
O O10 0.808246 0.823611 0.157785
O O11 0.417057 0.444395 0.674509
O O12 0.252456 0.443449 0.564426
O O13 0.309640 0.422715 0.706829
O O14 0.050320 0.219686 0.183863
O O15 0.871943 0.249556 0.072487
O O16 0.969690 0.010588 0.095615
O O17 0.000000 0.000000 0.000000
#
# Coordination Sequence:
#
# PCOD9282633 Si02
#       8
#     8   8   8   8   8   8   8   8
#     4  11  19  33  60  99 129 158 217 278 322 384
#     4  11  21  39  61  96 126 166 224 275 321 387
#     4  11  21  39  63  93 127 167 219 276 325 392
#     4  10  25  41  64  95 130 167 218 273 336 395
#     4  12  22  43  65  92 132 177 212 272 340 401
#     4  10  21  39  63  93 128 168 216 269 324 392
#     4  11  23  40  63  89 124 175 217 265 331 402
#     4  12  20  37  64  95 130 172 219 276 330 388
#
# _framework density 21.207035000000001
#
# number of rings (size 3 to 8) (size 9 to 14) (size 15 to 20)
#    0.000    1.000    5.000    2.250    0.000    0.000 
#    2.250    8.125    0.000    3.000    0.000    0.000 
#    0.000    0.000    0.000    0.000    0.000    0.000 
#
# Total GULP energy -178217.762516 kJ/mol
# GULP energy per Si atom -5569.305079 kJ/mol
# Density = 2.115877 g / cm^3
# Si number density = 21.207035 Si / 1000 Ang^3
#
#
#
# Elastic Constant Matrix: (Units=GPa)
#
#
# Indices 1 2 3 4 5 6 
#
# 1 71.7606 42.8880 23.5907 0.0000 -0.9942 0.0000
# 2 42.8880 158.6230 30.6402 0.0000 -4.4707 0.0000
# 3 23.5907 30.6402 55.8325 0.0000 13.8576 0.0000
# 4 0.0000 0.0000 0.0000 30.1483 0.0000 10.2779
# 5 -0.9942 -4.4707 13.8576 0.0000 17.2831 0.0000
# 6 0.0000 0.0000 0.0000 10.2779 0.0000 28.8828
#
#
#
# Elastic Compliance Matrix: (Units=1/GPa)
#
#
# Indices 1 2 3 4 5 6 
#
# 1 0.018509 -0.003379 -0.007507 0.000000 0.006210 0.000000
# 2 -0.003379 0.008235 -0.004459 0.000000 0.005511 0.000000
# 3 -0.007507 -0.004459 0.029867 0.000000 -0.025533 0.000000
# 4 0.000000 0.000000 0.000000 0.037749 0.000000 -0.013433
# 5 0.006210 0.005511 -0.025533 0.000000 0.080115 0.000000
# 6 0.000000 0.000000 0.000000 -0.013433 0.000000 0.039403
#
#
# Mechanical properties :
#
#
# Convention : Reuss Voigt Hill
#
# Bulk Modulus (GPa) = 38.58136 53.38379 45.98257
# Shear Modulus (GPa) = 19.74665 27.86931 23.80798
#
# Velocity S-wave (km/s) = 3.05476 3.62906 3.35422
# Velocity P-wave (km/s) = 5.53844 6.54121 6.06060
#
# Compressibility (1/GPa) = 0.02591925
#
# Stress axis : x y z
#
# Youngs Moduli (GPa) = 54.02829 121.43946 33.48183
#
# Poissons Ratio (x) = 0.41037 0.25136
# Poissons Ratio (y) = 0.18257 0.14930
# Poissons Ratio (z) = 0.40561 0.54150
#
# Static dielectric constant tensor:
#      x y z
#    x 1.841750 0.000000 0.109660 
#    y 0.000000 1.765100 0.000000 
#    z 0.109660 0.000000 1.888950 
# 
# From -- ./inp_files/279605.got.cif
#   From: 2010.05.17/outbox.cif.g08.bks.cpg/sg15_140_cif.got.tgz:279605.got - 2010.06.03 18:47:42.
