data_PCOD9282711
_publ_section_title
;
Structure prediction by ZEFSAII (Michael W. Deem and Ramdas Pophale) SiO2 
 PCOD9282711
Probable space group: C 2/C
;
_chemical_formula_sum "Si O2"
_cell_formula_units_Z 48
_cell_length_a 7.713479
_cell_length_b 29.696406
_cell_length_c 12.173520
_cell_angle_alpha 90.000000
_cell_angle_beta 131.332322
_cell_angle_gamma 90.000000
_cell_volume 2093.860121
_symmetry_space_group_name_H-M "C 2/C"
_symmetry_group_IT_number 15
_symmetry_cell_setting 'monoclinic'
loop_
_space_group_symop_operation_xyz
x,y,z
-x,y,1/2-z
-x,-y,-z
x,-y,1/2+z
1/2+x,1/2+y,z
1/2-x,1/2+y,1/2-z
1/2-x,1/2-y,-z
1/2+x,1/2-y,1/2+z
loop_
_atom_site_type_symbol
_atom_site_label
_atom_site_fract_x
_atom_site_fract_y
_atom_site_fract_z
Si Si1 0.265000 0.944863 0.591147
Si Si2 0.412320 0.186218 0.839300
Si Si3 0.779259 0.123510 0.079697
Si Si4 0.257929 0.275058 0.888300
Si Si5 0.520937 0.637076 0.570973
Si Si6 0.140282 0.974016 0.907915
O O1 0.500000 0.931771 0.750000
O O2 0.159492 0.902508 0.481173
O O3 0.064951 0.958538 0.594985
O O4 0.298596 0.989573 0.532978
O O5 0.500000 0.187359 0.750000
O O6 0.359627 0.237479 0.849580
O O7 0.183378 0.155500 0.734974
O O8 0.584555 0.162046 0.997955
O O9 0.731877 0.070771 0.084387
O O10 0.000000 0.134965 0.250000
O O11 0.827505 0.120534 0.969069
O O12 0.000000 0.287578 0.750000
O O13 0.250000 0.250000 0.000000
O O14 0.401480 0.319658 0.966470
O O15 0.000000 0.996330 0.750000
#
# Coordination Sequence:
#
# PCOD9282711 Si02
#       6
#     8   8   8   8   8   8
#     4  10  21  39  64  88 124 166 205 255 310 365
#     4  10  23  43  65  90 121 168 212 254 312 373
#     4   9  20  37  65  92 120 158 209 256 301 364
#     4  12  25  43  61  89 130 163 204 262 314 368
#     4  10  22  41  59  88 123 161 209 253 307 373
#     4   9  20  40  59  92 126 156 204 258 309 365
#
# _framework density 22.924168000000002
#
# number of rings (size 3 to 8) (size 9 to 14) (size 15 to 20)
#    0.000    2.000    1.667    0.500    2.333    8.667 
#    6.000    0.000    0.000    0.000    0.000    0.000 
#    0.000    0.000    0.000    0.000    0.000    0.000 
#
# Total GULP energy -133977.023737 kJ/mol
# GULP energy per Si atom -5582.375989 kJ/mol
# Density = 2.287199 g / cm^3
# Si number density = 22.924168 Si / 1000 Ang^3
#
#
#
# Elastic Constant Matrix: (Units=GPa)
#
#
# Indices 1 2 3 4 5 6 
#
# 1 36.3084 10.7925 -0.4604 0.0000 -3.1692 0.0000
# 2 10.7925 116.5840 51.9024 0.0000 17.6765 0.0000
# 3 -0.4604 51.9024 120.9187 0.0000 18.6980 0.0000
# 4 0.0000 0.0000 0.0000 21.3842 0.0000 -12.0083
# 5 -3.1692 17.6765 18.6980 0.0000 28.8426 0.0000
# 6 0.0000 0.0000 0.0000 -12.0083 0.0000 0.4562
#
#
#
# Elastic Compliance Matrix: (Units=1/GPa)
#
#
# Indices 1 2 3 4 5 6 
#
# 1 0.029145 -0.003901 0.001023 0.000000 0.004930 0.000000
# 2 -0.003901 0.011545 -0.004235 0.000000 -0.004759 0.000000
# 3 0.001023 -0.004235 0.010751 0.000000 -0.004262 0.000000
# 4 0.000000 0.000000 0.000000 -0.003393 0.000000 -0.089319
# 5 0.004930 -0.004759 -0.004262 0.000000 0.040892 0.000000
# 6 0.000000 0.000000 0.000000 -0.089319 0.000000 -0.159058
#
#
# Mechanical properties :
#
#
# Convention : Reuss Voigt Hill
#
# Bulk Modulus (GPa) = 26.87040 44.25334 35.56187
# Shear Modulus (GPa) = -114.97282 24.24172 -45.36555
#
# Velocity S-wave (km/s) = -7.08960 3.25541 -4.45335
# Velocity P-wave (km/s) = 7.43436 5.78588 3.30101
#
# Compressibility (1/GPa) = 0.03721567
#
# Stress axis : x y z
#
# Youngs Moduli (GPa) = 34.31155 86.61428 93.01851
#
# Poissons Ratio (x) = 0.33788 -0.09516
# Poissons Ratio (y) = 0.13385 0.39390
# Poissons Ratio (z) = -0.03510 0.36678
#
# Static dielectric constant tensor:
#      x y z
#    x 1.945900 0.000000 0.032880 
#    y 0.000000 1.816490 0.000000 
#    z 0.032880 0.000000 1.771900 
# 
# From -- ./inp_files/139039.got.cif
#   From: 2010.05.17/outbox.cif.g08.bks.cpg/sg15_70_cif.got.tgz:139039.got - 2010.06.03 18:47:42.
