data_PCOD9282390
_publ_section_title
;
Structure prediction by ZEFSAII (Michael W. Deem and Ramdas Pophale) SiO2 
 PCOD9282390
Probable space group: C 2/C
;
_chemical_formula_sum "Si O2"
_cell_formula_units_Z 56
_cell_length_a 25.937988
_cell_length_b 11.121180
_cell_length_c 15.009939
_cell_angle_alpha 90.000000
_cell_angle_beta 33.033750
_cell_angle_gamma 90.000000
_cell_volume 2360.307151
_symmetry_space_group_name_H-M "C 2/C"
_symmetry_group_IT_number 15
_symmetry_cell_setting 'monoclinic'
loop_
_space_group_symop_operation_xyz
x,y,z
-x,y,1/2-z
-x,-y,-z
x,-y,1/2+z
1/2+x,1/2+y,z
1/2-x,1/2+y,1/2-z
1/2-x,1/2-y,-z
1/2+x,1/2-y,1/2+z
loop_
_atom_site_type_symbol
_atom_site_label
_atom_site_fract_x
_atom_site_fract_y
_atom_site_fract_z
Si Si1 0.809280 0.267631 0.141428
Si Si2 0.142787 0.396754 0.152574
Si Si3 0.101971 0.992805 0.966765
Si Si4 0.821397 0.822522 0.013541
Si Si5 0.438807 0.646149 0.746575
Si Si6 0.274471 0.585676 0.876774
Si Si7 0.003738 0.406783 0.636694
O O1 0.853675 0.137987 0.083076
O O2 0.722454 0.262842 0.334736
O O3 0.777171 0.299043 0.088818
O O4 0.888645 0.371452 0.047100
O O5 0.225729 0.366532 0.102627
O O6 0.051969 0.474273 0.316369
O O7 0.123761 0.270832 0.129363
O O8 0.197409 0.483417 0.004568
O O9 0.117020 0.071734 0.033580
O O10 0.155826 0.048914 0.805005
O O11 0.993322 0.958914 0.113583
O O12 0.500000 0.651593 0.750000
O O13 0.331622 0.608861 0.883900
O O14 0.449353 0.781916 0.693103
O O15 0.000000 0.419597 0.750000
#
# Coordination Sequence:
#
# PCOD9282390 Si02
#       7
#     8   8   8   8   8   8   8
#     4  10  21  40  67  96 128 175 226 281 330 393
#     4  11  22  40  63  93 134 174 222 269 348 401
#     4  10  21  41  63  93 132 166 226 279 328 401
#     4  10  23  40  63  96 133 180 218 275 340 412
#     4  10  22  38  61  97 126 164 218 281 336 387
#     4  11  21  37  69  90 128 175 221 281 332 398
#     4  10  21  39  61  95 132 167 217 283 327 392
#
# _framework density 23.725726000000002
#
# number of rings (size 3 to 8) (size 9 to 14) (size 15 to 20)
#    0.000    1.714    2.857    1.286    2.000    1.143 
#    0.000    3.571    6.286    0.000    0.000    0.000 
#    0.000    0.000    0.000    0.000    0.000    0.000 
#
# Total GULP energy -156193.363144 kJ/mol
# GULP energy per Si atom -5578.334398 kJ/mol
# Density = 2.367173 g / cm^3
# Si number density = 23.725726 Si / 1000 Ang^3
#
#
#
# Elastic Constant Matrix: (Units=GPa)
#
#
# Indices 1 2 3 4 5 6 
#
# 1 87.9474 46.6265 9.3689 0.0000 -10.4381 0.0000
# 2 46.6265 96.4876 24.3705 0.0000 -12.0086 0.0000
# 3 9.3689 24.3705 45.7784 0.0000 -2.4704 0.0000
# 4 0.0000 0.0000 0.0000 29.5299 0.0000 10.3832
# 5 -10.4381 -12.0086 -2.4704 0.0000 31.7428 0.0000
# 6 0.0000 0.0000 0.0000 10.3832 0.0000 3.5500
#
#
#
# Elastic Compliance Matrix: (Units=1/GPa)
#
#
# Indices 1 2 3 4 5 6 
#
# 1 0.015487 -0.007420 0.000908 0.000000 0.002356 0.000001
# 2 -0.007420 0.016071 -0.006870 0.000001 0.003105 -0.000002
# 3 0.000908 -0.006870 0.025298 0.000000 -0.000332 0.000000
# 4 0.000000 0.000001 0.000000 -1.190692 0.000000 3.482640
# 5 0.002356 0.003105 -0.000332 0.000000 0.033427 0.000001
# 6 0.000001 -0.000002 0.000000 3.482640 0.000001 -9.904636
#
#
# Mechanical properties :
#
#
# Convention : Reuss Voigt Hill
#
# Bulk Modulus (GPa) = 33.23086 43.43837 38.33462
# Shear Modulus (GPa) = -0.45586 22.95435 11.24924
#
# Velocity S-wave (km/s) = -0.43881 3.11382 2.17983
# Velocity P-wave (km/s) = 3.71213 5.59251 4.74637
#
# Compressibility (1/GPa) = 0.03009251
#
# Stress axis : x y z
#
# Youngs Moduli (GPa) = 64.56931 62.22302 39.52917
#
# Poissons Ratio (x) = 0.46170 -0.03588
# Poissons Ratio (y) = 0.47911 0.27155
# Poissons Ratio (z) = -0.05861 0.42744
#
# Static dielectric constant tensor:
#      x y z
#    x 1.917300 0.000000 0.009080 
#    y 0.000000 1.901490 0.000000 
#    z 0.009080 0.000000 1.994760 
# 
# From -- ./inp_files/222000.got.cif
#   From: 2010.05.17/outbox.cif.g08.bks.cpg/sg15_111_cif.got.tgz:222000.got - 2010.06.03 18:47:42.
