data_PCOD9282056
_publ_section_title
;
Structure prediction by ZEFSAII (Michael W. Deem and Ramdas Pophale) SiO2 
 PCOD9282056
Probable space group: C 2/C
;
_chemical_formula_sum "Si O2"
_cell_formula_units_Z 44
_cell_length_a 7.697260
_cell_length_b 32.699914
_cell_length_c 9.239332
_cell_angle_alpha 90.000000
_cell_angle_beta 58.328565
_cell_angle_gamma 90.000000
_cell_volume 1979.202097
_symmetry_space_group_name_H-M "C 2/C"
_symmetry_group_IT_number 15
_symmetry_cell_setting 'monoclinic'
loop_
_space_group_symop_operation_xyz
x,y,z
-x,y,1/2-z
-x,-y,-z
x,-y,1/2+z
1/2+x,1/2+y,z
1/2-x,1/2+y,1/2-z
1/2-x,1/2-y,-z
1/2+x,1/2-y,1/2+z
loop_
_atom_site_type_symbol
_atom_site_label
_atom_site_fract_x
_atom_site_fract_y
_atom_site_fract_z
Si Si1 0.913513 0.537752 0.949182
Si Si2 0.023031 0.122135 0.500916
Si Si3 0.656694 0.708225 0.369634
Si Si4 0.664552 0.882168 0.367626
Si Si5 0.521826 0.795253 0.501219
Si Si6 0.000000 0.935213 0.750000
O O1 0.000000 0.531975 0.750000
O O2 0.003129 0.581891 0.956210
O O3 0.673827 0.539199 0.092066
O O4 0.000000 0.500000 0.000000
O O5 0.013214 0.169440 0.457838
O O6 0.189731 0.118409 0.555203
O O7 0.084239 0.094383 0.339205
O O8 0.808431 0.109520 0.666331
O O9 0.550021 0.752113 0.409787
O O10 0.811916 0.707416 0.439891
O O11 0.800748 0.701887 0.169434
O O12 0.571069 0.836892 0.396476
#
# Coordination Sequence:
#
# PCOD9282056 Si02
#       6
#     8   8   8   8   8   4
#     4  12  29  50  73 103 134 171 218 280 340 410
#     4  10  21  38  68  99 135 181 222 273 329 400
#     4   9  16  28  50  91 127 172 226 269 322 371
#     4  10  21  42  67  97 133 176 228 274 335 399
#     4   9  16  28  54  86 128 172 223 279 313 382
#     4  12  26  46  74 100 142 174 216 274 340 400
#
# _framework density 22.231182
#
# number of rings (size 3 to 8) (size 9 to 14) (size 15 to 20)
#    0.000    1.818    1.818    2.182    2.545    8.000 
#    0.000    0.000    2.000    3.273    0.000    0.000 
#    0.000    0.000    0.000    0.000    0.000    0.000 
#
# Total GULP energy -123031.859661 kJ/mol
# GULP energy per Si atom -5592.357257 kJ/mol
# Density = 2.218058 g / cm^3
# Si number density = 22.231182 Si / 1000 Ang^3
#
#
#
# Elastic Constant Matrix: (Units=GPa)
#
#
# Indices 1 2 3 4 5 6 
#
# 1 48.4557 38.3081 40.9218 0.0000 -3.8713 0.0000
# 2 38.3081 104.8077 41.9149 0.0000 -1.5369 0.0000
# 3 40.9218 41.9149 145.7099 0.0000 -12.8236 0.0000
# 4 0.0000 0.0000 0.0000 11.2550 0.0000 -5.3235
# 5 -3.8713 -1.5369 -12.8236 0.0000 34.8336 0.0000
# 6 0.0000 0.0000 0.0000 -5.3235 0.0000 19.6462
#
#
#
# Elastic Compliance Matrix: (Units=1/GPa)
#
#
# Indices 1 2 3 4 5 6 
#
# 1 0.034074 -0.009770 -0.006680 0.000000 0.000897 0.000000
# 2 -0.009770 0.013599 -0.001251 0.000000 -0.000946 0.000000
# 3 -0.006680 -0.001251 0.009331 0.000000 0.002638 0.000000
# 4 0.000000 0.000000 0.000000 0.101911 0.000000 0.027614
# 5 0.000897 -0.000946 0.002638 0.000000 0.029737 0.000000
# 6 0.000000 0.000000 0.000000 0.027614 0.000000 0.058383
#
#
# Mechanical properties :
#
#
# Convention : Reuss Voigt Hill
#
# Bulk Modulus (GPa) = 46.29296 60.14034 53.21665
# Shear Modulus (GPa) = 17.26291 25.00219 21.13255
#
# Velocity S-wave (km/s) = 2.78963 3.35721 3.08649
# Velocity P-wave (km/s) = 5.58969 6.49144 6.05737
#
# Compressibility (1/GPa) = 0.02160156
#
# Stress axis : x y z
#
# Youngs Moduli (GPa) = 29.34746 73.53609 107.16766
#
# Poissons Ratio (x) = 0.71843 0.71592
# Poissons Ratio (y) = 0.28672 0.13410
# Poissons Ratio (z) = 0.19605 0.09202
#
# Static dielectric constant tensor:
#      x y z
#    x 1.966650 0.000000 -0.045410 
#    y 0.000000 1.771810 0.000000 
#    z -0.045410 0.000000 1.836510 
# 
# From -- ./inp_files/26008.got.cif
#   From: 2010.05.17/outbox.cif.g08.bks.cpg/sg15_14_cif.got.tgz:26008.got - 2010.06.03 18:47:42.
