data_PCOD9282449
_publ_section_title
;
Structure prediction by ZEFSAII (Michael W. Deem and Ramdas Pophale) SiO2 
 PCOD9282449
Probable space group: C 2/C
;
_chemical_formula_sum "Si O2"
_cell_formula_units_Z 56
_cell_length_a 11.466708
_cell_length_b 20.721959
_cell_length_c 15.352765
_cell_angle_alpha 90.000000
_cell_angle_beta 50.325590
_cell_angle_gamma 90.000000
_cell_volume 2807.818683
_symmetry_space_group_name_H-M "C 2/C"
_symmetry_group_IT_number 15
_symmetry_cell_setting 'monoclinic'
loop_
_space_group_symop_operation_xyz
x,y,z
-x,y,1/2-z
-x,-y,-z
x,-y,1/2+z
1/2+x,1/2+y,z
1/2-x,1/2+y,1/2-z
1/2-x,1/2-y,-z
1/2+x,1/2-y,1/2+z
loop_
_atom_site_type_symbol
_atom_site_label
_atom_site_fract_x
_atom_site_fract_y
_atom_site_fract_z
Si Si1 0.626480 0.554466 0.939610
Si Si2 0.651556 0.910763 0.320178
Si Si3 0.087155 0.507672 0.116579
Si Si4 0.958150 0.710146 0.858710
Si Si5 0.519886 0.268141 0.136546
Si Si6 0.800472 0.642514 0.511502
Si Si7 0.382616 0.304988 0.035877
O O1 0.710397 0.565945 0.806549
O O2 0.761880 0.534193 0.939821
O O3 0.556247 0.622846 0.999446
O O4 0.500000 0.500000 0.000000
O O5 0.556849 0.854455 0.317157
O O6 0.701410 0.879292 0.386904
O O7 0.532689 0.969895 0.387167
O O8 0.141869 0.578421 0.063782
O O9 0.000000 0.511508 0.250000
O O10 0.782397 0.693056 0.929103
O O11 0.000000 0.746921 0.750000
O O12 0.976608 0.753598 0.935051
O O13 0.500000 0.262242 0.250000
O O14 0.589626 0.201763 0.066190
O O15 0.380617 0.283923 0.138325
O O16 0.637115 0.327344 0.066697
#
# Coordination Sequence:
#
# PCOD9282449 Si02
#       7
#     8   8   8   8   8   8   8
#     4  11  22  39  65  93 129 168 216 271 333 389
#     4  11  20  42  65  92 124 177 221 261 330 397
#     4  10  21  39  62  90 123 171 220 263 323 391
#     4  11  21  39  67  95 123 173 221 273 327 387
#     4  11  24  39  60  93 132 171 210 273 333 390
#     4  11  23  39  61  90 130 170 219 261 327 400
#     4  11  22  39  65  96 129 164 225 272 322 390
#
# _framework density 19.944307999999999
#
# number of rings (size 3 to 8) (size 9 to 14) (size 15 to 20)
#    0.000    1.143    4.286    3.000    0.000    0.000 
#    0.000    4.286    0.000    0.000    0.000    0.000 
#    0.000    0.000    0.000    0.000    0.000    0.000 
#
# Total GULP energy -156258.163092 kJ/mol
# GULP energy per Si atom -5580.648682 kJ/mol
# Density = 1.989891 g / cm^3
# Si number density = 19.944308 Si / 1000 Ang^3
#
#
#
# Elastic Constant Matrix: (Units=GPa)
#
#
# Indices 1 2 3 4 5 6 
#
# 1 68.2259 49.1580 30.2619 0.0000 7.4731 0.0000
# 2 49.1580 142.1485 58.1837 0.0000 3.4840 0.0000
# 3 30.2619 58.1837 78.1503 0.0000 3.2123 0.0000
# 4 0.0000 0.0000 0.0000 29.2067 0.0000 -5.7301
# 5 7.4731 3.4840 3.2123 0.0000 28.4603 0.0000
# 6 0.0000 0.0000 0.0000 -5.7301 0.0000 19.3073
#
#
#
# Elastic Compliance Matrix: (Units=1/GPa)
#
#
# Indices 1 2 3 4 5 6 
#
# 1 0.020795 -0.005554 -0.003738 0.000000 -0.004358 0.000000
# 2 -0.005554 0.011606 -0.006522 0.000000 0.000774 0.000000
# 3 -0.003738 -0.006522 0.019114 0.000000 -0.000378 0.000000
# 4 0.000000 0.000000 0.000000 0.036356 0.000000 0.010790
# 5 -0.004358 0.000774 -0.000378 0.000000 0.036229 0.000000
# 6 0.000000 0.000000 0.000000 0.010790 0.000000 0.054996
#
#
# Mechanical properties :
#
#
# Convention : Reuss Voigt Hill
#
# Bulk Modulus (GPa) = 50.28423 62.63688 56.46055
# Shear Modulus (GPa) = 23.00402 25.45626 24.23014
#
# Velocity S-wave (km/s) = 3.39988 3.57650 3.48931
# Velocity P-wave (km/s) = 6.37803 6.96629 6.67864
#
# Compressibility (1/GPa) = 0.01988695
#
# Stress axis : x y z
#
# Youngs Moduli (GPa) = 48.08952 86.15961 52.31650
#
# Poissons Ratio (x) = 0.47857 0.19554
# Poissons Ratio (y) = 0.26711 0.34121
# Poissons Ratio (z) = 0.17974 0.56193
#
# Static dielectric constant tensor:
#      x y z
#    x 1.742320 0.000000 0.007210 
#    y 0.000000 1.693030 0.000000 
#    z 0.007210 0.000000 1.722580 
# 
# From -- ./inp_files/145962.got.cif
#   From: 2010.05.17/outbox.cif.g08.bks.cpg/sg15_73_cif.got.tgz:145962.got - 2010.06.03 18:47:42.
