data_PCOD9282672
_publ_section_title
;
Structure prediction by ZEFSAII (Michael W. Deem and Ramdas Pophale) SiO2 
 PCOD9282672
Probable space group: C 2/C
;
_chemical_formula_sum "Si O2"
_cell_formula_units_Z 44
_cell_length_a 15.033308
_cell_length_b 16.853622
_cell_length_c 8.814830
_cell_angle_alpha 90.000000
_cell_angle_beta 121.167368
_cell_angle_gamma 90.000000
_cell_volume 1911.008187
_symmetry_space_group_name_H-M "C 2/C"
_symmetry_group_IT_number 15
_symmetry_cell_setting 'monoclinic'
loop_
_space_group_symop_operation_xyz
x,y,z
-x,y,1/2-z
-x,-y,-z
x,-y,1/2+z
1/2+x,1/2+y,z
1/2-x,1/2+y,1/2-z
1/2-x,1/2-y,-z
1/2+x,1/2-y,1/2+z
loop_
_atom_site_type_symbol
_atom_site_label
_atom_site_fract_x
_atom_site_fract_y
_atom_site_fract_z
Si Si1 0.000000 0.355440 0.750000
Si Si2 0.921847 0.096900 0.073919
Si Si3 0.305046 0.039011 0.143713
Si Si4 0.204789 0.388830 0.532955
Si Si5 0.419236 0.250908 0.429201
Si Si6 0.114872 0.104784 0.780681
O O1 0.897076 0.407661 0.658261
O O2 0.993770 0.301789 0.893635
O O3 0.821615 0.122939 0.078890
O O4 0.000000 0.050805 0.250000
O O5 0.976175 0.178713 0.068234
O O6 0.891680 0.058590 0.886881
O O7 0.197949 0.064455 0.964521
O O8 0.335768 0.948364 0.133435
O O9 0.298188 0.060956 0.313939
O O10 0.145911 0.307681 0.521078
O O11 0.352582 0.306433 0.252008
O O12 0.000000 0.115152 0.750000
#
# Coordination Sequence:
#
# PCOD9282672 Si02
#       6
#     4   8   8   8   8   8
#     4  10  22  44  64  96 124 176 216 256 322 372
#     4  10  21  39  63  97 126 163 210 266 318 375
#     4  11  25  41  67  90 136 170 213 262 311 389
#     4  11  23  42  60  94 126 176 211 258 320 373
#     4   9  21  39  66  93 128 161 217 261 317 374
#     4  10  21  41  66  98 126 163 209 265 323 374
#
# _framework density 23.024497
#
# number of rings (size 3 to 8) (size 9 to 14) (size 15 to 20)
#    1.091    0.727    0.909    2.727    0.000    8.000 
#    4.909    3.636    0.000    0.000    0.000    0.000 
#    0.000    0.000    0.000    0.000    0.000    0.000 
#
# Total GULP energy -122733.006833 kJ/mol
# GULP energy per Si atom -5578.773038 kJ/mol
# Density = 2.297209 g / cm^3
# Si number density = 23.024497 Si / 1000 Ang^3
#
#
#
# Elastic Constant Matrix: (Units=GPa)
#
#
# Indices 1 2 3 4 5 6 
#
# 1 108.6345 13.7332 11.2378 0.0000 -15.8500 0.0000
# 2 13.7332 106.3291 -0.2621 0.0000 -7.0618 0.0000
# 3 11.2378 -0.2621 54.4088 0.0000 -10.6568 0.0000
# 4 0.0000 0.0000 0.0000 28.3438 0.0000 -14.4539
# 5 -15.8500 -7.0618 -10.6568 0.0000 26.5254 0.0000
# 6 0.0000 0.0000 0.0000 -14.4539 0.0000 35.4944
#
#
#
# Elastic Compliance Matrix: (Units=1/GPa)
#
#
# Indices 1 2 3 4 5 6 
#
# 1 0.010228 -0.000963 -0.001053 0.000000 0.005432 0.000000
# 2 -0.000963 0.009682 0.000692 0.000000 0.002280 0.000000
# 3 -0.001053 0.000692 0.020094 0.000000 0.007628 0.000000
# 4 0.000000 0.000000 0.000000 0.044528 0.000000 0.018132
# 5 0.005432 0.002280 0.007628 0.000000 0.044618 0.000000
# 6 0.000000 0.000000 0.000000 0.018132 0.000000 0.035557
#
#
# Mechanical properties :
#
#
# Convention : Reuss Voigt Hill
#
# Bulk Modulus (GPa) = 26.76862 35.42112 31.09487
# Shear Modulus (GPa) = 27.80744 34.38360 31.09552
#
# Velocity S-wave (km/s) = 3.47902 3.86858 3.67896
# Velocity P-wave (km/s) = 5.27157 5.94744 5.61967
#
# Compressibility (1/GPa) = 0.03735717
#
# Stress axis : x y z
#
# Youngs Moduli (GPa) = 97.76634 103.28137 49.76535
#
# Poissons Ratio (x) = 0.09945 0.05241
# Poissons Ratio (y) = 0.09414 -0.03445
# Poissons Ratio (z) = 0.10297 -0.07149
#
# Static dielectric constant tensor:
#      x y z
#    x 1.842490 0.000000 -0.012950 
#    y 0.000000 1.906480 0.000000 
#    z -0.012950 0.000000 1.913780 
# 
# From -- ./inp_files/41030.got.cif
#   From: 2010.05.17/outbox.cif.g08.bks.cpg/sg15_21_cif.got.tgz:41030.got - 2010.06.03 18:47:42.
