data_PCOD9282941
_publ_section_title
;
Structure prediction by ZEFSAII (Michael W. Deem and Ramdas Pophale) SiO2 
 PCOD9282941
Probable space group: C 2/C
;
_chemical_formula_sum "Si O2"
_cell_formula_units_Z 56
_cell_length_a 18.417960
_cell_length_b 15.275706
_cell_length_c 20.580383
_cell_angle_alpha 90.000000
_cell_angle_beta 152.921449
_cell_angle_gamma 90.000000
_cell_volume 2635.782730
_symmetry_space_group_name_H-M "C 2/C"
_symmetry_group_IT_number 15
_symmetry_cell_setting 'monoclinic'
loop_
_space_group_symop_operation_xyz
x,y,z
-x,y,1/2-z
-x,-y,-z
x,-y,1/2+z
1/2+x,1/2+y,z
1/2-x,1/2+y,1/2-z
1/2-x,1/2-y,-z
1/2+x,1/2-y,1/2+z
loop_
_atom_site_type_symbol
_atom_site_label
_atom_site_fract_x
_atom_site_fract_y
_atom_site_fract_z
Si Si1 0.304268 0.571260 0.889586
Si Si2 0.694687 0.794049 0.847673
Si Si3 0.094237 0.716152 0.912712
Si Si4 0.326653 0.396883 0.840667
Si Si5 0.765900 0.232092 0.177908
Si Si6 0.835212 0.643640 0.030743
Si Si7 0.850595 0.528933 0.597146
O O1 0.248211 0.488046 0.802300
O O2 0.240263 0.663977 0.811667
O O3 0.261736 0.554422 0.931794
O O4 0.494539 0.579179 0.036931
O O5 0.820925 0.835146 0.899222
O O6 0.720528 0.833939 0.940112
O O7 0.519241 0.819525 0.679260
O O8 0.733393 0.693135 0.894593
O O9 0.079358 0.617071 0.877388
O O10 0.937346 0.774154 0.778140
O O11 0.250000 0.750000 0.000000
O O12 0.128724 0.718077 0.016401
O O13 0.254113 0.337498 0.725778
O O14 0.804871 0.539438 0.005075
O O15 0.000000 0.481338 0.750000
#
# Coordination Sequence:
#
# PCOD9282941 Si02
#       7
#     8   8   8   8   8   8   8
#     4  11  23  42  66  91 125 182 208 255 326 389
#     4  10  21  39  66  90 129 165 212 265 311 380
#     4  12  23  40  70  94 129 164 217 273 319 373
#     4  11  24  43  64  93 137 172 214 255 327 396
#     4  12  24  43  63 100 127 173 216 262 325 385
#     4  10  21  39  65  98 123 166 220 261 322 373
#     4  12  19  40  68  93 125 168 216 267 318 382
#
# _framework density 21.246061000000001
#
# number of rings (size 3 to 8) (size 9 to 14) (size 15 to 20)
#    0.000    0.857    7.143    0.429    2.000    0.000 
#    2.571    0.714   12.571    0.000    0.000    0.000 
#    0.000    0.000    0.000    0.000    0.000    0.000 
#
# Total GULP energy -156103.319187 kJ/mol
# GULP energy per Si atom -5575.118542 kJ/mol
# Density = 2.119770 g / cm^3
# Si number density = 21.246061 Si / 1000 Ang^3
#
#
#
# Elastic Constant Matrix: (Units=GPa)
#
#
# Indices 1 2 3 4 5 6 
#
# 1 79.2070 35.7434 18.5749 -0.0007 -0.2391 -0.0002
# 2 35.7434 132.3561 16.3419 -0.0005 -25.5652 -0.0030
# 3 18.5749 16.3419 47.9226 0.0021 -5.9603 -0.0014
# 4 -0.0007 -0.0005 0.0021 27.5809 -0.0004 -1.3023
# 5 -0.2391 -25.5652 -5.9603 -0.0004 21.0207 -0.0007
# 6 -0.0002 -0.0030 -0.0014 -1.3023 -0.0007 24.5991
#
#
#
# Elastic Compliance Matrix: (Units=1/GPa)
#
#
# Indices 1 2 3 4 5 6 
#
# 1 0.016228 -0.005190 -0.005475 0.000001 -0.007680 -0.000001
# 2 -0.005190 0.011712 -0.000226 0.000000 0.014121 0.000002
# 3 -0.005475 -0.000226 0.023866 -0.000002 0.006430 0.000001
# 4 0.000001 0.000000 -0.000002 0.036348 0.000001 0.001924
# 5 -0.007680 0.014121 0.006430 0.000001 0.066482 0.000004
# 6 -0.000001 0.000002 0.000001 0.001924 0.000004 0.040754
#
#
# Mechanical properties :
#
#
# Convention : Reuss Voigt Hill
#
# Bulk Modulus (GPa) = 33.30683 44.53402 38.92042
# Shear Modulus (GPa) = 22.00890 27.22851 24.61871
#
# Velocity S-wave (km/s) = 3.22204 3.58380 3.40772
# Velocity P-wave (km/s) = 5.43625 6.17506 5.81740
#
# Compressibility (1/GPa) = 0.03002387
#
# Stress axis : x y z
#
# Youngs Moduli (GPa) = 61.62199 85.37940 41.90052
#
# Poissons Ratio (x) = 0.44310 0.22942
# Poissons Ratio (y) = 0.31980 0.00947
# Poissons Ratio (z) = 0.33741 0.01931
#
# Static dielectric constant tensor:
#      x y z
#    x 1.814710 -0.000010 0.049720 
#    y -0.000010 1.882700 0.000000 
#    z 0.049720 0.000000 1.801690 
# 
# From -- ./inp_files/249273.got.cif
#   From: 2010.05.17/outbox.cif.g08.bks.cpg/sg15_125_cif.got.tgz:249273.got - 2010.06.03 18:47:42.
