data_PCOD9282692
_publ_section_title
;
Structure prediction by ZEFSAII (Michael W. Deem and Ramdas Pophale) SiO2 
 PCOD9282692
Probable space group: C 2/C
;
_chemical_formula_sum "Si O2"
_cell_formula_units_Z 48
_cell_length_a 8.915770
_cell_length_b 11.512745
_cell_length_c 22.566510
_cell_angle_alpha 90.000000
_cell_angle_beta 101.355921
_cell_angle_gamma 90.000000
_cell_volume 2270.992020
_symmetry_space_group_name_H-M "C 2/C"
_symmetry_group_IT_number 15
_symmetry_cell_setting 'monoclinic'
loop_
_space_group_symop_operation_xyz
x,y,z
-x,y,1/2-z
-x,-y,-z
x,-y,1/2+z
1/2+x,1/2+y,z
1/2-x,1/2+y,1/2-z
1/2-x,1/2-y,-z
1/2+x,1/2-y,1/2+z
loop_
_atom_site_type_symbol
_atom_site_label
_atom_site_fract_x
_atom_site_fract_y
_atom_site_fract_z
Si Si1 0.168759 0.190083 0.901908
Si Si2 0.810423 0.170923 0.091958
Si Si3 0.594495 0.633644 0.535726
Si Si4 0.061176 0.474187 0.070434
Si Si5 0.728655 0.958796 0.884885
Si Si6 0.515231 0.487864 0.681247
O O1 0.339375 0.141450 0.921807
O O2 0.184459 0.323484 0.885094
O O3 0.070107 0.174175 0.954160
O O4 0.075637 0.101325 0.851226
O O5 0.717112 0.290325 0.083498
O O6 0.679053 0.076327 0.092813
O O7 0.872434 0.156610 0.029950
O O8 0.941192 0.129460 0.147032
O O9 0.642240 0.502831 0.557564
O O10 0.925881 0.477297 0.106979
O O11 0.000000 0.500000 0.000000
O O12 0.811078 0.989447 0.829654
O O13 0.500000 0.485874 0.750000
#
# Coordination Sequence:
#
# PCOD9282692 Si02
#       6
#     8   8   8   8   8   8
#     4  10  24  42  65  95 132 170 213 268 336 385
#     4  10  21  40  66  96 137 176 211 269 335 388
#     4  10  21  39  64 102 136 166 208 274 336 400
#     4  11  22  37  61 101 133 162 212 264 328 404
#     4  11  23  41  65 100 124 172 213 269 330 388
#     4  10  25  48  63  89 131 177 227 269 315 390
#
# _framework density 21.136137000000002
#
# number of rings (size 3 to 8) (size 9 to 14) (size 15 to 20)
#    0.000    1.667    3.333    0.000    4.667    2.667 
#    6.000    3.333    0.000    1.000    0.000    0.000 
#    0.000    0.000    0.000    0.000    0.000    0.000 
#
# Total GULP energy -134076.707011 kJ/mol
# GULP energy per Si atom -5586.529459 kJ/mol
# Density = 2.108803 g / cm^3
# Si number density = 21.136137 Si / 1000 Ang^3
#
#
#
# Elastic Constant Matrix: (Units=GPa)
#
#
# Indices 1 2 3 4 5 6 
#
# 1 177.5199 43.0582 49.1341 0.0000 -42.4806 0.0000
# 2 43.0582 101.8164 14.2790 0.0000 -5.3439 0.0000
# 3 49.1341 14.2790 94.5971 0.0000 -34.4578 0.0000
# 4 0.0000 0.0000 0.0000 13.1913 0.0000 2.9121
# 5 -42.4806 -5.3439 -34.4578 0.0000 31.5430 0.0000
# 6 0.0000 0.0000 0.0000 2.9121 0.0000 43.0124
#
#
#
# Elastic Compliance Matrix: (Units=1/GPa)
#
#
# Indices 1 2 3 4 5 6 
#
# 1 0.009297 -0.003308 0.000045 0.000000 0.012009 0.000000
# 2 -0.003308 0.011211 -0.001503 0.000000 -0.004197 0.000000
# 3 0.000045 -0.001503 0.017778 0.000000 0.019227 0.000000
# 4 0.000000 0.000000 0.000000 0.076958 0.000000 -0.005210
# 5 0.012009 -0.004197 0.019227 0.000000 0.068169 0.000000
# 6 0.000000 0.000000 0.000000 -0.005210 0.000000 0.023602
#
#
# Mechanical properties :
#
#
# Convention : Reuss Voigt Hill
#
# Bulk Modulus (GPa) = 34.77726 65.20844 49.99285
# Shear Modulus (GPa) = 22.11104 35.38014 28.74559
#
# Velocity S-wave (km/s) = 3.23789 4.09579 3.69185
# Velocity P-wave (km/s) = 5.51981 7.29972 6.47125
#
# Compressibility (1/GPa) = 0.02875443
#
# Stress axis : x y z
#
# Youngs Moduli (GPa) = 107.56353 89.19880 56.24818
#
# Poissons Ratio (x) = 0.29504 -0.00253
# Poissons Ratio (y) = 0.35578 0.08455
# Poissons Ratio (z) = -0.00484 0.13408
#
# Static dielectric constant tensor:
#      x y z
#    x 1.850550 0.000000 0.050950 
#    y 0.000000 1.873450 0.000000 
#    z 0.050950 0.000000 1.736600 
# 
# From -- ./inp_files/263078.got.cif
#   From: 2010.05.17/outbox.cif.g08.bks.cpg/sg15_132_cif.got.tgz:263078.got - 2010.06.03 18:47:42.
