data_PCOD9282255
_publ_section_title
;
Structure prediction by ZEFSAII (Michael W. Deem and Ramdas Pophale) SiO2 
 PCOD9282255
Probable space group: C 2/C
;
_chemical_formula_sum "Si O2"
_cell_formula_units_Z 40
_cell_length_a 11.146781
_cell_length_b 18.673732
_cell_length_c 9.297397
_cell_angle_alpha 90.000000
_cell_angle_beta 94.038942
_cell_angle_gamma 90.000000
_cell_volume 1930.465366
_symmetry_space_group_name_H-M "C 2/C"
_symmetry_group_IT_number 15
_symmetry_cell_setting 'monoclinic'
loop_
_space_group_symop_operation_xyz
x,y,z
-x,y,1/2-z
-x,-y,-z
x,-y,1/2+z
1/2+x,1/2+y,z
1/2-x,1/2+y,1/2-z
1/2-x,1/2-y,-z
1/2+x,1/2-y,1/2+z
loop_
_atom_site_type_symbol
_atom_site_label
_atom_site_fract_x
_atom_site_fract_y
_atom_site_fract_z
Si Si1 0.500000 0.455432 0.250000
Si Si2 0.358470 0.206167 0.707302
Si Si3 0.377216 0.589568 0.302324
Si Si4 0.000000 0.280869 0.750000
Si Si5 0.839969 0.836009 0.088929
Si Si6 0.214173 0.346225 0.592567
O O1 0.424069 0.510105 0.344244
O O2 0.405625 0.404160 0.165300
O O3 0.500000 0.206474 0.750000
O O4 0.282759 0.185342 0.842336
O O5 0.306717 0.280739 0.637015
O O6 0.318723 0.151642 0.576970
O O7 0.500000 0.622842 0.250000
O O8 0.327858 0.639841 0.423715
O O9 0.280772 0.586151 0.166477
O O10 0.069319 0.229332 0.868916
O O11 0.095195 0.326948 0.670727
#
# Coordination Sequence:
#
# PCOD9282255 Si02
#       6
#     4   8   8   4   8   8
#     4   9  22  38  66  84 116 145 204 254 292 335
#     4  10  23  37  59  83 126 159 189 240 287 357
#     4  10  23  34  62  89 114 151 195 251 287 345
#     4   9  22  34  60  84 126 155 190 242 280 361
#     4  10  21  39  60  88 114 158 198 237 299 340
#     4  10  22  36  56  89 121 156 199 231 295 344
#
# _framework density 20.720392
#
# number of rings (size 3 to 8) (size 9 to 14) (size 15 to 20)
#    0.600    1.600    0.000    1.200   16.800    1.600 
#    0.000    0.000    2.200    2.400    0.000    0.000 
#    0.000    0.000    0.000    0.000    0.000    0.000 
#
# Total GULP energy -111591.547057 kJ/mol
# GULP energy per Si atom -5579.577353 kJ/mol
# Density = 2.067323 g / cm^3
# Si number density = 20.720392 Si / 1000 Ang^3
#
#
#
# Elastic Constant Matrix: (Units=GPa)
#
#
# Indices 1 2 3 4 5 6 
#
# 1 146.5613 26.9562 38.7893 0.0000 10.7673 0.0000
# 2 26.9562 48.8675 7.0897 0.0000 1.5985 0.0000
# 3 38.7893 7.0897 85.9408 0.0000 10.4813 0.0000
# 4 0.0000 0.0000 0.0000 18.6495 0.0000 13.3914
# 5 10.7673 1.5985 10.4813 0.0000 23.7218 0.0000
# 6 0.0000 0.0000 0.0000 13.3914 0.0000 18.0137
#
#
#
# Elastic Compliance Matrix: (Units=1/GPa)
#
#
# Indices 1 2 3 4 5 6 
#
# 1 0.008626 -0.004211 -0.003280 0.000000 -0.002182 0.000000
# 2 -0.004211 0.022777 -0.000026 0.000000 0.000388 0.000000
# 3 -0.003280 -0.000026 0.013673 0.000000 -0.004551 0.000000
# 4 0.000000 0.000000 0.000000 0.115017 0.000000 -0.085504
# 5 -0.002182 0.000388 -0.004551 0.000000 0.045131 0.000000
# 6 0.000000 0.000000 0.000000 -0.085504 0.000000 0.119077
#
#
# Mechanical properties :
#
#
# Convention : Reuss Voigt Hill
#
# Bulk Modulus (GPa) = 33.28471 47.44889 40.36680
# Shear Modulus (GPa) = 14.31234 25.97929 20.14581
#
# Velocity S-wave (km/s) = 2.63104 3.54475 3.12151
# Velocity P-wave (km/s) = 5.03274 6.30103 5.70226
#
# Compressibility (1/GPa) = 0.03004383
#
# Stress axis : x y z
#
# Youngs Moduli (GPa) = 115.92914 43.90318 73.13464
#
# Poissons Ratio (x) = 0.18488 0.23986
# Poissons Ratio (y) = 0.48818 0.00188
# Poissons Ratio (z) = 0.38022 0.00113
#
# Static dielectric constant tensor:
#      x y z
#    x 1.715510 0.000000 0.009180 
#    y 0.000000 1.776980 0.000000 
#    z 0.009180 0.000000 1.852880 
# 
# From -- ./inp_files/30473.got.cif
#   From: 2010.05.17/outbox.cif.g08.bks.cpg/sg15_16_cif.got.tgz:30473.got - 2010.06.03 18:47:42.
