data_PCOD9282442
_publ_section_title
;
Structure prediction by ZEFSAII (Michael W. Deem and Ramdas Pophale) SiO2 
 PCOD9282442
Probable space group: C 2/C
;
_chemical_formula_sum "Si O2"
_cell_formula_units_Z 36
_cell_length_a 12.355669
_cell_length_b 27.489807
_cell_length_c 5.047647
_cell_angle_alpha 90.000000
_cell_angle_beta 101.206279
_cell_angle_gamma 90.000000
_cell_volume 1681.770224
_symmetry_space_group_name_H-M "C 2/C"
_symmetry_group_IT_number 15
_symmetry_cell_setting 'monoclinic'
loop_
_space_group_symop_operation_xyz
x,y,z
-x,y,1/2-z
-x,-y,-z
x,-y,1/2+z
1/2+x,1/2+y,z
1/2-x,1/2+y,1/2-z
1/2-x,1/2-y,-z
1/2+x,1/2-y,1/2+z
loop_
_atom_site_type_symbol
_atom_site_label
_atom_site_fract_x
_atom_site_fract_y
_atom_site_fract_z
Si Si1 0.131134 0.531553 0.794154
Si Si2 0.425540 0.231372 0.973604
Si Si3 0.698761 0.391575 0.921179
Si Si4 0.203976 0.173375 0.908612
Si Si5 0.500000 0.465057 0.750000
O O1 0.158078 0.511649 0.515440
O O2 0.000000 0.540262 0.750000
O O3 0.197882 0.578820 0.911770
O O4 0.500000 0.235872 0.750000
O O5 0.376490 0.283283 0.040864
O O6 0.500000 0.212067 0.250000
O O7 0.319758 0.197378 0.876219
O O8 0.723946 0.360855 0.671108
O O9 0.606160 0.430742 0.807120
O O10 0.658067 0.356358 0.137423
O O11 0.500000 0.500000 0.500000
#
# Coordination Sequence:
#
# PCOD9282442 Si02
#       5
#     8   8   8   8   4
#     4  10  21  39  62  89 125 169 211 263 334 392
#     4  11  24  45  70  92 138 178 212 281 338 407
#     4  12  24  41  67  96 135 170 225 284 314 411
#     4  11  26  42  65 105 126 173 232 264 340 395
#     4  12  26  44  66  98 138 184 224 276 342 388
#
# _framework density 21.406016000000001
#
# number of rings (size 3 to 8) (size 9 to 14) (size 15 to 20)
#    0.000    0.889    0.000    6.667    4.667    6.222 
#    0.000    0.000    0.000    0.000    0.000    0.000 
#    0.000    0.000    0.000    0.000    0.000    0.000 
#
# Total GULP energy -100852.332951 kJ/mol
# GULP energy per Si atom -5602.907386 kJ/mol
# Density = 2.135729 g / cm^3
# Si number density = 21.406016 Si / 1000 Ang^3
#
#
#
# Elastic Constant Matrix: (Units=GPa)
#
#
# Indices 1 2 3 4 5 6 
#
# 1 88.6209 40.0550 43.4147 0.0000 -10.8155 0.0000
# 2 40.0550 104.7358 42.8975 0.0000 -4.2004 0.0000
# 3 43.4147 42.8975 125.5035 0.0000 -13.5488 0.0000
# 4 0.0000 0.0000 0.0000 168.3283 0.0000 171.6723
# 5 -10.8155 -4.2004 -13.5488 0.0000 35.3595 0.0000
# 6 0.0000 0.0000 0.0000 171.6723 0.0000 201.7333
#
#
#
# Elastic Compliance Matrix: (Units=1/GPa)
#
#
# Indices 1 2 3 4 5 6 
#
# 1 0.015293 -0.004295 -0.003518 0.000000 0.002819 0.000000
# 2 -0.004295 0.012309 -0.002822 0.000000 -0.000933 0.000000
# 3 -0.003518 -0.002822 0.010428 0.000000 0.002585 0.000000
# 4 0.000000 0.000000 0.000000 0.044969 0.000000 -0.038268
# 5 0.002819 -0.000933 0.002585 0.000000 0.030023 0.000000
# 6 0.000000 0.000000 0.000000 -0.038268 0.000000 0.037523
#
#
# Mechanical properties :
#
#
# Convention : Reuss Voigt Hill
#
# Bulk Modulus (GPa) = 59.66404 63.51052 61.58728
# Shear Modulus (GPa) = 28.18483 93.91708 61.05096
#
# Velocity S-wave (km/s) = 3.63254 6.63094 5.34625
# Velocity P-wave (km/s) = 6.74736 9.39999 8.18189
#
# Compressibility (1/GPa) = 0.01676051
#
# Stress axis : x y z
#
# Youngs Moduli (GPa) = 65.39148 81.24277 95.89113
#
# Poissons Ratio (x) = 0.34890 0.33732
# Poissons Ratio (y) = 0.28083 0.27063
# Poissons Ratio (z) = 0.23003 0.22929
#
# Static dielectric constant tensor:
#      x y z
#    x 1.745420 0.000000 0.010570 
#    y 0.000000 1.762520 0.000000 
#    z 0.010570 0.000000 1.742970 
# 
# From -- ./inp_files/4417.got.cif
#   From: 2010.05.17/outbox.cif.g08.bks.cpg/sg15_3_cif.got.tgz:4417.got - 2010.06.03 18:47:42.
