data_PCOD9282427
_publ_section_title
;
Structure prediction by ZEFSAII (Michael W. Deem and Ramdas Pophale) SiO2 
 PCOD9282427
Probable space group: C 2/C
;
_chemical_formula_sum "Si O2"
_cell_formula_units_Z 64
_cell_length_a 9.460632
_cell_length_b 18.946256
_cell_length_c 31.148428
_cell_angle_alpha 90.000000
_cell_angle_beta 143.224375
_cell_angle_gamma 90.000000
_cell_volume 3342.539388
_symmetry_space_group_name_H-M "C 2/C"
_symmetry_group_IT_number 15
_symmetry_cell_setting 'monoclinic'
loop_
_space_group_symop_operation_xyz
x,y,z
-x,y,1/2-z
-x,-y,-z
x,-y,1/2+z
1/2+x,1/2+y,z
1/2-x,1/2+y,1/2-z
1/2-x,1/2-y,-z
1/2+x,1/2-y,1/2+z
loop_
_atom_site_type_symbol
_atom_site_label
_atom_site_fract_x
_atom_site_fract_y
_atom_site_fract_z
Si Si1 0.363622 0.068197 0.447686
Si Si2 0.563622 0.477393 0.166793
Si Si3 0.806431 0.115250 0.673229
Si Si4 0.875941 0.242349 0.576672
Si Si5 0.466919 0.023952 0.829838
Si Si6 0.107848 0.889831 0.094269
Si Si7 0.140325 0.603432 0.427700
Si Si8 0.052258 0.694015 0.966770
O O1 0.507254 0.088004 0.440099
O O2 0.353659 0.130352 0.480288
O O3 0.500000 0.000000 0.500000
O O4 0.103088 0.044805 0.371168
O O5 0.432545 0.415061 0.161576
O O6 0.815136 0.489690 0.250143
O O7 0.568255 0.452476 0.118922
O O8 0.718915 0.048492 0.679332
O O9 0.579837 0.160256 0.605958
O O10 0.000000 0.153245 0.750000
O O11 0.750000 0.250000 0.500000
O O12 0.957434 0.320132 0.610111
O O13 0.667650 0.223417 0.558906
O O14 0.067388 0.181544 0.612481
O O15 0.638870 0.090166 0.862941
O O16 0.600242 0.957027 0.882686
O O17 0.914229 0.891288 0.009171
O O18 0.250000 0.750000 0.000000
#
# Coordination Sequence:
#
# PCOD9282427 Si02
#       8
#     8   8   8   8   8   8   8   8
#     4  12  19  39  66  88 118 160 211 252 314 366
#     4  11  21  40  65  86 124 162 206 264 311 365
#     4  10  21  39  62  88 122 160 207 259 306 366
#     4  10  21  40  59  86 130 162 195 254 319 368
#     4  11  24  36  63  98 123 155 217 263 310 367
#     4  11  21  39  64  90 125 166 205 252 313 381
#     4  11  21  37  63  92 125 162 202 262 316 366
#     4  12  24  39  64  97 121 164 215 258 307 378
#
# _framework density 19.147117999999999
#
# number of rings (size 3 to 8) (size 9 to 14) (size 15 to 20)
#    0.000    1.000    7.500    0.750    3.500    1.000 
#    0.000    1.250    5.500    0.000    0.000    0.000 
#    0.000    0.000    0.000    0.000    0.000    0.000 
#
# Total GULP energy -178420.014311 kJ/mol
# GULP energy per Si atom -5575.625447 kJ/mol
# Density = 1.910354 g / cm^3
# Si number density = 19.147118 Si / 1000 Ang^3
#
#
#
# Elastic Constant Matrix: (Units=GPa)
#
#
# Indices 1 2 3 4 5 6 
#
# 1 70.9338 31.5449 10.5367 0.0001 7.9064 0.0001
# 2 31.5449 107.9630 46.3868 0.0000 5.3881 0.0000
# 3 10.5367 46.3868 103.8130 -0.0003 12.7891 -0.0002
# 4 0.0001 0.0000 -0.0003 17.6296 0.0000 2.1328
# 5 7.9064 5.3881 12.7891 0.0000 17.5250 0.0000
# 6 0.0001 0.0000 -0.0002 2.1328 0.0000 28.9499
#
#
#
# Elastic Compliance Matrix: (Units=1/GPa)
#
#
# Indices 1 2 3 4 5 6 
#
# 1 0.017011 -0.005260 0.001505 0.000000 -0.007156 0.000000
# 2 -0.005260 0.013090 -0.005617 0.000000 0.002447 0.000000
# 3 0.001505 -0.005617 0.013032 0.000000 -0.008463 0.000000
# 4 0.000000 0.000000 0.000000 0.057233 0.000000 -0.004216
# 5 -0.007156 0.002447 -0.008463 0.000000 0.065713 0.000000
# 6 0.000000 0.000000 0.000000 -0.004216 0.000000 0.034853
#
#
# Mechanical properties :
#
#
# Convention : Reuss Voigt Hill
#
# Bulk Modulus (GPa) = 40.99942 51.07184 46.03563
# Shear Modulus (GPa) = 21.94857 25.77034 23.85945
#
# Velocity S-wave (km/s) = 3.38940 3.67265 3.53386
# Velocity P-wave (km/s) = 6.06438 6.68698 6.38328
#
# Compressibility (1/GPa) = 0.02439059
#
# Stress axis : x y z
#
# Youngs Moduli (GPa) = 58.78631 76.39158 76.73267
#
# Poissons Ratio (x) = 0.40181 -0.11551
# Poissons Ratio (y) = 0.30921 0.43100
# Poissons Ratio (z) = -0.08849 0.42908
#
# Static dielectric constant tensor:
#      x y z
#    x 1.633450 0.000000 0.030330 
#    y 0.000000 1.745510 0.000000 
#    z 0.030330 0.000000 1.677570 
# 
# From -- ./inp_files/308810.got.cif
#   From: 2010.05.17/outbox.cif.g08.bks.cpg/sg15_155_cif.got.tgz:308810.got - 2010.06.03 18:47:42.
