data_PCOD9282530
_publ_section_title
;
Structure prediction by ZEFSAII (Michael W. Deem and Ramdas Pophale) SiO2 
 PCOD9282530
Probable space group: C 2/C
;
_chemical_formula_sum "Si O2"
_cell_formula_units_Z 40
_cell_length_a 23.181637
_cell_length_b 6.694544
_cell_length_c 10.918956
_cell_angle_alpha 90.000000
_cell_angle_beta 84.219825
_cell_angle_gamma 90.000000
_cell_volume 1685.902539
_symmetry_space_group_name_H-M "C 2/C"
_symmetry_group_IT_number 15
_symmetry_cell_setting 'monoclinic'
loop_
_space_group_symop_operation_xyz
x,y,z
-x,y,1/2-z
-x,-y,-z
x,-y,1/2+z
1/2+x,1/2+y,z
1/2-x,1/2+y,1/2-z
1/2-x,1/2-y,-z
1/2+x,1/2-y,1/2+z
loop_
_atom_site_type_symbol
_atom_site_label
_atom_site_fract_x
_atom_site_fract_y
_atom_site_fract_z
Si Si1 0.368480 0.930996 0.794190
Si Si2 0.166203 0.803624 0.568776
Si Si3 0.223722 0.500832 0.368988
Si Si4 0.369651 0.315424 0.538263
Si Si5 0.465312 0.066504 0.629392
O O1 0.373766 0.159804 0.842372
O O2 0.414747 0.908020 0.676085
O O3 0.304422 0.919557 0.750276
O O4 0.378587 0.784636 0.903093
O O5 0.200939 0.638028 0.484666
O O6 0.208329 0.950451 0.638513
O O7 0.137343 0.951902 0.479487
O O8 0.189962 0.290888 0.399404
O O9 0.426727 0.257420 0.600599
O O10 0.500000 0.086839 0.750000
O O11 0.500000 0.000000 0.500000
#
# Coordination Sequence:
#
# PCOD9282530 Si02
#       5
#     8   8   8   8   8
#     4  10  22  38  65  98 131 177 224 281 337 410
#     4  10  21  39  62  99 140 177 228 273 336 421
#     4   9  21  38  61  95 142 182 216 269 343 409
#     4  10  21  39  67  96 132 177 227 276 340 408
#     4  11  22  44  74  93 130 181 230 289 358 400
#
# _framework density 23.726163
#
# number of rings (size 3 to 8) (size 9 to 14) (size 15 to 20)
#    0.000    2.000    2.000    0.600    2.800    3.200 
#    3.600    1.000    4.400    0.000    0.000    0.000 
#    0.000    0.000    0.000    0.000    0.000    0.000 
#
# Total GULP energy -111596.185833 kJ/mol
# GULP energy per Si atom -5579.809292 kJ/mol
# Density = 2.367216 g / cm^3
# Si number density = 23.726163 Si / 1000 Ang^3
#
#
#
# Elastic Constant Matrix: (Units=GPa)
#
#
# Indices 1 2 3 4 5 6 
#
# 1 100.4866 34.5664 36.1334 0.0000 12.1521 0.0000
# 2 34.5664 65.0105 21.9306 0.0000 -11.6212 0.0000
# 3 36.1334 21.9306 114.0495 0.0000 2.0264 0.0000
# 4 0.0000 0.0000 0.0000 28.4651 0.0000 19.1551
# 5 12.1521 -11.6212 2.0264 0.0000 52.7552 0.0000
# 6 0.0000 0.0000 0.0000 19.1551 0.0000 9.0433
#
#
#
# Elastic Compliance Matrix: (Units=1/GPa)
#
#
# Indices 1 2 3 4 5 6 
#
# 1 0.014129 -0.007360 -0.002977 0.000000 -0.004762 0.000000
# 2 -0.007360 0.021058 -0.001831 0.000000 0.006404 0.000000
# 3 -0.002977 -0.001831 0.010065 0.000000 -0.000104 0.000000
# 4 0.000000 0.000000 0.000000 -0.082587 0.000000 0.174933
# 5 -0.004762 0.006404 -0.000104 0.000000 0.021467 0.000000
# 6 0.000000 0.000000 0.000000 0.174933 0.000000 -0.259957
#
#
# Mechanical properties :
#
#
# Convention : Reuss Voigt Hill
#
# Bulk Modulus (GPa) = 47.80770 51.64525 49.72648
# Shear Modulus (GPa) = -20.44845 30.51381 5.03268
#
# Velocity S-wave (km/s) = -2.93892 3.59009 1.45800
# Velocity P-wave (km/s) = 2.94571 6.24496 4.88245
#
# Compressibility (1/GPa) = 0.02091713
#
# Stress axis : x y z
#
# Youngs Moduli (GPa) = 70.77422 47.48801 99.35216
#
# Poissons Ratio (x) = 0.34950 0.29574
# Poissons Ratio (y) = 0.52088 0.18195
# Poissons Ratio (z) = 0.21067 0.08697
#
# Static dielectric constant tensor:
#      x y z
#    x 1.992820 0.000000 -0.004480 
#    y 0.000000 1.902350 0.000000 
#    z -0.004480 0.000000 1.990940 
# 
# From -- ./inp_files/120828.got.cif
#   From: 2010.05.17/outbox.cif.g08.bks.cpg/sg15_61_cif.got.tgz:120828.got - 2010.06.03 18:47:42.
