data_PCOD9282215
_publ_section_title
;
Structure prediction by ZEFSAII (Michael W. Deem and Ramdas Pophale) SiO2 
 PCOD9282215
Probable space group: C 2/C
;
_chemical_formula_sum "Si O2"
_cell_formula_units_Z 28
_cell_length_a 16.809886
_cell_length_b 12.433259
_cell_length_c 8.993546
_cell_angle_alpha 90.000000
_cell_angle_beta 32.920072
_cell_angle_gamma 90.000000
_cell_volume 1021.539418
_symmetry_space_group_name_H-M "C 2/C"
_symmetry_group_IT_number 15
_symmetry_cell_setting 'monoclinic'
loop_
_space_group_symop_operation_xyz
x,y,z
-x,y,1/2-z
-x,-y,-z
x,-y,1/2+z
1/2+x,1/2+y,z
1/2-x,1/2+y,1/2-z
1/2-x,1/2-y,-z
1/2+x,1/2-y,1/2+z
loop_
_atom_site_type_symbol
_atom_site_label
_atom_site_fract_x
_atom_site_fract_y
_atom_site_fract_z
Si Si1 0.268005 0.708015 0.639932
Si Si2 0.133782 0.579307 0.444696
Si Si3 0.810760 0.993544 0.427832
Si Si4 0.500000 0.298954 0.250000
O O1 0.250000 0.750000 0.500000
O O2 0.373518 0.792212 0.552992
O O3 0.339144 0.593085 0.495559
O O4 0.116954 0.726021 0.972677
O O5 0.275004 0.543040 0.323242
O O6 0.157528 0.542267 0.242188
O O7 0.000000 0.541368 0.750000
O O8 0.910372 0.886796 0.287161
#
# Coordination Sequence:
#
# PCOD9282215 Si02
#       4
#     8   8   8   4
#     4   9  21  39  61  93 124 167 210 257 322 374
#     4  10  21  39  59  91 125 162 212 257 319 382
#     4  10  22  40  64  92 125 170 206 265 323 367
#     4  10  22  42  66  94 130 162 220 262 312 390
#
# _framework density 27.409614999999999
#
# number of rings (size 3 to 8) (size 9 to 14) (size 15 to 20)
#    0.000    2.286    0.000    0.857    4.000   10.286 
#    5.143    2.857    0.000    0.000    0.000    0.000 
#    0.000    0.000    0.000    0.000    0.000    0.000 
#
# Total GULP energy -78025.016853 kJ/mol
# GULP energy per Si atom -5573.215489 kJ/mol
# Density = 2.734723 g / cm^3
# Si number density = 27.409615 Si / 1000 Ang^3
#
#
#
# Elastic Constant Matrix: (Units=GPa)
#
#
# Indices 1 2 3 4 5 6 
#
# 1 60.1987 44.1930 30.0666 0.0000 -0.1299 0.0000
# 2 44.1930 105.7622 31.0369 0.0000 27.3102 0.0000
# 3 30.0666 31.0369 194.6051 0.0000 -10.3382 0.0000
# 4 0.0000 0.0000 0.0000 49.4240 0.0000 21.3879
# 5 -0.1299 27.3102 -10.3382 0.0000 34.9309 0.0000
# 6 0.0000 0.0000 0.0000 21.3879 0.0000 -16.7326
#
#
#
# Elastic Compliance Matrix: (Units=1/GPa)
#
#
# Indices 1 2 3 4 5 6 
#
# 1 0.027447 -0.013706 -0.001504 0.000000 0.010373 0.000000
# 2 -0.013706 0.019930 -0.001922 0.000000 -0.016201 0.000000
# 3 -0.001504 -0.001922 0.005849 0.000000 0.003228 0.000000
# 4 0.000000 0.000000 0.000000 0.013027 0.000000 0.016652
# 5 0.010373 -0.016201 0.003228 0.000000 0.042289 0.000000
# 6 0.000000 0.000000 0.000000 0.016652 0.000000 -0.038479
#
#
# Mechanical properties :
#
#
# Convention : Reuss Voigt Hill
#
# Bulk Modulus (GPa) = 52.73415 63.46211 58.09813
# Shear Modulus (GPa) = 45.18929 30.54242 37.86585
#
# Velocity S-wave (km/s) = 4.06478 3.34173 3.72086
# Velocity P-wave (km/s) = 6.42736 6.17195 6.30095
#
# Compressibility (1/GPa) = 0.01896304
#
# Stress axis : x y z
#
# Youngs Moduli (GPa) = 36.43409 50.17624 170.97340
#
# Poissons Ratio (x) = 0.68771 0.25707
# Poissons Ratio (y) = 0.49937 0.32855
# Poissons Ratio (z) = 0.05478 0.09642
#
# Static dielectric constant tensor:
#      x y z
#    x 2.162190 0.000000 -0.062140 
#    y 0.000000 2.298110 0.000000 
#    z -0.062140 0.000000 2.217860 
# 
# From -- ./inp_files/27274.got.cif
#   From: 2010.05.17/outbox.cif.g08.bks.cpg/sg15_14_cif.got.tgz:27274.got - 2010.06.03 18:47:42.
