data_PCOD9282123
_publ_section_title
;
Structure prediction by ZEFSAII (Michael W. Deem and Ramdas Pophale) SiO2 
 PCOD9282123
Probable space group: C 2/C
;
_chemical_formula_sum "Si O2"
_cell_formula_units_Z 64
_cell_length_a 5.319811
_cell_length_b 19.097110
_cell_length_c 27.579207
_cell_angle_alpha 90.000000
_cell_angle_beta 87.016245
_cell_angle_gamma 90.000000
_cell_volume 2798.056433
_symmetry_space_group_name_H-M "C 2/C"
_symmetry_group_IT_number 15
_symmetry_cell_setting 'monoclinic'
loop_
_space_group_symop_operation_xyz
x,y,z
-x,y,1/2-z
-x,-y,-z
x,-y,1/2+z
1/2+x,1/2+y,z
1/2-x,1/2+y,1/2-z
1/2-x,1/2-y,-z
1/2+x,1/2-y,1/2+z
loop_
_atom_site_type_symbol
_atom_site_label
_atom_site_fract_x
_atom_site_fract_y
_atom_site_fract_z
Si Si1 0.051418 0.290768 0.564710
Si Si2 0.347865 0.646388 0.972795
Si Si3 0.009857 0.167121 0.692197
Si Si4 0.587029 0.525103 0.856978
Si Si5 0.984348 0.255338 0.308830
Si Si6 0.192768 0.902250 0.541549
Si Si7 0.435658 0.966513 0.079840
Si Si8 0.840928 0.876948 0.635886
O O1 0.255211 0.315211 0.522507
O O2 0.056192 0.206943 0.564247
O O3 0.112545 0.334295 0.612968
O O4 0.801550 0.324056 0.545276
O O5 0.128205 0.601831 0.950800
O O6 0.554060 0.592416 0.991664
O O7 0.927522 0.089074 0.679830
O O8 0.787997 0.215956 0.674102
O O9 0.000000 0.174669 0.750000
O O10 0.289906 0.193221 0.675717
O O11 0.302119 0.527270 0.880943
O O12 0.680928 0.449996 0.835356
O O13 0.801896 0.539371 0.895177
O O14 0.024875 0.180479 0.332872
O O15 0.000000 0.250475 0.250000
O O16 0.998827 0.904827 0.588121
O O17 0.401833 0.961731 0.549136
#
# Coordination Sequence:
#
# PCOD9282123 Si02
#       8
#     8   8   8   8   8   8   8   8
#     4  10  21  39  56  84 122 157 212 259 309 362
#     4  10  23  36  57  86 117 166 214 254 316 361
#     4  10  23  43  66  95 128 159 201 254 303 371
#     4  11  24  41  62  94 125 161 210 249 312 372
#     4  10  23  42  67  98 126 160 203 249 309 373
#     4  10  21  40  58  85 123 166 206 265 304 363
#     4  11  24  40  61  91 121 164 210 258 305 370
#     4  10  23  39  61  90 126 163 202 258 307 367
#
# _framework density 22.873021000000001
#
# number of rings (size 3 to 8) (size 9 to 14) (size 15 to 20)
#    0.000    1.750    1.250    1.500    7.000    1.000 
#    0.000    0.000    0.000    4.500    0.000    0.000 
#    0.000    0.000    0.000    0.000    0.000    0.000 
#
# Total GULP energy -178667.587027 kJ/mol
# GULP energy per Si atom -5583.362095 kJ/mol
# Density = 2.282096 g / cm^3
# Si number density = 22.873021 Si / 1000 Ang^3
#
#
#
# Elastic Constant Matrix: (Units=GPa)
#
#
# Indices 1 2 3 4 5 6 
#
# 1 104.9964 24.2875 24.0657 0.0000 21.9762 0.0000
# 2 24.2875 136.6769 20.1601 0.0000 30.4286 0.0000
# 3 24.0657 20.1601 15.7023 0.0000 12.0064 0.0000
# 4 0.0000 0.0000 0.0000 26.5291 0.0000 8.6494
# 5 21.9762 30.4286 12.0064 0.0000 28.1402 0.0000
# 6 0.0000 0.0000 0.0000 8.6494 0.0000 35.3657
#
#
#
# Elastic Compliance Matrix: (Units=1/GPa)
#
#
# Indices 1 2 3 4 5 6 
#
# 1 0.015029 0.001435 -0.021840 0.000000 -0.003970 0.000000
# 2 0.001435 0.010248 -0.008944 0.000000 -0.008385 0.000000
# 3 -0.021840 -0.008944 0.130913 0.000000 -0.029128 0.000000
# 4 0.000000 0.000000 0.000000 0.040961 0.000000 -0.010018
# 5 -0.003970 -0.008385 -0.029128 0.000000 0.060132 0.000000
# 6 0.000000 0.000000 0.000000 -0.010018 0.000000 0.030726
#
#
# Mechanical properties :
#
#
# Convention : Reuss Voigt Hill
#
# Bulk Modulus (GPa) = 10.25744 43.82248 27.03996
# Shear Modulus (GPa) = 13.18548 30.59783 21.89165
#
# Velocity S-wave (km/s) = 2.40357 3.66146 3.09705
# Velocity P-wave (km/s) = 3.49244 6.08898 4.96351
#
# Compressibility (1/GPa) = 0.09749025
#
# Stress axis : x y z
#
# Youngs Moduli (GPa) = 66.53742 97.58281 7.63864
#
# Poissons Ratio (x) = -0.14000 0.16683
# Poissons Ratio (y) = -0.09546 0.06832
# Poissons Ratio (z) = 1.45321 0.87279
#
# Static dielectric constant tensor:
#      x y z
#    x 1.892160 0.000000 -0.032420 
#    y 0.000000 1.920610 0.000000 
#    z -0.032420 0.000000 1.876900 
# 
# From -- ./inp_files/305808.got.cif
#   From: 2010.05.17/outbox.cif.g08.bks.cpg/sg15_153_cif.got.tgz:305808.got - 2010.06.03 18:47:42.
