data_PCOD9282093
_publ_section_title
;
Structure prediction by ZEFSAII (Michael W. Deem and Ramdas Pophale) SiO2 
 PCOD9282093
Probable space group: C 2/C
;
_chemical_formula_sum "Si O2"
_cell_formula_units_Z 44
_cell_length_a 9.176146
_cell_length_b 17.497466
_cell_length_c 14.954796
_cell_angle_alpha 90.000000
_cell_angle_beta 58.451040
_cell_angle_gamma 90.000000
_cell_volume 2046.228447
_symmetry_space_group_name_H-M "C 2/C"
_symmetry_group_IT_number 15
_symmetry_cell_setting 'monoclinic'
loop_
_space_group_symop_operation_xyz
x,y,z
-x,y,1/2-z
-x,-y,-z
x,-y,1/2+z
1/2+x,1/2+y,z
1/2-x,1/2+y,1/2-z
1/2-x,1/2-y,-z
1/2+x,1/2-y,1/2+z
loop_
_atom_site_type_symbol
_atom_site_label
_atom_site_fract_x
_atom_site_fract_y
_atom_site_fract_z
Si Si1 0.188045 0.476817 0.473657
Si Si2 0.254527 0.268642 0.850014
Si Si3 0.145766 0.855873 0.838909
Si Si4 0.293990 0.630502 0.517336
Si Si5 0.873002 0.314273 0.920402
Si Si6 0.500000 0.520350 0.250000
O O1 0.235531 0.543243 0.530477
O O2 0.159857 0.391993 0.515865
O O3 0.349443 0.478733 0.353352
O O4 0.000000 0.500000 0.500000
O O5 0.370174 0.286944 0.726875
O O6 0.282195 0.185720 0.883705
O O7 0.063168 0.283039 0.874767
O O8 0.266141 0.330052 0.928266
O O9 0.315786 0.839235 0.839246
O O10 0.108593 0.928113 0.786302
O O11 0.998148 0.862858 0.959964
O O12 0.750000 0.250000 0.000000
#
# Coordination Sequence:
#
# PCOD9282093 Si02
#       6
#     8   8   8   8   8   4
#     4  11  22  45  70  97 140 178 226 283 342 408
#     4  11  20  40  67  96 131 178 223 271 339 410
#     4  11  20  41  66  96 135 176 224 276 339 407
#     4  10  21  38  71  97 125 179 223 270 339 399
#     4  12  25  41  63  99 136 178 219 284 347 391
#     4  10  22  42  72 100 128 184 236 278 346 412
#
# _framework density 21.502973999999998
#
# number of rings (size 3 to 8) (size 9 to 14) (size 15 to 20)
#    0.000    1.091    7.273    0.545    0.000    2.909 
#    3.273    0.000    0.000    2.182    0.000    0.000 
#    0.000    0.000    0.000    0.000    0.000    0.000 
#
# Total GULP energy -122668.403315 kJ/mol
# GULP energy per Si atom -5575.836514 kJ/mol
# Density = 2.145403 g / cm^3
# Si number density = 21.502974 Si / 1000 Ang^3
#
#
#
# Elastic Constant Matrix: (Units=GPa)
#
#
# Indices 1 2 3 4 5 6 
#
# 1 118.6826 17.5923 11.0753 0.0000 -3.2486 0.0000
# 2 17.5923 135.2232 37.5108 0.0000 -6.0886 0.0000
# 3 11.0753 37.5108 70.0767 0.0000 -5.9708 0.0000
# 4 0.0000 0.0000 0.0000 21.7512 0.0000 -0.9385
# 5 -3.2486 -6.0886 -5.9708 0.0000 28.5395 0.0000
# 6 0.0000 0.0000 0.0000 -0.9385 0.0000 26.2914
#
#
#
# Elastic Compliance Matrix: (Units=1/GPa)
#
#
# Indices 1 2 3 4 5 6 
#
# 1 0.008650 -0.000861 -0.000853 0.000000 0.000622 0.000000
# 2 -0.000861 0.008793 -0.004499 0.000000 0.000837 0.000000
# 3 -0.000853 -0.004499 0.017027 0.000000 0.002505 0.000000
# 4 0.000000 0.000000 0.000000 0.046045 0.000000 0.001644
# 5 0.000622 0.000837 0.002505 0.000000 0.035813 0.000000
# 6 0.000000 0.000000 0.000000 0.001644 0.000000 0.038094
#
#
# Mechanical properties :
#
#
# Convention : Reuss Voigt Hill
#
# Bulk Modulus (GPa) = 45.36579 50.70438 48.03509
# Shear Modulus (GPa) = 28.70325 32.50336 30.60330
#
# Velocity S-wave (km/s) = 3.65752 3.89212 3.77664
# Velocity P-wave (km/s) = 6.24339 6.62038 6.43465
#
# Compressibility (1/GPa) = 0.02204304
#
# Stress axis : x y z
#
# Youngs Moduli (GPa) = 115.60585 113.72755 58.73076
#
# Poissons Ratio (x) = 0.09787 0.05012
# Poissons Ratio (y) = 0.09949 0.26425
# Poissons Ratio (z) = 0.09866 0.51171
#
# Static dielectric constant tensor:
#      x y z
#    x 1.848820 0.000000 -0.018110 
#    y 0.000000 1.765650 0.000000 
#    z -0.018110 0.000000 1.819500 
# 
# From -- ./inp_files/134726.got.cif
#   From: 2010.05.17/outbox.cif.g08.bks.cpg/sg15_68_cif.got.tgz:134726.got - 2010.06.03 18:47:42.
