data_PCOD9282496
_publ_section_title
;
Structure prediction by ZEFSAII (Michael W. Deem and Ramdas Pophale) SiO2 
 PCOD9282496
Probable space group: C 2/C
;
_chemical_formula_sum "Si O2"
_cell_formula_units_Z 56
_cell_length_a 14.710664
_cell_length_b 12.888299
_cell_length_c 14.097675
_cell_angle_alpha 90.000000
_cell_angle_beta 57.278816
_cell_angle_gamma 90.000000
_cell_volume 2248.702128
_symmetry_space_group_name_H-M "C 2/C"
_symmetry_group_IT_number 15
_symmetry_cell_setting 'monoclinic'
loop_
_space_group_symop_operation_xyz
x,y,z
-x,y,1/2-z
-x,-y,-z
x,-y,1/2+z
1/2+x,1/2+y,z
1/2-x,1/2+y,1/2-z
1/2-x,1/2-y,-z
1/2+x,1/2-y,1/2+z
loop_
_atom_site_type_symbol
_atom_site_label
_atom_site_fract_x
_atom_site_fract_y
_atom_site_fract_z
Si Si1 0.848600 0.947105 0.177883
Si Si2 0.668002 0.987594 0.906775
Si Si3 0.047304 0.159163 0.618441
Si Si4 0.062423 0.295274 0.430844
Si Si5 0.095247 0.807036 0.623778
Si Si6 0.256324 0.775858 0.696351
Si Si7 0.281430 0.507221 0.017525
O O1 0.791933 0.987635 0.304244
O O2 0.820756 0.826757 0.182698
O O3 0.976610 0.937677 0.115085
O O4 0.788341 0.006242 0.127033
O O5 0.594798 0.082700 0.911633
O O6 0.664332 0.873990 0.861967
O O7 0.672652 0.988727 0.018388
O O8 0.046465 0.253843 0.545866
O O9 0.000000 0.179860 0.750000
O O10 0.167875 0.114397 0.547984
O O11 0.161104 0.227483 0.329078
O O12 0.961342 0.267410 0.420556
O O13 0.190433 0.760762 0.635114
O O14 0.145059 0.907522 0.547777
O O15 0.000000 0.837453 0.750000
#
# Coordination Sequence:
#
# PCOD9282496 Si02
#       7
#     8   8   8   8   8   8   8
#     4  11  22  39  62  94 122 161 204 259 314 364
#     4  10  22  40  60  94 124 163 207 255 308 375
#     4  12  23  38  61  91 126 159 204 256 314 372
#     4  10  21  39  62  93 128 163 200 260 319 362
#     4   9  18  33  60  90 119 155 205 255 303 358
#     4   9  21  40  65  91 125 159 209 259 307 371
#     4  11  21  35  64  90 119 154 208 258 310 359
#
# _framework density 24.903254
#
# number of rings (size 3 to 8) (size 9 to 14) (size 15 to 20)
#    0.000    1.714    2.857    1.714    4.000    2.857 
#    2.571    0.714    0.000    0.857    0.000    0.000 
#    0.000    0.000    0.000    0.000    0.000    0.000 
#
# Total GULP energy -156489.622604 kJ/mol
# GULP energy per Si atom -5588.915093 kJ/mol
# Density = 2.484657 g / cm^3
# Si number density = 24.903254 Si / 1000 Ang^3
#
#
#
# Elastic Constant Matrix: (Units=GPa)
#
#
# Indices 1 2 3 4 5 6 
#
# 1 71.7280 37.2257 15.8140 0.0000 17.7968 0.0000
# 2 37.2257 120.3256 30.3903 0.0000 6.3225 0.0000
# 3 15.8140 30.3903 116.0012 0.0000 32.4355 0.0000
# 4 0.0000 0.0000 0.0000 35.2853 0.0000 -3.0946
# 5 17.7968 6.3225 32.4355 0.0000 34.1761 0.0000
# 6 0.0000 0.0000 0.0000 -3.0946 0.0000 42.7296
#
#
#
# Elastic Compliance Matrix: (Units=1/GPa)
#
#
# Indices 1 2 3 4 5 6 
#
# 1 0.019233 -0.005871 0.001923 0.000000 -0.010754 0.000000
# 2 -0.005871 0.010707 -0.003138 0.000000 0.004055 0.000000
# 3 0.001923 -0.003138 0.012657 0.000000 -0.012433 0.000000
# 4 0.000000 0.000000 0.000000 0.028522 0.000000 0.002066
# 5 -0.010754 0.004055 -0.012433 0.000000 0.045911 0.000000
# 6 0.000000 0.000000 0.000000 0.002066 0.000000 0.023553
#
#
# Mechanical properties :
#
#
# Convention : Reuss Voigt Hill
#
# Bulk Modulus (GPa) = 35.18093 52.76831 43.97462
# Shear Modulus (GPa) = 30.44545 37.41318 33.92932
#
# Velocity S-wave (km/s) = 3.50029 3.88021 3.69514
# Velocity P-wave (km/s) = 5.52211 6.42729 5.99182
#
# Compressibility (1/GPa) = 0.02842449
#
# Stress axis : x y z
#
# Youngs Moduli (GPa) = 51.99479 93.39998 79.00635
#
# Poissons Ratio (x) = 0.54833 -0.15194
# Poissons Ratio (y) = 0.30525 0.24796
# Poissons Ratio (z) = -0.10000 0.29313
#
# Static dielectric constant tensor:
#      x y z
#    x 2.077600 0.000000 -0.038160 
#    y 0.000000 1.949000 0.000000 
#    z -0.038160 0.000000 2.028940 
# 
# From -- ./inp_files/161257.got.cif
#   From: 2010.05.17/outbox.cif.g08.bks.cpg/sg15_81_cif.got.tgz:161257.got - 2010.06.03 18:47:42.
