data_PCOD9282788
_publ_section_title
;
Structure prediction by ZEFSAII (Michael W. Deem and Ramdas Pophale) SiO2 
 PCOD9282788
Probable space group: C 2/C
;
_chemical_formula_sum "Si O2"
_cell_formula_units_Z 56
_cell_length_a 13.640960
_cell_length_b 7.868850
_cell_length_c 24.636355
_cell_angle_alpha 90.000000
_cell_angle_beta 53.993117
_cell_angle_gamma 90.000000
_cell_volume 2139.204926
_symmetry_space_group_name_H-M "C 2/C"
_symmetry_group_IT_number 15
_symmetry_cell_setting 'monoclinic'
loop_
_space_group_symop_operation_xyz
x,y,z
-x,y,1/2-z
-x,-y,-z
x,-y,1/2+z
1/2+x,1/2+y,z
1/2-x,1/2+y,1/2-z
1/2-x,1/2-y,-z
1/2+x,1/2-y,1/2+z
loop_
_atom_site_type_symbol
_atom_site_label
_atom_site_fract_x
_atom_site_fract_y
_atom_site_fract_z
Si Si1 0.947881 0.425199 0.580563
Si Si2 0.772773 0.908681 0.031562
Si Si3 0.833750 0.466700 0.725118
Si Si4 0.286150 0.889698 0.856298
Si Si5 0.489363 0.329060 0.581402
Si Si6 0.429451 0.351342 0.715925
Si Si7 0.800463 0.602150 0.544853
O O1 0.905211 0.371207 0.653711
O O2 0.987246 0.623053 0.578576
O O3 0.837103 0.447049 0.574111
O O4 0.063066 0.335817 0.516344
O O5 0.915226 0.897331 0.992356
O O6 0.751668 0.058701 0.996077
O O7 0.750000 0.750000 0.000000
O O8 0.696028 0.948536 0.110103
O O9 0.852452 0.382806 0.777859
O O10 0.693511 0.463284 0.750604
O O11 0.877869 0.659590 0.721566
O O12 0.144817 0.894241 0.885770
O O13 0.286879 0.723589 0.893067
O O14 0.515015 0.382209 0.635513
O O15 0.500000 0.365515 0.750000
#
# Coordination Sequence:
#
# PCOD9282788 Si02
#       7
#     8   8   8   8   8   8   8
#     4   9  19  40  66  93 128 172 216 273 338 402
#     4  12  23  36  65  97 125 171 227 270 334 404
#     4  10  23  44  70  97 139 183 227 288 353 408
#     4  10  23  42  61  91 137 173 214 281 342 402
#     4   9  20  41  60  94 127 165 220 277 331 404
#     4  10  23  43  70  99 135 179 232 284 346 417
#     4  10  21  39  64  95 133 168 221 279 331 405
#
# _framework density 26.177948000000001
#
# number of rings (size 3 to 8) (size 9 to 14) (size 15 to 20)
#    0.000    2.000    1.429    1.714    4.000    0.000 
#    5.143    0.714    0.000    0.000    0.000    0.000 
#    0.000    0.000    0.000    0.000    0.000    0.000 
#
# Total GULP energy -156437.752619 kJ/mol
# GULP energy per Si atom -5587.062594 kJ/mol
# Density = 2.611837 g / cm^3
# Si number density = 26.177948 Si / 1000 Ang^3
#
#
#
# Elastic Constant Matrix: (Units=GPa)
#
#
# Indices 1 2 3 4 5 6 
#
# 1 80.5247 19.6959 -7.6358 0.0000 17.4722 0.0000
# 2 19.6959 54.2613 17.4992 0.0001 11.1134 0.0001
# 3 -7.6358 17.4992 160.9816 0.0000 31.2186 0.0000
# 4 0.0000 0.0001 0.0000 25.3462 0.0000 1.5793
# 5 17.4722 11.1134 31.2186 0.0000 39.9447 0.0000
# 6 0.0000 0.0001 0.0000 1.5793 0.0000 34.6514
#
#
#
# Elastic Compliance Matrix: (Units=1/GPa)
#
#
# Indices 1 2 3 4 5 6 
#
# 1 0.015535 -0.004976 0.002743 0.000000 -0.007554 0.000000
# 2 -0.004976 0.021357 -0.002154 0.000000 -0.002082 0.000000
# 3 0.002743 -0.002154 0.007888 0.000000 -0.006765 0.000000
# 4 0.000000 0.000000 0.000000 0.039566 0.000000 -0.001803
# 5 -0.007554 -0.002082 -0.006765 0.000000 0.034206 0.000000
# 6 0.000000 0.000000 0.000000 -0.001803 0.000000 0.028941
#
#
# Mechanical properties :
#
#
# Convention : Reuss Voigt Hill
#
# Bulk Modulus (GPa) = 27.77391 39.43179 33.60285
# Shear Modulus (GPa) = 29.71440 37.73568 33.72504
#
# Velocity S-wave (km/s) = 3.37277 3.80084 3.59318
# Velocity P-wave (km/s) = 5.07938 5.86153 5.48441
#
# Compressibility (1/GPa) = 0.03600501
#
# Stress axis : x y z
#
# Youngs Moduli (GPa) = 64.37113 46.82387 126.77312
#
# Poissons Ratio (x) = 0.23301 -0.34771
# Poissons Ratio (y) = 0.32033 0.27305
# Poissons Ratio (z) = -0.17656 0.10085
#
# Static dielectric constant tensor:
#      x y z
#    x 2.188780 0.000000 -0.014910 
#    y 0.000000 2.184800 0.000000 
#    z -0.014910 0.000000 2.063000 
# 
# From -- ./inp_files/273027.got.cif
#   From: 2010.05.17/outbox.cif.g08.bks.cpg/sg15_137_cif.got.tgz:273027.got - 2010.06.03 18:47:42.
