data_PCOD9282299
_publ_section_title
;
Structure prediction by ZEFSAII (Michael W. Deem and Ramdas Pophale) SiO2 
 PCOD9282299
Probable space group: C 2/C
;
_chemical_formula_sum "Si O2"
_cell_formula_units_Z 56
_cell_length_a 29.224975
_cell_length_b 8.932560
_cell_length_c 17.633883
_cell_angle_alpha 90.000000
_cell_angle_beta 40.108153
_cell_angle_gamma 90.000000
_cell_volume 2965.655186
_symmetry_space_group_name_H-M "C 2/C"
_symmetry_group_IT_number 15
_symmetry_cell_setting 'monoclinic'
loop_
_space_group_symop_operation_xyz
x,y,z
-x,y,1/2-z
-x,-y,-z
x,-y,1/2+z
1/2+x,1/2+y,z
1/2-x,1/2+y,1/2-z
1/2-x,1/2-y,-z
1/2+x,1/2-y,1/2+z
loop_
_atom_site_type_symbol
_atom_site_label
_atom_site_fract_x
_atom_site_fract_y
_atom_site_fract_z
Si Si1 0.374812 0.744447 0.694878
Si Si2 0.293867 0.458111 0.783303
Si Si3 0.957053 0.565114 0.982690
Si Si4 0.278657 0.406694 0.626995
Si Si5 0.916133 0.528432 0.268200
Si Si6 0.781357 0.664516 0.888639
Si Si7 0.643238 0.106437 0.996574
O O1 0.355651 0.571505 0.730376
O O2 0.420609 0.785836 0.562182
O O3 0.298278 0.825158 0.780172
O O4 0.411444 0.823354 0.720809
O O5 0.289987 0.462898 0.697610
O O6 0.302403 0.289252 0.800414
O O7 0.218080 0.518709 0.909840
O O8 0.895517 0.455699 0.029377
O O9 0.014378 0.565692 0.842728
O O10 0.000000 0.500000 0.000000
O O11 0.274047 0.546880 0.576669
O O12 0.336260 0.280381 0.534642
O O13 0.849409 0.428691 0.327850
O O14 0.904789 0.573341 0.369349
O O15 0.750000 0.750000 0.000000
#
# Coordination Sequence:
#
# PCOD9282299 Si02
#       7
#     8   8   8   8   8   8   8
#     4   9  20  36  59  86 117 154 201 246 303 372
#     4  11  21  35  62  89 125 152 200 259 316 370
#     4  10  21  39  61  83 117 158 211 248 303 374
#     4  10  22  34  60  88 121 152 201 251 315 367
#     4  10  22  37  60  84 121 164 202 249 311 382
#     4  11  22  37  58  95 125 155 196 260 323 364
#     4  11  21  37  61  87 116 158 207 255 308 368
#
# _framework density 18.882843000000001
#
# number of rings (size 3 to 8) (size 9 to 14) (size 15 to 20)
#    0.000    1.714    2.857    2.143    6.000    1.714 
#    0.000    0.714    0.000    0.000    0.000    0.000 
#    0.000    0.000    0.000    0.000    0.000    0.000 
#
# Total GULP energy -156218.049163 kJ/mol
# GULP energy per Si atom -5579.216042 kJ/mol
# Density = 1.883987 g / cm^3
# Si number density = 18.882843 Si / 1000 Ang^3
#
#
#
# Elastic Constant Matrix: (Units=GPa)
#
#
# Indices 1 2 3 4 5 6 
#
# 1 59.6673 23.7208 14.8623 0.0001 9.1806 -0.0001
# 2 23.7208 82.6041 17.8877 -0.0005 4.6994 0.0006
# 3 14.8623 17.8877 96.8213 -0.0008 12.9573 0.0003
# 4 0.0001 -0.0005 -0.0008 27.8600 0.0002 0.8925
# 5 9.1806 4.6994 12.9573 0.0002 24.4949 0.0001
# 6 -0.0001 0.0006 0.0003 0.8925 0.0001 23.3063
#
#
#
# Elastic Compliance Matrix: (Units=1/GPa)
#
#
# Indices 1 2 3 4 5 6 
#
# 1 0.020028 -0.005129 -0.001350 0.000000 -0.005809 0.000000
# 2 -0.005129 0.013961 -0.001820 0.000000 0.000206 0.000000
# 3 -0.001350 -0.001820 0.011577 0.000000 -0.005269 0.000000
# 4 0.000000 0.000000 0.000000 0.035938 0.000000 -0.001376
# 5 -0.005809 0.000206 -0.005269 0.000000 0.045750 0.000000
# 6 0.000000 0.000000 0.000000 -0.001376 0.000000 0.042959
#
#
# Mechanical properties :
#
#
# Convention : Reuss Voigt Hill
#
# Bulk Modulus (GPa) = 34.51792 39.11494 36.81643
# Shear Modulus (GPa) = 25.44975 27.30704 26.37840
#
# Velocity S-wave (km/s) = 3.67518 3.80693 3.74163
# Velocity P-wave (km/s) = 6.02736 6.33112 6.18110
#
# Compressibility (1/GPa) = 0.02897046
#
# Stress axis : x y z
#
# Youngs Moduli (GPa) = 49.92906 71.62802 86.37988
#
# Poissons Ratio (x) = 0.36736 0.11657
# Poissons Ratio (y) = 0.25607 0.15718
# Poissons Ratio (z) = 0.06738 0.13034
#
# Static dielectric constant tensor:
#      x y z
#    x 1.659750 0.000000 0.006350 
#    y 0.000000 1.685230 0.000000 
#    z 0.006350 0.000000 1.677740 
# 
# From -- ./inp_files/213804.got.cif
#   From: 2010.05.17/outbox.cif.g08.bks.cpg/sg15_107_cif.got.tgz:213804.got - 2010.06.03 18:47:42.
