data_PCOD9282197
_publ_section_title
;
Structure prediction by ZEFSAII (Michael W. Deem and Ramdas Pophale) SiO2 
 PCOD9282197
Probable space group: C 2/C
;
_chemical_formula_sum "Si O2"
_cell_formula_units_Z 48
_cell_length_a 24.052716
_cell_length_b 9.520644
_cell_length_c 8.971938
_cell_angle_alpha 90.000000
_cell_angle_beta 104.542353
_cell_angle_gamma 90.000000
_cell_volume 1988.726927
_symmetry_space_group_name_H-M "C 2/C"
_symmetry_group_IT_number 15
_symmetry_cell_setting 'monoclinic'
loop_
_space_group_symop_operation_xyz
x,y,z
-x,y,1/2-z
-x,-y,-z
x,-y,1/2+z
1/2+x,1/2+y,z
1/2-x,1/2+y,1/2-z
1/2-x,1/2-y,-z
1/2+x,1/2-y,1/2+z
loop_
_atom_site_type_symbol
_atom_site_label
_atom_site_fract_x
_atom_site_fract_y
_atom_site_fract_z
Si Si1 0.944328 0.161418 0.418854
Si Si2 0.622938 0.982021 0.834396
Si Si3 0.000000 0.388124 0.250000
Si Si4 0.188244 0.639348 0.108900
Si Si5 0.277719 0.400501 0.199547
Si Si6 0.168600 0.217131 0.038248
Si Si7 0.000000 0.931330 0.250000
O O1 0.980404 0.288308 0.372634
O O2 0.875650 0.171050 0.366319
O O3 0.961931 0.148412 0.603398
O O4 0.961595 0.028392 0.331258
O O5 0.639998 0.937128 0.679070
O O6 0.636201 0.841704 0.931862
O O7 0.557740 0.025793 0.815957
O O8 0.667288 0.099759 0.928726
O O9 0.246292 0.550916 0.191170
O O10 0.191987 0.805329 0.151066
O O11 0.316068 0.398260 0.075802
O O12 0.225554 0.294464 0.128411
#
# Coordination Sequence:
#
# PCOD9282197 Si02
#       7
#     8   8   4   8   8   8   4
#     4  10  21  39  60  83 116 154 199 247 301 361
#     4  10  22  38  58  87 120 153 198 253 302 358
#     4  11  22  37  60  88 118 157 200 247 306 360
#     4  10  21  39  59  85 121 157 200 252 303 360
#     4   9  19  36  57  84 118 154 194 246 302 357
#     4   9  19  36  57  82 116 154 192 242 301 359
#     4   9  22  41  58  82 116 155 198 251 296 354
#
# _framework density 24.136043000000001
#
# number of rings (size 3 to 8) (size 9 to 14) (size 15 to 20)
#    0.000    2.333    0.000    3.000    0.000    8.000 
#    0.000    5.000    0.000    0.000    0.000    0.000 
#    0.000    0.000    0.000    0.000    0.000    0.000 
#
# Total GULP energy -134047.444815 kJ/mol
# GULP energy per Si atom -5585.310201 kJ/mol
# Density = 2.408111 g / cm^3
# Si number density = 24.136043 Si / 1000 Ang^3
#
#
#
# Elastic Constant Matrix: (Units=GPa)
#
#
# Indices 1 2 3 4 5 6 
#
# 1 120.2821 23.4206 21.0147 0.0000 -12.5783 0.0000
# 2 23.4206 57.6271 24.3129 0.0000 -4.5017 0.0000
# 3 21.0147 24.3129 81.5005 0.0000 3.7203 0.0000
# 4 0.0000 0.0000 0.0000 23.7153 0.0000 14.1302
# 5 -12.5783 -4.5017 3.7203 0.0000 22.5795 0.0000
# 6 0.0000 0.0000 0.0000 14.1302 0.0000 15.6805
#
#
#
# Elastic Compliance Matrix: (Units=1/GPa)
#
#
# Indices 1 2 3 4 5 6 
#
# 1 0.009726 -0.002733 -0.001929 0.000000 0.005191 0.000000
# 2 -0.002733 0.021189 -0.005783 0.000000 0.003655 0.000000
# 3 -0.001929 -0.005783 0.014705 0.000000 -0.004651 0.000000
# 4 0.000000 0.000000 0.000000 0.091057 0.000000 -0.082054
# 5 0.005191 0.003655 -0.004651 0.000000 0.048675 0.000000
# 6 0.000000 0.000000 0.000000 -0.082054 0.000000 0.137715
#
#
# Mechanical properties :
#
#
# Convention : Reuss Voigt Hill
#
# Bulk Modulus (GPa) = 40.43932 44.10066 42.26999
# Shear Modulus (GPa) = 14.19643 25.10584 19.65113
#
# Velocity S-wave (km/s) = 2.42788 3.22868 2.85648
# Velocity P-wave (km/s) = 4.96494 5.67543 5.33203
#
# Compressibility (1/GPa) = 0.02472841
#
# Stress axis : x y z
#
# Youngs Moduli (GPa) = 102.81808 47.19379 68.00477
#
# Poissons Ratio (x) = 0.12899 0.13121
# Poissons Ratio (y) = 0.28103 0.39328
# Poissons Ratio (z) = 0.19837 0.27293
#
# Static dielectric constant tensor:
#      x y z
#    x 2.064950 0.000000 -0.063450 
#    y 0.000000 1.933060 0.000000 
#    z -0.063450 0.000000 1.993240 
# 
# From -- ./inp_files/60692.got.cif
#   From: 2010.05.17/outbox.cif.g08.bks.cpg/sg15_31_cif.got.tgz:60692.got - 2010.06.03 18:47:42.
