data_PCOD9282355
_publ_section_title
;
Structure prediction by ZEFSAII (Michael W. Deem and Ramdas Pophale) SiO2 
 PCOD9282355
Probable space group: C 2/C
;
_chemical_formula_sum "Si O2"
_cell_formula_units_Z 48
_cell_length_a 12.821927
_cell_length_b 13.465202
_cell_length_c 25.796049
_cell_angle_alpha 90.000000
_cell_angle_beta 149.909731
_cell_angle_gamma 90.000000
_cell_volume 2232.915737
_symmetry_space_group_name_H-M "C 2/C"
_symmetry_group_IT_number 15
_symmetry_cell_setting 'monoclinic'
loop_
_space_group_symop_operation_xyz
x,y,z
-x,y,1/2-z
-x,-y,-z
x,-y,1/2+z
1/2+x,1/2+y,z
1/2-x,1/2+y,1/2-z
1/2-x,1/2-y,-z
1/2+x,1/2-y,1/2+z
loop_
_atom_site_type_symbol
_atom_site_label
_atom_site_fract_x
_atom_site_fract_y
_atom_site_fract_z
Si Si1 0.080736 0.917360 0.843622
Si Si2 0.582317 0.360670 0.380108
Si Si3 0.467148 0.160473 0.461110
Si Si4 0.706435 0.174360 0.227155
Si Si5 0.711952 0.032651 0.326343
Si Si6 0.059639 0.869742 0.485956
O O1 0.328409 0.898852 0.942763
O O2 0.000000 0.915999 0.750000
O O3 0.953537 0.832263 0.819730
O O4 0.026772 0.024775 0.844517
O O5 0.396327 0.279088 0.298805
O O6 0.657044 0.349304 0.471868
O O7 0.782456 0.344707 0.429269
O O8 0.398167 0.138620 0.372043
O O9 0.423826 0.277661 0.447239
O O10 0.679452 0.094840 0.260767
O O11 0.500000 0.977931 0.250000
O O12 0.770483 0.106026 0.398415
O O13 0.905115 0.959579 0.408179
#
# Coordination Sequence:
#
# PCOD9282355 Si02
#       6
#     8   8   8   8   8   8
#     4  10  22  39  61  93 124 160 213 259 309 378
#     4  11  20  39  65  89 122 168 206 263 319 374
#     4  10  21  39  63  87 125 165 208 263 316 377
#     4  10  21  39  61  90 124 161 212 257 312 376
#     4  11  21  37  61  87 125 165 209 261 309 383
#     4  10  22  37  60  92 124 161 216 252 320 374
#
# _framework density 21.496558
#
# number of rings (size 3 to 8) (size 9 to 14) (size 15 to 20)
#    0.000    1.667    1.667    4.500    0.000    5.333 
#    0.000    0.833    3.667    0.000    0.000    0.000 
#    0.000    0.000    0.000    0.000    0.000    0.000 
#
# Total GULP energy -133758.004075 kJ/mol
# GULP energy per Si atom -5573.250170 kJ/mol
# Density = 2.144763 g / cm^3
# Si number density = 21.496558 Si / 1000 Ang^3
#
#
#
# Elastic Constant Matrix: (Units=GPa)
#
#
# Indices 1 2 3 4 5 6 
#
# 1 91.9068 43.5236 38.5711 0.0001 38.2481 0.0000
# 2 43.5236 98.6824 26.5223 0.0001 20.0299 0.0001
# 3 38.5711 26.5223 56.5756 0.0002 24.8722 0.0003
# 4 0.0001 0.0001 0.0002 28.6285 0.0003 7.0174
# 5 38.2481 20.0299 24.8722 0.0003 37.1761 0.0001
# 6 0.0000 0.0001 0.0003 7.0174 0.0001 32.0550
#
#
#
# Elastic Compliance Matrix: (Units=1/GPa)
#
#
# Indices 1 2 3 4 5 6 
#
# 1 0.022638 -0.005052 -0.005699 0.000000 -0.016756 0.000000
# 2 -0.005052 0.013092 -0.002660 0.000000 -0.000077 0.000000
# 3 -0.005699 -0.002660 0.027767 0.000000 -0.011281 0.000000
# 4 0.000000 0.000000 0.000000 0.036911 0.000000 -0.008080
# 5 -0.016756 -0.000077 -0.011281 0.000000 0.051727 0.000000
# 6 0.000000 0.000000 0.000000 -0.008080 0.000000 0.032965
#
#
# Mechanical properties :
#
#
# Convention : Reuss Voigt Hill
#
# Bulk Modulus (GPa) = 27.26547 51.59986 39.43267
# Shear Modulus (GPa) = 22.30692 28.80845 25.55768
#
# Velocity S-wave (km/s) = 3.22483 3.66477 3.45181
# Velocity P-wave (km/s) = 5.15531 6.47790 5.85408
#
# Compressibility (1/GPa) = 0.03667642
#
# Stress axis : x y z
#
# Youngs Moduli (GPa) = 44.17396 76.38276 36.01396
#
# Poissons Ratio (x) = 0.38586 0.20524
# Poissons Ratio (y) = 0.22315 0.09578
# Poissons Ratio (z) = 0.25175 0.20314
#
# Static dielectric constant tensor:
#      x y z
#    x 1.804660 0.000000 0.048950 
#    y 0.000000 1.845530 0.000000 
#    z 0.048950 0.000000 1.806380 
# 
# From -- ./inp_files/238946.got.cif
#   From: 2010.05.17/outbox.cif.g08.bks.cpg/sg15_120_cif.got.tgz:238946.got - 2010.06.03 18:47:42.
