data_PCOD9282983
_publ_section_title
;
Structure prediction by ZEFSAII (Michael W. Deem and Ramdas Pophale) SiO2 
 PCOD9282983
Probable space group: C 2/C
;
_chemical_formula_sum "Si O2"
_cell_formula_units_Z 56
_cell_length_a 17.892601
_cell_length_b 14.799686
_cell_length_c 13.909239
_cell_angle_alpha 90.000000
_cell_angle_beta 130.064862
_cell_angle_gamma 90.000000
_cell_volume 2818.839189
_symmetry_space_group_name_H-M "C 2/C"
_symmetry_group_IT_number 15
_symmetry_cell_setting 'monoclinic'
loop_
_space_group_symop_operation_xyz
x,y,z
-x,y,1/2-z
-x,-y,-z
x,-y,1/2+z
1/2+x,1/2+y,z
1/2-x,1/2+y,1/2-z
1/2-x,1/2-y,-z
1/2+x,1/2-y,1/2+z
loop_
_atom_site_type_symbol
_atom_site_label
_atom_site_fract_x
_atom_site_fract_y
_atom_site_fract_z
Si Si1 0.264035 0.953988 0.397156
Si Si2 0.902577 0.261680 0.324517
Si Si3 0.370216 0.744482 0.977921
Si Si4 0.893040 0.382285 0.672222
Si Si5 0.090670 0.474925 0.144976
Si Si6 0.723537 0.258549 0.306971
Si Si7 0.287761 0.638816 0.074621
O O1 0.351744 0.926409 0.541445
O O2 0.312363 0.988302 0.338628
O O3 0.210105 0.860550 0.331643
O O4 0.202372 0.034694 0.391463
O O5 0.907362 0.370589 0.319638
O O6 0.835548 0.246043 0.363790
O O7 0.851560 0.204521 0.196920
O O8 0.014758 0.233737 0.422234
O O9 0.337901 0.753202 0.841572
O O10 0.323961 0.831128 0.995077
O O11 0.317848 0.662589 0.991275
O O12 0.907475 0.460039 0.762975
O O13 0.814106 0.311854 0.646603
O O14 0.000000 0.338647 0.750000
O O15 0.000000 0.500000 0.000000
#
# Coordination Sequence:
#
# PCOD9282983 Si02
#       7
#     8   8   8   8   8   8   8
#     4  11  24  41  64  89 136 162 214 267 313 383
#     4  10  21  39  67  91 133 167 207 266 324 375
#     4  10  21  39  66  90 131 165 210 262 323 374
#     4  12  25  40  67  95 126 170 213 267 331 376
#     4  11  21  38  63 101 124 159 212 267 323 376
#     4  10  24  43  62  93 126 171 211 264 315 388
#     4  10  22  38  61 100 129 165 211 266 319 383
#
# _framework density 19.866333000000001
#
# number of rings (size 3 to 8) (size 9 to 14) (size 15 to 20)
#    0.000    1.429    1.429    4.286   10.000    0.000 
#    0.000    2.143    0.000    0.000    0.000    0.000 
#    0.000    0.000    0.000    0.000    0.000    0.000 
#
# Total GULP energy -156406.656961 kJ/mol
# GULP energy per Si atom -5585.952034 kJ/mol
# Density = 1.982112 g / cm^3
# Si number density = 19.866333 Si / 1000 Ang^3
#
#
#
# Elastic Constant Matrix: (Units=GPa)
#
#
# Indices 1 2 3 4 5 6 
#
# 1 79.0687 25.8173 15.8122 0.0000 13.2083 0.0000
# 2 25.8173 56.0591 -5.9239 0.0000 7.1863 0.0000
# 3 15.8122 -5.9239 41.2289 0.0000 11.5148 0.0000
# 4 0.0000 0.0000 0.0000 6.6136 0.0000 -3.8843
# 5 13.2083 7.1863 11.5148 0.0000 32.0750 0.0000
# 6 0.0000 0.0000 0.0000 -3.8843 0.0000 26.1190
#
#
#
# Elastic Compliance Matrix: (Units=1/GPa)
#
#
# Indices 1 2 3 4 5 6 
#
# 1 0.017229 -0.008334 -0.007052 0.000000 -0.002696 0.000000
# 2 -0.008334 0.023079 0.007778 0.000000 -0.004531 0.000000
# 3 -0.007052 0.007778 0.030845 0.000000 -0.009912 0.000000
# 4 0.000000 0.000000 0.000000 0.165673 0.000000 0.024638
# 5 -0.002696 -0.004531 -0.009912 0.000000 0.036860 0.000000
# 6 0.000000 0.000000 0.000000 0.024638 0.000000 0.041950
#
#
# Mechanical properties :
#
#
# Convention : Reuss Voigt Hill
#
# Bulk Modulus (GPa) = 17.87739 27.52975 22.70357
# Shear Modulus (GPa) = 14.30612 22.33827 18.32219
#
# Velocity S-wave (km/s) = 2.68641 3.35689 3.04019
# Velocity P-wave (km/s) = 4.31750 5.37703 4.87613
#
# Compressibility (1/GPa) = 0.05593659
#
# Stress axis : x y z
#
# Youngs Moduli (GPa) = 58.04095 43.32870 32.41971
#
# Poissons Ratio (x) = 0.36112 0.22864
# Poissons Ratio (y) = 0.48373 -0.25216
# Poissons Ratio (z) = 0.40933 -0.33701
#
# Static dielectric constant tensor:
#      x y z
#    x 1.702770 0.000000 0.005240 
#    y 0.000000 1.697980 0.000000 
#    z 0.005240 0.000000 1.714170 
# 
# From -- ./inp_files/162317.got.cif
#   From: 2010.05.17/outbox.cif.g08.bks.cpg/sg15_82_cif.got.tgz:162317.got - 2010.06.03 18:47:42.
