data_PCOD9282993
_publ_section_title
;
Structure prediction by ZEFSAII (Michael W. Deem and Ramdas Pophale) SiO2 
 PCOD9282993
Probable space group: C 2/C
;
_chemical_formula_sum "Si O2"
_cell_formula_units_Z 48
_cell_length_a 8.441488
_cell_length_b 30.419259
_cell_length_c 10.417927
_cell_angle_alpha 90.000000
_cell_angle_beta 63.946844
_cell_angle_gamma 90.000000
_cell_volume 2403.324360
_symmetry_space_group_name_H-M "C 2/C"
_symmetry_group_IT_number 15
_symmetry_cell_setting 'monoclinic'
loop_
_space_group_symop_operation_xyz
x,y,z
-x,y,1/2-z
-x,-y,-z
x,-y,1/2+z
1/2+x,1/2+y,z
1/2-x,1/2+y,1/2-z
1/2-x,1/2-y,-z
1/2+x,1/2-y,1/2+z
loop_
_atom_site_type_symbol
_atom_site_label
_atom_site_fract_x
_atom_site_fract_y
_atom_site_fract_z
Si Si1 0.814400 0.474237 0.542696
Si Si2 0.316072 0.629047 0.144694
Si Si3 0.125961 0.289691 0.583795
Si Si4 0.209550 0.533334 0.166756
Si Si5 0.891274 0.711941 0.915413
Si Si6 0.230823 0.123983 0.037168
O O1 0.717388 0.501368 0.467015
O O2 0.720180 0.473101 0.714350
O O3 0.826268 0.423387 0.493818
O O4 0.000000 0.500000 0.500000
O O5 0.244660 0.669206 0.086653
O O6 0.231148 0.584109 0.124895
O O7 0.525109 0.621143 0.073865
O O8 0.261466 0.635937 0.313378
O O9 0.250000 0.250000 0.500000
O O10 0.000000 0.279416 0.750000
O O11 0.012414 0.296293 0.496302
O O12 0.000000 0.524608 0.250000
O O13 0.000000 0.725107 0.750000
O O14 0.750000 0.750000 0.000000
O O15 0.804000 0.664132 0.927631
#
# Coordination Sequence:
#
# PCOD9282993 Si02
#       6
#     8   8   8   8   8   8
#     4   9  19  34  60  88 123 167 214 266 319 388
#     4  10  21  39  66  92 127 173 221 270 326 400
#     4  12  24  42  69  96 126 169 224 272 328 400
#     4   9  18  34  59  87 122 163 218 256 325 383
#     4  12  27  44  68  97 134 170 216 274 341 392
#     4  10  22  41  63  94 131 173 218 270 335 392
#
# _framework density 19.972335000000001
#
# number of rings (size 3 to 8) (size 9 to 14) (size 15 to 20)
#    0.000    1.667    1.667    2.500    7.000    2.667 
#    0.000    0.000    0.000    0.000    0.000    0.000 
#    0.000    0.000    0.000    0.000    0.000    0.000 
#
# Total GULP energy -133899.718723 kJ/mol
# GULP energy per Si atom -5579.154947 kJ/mol
# Density = 1.992688 g / cm^3
# Si number density = 19.972335 Si / 1000 Ang^3
#
#
#
# Elastic Constant Matrix: (Units=GPa)
#
#
# Indices 1 2 3 4 5 6 
#
# 1 68.8308 34.4190 27.6814 0.0000 7.5210 0.0000
# 2 34.4190 151.6073 66.8459 0.0000 5.9103 0.0000
# 3 27.6814 66.8459 98.8812 0.0000 6.6870 0.0000
# 4 0.0000 0.0000 0.0000 36.0234 0.0000 5.0343
# 5 7.5210 5.9103 6.6870 0.0000 27.7617 0.0000
# 6 0.0000 0.0000 0.0000 5.0343 0.0000 17.6243
#
#
#
# Elastic Compliance Matrix: (Units=1/GPa)
#
#
# Indices 1 2 3 4 5 6 
#
# 1 0.017338 -0.002514 -0.002920 0.000000 -0.003458 0.000000
# 2 -0.002514 0.009768 -0.005901 0.000000 0.000023 0.000000
# 3 -0.002920 -0.005901 0.015026 0.000000 -0.001572 0.000000
# 4 0.000000 0.000000 0.000000 0.028914 0.000000 -0.008259
# 5 -0.003458 0.000023 -0.001572 0.000000 0.037332 0.000000
# 6 0.000000 0.000000 0.000000 -0.008259 0.000000 0.059099
#
#
# Mechanical properties :
#
#
# Convention : Reuss Voigt Hill
#
# Bulk Modulus (GPa) = 51.38386 64.13466 57.75926
# Shear Modulus (GPa) = 25.42804 28.97341 27.20072
#
# Velocity S-wave (km/s) = 3.57201 3.81291 3.69442
# Velocity P-wave (km/s) = 6.54184 7.18093 6.86883
#
# Compressibility (1/GPa) = 0.01946136
#
# Stress axis : x y z
#
# Youngs Moduli (GPa) = 57.67767 102.37941 66.55035
#
# Poissons Ratio (x) = 0.25734 0.19436
# Poissons Ratio (y) = 0.14498 0.39271
# Poissons Ratio (z) = 0.16845 0.60414
#
# Static dielectric constant tensor:
#      x y z
#    x 2.229690 0.000000 -0.032410 
#    y 0.000000 1.719490 0.000000 
#    z -0.032410 0.000000 1.726330 
# 
# From -- ./inp_files/80527.got.cif
#   From: 2010.05.17/outbox.cif.g08.bks.cpg/sg15_41_cif.got.tgz:80527.got - 2010.06.03 18:47:42.
