data_PCOD9282822
_publ_section_title
;
Structure prediction by ZEFSAII (Michael W. Deem and Ramdas Pophale) SiO2 
 PCOD9282822
Probable space group: C 2/C
;
_chemical_formula_sum "Si O2"
_cell_formula_units_Z 40
_cell_length_a 14.565927
_cell_length_b 17.080562
_cell_length_c 13.043436
_cell_angle_alpha 90.000000
_cell_angle_beta 34.026788
_cell_angle_gamma 90.000000
_cell_volume 1815.912130
_symmetry_space_group_name_H-M "C 2/C"
_symmetry_group_IT_number 15
_symmetry_cell_setting 'monoclinic'
loop_
_space_group_symop_operation_xyz
x,y,z
-x,y,1/2-z
-x,-y,-z
x,-y,1/2+z
1/2+x,1/2+y,z
1/2-x,1/2+y,1/2-z
1/2-x,1/2-y,-z
1/2+x,1/2-y,1/2+z
loop_
_atom_site_type_symbol
_atom_site_label
_atom_site_fract_x
_atom_site_fract_y
_atom_site_fract_z
Si Si1 0.487695 0.643900 0.138478
Si Si2 0.257646 0.257309 0.228814
Si Si3 0.021558 0.965165 0.352816
Si Si4 0.798921 0.633521 0.349404
Si Si5 0.633890 0.111531 0.975313
O O1 0.500000 0.647202 0.250000
O O2 0.319085 0.685584 0.262709
O O3 0.508158 0.553974 0.084534
O O4 0.620844 0.695984 0.956419
O O5 0.322633 0.216926 0.272804
O O6 0.132598 0.321818 0.389671
O O7 0.000000 0.969611 0.250000
O O8 0.878997 0.902574 0.510960
O O9 0.210613 0.942111 0.197066
O O10 0.820040 0.640755 0.452042
O O11 0.948655 0.581031 0.164972
#
# Coordination Sequence:
#
# PCOD9282822 Si02
#       5
#     8   8   8   8   8
#     4  11  25  45  64  89 127 176 222 262 306 369
#     4  12  22  40  64  94 130 166 212 264 322 378
#     4   9  21  43  67  90 129 173 211 260 317 375
#     4  10  21  39  65 100 132 161 204 264 330 388
#     4  10  21  39  65 100 132 161 204 264 330 388
#
# _framework density 22.027497
#
# number of rings (size 3 to 8) (size 9 to 14) (size 15 to 20)
#    0.000    1.600    2.000    2.400    0.000    3.200 
#    3.600    2.000    0.000    0.000    0.000    0.000 
#    0.000    0.000    0.000    0.000    0.000    0.000 
#
# Total GULP energy -111578.122931 kJ/mol
# GULP energy per Si atom -5578.906147 kJ/mol
# Density = 2.197736 g / cm^3
# Si number density = 22.027497 Si / 1000 Ang^3
#
#
#
# Elastic Constant Matrix: (Units=GPa)
#
#
# Indices 1 2 3 4 5 6 
#
# 1 43.4141 2.4679 9.8538 -0.0003 17.5660 0.0004
# 2 2.4679 97.0424 51.6032 0.0002 5.8099 0.0002
# 3 9.8538 51.6032 146.1135 0.0001 1.4157 0.0003
# 4 -0.0003 0.0002 0.0001 40.0384 0.0001 10.3569
# 5 17.5660 5.8099 1.4157 0.0001 33.8519 -0.0003
# 6 0.0004 0.0002 0.0003 10.3569 -0.0003 29.6564
#
#
#
# Elastic Compliance Matrix: (Units=1/GPa)
#
#
# Indices 1 2 3 4 5 6 
#
# 1 0.029807 0.001435 -0.002366 0.000000 -0.015614 -0.000001
# 2 0.001435 0.012892 -0.004623 0.000000 -0.002764 0.000000
# 3 -0.002366 -0.004623 0.008620 0.000000 0.001660 0.000000
# 4 0.000000 0.000000 0.000000 0.027456 0.000000 -0.009589
# 5 -0.015614 -0.002764 0.001660 0.000000 0.038048 0.000001
# 6 -0.000001 0.000000 0.000000 -0.009589 0.000001 0.037068
#
#
# Mechanical properties :
#
#
# Convention : Reuss Voigt Hill
#
# Bulk Modulus (GPa) = 24.86846 46.04664 35.45755
# Shear Modulus (GPa) = 28.02632 35.55235 31.78934
#
# Velocity S-wave (km/s) = 3.57085 4.02182 3.80302
# Velocity P-wave (km/s) = 5.32123 6.52045 5.95112
#
# Compressibility (1/GPa) = 0.04021158
#
# Stress axis : x y z
#
# Youngs Moduli (GPa) = 33.54893 77.56665 116.00667
#
# Poissons Ratio (x) = -0.11129 0.27442
# Poissons Ratio (y) = -0.04813 0.53631
# Poissons Ratio (z) = 0.07936 0.35860
#
# Static dielectric constant tensor:
#      x y z
#    x 1.848580 0.000000 -0.011450 
#    y 0.000000 1.797490 0.000000 
#    z -0.011450 0.000000 1.864640 
# 
# From -- ./inp_files/47254.got.cif
#   From: 2010.05.17/outbox.cif.g08.bks.cpg/sg15_24_cif.got.tgz:47254.got - 2010.06.03 18:47:42.
