data_PCOD9282431
_publ_section_title
;
Structure prediction by ZEFSAII (Michael W. Deem and Ramdas Pophale) SiO2 
 PCOD9282431
Probable space group: C 2/C
;
_chemical_formula_sum "Si O2"
_cell_formula_units_Z 44
_cell_length_a 29.224406
_cell_length_b 4.974137
_cell_length_c 25.049592
_cell_angle_alpha 90.000000
_cell_angle_beta 147.250314
_cell_angle_gamma 90.000000
_cell_volume 1969.868171
_symmetry_space_group_name_H-M "C 2/C"
_symmetry_group_IT_number 15
_symmetry_cell_setting 'monoclinic'
loop_
_space_group_symop_operation_xyz
x,y,z
-x,y,1/2-z
-x,-y,-z
x,-y,1/2+z
1/2+x,1/2+y,z
1/2-x,1/2+y,1/2-z
1/2-x,1/2-y,-z
1/2+x,1/2-y,1/2+z
loop_
_atom_site_type_symbol
_atom_site_label
_atom_site_fract_x
_atom_site_fract_y
_atom_site_fract_z
Si Si1 0.500000 0.872774 0.250000
Si Si2 0.124098 0.351020 0.792728
Si Si3 0.406320 0.634610 0.058577
Si Si4 0.205075 0.632191 0.562035
Si Si5 0.281274 0.498740 0.750949
Si Si6 0.072044 0.846761 0.672170
O O1 0.429678 0.054744 0.209672
O O2 0.456026 0.692787 0.161907
O O3 0.217870 0.247370 0.897294
O O4 0.080420 0.107440 0.718257
O O5 0.121940 0.604312 0.750092
O O6 0.472415 0.714459 0.076335
O O7 0.372932 0.335070 0.019050
O O8 0.327066 0.835592 0.981981
O O9 0.242769 0.619374 0.658688
O O10 0.230656 0.231944 0.717679
O O11 0.377814 0.415582 0.832446
#
# Coordination Sequence:
#
# PCOD9282431 Si02
#       6
#     4   8   8   8   8   8
#     4  10  24  40  64  92 122 176 210 238 296 378
#     4  10  21  39  62  88 125 163 209 248 302 360
#     4  11  23  40  62  90 130 160 203 251 305 359
#     4  11  23  40  62  93 125 158 199 266 308 342
#     4  11  22  41  67  90 117 161 212 249 306 384
#     4  10  21  40  62  88 125 166 194 253 320 357
#
# _framework density 22.336518000000002
#
# number of rings (size 3 to 8) (size 9 to 14) (size 15 to 20)
#    0.000    1.455    0.000    7.636    0.000    8.000 
#    0.000    5.455    0.000    0.000    0.000    0.000 
#    0.000    0.000    0.000    0.000    0.000    0.000 
#
# Total GULP energy -123050.866378 kJ/mol
# GULP energy per Si atom -5593.221199 kJ/mol
# Density = 2.228568 g / cm^3
# Si number density = 22.336518 Si / 1000 Ang^3
#
#
#
# Elastic Constant Matrix: (Units=GPa)
#
#
# Indices 1 2 3 4 5 6 
#
# 1 117.9789 29.8814 15.8284 0.0063 22.2231 0.0041
# 2 29.8814 111.6405 -7.5254 -0.0059 3.4223 0.0057
# 3 15.8284 -7.5254 41.8832 -0.0039 16.4785 -0.0013
# 4 0.0063 -0.0059 -0.0039 35.2535 0.0006 -6.7791
# 5 22.2231 3.4223 16.4785 0.0006 24.9665 0.0003
# 6 0.0041 0.0057 -0.0013 -6.7791 0.0003 39.4981
#
#
#
# Elastic Compliance Matrix: (Units=1/GPa)
#
#
# Indices 1 2 3 4 5 6 
#
# 1 0.010952 -0.002756 -0.001280 -0.000003 -0.008526 -0.000001
# 2 -0.002756 0.009946 0.003242 0.000002 -0.001049 -0.000001
# 3 -0.001280 0.003242 0.033322 0.000005 -0.021298 0.000002
# 4 -0.000003 0.000002 0.000005 0.029334 -0.000002 0.005035
# 5 -0.008526 -0.001049 -0.021298 -0.000002 0.061844 -0.000001
# 6 -0.000001 -0.000001 0.000002 0.005035 -0.000001 0.026182
#
#
# Mechanical properties :
#
#
# Convention : Reuss Voigt Hill
#
# Bulk Modulus (GPa) = 19.00044 38.65238 28.82641
# Shear Modulus (GPa) = 26.21763 35.49815 30.85789
#
# Velocity S-wave (km/s) = 3.42973 3.99086 3.72089
# Velocity P-wave (km/s) = 4.92026 6.21112 5.60299
#
# Compressibility (1/GPa) = 0.05263035
#
# Stress axis : x y z
#
# Youngs Moduli (GPa) = 91.30860 100.54567 30.01059
#
# Poissons Ratio (x) = 0.27713 0.03840
# Poissons Ratio (y) = 0.25167 -0.09728
# Poissons Ratio (z) = 0.11685 -0.32592
#
# Static dielectric constant tensor:
#      x y z
#    x 1.869390 -0.000010 0.050060 
#    y -0.000010 1.796910 -0.000010 
#    z 0.050060 -0.000010 1.841080 
# 
# From -- ./inp_files/283048.got.cif
#   From: 2010.05.17/outbox.cif.g08.bks.cpg/sg15_142_cif.got.tgz:283048.got - 2010.06.03 18:47:42.
