data_PCOD9282799
_publ_section_title
;
Structure prediction by ZEFSAII (Michael W. Deem and Ramdas Pophale) SiO2 
 PCOD9282799
Probable space group: C 2/C
;
_chemical_formula_sum "Si O2"
_cell_formula_units_Z 40
_cell_length_a 7.116027
_cell_length_b 18.348453
_cell_length_c 12.265303
_cell_angle_alpha 90.000000
_cell_angle_beta 97.133372
_cell_angle_gamma 90.000000
_cell_volume 1589.061514
_symmetry_space_group_name_H-M "C 2/C"
_symmetry_group_IT_number 15
_symmetry_cell_setting 'monoclinic'
loop_
_space_group_symop_operation_xyz
x,y,z
-x,y,1/2-z
-x,-y,-z
x,-y,1/2+z
1/2+x,1/2+y,z
1/2-x,1/2+y,1/2-z
1/2-x,1/2-y,-z
1/2+x,1/2-y,1/2+z
loop_
_atom_site_type_symbol
_atom_site_label
_atom_site_fract_x
_atom_site_fract_y
_atom_site_fract_z
Si Si1 0.347528 0.173921 0.642458
Si Si2 0.851294 0.062201 0.003880
Si Si3 0.509555 0.786989 0.588185
Si Si4 0.842418 0.440220 0.803974
Si Si5 0.613062 0.664924 0.152083
O O1 0.500000 0.165591 0.750000
O O2 0.266190 0.094602 0.603605
O O3 0.453158 0.204341 0.539508
O O4 0.158021 0.225723 0.643485
O O5 0.727065 0.026351 0.090732
O O6 0.959308 0.135185 0.055936
O O7 0.000000 0.000000 0.000000
O O8 0.577457 0.862963 0.645426
O O9 0.288193 0.789610 0.612303
O O10 0.500000 0.304231 0.750000
O O11 0.691440 0.411695 0.706549
O O12 0.000000 0.518532 0.250000
#
# Coordination Sequence:
#
# PCOD9282799 Si02
#       5
#     8   8   8   8   8
#     4  10  22  41  65  97 138 181 224 280 348 409
#     4  10  21  39  64  96 135 177 228 281 335 408
#     4   9  19  38  67  98 128 171 224 283 347 417
#     4   8  16  35  64  93 121 168 227 274 330 409
#     4   9  18  37  67  97 126 172 227 280 343 411
#
# _framework density 25.172090000000001
#
# number of rings (size 3 to 8) (size 9 to 14) (size 15 to 20)
#    0.000    2.800    0.000    0.000    0.000    6.400 
#    0.000   23.000    0.000   32.400    0.000    0.000 
#    0.000    0.000    0.000    0.000    0.000    0.000 
#
# Total GULP energy -111567.377629 kJ/mol
# GULP energy per Si atom -5578.368881 kJ/mol
# Density = 2.511480 g / cm^3
# Si number density = 25.172090 Si / 1000 Ang^3
#
#
#
# Elastic Constant Matrix: (Units=GPa)
#
#
# Indices 1 2 3 4 5 6 
#
# 1 202.8793 58.1560 75.4147 0.0000 -20.5420 0.0000
# 2 58.1560 90.2693 51.6817 0.0000 -2.2355 0.0000
# 3 75.4147 51.6817 179.0050 0.0000 18.3374 0.0000
# 4 0.0000 0.0000 0.0000 -1.7241 0.0000 20.2549
# 5 -20.5420 -2.2355 18.3374 0.0000 57.0597 0.0000
# 6 0.0000 0.0000 0.0000 20.2549 0.0000 45.8988
#
#
#
# Elastic Compliance Matrix: (Units=1/GPa)
#
#
# Indices 1 2 3 4 5 6 
#
# 1 0.007023 -0.003073 -0.002397 0.000000 0.003178 0.000000
# 2 -0.003073 0.014800 -0.003024 0.000000 0.000445 0.000000
# 3 -0.002397 -0.003024 0.007828 0.000000 -0.003497 0.000000
# 4 0.000000 0.000000 0.000000 -0.093787 0.000000 0.041388
# 5 0.003178 0.000445 -0.003497 0.000000 0.019811 0.000000
# 6 0.000000 0.000000 0.000000 0.041388 0.000000 0.003523
#
#
# Mechanical properties :
#
#
# Convention : Reuss Voigt Hill
#
# Bulk Modulus (GPa) = 78.97528 93.62872 86.30200
# Shear Modulus (GPa) = -255.19545 39.37363 -107.91091
#
# Velocity S-wave (km/s) = -10.07970 3.95926 -6.55457
# Velocity P-wave (km/s) = 10.19926 7.62740 4.78789
#
# Compressibility (1/GPa) = 0.01266219
#
# Stress axis : x y z
#
# Youngs Moduli (GPa) = 142.39230 67.56626 127.75420
#
# Poissons Ratio (x) = 0.20766 0.30622
# Poissons Ratio (y) = 0.43764 0.38631
# Poissons Ratio (z) = 0.34131 0.20431
#
# Static dielectric constant tensor:
#      x y z
#    x 2.057960 0.000000 0.184330 
#    y 0.000000 2.041210 0.000000 
#    z 0.184330 0.000000 1.619510 
# 
# From -- ./inp_files/135210.got.cif
#   From: 2010.05.17/outbox.cif.g08.bks.cpg/sg15_68_cif.got.tgz:135210.got - 2010.06.03 18:47:42.
