data_PCOD9282312
_publ_section_title
;
Structure prediction by ZEFSAII (Michael W. Deem and Ramdas Pophale) SiO2 
 PCOD9282312
Probable space group: C 2/C
;
_chemical_formula_sum "Si O2"
_cell_formula_units_Z 48
_cell_length_a 6.159872
_cell_length_b 27.300965
_cell_length_c 15.664967
_cell_angle_alpha 90.000000
_cell_angle_beta 120.824618
_cell_angle_gamma 90.000000
_cell_volume 2262.250888
_symmetry_space_group_name_H-M "C 2/C"
_symmetry_group_IT_number 15
_symmetry_cell_setting 'monoclinic'
loop_
_space_group_symop_operation_xyz
x,y,z
-x,y,1/2-z
-x,-y,-z
x,-y,1/2+z
1/2+x,1/2+y,z
1/2-x,1/2+y,1/2-z
1/2-x,1/2-y,-z
1/2+x,1/2-y,1/2+z
loop_
_atom_site_type_symbol
_atom_site_label
_atom_site_fract_x
_atom_site_fract_y
_atom_site_fract_z
Si Si1 0.065087 0.930824 0.663826
Si Si2 0.000000 0.491145 0.250000
Si Si3 0.587116 0.885348 0.528405
Si Si4 0.335546 0.298529 0.469130
Si Si5 0.782541 0.413397 0.323561
Si Si6 0.652581 0.836915 0.859307
Si Si7 0.000000 0.671356 0.750000
O O1 0.202572 0.881957 0.657311
O O2 0.000000 0.927552 0.750000
O O3 0.786074 0.929693 0.567741
O O4 0.255930 0.974971 0.687407
O O5 0.960372 0.455669 0.322428
O O6 0.708075 0.844088 0.492522
O O7 0.331316 0.902519 0.432093
O O8 0.533559 0.861161 0.608760
O O9 0.250000 0.250000 0.500000
O O10 0.636909 0.306009 0.545664
O O11 0.206844 0.299725 0.349128
O O12 0.500000 0.429188 0.250000
O O13 0.843736 0.364643 0.281296
O O14 0.500000 0.811715 0.750000
#
# Coordination Sequence:
#
# PCOD9282312 Si02
#       7
#     8   4   8   8   8   8   4
#     4  11  20  39  60  86 123 160 200 255 312 364
#     4  11  22  36  60  90 120 162 206 260 304 367
#     4  10  22  39  63  88 119 166 204 250 315 370
#     4  10  23  39  63  94 125 162 205 257 308 366
#     4  10  21  39  61  86 122 166 207 252 306 367
#     4  11  21  38  64  91 121 163 207 252 311 368
#     4   9  20  42  60  86 130 168 204 250 308 371
#
# _framework density 21.217804999999998
#
# number of rings (size 3 to 8) (size 9 to 14) (size 15 to 20)
#    0.000    1.667    2.500    1.500    0.000    4.000 
#    0.000    9.167    0.000    0.000    0.000    0.000 
#    0.000    0.000    0.000    0.000    0.000    0.000 
#
# Total GULP energy -133895.299711 kJ/mol
# GULP energy per Si atom -5578.970821 kJ/mol
# Density = 2.116951 g / cm^3
# Si number density = 21.217805 Si / 1000 Ang^3
#
#
#
# Elastic Constant Matrix: (Units=GPa)
#
#
# Indices 1 2 3 4 5 6 
#
# 1 56.1992 -6.1008 36.8074 0.0000 12.6653 0.0000
# 2 -6.1008 53.4745 37.2002 0.0000 12.9086 0.0000
# 3 36.8074 37.2002 167.1964 0.0000 20.2130 0.0000
# 4 0.0000 0.0000 0.0000 1.8240 0.0000 4.3423
# 5 12.6653 12.9086 20.2130 0.0000 32.9138 0.0000
# 6 0.0000 0.0000 0.0000 4.3423 0.0000 11.2269
#
#
#
# Elastic Compliance Matrix: (Units=1/GPa)
#
#
# Indices 1 2 3 4 5 6 
#
# 1 0.025325 0.009780 -0.006599 0.000000 -0.009528 0.000000
# 2 0.009780 0.027100 -0.006960 0.000000 -0.010118 0.000000
# 3 -0.006599 -0.006960 0.009015 0.000000 -0.000267 0.000000
# 4 0.000000 0.000000 0.000000 6.918775 0.000000 -2.675993
# 5 -0.009528 -0.010118 -0.000267 0.000000 0.038181 0.000000
# 6 0.000000 0.000000 0.000000 -2.675993 0.000000 1.124073
#
#
# Mechanical properties :
#
#
# Convention : Reuss Voigt Hill
#
# Bulk Modulus (GPa) = 18.55879 45.85373 32.20626
# Shear Modulus (GPa) = 0.61215 23.12382 11.86798
#
# Velocity S-wave (km/s) = 0.53771 3.30484 2.36760
# Velocity P-wave (km/s) = 3.02511 6.01835 4.76297
#
# Compressibility (1/GPa) = 0.05388283
#
# Stress axis : x y z
#
# Youngs Moduli (GPa) = 39.48650 36.89991 110.93179
#
# Poissons Ratio (x) = -0.36089 0.73208
# Poissons Ratio (y) = -0.38619 0.77203
# Poissons Ratio (z) = 0.26059 0.25681
#
# Static dielectric constant tensor:
#      x y z
#    x 1.771130 0.000000 0.040680 
#    y 0.000000 1.738450 0.000000 
#    z 0.040680 0.000000 1.830940 
# 
# From -- ./inp_files/130499.got.cif
#   From: 2010.05.17/outbox.cif.g08.bks.cpg/sg15_66_cif.got.tgz:130499.got - 2010.06.03 18:47:42.
