data_PCOD9282774
_publ_section_title
;
Structure prediction by ZEFSAII (Michael W. Deem and Ramdas Pophale) SiO2 
 PCOD9282774
Probable space group: C 2/C
;
_chemical_formula_sum "Si O2"
_cell_formula_units_Z 56
_cell_length_a 14.653853
_cell_length_b 9.317512
_cell_length_c 28.007474
_cell_angle_alpha 90.000000
_cell_angle_beta 141.739007
_cell_angle_gamma 90.000000
_cell_volume 2368.034195
_symmetry_space_group_name_H-M "C 2/C"
_symmetry_group_IT_number 15
_symmetry_cell_setting 'monoclinic'
loop_
_space_group_symop_operation_xyz
x,y,z
-x,y,1/2-z
-x,-y,-z
x,-y,1/2+z
1/2+x,1/2+y,z
1/2-x,1/2+y,1/2-z
1/2-x,1/2-y,-z
1/2+x,1/2-y,1/2+z
loop_
_atom_site_type_symbol
_atom_site_label
_atom_site_fract_x
_atom_site_fract_y
_atom_site_fract_z
Si Si1 0.482825 0.807692 0.797185
Si Si2 0.785780 0.003500 0.281980
Si Si3 0.006200 0.980583 0.945472
Si Si4 0.663291 0.055615 0.556559
Si Si5 0.668757 0.944127 0.957528
Si Si6 0.533208 0.535748 0.315891
Si Si7 0.405951 0.164105 0.873107
O O1 0.500000 0.857354 0.750000
O O2 0.327247 0.875933 0.747453
O O3 0.507622 0.636859 0.807830
O O4 0.595590 0.869023 0.882228
O O5 0.878127 0.933874 0.363603
O O6 0.694143 0.892745 0.212027
O O7 0.909333 0.085215 0.301103
O O8 0.963911 0.818379 0.913958
O O9 0.166066 0.014759 0.989394
O O10 0.000000 0.000000 0.000000
O O11 0.795086 0.941784 0.602601
O O12 0.694174 0.124428 0.620923
O O13 0.500000 0.000000 0.500000
O O14 0.664498 0.140972 0.506841
O O15 0.557513 0.074492 0.925598
O O16 0.500000 0.591552 0.250000
#
# Coordination Sequence:
#
# PCOD9282774 Si02
#       7
#     8   8   8   8   8   8   8
#     4  10  23  40  64  94 130 175 220 273 333 402
#     4  11  22  40  63  96 131 172 216 268 335 404
#     4  12  25  40  67  99 132 169 225 282 330 394
#     4  10  21  39  64  94 128 165 217 277 332 394
#     4  10  22  41  63  92 130 172 216 275 336 397
#     4  11  21  38  67  90 124 172 220 273 335 399
#     4  10  23  43  65  89 134 173 214 271 341 404
#
# _framework density 23.648308
#
# number of rings (size 3 to 8) (size 9 to 14) (size 15 to 20)
#    0.000    1.429    2.857    2.143    4.000    1.714 
#    0.000    2.857    0.000   12.857    0.000    0.000 
#    0.000    0.000    0.000    0.000    0.000    0.000 
#
# Total GULP energy -156264.336782 kJ/mol
# GULP energy per Si atom -5580.869171 kJ/mol
# Density = 2.359448 g / cm^3
# Si number density = 23.648308 Si / 1000 Ang^3
#
#
#
# Elastic Constant Matrix: (Units=GPa)
#
#
# Indices 1 2 3 4 5 6 
#
# 1 210.9740 39.0951 98.4231 0.0000 -1.3697 0.0000
# 2 39.0951 47.2344 23.1890 0.0000 -4.9773 0.0000
# 3 98.4231 23.1890 201.3902 0.0000 -3.6398 0.0000
# 4 0.0000 0.0000 0.0000 20.2324 0.0000 7.8718
# 5 -1.3697 -4.9773 -3.6398 0.0000 73.5669 0.0000
# 6 0.0000 0.0000 0.0000 7.8718 0.0000 21.8698
#
#
#
# Elastic Compliance Matrix: (Units=1/GPa)
#
#
# Indices 1 2 3 4 5 6 
#
# 1 0.006876 -0.004315 -0.002869 0.000000 -0.000306 0.000000
# 2 -0.004315 0.025290 -0.000775 0.000000 0.001592 0.000000
# 3 -0.002869 -0.000775 0.006461 0.000000 0.000214 0.000000
# 4 0.000000 0.000000 0.000000 0.057475 0.000000 -0.020687
# 5 -0.000306 0.001592 0.000214 0.000000 0.013706 0.000000
# 6 0.000000 0.000000 0.000000 -0.020687 0.000000 0.053172
#
#
# Mechanical properties :
#
#
# Convention : Reuss Voigt Hill
#
# Bulk Modulus (GPa) = 44.03322 86.77920 65.40621
# Shear Modulus (GPa) = 26.81454 43.05990 34.93722
#
# Velocity S-wave (km/s) = 3.37098 4.27177 3.84782
# Velocity P-wave (km/s) = 5.81479 7.81703 6.88904
#
# Compressibility (1/GPa) = 0.02271013
#
# Stress axis : x y z
#
# Youngs Moduli (GPa) = 145.43329 39.54075 154.78124
#
# Poissons Ratio (x) = 0.17061 0.44409
# Poissons Ratio (y) = 0.62752 0.11988
# Poissons Ratio (z) = 0.41727 0.03063
#
# Static dielectric constant tensor:
#      x y z
#    x 1.908270 0.000000 -0.031370 
#    y 0.000000 1.967800 0.000000 
#    z -0.031370 0.000000 2.033540 
# 
# From -- ./inp_files/295961.got.cif
#   From: 2010.05.17/outbox.cif.g08.bks.cpg/sg15_148_cif.got.tgz:295961.got - 2010.06.03 18:47:42.
