data_PCOD9282218
_publ_section_title
;
Structure prediction by ZEFSAII (Michael W. Deem and Ramdas Pophale) SiO2 
 PCOD9282218
Probable space group: C 2/C
;
_chemical_formula_sum "Si O2"
_cell_formula_units_Z 40
_cell_length_a 7.508614
_cell_length_b 10.468102
_cell_length_c 19.776451
_cell_angle_alpha 90.000000
_cell_angle_beta 81.369728
_cell_angle_gamma 90.000000
_cell_volume 1536.846942
_symmetry_space_group_name_H-M "C 2/C"
_symmetry_group_IT_number 15
_symmetry_cell_setting 'monoclinic'
loop_
_space_group_symop_operation_xyz
x,y,z
-x,y,1/2-z
-x,-y,-z
x,-y,1/2+z
1/2+x,1/2+y,z
1/2-x,1/2+y,1/2-z
1/2-x,1/2-y,-z
1/2+x,1/2-y,1/2+z
loop_
_atom_site_type_symbol
_atom_site_label
_atom_site_fract_x
_atom_site_fract_y
_atom_site_fract_z
Si Si1 0.093664 0.131994 0.019521
Si Si2 0.755764 0.716991 0.401971
Si Si3 0.627810 0.938046 0.100049
Si Si4 0.212466 0.556285 0.223497
Si Si5 0.210237 0.025977 0.635796
O O1 0.920450 0.221378 0.040586
O O2 0.170785 0.088468 0.087741
O O3 0.257923 0.147801 0.957527
O O4 0.000000 0.000000 0.000000
O O5 0.855278 0.588187 0.422009
O O6 0.709697 0.670199 0.327237
O O7 0.878081 0.842148 0.385998
O O8 0.415877 0.924259 0.119243
O O9 0.711494 0.938268 0.170540
O O10 0.309718 0.520643 0.286818
O O11 0.000000 0.584612 0.250000
#
# Coordination Sequence:
#
# PCOD9282218 Si02
#       5
#     8   8   8   8   8
#     4  10  21  39  59  92 123 146 201 250 276 355
#     4   9  21  40  59  87 116 152 198 240 293 347
#     4   8  19  40  58  84 126 147 192 247 284 352
#     4   8  18  40  56  84 119 149 199 243 284 349
#     4  11  20  39  65  82 118 166 187 237 309 338
#
# _framework density 26.027312999999999
#
# number of rings (size 3 to 8) (size 9 to 14) (size 15 to 20)
#    1.200    1.600    0.000    0.600    0.000    4.800 
#   14.400    4.000    0.000    0.000    0.000    0.000 
#    0.000    0.000    0.000    0.000    0.000    0.000 
#
# Total GULP energy -111576.165909 kJ/mol
# GULP energy per Si atom -5578.808295 kJ/mol
# Density = 2.596807 g / cm^3
# Si number density = 26.027313 Si / 1000 Ang^3
#
#
#
# Elastic Constant Matrix: (Units=GPa)
#
#
# Indices 1 2 3 4 5 6 
#
# 1 88.2749 -1.0134 32.0510 0.0000 -30.5320 0.0000
# 2 -1.0134 82.2057 23.7487 0.0000 -3.0189 0.0000
# 3 32.0510 23.7487 159.5284 0.0000 -4.3001 0.0000
# 4 0.0000 0.0000 0.0000 44.3591 0.0000 -10.1553
# 5 -30.5320 -3.0189 -4.3001 0.0000 41.3831 0.0000
# 6 0.0000 0.0000 0.0000 -10.1553 0.0000 17.2054
#
#
#
# Elastic Compliance Matrix: (Units=1/GPa)
#
#
# Indices 1 2 3 4 5 6 
#
# 1 0.016725 0.001596 -0.003271 0.000000 0.012116 0.000000
# 2 0.001596 0.012886 -0.002188 0.000000 0.001890 0.000000
# 3 -0.003271 -0.002188 0.007202 0.000000 -0.001825 0.000000
# 4 0.000000 0.000000 0.000000 0.026065 0.000000 0.015385
# 5 0.012116 0.001890 -0.001825 0.000000 0.033052 0.000000
# 6 0.000000 0.000000 0.000000 0.015385 0.000000 0.067202
#
#
# Mechanical properties :
#
#
# Convention : Reuss Voigt Hill
#
# Bulk Modulus (GPa) = 34.37992 48.84240 41.61116
# Shear Modulus (GPa) = 27.69260 38.93772 33.31516
#
# Velocity S-wave (km/s) = 3.26541 3.87205 3.58160
# Velocity P-wave (km/s) = 5.23976 6.22872 5.75552
#
# Compressibility (1/GPa) = 0.02908675
#
# Stress axis : x y z
#
# Youngs Moduli (GPa) = 59.79111 77.60481 138.84565
#
# Poissons Ratio (x) = -0.12387 0.45420
# Poissons Ratio (y) = -0.09544 0.30380
# Poissons Ratio (z) = 0.19559 0.16980
#
# Static dielectric constant tensor:
#      x y z
#    x 2.123020 0.000000 0.023570 
#    y 0.000000 2.156670 0.000000 
#    z 0.023570 0.000000 2.044000 
# 
# From -- ./inp_files/229912.got.cif
#   From: 2010.05.17/outbox.cif.g08.bks.cpg/sg15_115_cif.got.tgz:229912.got - 2010.06.03 18:47:42.
