data_PCOD9282289
_publ_section_title
;
Structure prediction by ZEFSAII (Michael W. Deem and Ramdas Pophale) SiO2 
 PCOD9282289
Probable space group: C 2/C
;
_chemical_formula_sum "Si O2"
_cell_formula_units_Z 64
_cell_length_a 18.263191
_cell_length_b 21.994047
_cell_length_c 7.876266
_cell_angle_alpha 90.000000
_cell_angle_beta 52.359803
_cell_angle_gamma 90.000000
_cell_volume 2505.251622
_symmetry_space_group_name_H-M "C 2/C"
_symmetry_group_IT_number 15
_symmetry_cell_setting 'monoclinic'
loop_
_space_group_symop_operation_xyz
x,y,z
-x,y,1/2-z
-x,-y,-z
x,-y,1/2+z
1/2+x,1/2+y,z
1/2-x,1/2+y,1/2-z
1/2-x,1/2-y,-z
1/2+x,1/2-y,1/2+z
loop_
_atom_site_type_symbol
_atom_site_label
_atom_site_fract_x
_atom_site_fract_y
_atom_site_fract_z
Si Si1 0.945536 0.124944 0.502870
Si Si2 0.494894 0.250536 0.063725
Si Si3 0.807394 0.041043 0.537458
Si Si4 0.118872 0.920661 0.933571
Si Si5 0.302861 0.790656 0.261310
Si Si6 0.738192 0.829195 0.803391
Si Si7 0.624711 0.919217 0.430671
Si Si8 0.428925 0.111964 0.128302
O O1 0.852185 0.088567 0.607196
O O2 0.000000 0.116510 0.250000
O O3 0.942339 0.196483 0.539933
O O4 0.013146 0.093733 0.543256
O O5 0.500000 0.271069 0.250000
O O6 0.451959 0.183309 0.132115
O O7 0.598145 0.242184 0.841131
O O8 0.828413 0.063866 0.319116
O O9 0.700491 0.037267 0.741145
O O10 0.860695 0.977935 0.480741
O O11 0.173698 0.860462 0.908444
O O12 0.258250 0.815607 0.498896
O O13 0.242201 0.741902 0.244129
O O14 0.332449 0.851396 0.125967
O O15 0.653395 0.875240 0.887317
O O16 0.602547 0.925847 0.661303
O O17 0.530745 0.915936 0.451435
#
# Coordination Sequence:
#
# PCOD9282289 Si02
#       8
#     8   8   8   8   8   8   8   8
#     4  10  24  41  64  93 127 166 210 261 323 380
#     4  11  21  37  58  95 134 165 201 255 316 390
#     4  11  25  43  69  87 126 170 213 268 316 377
#     4  11  24  45  62  96 124 163 220 267 314 385
#     4  10  21  39  60  94 133 160 205 268 308 396
#     4  11  23  37  67  94 126 166 216 264 320 374
#     4  10  21  44  60  90 132 164 212 258 315 384
#     4  10  23  38  63  92 131 169 200 264 324 374
#
# _framework density 25.546337000000001
#
# number of rings (size 3 to 8) (size 9 to 14) (size 15 to 20)
#    0.000    1.500    5.000    0.375    5.250    4.000 
#    0.000    0.625    0.000    0.000    0.000    0.000 
#    0.000    0.000    0.000    0.000    0.000    0.000 
#
# Total GULP energy -178864.250074 kJ/mol
# GULP energy per Si atom -5589.507815 kJ/mol
# Density = 2.548819 g / cm^3
# Si number density = 25.546337 Si / 1000 Ang^3
#
#
#
# Elastic Constant Matrix: (Units=GPa)
#
#
# Indices 1 2 3 4 5 6 
#
# 1 105.2778 24.0289 8.2565 0.0000 -17.3191 0.0000
# 2 24.0289 67.0630 -7.8661 0.0000 -3.5905 0.0000
# 3 8.2565 -7.8661 43.4653 0.0000 -8.6767 0.0000
# 4 0.0000 0.0000 0.0000 16.4235 0.0000 2.6566
# 5 -17.3191 -3.5905 -8.6767 0.0000 26.3619 0.0000
# 6 0.0000 0.0000 0.0000 2.6566 0.0000 29.4664
#
#
#
# Elastic Compliance Matrix: (Units=1/GPa)
#
#
# Indices 1 2 3 4 5 6 
#
# 1 0.011617 -0.004002 -0.001623 0.000000 0.006553 0.000000
# 2 -0.004002 0.016869 0.004010 0.000000 0.000988 0.000000
# 3 -0.001623 0.004010 0.025620 0.000000 0.007913 0.000000
# 4 0.000000 0.000000 0.000000 0.061789 0.000000 -0.005571
# 5 0.006553 0.000988 0.007913 0.000000 0.044978 0.000000
# 6 0.000000 0.000000 0.000000 -0.005571 0.000000 0.034439
#
#
# Mechanical properties :
#
#
# Convention : Reuss Voigt Hill
#
# Bulk Modulus (GPa) = 19.65525 29.40499 24.53012
# Shear Modulus (GPa) = 23.20172 27.20949 25.20561
#
# Velocity S-wave (km/s) = 3.01694 3.26713 3.14453
# Velocity P-wave (km/s) = 4.45495 5.07618 4.77568
#
# Compressibility (1/GPa) = 0.05087700
#
# Stress axis : x y z
#
# Youngs Moduli (GPa) = 86.07750 59.28178 39.03129
#
# Poissons Ratio (x) = 0.23725 0.06334
# Poissons Ratio (y) = 0.34449 -0.15653
# Poissons Ratio (z) = 0.13970 -0.23774
#
# Static dielectric constant tensor:
#      x y z
#    x 2.100490 0.000000 -0.025330 
#    y 0.000000 2.022510 0.000000 
#    z -0.025330 0.000000 2.062320 
# 
# From -- ./inp_files/57837.got.cif
#   From: 2010.05.17/outbox.cif.g08.bks.cpg/sg15_29_cif.got.tgz:57837.got - 2010.06.03 18:47:42.
