data_PCOD9282525
_publ_section_title
;
Structure prediction by ZEFSAII (Michael W. Deem and Ramdas Pophale) SiO2 
 PCOD9282525
Probable space group: C 2/C
;
_chemical_formula_sum "Si O2"
_cell_formula_units_Z 48
_cell_length_a 14.754917
_cell_length_b 18.845064
_cell_length_c 13.779665
_cell_angle_alpha 90.000000
_cell_angle_beta 147.180018
_cell_angle_gamma 90.000000
_cell_volume 2076.698247
_symmetry_space_group_name_H-M "C 2/C"
_symmetry_group_IT_number 15
_symmetry_cell_setting 'monoclinic'
loop_
_space_group_symop_operation_xyz
x,y,z
-x,y,1/2-z
-x,-y,-z
x,-y,1/2+z
1/2+x,1/2+y,z
1/2-x,1/2+y,1/2-z
1/2-x,1/2-y,-z
1/2+x,1/2-y,1/2+z
loop_
_atom_site_type_symbol
_atom_site_label
_atom_site_fract_x
_atom_site_fract_y
_atom_site_fract_z
Si Si1 0.818530 0.659301 0.883177
Si Si2 0.556406 0.555109 0.411710
Si Si3 0.036436 0.208913 0.894657
Si Si4 0.532317 0.034294 0.391081
Si Si5 0.075354 0.378667 0.223228
Si Si6 0.819971 0.083938 0.373606
O O1 0.632285 0.687183 0.702183
O O2 0.915068 0.662589 0.868462
O O3 0.908774 0.710803 0.040034
O O4 0.821035 0.579405 0.928096
O O5 0.500000 0.557688 0.250000
O O6 0.735369 0.593941 0.586802
O O7 0.418442 0.586473 0.361074
O O8 0.588110 0.474470 0.476040
O O9 0.000000 0.194308 0.750000
O O10 0.175813 0.158119 0.066251
O O11 0.500000 0.055453 0.250000
O O12 0.368193 0.056334 0.303399
O O13 0.537792 0.949494 0.393260
O O14 0.000000 0.341159 0.250000
#
# Coordination Sequence:
#
# PCOD9282525 Si02
#       6
#     8   8   8   8   8   8
#     4  12  24  42  62  93 127 166 214 259 309 379
#     4  10  21  39  65  95 127 163 206 257 315 373
#     4  12  24  41  65  91 128 169 208 257 314 380
#     4  10  21  39  64  96 127 163 205 256 321 373
#     4  10  23  42  63  94 125 166 211 260 318 366
#     4  10  21  39  62  97 127 161 207 254 314 372
#
# _framework density 23.113612
#
# number of rings (size 3 to 8) (size 9 to 14) (size 15 to 20)
#    0.000    1.333    1.667    4.000    2.333    2.667 
#    0.000    1.667    0.000    0.000    0.000    0.000 
#    0.000    0.000    0.000    0.000    0.000    0.000 
#
# Total GULP energy -134385.754065 kJ/mol
# GULP energy per Si atom -5599.406419 kJ/mol
# Density = 2.306100 g / cm^3
# Si number density = 23.113612 Si / 1000 Ang^3
#
#
#
# Elastic Constant Matrix: (Units=GPa)
#
#
# Indices 1 2 3 4 5 6 
#
# 1 99.7150 -5.2960 -1.5482 0.0000 -23.7116 0.0000
# 2 -5.2960 28.3905 -1.0737 0.0000 -1.8627 0.0000
# 3 -1.5482 -1.0737 54.7988 0.0000 -15.2998 0.0000
# 4 0.0000 0.0000 0.0000 14.9519 0.0000 -1.2509
# 5 -23.7116 -1.8627 -15.2998 0.0000 47.8077 0.0000
# 6 0.0000 0.0000 0.0000 -1.2509 0.0000 21.5731
#
#
#
# Elastic Compliance Matrix: (Units=1/GPa)
#
#
# Indices 1 2 3 4 5 6 
#
# 1 0.011796 0.002724 0.002251 0.000000 0.006677 0.000000
# 2 0.002724 0.036012 0.001704 0.000000 0.003299 0.000000
# 3 0.002251 0.001704 0.020508 0.000000 0.007746 0.000000
# 4 0.000000 0.000000 0.000000 0.067207 0.000000 0.003897
# 5 0.006677 0.003299 0.007746 0.000000 0.026836 0.000000
# 6 0.000000 0.000000 0.000000 0.003897 0.000000 0.046580
#
#
# Mechanical properties :
#
#
# Convention : Reuss Voigt Hill
#
# Bulk Modulus (GPa) = 12.24401 18.56315 15.40358
# Shear Modulus (GPa) = 22.44090 29.58802 26.01446
#
# Velocity S-wave (km/s) = 3.11930 3.58175 3.35849
# Velocity P-wave (km/s) = 4.27577 5.01537 4.66026
#
# Compressibility (1/GPa) = 0.08167258
#
# Stress axis : x y z
#
# Youngs Moduli (GPa) = 84.77496 27.76846 48.76093
#
# Poissons Ratio (x) = -0.07563 -0.10975
# Poissons Ratio (y) = -0.23090 -0.08307
# Poissons Ratio (z) = -0.19081 -0.04731
#
# Static dielectric constant tensor:
#      x y z
#    x 1.889370 0.000000 0.015000 
#    y 0.000000 1.852310 0.000000 
#    z 0.015000 0.000000 1.888510 
# 
# From -- ./inp_files/89382.got.cif
#   From: 2010.05.17/outbox.cif.g08.bks.cpg/sg15_45_cif.got.tgz:89382.got - 2010.06.03 18:47:42.
