data_PCOD9282162
_publ_section_title
;
Structure prediction by ZEFSAII (Michael W. Deem and Ramdas Pophale) SiO2 
 PCOD9282162
Probable space group: C 2/C
;
_chemical_formula_sum "Si O2"
_cell_formula_units_Z 56
_cell_length_a 15.399933
_cell_length_b 26.153962
_cell_length_c 7.395925
_cell_angle_alpha 90.000000
_cell_angle_beta 64.414898
_cell_angle_gamma 90.000000
_cell_volume 2686.759540
_symmetry_space_group_name_H-M "C 2/C"
_symmetry_group_IT_number 15
_symmetry_cell_setting 'monoclinic'
loop_
_space_group_symop_operation_xyz
x,y,z
-x,y,1/2-z
-x,-y,-z
x,-y,1/2+z
1/2+x,1/2+y,z
1/2-x,1/2+y,1/2-z
1/2-x,1/2-y,-z
1/2+x,1/2-y,1/2+z
loop_
_atom_site_type_symbol
_atom_site_label
_atom_site_fract_x
_atom_site_fract_y
_atom_site_fract_z
Si Si1 0.886255 0.702177 0.887620
Si Si2 0.889967 0.814475 0.819434
Si Si3 0.652672 0.927747 0.637415
Si Si4 0.313268 0.178957 0.555206
Si Si5 0.902486 0.467471 0.446430
Si Si6 0.768171 0.613383 0.104724
Si Si7 0.112083 0.786772 0.100344
O O1 0.868259 0.761874 0.946749
O O2 0.835761 0.688695 0.744266
O O3 0.000000 0.696392 0.750000
O O4 0.839896 0.662004 0.066896
O O5 0.823988 0.863281 0.905749
O O6 0.876410 0.799937 0.621657
O O7 0.000000 0.826877 0.750000
O O8 0.641022 0.874959 0.544096
O O9 0.743471 0.914872 0.690805
O O10 0.646929 0.976981 0.514780
O O11 0.580758 0.945099 0.866030
O O12 0.198302 0.182862 0.622033
O O13 0.362779 0.226608 0.406322
O O14 0.825909 0.427435 0.435053
O O15 0.000000 0.465571 0.250000
O O16 0.000000 0.796161 0.250000
#
# Coordination Sequence:
#
# PCOD9282162 Si02
#       7
#     8   8   8   8   8   8   8
#     4  10  22  36  59  91 124 160 200 234 298 366
#     4  10  21  39  58  87 121 160 199 242 294 361
#     4  10  23  37  62  81 122 151 199 248 297 356
#     4  10  22  40  60  88 127 159 199 249 294 357
#     4  10  22  39  58  85 116 153 200 248 301 359
#     4  10  22  37  60  84 121 152 199 250 294 352
#     4  10  21  39  59  92 123 161 201 239 299 359
#
# _framework density 20.842953000000001
#
# number of rings (size 3 to 8) (size 9 to 14) (size 15 to 20)
#    0.857    1.143    1.429    1.286    4.000    5.143 
#    0.000    0.000    0.000    1.714    0.000    0.000 
#    0.000    0.000    0.000    0.000    0.000    0.000 
#
# Total GULP energy -156126.201067 kJ/mol
# GULP energy per Si atom -5575.935752 kJ/mol
# Density = 2.079551 g / cm^3
# Si number density = 20.842953 Si / 1000 Ang^3
#
#
#
# Elastic Constant Matrix: (Units=GPa)
#
#
# Indices 1 2 3 4 5 6 
#
# 1 124.7642 58.5755 25.4960 0.0000 -18.0188 0.0000
# 2 58.5755 153.8462 37.9581 0.0000 -21.0849 0.0000
# 3 25.4960 37.9581 51.1256 0.0000 -6.0336 0.0000
# 4 0.0000 0.0000 0.0000 20.6548 0.0000 -1.7736
# 5 -18.0188 -21.0849 -6.0336 0.0000 24.0911 0.0000
# 6 0.0000 0.0000 0.0000 -1.7736 0.0000 25.5640
#
#
#
# Elastic Compliance Matrix: (Units=1/GPa)
#
#
# Indices 1 2 3 4 5 6 
#
# 1 0.010522 -0.002678 -0.002686 0.000000 0.004853 0.000000
# 2 -0.002678 0.009464 -0.005100 0.000000 0.005002 0.000000
# 3 -0.002686 -0.005100 0.024651 0.000000 -0.000299 0.000000
# 4 0.000000 0.000000 0.000000 0.048705 0.000000 0.003379
# 5 0.004853 0.005002 -0.000299 0.000000 0.049442 0.000000
# 6 0.000000 0.000000 0.000000 0.003379 0.000000 0.039352
#
#
# Mechanical properties :
#
#
# Convention : Reuss Voigt Hill
#
# Bulk Modulus (GPa) = 42.18142 63.75504 52.96823
# Shear Modulus (GPa) = 23.70030 27.90907 25.80468
#
# Velocity S-wave (km/s) = 3.37573 3.66323 3.52242
# Velocity P-wave (km/s) = 5.95615 6.96757 6.48162
#
# Compressibility (1/GPa) = 0.02370712
#
# Stress axis : x y z
#
# Youngs Moduli (GPa) = 95.03478 105.66674 40.56697
#
# Poissons Ratio (x) = 0.28302 0.10897
# Poissons Ratio (y) = 0.25455 0.20690
# Poissons Ratio (z) = 0.25527 0.53893
#
# Static dielectric constant tensor:
#      x y z
#    x 1.806870 0.000000 0.030130 
#    y 0.000000 1.786970 0.000000 
#    z 0.030130 0.000000 1.835040 
# 
# From -- ./inp_files/43456.got.cif
#   From: 2010.05.17/outbox.cif.g08.bks.cpg/sg15_22_cif.got.tgz:43456.got - 2010.06.03 18:47:42.
