data_PCOD9282122
_publ_section_title
;
Structure prediction by ZEFSAII (Michael W. Deem and Ramdas Pophale) SiO2 
 PCOD9282122
Probable space group: C 2/C
;
_chemical_formula_sum "Si O2"
_cell_formula_units_Z 28
_cell_length_a 12.219768
_cell_length_b 4.616498
_cell_length_c 18.141797
_cell_angle_alpha 90.000000
_cell_angle_beta 60.811373
_cell_angle_gamma 90.000000
_cell_volume 893.469148
_symmetry_space_group_name_H-M "C 2/C"
_symmetry_group_IT_number 15
_symmetry_cell_setting 'monoclinic'
loop_
_space_group_symop_operation_xyz
x,y,z
-x,y,1/2-z
-x,-y,-z
x,-y,1/2+z
1/2+x,1/2+y,z
1/2-x,1/2+y,1/2-z
1/2-x,1/2-y,-z
1/2+x,1/2-y,1/2+z
loop_
_atom_site_type_symbol
_atom_site_label
_atom_site_fract_x
_atom_site_fract_y
_atom_site_fract_z
Si Si1 0.647511 0.762213 0.862693
Si Si2 0.000000 0.500000 0.500000
Si Si3 0.865076 0.346422 0.802373
Si Si4 0.369740 0.542472 0.947326
O O1 0.760079 0.579462 0.856897
O O2 0.659935 0.733427 0.771895
O O3 0.605782 0.767115 0.023388
O O4 0.625101 0.079312 0.903508
O O5 0.997554 0.791595 0.437178
O O6 0.887752 0.095333 0.854399
O O7 0.000000 0.500036 0.750000
O O8 0.250000 0.750000 0.000000
#
# Coordination Sequence:
#
# PCOD9282122 Si02
#       4
#     8   4   8   8
#     4   9  21  38  55  82 114 143 189 231 265 342
#     4   8  20  38  52  82 116 134 188 236 258 334
#     4  10  21  39  56  81 116 148 181 231 281 320
#     4   9  20  37  57  80 113 144 179 235 277 319
#
# _framework density 31.338519000000002
#
# number of rings (size 3 to 8) (size 9 to 14) (size 15 to 20)
#    1.714    1.143    0.000    0.000    4.000    2.286 
#    5.143    0.000    0.000    0.000    0.000    0.000 
#    0.000    0.000    0.000    0.000    0.000    0.000 
#
# Total GULP energy -77987.920358 kJ/mol
# GULP energy per Si atom -5570.565740 kJ/mol
# Density = 3.126719 g / cm^3
# Si number density = 31.338519 Si / 1000 Ang^3
#
#
#
# Elastic Constant Matrix: (Units=GPa)
#
#
# Indices 1 2 3 4 5 6 
#
# 1 205.8734 119.4295 67.0520 0.0025 4.9966 0.0061
# 2 119.4295 180.1401 88.5753 0.0096 -21.6582 0.0184
# 3 67.0520 88.5753 252.9856 -0.0014 39.7846 0.0036
# 4 0.0025 0.0096 -0.0014 34.9552 -0.0001 -12.7654
# 5 4.9966 -21.6582 39.7846 -0.0001 78.4402 0.0007
# 6 0.0061 0.0184 0.0036 -12.7654 0.0007 73.9547
#
#
#
# Elastic Compliance Matrix: (Units=1/GPa)
#
#
# Indices 1 2 3 4 5 6 
#
# 1 0.008221 -0.005824 0.000212 0.000001 -0.002240 0.000001
# 2 -0.005824 0.011726 -0.003401 -0.000004 0.005333 -0.000003
# 3 0.000212 -0.003401 0.005691 0.000001 -0.003839 0.000001
# 4 0.000001 -0.000004 0.000001 0.030533 -0.000002 0.005270
# 5 -0.002240 0.005333 -0.003839 -0.000002 0.016311 -0.000001
# 6 0.000001 -0.000003 0.000001 0.005270 -0.000001 0.014432
#
#
# Mechanical properties :
#
#
# Convention : Reuss Voigt Hill
#
# Bulk Modulus (GPa) = 131.35117 132.12361 131.73739
# Shear Modulus (GPa) = 46.52230 61.73283 54.12756
#
# Velocity S-wave (km/s) = 3.85711 4.44314 4.16046
# Velocity P-wave (km/s) = 7.86391 8.28092 8.07511
#
# Compressibility (1/GPa) = 0.00761318
#
# Stress axis : x y z
#
# Youngs Moduli (GPa) = 121.63635 85.28172 175.72284
#
# Poissons Ratio (x) = 0.49670 -0.03732
# Poissons Ratio (y) = 0.70844 0.59755
# Poissons Ratio (z) = -0.02583 0.29000
#
# Static dielectric constant tensor:
#      x y z
#    x 3.203160 0.000000 -0.172570 
#    y 0.000000 2.431840 0.000000 
#    z -0.172570 0.000000 2.584020 
# 
# From -- ./inp_files/201673.got.cif
#   From: 2010.05.17/outbox.cif.g08.bks.cpg/sg15_101_cif.got.tgz:201673.got - 2010.06.03 18:47:42.
