data_PCOD9282385
_publ_section_title
;
Structure prediction by ZEFSAII (Michael W. Deem and Ramdas Pophale) SiO2 
 PCOD9282385
Probable space group: C 2/C
;
_chemical_formula_sum "Si O2"
_cell_formula_units_Z 60
_cell_length_a 15.894604
_cell_length_b 11.842950
_cell_length_c 16.881247
_cell_angle_alpha 90.000000
_cell_angle_beta 78.889511
_cell_angle_gamma 90.000000
_cell_volume 3118.150541
_symmetry_space_group_name_H-M "C 2/C"
_symmetry_group_IT_number 15
_symmetry_cell_setting 'monoclinic'
loop_
_space_group_symop_operation_xyz
x,y,z
-x,y,1/2-z
-x,-y,-z
x,-y,1/2+z
1/2+x,1/2+y,z
1/2-x,1/2+y,1/2-z
1/2-x,1/2-y,-z
1/2+x,1/2-y,1/2+z
loop_
_atom_site_type_symbol
_atom_site_label
_atom_site_fract_x
_atom_site_fract_y
_atom_site_fract_z
Si Si1 0.781786 0.702117 0.411115
Si Si2 0.256819 0.323058 0.187341
Si Si3 0.121319 0.767940 0.835034
Si Si4 0.842598 0.453768 0.424326
Si Si5 0.687006 0.918257 0.885623
Si Si6 0.654593 0.420524 0.186393
Si Si7 0.500000 0.573804 0.250000
Si Si8 0.528625 0.943540 0.410866
O O1 0.750000 0.750000 0.500000
O O2 0.698545 0.676495 0.371384
O O3 0.831484 0.587482 0.418369
O O4 0.837350 0.800971 0.359946
O O5 0.174490 0.300312 0.258470
O O6 0.224908 0.392173 0.118512
O O7 0.292262 0.202223 0.154412
O O8 0.326420 0.390610 0.225674
O O9 0.054683 0.849355 0.801824
O O10 0.074177 0.678452 0.901387
O O11 0.827196 0.414862 0.517331
O O12 0.939856 0.427430 0.381518
O O13 0.766128 0.002096 0.856002
O O14 0.600585 0.971823 0.864991
O O15 0.568527 0.492444 0.194223
O O16 0.500000 0.000000 0.500000
#
# Coordination Sequence:
#
# PCOD9282385 Si02
#       8
#     8   8   8   8   8   8   4   8
#     4  11  21  42  66  90 126 179 212 256 336 403
#     4  11  23  40  67  92 125 174 214 265 333 389
#     4  11  22  40  66  90 131 177 218 262 335 401
#     4  11  23  38  67  97 123 165 223 268 321 393
#     4  11  21  43  63  91 133 165 212 273 324 390
#     4  11  24  41  64  91 131 168 211 271 323 387
#     4  12  24  42  64  98 132 166 224 280 320 386
#     4  10  21  39  61  95 127 164 209 270 318 378
#
# _framework density 19.242175
#
# number of rings (size 3 to 8) (size 9 to 14) (size 15 to 20)
#    0.000    1.067    5.333    2.800    1.867    1.067 
#    0.000    0.667    0.000    0.000    0.000    0.000 
#    0.000    0.000    0.000    0.000    0.000    0.000 
#
# Total GULP energy -167461.855308 kJ/mol
# GULP energy per Si atom -5582.061844 kJ/mol
# Density = 1.919838 g / cm^3
# Si number density = 19.242175 Si / 1000 Ang^3
#
#
#
# Elastic Constant Matrix: (Units=GPa)
#
#
# Indices 1 2 3 4 5 6 
#
# 1 59.8519 27.4490 15.4642 0.0000 -14.6186 0.0000
# 2 27.4490 49.6789 13.2042 0.0000 -12.0673 0.0000
# 3 15.4642 13.2042 58.5735 0.0000 5.0763 0.0000
# 4 0.0000 0.0000 0.0000 33.8667 0.0000 3.6323
# 5 -14.6186 -12.0673 5.0763 0.0000 31.3095 0.0000
# 6 0.0000 0.0000 0.0000 3.6323 0.0000 39.4504
#
#
#
# Elastic Compliance Matrix: (Units=1/GPa)
#
#
# Indices 1 2 3 4 5 6 
#
# 1 0.024772 -0.010340 -0.004936 0.000000 0.008381 0.000000
# 2 -0.010340 0.028677 -0.004335 0.000000 0.006928 0.000000
# 3 -0.004936 -0.004335 0.019978 0.000000 -0.007215 0.000000
# 4 0.000000 0.000000 0.000000 0.029822 0.000000 -0.002746
# 5 0.008381 0.006928 -0.007215 0.000000 0.039693 0.000000
# 6 0.000000 0.000000 0.000000 -0.002746 0.000000 0.025601
#
#
# Mechanical properties :
#
#
# Convention : Reuss Voigt Hill
#
# Bulk Modulus (GPa) = 29.23426 31.14880 30.19153
# Shear Modulus (GPa) = 22.81366 28.39111 25.60238
#
# Velocity S-wave (km/s) = 3.44700 3.84534 3.65161
# Velocity P-wave (km/s) = 5.57389 5.99487 5.78821
#
# Compressibility (1/GPa) = 0.03420644
#
# Stress axis : x y z
#
# Youngs Moduli (GPa) = 40.36786 34.87071 50.05442
#
# Poissons Ratio (x) = 0.36055 0.24705
# Poissons Ratio (y) = 0.41739 0.21701
# Poissons Ratio (z) = 0.19924 0.15118
#
# Static dielectric constant tensor:
#      x y z
#    x 1.661090 0.000000 0.000800 
#    y 0.000000 1.460230 0.000000 
#    z 0.000800 0.000000 1.673570 
# 
# From -- ./inp_files/204020.got.cif
#   From: 2010.05.17/outbox.cif.g08.bks.cpg/sg15_103_cif.got.tgz:204020.got - 2010.06.03 18:47:42.
