data_PCOD9282951
_publ_section_title
;
Structure prediction by ZEFSAII (Michael W. Deem and Ramdas Pophale) SiO2 
 PCOD9282951
Probable space group: C 2/C
;
_chemical_formula_sum "Si O2"
_cell_formula_units_Z 44
_cell_length_a 17.141027
_cell_length_b 18.413078
_cell_length_c 10.760150
_cell_angle_alpha 90.000000
_cell_angle_beta 33.815468
_cell_angle_gamma 90.000000
_cell_volume 1890.002081
_symmetry_space_group_name_H-M "C 2/C"
_symmetry_group_IT_number 15
_symmetry_cell_setting 'monoclinic'
loop_
_space_group_symop_operation_xyz
x,y,z
-x,y,1/2-z
-x,-y,-z
x,-y,1/2+z
1/2+x,1/2+y,z
1/2-x,1/2+y,1/2-z
1/2-x,1/2-y,-z
1/2+x,1/2-y,1/2+z
loop_
_atom_site_type_symbol
_atom_site_label
_atom_site_fract_x
_atom_site_fract_y
_atom_site_fract_z
Si Si1 0.910047 0.349413 0.133724
Si Si2 0.746923 0.395227 0.573432
Si Si3 0.352962 0.801714 0.866199
Si Si4 0.500000 0.680172 0.250000
Si Si5 0.841831 0.550058 0.501684
Si Si6 0.303984 0.228075 0.182913
O O1 0.881723 0.374543 0.310233
O O2 0.812228 0.282248 0.231329
O O3 0.859550 0.417252 0.115829
O O4 0.065227 0.324710 0.882044
O O5 0.616272 0.369892 0.662309
O O6 0.749587 0.479542 0.604817
O O7 0.755453 0.347622 0.685491
O O8 0.500000 0.790147 0.750000
O O9 0.293614 0.880834 0.983988
O O10 0.254105 0.751871 0.894777
O O11 0.437147 0.732141 0.440117
O O12 0.000000 0.532480 0.250000
#
# Coordination Sequence:
#
# PCOD9282951 Si02
#       6
#     8   8   8   4   8   8
#     4   9  21  38  69  95 130 167 216 274 327 385
#     4  12  24  41  67  94 136 170 229 272 331 398
#     4   9  21  38  65 101 129 163 210 273 339 388
#     4  12  26  42  62  96 134 180 218 274 336 390
#     4  10  22  39  68  99 130 168 216 276 331 386
#     4  10  21  39  66 100 122 169 219 276 328 387
#
# _framework density 23.280398999999999
#
# number of rings (size 3 to 8) (size 9 to 14) (size 15 to 20)
#    1.091    0.727    1.818    1.636    5.091    2.182 
#    0.000    0.909    6.000    0.000    0.000    0.000 
#    0.000    0.000    0.000    0.000    0.000    0.000 
#
# Total GULP energy -122922.968902 kJ/mol
# GULP energy per Si atom -5587.407677 kJ/mol
# Density = 2.322741 g / cm^3
# Si number density = 23.280399 Si / 1000 Ang^3
#
#
#
# Elastic Constant Matrix: (Units=GPa)
#
#
# Indices 1 2 3 4 5 6 
#
# 1 191.2680 92.8468 54.3098 -0.0001 7.9688 0.0000
# 2 92.8468 227.0314 62.9175 0.0000 -3.3253 0.0000
# 3 54.3098 62.9175 99.8313 0.0000 7.5234 0.0001
# 4 -0.0001 0.0000 0.0000 21.9484 0.0000 -2.6587
# 5 7.9688 -3.3253 7.5234 0.0000 42.0949 0.0000
# 6 0.0000 0.0000 0.0001 -2.6587 0.0000 49.3910
#
#
#
# Elastic Compliance Matrix: (Units=1/GPa)
#
#
# Indices 1 2 3 4 5 6 
#
# 1 0.007023 -0.002244 -0.002324 0.000000 -0.001091 0.000000
# 2 -0.002244 0.006099 -0.002728 0.000000 0.001394 0.000000
# 3 -0.002324 -0.002728 0.013161 0.000000 -0.002128 0.000000
# 4 0.000000 0.000000 0.000000 0.045860 0.000000 0.002469
# 5 -0.001091 0.001394 -0.002128 0.000000 0.024453 0.000000
# 6 0.000000 0.000000 0.000000 0.002469 0.000000 0.020379
#
#
# Mechanical properties :
#
#
# Convention : Reuss Voigt Hill
#
# Bulk Modulus (GPa) = 85.53989 104.25321 94.89655
# Shear Modulus (GPa) = 36.91007 43.22397 40.06702
#
# Velocity S-wave (km/s) = 3.98610 4.31358 4.15307
# Velocity P-wave (km/s) = 7.61632 8.34794 7.99051
#
# Compressibility (1/GPa) = 0.01169045
#
# Stress axis : x y z
#
# Youngs Moduli (GPa) = 142.39003 163.96602 75.98285
#
# Poissons Ratio (x) = 0.36794 0.17659
# Poissons Ratio (y) = 0.31953 0.20728
# Poissons Ratio (z) = 0.33093 0.44730
#
# Static dielectric constant tensor:
#      x y z
#    x 2.064720 0.000000 -0.002650 
#    y 0.000000 1.831180 0.000000 
#    z -0.002650 0.000000 1.965810 
# 
# From -- ./inp_files/106600.got.cif
#   From: 2010.05.17/outbox.cif.g08.bks.cpg/sg15_54_cif.got.tgz:106600.got - 2010.06.03 18:47:42.
