data_PCOD9282120
_publ_section_title
;
Structure prediction by ZEFSAII (Michael W. Deem and Ramdas Pophale) SiO2 
 PCOD9282120
Probable space group: C 2/C
;
_chemical_formula_sum "Si O2"
_cell_formula_units_Z 36
_cell_length_a 14.955878
_cell_length_b 21.492521
_cell_length_c 6.742899
_cell_angle_alpha 90.000000
_cell_angle_beta 43.014307
_cell_angle_gamma 90.000000
_cell_volume 1478.582367
_symmetry_space_group_name_H-M "C 2/C"
_symmetry_group_IT_number 15
_symmetry_cell_setting 'monoclinic'
loop_
_space_group_symop_operation_xyz
x,y,z
-x,y,1/2-z
-x,-y,-z
x,-y,1/2+z
1/2+x,1/2+y,z
1/2-x,1/2+y,1/2-z
1/2-x,1/2-y,-z
1/2+x,1/2-y,1/2+z
loop_
_atom_site_type_symbol
_atom_site_label
_atom_site_fract_x
_atom_site_fract_y
_atom_site_fract_z
Si Si1 0.322997 0.948372 0.714070
Si Si2 0.644735 0.721236 0.515256
Si Si3 0.116258 0.904080 0.304748
Si Si4 0.500000 0.944122 0.750000
Si Si5 0.823640 0.126616 0.355376
O O1 0.420431 0.911661 0.704933
O O2 0.289578 0.908724 0.576889
O O3 0.395644 0.010122 0.526491
O O4 0.192235 0.957592 0.060381
O O5 0.500000 0.752653 0.750000
O O6 0.750000 0.750000 0.500000
O O7 0.627057 0.653765 0.641419
O O8 0.673119 0.696868 0.242384
O O9 0.961820 0.909285 0.590156
O O10 0.185539 0.118874 0.894324
#
# Coordination Sequence:
#
# PCOD9282120 Si02
#       5
#     8   8   8   4   8
#     4  10  21  39  56  79 111 151 188 231 291 342
#     4   9  18  35  56  84 119 151 190 236 283 342
#     4   9  19  38  62  81 111 150 192 236 288 340
#     4  10  24  38  56  78 118 154 186 240 292 348
#     4   9  19  38  61  82 110 152 190 236 288 337
#
# _framework density 24.347646999999998
#
# number of rings (size 3 to 8) (size 9 to 14) (size 15 to 20)
#    0.000    2.667    0.000    2.000    6.222    0.889 
#    8.000    4.444    0.000    2.667    0.000    0.000 
#    0.000    0.000    0.000    0.000    0.000    0.000 
#
# Total GULP energy -100309.163488 kJ/mol
# GULP energy per Si atom -5572.731305 kJ/mol
# Density = 2.429223 g / cm^3
# Si number density = 24.347647 Si / 1000 Ang^3
#
#
#
# Elastic Constant Matrix: (Units=GPa)
#
#
# Indices 1 2 3 4 5 6 
#
# 1 236.1605 26.4144 22.4155 0.0000 6.7501 0.0000
# 2 26.4144 36.4908 31.1706 0.0000 -6.9465 0.0000
# 3 22.4155 31.1706 103.0903 0.0000 15.3283 0.0000
# 4 0.0000 0.0000 0.0000 22.8123 0.0000 -3.0240
# 5 6.7501 -6.9465 15.3283 0.0000 43.7537 0.0000
# 6 0.0000 0.0000 0.0000 -3.0240 0.0000 44.5682
#
#
#
# Elastic Compliance Matrix: (Units=1/GPa)
#
#
# Indices 1 2 3 4 5 6 
#
# 1 0.004690 -0.004052 0.000431 0.000000 -0.001518 0.000000
# 2 -0.004052 0.045461 -0.014802 0.000000 0.013028 0.000000
# 3 0.000431 -0.014802 0.015235 0.000000 -0.007754 0.000000
# 4 0.000000 0.000000 0.000000 0.044234 0.000000 0.003001
# 5 -0.001518 0.013028 -0.007754 0.000000 0.027874 0.000000
# 6 0.000000 0.000000 0.000000 0.003001 0.000000 0.022641
#
#
# Mechanical properties :
#
#
# Convention : Reuss Voigt Hill
#
# Bulk Modulus (GPa) = 35.03793 59.52695 47.28244
# Shear Modulus (GPa) = 24.21364 41.94291 33.07828
#
# Velocity S-wave (km/s) = 3.15698 4.15501 3.68989
# Velocity P-wave (km/s) = 5.26409 6.89352 6.13316
#
# Compressibility (1/GPa) = 0.02854050
#
# Stress axis : x y z
#
# Youngs Moduli (GPa) = 213.21433 21.99666 65.63877
#
# Poissons Ratio (x) = 0.08914 -0.02830
# Poissons Ratio (y) = 0.86400 0.97158
# Poissons Ratio (z) = -0.09193 0.32559
#
# Static dielectric constant tensor:
#      x y z
#    x 2.023170 0.000000 -0.012560 
#    y 0.000000 1.945400 0.000000 
#    z -0.012560 0.000000 2.080690 
# 
# From -- ./inp_files/49553.got.cif
#   From: 2010.05.17/outbox.cif.g08.bks.cpg/sg15_25_cif.got.tgz:49553.got - 2010.06.03 18:47:42.
