data_PCOD9282082
_publ_section_title
;
Structure prediction by ZEFSAII (Michael W. Deem and Ramdas Pophale) SiO2 
 PCOD9282082
Probable space group: C 2/C
;
_chemical_formula_sum "Si O2"
_cell_formula_units_Z 52
_cell_length_a 7.090616
_cell_length_b 27.521798
_cell_length_c 13.494592
_cell_angle_alpha 90.000000
_cell_angle_beta 59.881366
_cell_angle_gamma 90.000000
_cell_volume 2277.879502
_symmetry_space_group_name_H-M "C 2/C"
_symmetry_group_IT_number 15
_symmetry_cell_setting 'monoclinic'
loop_
_space_group_symop_operation_xyz
x,y,z
-x,y,1/2-z
-x,-y,-z
x,-y,1/2+z
1/2+x,1/2+y,z
1/2-x,1/2+y,1/2-z
1/2-x,1/2-y,-z
1/2+x,1/2-y,1/2+z
loop_
_atom_site_type_symbol
_atom_site_label
_atom_site_fract_x
_atom_site_fract_y
_atom_site_fract_z
Si Si1 0.313180 0.121308 0.153113
Si Si2 0.500000 0.386134 0.250000
Si Si3 0.118926 0.728145 0.442636
Si Si4 0.093890 0.046330 0.884330
Si Si5 0.285542 0.028080 0.023972
Si Si6 0.312941 0.619484 0.093915
Si Si7 0.129408 0.803796 0.072084
O O1 0.292585 0.176191 0.116850
O O2 0.279948 0.079862 0.079956
O O3 0.563355 0.115143 0.123943
O O4 0.822927 0.115560 0.209570
O O5 0.348927 0.420931 0.224326
O O6 0.620405 0.350430 0.144504
O O7 0.250000 0.750000 0.500000
O O8 0.079475 0.768289 0.365898
O O9 0.862011 0.719798 0.534314
O O10 0.932254 0.003224 0.895156
O O11 0.952707 0.079754 0.997977
O O12 0.287690 0.030228 0.903615
O O13 0.500000 0.000000 0.000000
O O14 0.380096 0.672499 0.035280
#
# Coordination Sequence:
#
# PCOD9282082 Si02
#       7
#     8   4   8   8   8   8   8
#     4  10  21  38  70  93 128 165 219 264 325 386
#     4  10  22  44  68  94 134 182 218 266 338 396
#     4  10  22  40  66  97 129 169 215 271 331 390
#     4  10  23  42  64  92 133 172 216 265 329 390
#     4  11  23  42  67  95 132 167 214 278 327 389
#     4   9  19  40  64  93 122 171 210 266 319 376
#     4   9  21  42  64  89 138 169 211 272 322 386
#
# _framework density 22.828249
#
# number of rings (size 3 to 8) (size 9 to 14) (size 15 to 20)
#    0.000    2.154    1.538    0.000    4.308    6.769 
#    0.000    3.846    0.000    0.000    0.000    0.000 
#    0.000    0.000    0.000    0.000    0.000    0.000 
#
# Total GULP energy -145204.432897 kJ/mol
# GULP energy per Si atom -5584.785881 kJ/mol
# Density = 2.277629 g / cm^3
# Si number density = 22.828249 Si / 1000 Ang^3
#
#
#
# Elastic Constant Matrix: (Units=GPa)
#
#
# Indices 1 2 3 4 5 6 
#
# 1 138.3449 59.3343 28.9984 0.0000 30.4842 0.0000
# 2 59.3343 145.9910 30.1349 0.0000 22.0663 0.0000
# 3 28.9984 30.1349 55.4535 0.0000 25.4652 0.0000
# 4 0.0000 0.0000 0.0000 28.2721 0.0000 10.4906
# 5 30.4842 22.0663 25.4652 0.0000 31.1968 0.0000
# 6 0.0000 0.0000 0.0000 10.4906 0.0000 35.7224
#
#
#
# Elastic Compliance Matrix: (Units=1/GPa)
#
#
# Indices 1 2 3 4 5 6 
#
# 1 0.010246 -0.002951 -0.000184 0.000000 -0.007774 0.000000
# 2 -0.002951 0.008777 -0.002719 0.000000 -0.001105 0.000000
# 3 -0.000184 -0.002719 0.029819 0.000000 -0.022237 0.000000
# 4 0.000000 0.000000 0.000000 0.039696 0.000000 -0.011658
# 5 -0.007774 -0.001105 -0.022237 0.000000 0.058584 0.000000
# 6 0.000000 0.000000 0.000000 -0.011658 0.000000 0.031417
#
#
# Mechanical properties :
#
#
# Convention : Reuss Voigt Hill
#
# Bulk Modulus (GPa) = 26.93018 64.08051 45.50535
# Shear Modulus (GPa) = 24.67607 33.79305 29.23456
#
# Velocity S-wave (km/s) = 3.29134 3.85166 3.58247
# Velocity P-wave (km/s) = 5.12507 6.92185 6.09009
#
# Compressibility (1/GPa) = 0.03713306
#
# Stress axis : x y z
#
# Youngs Moduli (GPa) = 97.60353 113.92835 33.53603
#
# Poissons Ratio (x) = 0.33620 0.00618
# Poissons Ratio (y) = 0.28803 0.09119
# Poissons Ratio (z) = 0.01798 0.30978
#
# Static dielectric constant tensor:
#      x y z
#    x 1.877780 0.000000 0.027800 
#    y 0.000000 1.943000 0.000000 
#    z 0.027800 0.000000 1.921940 
# 
# From -- ./inp_files/130683.got.cif
#   From: 2010.05.17/outbox.cif.g08.bks.cpg/sg15_66_cif.got.tgz:130683.got - 2010.06.03 18:47:42.
