data_PCOD9282550
_publ_section_title
;
Structure prediction by ZEFSAII (Michael W. Deem and Ramdas Pophale) SiO2 
 PCOD9282550
Probable space group: C 2/C
;
_chemical_formula_sum "Si O2"
_cell_formula_units_Z 56
_cell_length_a 12.023943
_cell_length_b 16.488404
_cell_length_c 18.432473
_cell_angle_alpha 90.000000
_cell_angle_beta 128.422928
_cell_angle_gamma 90.000000
_cell_volume 2862.974992
_symmetry_space_group_name_H-M "C 2/C"
_symmetry_group_IT_number 15
_symmetry_cell_setting 'monoclinic'
loop_
_space_group_symop_operation_xyz
x,y,z
-x,y,1/2-z
-x,-y,-z
x,-y,1/2+z
1/2+x,1/2+y,z
1/2-x,1/2+y,1/2-z
1/2-x,1/2-y,-z
1/2+x,1/2-y,1/2+z
loop_
_atom_site_type_symbol
_atom_site_label
_atom_site_fract_x
_atom_site_fract_y
_atom_site_fract_z
Si Si1 0.000000 0.930154 0.750000
Si Si2 0.165367 0.358450 0.983007
Si Si3 0.344900 0.656406 0.321230
Si Si4 0.571051 0.060791 0.184190
Si Si5 0.233972 0.465942 0.140082
Si Si6 0.558538 0.317017 0.481771
Si Si7 0.758678 0.168465 0.778081
Si Si8 0.000000 0.586154 0.750000
O O1 0.065177 0.877969 0.710346
O O2 0.123570 0.989775 0.827020
O O3 0.124609 0.272906 0.001396
O O4 0.049783 0.373226 0.874064
O O5 0.157625 0.422666 0.043670
O O6 0.322176 0.365985 0.013980
O O7 0.209000 0.597189 0.280253
O O8 0.437156 0.660371 0.431829
O O9 0.285322 0.745249 0.274894
O O10 0.636979 0.035643 0.134498
O O11 0.497004 0.979542 0.183868
O O12 0.265779 0.400147 0.217373
O O13 0.407087 0.323965 0.381178
O O14 0.636205 0.140008 0.785128
#
# Coordination Sequence:
#
# PCOD9282550 Si02
#       8
#     4   8   8   8   8   8   8   4
#     4  10  23  40  63  92 124 170 202 258 319 362
#     4  11  21  39  60  97 122 162 211 255 312 364
#     4  11  22  43  64  91 129 163 211 259 309 375
#     4  10  21  39  63  87 126 166 207 257 314 371
#     4  10  21  39  63  87 126 166 207 257 314 371
#     4  11  24  37  65  96 122 160 211 262 305 365
#     4  11  22  43  64  91 129 163 211 259 309 375
#     4  10  23  40  63  92 124 170 202 258 319 362
#
# _framework density 19.560072999999999
#
# number of rings (size 3 to 8) (size 9 to 14) (size 15 to 20)
#    0.000    1.429    2.857    2.571    0.000    1.143 
#    0.000   12.143    0.000    0.000    0.000    0.000 
#    0.000    0.000    0.000    0.000    0.000    0.000 
#
# Total GULP energy -156112.338565 kJ/mol
# GULP energy per Si atom -5575.440663 kJ/mol
# Density = 1.951555 g / cm^3
# Si number density = 19.560073 Si / 1000 Ang^3
#
#
#
# Elastic Constant Matrix: (Units=GPa)
#
#
# Indices 1 2 3 4 5 6 
#
# 1 93.1281 23.0495 38.1838 0.0000 9.0912 0.0000
# 2 23.0495 58.7654 16.3344 0.0000 3.1523 0.0000
# 3 38.1838 16.3344 98.9335 0.0000 11.5849 0.0000
# 4 0.0000 0.0000 0.0000 -67.1029 0.0000 200.3574
# 5 9.0912 3.1523 11.5849 0.0000 22.2008 0.0000
# 6 0.0000 0.0000 0.0000 200.3574 0.0000 -384.2177
#
#
#
# Elastic Compliance Matrix: (Units=1/GPa)
#
#
# Indices 1 2 3 4 5 6 
#
# 1 0.013789 -0.004056 -0.004323 0.000000 -0.002815 0.000000
# 2 -0.004056 0.019052 -0.001553 0.000000 -0.000234 0.000000
# 3 -0.004323 -0.001553 0.012567 0.000000 -0.004567 0.000000
# 4 0.000000 0.000000 0.000000 0.026754 0.000000 0.013952
# 5 -0.002815 -0.000234 -0.004567 0.000000 0.048613 0.000000
# 6 0.000000 0.000000 0.000000 0.013952 0.000000 0.004673
#
#
# Mechanical properties :
#
#
# Convention : Reuss Voigt Hill
#
# Bulk Modulus (GPa) = 39.14581 45.10693 42.12637
# Shear Modulus (GPa) = 32.50443 -74.27334 -20.88445
#
# Velocity S-wave (km/s) = 4.08091 -6.16882 -3.27113
# Velocity P-wave (km/s) = 6.50090 5.25627 2.70493
#
# Compressibility (1/GPa) = 0.02554552
#
# Stress axis : x y z
#
# Youngs Moduli (GPa) = 72.52230 52.48846 79.57147
#
# Poissons Ratio (x) = 0.21289 0.34395
# Poissons Ratio (y) = 0.29414 0.12355
# Poissons Ratio (z) = 0.31348 0.08150
#
# Static dielectric constant tensor:
#      x y z
#    x 1.716960 0.000000 0.001040 
#    y 0.000000 1.701780 0.000000 
#    z 0.001040 0.000000 1.677330 
# 
# From -- ./inp_files/144280.got.cif
#   From: 2010.05.17/outbox.cif.g08.bks.cpg/sg15_73_cif.got.tgz:144280.got - 2010.06.03 18:47:42.
