data_PCOD9282751
_publ_section_title
;
Structure prediction by ZEFSAII (Michael W. Deem and Ramdas Pophale) SiO2 
 PCOD9282751
Probable space group: C 2/C
;
_chemical_formula_sum "Si O2"
_cell_formula_units_Z 48
_cell_length_a 8.727355
_cell_length_b 14.563912
_cell_length_c 24.243501
_cell_angle_alpha 90.000000
_cell_angle_beta 137.926174
_cell_angle_gamma 90.000000
_cell_volume 2064.845704
_symmetry_space_group_name_H-M "C 2/C"
_symmetry_group_IT_number 15
_symmetry_cell_setting 'monoclinic'
loop_
_space_group_symop_operation_xyz
x,y,z
-x,y,1/2-z
-x,-y,-z
x,-y,1/2+z
1/2+x,1/2+y,z
1/2-x,1/2+y,1/2-z
1/2-x,1/2-y,-z
1/2+x,1/2-y,1/2+z
loop_
_atom_site_type_symbol
_atom_site_label
_atom_site_fract_x
_atom_site_fract_y
_atom_site_fract_z
Si Si1 0.614423 0.269759 0.224651
Si Si2 0.856714 0.904258 0.016295
Si Si3 0.559263 0.389164 0.703112
Si Si4 0.656111 0.927687 0.507707
Si Si5 0.861853 0.728740 0.959994
Si Si6 0.260300 0.939942 0.211919
O O1 0.500000 0.239137 0.250000
O O2 0.831525 0.210708 0.266550
O O3 0.400242 0.260827 0.127282
O O4 0.691636 0.374810 0.244127
O O5 0.663632 0.838675 0.993653
O O6 0.064322 0.923561 0.113761
O O7 0.748875 0.006843 0.982388
O O8 0.944551 0.832662 0.993271
O O9 0.500000 0.415250 0.750000
O O10 0.354764 0.398546 0.604193
O O11 0.752257 0.457144 0.731373
O O12 0.510337 0.834789 0.458163
O O13 0.500000 0.000000 0.500000
O O14 0.500000 0.915297 0.250000
#
# Coordination Sequence:
#
# PCOD9282751 Si02
#       6
#     8   8   8   8   8   8
#     4  11  24  41  61  94 132 166 216 266 324 392
#     4   8  17  32  57  91 121 164 213 263 324 390
#     4  11  24  39  66  95 125 175 216 265 330 390
#     4   9  19  35  60  92 128 165 219 270 322 398
#     4   9  18  34  60  87 125 167 211 271 322 386
#     4  10  21  39  64  92 129 165 210 271 323 390
#
# _framework density 23.246289999999998
#
# number of rings (size 3 to 8) (size 9 to 14) (size 15 to 20)
#    0.000    2.333    0.000    2.500   11.667    0.000 
#    0.000    0.833    3.667    3.000    0.000    0.000 
#    0.000    0.000    0.000    0.000    0.000    0.000 
#
# Total GULP energy -133742.881515 kJ/mol
# GULP energy per Si atom -5572.620063 kJ/mol
# Density = 2.319338 g / cm^3
# Si number density = 23.246290 Si / 1000 Ang^3
#
#
#
# Elastic Constant Matrix: (Units=GPa)
#
#
# Indices 1 2 3 4 5 6 
#
# 1 67.5517 97.4342 34.4048 0.0000 -4.0289 0.0000
# 2 97.4342 443.1320 140.1217 -0.0001 -57.6951 0.0000
# 3 34.4048 140.1217 84.2831 0.0001 -11.9351 0.0000
# 4 0.0000 -0.0001 0.0001 31.2088 0.0001 11.0723
# 5 -4.0289 -57.6951 -11.9351 0.0001 35.2451 0.0000
# 6 0.0000 0.0000 0.0000 11.0723 0.0000 53.4904
#
#
#
# Elastic Compliance Matrix: (Units=1/GPa)
#
#
# Indices 1 2 3 4 5 6 
#
# 1 0.023064 -0.005672 -0.000973 0.000000 -0.006978 0.000000
# 2 -0.005672 0.007366 -0.008734 0.000000 0.008452 0.000000
# 3 -0.000973 -0.008734 0.025988 0.000000 -0.005608 0.000000
# 4 0.000000 0.000000 0.000000 0.034582 0.000000 -0.007158
# 5 -0.006978 0.008452 -0.005608 0.000000 0.039511 0.000000
# 6 0.000000 0.000000 0.000000 -0.007158 0.000000 0.020177
#
#
# Mechanical properties :
#
#
# Convention : Reuss Voigt Hill
#
# Bulk Modulus (GPa) = 38.97123 126.54316 82.75720
# Shear Modulus (GPa) = 26.31593 45.52260 35.91927
#
# Velocity S-wave (km/s) = 3.36824 4.43004 3.93512
# Velocity P-wave (km/s) = 5.65045 8.98449 7.50495
#
# Compressibility (1/GPa) = 0.02565996
#
# Stress axis : x y z
#
# Youngs Moduli (GPa) = 43.35741 135.76114 38.47965
#
# Poissons Ratio (x) = 0.77004 0.03745
# Poissons Ratio (y) = 0.24593 0.33607
# Poissons Ratio (z) = 0.04219 1.18569
#
# Static dielectric constant tensor:
#      x y z
#    x 1.890990 0.000000 0.020070 
#    y 0.000000 1.924930 0.000000 
#    z 0.020070 0.000000 1.706220 
# 
# From -- ./inp_files/289099.got.cif
#   From: 2010.05.17/outbox.cif.g08.bks.cpg/sg15_145_cif.got.tgz:289099.got - 2010.06.03 18:47:42.
