data_PCOD9282571
_publ_section_title
;
Structure prediction by ZEFSAII (Michael W. Deem and Ramdas Pophale) SiO2 
 PCOD9282571
Probable space group: C 2/C
;
_chemical_formula_sum "Si O2"
_cell_formula_units_Z 32
_cell_length_a 28.772906
_cell_length_b 8.552860
_cell_length_c 11.517963
_cell_angle_alpha 90.000000
_cell_angle_beta 156.396092
_cell_angle_gamma 90.000000
_cell_volume 1134.951619
_symmetry_space_group_name_H-M "C 2/C"
_symmetry_group_IT_number 15
_symmetry_cell_setting 'monoclinic'
loop_
_space_group_symop_operation_xyz
x,y,z
-x,y,1/2-z
-x,-y,-z
x,-y,1/2+z
1/2+x,1/2+y,z
1/2-x,1/2+y,1/2-z
1/2-x,1/2-y,-z
1/2+x,1/2-y,1/2+z
loop_
_atom_site_type_symbol
_atom_site_label
_atom_site_fract_x
_atom_site_fract_y
_atom_site_fract_z
Si Si1 0.341757 0.051984 0.246601
Si Si2 0.996257 0.722737 0.450034
Si Si3 0.328753 0.733153 0.937138
Si Si4 0.143705 0.082653 0.142203
O O1 0.370674 0.181042 0.212050
O O2 0.340382 0.133679 0.366291
O O3 0.447291 0.929257 0.480266
O O4 0.226496 0.964261 0.941025
O O5 0.023146 0.863589 0.424298
O O6 0.072103 0.749317 0.739278
O O7 0.207462 0.773093 0.723468
O O8 0.347756 0.568403 0.918763
#
# Coordination Sequence:
#
# PCOD9282571 Si02
#       4
#     8   8   8   8
#     4  10  21  39  63  89 124 167 215 269 325 386
#     4  10  22  40  62  92 126 164 218 271 320 391
#     4  11  21  38  62  88 124 170 213 264 329 387
#     4  11  22  39  63  92 128 170 214 266 328 387
#
# _framework density 28.195034
#
# number of rings (size 3 to 8) (size 9 to 14) (size 15 to 20)
#    0.000    1.500    0.000    7.500    0.000    1.000 
#    0.000    6.250    0.000    0.000    0.000    0.000 
#    0.000    0.000    0.000    0.000    0.000    0.000 
#
# Total GULP energy -89927.680147 kJ/mol
# GULP energy per Si atom -5620.480009 kJ/mol
# Density = 2.813086 g / cm^3
# Si number density = 28.195034 Si / 1000 Ang^3
#
#
#
# Elastic Constant Matrix: (Units=GPa)
#
#
# Indices 1 2 3 4 5 6 
#
# 1 171.5619 89.6871 42.0057 0.0000 -14.7518 0.0000
# 2 89.6871 143.2747 33.7979 0.0000 -15.9940 0.0000
# 3 42.0057 33.7979 80.7273 0.0000 -2.0621 0.0000
# 4 0.0000 0.0000 0.0000 40.5327 0.0000 -7.2139
# 5 -14.7518 -15.9940 -2.0621 0.0000 50.4220 0.0000
# 6 0.0000 0.0000 0.0000 -7.2139 0.0000 89.7008
#
#
#
# Elastic Compliance Matrix: (Units=1/GPa)
#
#
# Indices 1 2 3 4 5 6 
#
# 1 0.009184 -0.005012 -0.002655 0.000000 0.000988 0.000000
# 2 -0.005012 0.010763 -0.001850 0.000000 0.001872 0.000000
# 3 -0.002655 -0.001850 0.014524 0.000000 -0.000770 0.000000
# 4 0.000000 0.000000 0.000000 0.025030 0.000000 0.002013
# 5 0.000988 0.001872 -0.000770 0.000000 0.020684 0.000000
# 6 0.000000 0.000000 0.000000 0.002013 0.000000 0.011310
#
#
# Mechanical properties :
#
#
# Convention : Reuss Voigt Hill
#
# Bulk Modulus (GPa) = 64.78543 80.72727 72.75635
# Shear Modulus (GPa) = 43.22459 51.46931 47.34695
#
# Velocity S-wave (km/s) = 3.91967 4.27719 4.10233
# Velocity P-wave (km/s) = 6.59641 7.28604 6.94978
#
# Compressibility (1/GPa) = 0.01543557
#
# Stress axis : x y z
#
# Youngs Moduli (GPa) = 108.88212 92.91377 68.85246
#
# Poissons Ratio (x) = 0.46573 0.18281
# Poissons Ratio (y) = 0.54577 0.12738
# Poissons Ratio (z) = 0.28910 0.17189
#
# Static dielectric constant tensor:
#      x y z
#    x 2.153070 0.000000 -0.010120 
#    y 0.000000 2.179640 0.000000 
#    z -0.010120 0.000000 2.172170 
# 
# From -- ./inp_files/93263.got.cif
#   From: 2010.05.17/outbox.cif.g08.bks.cpg/sg15_47_cif.got.tgz:93263.got - 2010.06.03 18:47:42.
