data_PCOD9282114
_publ_section_title
;
Structure prediction by ZEFSAII (Michael W. Deem and Ramdas Pophale) SiO2 
 PCOD9282114
Probable space group: C 2/C
;
_chemical_formula_sum "Si O2"
_cell_formula_units_Z 60
_cell_length_a 19.949159
_cell_length_b 28.054648
_cell_length_c 14.189410
_cell_angle_alpha 90.000000
_cell_angle_beta 157.624570
_cell_angle_gamma 90.000000
_cell_volume 3023.060380
_symmetry_space_group_name_H-M "C 2/C"
_symmetry_group_IT_number 15
_symmetry_cell_setting 'monoclinic'
loop_
_space_group_symop_operation_xyz
x,y,z
-x,y,1/2-z
-x,-y,-z
x,-y,1/2+z
1/2+x,1/2+y,z
1/2-x,1/2+y,1/2-z
1/2-x,1/2-y,-z
1/2+x,1/2-y,1/2+z
loop_
_atom_site_type_symbol
_atom_site_label
_atom_site_fract_x
_atom_site_fract_y
_atom_site_fract_z
Si Si1 0.679381 0.432435 0.538840
Si Si2 0.757805 0.392506 0.823211
Si Si3 0.706427 0.500087 0.304047
Si Si4 0.500000 0.752141 0.250000
Si Si5 0.874476 0.373706 0.284304
Si Si6 0.821876 0.180980 0.128748
Si Si7 0.951716 0.592420 0.080861
Si Si8 0.803682 0.029729 0.995187
O O1 0.645562 0.399066 0.583745
O O2 0.709171 0.488484 0.599726
O O3 0.859114 0.418635 0.720914
O O4 0.500000 0.430513 0.250000
O O5 0.790086 0.447731 0.892070
O O6 0.663353 0.363855 0.782964
O O7 0.935834 0.367231 0.019134
O O8 0.823659 0.454226 0.425704
O O9 0.712945 0.502450 0.427139
O O10 0.500000 0.500000 0.000000
O O11 0.668571 0.785693 0.470973
O O12 0.478482 0.717256 0.311510
O O13 0.871216 0.373170 0.394064
O O14 0.744178 0.339753 0.057492
O O15 0.826655 0.428041 0.194737
O O16 0.000000 0.609194 0.250000
O O17 0.000000 0.050743 0.250000
#
# Coordination Sequence:
#
# PCOD9282114 Si02
#       8
#     8   8   8   4   8   8   8   8
#     4  10  21  39  55  81 122 168 208 248 290 339
#     4  11  22  36  60  83 116 162 204 249 298 362
#     4  12  23  35  54  82 124 170 215 257 289 337
#     4  10  24  42  66  92 126 142 184 258 332 392
#     4  11  22  37  58  85 117 156 207 246 299 364
#     4  11  22  43  65  95 120 150 193 250 324 383
#     4  11  23  38  56  83 120 167 209 249 294 337
#     4  11  21  34  50  79 123 163 209 252 285 337
#
# _framework density 19.847436999999999
#
# number of rings (size 3 to 8) (size 9 to 14) (size 15 to 20)
#    0.000    1.067    4.000    4.000    0.933    3.200 
#    0.000    0.000    0.000    0.000    0.000    5.600 
#    0.000    0.000    0.000    0.000    0.000    0.000 
#
# Total GULP energy -167242.400811 kJ/mol
# GULP energy per Si atom -5574.746694 kJ/mol
# Density = 1.980226 g / cm^3
# Si number density = 19.847437 Si / 1000 Ang^3
#
#
#
# Elastic Constant Matrix: (Units=GPa)
#
#
# Indices 1 2 3 4 5 6 
#
# 1 114.2824 41.0356 29.4337 0.0000 -10.5073 0.0000
# 2 41.0356 65.4801 22.4176 0.0000 -7.0824 0.0000
# 3 29.4337 22.4176 48.6118 -0.0001 -7.2567 0.0000
# 4 0.0000 0.0000 -0.0001 -15.6134 0.0000 7.2093
# 5 -10.5073 -7.0824 -7.2567 0.0000 29.7483 0.0000
# 6 0.0000 0.0000 0.0000 7.2093 0.0000 39.8027
#
#
#
# Elastic Compliance Matrix: (Units=1/GPa)
#
#
# Indices 1 2 3 4 5 6 
#
# 1 0.012173 -0.005939 -0.004360 0.000000 0.001822 0.000000
# 2 -0.005939 0.021194 -0.005954 0.000000 0.001496 0.000000
# 3 -0.004360 -0.005954 0.026480 0.000000 0.003502 0.000000
# 4 0.000000 0.000000 0.000000 -0.059104 0.000000 0.010705
# 5 0.001822 0.001496 0.003502 0.000000 0.035469 0.000000
# 6 0.000000 0.000000 0.000000 0.010705 0.000000 0.023185
#
#
# Mechanical properties :
#
#
# Convention : Reuss Voigt Hill
#
# Bulk Modulus (GPa) = 36.57631 46.01647 41.29639
# Shear Modulus (GPa) = 49.49663 19.82001 34.65832
#
# Velocity S-wave (km/s) = 4.99927 3.16352 4.18333
# Velocity P-wave (km/s) = 7.19669 6.04808 6.64724
#
# Compressibility (1/GPa) = 0.02734010
#
# Stress axis : x y z
#
# Youngs Moduli (GPa) = 82.14735 47.18286 37.76490
#
# Poissons Ratio (x) = 0.28022 0.16465
# Poissons Ratio (y) = 0.48788 0.22487
# Poissons Ratio (z) = 0.35815 0.28095
#
# Static dielectric constant tensor:
#      x y z
#    x 1.828070 0.000000 -0.020260 
#    y 0.000000 1.699310 0.000000 
#    z -0.020260 0.000000 1.741980 
# 
# From -- ./inp_files/170053.got.cif
#   From: 2010.05.17/outbox.cif.g08.bks.cpg/sg15_86_cif.got.tgz:170053.got - 2010.06.03 18:47:42.
