data_PCOD9282831
_publ_section_title
;
Structure prediction by ZEFSAII (Michael W. Deem and Ramdas Pophale) SiO2 
 PCOD9282831
Probable space group: C 2/C
;
_chemical_formula_sum "Si O2"
_cell_formula_units_Z 40
_cell_length_a 11.572819
_cell_length_b 29.901927
_cell_length_c 4.938732
_cell_angle_alpha 90.000000
_cell_angle_beta 100.010200
_cell_angle_gamma 90.000000
_cell_volume 1683.029068
_symmetry_space_group_name_H-M "C 2/C"
_symmetry_group_IT_number 15
_symmetry_cell_setting 'monoclinic'
loop_
_space_group_symop_operation_xyz
x,y,z
-x,y,1/2-z
-x,-y,-z
x,-y,1/2+z
1/2+x,1/2+y,z
1/2-x,1/2+y,1/2-z
1/2-x,1/2-y,-z
1/2+x,1/2-y,1/2+z
loop_
_atom_site_type_symbol
_atom_site_label
_atom_site_fract_x
_atom_site_fract_y
_atom_site_fract_z
Si Si1 0.216296 0.030072 0.629783
Si Si2 0.392824 0.083273 0.063087
Si Si3 0.500000 0.158211 0.750000
Si Si4 0.500000 0.587753 0.750000
Si Si5 0.746185 0.200603 0.874027
Si Si6 0.186123 0.145766 0.123599
O O1 0.097117 0.056989 0.642001
O O2 0.218815 0.014088 0.322174
O O3 0.326497 0.057676 0.792541
O O4 0.500000 0.056739 0.250000
O O5 0.288496 0.107937 0.184604
O O6 0.460991 0.125077 0.966689
O O7 0.611807 0.186992 0.867040
O O8 0.426531 0.619375 0.522287
O O9 0.778420 0.184679 0.581596
O O10 0.750000 0.250000 0.000000
O O11 0.825563 0.169102 0.094402
#
# Coordination Sequence:
#
# PCOD9282831 Si02
#       6
#     8   8   4   4   8   8
#     4  11  26  42  63  96 125 162 210 265 323 364
#     4  10  21  39  65  85 124 165 208 252 310 384
#     4  10  22  40  64  88 127 168 203 254 318 372
#     4  10  24  44  70  86 133 170 213 262 308 384
#     4  11  23  40  63  96 129 160 210 264 313 364
#     4  10  23  40  63  95 119 172 214 244 313 383
#
# _framework density 23.766672
#
# number of rings (size 3 to 8) (size 9 to 14) (size 15 to 20)
#    0.000    1.600    2.000    1.200    2.800    9.600 
#    0.000    0.000    0.000    0.000    0.000    0.000 
#    0.000    0.000    0.000    0.000    0.000    0.000 
#
# Total GULP energy -111887.972225 kJ/mol
# GULP energy per Si atom -5594.398611 kJ/mol
# Density = 2.371258 g / cm^3
# Si number density = 23.766672 Si / 1000 Ang^3
#
#
#
# Elastic Constant Matrix: (Units=GPa)
#
#
# Indices 1 2 3 4 5 6 
#
# 1 115.9301 35.5734 23.2397 0.0000 39.1435 0.0000
# 2 35.5734 91.8451 19.6313 0.0000 9.1161 0.0000
# 3 23.2397 19.6313 68.2911 0.0000 6.7292 0.0000
# 4 0.0000 0.0000 0.0000 34.8487 0.0000 13.3655
# 5 39.1435 9.1161 6.7292 0.0000 37.9778 0.0000
# 6 0.0000 0.0000 0.0000 13.3655 0.0000 34.6644
#
#
#
# Elastic Compliance Matrix: (Units=1/GPa)
#
#
# Indices 1 2 3 4 5 6 
#
# 1 0.015147 -0.003893 -0.002635 0.000000 -0.014210 0.000000
# 2 -0.003893 0.012790 -0.002488 0.000000 0.001383 0.000000
# 3 -0.002635 -0.002488 0.016212 0.000000 0.000441 0.000000
# 4 0.000000 0.000000 0.000000 0.033675 0.000000 -0.012984
# 5 -0.014210 0.001383 0.000441 0.000000 0.040568 0.000000
# 6 0.000000 0.000000 0.000000 -0.012984 0.000000 0.033854
#
#
# Mechanical properties :
#
#
# Convention : Reuss Voigt Hill
#
# Bulk Modulus (GPa) = 38.29058 48.10612 43.19835
# Shear Modulus (GPa) = 27.93542 34.67296 31.30419
#
# Velocity S-wave (km/s) = 3.43213 3.82369 3.63319
# Velocity P-wave (km/s) = 5.64376 6.30706 5.98461
#
# Compressibility (1/GPa) = 0.02611609
#
# Stress axis : x y z
#
# Youngs Moduli (GPa) = 66.02056 78.18444 61.68343
#
# Poissons Ratio (x) = 0.30437 0.16255
# Poissons Ratio (y) = 0.25701 0.15348
# Poissons Ratio (z) = 0.17398 0.19454
#
# Static dielectric constant tensor:
#      x y z
#    x 1.830550 0.000000 -0.011130 
#    y 0.000000 1.916270 0.000000 
#    z -0.011130 0.000000 2.007900 
# 
# From -- ./inp_files/5088.got.cif
#   From: 2010.05.17/outbox.cif.g08.bks.cpg/sg15_3_cif.got.tgz:5088.got - 2010.06.03 18:47:42.
