data_PCOD9282814
_publ_section_title
;
Structure prediction by ZEFSAII (Michael W. Deem and Ramdas Pophale) SiO2 
 PCOD9282814
Probable space group: C 2/C
;
_chemical_formula_sum "Si O2"
_cell_formula_units_Z 64
_cell_length_a 22.548649
_cell_length_b 11.160268
_cell_length_c 15.180323
_cell_angle_alpha 90.000000
_cell_angle_beta 139.142528
_cell_angle_gamma 90.000000
_cell_volume 2499.039717
_symmetry_space_group_name_H-M "C 2/C"
_symmetry_group_IT_number 15
_symmetry_cell_setting 'monoclinic'
loop_
_space_group_symop_operation_xyz
x,y,z
-x,y,1/2-z
-x,-y,-z
x,-y,1/2+z
1/2+x,1/2+y,z
1/2-x,1/2+y,1/2-z
1/2-x,1/2-y,-z
1/2+x,1/2-y,1/2+z
loop_
_atom_site_type_symbol
_atom_site_label
_atom_site_fract_x
_atom_site_fract_y
_atom_site_fract_z
Si Si1 0.076832 0.723650 0.047266
Si Si2 0.287048 0.256862 0.742805
Si Si3 0.163599 0.018896 0.322458
Si Si4 0.322411 0.153218 0.964543
Si Si5 0.728152 0.512921 0.587436
Si Si6 0.029907 0.973259 0.933948
Si Si7 0.122156 0.676017 0.283830
Si Si8 0.478267 0.965577 0.134724
O O1 0.181969 0.707593 0.139876
O O2 0.076315 0.745476 0.151046
O O3 0.019690 0.610934 0.951135
O O4 0.040818 0.830576 0.947612
O O5 0.328475 0.366776 0.733825
O O6 0.334238 0.227724 0.889009
O O7 0.279441 0.125378 0.688940
O O8 0.208605 0.050650 0.465503
O O9 0.057903 0.990592 0.220182
O O10 0.220371 0.902139 0.353349
O O11 0.351878 0.219477 0.088560
O O12 0.382413 0.032971 0.028870
O O13 0.631188 0.486587 0.523587
O O14 0.789429 0.394288 0.652719
O O15 0.000000 0.000000 0.000000
O O16 0.051038 0.569875 0.218364
O O17 0.500000 0.894879 0.250000
#
# Coordination Sequence:
#
# PCOD9282814 Si02
#       8
#     8   8   8   8   8   8   8   8
#     4  11  23  39  64  98 128 171 225 269 329 400
#     4  11  23  37  66  93 130 167 215 272 328 400
#     4  11  22  41  68  94 131 175 218 274 331 395
#     4  10  22  43  65  96 133 174 216 271 339 400
#     4  10  23  42  64  97 130 170 223 271 335 389
#     4  11  26  43  65  92 135 178 223 271 327 400
#     4  10  23  40  67  94 133 171 217 278 335 397
#     4  10  21  39  64  98 135 165 211 277 341 398
#
# _framework density 25.609836999999999
#
# number of rings (size 3 to 8) (size 9 to 14) (size 15 to 20)
#    0.000    1.500    1.250    3.375    5.250    2.500 
#    0.000    0.000    2.750    0.000    0.000    0.000 
#    0.000    0.000    0.000    0.000    0.000    0.000 
#
# Total GULP energy -179086.867633 kJ/mol
# GULP energy per Si atom -5596.464614 kJ/mol
# Density = 2.555155 g / cm^3
# Si number density = 25.609837 Si / 1000 Ang^3
#
#
#
# Elastic Constant Matrix: (Units=GPa)
#
#
# Indices 1 2 3 4 5 6 
#
# 1 82.9510 6.9488 23.8976 0.0000 -2.7323 0.0000
# 2 6.9488 49.1975 39.9925 0.0000 -25.2899 0.0000
# 3 23.8976 39.9925 129.7140 0.0000 -17.4368 0.0000
# 4 0.0000 0.0000 0.0000 37.6161 0.0000 -9.8492
# 5 -2.7323 -25.2899 -17.4368 0.0000 54.3217 0.0000
# 6 0.0000 0.0000 0.0000 -9.8492 0.0000 30.2256
#
#
#
# Elastic Compliance Matrix: (Units=1/GPa)
#
#
# Indices 1 2 3 4 5 6 
#
# 1 0.012732 0.000102 -0.002388 0.000000 -0.000078 0.000000
# 2 0.000102 0.034203 -0.008803 0.000000 0.013103 0.000000
# 3 -0.002388 -0.008803 0.010760 0.000000 -0.000764 0.000000
# 4 0.000000 0.000000 0.000000 0.029064 0.000000 0.009471
# 5 -0.000078 0.013103 -0.000764 0.000000 0.024260 0.000000
# 6 0.000000 0.000000 0.000000 0.009471 0.000000 0.036171
#
#
# Mechanical properties :
#
#
# Convention : Reuss Voigt Hill
#
# Bulk Modulus (GPa) = 28.15364 44.83781 36.49573
# Shear Modulus (GPa) = 27.59289 37.16760 32.38024
#
# Velocity S-wave (km/s) = 3.28599 3.81373 3.55965
# Velocity P-wave (km/s) = 5.04124 6.07773 5.58359
#
# Compressibility (1/GPa) = 0.03551939
#
# Stress axis : x y z
#
# Youngs Moduli (GPa) = 78.54194 29.23712 92.93299
#
# Poissons Ratio (x) = -0.00300 0.22190
# Poissons Ratio (y) = -0.00805 0.81807
# Poissons Ratio (z) = 0.18754 0.25737
#
# Static dielectric constant tensor:
#      x y z
#    x 2.075850 0.000000 0.036510 
#    y 0.000000 2.025220 0.000000 
#    z 0.036510 0.000000 2.038740 
# 
# From -- ./inp_files/173693.got.cif
#   From: 2010.05.17/outbox.cif.g08.bks.cpg/sg15_87_cif.got.tgz:173693.got - 2010.06.03 18:47:42.
