data_PCOD9282710
_publ_section_title
;
Structure prediction by ZEFSAII (Michael W. Deem and Ramdas Pophale) SiO2 
 PCOD9282710
Probable space group: C 2/C
;
_chemical_formula_sum "Si O2"
_cell_formula_units_Z 48
_cell_length_a 11.489065
_cell_length_b 9.519431
_cell_length_c 18.195130
_cell_angle_alpha 90.000000
_cell_angle_beta 90.189049
_cell_angle_gamma 90.000000
_cell_volume 1989.978919
_symmetry_space_group_name_H-M "C 2/C"
_symmetry_group_IT_number 15
_symmetry_cell_setting 'monoclinic'
loop_
_space_group_symop_operation_xyz
x,y,z
-x,y,1/2-z
-x,-y,-z
x,-y,1/2+z
1/2+x,1/2+y,z
1/2-x,1/2+y,1/2-z
1/2-x,1/2-y,-z
1/2+x,1/2-y,1/2+z
loop_
_atom_site_type_symbol
_atom_site_label
_atom_site_fract_x
_atom_site_fract_y
_atom_site_fract_z
Si Si1 0.521095 0.371520 0.827732
Si Si2 0.168073 0.404475 0.296534
Si Si3 0.353002 0.318067 0.405755
Si Si4 0.061050 0.318216 0.828652
Si Si5 0.802885 0.046006 0.054157
Si Si6 0.306224 0.823463 0.357790
O O1 0.500000 0.448890 0.750000
O O2 0.607747 0.246305 0.803011
O O3 0.589786 0.458229 0.888601
O O4 0.409978 0.289068 0.860182
O O5 0.292175 0.392890 0.336018
O O6 0.086855 0.516123 0.337224
O O7 0.172679 0.433816 0.209522
O O8 0.476740 0.251738 0.387448
O O9 0.271794 0.184981 0.426273
O O10 0.348392 0.426867 0.472737
O O11 0.189202 0.254024 0.832432
O O12 0.000000 0.298883 0.750000
O O13 0.722322 0.911268 0.069350
#
# Coordination Sequence:
#
# PCOD9282710 Si02
#       6
#     8   8   8   8   8   8
#     4   9  20  38  60  91 118 162 214 258 315 367
#     4  10  21  39  64  88 124 160 212 266 305 377
#     4  10  22  42  62  96 118 168 212 253 324 370
#     4  12  23  39  63  91 127 163 212 263 312 376
#     4  10  22  40  66  86 130 160 210 265 306 386
#     4  11  23  37  61  92 122 165 211 258 317 371
#
# _framework density 24.12086
#
# number of rings (size 3 to 8) (size 9 to 14) (size 15 to 20)
#    0.000    1.667    1.667    3.500    4.667    4.000 
#    0.000    6.667    0.000    0.000    0.000    0.000 
#    0.000    0.000    0.000    0.000    0.000    0.000 
#
# Total GULP energy -134368.973047 kJ/mol
# GULP energy per Si atom -5598.707210 kJ/mol
# Density = 2.406596 g / cm^3
# Si number density = 24.120860 Si / 1000 Ang^3
#
#
#
# Elastic Constant Matrix: (Units=GPa)
#
#
# Indices 1 2 3 4 5 6 
#
# 1 111.4553 4.8726 22.2302 0.0000 -8.6451 0.0000
# 2 4.8726 56.8140 5.6357 0.0000 -6.8535 0.0000
# 3 22.2302 5.6357 33.3305 0.0000 -10.2641 0.0000
# 4 0.0000 0.0000 0.0000 21.9126 0.0000 -8.0512
# 5 -8.6451 -6.8535 -10.2641 0.0000 31.7670 0.0000
# 6 0.0000 0.0000 0.0000 -8.0512 0.0000 31.5405
#
#
#
# Elastic Compliance Matrix: (Units=1/GPa)
#
#
# Indices 1 2 3 4 5 6 
#
# 1 0.010362 -0.000149 -0.006694 0.000000 0.000625 0.000000
# 2 -0.000149 0.018202 -0.001978 0.000000 0.003247 0.000000
# 3 -0.006694 -0.001978 0.037878 0.000000 0.009990 0.000000
# 4 0.000000 0.000000 0.000000 0.050359 0.000000 0.012855
# 5 0.000625 0.003247 0.009990 0.000000 0.035578 0.000000
# 6 0.000000 0.000000 0.000000 0.012855 0.000000 0.034987
#
#
# Mechanical properties :
#
#
# Convention : Reuss Voigt Hill
#
# Bulk Modulus (GPa) = 20.49170 29.67519 25.08345
# Shear Modulus (GPa) = 22.59639 28.30144 25.44892
#
# Velocity S-wave (km/s) = 3.06404 3.42909 3.25169
# Velocity P-wave (km/s) = 4.58603 5.29222 4.95173
#
# Compressibility (1/GPa) = 0.04880024
#
# Stress axis : x y z
#
# Youngs Moduli (GPa) = 96.50390 54.93893 26.40062
#
# Poissons Ratio (x) = 0.00820 0.17671
# Poissons Ratio (y) = 0.01441 0.05222
# Poissons Ratio (z) = 0.64595 0.10868
#
# Static dielectric constant tensor:
#      x y z
#    x 1.927250 0.000000 0.000370 
#    y 0.000000 1.927100 0.000000 
#    z 0.000370 0.000000 1.929940 
# 
# From -- ./inp_files/196013.got.cif
#   From: 2010.05.17/outbox.cif.g08.bks.cpg/sg15_99_cif.got.tgz:196013.got - 2010.06.03 18:47:42.
