data_PCOD9282556
_publ_section_title
;
Structure prediction by ZEFSAII (Michael W. Deem and Ramdas Pophale) SiO2 
 PCOD9282556
Probable space group: C 2/C
;
_chemical_formula_sum "Si O2"
_cell_formula_units_Z 52
_cell_length_a 11.532528
_cell_length_b 8.907758
_cell_length_c 26.869707
_cell_angle_alpha 90.000000
_cell_angle_beta 80.181262
_cell_angle_gamma 90.000000
_cell_volume 2719.864949
_symmetry_space_group_name_H-M "C 2/C"
_symmetry_group_IT_number 15
_symmetry_cell_setting 'monoclinic'
loop_
_space_group_symop_operation_xyz
x,y,z
-x,y,1/2-z
-x,-y,-z
x,-y,1/2+z
1/2+x,1/2+y,z
1/2-x,1/2+y,1/2-z
1/2-x,1/2-y,-z
1/2+x,1/2-y,1/2+z
loop_
_atom_site_type_symbol
_atom_site_label
_atom_site_fract_x
_atom_site_fract_y
_atom_site_fract_z
Si Si1 0.070665 0.941793 0.821414
Si Si2 0.136506 0.977690 0.930852
Si Si3 0.990228 0.402810 0.174595
Si Si4 0.668397 0.946670 0.739159
Si Si5 0.094280 0.502684 0.064965
Si Si6 0.522128 0.751417 0.996612
Si Si7 0.000000 0.170691 0.750000
O O1 0.095048 0.981193 0.876866
O O2 0.195385 0.941304 0.783319
O O3 0.015308 0.776498 0.822774
O O4 0.993831 0.065407 0.798666
O O5 0.276271 0.962004 0.924485
O O6 0.098851 0.129204 0.961942
O O7 0.071452 0.840986 0.963502
O O8 0.096212 0.465557 0.201225
O O9 0.012186 0.459953 0.117485
O O10 0.871460 0.470351 0.207447
O O11 0.611648 0.781092 0.745476
O O12 0.043319 0.642127 0.038001
O O13 0.094971 0.360716 0.027547
#
# Coordination Sequence:
#
# PCOD9282556 Si02
#       7
#     8   8   8   8   8   8   4
#     4  12  22  40  63  89 124 159 197 247 307 352
#     4  11  23  39  65  91 121 161 199 254 303 356
#     4  10  21  39  63  88 121 158 199 247 300 361
#     4  10  23  42  60  86 122 157 204 248 295 364
#     4  11  21  43  64  88 123 162 201 248 307 356
#     4  10  24  41  62  91 123 156 208 252 298 359
#     4  10  24  38  60  90 116 158 202 242 290 364
#
# _framework density 19.118597000000001
#
# number of rings (size 3 to 8) (size 9 to 14) (size 15 to 20)
#    0.000    1.538    3.077    2.769    4.308    0.000 
#    0.000    1.538    0.000    0.000    0.000    0.000 
#    0.000    0.000    0.000    0.000    0.000    0.000 
#
# Total GULP energy -145304.748153 kJ/mol
# GULP energy per Si atom -5588.644160 kJ/mol
# Density = 1.907508 g / cm^3
# Si number density = 19.118597 Si / 1000 Ang^3
#
#
#
# Elastic Constant Matrix: (Units=GPa)
#
#
# Indices 1 2 3 4 5 6 
#
# 1 22.6269 5.0574 12.1720 0.0000 1.4784 0.0000
# 2 5.0574 67.4272 26.8766 0.0000 11.6629 0.0000
# 3 12.1720 26.8766 103.6452 0.0000 10.3533 0.0000
# 4 0.0000 0.0000 0.0000 10.1323 0.0000 5.6204
# 5 1.4784 11.6629 10.3533 0.0000 31.4524 0.0000
# 6 0.0000 0.0000 0.0000 5.6204 0.0000 8.4718
#
#
#
# Elastic Compliance Matrix: (Units=1/GPa)
#
#
# Indices 1 2 3 4 5 6 
#
# 1 0.047309 -0.001492 -0.005172 0.000000 0.000032 0.000000
# 2 -0.001492 0.017346 -0.003813 0.000000 -0.005107 0.000000
# 3 -0.005172 -0.003813 0.011456 0.000000 -0.002114 0.000000
# 4 0.000000 0.000000 0.000000 0.156164 0.000000 -0.103604
# 5 0.000032 -0.005107 -0.002114 0.000000 0.034382 0.000000
# 6 0.000000 0.000000 0.000000 -0.103604 0.000000 0.186772
#
#
# Mechanical properties :
#
#
# Convention : Reuss Voigt Hill
#
# Bulk Modulus (GPa) = 18.13041 31.32349 24.72695
# Shear Modulus (GPa) = 10.14676 19.98417 15.06547
#
# Velocity S-wave (km/s) = 2.30625 3.23658 2.81018
# Velocity P-wave (km/s) = 4.07375 5.51240 4.84675
#
# Compressibility (1/GPa) = 0.05515595
#
# Stress axis : x y z
#
# Youngs Moduli (GPa) = 21.13767 57.65083 87.29399
#
# Poissons Ratio (x) = 0.08604 0.45150
# Poissons Ratio (y) = 0.03155 0.33282
# Poissons Ratio (z) = 0.10933 0.21980
#
# Static dielectric constant tensor:
#      x y z
#    x 1.638770 0.000000 -0.004350 
#    y 0.000000 1.648880 0.000000 
#    z -0.004350 0.000000 1.649730 
# 
# From -- ./inp_files/291110.got.cif
#   From: 2010.05.17/outbox.cif.g08.bks.cpg/sg15_146_cif.got.tgz:291110.got - 2010.06.03 18:47:42.
