data_PCOD9282795
_publ_section_title
;
Structure prediction by ZEFSAII (Michael W. Deem and Ramdas Pophale) SiO2 
 PCOD9282795
Probable space group: C 2/C
;
_chemical_formula_sum "Si O2"
_cell_formula_units_Z 64
_cell_length_a 8.503208
_cell_length_b 12.355871
_cell_length_c 27.402093
_cell_angle_alpha 90.000000
_cell_angle_beta 77.059509
_cell_angle_gamma 90.000000
_cell_volume 2805.871178
_symmetry_space_group_name_H-M "C 2/C"
_symmetry_group_IT_number 15
_symmetry_cell_setting 'monoclinic'
loop_
_space_group_symop_operation_xyz
x,y,z
-x,y,1/2-z
-x,-y,-z
x,-y,1/2+z
1/2+x,1/2+y,z
1/2-x,1/2+y,1/2-z
1/2-x,1/2-y,-z
1/2+x,1/2-y,1/2+z
loop_
_atom_site_type_symbol
_atom_site_label
_atom_site_fract_x
_atom_site_fract_y
_atom_site_fract_z
Si Si1 0.889008 0.160423 0.982291
Si Si2 0.368596 0.420513 0.962999
Si Si3 0.356135 0.603767 0.137146
Si Si4 0.525580 0.212155 0.669210
Si Si5 0.081479 0.760990 0.126532
Si Si6 0.280513 0.434315 0.318151
Si Si7 0.721717 0.144348 0.384560
Si Si8 0.173330 0.545364 0.721297
O O1 0.930588 0.174102 0.922767
O O2 0.750000 0.250000 0.000000
O O3 0.048358 0.163293 0.005337
O O4 0.835205 0.034871 0.991445
O O5 0.507832 0.431313 0.910899
O O6 0.212541 0.389516 0.941668
O O7 0.422212 0.677739 0.177697
O O8 0.240358 0.686885 0.116821
O O9 0.253156 0.510454 0.169328
O O10 0.398860 0.119771 0.662814
O O11 0.661193 0.251007 0.622233
O O12 0.624675 0.166428 0.707899
O O13 0.095860 0.845795 0.169560
O O14 0.933342 0.680149 0.134523
O O15 0.288131 0.542496 0.349113
O O16 0.287447 0.455133 0.260193
O O17 0.000000 0.494671 0.750000
#
# Coordination Sequence:
#
# PCOD9282795 Si02
#       8
#     8   8   8   8   8   8   8   8
#     4  11  22  43  72  94 128 169 217 272 329 396
#     4  10  23  42  68  95 130 168 212 271 332 388
#     4  10  21  42  69  93 127 178 214 265 331 385
#     4   9  22  39  62  87 125 170 211 261 319 376
#     4  11  22  40  69  94 129 173 217 267 332 382
#     4  10  22  42  60  91 136 170 211 272 320 373
#     4  11  23  40  64  97 129 167 217 266 320 392
#     4  10  21  39  64  96 132 171 220 270 316 383
#
# _framework density 22.809314000000001
#
# number of rings (size 3 to 8) (size 9 to 14) (size 15 to 20)
#    0.000    1.750    2.500    1.500    1.750    4.500 
#    0.000    6.875    0.000    0.000    0.000    0.000 
#    0.000    0.000    0.000    0.000    0.000    0.000 
#
# Total GULP energy -178385.968899 kJ/mol
# GULP energy per Si atom -5574.561528 kJ/mol
# Density = 2.275740 g / cm^3
# Si number density = 22.809314 Si / 1000 Ang^3
#
#
#
# Elastic Constant Matrix: (Units=GPa)
#
#
# Indices 1 2 3 4 5 6 
#
# 1 61.4547 31.9548 11.9417 0.0000 23.7756 0.0000
# 2 31.9548 92.7509 23.4797 0.0000 13.1728 0.0000
# 3 11.9417 23.4797 84.1350 0.0000 34.5558 0.0000
# 4 0.0000 0.0000 0.0000 34.0914 0.0000 7.2845
# 5 23.7756 13.1728 34.5558 0.0000 40.9862 0.0000
# 6 0.0000 0.0000 0.0000 7.2845 0.0000 36.4213
#
#
#
# Elastic Compliance Matrix: (Units=1/GPa)
#
#
# Indices 1 2 3 4 5 6 
#
# 1 0.025973 -0.007918 0.005608 0.000000 -0.017250 0.000000
# 2 -0.007918 0.014078 -0.004334 0.000000 0.003723 0.000000
# 3 0.005608 -0.004334 0.019983 0.000000 -0.018708 0.000000
# 4 0.000000 0.000000 0.000000 0.030642 0.000000 -0.006129
# 5 -0.017250 0.003723 -0.018708 0.000000 0.048982 0.000000
# 6 0.000000 0.000000 0.000000 -0.006129 0.000000 0.028682
#
#
# Mechanical properties :
#
#
# Convention : Reuss Voigt Hill
#
# Bulk Modulus (GPa) = 21.39185 41.45479 31.42332
# Shear Modulus (GPa) = 25.35359 33.69739 29.52549
#
# Velocity S-wave (km/s) = 3.33760 3.84780 3.60175
# Velocity P-wave (km/s) = 4.92460 6.16074 5.57703
#
# Compressibility (1/GPa) = 0.04674678
#
# Stress axis : x y z
#
# Youngs Moduli (GPa) = 38.50083 71.03291 50.04281
#
# Poissons Ratio (x) = 0.56245 -0.28065
# Poissons Ratio (y) = 0.30486 0.21688
# Poissons Ratio (z) = -0.21592 0.30784
#
# Static dielectric constant tensor:
#      x y z
#    x 1.955550 0.000000 0.018100 
#    y 0.000000 1.851270 0.000000 
#    z 0.018100 0.000000 1.858210 
# 
# From -- ./inp_files/307503.got.cif
#   From: 2010.05.17/outbox.cif.g08.bks.cpg/sg15_154_cif.got.tgz:307503.got - 2010.06.03 18:47:42.
