data_PCOD9282494
_publ_section_title
;
Structure prediction by ZEFSAII (Michael W. Deem and Ramdas Pophale) SiO2 
 PCOD9282494
Probable space group: C 2/C
;
_chemical_formula_sum "Si O2"
_cell_formula_units_Z 36
_cell_length_a 15.585603
_cell_length_b 11.860953
_cell_length_c 16.828496
_cell_angle_alpha 90.000000
_cell_angle_beta 150.433734
_cell_angle_gamma 90.000000
_cell_volume 1535.019568
_symmetry_space_group_name_H-M "C 2/C"
_symmetry_group_IT_number 15
_symmetry_cell_setting 'monoclinic'
loop_
_space_group_symop_operation_xyz
x,y,z
-x,y,1/2-z
-x,-y,-z
x,-y,1/2+z
1/2+x,1/2+y,z
1/2-x,1/2+y,1/2-z
1/2-x,1/2-y,-z
1/2+x,1/2-y,1/2+z
loop_
_atom_site_type_symbol
_atom_site_label
_atom_site_fract_x
_atom_site_fract_y
_atom_site_fract_z
Si Si1 0.684433 0.109462 0.780898
Si Si2 0.030100 0.152463 0.602509
Si Si3 0.500000 0.302758 0.250000
Si Si4 0.421941 0.687530 0.107733
Si Si5 0.842354 0.366787 0.731073
O O1 0.786620 0.106670 0.779926
O O2 0.559543 0.217218 0.689541
O O3 0.585978 0.992269 0.717096
O O4 0.843302 0.116862 0.972237
O O5 0.988098 0.125318 0.660604
O O6 0.057737 0.288687 0.625817
O O7 0.861850 0.123293 0.416157
O O8 0.645066 0.211234 0.338147
O O9 0.500000 0.631065 0.250000
O O10 0.250000 0.750000 0.000000
#
# Coordination Sequence:
#
# PCOD9282494 Si02
#       5
#     8   8   4   8   8
#     4  11  21  40  65  93 127 170 211 269 316 382
#     4  10  21  39  62  93 126 166 214 263 316 372
#     4   8  22  38  62  82 130 162 214 254 316 362
#     4   9  21  38  60  89 128 167 212 260 316 383
#     4  10  22  39  65  86 127 176 207 260 323 375
#
# _framework density 23.452470000000002
#
# number of rings (size 3 to 8) (size 9 to 14) (size 15 to 20)
#    1.333    0.889    0.000    2.667    4.667    0.000 
#    2.000    8.889    4.889    0.000    0.000    0.000 
#    0.000    0.000    0.000    0.000    0.000    0.000 
#
# Total GULP energy -100205.853789 kJ/mol
# GULP energy per Si atom -5566.991877 kJ/mol
# Density = 2.339909 g / cm^3
# Si number density = 23.452470 Si / 1000 Ang^3
#
#
#
# Elastic Constant Matrix: (Units=GPa)
#
#
# Indices 1 2 3 4 5 6 
#
# 1 83.9101 -1.6465 9.1364 0.0002 14.6636 0.0000
# 2 -1.6465 103.8262 12.3371 0.0002 -13.8590 0.0000
# 3 9.1364 12.3371 56.5851 0.0004 5.9469 0.0001
# 4 0.0002 0.0002 0.0004 27.8597 0.0004 -5.8092
# 5 14.6636 -13.8590 5.9469 0.0004 29.2658 0.0001
# 6 0.0000 0.0000 0.0001 -5.8092 0.0001 12.2321
#
#
#
# Elastic Compliance Matrix: (Units=1/GPa)
#
#
# Indices 1 2 3 4 5 6 
#
# 1 0.013203 -0.000512 -0.001328 0.000000 -0.006588 0.000000
# 2 -0.000512 0.010759 -0.002887 0.000000 0.005938 0.000000
# 3 -0.001328 -0.002887 0.018996 0.000000 -0.004562 0.000000
# 4 0.000000 0.000000 0.000000 0.039839 -0.000001 0.018920
# 5 -0.006588 0.005938 -0.004562 -0.000001 0.041210 -0.000001
# 6 0.000000 0.000000 0.000000 0.018920 -0.000001 0.090738
#
#
# Mechanical properties :
#
#
# Convention : Reuss Voigt Hill
#
# Bulk Modulus (GPa) = 29.84730 31.55284 30.70007
# Shear Modulus (GPa) = 21.24338 28.83781 25.04060
#
# Velocity S-wave (km/s) = 3.01293 3.51041 3.27114
# Velocity P-wave (km/s) = 4.98578 5.46935 5.23315
#
# Compressibility (1/GPa) = 0.03350387
#
# Stress axis : x y z
#
# Youngs Moduli (GPa) = 75.73818 92.94469 52.64321
#
# Poissons Ratio (x) = 0.04761 0.06990
# Poissons Ratio (y) = 0.03880 0.15199
# Poissons Ratio (z) = 0.10056 0.26835
#
# Static dielectric constant tensor:
#      x y z
#    x 2.009700 0.000000 -0.047710 
#    y 0.000000 2.027530 0.000000 
#    z -0.047710 0.000000 1.884440 
# 
# From -- ./inp_files/248487.got.cif
#   From: 2010.05.17/outbox.cif.g08.bks.cpg/sg15_125_cif.got.tgz:248487.got - 2010.06.03 18:47:42.
