data_PCOD9282380
_publ_section_title
;
Structure prediction by ZEFSAII (Michael W. Deem and Ramdas Pophale) SiO2 
 PCOD9282380
Probable space group: C 2/C
;
_chemical_formula_sum "Si O2"
_cell_formula_units_Z 40
_cell_length_a 29.216414
_cell_length_b 7.620321
_cell_length_c 9.428300
_cell_angle_alpha 90.000000
_cell_angle_beta 98.324058
_cell_angle_gamma 90.000000
_cell_volume 2076.988271
_symmetry_space_group_name_H-M "C 2/C"
_symmetry_group_IT_number 15
_symmetry_cell_setting 'monoclinic'
loop_
_space_group_symop_operation_xyz
x,y,z
-x,y,1/2-z
-x,-y,-z
x,-y,1/2+z
1/2+x,1/2+y,z
1/2-x,1/2+y,1/2-z
1/2-x,1/2-y,-z
1/2+x,1/2-y,1/2+z
loop_
_atom_site_type_symbol
_atom_site_label
_atom_site_fract_x
_atom_site_fract_y
_atom_site_fract_z
Si Si1 0.102413 0.338017 0.023012
Si Si2 0.794571 0.316553 0.103742
Si Si3 0.535245 0.536268 0.890854
Si Si4 0.897463 0.291499 0.142672
Si Si5 0.294703 0.824226 0.440280
O O1 0.096079 0.348928 0.190265
O O2 0.153435 0.248397 0.025483
O O3 0.066427 0.204029 0.939495
O O4 0.097911 0.532858 0.952169
O O5 0.844108 0.221429 0.108792
O O6 0.784782 0.337908 0.267263
O O7 0.750000 0.250000 0.000000
O O8 0.802832 0.497301 0.027755
O O9 0.500000 0.574172 0.750000
O O10 0.567250 0.364798 0.877636
O O11 0.500000 0.500000 0.000000
O O12 0.250000 0.750000 0.500000
#
# Coordination Sequence:
#
# PCOD9282380 Si02
#       5
#     8   8   8   8   8
#     4  10  24  44  67  95 132 172 215 270 326 387
#     4  10  21  39  61  93 128 167 210 260 319 386
#     4  12  26  46  66  99 129 168 224 270 326 387
#     4  10  24  44  67  96 131 171 218 267 328 387
#     4  10  21  39  61  93 127 168 212 256 321 385
#
# _framework density 19.258655999999998
#
# number of rings (size 3 to 8) (size 9 to 14) (size 15 to 20)
#    0.000    1.600    2.000    1.200    5.600    3.200 
#    0.000    0.000    0.000    0.000    0.000    0.000 
#    0.000    0.000    0.000    0.000    0.000    0.000 
#
# Total GULP energy -111373.173079 kJ/mol
# GULP energy per Si atom -5568.658654 kJ/mol
# Density = 1.921482 g / cm^3
# Si number density = 19.258656 Si / 1000 Ang^3
#
#
#
# Elastic Constant Matrix: (Units=GPa)
#
#
# Indices 1 2 3 4 5 6 
#
# 1 143.2445 39.9042 79.1886 0.0000 8.7480 0.0000
# 2 39.9042 49.7397 25.7165 0.0000 3.6948 0.0000
# 3 79.1886 25.7165 148.9500 0.0000 8.9667 0.0000
# 4 0.0000 0.0000 0.0000 29.9917 0.0000 3.8586
# 5 8.7480 3.6948 8.9667 0.0000 39.3474 0.0000
# 6 0.0000 0.0000 0.0000 3.8586 0.0000 43.4474
#
#
#
# Elastic Compliance Matrix: (Units=1/GPa)
#
#
# Indices 1 2 3 4 5 6 
#
# 1 0.011660 -0.006713 -0.004991 0.000000 -0.000825 0.000000
# 2 -0.006713 0.025998 -0.000874 0.000000 -0.000749 0.000000
# 3 -0.004991 -0.000874 0.009577 0.000000 -0.000991 0.000000
# 4 0.000000 0.000000 0.000000 0.033728 0.000000 -0.002995
# 5 -0.000825 -0.000749 -0.000991 0.000000 0.025894 0.000000
# 6 0.000000 0.000000 0.000000 -0.002995 0.000000 0.023282
#
#
# Mechanical properties :
#
#
# Convention : Reuss Voigt Hill
#
# Bulk Modulus (GPa) = 45.29046 70.17253 57.73149
# Shear Modulus (GPa) = 30.73954 35.69896 33.21925
#
# Velocity S-wave (km/s) = 3.99951 4.31008 4.15770
# Velocity P-wave (km/s) = 6.70045 7.82848 7.28633
#
# Compressibility (1/GPa) = 0.02207971
#
# Stress axis : x y z
#
# Youngs Moduli (GPa) = 85.76006 38.46416 104.41167
#
# Poissons Ratio (x) = 0.25822 0.52107
# Poissons Ratio (y) = 0.57573 0.09130
# Poissons Ratio (z) = 0.42799 0.03364
#
# Static dielectric constant tensor:
#      x y z
#    x 1.809880 0.000000 -0.001400 
#    y 0.000000 1.605760 0.000000 
#    z -0.001400 0.000000 1.629190 
# 
# From -- ./inp_files/60068.got.cif
#   From: 2010.05.17/outbox.cif.g08.bks.cpg/sg15_31_cif.got.tgz:60068.got - 2010.06.03 18:47:42.
