data_PCOD9282284
_publ_section_title
;
Structure prediction by ZEFSAII (Michael W. Deem and Ramdas Pophale) SiO2 
 PCOD9282284
Probable space group: C 2/C
;
_chemical_formula_sum "Si O2"
_cell_formula_units_Z 40
_cell_length_a 7.722520
_cell_length_b 17.709660
_cell_length_c 14.567596
_cell_angle_alpha 90.000000
_cell_angle_beta 102.708500
_cell_angle_gamma 90.000000
_cell_volume 1943.503297
_symmetry_space_group_name_H-M "C 2/C"
_symmetry_group_IT_number 15
_symmetry_cell_setting 'monoclinic'
loop_
_space_group_symop_operation_xyz
x,y,z
-x,y,1/2-z
-x,-y,-z
x,-y,1/2+z
1/2+x,1/2+y,z
1/2-x,1/2+y,1/2-z
1/2-x,1/2-y,-z
1/2+x,1/2-y,1/2+z
loop_
_atom_site_type_symbol
_atom_site_label
_atom_site_fract_x
_atom_site_fract_y
_atom_site_fract_z
Si Si1 0.614349 0.526961 0.598968
Si Si2 0.500000 0.663453 0.250000
Si Si3 0.500000 0.630797 0.750000
Si Si4 0.121255 0.306986 0.179867
Si Si5 0.498607 0.054973 0.586254
Si Si6 0.182133 0.568378 0.235683
O O1 0.500000 0.500000 0.500000
O O2 0.510935 0.577185 0.661496
O O3 0.793153 0.567760 0.586722
O O4 0.698565 0.457060 0.664467
O O5 0.565094 0.719929 0.176411
O O6 0.326363 0.617263 0.198013
O O7 0.674891 0.681313 0.772440
O O8 0.000000 0.339053 0.250000
O O9 0.081902 0.361864 0.090219
O O10 0.500000 0.000000 0.500000
O O11 0.611574 0.006146 0.674211
O O12 0.000000 0.606340 0.250000
#
# Coordination Sequence:
#
# PCOD9282284 Si02
#       6
#     8   4   4   8   8   8
#     4  11  22  35  65 101 125 164 219 274 327 375
#     4  10  23  38  66  91 134 176 206 264 347 390
#     4  12  19  38  66  87 130 166 214 268 313 388
#     4  10  21  39  60  92 124 172 213 260 326 385
#     4  11  21  40  66  96 131 166 227 273 314 392
#     4  10  22  41  62  93 129 169 217 270 324 391
#
# _framework density 20.581389999999999
#
# number of rings (size 3 to 8) (size 9 to 14) (size 15 to 20)
#    0.600    0.800    4.000    2.400    4.200    0.000 
#    0.000    1.000    4.400    3.600    0.000    0.000 
#    0.000    0.000    0.000    0.000    0.000    0.000 
#
# Total GULP energy -111448.213177 kJ/mol
# GULP energy per Si atom -5572.410659 kJ/mol
# Density = 2.053455 g / cm^3
# Si number density = 20.581390 Si / 1000 Ang^3
#
#
#
# Elastic Constant Matrix: (Units=GPa)
#
#
# Indices 1 2 3 4 5 6 
#
# 1 163.0065 38.3145 21.2098 0.0000 27.1801 0.0000
# 2 38.3145 59.9856 10.9374 0.0000 19.6349 0.0000
# 3 21.2098 10.9374 92.9066 0.0000 22.2636 0.0000
# 4 0.0000 0.0000 0.0000 0.8861 0.0000 -0.8750
# 5 27.1801 19.6349 22.2636 0.0000 31.5986 0.0000
# 6 0.0000 0.0000 0.0000 -0.8750 0.0000 41.5654
#
#
#
# Elastic Compliance Matrix: (Units=1/GPa)
#
#
# Indices 1 2 3 4 5 6 
#
# 1 0.007700 -0.003473 -0.000336 0.000000 -0.004229 0.000000
# 2 -0.003473 0.022541 0.000938 0.000000 -0.011681 0.000000
# 3 -0.000336 0.000938 0.012994 0.000000 -0.009450 0.000000
# 4 0.000000 0.000000 0.000000 1.152522 0.000000 0.024261
# 5 -0.004229 -0.011681 -0.009450 0.000000 0.049201 0.000000
# 6 0.000000 0.000000 0.000000 0.024261 0.000000 0.024569
#
#
# Mechanical properties :
#
#
# Convention : Reuss Voigt Hill
#
# Bulk Modulus (GPa) = 26.67033 50.75802 38.71417
# Shear Modulus (GPa) = 3.88270 31.17249 17.52759
#
# Velocity S-wave (km/s) = 1.37499 3.89600 2.92142
# Velocity P-wave (km/s) = 3.93794 6.70478 5.49825
#
# Compressibility (1/GPa) = 0.03749485
#
# Stress axis : x y z
#
# Youngs Moduli (GPa) = 129.87429 44.36344 76.95783
#
# Poissons Ratio (x) = 0.15406 0.02583
# Poissons Ratio (y) = 0.45101 -0.07220
# Poissons Ratio (z) = 0.04359 -0.04162
#
# Static dielectric constant tensor:
#      x y z
#    x 1.812420 0.000000 -0.050260 
#    y 0.000000 1.784610 0.000000 
#    z -0.050260 0.000000 1.753190 
# 
# From -- ./inp_files/134642.got.cif
#   From: 2010.05.17/outbox.cif.g08.bks.cpg/sg15_68_cif.got.tgz:134642.got - 2010.06.03 18:47:42.
