data_PCOD9282625
_publ_section_title
;
Structure prediction by ZEFSAII (Michael W. Deem and Ramdas Pophale) SiO2 
 PCOD9282625
Probable space group: C 2/C
;
_chemical_formula_sum "Si O2"
_cell_formula_units_Z 48
_cell_length_a 16.064476
_cell_length_b 8.513141
_cell_length_c 17.267020
_cell_angle_alpha 90.000000
_cell_angle_beta 60.890651
_cell_angle_gamma 90.000000
_cell_volume 2063.158374
_symmetry_space_group_name_H-M "C 2/C"
_symmetry_group_IT_number 15
_symmetry_cell_setting 'monoclinic'
loop_
_space_group_symop_operation_xyz
x,y,z
-x,y,1/2-z
-x,-y,-z
x,-y,1/2+z
1/2+x,1/2+y,z
1/2-x,1/2+y,1/2-z
1/2-x,1/2-y,-z
1/2+x,1/2-y,1/2+z
loop_
_atom_site_type_symbol
_atom_site_label
_atom_site_fract_x
_atom_site_fract_y
_atom_site_fract_z
Si Si1 0.918650 0.023295 0.973915
Si Si2 0.349845 0.188454 0.420003
Si Si3 0.899696 0.830767 0.828448
Si Si4 0.286211 0.340492 0.126447
Si Si5 0.707557 0.630745 0.692772
Si Si6 0.389151 0.976541 0.532349
O O1 0.915115 0.894004 0.907965
O O2 0.923498 0.187844 0.926677
O O3 0.823578 0.996108 0.067479
O O4 0.000000 0.000000 0.000000
O O5 0.250000 0.250000 0.500000
O O6 0.340134 0.225767 0.333644
O O7 0.372573 0.024774 0.450394
O O8 0.818086 0.704103 0.854495
O O9 0.000000 0.778617 0.750000
O O10 0.857733 0.981095 0.800275
O O11 0.290245 0.348614 0.216907
O O12 0.354112 0.197380 0.068538
O O13 0.814507 0.588448 0.613703
O O14 0.500000 0.000000 0.500000
#
# Coordination Sequence:
#
# PCOD9282625 Si02
#       6
#     8   8   8   8   8   8
#     4  11  22  39  66  92 122 168 209 256 321 391
#     4   9  20  39  62  86 120 163 204 246 308 381
#     4  10  22  39  60  92 127 164 214 264 314 380
#     4  11  23  40  64  96 128 162 212 271 320 372
#     4   9  21  40  62  89 126 170 210 254 316 394
#     4  10  21  39  63  93 125 161 210 269 321 374
#
# _framework density 23.265301999999998
#
# number of rings (size 3 to 8) (size 9 to 14) (size 15 to 20)
#    0.000    2.000    0.000    3.500    0.000   10.667 
#    0.000    0.000    0.000    2.000    0.000    1.167 
#    0.000    0.000    0.000    0.000    0.000    0.000 
#
# Total GULP energy -134238.820591 kJ/mol
# GULP energy per Si atom -5593.284191 kJ/mol
# Density = 2.321235 g / cm^3
# Si number density = 23.265302 Si / 1000 Ang^3
#
#
#
# Elastic Constant Matrix: (Units=GPa)
#
#
# Indices 1 2 3 4 5 6 
#
# 1 172.8149 45.1697 58.4626 0.0000 7.2235 0.0000
# 2 45.1697 70.5184 58.8161 0.0000 18.4828 0.0000
# 3 58.4626 58.8161 130.1559 0.0000 37.9636 0.0000
# 4 0.0000 0.0000 0.0000 23.0054 0.0000 1.9210
# 5 7.2235 18.4828 37.9636 0.0000 55.3442 0.0000
# 6 0.0000 0.0000 0.0000 1.9210 0.0000 16.3195
#
#
#
# Elastic Compliance Matrix: (Units=1/GPa)
#
#
# Indices 1 2 3 4 5 6 
#
# 1 0.007347 -0.003187 -0.002363 0.000000 0.001727 0.000000
# 2 -0.003187 0.024162 -0.009069 0.000000 -0.001432 0.000000
# 3 -0.002363 -0.009069 0.014838 0.000000 -0.006841 0.000000
# 4 0.000000 0.000000 0.000000 0.043899 0.000000 -0.005168
# 5 0.001727 -0.001432 -0.006841 0.000000 0.023014 0.000000
# 6 0.000000 0.000000 0.000000 -0.005168 0.000000 0.061885
#
#
# Mechanical properties :
#
#
# Convention : Reuss Voigt Hill
#
# Bulk Modulus (GPa) = 58.45409 77.59844 68.02626
# Shear Modulus (GPa) = 23.79957 33.00322 28.40139
#
# Velocity S-wave (km/s) = 3.20185 3.77046 3.49773
# Velocity P-wave (km/s) = 6.23287 7.23749 6.75389
#
# Compressibility (1/GPa) = 0.01710744
#
# Stress axis : x y z
#
# Youngs Moduli (GPa) = 136.11005 41.38766 67.39331
#
# Poissons Ratio (x) = 0.13192 0.15927
# Poissons Ratio (y) = 0.43384 0.61119
# Poissons Ratio (z) = 0.32167 0.37535
#
# Static dielectric constant tensor:
#      x y z
#    x 1.930550 0.000000 -0.007860 
#    y 0.000000 1.987720 0.000000 
#    z -0.007860 0.000000 1.868010 
# 
# From -- ./inp_files/151862.got.cif
#   From: 2010.05.17/outbox.cif.g08.bks.cpg/sg15_76_cif.got.tgz:151862.got - 2010.06.03 18:47:42.
