data_PCOD9282745
_publ_section_title
;
Structure prediction by ZEFSAII (Michael W. Deem and Ramdas Pophale) SiO2 
 PCOD9282745
Probable space group: C 2/C
;
_chemical_formula_sum "Si O2"
_cell_formula_units_Z 56
_cell_length_a 16.916365
_cell_length_b 23.878185
_cell_length_c 14.585337
_cell_angle_alpha 90.000000
_cell_angle_beta 150.203641
_cell_angle_gamma 90.000000
_cell_volume 2927.590098
_symmetry_space_group_name_H-M "C 2/C"
_symmetry_group_IT_number 15
_symmetry_cell_setting 'monoclinic'
loop_
_space_group_symop_operation_xyz
x,y,z
-x,y,1/2-z
-x,-y,-z
x,-y,1/2+z
1/2+x,1/2+y,z
1/2-x,1/2+y,1/2-z
1/2-x,1/2-y,-z
1/2+x,1/2-y,1/2+z
loop_
_atom_site_type_symbol
_atom_site_label
_atom_site_fract_x
_atom_site_fract_y
_atom_site_fract_z
Si Si1 0.700701 0.916796 0.377085
Si Si2 0.753504 0.480638 0.249144
Si Si3 0.158072 0.487994 0.958718
Si Si4 0.556956 0.591130 0.011476
Si Si5 0.000000 0.124964 0.250000
Si Si6 0.531287 0.799630 0.176444
Si Si7 0.675881 0.686058 0.265846
Si Si8 0.500000 0.567528 0.750000
O O1 0.658507 0.957345 0.251381
O O2 0.890827 0.911753 0.574875
O O3 0.632442 0.855940 0.289590
O O4 0.658226 0.946416 0.430117
O O5 0.846964 0.479877 0.438154
O O6 0.687142 0.542507 0.161534
O O7 0.605783 0.438175 0.118160
O O8 0.000000 0.463612 0.750000
O O9 0.333172 0.466097 0.101360
O O10 0.604370 0.646756 0.114520
O O11 0.535292 0.599705 0.880495
O O12 0.112685 0.160785 0.298277
O O13 0.500000 0.780225 0.250000
O O14 0.617725 0.750236 0.208630
O O15 0.365525 0.813907 0.961374
#
# Coordination Sequence:
#
# PCOD9282745 Si02
#       8
#     8   8   8   8   4   8   8   4
#     4  12  23  38  60  90 129 164 206 264 312 376
#     4  10  22  37  61  94 126 168 212 250 322 382
#     4  11  24  38  58  90 131 170 207 255 311 381
#     4  10  21  39  64  92 122 168 211 260 318 382
#     4  12  21  36  60  84 122 164 198 259 314 374
#     4  12  25  40  60  93 128 167 210 256 320 383
#     4  12  24  41  63  88 127 164 214 259 316 380
#     4  10  21  44  64  88 126 168 214 261 318 372
#
# _framework density 19.128360000000001
#
# number of rings (size 3 to 8) (size 9 to 14) (size 15 to 20)
#    0.000    0.857    5.000    3.000    4.000    1.714 
#    0.000    0.000    0.000    0.857    1.857    0.000 
#    0.000    0.000    0.000    0.000    0.000    0.000 
#
# Total GULP energy -156360.304580 kJ/mol
# GULP energy per Si atom -5584.296592 kJ/mol
# Density = 1.908482 g / cm^3
# Si number density = 19.128360 Si / 1000 Ang^3
#
#
#
# Elastic Constant Matrix: (Units=GPa)
#
#
# Indices 1 2 3 4 5 6 
#
# 1 57.8976 36.8313 48.5568 0.0000 -26.2450 0.0000
# 2 36.8313 110.2877 60.2380 0.0000 -17.9174 0.0000
# 3 48.5568 60.2380 160.9913 0.0000 -12.7654 0.0000
# 4 0.0000 0.0000 0.0000 16.7375 0.0000 -8.2765
# 5 -26.2450 -17.9174 -12.7654 0.0000 39.7571 0.0000
# 6 0.0000 0.0000 0.0000 -8.2765 0.0000 20.3161
#
#
#
# Elastic Compliance Matrix: (Units=1/GPa)
#
#
# Indices 1 2 3 4 5 6 
#
# 1 0.034677 -0.004608 -0.007270 0.000000 0.018481 0.000000
# 2 -0.004608 0.012618 -0.003203 0.000000 0.001616 0.000000
# 3 -0.007270 -0.003203 0.009346 0.000000 -0.003242 0.000000
# 4 0.000000 0.000000 0.000000 0.074818 0.000000 0.030480
# 5 0.018481 0.001616 -0.003242 0.000000 0.037040 0.000000
# 6 0.000000 0.000000 0.000000 0.030480 0.000000 0.061639
#
#
# Mechanical properties :
#
#
# Convention : Reuss Voigt Hill
#
# Bulk Modulus (GPa) = 37.76485 68.93654 53.35069
# Shear Modulus (GPa) = 18.57862 27.59885 23.08873
#
# Velocity S-wave (km/s) = 3.11989 3.80257 3.47802
# Velocity P-wave (km/s) = 5.72398 7.44289 6.63930
#
# Compressibility (1/GPa) = 0.02647965
#
# Stress axis : x y z
#
# Youngs Moduli (GPa) = 28.83740 79.25017 107.00125
#
# Poissons Ratio (x) = 0.36516 0.77785
# Poissons Ratio (y) = 0.13287 0.34277
# Poissons Ratio (z) = 0.20964 0.25388
#
# Static dielectric constant tensor:
#      x y z
#    x 1.720100 0.000000 0.046070 
#    y 0.000000 1.662680 0.000000 
#    z 0.046070 0.000000 1.716830 
# 
# From -- ./inp_files/51497.got.cif
#   From: 2010.05.17/outbox.cif.g08.bks.cpg/sg15_26_cif.got.tgz:51497.got - 2010.06.03 18:47:42.
