data_PCOD9282810
_publ_section_title
;
Structure prediction by ZEFSAII (Michael W. Deem and Ramdas Pophale) SiO2 
 PCOD9282810
Probable space group: C 2/C
;
_chemical_formula_sum "Si O2"
_cell_formula_units_Z 56
_cell_length_a 22.787028
_cell_length_b 13.471241
_cell_length_c 9.739115
_cell_angle_alpha 90.000000
_cell_angle_beta 61.167501
_cell_angle_gamma 90.000000
_cell_volume 2618.999355
_symmetry_space_group_name_H-M "C 2/C"
_symmetry_group_IT_number 15
_symmetry_cell_setting 'monoclinic'
loop_
_space_group_symop_operation_xyz
x,y,z
-x,y,1/2-z
-x,-y,-z
x,-y,1/2+z
1/2+x,1/2+y,z
1/2-x,1/2+y,1/2-z
1/2-x,1/2-y,-z
1/2+x,1/2-y,1/2+z
loop_
_atom_site_type_symbol
_atom_site_label
_atom_site_fract_x
_atom_site_fract_y
_atom_site_fract_z
Si Si1 0.388907 0.294254 0.273391
Si Si2 0.321053 0.859462 0.651419
Si Si3 0.624074 0.202320 0.679813
Si Si4 0.500000 0.679323 0.250000
Si Si5 0.669999 0.345936 0.872435
Si Si6 0.070868 0.984985 0.851817
Si Si7 0.926575 0.539766 0.549196
Si Si8 0.500000 0.836500 0.750000
O O1 0.345602 0.235250 0.211613
O O2 0.353703 0.291230 0.462368
O O3 0.402021 0.409915 0.229997
O O4 0.460408 0.237319 0.193615
O O5 0.321260 0.832412 0.490736
O O6 0.246472 0.880286 0.787998
O O7 0.372471 0.951705 0.604980
O O8 0.561519 0.242768 0.656853
O O9 0.655631 0.276861 0.756260
O O10 0.595327 0.114700 0.806876
O O11 0.450931 0.600093 0.229896
O O12 0.622540 0.440035 0.901669
O O13 0.000000 0.000000 0.000000
O O14 0.942821 0.598656 0.389229
O O15 0.000000 0.500000 0.500000
#
# Coordination Sequence:
#
# PCOD9282810 Si02
#       8
#     8   8   8   4   8   8   8   4
#     4  12  25  45  73 105 140 184 235 295 350 421
#     4  12  27  44  69  99 145 190 235 285 354 422
#     4  11  24  43  70  99 139 184 235 292 349 417
#     4  10  21  39  64  98 128 166 227 283 342 398
#     4  11  26  47  68 103 140 189 233 289 355 424
#     4  11  23  41  71 101 135 173 228 288 350 408
#     4  12  24  43  70 103 143 187 238 291 351 418
#     4  12  23  45  72 106 140 182 239 293 358 412
#
# _framework density 21.382211000000002
#
# number of rings (size 3 to 8) (size 9 to 14) (size 15 to 20)
#    0.000    0.571    2.857    5.571    2.000    3.429 
#    0.000    0.000    0.000    0.000    0.000    0.000 
#    0.000    0.000    0.000    0.000    0.000    0.000 
#
# Total GULP energy -156172.014732 kJ/mol
# GULP energy per Si atom -5577.571955 kJ/mol
# Density = 2.133354 g / cm^3
# Si number density = 21.382211 Si / 1000 Ang^3
#
#
#
# Elastic Constant Matrix: (Units=GPa)
#
#
# Indices 1 2 3 4 5 6 
#
# 1 82.4335 31.6166 50.8419 0.0000 -18.2916 0.0000
# 2 31.6166 87.3925 52.7271 0.0000 -4.7066 0.0000
# 3 50.8419 52.7271 104.9233 0.0000 -9.1159 0.0000
# 4 0.0000 0.0000 0.0000 27.0698 0.0000 2.4191
# 5 -18.2916 -4.7066 -9.1159 0.0000 33.9261 0.0000
# 6 0.0000 0.0000 0.0000 2.4191 0.0000 26.8269
#
#
#
# Elastic Compliance Matrix: (Units=1/GPa)
#
#
# Indices 1 2 3 4 5 6 
#
# 1 0.019458 -0.001922 -0.007755 0.000000 0.008140 0.000000
# 2 -0.001922 0.016611 -0.007481 0.000000 -0.000742 0.000000
# 3 -0.007755 -0.007481 0.016991 0.000000 -0.000654 0.000000
# 4 0.000000 0.000000 0.000000 0.037242 0.000000 -0.003358
# 5 0.008140 -0.000742 -0.000654 0.000000 0.033586 0.000000
# 6 0.000000 0.000000 0.000000 -0.003358 0.000000 0.037579
#
#
# Mechanical properties :
#
#
# Convention : Reuss Voigt Hill
#
# Bulk Modulus (GPa) = 53.35017 60.56895 56.95956
# Shear Modulus (GPa) = 24.74860 26.86882 25.80871
#
# Velocity S-wave (km/s) = 3.40581 3.54870 3.47799
# Velocity P-wave (km/s) = 6.36168 6.72155 6.54409
#
# Compressibility (1/GPa) = 0.01874408
#
# Stress axis : x y z
#
# Youngs Moduli (GPa) = 51.39375 60.19926 58.85330
#
# Poissons Ratio (x) = 0.11569 0.45643
# Poissons Ratio (y) = 0.09877 0.44028
# Poissons Ratio (z) = 0.39858 0.45035
#
# Static dielectric constant tensor:
#      x y z
#    x 1.775050 0.000000 0.029350 
#    y 0.000000 1.751950 0.000000 
#    z 0.029350 0.000000 1.825310 
# 
# From -- ./inp_files/61871.got.cif
#   From: 2010.05.17/outbox.cif.g08.bks.cpg/sg15_31_cif.got.tgz:61871.got - 2010.06.03 18:47:42.
