data_PCOD9282252
_publ_section_title
;
Structure prediction by ZEFSAII (Michael W. Deem and Ramdas Pophale) SiO2 
 PCOD9282252
Probable space group: C 2/C
;
_chemical_formula_sum "Si O2"
_cell_formula_units_Z 32
_cell_length_a 18.452812
_cell_length_b 14.956398
_cell_length_c 11.508900
_cell_angle_alpha 90.000000
_cell_angle_beta 154.298993
_cell_angle_gamma 90.000000
_cell_volume 1377.487592
_symmetry_space_group_name_H-M "C 2/C"
_symmetry_group_IT_number 15
_symmetry_cell_setting 'monoclinic'
loop_
_space_group_symop_operation_xyz
x,y,z
-x,y,1/2-z
-x,-y,-z
x,-y,1/2+z
1/2+x,1/2+y,z
1/2-x,1/2+y,1/2-z
1/2-x,1/2-y,-z
1/2+x,1/2-y,1/2+z
loop_
_atom_site_type_symbol
_atom_site_label
_atom_site_fract_x
_atom_site_fract_y
_atom_site_fract_z
Si Si1 0.660273 0.639465 0.201422
Si Si2 0.570321 0.735277 0.480300
Si Si3 0.309831 0.834148 0.511693
Si Si4 0.612281 0.518073 0.812880
O O1 0.828756 0.671754 0.384418
O O2 0.665765 0.562150 0.305593
O O3 0.585407 0.727355 0.156575
O O4 0.525759 0.594373 0.922349
O O5 0.699502 0.667228 0.732466
O O6 0.500000 0.718501 0.250000
O O7 0.500000 0.825708 0.750000
O O8 0.250000 0.750000 0.500000
O O9 0.275438 0.920014 0.542994
O O10 0.500000 0.474053 0.750000
#
# Coordination Sequence:
#
# PCOD9282252 Si02
#       4
#     8   8   8   8
#     4  10  22  38  60  88 121 162 202 251 308 365
#     4  11  22  38  61  89 121 159 204 248 304 368
#     4  11  22  39  64  92 122 161 207 255 305 363
#     4  10  21  39  60  87 124 160 201 254 309 360
#
# _framework density 23.230699000000001
#
# number of rings (size 3 to 8) (size 9 to 14) (size 15 to 20)
#    0.000    1.500    0.000    6.750    0.000    1.000 
#    0.000    0.000    0.000   15.000    0.000    0.000 
#    0.000    0.000    0.000    0.000    0.000    0.000 
#
# Total GULP energy -89077.066148 kJ/mol
# GULP energy per Si atom -5567.316634 kJ/mol
# Density = 2.317782 g / cm^3
# Si number density = 23.230699 Si / 1000 Ang^3
#
#
#
# Elastic Constant Matrix: (Units=GPa)
#
#
# Indices 1 2 3 4 5 6 
#
# 1 83.4415 49.4272 29.5662 0.0000 14.8427 0.0000
# 2 49.4272 106.4044 18.0404 0.0000 27.0254 0.0000
# 3 29.5662 18.0404 82.8533 0.0000 5.3227 0.0000
# 4 0.0000 0.0000 0.0000 14.7159 0.0000 11.8831
# 5 14.8427 27.0254 5.3227 0.0000 41.4468 0.0000
# 6 0.0000 0.0000 0.0000 11.8831 0.0000 -22.4124
#
#
#
# Elastic Compliance Matrix: (Units=1/GPa)
#
#
# Indices 1 2 3 4 5 6 
#
# 1 0.018272 -0.007386 -0.004841 0.000000 -0.001106 0.000000
# 2 -0.007386 0.014587 -0.000100 0.000000 -0.006853 0.000000
# 3 -0.004841 -0.000100 0.013817 0.000000 0.000024 0.000000
# 4 0.000000 0.000000 0.000000 0.047582 0.000000 0.025228
# 5 -0.001106 -0.006853 0.000024 0.000000 0.028989 0.000000
# 6 0.000000 0.000000 0.000000 0.025228 0.000000 -0.031242
#
#
# Mechanical properties :
#
#
# Convention : Reuss Voigt Hill
#
# Bulk Modulus (GPa) = 45.41044 51.86299 48.63671
# Shear Modulus (GPa) = 40.32296 18.46110 29.39203
#
# Velocity S-wave (km/s) = 4.17077 2.82207 3.56086
# Velocity P-wave (km/s) = 6.54093 5.74391 6.15533
#
# Compressibility (1/GPa) = 0.02202137
#
# Stress axis : x y z
#
# Youngs Moduli (GPa) = 54.72990 68.55551 72.37333
#
# Poissons Ratio (x) = 0.50635 0.35036
# Poissons Ratio (y) = 0.40423 0.00725
# Poissons Ratio (z) = 0.26494 0.00687
#
# Static dielectric constant tensor:
#      x y z
#    x 2.042490 0.000000 -0.053730 
#    y 0.000000 1.885690 0.000000 
#    z -0.053730 0.000000 1.960430 
# 
# From -- ./inp_files/27909.got.cif
#   From: 2010.05.17/outbox.cif.g08.bks.cpg/sg15_14_cif.got.tgz:27909.got - 2010.06.03 18:47:42.
