data_PCOD9282568
_publ_section_title
;
Structure prediction by ZEFSAII (Michael W. Deem and Ramdas Pophale) SiO2 
 PCOD9282568
Probable space group: C 2/C
;
_chemical_formula_sum "Si O2"
_cell_formula_units_Z 60
_cell_length_a 7.846023
_cell_length_b 12.105765
_cell_length_c 26.768681
_cell_angle_alpha 90.000000
_cell_angle_beta 73.514255
_cell_angle_gamma 90.000000
_cell_volume 2438.022695
_symmetry_space_group_name_H-M "C 2/C"
_symmetry_group_IT_number 15
_symmetry_cell_setting 'monoclinic'
loop_
_space_group_symop_operation_xyz
x,y,z
-x,y,1/2-z
-x,-y,-z
x,-y,1/2+z
1/2+x,1/2+y,z
1/2-x,1/2+y,1/2-z
1/2-x,1/2-y,-z
1/2+x,1/2-y,1/2+z
loop_
_atom_site_type_symbol
_atom_site_label
_atom_site_fract_x
_atom_site_fract_y
_atom_site_fract_z
Si Si1 0.682192 0.341006 0.175792
Si Si2 0.500000 0.982587 0.250000
Si Si3 0.182854 0.578957 0.323580
Si Si4 0.262767 0.694664 0.712518
Si Si5 0.310907 0.953041 0.909761
Si Si6 0.781121 0.720117 0.562195
Si Si7 0.886390 0.396033 0.491008
Si Si8 0.937465 0.998834 0.946905
O O1 0.710755 0.472369 0.168105
O O2 0.747693 0.305463 0.225593
O O3 0.472783 0.320587 0.187002
O O4 0.784411 0.282882 0.122274
O O5 0.630514 0.057406 0.270568
O O6 0.370730 0.902312 0.292225
O O7 0.281936 0.694595 0.313958
O O8 0.990866 0.573720 0.365763
O O9 0.288479 0.841528 0.945004
O O10 0.116191 0.970715 0.901838
O O11 0.338523 0.064732 0.939122
O O12 0.653437 0.615819 0.559605
O O13 0.977965 0.703870 0.523716
O O14 0.714407 0.403571 0.540615
O O15 0.000000 0.500000 0.500000
O O16 0.000000 0.000000 0.000000
#
# Coordination Sequence:
#
# PCOD9282568 Si02
#       8
#     8   4   8   8   8   8   8   8
#     4  10  21  39  63  89 122 163 202 248 301 359
#     4  10  24  38  62  88 122 162 198 256 296 356
#     4  11  22  39  63  89 126 162 202 248 305 357
#     4  10  22  41  60  89 122 158 206 243 303 359
#     4  11  22  37  64  93 119 165 202 250 307 360
#     4  11  21  39  65  89 125 160 204 256 296 370
#     4   9  20  40  62  85 124 158 203 252 307 363
#     4   9  22  40  60  91 123 158 206 253 305 367
#
# _framework density 24.610108
#
# number of rings (size 3 to 8) (size 9 to 14) (size 15 to 20)
#    0.000    1.867    2.667    0.800    1.867    7.467 
#    0.000    6.667    0.000    0.000    0.000    0.000 
#    0.000    0.000    0.000    0.000    0.000    0.000 
#
# Total GULP energy -167515.434348 kJ/mol
# GULP energy per Si atom -5583.847812 kJ/mol
# Density = 2.455409 g / cm^3
# Si number density = 24.610108 Si / 1000 Ang^3
#
#
#
# Elastic Constant Matrix: (Units=GPa)
#
#
# Indices 1 2 3 4 5 6 
#
# 1 43.0035 11.5595 2.9170 0.0000 -3.1368 0.0000
# 2 11.5595 96.7634 14.8755 0.0000 -6.5385 0.0000
# 3 2.9170 14.8755 59.4558 0.0000 -15.0100 0.0000
# 4 0.0000 0.0000 0.0000 25.6992 0.0000 -11.0994
# 5 -3.1368 -6.5385 -15.0100 0.0000 21.3777 0.0000
# 6 0.0000 0.0000 0.0000 -11.0994 0.0000 39.0989
#
#
#
# Elastic Compliance Matrix: (Units=1/GPa)
#
#
# Indices 1 2 3 4 5 6 
#
# 1 0.024182 -0.002729 0.000221 0.000000 0.002868 0.000000
# 2 -0.002729 0.011107 -0.002295 0.000000 0.001385 0.000000
# 3 0.000221 -0.002295 0.020922 0.000000 0.014020 0.000000
# 4 0.000000 0.000000 0.000000 0.044349 0.000000 0.012590
# 5 0.002868 0.001385 0.014020 0.000000 0.057466 0.000000
# 6 0.000000 0.000000 0.000000 0.012590 0.000000 0.029150
#
#
# Mechanical properties :
#
#
# Convention : Reuss Voigt Hill
#
# Bulk Modulus (GPa) = 21.45761 28.65853 25.05807
# Shear Modulus (GPa) = 23.54952 28.55987 26.05469
#
# Velocity S-wave (km/s) = 3.09674 3.41030 3.25730
# Velocity P-wave (km/s) = 4.63944 5.21317 4.93465
#
# Compressibility (1/GPa) = 0.04660352
#
# Stress axis : x y z
#
# Youngs Moduli (GPa) = 41.35356 90.03384 47.79601
#
# Poissons Ratio (x) = 0.24569 -0.01054
# Poissons Ratio (y) = 0.11285 0.10971
# Poissons Ratio (z) = -0.00912 0.20666
#
# Static dielectric constant tensor:
#      x y z
#    x 1.984930 0.000000 0.022210 
#    y 0.000000 1.957430 0.000000 
#    z 0.022210 0.000000 2.054160 
# 
# From -- ./inp_files/307170.got.cif
#   From: 2010.05.17/outbox.cif.g08.bks.cpg/sg15_154_cif.got.tgz:307170.got - 2010.06.03 18:47:42.
