data_PCOD9282875
_publ_section_title
;
Structure prediction by ZEFSAII (Michael W. Deem and Ramdas Pophale) SiO2 
 PCOD9282875
Probable space group: C 2/C
;
_chemical_formula_sum "Si O2"
_cell_formula_units_Z 32
_cell_length_a 19.052890
_cell_length_b 6.702092
_cell_length_c 9.291465
_cell_angle_alpha 90.000000
_cell_angle_beta 71.588292
_cell_angle_gamma 90.000000
_cell_volume 1125.732946
_symmetry_space_group_name_H-M "C 2/C"
_symmetry_group_IT_number 15
_symmetry_cell_setting 'monoclinic'
loop_
_space_group_symop_operation_xyz
x,y,z
-x,y,1/2-z
-x,-y,-z
x,-y,1/2+z
1/2+x,1/2+y,z
1/2-x,1/2+y,1/2-z
1/2-x,1/2-y,-z
1/2+x,1/2-y,1/2+z
loop_
_atom_site_type_symbol
_atom_site_label
_atom_site_fract_x
_atom_site_fract_y
_atom_site_fract_z
Si Si1 0.832752 0.506340 0.994158
Si Si2 0.243185 0.137930 0.781477
Si Si3 0.458983 0.257312 0.469255
Si Si4 0.909389 0.022366 0.733721
O O1 0.802644 0.698761 0.098760
O O2 0.794345 0.326938 0.108345
O O3 0.918861 0.446577 0.949948
O O4 0.799292 0.533495 0.857850
O O5 0.175702 0.019826 0.750533
O O6 0.444385 0.323805 0.642029
O O7 0.543367 0.295775 0.368442
O O8 0.419496 0.429507 0.394782
#
# Coordination Sequence:
#
# PCOD9282875 Si02
#       4
#     8   8   8   8
#     4  11  24  41  64  95 130 168 219 273 328 389
#     4  11  23  40  66  95 126 170 218 274 330 387
#     4  10  22  41  63  93 131 171 215 265 326 397
#     4  10  21  39  65  92 127 171 214 265 328 390
#
# _framework density 28.425926
#
# number of rings (size 3 to 8) (size 9 to 14) (size 15 to 20)
#    0.000    1.500    0.000    4.500    0.000    6.000 
#    0.000    0.000    0.000    3.000    0.000    0.000 
#    0.000    2.000    0.000    0.000    0.000    0.000 
#
# Total GULP energy -89466.429484 kJ/mol
# GULP energy per Si atom -5591.651843 kJ/mol
# Density = 2.836123 g / cm^3
# Si number density = 28.425926 Si / 1000 Ang^3
#
#
#
# Elastic Constant Matrix: (Units=GPa)
#
#
# Indices 1 2 3 4 5 6 
#
# 1 146.2433 25.7172 13.0857 0.0000 -9.8318 0.0000
# 2 25.7172 71.5414 15.6125 0.0000 12.1158 0.0000
# 3 13.0857 15.6125 123.8724 0.0000 22.5583 0.0000
# 4 0.0000 0.0000 0.0000 40.6448 0.0000 4.8149
# 5 -9.8318 12.1158 22.5583 0.0000 54.2488 0.0000
# 6 0.0000 0.0000 0.0000 4.8149 0.0000 64.8667
#
#
#
# Elastic Compliance Matrix: (Units=1/GPa)
#
#
# Indices 1 2 3 4 5 6 
#
# 1 0.007595 -0.002946 -0.000867 0.000000 0.002395 0.000000
# 2 -0.002946 0.015880 -0.001025 0.000000 -0.003654 0.000000
# 3 -0.000867 -0.001025 0.008959 0.000000 -0.003654 0.000000
# 4 0.000000 0.000000 0.000000 0.024822 0.000000 -0.001842
# 5 0.002395 -0.003654 -0.003654 0.000000 0.021203 0.000000
# 6 0.000000 0.000000 0.000000 -0.001842 0.000000 0.015553
#
#
# Mechanical properties :
#
#
# Convention : Reuss Voigt Hill
#
# Bulk Modulus (GPa) = 43.94290 50.05422 46.99856
# Shear Modulus (GPa) = 44.93453 51.10150 48.01802
#
# Velocity S-wave (km/s) = 3.98019 4.24454 4.11449
# Velocity P-wave (km/s) = 6.05102 6.45510 6.25632
#
# Compressibility (1/GPa) = 0.02275680
#
# Stress axis : x y z
#
# Youngs Moduli (GPa) = 131.67139 62.97394 111.62033
#
# Poissons Ratio (x) = 0.18555 0.09678
# Poissons Ratio (y) = 0.38796 0.11437
# Poissons Ratio (z) = 0.11417 0.06453
#
# Static dielectric constant tensor:
#      x y z
#    x 2.118430 0.000000 0.018360 
#    y 0.000000 2.489230 0.000000 
#    z 0.018360 0.000000 2.117560 
# 
# From -- ./inp_files/53423.got.cif
#   From: 2010.05.17/outbox.cif.g08.bks.cpg/sg15_27_cif.got.tgz:53423.got - 2010.06.03 18:47:42.
