data_PCOD9282934
_publ_section_title
;
Structure prediction by ZEFSAII (Michael W. Deem and Ramdas Pophale) SiO2 
 PCOD9282934
Probable space group: C 2/C
;
_chemical_formula_sum "Si O2"
_cell_formula_units_Z 40
_cell_length_a 10.924218
_cell_length_b 11.083128
_cell_length_c 14.004938
_cell_angle_alpha 90.000000
_cell_angle_beta 103.377658
_cell_angle_gamma 90.000000
_cell_volume 1649.631726
_symmetry_space_group_name_H-M "C 2/C"
_symmetry_group_IT_number 15
_symmetry_cell_setting 'monoclinic'
loop_
_space_group_symop_operation_xyz
x,y,z
-x,y,1/2-z
-x,-y,-z
x,-y,1/2+z
1/2+x,1/2+y,z
1/2-x,1/2+y,1/2-z
1/2-x,1/2-y,-z
1/2+x,1/2-y,1/2+z
loop_
_atom_site_type_symbol
_atom_site_label
_atom_site_fract_x
_atom_site_fract_y
_atom_site_fract_z
Si Si1 0.500000 0.866350 0.250000
Si Si2 0.200828 0.127994 0.036999
Si Si3 0.000000 0.016652 0.250000
Si Si4 0.234385 0.518288 0.262423
Si Si5 0.463417 0.700320 0.075744
Si Si6 0.134229 0.568763 0.037208
O O1 0.532321 0.793950 0.160193
O O2 0.627462 0.937668 0.291970
O O3 0.237107 0.120252 0.154832
O O4 0.050608 0.138393 0.012333
O O5 0.250000 0.250000 0.000000
O O6 0.262078 0.013130 0.997544
O O7 0.128786 0.957149 0.233825
O O8 0.941242 0.098921 0.153295
O O9 0.170639 0.566733 0.154878
O O10 0.374798 0.794961 0.004250
O O11 0.000000 0.500000 0.000000
#
# Coordination Sequence:
#
# PCOD9282934 Si02
#       6
#     4   8   4   8   8   8
#     4  11  18  38  72  97 130 184 235 284 346 425
#     4  11  21  38  64  97 140 174 230 296 351 418
#     4   9  24  42  62  93 144 182 225 296 366 421
#     4  11  22  39  67  99 134 181 235 290 355 434
#     4  10  21  39  65  97 133 182 229 294 357 423
#     4  12  21  38  70 101 134 184 240 296 361 424
#
# _framework density 24.247836
#
# number of rings (size 3 to 8) (size 9 to 14) (size 15 to 20)
#    0.000    1.200    6.000    0.000    0.000    0.800 
#    0.000    4.000   17.600    0.000    0.000    0.000 
#    0.000    0.000    0.000    0.000    0.000    0.000 
#
# Total GULP energy -111562.205768 kJ/mol
# GULP energy per Si atom -5578.110288 kJ/mol
# Density = 2.419265 g / cm^3
# Si number density = 24.247836 Si / 1000 Ang^3
#
#
#
# Elastic Constant Matrix: (Units=GPa)
#
#
# Indices 1 2 3 4 5 6 
#
# 1 173.3126 78.3106 22.2936 0.0000 -13.4242 0.0000
# 2 78.3106 65.8833 29.4631 0.0000 -0.4335 0.0000
# 3 22.2936 29.4631 136.0505 0.0000 7.1578 0.0000
# 4 0.0000 0.0000 0.0000 27.9355 0.0000 1.3907
# 5 -13.4242 -0.4335 7.1578 0.0000 37.3998 0.0000
# 6 0.0000 0.0000 0.0000 1.3907 0.0000 29.4468
#
#
#
# Elastic Compliance Matrix: (Units=1/GPa)
#
#
# Indices 1 2 3 4 5 6 
#
# 1 0.013348 -0.016337 0.001120 0.000000 0.004387 0.000000
# 2 -0.016337 0.036833 -0.005064 0.000000 -0.004468 0.000000
# 3 0.001120 -0.005064 0.008329 0.000000 -0.001251 0.000000
# 4 0.000000 0.000000 0.000000 0.035881 0.000000 -0.001695
# 5 0.004387 -0.004468 -0.001251 0.000000 0.028500 0.000000
# 6 0.000000 0.000000 0.000000 -0.001695 0.000000 0.034040
#
#
# Mechanical properties :
#
#
# Convention : Reuss Voigt Hill
#
# Bulk Modulus (GPa) = 55.72205 70.59791 63.15998
# Shear Modulus (GPa) = 24.57288 35.30168 29.93728
#
# Velocity S-wave (km/s) = 3.18686 3.81972 3.51755
# Velocity P-wave (km/s) = 6.04744 6.97367 6.52700
#
# Compressibility (1/GPa) = 0.01794622
#
# Stress axis : x y z
#
# Youngs Moduli (GPa) = 74.91957 27.14975 120.05920
#
# Poissons Ratio (x) = 0.44356 -0.13447
# Poissons Ratio (y) = 1.22399 0.60802
# Poissons Ratio (z) = -0.08391 0.13750
#
# Static dielectric constant tensor:
#      x y z
#    x 2.525690 0.000000 -0.238620 
#    y 0.000000 1.958870 0.000000 
#    z -0.238620 0.000000 2.133780 
# 
# From -- ./inp_files/141955.got.cif
#   From: 2010.05.17/outbox.cif.g08.bks.cpg/sg15_71_cif.got.tgz:141955.got - 2010.06.03 18:47:42.
