data_PCOD9282759
_publ_section_title
;
Structure prediction by ZEFSAII (Michael W. Deem and Ramdas Pophale) SiO2 
 PCOD9282759
Probable space group: C 2/C
;
_chemical_formula_sum "Si O2"
_cell_formula_units_Z 64
_cell_length_a 9.559667
_cell_length_b 27.160867
_cell_length_c 26.040097
_cell_angle_alpha 90.000000
_cell_angle_beta 150.438974
_cell_angle_gamma 90.000000
_cell_volume 3335.680054
_symmetry_space_group_name_H-M "C 2/C"
_symmetry_group_IT_number 15
_symmetry_cell_setting 'monoclinic'
loop_
_space_group_symop_operation_xyz
x,y,z
-x,y,1/2-z
-x,-y,-z
x,-y,1/2+z
1/2+x,1/2+y,z
1/2-x,1/2+y,1/2-z
1/2-x,1/2-y,-z
1/2+x,1/2-y,1/2+z
loop_
_atom_site_type_symbol
_atom_site_label
_atom_site_fract_x
_atom_site_fract_y
_atom_site_fract_z
Si Si1 0.241152 0.504621 0.705214
Si Si2 0.727654 0.583117 0.697215
Si Si3 0.285048 0.431140 0.810104
Si Si4 0.885115 0.002696 0.521599
Si Si5 0.916321 0.173406 0.781051
Si Si6 0.168156 0.681875 0.252186
Si Si7 0.631188 0.761811 0.405550
Si Si8 0.757587 0.237309 0.443210
O O1 0.500000 0.515018 0.750000
O O2 0.184310 0.549831 0.725766
O O3 0.309565 0.459143 0.764390
O O4 0.950661 0.491904 0.584293
O O5 0.534314 0.547161 0.600348
O O6 0.580828 0.630538 0.675621
O O7 0.000000 0.596843 0.750000
O O8 0.533443 0.451365 0.925116
O O9 0.259940 0.373560 0.792315
O O10 0.000000 0.446914 0.750000
O O11 0.000000 0.000000 0.500000
O O12 0.596678 0.194603 0.672912
O O13 0.000000 0.157647 0.750000
O O14 0.120801 0.217637 0.866283
O O15 0.444051 0.714552 0.329946
O O16 0.000000 0.699251 0.250000
O O17 0.939450 0.690851 0.134540
O O18 0.750000 0.750000 0.500000
O O19 0.915622 0.771509 0.465356
O O20 0.750000 0.250000 0.500000
#
# Coordination Sequence:
#
# PCOD9282759 Si02
#       8
#     8   8   8   8   8   8   8   8
#     4  11  23  43  64  94 133 165 207 273 327 379
#     4  11  24  41  66  99 126 171 221 261 323 393
#     4  10  21  39  64  93 124 168 217 256 314 389
#     4  11  20  43  69  89 130 173 209 268 327 385
#     4  11  24  43  64  96 137 167 218 275 322 393
#     4  10  21  40  64  93 126 166 220 261 309 392
#     4  11  20  42  68  88 125 177 213 256 331 385
#     4  11  24  42  64  95 129 169 214 272 322 378
#
# _framework density 19.186492000000001
#
# number of rings (size 3 to 8) (size 9 to 14) (size 15 to 20)
#    0.000    1.250    5.000    1.875    1.750    5.500 
#    6.750    0.000    0.000    0.000    0.000    0.000 
#    0.000    0.000    0.000    0.000    0.000    0.000 
#
# Total GULP energy -178631.860749 kJ/mol
# GULP energy per Si atom -5582.245648 kJ/mol
# Density = 1.914282 g / cm^3
# Si number density = 19.186492 Si / 1000 Ang^3
#
#
#
# Elastic Constant Matrix: (Units=GPa)
#
#
# Indices 1 2 3 4 5 6 
#
# 1 113.6864 30.2878 47.0116 0.0006 2.1673 0.0006
# 2 30.2878 93.3021 25.0977 -0.0012 -3.2547 -0.0007
# 3 47.0116 25.0977 109.2354 -0.0091 7.5353 -0.0013
# 4 0.0006 -0.0012 -0.0091 6.5275 -0.0010 2.3293
# 5 2.1673 -3.2547 7.5353 -0.0010 34.6285 0.0011
# 6 0.0006 -0.0007 -0.0013 2.3293 0.0011 25.4969
#
#
#
# Elastic Compliance Matrix: (Units=1/GPa)
#
#
# Indices 1 2 3 4 5 6 
#
# 1 0.011221 -0.002499 -0.004254 -0.000007 -0.000011 0.000000
# 2 -0.002499 0.012076 -0.001816 0.000000 0.001686 0.000000
# 3 -0.004254 -0.001816 0.011570 0.000016 -0.002422 -0.000001
# 4 -0.000007 0.000000 0.000016 0.158360 0.000002 -0.014467
# 5 -0.000011 0.001686 -0.002422 0.000002 0.029564 -0.000002
# 6 0.000000 0.000000 -0.000001 -0.014467 -0.000002 0.040542
#
#
# Mechanical properties :
#
#
# Convention : Reuss Voigt Hill
#
# Bulk Modulus (GPa) = 56.40194 57.89089 57.14641
# Shear Modulus (GPa) = 17.45924 27.58572 22.52248
#
# Velocity S-wave (km/s) = 3.01985 3.79590 3.42990
# Velocity P-wave (km/s) = 6.45135 7.03208 6.74796
#
# Compressibility (1/GPa) = 0.01772989
#
# Stress axis : x y z
#
# Youngs Moduli (GPa) = 89.11607 82.80752 86.43229
#
# Poissons Ratio (x) = 0.20691 0.36772
# Poissons Ratio (y) = 0.22267 0.15693
# Poissons Ratio (z) = 0.37914 0.15034
#
# Static dielectric constant tensor:
#      x y z
#    x 1.677760 0.000000 0.001600 
#    y 0.000000 1.686200 0.000000 
#    z 0.001600 0.000000 1.659420 
# 
# From -- ./inp_files/266767.got.cif
#   From: 2010.05.17/outbox.cif.g08.bks.cpg/sg15_134_cif.got.tgz:266767.got - 2010.06.03 18:47:42.
