data_PCOD9282793
_publ_section_title
;
Structure prediction by ZEFSAII (Michael W. Deem and Ramdas Pophale) SiO2 
 PCOD9282793
Probable space group: C 2/C
;
_chemical_formula_sum "Si O2"
_cell_formula_units_Z 56
_cell_length_a 18.017934
_cell_length_b 5.085485
_cell_length_c 27.741533
_cell_angle_alpha 90.000000
_cell_angle_beta 103.165331
_cell_angle_gamma 90.000000
_cell_volume 2475.144353
_symmetry_space_group_name_H-M "C 2/C"
_symmetry_group_IT_number 15
_symmetry_cell_setting 'monoclinic'
loop_
_space_group_symop_operation_xyz
x,y,z
-x,y,1/2-z
-x,-y,-z
x,-y,1/2+z
1/2+x,1/2+y,z
1/2-x,1/2+y,1/2-z
1/2-x,1/2-y,-z
1/2+x,1/2-y,1/2+z
loop_
_atom_site_type_symbol
_atom_site_label
_atom_site_fract_x
_atom_site_fract_y
_atom_site_fract_z
Si Si1 0.716437 0.969686 0.945434
Si Si2 0.835945 0.779985 0.353793
Si Si3 0.704018 0.161924 0.252709
Si Si4 0.419232 0.640007 0.098989
Si Si5 0.916987 0.711287 0.901574
Si Si6 0.192206 0.085313 0.853604
Si Si7 0.371235 0.626901 0.496330
O O1 0.721565 0.743666 0.905168
O O2 0.802507 0.064477 0.968073
O O3 0.652990 0.168540 0.917682
O O4 0.679249 0.861585 0.989023
O O5 0.851671 0.735969 0.299252
O O6 0.889458 0.585144 0.391502
O O7 0.751630 0.655255 0.351923
O O8 0.856853 0.079454 0.369615
O O9 0.774795 0.357752 0.250509
O O10 0.686769 0.238935 0.304808
O O11 0.502047 0.761786 0.112201
O O12 0.393304 0.489218 0.142878
O O13 0.416893 0.472731 0.049162
O O14 0.920183 0.785830 0.958351
#
# Coordination Sequence:
#
# PCOD9282793 Si02
#       7
#     8   8   8   8   8   8   8
#     4  10  21  39  64  96 126 172 224 272 328 381
#     4  11  24  44  68  97 129 172 223 269 333 391
#     4  10  22  40  71 103 124 161 223 279 324 382
#     4  11  25  39  64  95 137 176 220 267 335 395
#     4  12  26  42  67  95 140 178 214 273 328 400
#     4  10  22  41  69  94 127 168 220 280 322 393
#     4  10  22  39  62  96 127 176 228 270 320 389
#
# _framework density 22.624942999999998
#
# number of rings (size 3 to 8) (size 9 to 14) (size 15 to 20)
#    0.000    1.429    1.429    3.429   10.000    0.571 
#    0.000    0.714    0.000    0.000    0.000    0.000 
#    0.000    0.000    0.000    0.000    0.000    0.000 
#
# Total GULP energy -156340.919269 kJ/mol
# GULP energy per Si atom -5583.604260 kJ/mol
# Density = 2.257345 g / cm^3
# Si number density = 22.624943 Si / 1000 Ang^3
#
#
#
# Elastic Constant Matrix: (Units=GPa)
#
#
# Indices 1 2 3 4 5 6 
#
# 1 103.1897 -0.5937 25.4037 0.0000 -27.1291 0.0001
# 2 -0.5937 46.7514 10.8889 -0.0002 -6.6665 0.0003
# 3 25.4037 10.8889 97.9687 0.0000 -38.6427 0.0000
# 4 0.0000 -0.0002 0.0000 34.7878 0.0000 -3.8496
# 5 -27.1291 -6.6665 -38.6427 0.0000 23.3886 0.0000
# 6 0.0001 0.0003 0.0000 -3.8496 0.0000 14.8230
#
#
#
# Elastic Compliance Matrix: (Units=1/GPa)
#
#
# Indices 1 2 3 4 5 6 
#
# 1 0.016921 0.003168 0.009641 0.000000 0.036459 0.000000
# 2 0.003168 0.022889 0.001887 0.000000 0.013317 0.000000
# 3 0.009641 0.001887 0.034799 0.000000 0.069217 0.000000
# 4 0.000000 0.000000 0.000000 0.029596 0.000000 0.007686
# 5 0.036459 0.013317 0.069217 0.000000 0.203201 0.000000
# 6 0.000000 0.000000 0.000000 0.007686 0.000000 0.069459
#
#
# Mechanical properties :
#
#
# Convention : Reuss Voigt Hill
#
# Bulk Modulus (GPa) = 9.61513 35.47864 22.54688
# Shear Modulus (GPa) = 13.08418 28.74727 20.91573
#
# Velocity S-wave (km/s) = 2.40741 3.56842 3.04378
# Velocity P-wave (km/s) = 3.46216 5.71781 4.72652
#
# Compressibility (1/GPa) = 0.10400279
#
# Stress axis : x y z
#
# Youngs Moduli (GPa) = 59.09853 43.68838 28.73616
#
# Poissons Ratio (x) = -0.13842 -0.27705
# Poissons Ratio (y) = -0.18724 -0.05423
# Poissons Ratio (z) = -0.56978 -0.08245
#
# Static dielectric constant tensor:
#      x y z
#    x 1.823280 0.000000 0.007080 
#    y 0.000000 1.947180 0.000000 
#    z 0.007080 0.000000 1.905120 
# 
# From -- ./inp_files/297790.got.cif
#   From: 2010.05.17/outbox.cif.g08.bks.cpg/sg15_149_cif.got.tgz:297790.got - 2010.06.03 18:47:42.
