data_PCOD9282736
_publ_section_title
;
Structure prediction by ZEFSAII (Michael W. Deem and Ramdas Pophale) SiO2 
 PCOD9282736
Probable space group: C 2/C
;
_chemical_formula_sum "Si O2"
_cell_formula_units_Z 60
_cell_length_a 14.564529
_cell_length_b 13.617044
_cell_length_c 22.987810
_cell_angle_alpha 90.000000
_cell_angle_beta 143.487406
_cell_angle_gamma 90.000000
_cell_volume 2712.648110
_symmetry_space_group_name_H-M "C 2/C"
_symmetry_group_IT_number 15
_symmetry_cell_setting 'monoclinic'
loop_
_space_group_symop_operation_xyz
x,y,z
-x,y,1/2-z
-x,-y,-z
x,-y,1/2+z
1/2+x,1/2+y,z
1/2-x,1/2+y,1/2-z
1/2-x,1/2-y,-z
1/2+x,1/2-y,1/2+z
loop_
_atom_site_type_symbol
_atom_site_label
_atom_site_fract_x
_atom_site_fract_y
_atom_site_fract_z
Si Si1 0.125305 0.270005 0.887751
Si Si2 0.971679 0.251980 0.089503
Si Si3 0.208115 0.656894 0.239440
Si Si4 0.293518 0.036803 0.939114
Si Si5 0.000000 0.906005 0.250000
Si Si6 0.182253 0.547127 0.336992
Si Si7 0.752636 0.583398 0.526893
Si Si8 0.068516 0.649572 0.045391
O O1 0.065968 0.166744 0.832015
O O2 0.191570 0.345758 0.873416
O O3 0.963911 0.313913 0.828038
O O4 0.250000 0.250000 0.000000
O O5 0.155134 0.236244 0.183771
O O6 0.899034 0.342327 0.090049
O O7 0.889474 0.150953 0.066312
O O8 0.921495 0.264301 0.996245
O O9 0.238580 0.565634 0.299435
O O10 0.183040 0.645663 0.157838
O O11 0.152087 0.030119 0.821906
O O12 0.399285 0.944036 0.978200
O O13 0.394910 0.133128 0.979821
O O14 0.257515 0.011927 0.987543
O O15 0.260571 0.462296 0.415503
O O16 0.000000 0.522503 0.250000
#
# Coordination Sequence:
#
# PCOD9282736 Si02
#       8
#     8   8   8   8   4   8   8   8
#     4  11  22  38  61  91 127 165 209 261 329 385
#     4  10  24  42  67  94 133 172 222 266 322 392
#     4  11  22  38  64  94 128 165 214 271 318 386
#     4  10  22  38  66  88 126 167 213 265 329 380
#     4  12  20  36  62  92 114 162 212 258 308 394
#     4  10  21  39  64  91 126 168 213 265 324 390
#     4  10  22  45  64  93 129 178 216 265 324 390
#     4  10  22  42  59  92 131 168 207 272 327 381
#
# _framework density 22.118607000000001
#
# number of rings (size 3 to 8) (size 9 to 14) (size 15 to 20)
#    0.000    1.600    2.000    4.000    3.733    1.600 
#    0.000    1.333    0.000    0.000    0.000    0.000 
#    0.000    0.000    0.000    0.000    0.000    0.000 
#
# Total GULP energy -167098.763702 kJ/mol
# GULP energy per Si atom -5569.958790 kJ/mol
# Density = 2.206826 g / cm^3
# Si number density = 22.118607 Si / 1000 Ang^3
#
#
#
# Elastic Constant Matrix: (Units=GPa)
#
#
# Indices 1 2 3 4 5 6 
#
# 1 47.3501 8.6000 19.2051 0.0000 -10.2364 0.0000
# 2 8.6000 39.2237 2.7310 0.0000 6.0162 0.0000
# 3 19.2051 2.7310 104.6230 0.0000 -3.3842 0.0000
# 4 0.0000 0.0000 0.0000 19.6510 0.0000 0.0830
# 5 -10.2364 6.0162 -3.3842 0.0000 33.3898 0.0000
# 6 0.0000 0.0000 0.0000 0.0830 0.0000 18.9730
#
#
#
# Elastic Compliance Matrix: (Units=1/GPa)
#
#
# Indices 1 2 3 4 5 6 
#
# 1 0.025981 -0.006737 -0.004311 0.000000 0.008742 0.000000
# 2 -0.006737 0.028040 0.000275 0.000000 -0.007090 0.000000
# 3 -0.004311 0.000275 0.010332 0.000000 -0.000324 0.000000
# 4 0.000000 0.000000 0.000000 0.050889 0.000000 -0.000223
# 5 0.008742 -0.007090 -0.000324 0.000000 0.033874 0.000000
# 6 0.000000 0.000000 0.000000 -0.000223 0.000000 0.052708
#
#
# Mechanical properties :
#
#
# Convention : Reuss Voigt Hill
#
# Bulk Modulus (GPa) = 23.35991 28.02989 25.69490
# Shear Modulus (GPa) = 21.04038 25.11346 23.07692
#
# Velocity S-wave (km/s) = 3.08758 3.37322 3.23356
# Velocity P-wave (km/s) = 4.82649 5.27935 5.05799
#
# Compressibility (1/GPa) = 0.04280838
#
# Stress axis : x y z
#
# Youngs Moduli (GPa) = 38.48927 35.66297 96.78918
#
# Poissons Ratio (x) = 0.24027 0.41722
# Poissons Ratio (y) = 0.25931 -0.02666
# Poissons Ratio (z) = 0.16591 -0.00982
#
# Static dielectric constant tensor:
#      x y z
#    x 1.985020 0.000000 0.025790 
#    y 0.000000 1.876290 0.000000 
#    z 0.025790 0.000000 1.888700 
# 
# From -- ./inp_files/277582.got.cif
#   From: 2010.05.17/outbox.cif.g08.bks.cpg/sg15_139_cif.got.tgz:277582.got - 2010.06.03 18:47:42.
