data_PCOD9282522
_publ_section_title
;
Structure prediction by ZEFSAII (Michael W. Deem and Ramdas Pophale) SiO2 
 PCOD9282522
Probable space group: C 2/C
;
_chemical_formula_sum "Si O2"
_cell_formula_units_Z 44
_cell_length_a 10.118469
_cell_length_b 22.004742
_cell_length_c 14.815133
_cell_angle_alpha 90.000000
_cell_angle_beta 38.101283
_cell_angle_gamma 90.000000
_cell_volume 2035.445407
_symmetry_space_group_name_H-M "C 2/C"
_symmetry_group_IT_number 15
_symmetry_cell_setting 'monoclinic'
loop_
_space_group_symop_operation_xyz
x,y,z
-x,y,1/2-z
-x,-y,-z
x,-y,1/2+z
1/2+x,1/2+y,z
1/2-x,1/2+y,1/2-z
1/2-x,1/2-y,-z
1/2+x,1/2-y,1/2+z
loop_
_atom_site_type_symbol
_atom_site_label
_atom_site_fract_x
_atom_site_fract_y
_atom_site_fract_z
Si Si1 0.500000 0.328428 0.750000
Si Si2 0.577784 0.569285 0.356056
Si Si3 0.967024 0.378574 0.868143
Si Si4 0.639858 0.688186 0.763844
Si Si5 0.000959 0.066805 0.892556
Si Si6 0.451255 0.228470 0.035026
O O1 0.493611 0.374488 0.667750
O O2 0.286239 0.287735 0.870053
O O3 0.834336 0.575955 0.226597
O O4 0.476223 0.570709 0.510851
O O5 0.529046 0.502085 0.346353
O O6 0.986823 0.325557 0.929450
O O7 0.000000 0.352518 0.750000
O O8 0.739346 0.410584 0.997908
O O9 0.500000 0.701962 0.750000
O O10 0.658020 0.615630 0.762486
O O11 0.531731 0.711127 0.914344
O O12 0.863648 0.723890 0.638339
#
# Coordination Sequence:
#
# PCOD9282522 Si02
#       6
#     4   8   8   8   8   8
#     4  10  24  44  66  86 130 176 212 254 326 398
#     4   9  21  39  64  92 127 170 210 264 319 394
#     4   9  18  36  62  86 122 163 208 266 314 371
#     4  12  25  40  66  96 127 165 218 277 316 376
#     4  10  21  39  62  96 127 161 218 267 325 371
#     4  11  25  41  62  95 125 170 214 262 322 375
#
# _framework density 21.616890999999999
#
# number of rings (size 3 to 8) (size 9 to 14) (size 15 to 20)
#    0.000    1.818    1.818    1.091    8.909    2.182 
#    0.000    5.455    0.000    0.000    0.000    0.000 
#    0.000    0.000    0.000    0.000    0.000    0.000 
#
# Total GULP energy -123000.444082 kJ/mol
# GULP energy per Si atom -5590.929276 kJ/mol
# Density = 2.156769 g / cm^3
# Si number density = 21.616891 Si / 1000 Ang^3
#
#
#
# Elastic Constant Matrix: (Units=GPa)
#
#
# Indices 1 2 3 4 5 6 
#
# 1 73.7016 12.0448 15.7309 0.0002 -8.8545 0.0000
# 2 12.0448 83.0209 6.8933 0.0001 -3.5263 0.0000
# 3 15.7309 6.8933 60.9981 0.0013 0.5014 -0.0002
# 4 0.0002 0.0001 0.0013 26.3377 -0.0005 10.4115
# 5 -8.8545 -3.5263 0.5014 -0.0005 26.5499 0.0001
# 6 0.0000 0.0000 -0.0002 10.4115 0.0001 18.5757
#
#
#
# Elastic Compliance Matrix: (Units=1/GPa)
#
#
# Indices 1 2 3 4 5 6 
#
# 1 0.015244 -0.001688 -0.003781 0.000000 0.004931 0.000000
# 2 -0.001688 0.012418 -0.000977 0.000000 0.001105 0.000000
# 3 -0.003781 -0.000977 0.017494 -0.000001 -0.001721 0.000001
# 4 0.000000 0.000000 -0.000001 0.048776 0.000001 -0.027338
# 5 0.004931 0.001105 -0.001721 0.000001 0.039489 -0.000001
# 6 0.000000 0.000000 0.000001 -0.027338 -0.000001 0.069157
#
#
# Mechanical properties :
#
#
# Convention : Reuss Voigt Hill
#
# Bulk Modulus (GPa) = 30.99537 31.89540 31.44538
# Shear Modulus (GPa) = 22.10211 26.49610 24.29911
#
# Velocity S-wave (km/s) = 3.20104 3.50482 3.35637
# Velocity P-wave (km/s) = 5.29451 5.58258 5.44045
#
# Compressibility (1/GPa) = 0.03226289
#
# Stress axis : x y z
#
# Youngs Moduli (GPa) = 65.60165 80.52737 57.16378
#
# Poissons Ratio (x) = 0.13594 0.21613
# Poissons Ratio (y) = 0.11075 0.05585
# Poissons Ratio (z) = 0.24804 0.07868
#
# Static dielectric constant tensor:
#      x y z
#    x 1.807920 0.000000 0.037500 
#    y 0.000000 1.749190 0.000000 
#    z 0.037500 0.000000 1.833740 
# 
# From -- ./inp_files/200727.got.cif
#   From: 2010.05.17/outbox.cif.g08.bks.cpg/sg15_101_cif.got.tgz:200727.got - 2010.06.03 18:47:42.
