data_PCOD9282586
_publ_section_title
;
Structure prediction by ZEFSAII (Michael W. Deem and Ramdas Pophale) SiO2 
 PCOD9282586
Probable space group: C 2/C
;
_chemical_formula_sum "Si O2"
_cell_formula_units_Z 56
_cell_length_a 18.596739
_cell_length_b 13.271977
_cell_length_c 12.512111
_cell_angle_alpha 90.000000
_cell_angle_beta 76.984527
_cell_angle_gamma 90.000000
_cell_volume 3008.845196
_symmetry_space_group_name_H-M "C 2/C"
_symmetry_group_IT_number 15
_symmetry_cell_setting 'monoclinic'
loop_
_space_group_symop_operation_xyz
x,y,z
-x,y,1/2-z
-x,-y,-z
x,-y,1/2+z
1/2+x,1/2+y,z
1/2-x,1/2+y,1/2-z
1/2-x,1/2-y,-z
1/2+x,1/2-y,1/2+z
loop_
_atom_site_type_symbol
_atom_site_label
_atom_site_fract_x
_atom_site_fract_y
_atom_site_fract_z
Si Si1 0.334130 0.625036 0.129726
Si Si2 0.915025 0.818029 0.814588
Si Si3 0.339205 0.890748 0.823791
Si Si4 0.922554 0.938222 0.031134
Si Si5 0.082827 0.407429 0.252595
Si Si6 0.948619 0.248659 0.663915
Si Si7 0.083611 0.319379 0.487732
O O1 0.362859 0.634034 0.241853
O O2 0.246723 0.634319 0.151726
O O3 0.359947 0.520122 0.071582
O O4 0.377139 0.713486 0.052784
O O5 0.902447 0.697198 0.815701
O O6 0.000000 0.830673 0.750000
O O7 0.908919 0.873670 0.928961
O O8 0.383200 0.820439 0.725060
O O9 0.372164 0.869264 0.930184
O O10 0.358821 0.005996 0.790801
O O11 0.924373 0.858463 0.126624
O O12 0.000000 0.000000 0.000000
O O13 0.083394 0.380543 0.377838
O O14 0.000000 0.443048 0.250000
O O15 0.000000 0.233227 0.750000
O O16 0.000754 0.299308 0.556767
#
# Coordination Sequence:
#
# PCOD9282586 Si02
#       7
#     8   8   8   8   8   8   8
#     4  11  24  40  61  90 129 163 201 257 323 362
#     4  10  21  39  63  90 122 157 208 262 305 367
#     4  11  25  40  60  92 127 166 205 255 309 371
#     4  12  22  37  66  94 118 157 208 258 309 368
#     4  10  21  39  64  90 122 165 209 255 312 361
#     4  10  22  39  64  93 118 158 215 256 294 371
#     4  10  21  42  64  85 122 166 210 256 306 370
#
# _framework density 18.611791
#
# number of rings (size 3 to 8) (size 9 to 14) (size 15 to 20)
#    0.000    1.429    2.857    3.429    2.000    6.857 
#    0.000    1.429    0.000    0.000    0.000    0.000 
#    0.000    0.000    0.000    0.000    0.000    0.000 
#
# Total GULP energy -156466.389606 kJ/mol
# GULP energy per Si atom -5588.085343 kJ/mol
# Density = 1.856943 g / cm^3
# Si number density = 18.611791 Si / 1000 Ang^3
#
#
#
# Elastic Constant Matrix: (Units=GPa)
#
#
# Indices 1 2 3 4 5 6 
#
# 1 104.9337 31.1758 33.6814 0.0000 -12.6009 0.0000
# 2 31.1758 68.2812 53.2150 0.0000 -3.9651 0.0000
# 3 33.6814 53.2150 86.2817 0.0000 -1.2685 0.0000
# 4 0.0000 0.0000 0.0000 59.1677 0.0000 -36.4181
# 5 -12.6009 -3.9651 -1.2685 0.0000 19.7843 0.0000
# 6 0.0000 0.0000 0.0000 -36.4181 0.0000 58.6794
#
#
#
# Elastic Compliance Matrix: (Units=1/GPa)
#
#
# Indices 1 2 3 4 5 6 
#
# 1 0.012147 -0.002938 -0.002827 0.000000 0.006966 0.000000
# 2 -0.002938 0.029325 -0.016896 0.000000 0.002923 0.000000
# 3 -0.002827 -0.016896 0.023060 0.000000 -0.003708 0.000000
# 4 0.000000 0.000000 0.000000 0.027348 0.000000 0.016973
# 5 0.006966 0.002923 -0.003708 0.000000 0.055330 0.000000
# 6 0.000000 0.000000 0.000000 0.016973 0.000000 0.027576
#
#
# Mechanical properties :
#
#
# Convention : Reuss Voigt Hill
#
# Bulk Modulus (GPa) = 52.06096 55.07122 53.56609
# Shear Modulus (GPa) = 22.07399 36.95459 29.51429
#
# Velocity S-wave (km/s) = 3.44760 4.46078 3.98651
# Velocity P-wave (km/s) = 6.62425 7.49567 7.07339
#
# Compressibility (1/GPa) = 0.01920825
#
# Stress axis : x y z
#
# Youngs Moduli (GPa) = 82.32673 34.10104 43.36515
#
# Poissons Ratio (x) = 0.10019 0.12260
# Poissons Ratio (y) = 0.24188 0.73271
# Poissons Ratio (z) = 0.23275 0.57618
#
# Static dielectric constant tensor:
#      x y z
#    x 1.619880 0.000000 0.002980 
#    y 0.000000 1.641400 0.000000 
#    z 0.002980 0.000000 1.641880 
# 
# From -- ./inp_files/111006.got.cif
#   From: 2010.05.17/outbox.cif.g08.bks.cpg/sg15_56_cif.got.tgz:111006.got - 2010.06.03 18:47:42.
