data_PCOD9282302
_publ_section_title
;
Structure prediction by ZEFSAII (Michael W. Deem and Ramdas Pophale) SiO2 
 PCOD9282302
Probable space group: C 2/C
;
_chemical_formula_sum "Si O2"
_cell_formula_units_Z 40
_cell_length_a 13.448427
_cell_length_b 25.400322
_cell_length_c 8.807286
_cell_angle_alpha 90.000000
_cell_angle_beta 145.432379
_cell_angle_gamma 90.000000
_cell_volume 1706.969156
_symmetry_space_group_name_H-M "C 2/C"
_symmetry_group_IT_number 15
_symmetry_cell_setting 'monoclinic'
loop_
_space_group_symop_operation_xyz
x,y,z
-x,y,1/2-z
-x,-y,-z
x,-y,1/2+z
1/2+x,1/2+y,z
1/2-x,1/2+y,1/2-z
1/2-x,1/2-y,-z
1/2+x,1/2-y,1/2+z
loop_
_atom_site_type_symbol
_atom_site_label
_atom_site_fract_x
_atom_site_fract_y
_atom_site_fract_z
Si Si1 0.428117 0.174913 0.816874
Si Si2 0.170798 0.913332 0.867136
Si Si3 0.629043 0.017097 0.297490
Si Si4 0.716029 0.379223 0.606098
Si Si5 0.797759 0.302151 0.466610
O O1 0.500000 0.201611 0.750000
O O2 0.300356 0.128012 0.607941
O O3 0.601232 0.146998 0.104368
O O4 0.313444 0.204966 0.802989
O O5 0.116223 0.886480 0.639877
O O6 0.000000 0.923387 0.750000
O O7 0.281262 0.967741 0.006015
O O8 0.500000 0.046481 0.250000
O O9 0.765402 0.060197 0.417609
O O10 0.500000 0.000000 0.000000
O O11 0.681800 0.345867 0.409566
O O12 0.750000 0.250000 0.500000
O O13 0.000000 0.315182 0.750000
#
# Coordination Sequence:
#
# PCOD9282302 Si02
#       5
#     8   8   8   8   8
#     4   9  18  39  64  85 113 160 206 241 294 374
#     4  11  23  37  55  91 128 156 198 256 310 356
#     4  12  20  37  64  87 117 167 212 235 294 377
#     4  10  21  39  61  84 118 164 205 246 294 378
#     4  10  22  40  64  90 118 153 206 257 306 361
#
# _framework density 23.433347000000001
#
# number of rings (size 3 to 8) (size 9 to 14) (size 15 to 20)
#    0.000    1.600    4.000    2.400    0.000    2.400 
#    0.000   11.000    0.000    0.000    0.000    0.000 
#    0.000    0.000    0.000    0.000    0.000    0.000 
#
# Total GULP energy -111351.159123 kJ/mol
# GULP energy per Si atom -5567.557956 kJ/mol
# Density = 2.338001 g / cm^3
# Si number density = 23.433347 Si / 1000 Ang^3
#
#
#
# Elastic Constant Matrix: (Units=GPa)
#
#
# Indices 1 2 3 4 5 6 
#
# 1 179.1165 43.9523 25.0677 0.0000 -30.8531 0.0000
# 2 43.9523 80.2827 13.4525 0.0000 -27.2160 0.0000
# 3 25.0677 13.4525 69.9403 0.0000 -14.4123 0.0000
# 4 0.0000 0.0000 0.0000 1.4276 0.0000 -12.6008
# 5 -30.8531 -27.2160 -14.4123 0.0000 33.0881 0.0000
# 6 0.0000 0.0000 0.0000 -12.6008 0.0000 30.5652
#
#
#
# Elastic Compliance Matrix: (Units=1/GPa)
#
#
# Indices 1 2 3 4 5 6 
#
# 1 0.007020 -0.002218 -0.001227 0.000000 0.004187 0.000000
# 2 -0.002218 0.017985 -0.000046 0.000000 0.012705 0.000000
# 3 -0.001227 -0.000046 0.015933 0.000000 0.005758 0.000000
# 4 0.000000 0.000000 0.000000 -0.265445 0.000000 -0.109433
# 5 0.004187 0.012705 0.005758 0.000000 0.047085 0.000000
# 6 0.000000 0.000000 0.000000 -0.109433 0.000000 -0.012398
#
#
# Mechanical properties :
#
#
# Convention : Reuss Voigt Hill
#
# Bulk Modulus (GPa) = 29.45001 54.92050 42.18525
# Shear Modulus (GPa) = -29.15132 29.47397 0.16133
#
# Velocity S-wave (km/s) = -3.53088 3.55037 0.26267
# Velocity P-wave (km/s) = 2.00698 6.34780 4.25832
#
# Compressibility (1/GPa) = 0.03395585
#
# Stress axis : x y z
#
# Youngs Moduli (GPa) = 142.44590 55.60142 62.76282
#
# Poissons Ratio (x) = 0.12335 0.07699
# Poissons Ratio (y) = 0.31600 0.00290
# Poissons Ratio (z) = 0.17473 0.00257
#
# Static dielectric constant tensor:
#      x y z
#    x 3.683240 0.000000 -0.129020 
#    y 0.000000 1.784200 0.000000 
#    z -0.129020 0.000000 1.982780 
# 
# From -- ./inp_files/33895.got.cif
#   From: 2010.05.17/outbox.cif.g08.bks.cpg/sg15_17_cif.got.tgz:33895.got - 2010.06.03 18:47:42.
