data_PCOD9282102
_publ_section_title
;
Structure prediction by ZEFSAII (Michael W. Deem and Ramdas Pophale) SiO2 
 PCOD9282102
Probable space group: C 2/C
;
_chemical_formula_sum "Si O2"
_cell_formula_units_Z 48
_cell_length_a 24.386194
_cell_length_b 15.818885
_cell_length_c 10.634549
_cell_angle_alpha 90.000000
_cell_angle_beta 153.500240
_cell_angle_gamma 90.000000
_cell_volume 1830.470603
_symmetry_space_group_name_H-M "C 2/C"
_symmetry_group_IT_number 15
_symmetry_cell_setting 'monoclinic'
loop_
_space_group_symop_operation_xyz
x,y,z
-x,y,1/2-z
-x,-y,-z
x,-y,1/2+z
1/2+x,1/2+y,z
1/2-x,1/2+y,1/2-z
1/2-x,1/2-y,-z
1/2+x,1/2-y,1/2+z
loop_
_atom_site_type_symbol
_atom_site_label
_atom_site_fract_x
_atom_site_fract_y
_atom_site_fract_z
Si Si1 0.636250 0.325712 0.645798
Si Si2 0.736131 0.797123 0.158552
Si Si3 0.098035 0.659742 0.702647
Si Si4 0.633827 0.063921 0.291645
Si Si5 0.500000 0.237190 0.750000
Si Si6 0.500000 0.472213 0.250000
Si Si7 0.734588 0.029048 0.756404
O O1 0.680166 0.289126 0.599521
O O2 0.568749 0.246195 0.568399
O O3 0.554770 0.408118 0.465919
O O4 0.755987 0.344151 0.974992
O O5 0.882589 0.789810 0.463386
O O6 0.692710 0.842312 0.941837
O O7 0.698923 0.871262 0.184143
O O8 0.046876 0.678639 0.736040
O O9 0.010497 0.582687 0.483460
O O10 0.682725 0.029573 0.259662
O O11 0.683686 0.008230 0.511866
O O12 0.382021 0.522128 0.056889
#
# Coordination Sequence:
#
# PCOD9282102 Si02
#       7
#     8   8   8   8   4   4   8
#     4  10  23  44  75 107 147 194 247 317 380 445
#     4   9  22  45  68 106 148 196 235 316 378 445
#     4  10  23  43  71 107 148 191 249 312 381 450
#     4  10  24  47  73 103 156 196 254 302 380 452
#     4  10  21  38  72 107 144 184 248 314 371 448
#     4  12  25  44  76 113 142 198 260 316 367 466
#     4  10  26  45  73 108 152 200 248 307 384 444
#
# _framework density 26.222764000000002
#
# number of rings (size 3 to 8) (size 9 to 14) (size 15 to 20)
#    1.000    1.000    0.000    1.500    7.000    5.333 
#    0.000    5.000    0.000    0.000    0.000    0.000 
#    0.000    0.000    0.000    0.000    0.000    0.000 
#
# Total GULP energy -134243.530049 kJ/mol
# GULP energy per Si atom -5593.480419 kJ/mol
# Density = 2.616308 g / cm^3
# Si number density = 26.222764 Si / 1000 Ang^3
#
#
#
# Elastic Constant Matrix: (Units=GPa)
#
#
# Indices 1 2 3 4 5 6 
#
# 1 70.2071 2.2713 25.2675 0.0000 -5.0498 0.0000
# 2 2.2713 80.5618 18.9585 0.0000 4.8967 0.0000
# 3 25.2675 18.9585 141.7899 0.0000 8.1278 0.0000
# 4 0.0000 0.0000 0.0000 46.9936 0.0000 -11.4432
# 5 -5.0498 4.8967 8.1278 0.0000 36.6671 0.0000
# 6 0.0000 0.0000 0.0000 -11.4432 0.0000 13.1759
#
#
#
# Elastic Compliance Matrix: (Units=1/GPa)
#
#
# Indices 1 2 3 4 5 6 
#
# 1 0.015495 0.000084 -0.002932 0.000000 0.002773 0.000000
# 2 0.000084 0.012883 -0.001661 0.000000 -0.001341 0.000000
# 3 -0.002932 -0.001661 0.007908 0.000000 -0.001935 0.000000
# 4 0.000000 0.000000 0.000000 0.026987 0.000000 0.023438
# 5 0.002773 -0.001341 -0.001935 0.000000 0.028262 0.000000
# 6 0.000000 0.000000 0.000000 0.023438 0.000000 0.096252
#
#
# Mechanical properties :
#
#
# Convention : Reuss Voigt Hill
#
# Bulk Modulus (GPa) = 36.66961 42.83927 39.75444
# Shear Modulus (GPa) = 24.28454 35.77144 30.02799
#
# Velocity S-wave (km/s) = 3.04647 3.69743 3.38762
# Velocity P-wave (km/s) = 5.13701 5.88219 5.52218
#
# Compressibility (1/GPa) = 0.02727054
#
# Stress axis : x y z
#
# Youngs Moduli (GPa) = 64.53560 77.62318 126.45315
#
# Poissons Ratio (x) = -0.00656 0.37070
# Poissons Ratio (y) = -0.00545 0.21001
# Poissons Ratio (z) = 0.18919 0.12891
#
# Static dielectric constant tensor:
#      x y z
#    x 2.114180 0.000000 -0.036900 
#    y 0.000000 2.124450 0.000000 
#    z -0.036900 0.000000 2.095460 
# 
# From -- ./inp_files/119756.got.cif
#   From: 2010.05.17/outbox.cif.g08.bks.cpg/sg15_60_cif.got.tgz:119756.got - 2010.06.03 18:47:42.
