data_PCOD9282554
_publ_section_title
;
Structure prediction by ZEFSAII (Michael W. Deem and Ramdas Pophale) SiO2 
 PCOD9282554
Probable space group: C 2/C
;
_chemical_formula_sum "Si O2"
_cell_formula_units_Z 48
_cell_length_a 14.603612
_cell_length_b 16.272972
_cell_length_c 17.617184
_cell_angle_alpha 90.000000
_cell_angle_beta 34.008309
_cell_angle_gamma 90.000000
_cell_volume 2341.632102
_symmetry_space_group_name_H-M "C 2/C"
_symmetry_group_IT_number 15
_symmetry_cell_setting 'monoclinic'
loop_
_space_group_symop_operation_xyz
x,y,z
-x,y,1/2-z
-x,-y,-z
x,-y,1/2+z
1/2+x,1/2+y,z
1/2-x,1/2+y,1/2-z
1/2-x,1/2-y,-z
1/2+x,1/2-y,1/2+z
loop_
_atom_site_type_symbol
_atom_site_label
_atom_site_fract_x
_atom_site_fract_y
_atom_site_fract_z
Si Si1 0.433845 0.653728 0.218880
Si Si2 0.871616 0.153729 0.781109
Si Si3 0.592695 0.215879 0.510595
Si Si4 0.102010 0.555199 0.871124
Si Si5 0.886097 0.215870 0.010613
Si Si6 0.844250 0.055193 0.128886
O O1 0.500000 0.611922 0.250000
O O2 0.273829 0.703853 0.354748
O O3 0.382432 0.595320 0.185065
O O4 0.565943 0.718332 0.095279
O O5 0.752556 0.095326 0.814940
O O6 0.756523 0.218341 0.904698
O O7 0.000000 0.111920 0.750000
O O8 0.983350 0.203843 0.645231
O O9 0.512614 0.127252 0.582693
O O10 0.485024 0.250004 0.514976
O O11 0.184314 0.500005 0.750004
O O12 0.000000 0.500000 0.000000
O O13 0.821978 0.127246 0.082715
O O14 0.000000 0.000000 0.000000
#
# Coordination Sequence:
#
# PCOD9282554 Si02
#       6
#     8   8   8   8   8   8
#     4  11  23  39  63  90 123 156 205 256 307 352
#     4  11  23  39  63  90 123 156 205 256 307 352
#     4  10  21  39  63  88 118 161 207 245 293 371
#     4  11  22  40  63  88 120 161 206 245 301 370
#     4  10  21  39  63  88 118 161 207 245 293 371
#     4  11  22  40  63  88 120 161 206 245 301 370
#
# _framework density 20.498524
#
# number of rings (size 3 to 8) (size 9 to 14) (size 15 to 20)
#    0.000    1.333    3.333    4.000    4.667    0.667 
#    0.000    0.000    0.000    0.000    0.000    0.000 
#    0.000    0.000    0.000    0.000    0.000    0.000 
#
# Total GULP energy -134079.925095 kJ/mol
# GULP energy per Si atom -5586.663546 kJ/mol
# Density = 2.045187 g / cm^3
# Si number density = 20.498524 Si / 1000 Ang^3
#
#
#
# Elastic Constant Matrix: (Units=GPa)
#
#
# Indices 1 2 3 4 5 6 
#
# 1 36.9668 -18.0669 -10.9791 -0.0001 -1.0482 0.0001
# 2 -18.0669 46.8086 16.6799 0.0009 1.0685 -0.0005
# 3 -10.9791 16.6799 122.9068 0.0021 3.7031 -0.0012
# 4 -0.0001 0.0009 0.0021 45.3278 -0.0024 1.0561
# 5 -1.0482 1.0685 3.7031 -0.0024 7.1170 0.0015
# 6 0.0001 -0.0005 -0.0012 1.0561 0.0015 11.0754
#
#
#
# Elastic Compliance Matrix: (Units=1/GPa)
#
#
# Indices 1 2 3 4 5 6 
#
# 1 0.033579 0.012465 0.001235 0.000000 0.002432 0.000000
# 2 0.012465 0.027100 -0.002537 0.000000 -0.000913 0.000001
# 3 0.001235 -0.002537 0.008710 -0.000001 -0.003969 0.000001
# 4 0.000000 0.000000 -0.000001 0.022111 0.000008 -0.002108
# 5 0.002432 -0.000913 -0.003969 0.000008 0.143070 -0.000021
# 6 0.000000 0.000001 0.000001 -0.002108 -0.000021 0.090492
#
#
# Mechanical properties :
#
#
# Convention : Reuss Voigt Hill
#
# Bulk Modulus (GPa) = 10.90331 20.21666 15.55998
# Shear Modulus (GPa) = 15.00121 27.30725 21.15423
#
# Velocity S-wave (km/s) = 2.70815 3.65383 3.21594
# Velocity P-wave (km/s) = 3.88708 5.26161 4.62569
#
# Compressibility (1/GPa) = 0.09171531
#
# Stress axis : x y z
#
# Youngs Moduli (GPa) = 29.78046 36.90088 114.80535
#
# Poissons Ratio (x) = -0.45998 -0.14174
# Poissons Ratio (y) = -0.37122 0.29123
# Poissons Ratio (z) = -0.03677 0.09361
#
# Static dielectric constant tensor:
#      x y z
#    x 1.750060 0.000000 -0.001330 
#    y 0.000000 1.740880 0.000000 
#    z -0.001330 0.000000 1.706900 
# 
# From -- ./inp_files/39617.got.cif
#   From: 2010.05.17/outbox.cif.g08.bks.cpg/sg15_20_cif.got.tgz:39617.got - 2010.06.03 18:47:42.
