data_PCOD9282163
_publ_section_title
;
Structure prediction by ZEFSAII (Michael W. Deem and Ramdas Pophale) SiO2 
 PCOD9282163
Probable space group: C 2/C
;
_chemical_formula_sum "Si O2"
_cell_formula_units_Z 56
_cell_length_a 10.817098
_cell_length_b 9.244513
_cell_length_c 23.939900
_cell_angle_alpha 90.000000
_cell_angle_beta 71.244279
_cell_angle_gamma 90.000000
_cell_volume 2266.837280
_symmetry_space_group_name_H-M "C 2/C"
_symmetry_group_IT_number 15
_symmetry_cell_setting 'monoclinic'
loop_
_space_group_symop_operation_xyz
x,y,z
-x,y,1/2-z
-x,-y,-z
x,-y,1/2+z
1/2+x,1/2+y,z
1/2-x,1/2+y,1/2-z
1/2-x,1/2-y,-z
1/2+x,1/2-y,1/2+z
loop_
_atom_site_type_symbol
_atom_site_label
_atom_site_fract_x
_atom_site_fract_y
_atom_site_fract_z
Si Si1 0.500000 0.899282 0.250000
Si Si2 0.000000 0.103187 0.750000
Si Si3 0.875412 0.477406 0.452668
Si Si4 0.172069 0.511434 0.414782
Si Si5 0.612263 0.730514 0.596397
Si Si6 0.171647 0.355337 0.700580
Si Si7 0.957880 0.029876 0.136925
Si Si8 0.151483 0.748519 0.627798
O O1 0.439695 0.807128 0.308831
O O2 0.383064 0.012350 0.255086
O O3 0.870489 0.205231 0.764548
O O4 0.999274 0.009525 0.694555
O O5 0.845108 0.428511 0.519550
O O6 0.852654 0.650043 0.454110
O O7 0.802556 0.386301 0.415972
O O8 0.029447 0.462880 0.417406
O O9 0.269696 0.376276 0.404252
O O10 0.234633 0.642049 0.370483
O O11 0.591870 0.830636 0.654215
O O12 0.492391 0.621695 0.601532
O O13 0.316387 0.399264 0.661678
O O14 0.059899 0.150397 0.102155
#
# Coordination Sequence:
#
# PCOD9282163 Si02
#       8
#     4   4   8   8   8   8   8   8
#     4  11  23  38  58  92 122 170 212 246 318 382
#     4   9  21  40  54  84 122 162 214 254 294 364
#     4  11  22  42  70  93 124 172 204 268 328 370
#     4  10  24  42  67  97 125 161 219 263 321 377
#     4  10  21  41  63  92 125 158 207 261 310 380
#     4  10  21  39  58  87 125 162 208 256 305 374
#     4  10  22  38  60  87 124 165 206 258 310 365
#     4  11  23  42  60  94 131 161 214 265 309 385
#
# _framework density 24.704022999999999
#
# number of rings (size 3 to 8) (size 9 to 14) (size 15 to 20)
#    0.000    1.714    1.429    2.143    4.000    0.000 
#    2.571    0.000    0.000    9.429    0.000    0.000 
#    0.000    0.000    0.000    0.000    0.000    0.000 
#
# Total GULP energy -156337.416287 kJ/mol
# GULP energy per Si atom -5583.479153 kJ/mol
# Density = 2.464780 g / cm^3
# Si number density = 24.704023 Si / 1000 Ang^3
#
#
#
# Elastic Constant Matrix: (Units=GPa)
#
#
# Indices 1 2 3 4 5 6 
#
# 1 77.8203 38.6593 3.4557 0.0000 -29.2266 0.0000
# 2 38.6593 140.3156 22.6874 0.0000 -11.6075 0.0000
# 3 3.4557 22.6874 62.3628 0.0000 -3.8527 0.0000
# 4 0.0000 0.0000 0.0000 30.1477 0.0000 -2.4508
# 5 -29.2266 -11.6075 -3.8527 0.0000 33.6809 0.0000
# 6 0.0000 0.0000 0.0000 -2.4508 0.0000 35.9279
#
#
#
# Elastic Compliance Matrix: (Units=1/GPa)
#
#
# Indices 1 2 3 4 5 6 
#
# 1 0.021674 -0.004798 0.001616 0.000000 0.017339 0.000000
# 2 -0.004798 0.008817 -0.003033 0.000000 -0.001472 0.000000
# 3 0.001616 -0.003033 0.017193 0.000000 0.002324 0.000000
# 4 0.000000 0.000000 0.000000 0.033355 0.000000 0.002275
# 5 0.017339 -0.001472 0.002324 0.000000 0.044495 0.000000
# 6 0.000000 0.000000 0.000000 0.002275 0.000000 0.027989
#
#
# Mechanical properties :
#
#
# Convention : Reuss Voigt Hill
#
# Bulk Modulus (GPa) = 28.36637 45.56705 36.96671
# Shear Modulus (GPa) = 28.13665 34.33105 31.23385
#
# Velocity S-wave (km/s) = 3.37849 3.73191 3.55959
# Velocity P-wave (km/s) = 5.16976 6.08726 5.64717
#
# Compressibility (1/GPa) = 0.03525301
#
# Stress axis : x y z
#
# Youngs Moduli (GPa) = 46.13830 113.41144 58.16479
#
# Poissons Ratio (x) = 0.54420 -0.09398
# Poissons Ratio (y) = 0.22139 0.17640
# Poissons Ratio (z) = -0.07455 0.34395
#
# Static dielectric constant tensor:
#      x y z
#    x 1.961920 0.000000 -0.029030 
#    y 0.000000 2.017480 0.000000 
#    z -0.029030 0.000000 2.045130 
# 
# From -- ./inp_files/310249.got.cif
#   From: 2010.05.17/outbox.cif.g08.bks.cpg/sg15_156_cif.got.tgz:310249.got - 2010.06.03 18:47:42.
