data_PCOD9282797
_publ_section_title
;
Structure prediction by ZEFSAII (Michael W. Deem and Ramdas Pophale) SiO2 
 PCOD9282797
Probable space group: C 2/C
;
_chemical_formula_sum "Si O2"
_cell_formula_units_Z 52
_cell_length_a 17.109149
_cell_length_b 22.120156
_cell_length_c 8.066271
_cell_angle_alpha 90.000000
_cell_angle_beta 52.773131
_cell_angle_gamma 90.000000
_cell_volume 2430.730616
_symmetry_space_group_name_H-M "C 2/C"
_symmetry_group_IT_number 15
_symmetry_cell_setting 'monoclinic'
loop_
_space_group_symop_operation_xyz
x,y,z
-x,y,1/2-z
-x,-y,-z
x,-y,1/2+z
1/2+x,1/2+y,z
1/2-x,1/2+y,1/2-z
1/2-x,1/2-y,-z
1/2+x,1/2-y,1/2+z
loop_
_atom_site_type_symbol
_atom_site_label
_atom_site_fract_x
_atom_site_fract_y
_atom_site_fract_z
Si Si1 0.387405 0.072348 0.546800
Si Si2 0.826109 0.453121 0.482229
Si Si3 0.552745 0.847183 0.014699
Si Si4 0.000000 0.012876 0.250000
Si Si5 0.887063 0.197548 0.953415
Si Si6 0.117729 0.069748 0.383323
Si Si7 0.819778 0.685606 0.447581
O O1 0.324898 0.056099 0.788403
O O2 0.479824 0.109577 0.501219
O O3 0.335703 0.118248 0.489613
O O4 0.395538 0.009075 0.441665
O O5 0.869504 0.393199 0.507734
O O6 0.717610 0.458727 0.690089
O O7 0.500000 0.820736 0.250000
O O8 0.612830 0.806672 0.805255
O O9 0.966287 0.054729 0.142419
O O10 0.914061 0.966948 0.413203
O O11 0.863612 0.267610 0.028188
O O12 0.000000 0.193713 0.750000
O O13 0.872973 0.141185 0.094431
O O14 0.796154 0.191542 0.939605
#
# Coordination Sequence:
#
# PCOD9282797 Si02
#       7
#     8   8   8   4   8   8   8
#     4  11  23  37  63  94 132 171 218 268 335 396
#     4  11  22  36  61  94 132 168 215 275 334 393
#     4  10  21  39  64  96 133 170 215 270 332 388
#     4  10  24  38  68  94 130 172 222 284 336 390
#     4  11  24  43  73  92 128 176 226 265 330 400
#     4  11  22  42  64  97 131 173 223 279 333 399
#     4  11  24  44  69  95 131 178 220 273 325 400
#
# _framework density 21.392745000000001
#
# number of rings (size 3 to 8) (size 9 to 14) (size 15 to 20)
#    0.000    1.231    2.308    3.692    2.154    3.692 
#    0.000    0.769   20.308    0.000    0.000    0.000 
#    0.000    0.000    0.000    0.000    0.000    0.000 
#
# Total GULP energy -145026.222784 kJ/mol
# GULP energy per Si atom -5577.931646 kJ/mol
# Density = 2.134405 g / cm^3
# Si number density = 21.392745 Si / 1000 Ang^3
#
#
#
# Elastic Constant Matrix: (Units=GPa)
#
#
# Indices 1 2 3 4 5 6 
#
# 1 52.3079 9.3397 41.9720 0.0000 -12.9229 0.0000
# 2 9.3397 89.8508 41.0488 0.0000 10.3391 0.0000
# 3 41.9720 41.0488 119.9305 0.0000 -21.5215 0.0000
# 4 0.0000 0.0000 0.0000 12.9257 0.0000 12.2098
# 5 -12.9229 10.3391 -21.5215 0.0000 32.9777 0.0000
# 6 0.0000 0.0000 0.0000 12.2098 0.0000 7.9145
#
#
#
# Elastic Compliance Matrix: (Units=1/GPa)
#
#
# Indices 1 2 3 4 5 6 
#
# 1 0.027342 0.000735 -0.008992 0.000000 0.004616 0.000000
# 2 0.000735 0.015396 -0.007183 0.000000 -0.009226 0.000000
# 3 -0.008992 -0.007183 0.015535 0.000000 0.008866 0.000000
# 4 0.000000 0.000000 0.000000 -0.169189 0.000000 0.261011
# 5 0.004616 -0.009226 0.008866 0.000000 0.040811 0.000000
# 6 0.000000 0.000000 0.000000 0.261011 0.000000 -0.276314
#
#
# Mechanical properties :
#
#
# Convention : Reuss Voigt Hill
#
# Bulk Modulus (GPa) = 36.50545 49.64557 43.07551
# Shear Modulus (GPa) = -16.31807 22.07882 2.88038
#
# Velocity S-wave (km/s) = -2.76485 3.21607 1.16162
# Velocity P-wave (km/s) = 2.62848 6.08670 4.68811
#
# Compressibility (1/GPa) = 0.02739317
#
# Stress axis : x y z
#
# Youngs Moduli (GPa) = 36.57378 64.95092 64.37272
#
# Poissons Ratio (x) = -0.04773 0.57885
# Poissons Ratio (y) = -0.02688 0.46236
# Poissons Ratio (z) = 0.32887 0.46651
#
# Static dielectric constant tensor:
#      x y z
#    x 1.795670 0.000000 -0.001240 
#    y 0.000000 1.830470 0.000000 
#    z -0.001240 0.000000 1.813030 
# 
# From -- ./inp_files/50567.got.cif
#   From: 2010.05.17/outbox.cif.g08.bks.cpg/sg15_26_cif.got.tgz:50567.got - 2010.06.03 18:47:42.
