data_PCOD9282679
_publ_section_title
;
Structure prediction by ZEFSAII (Michael W. Deem and Ramdas Pophale) SiO2 
 PCOD9282679
Probable space group: C 2/C
;
_chemical_formula_sum "Si O2"
_cell_formula_units_Z 40
_cell_length_a 18.150420
_cell_length_b 9.459700
_cell_length_c 9.551366
_cell_angle_alpha 90.000000
_cell_angle_beta 109.788572
_cell_angle_gamma 90.000000
_cell_volume 1543.104359
_symmetry_space_group_name_H-M "C 2/C"
_symmetry_group_IT_number 15
_symmetry_cell_setting 'monoclinic'
loop_
_space_group_symop_operation_xyz
x,y,z
-x,y,1/2-z
-x,-y,-z
x,-y,1/2+z
1/2+x,1/2+y,z
1/2-x,1/2+y,1/2-z
1/2-x,1/2-y,-z
1/2+x,1/2-y,1/2+z
loop_
_atom_site_type_symbol
_atom_site_label
_atom_site_fract_x
_atom_site_fract_y
_atom_site_fract_z
Si Si1 0.374353 0.017601 0.418879
Si Si2 0.344386 0.591810 0.812345
Si Si3 0.408216 0.809797 0.662141
Si Si4 0.720305 0.323727 0.812685
Si Si5 0.568895 0.727376 0.398532
O O1 0.379378 0.071097 0.260433
O O2 0.288398 0.070443 0.411548
O O3 0.437319 0.115470 0.541850
O O4 0.388414 0.864204 0.493329
O O5 0.369742 0.660016 0.680232
O O6 0.322752 0.430545 0.818869
O O7 0.268014 0.686809 0.798308
O O8 0.416741 0.629550 0.959055
O O9 0.500000 0.799753 0.750000
O O10 0.651153 0.283447 0.871160
O O11 0.500000 0.692252 0.250000
#
# Coordination Sequence:
#
# PCOD9282679 Si02
#       5
#     8   8   8   8   8
#     4  10  22  39  68  95 136 177 218 266 331 391
#     4  10  24  43  64  97 129 174 220 274 329 388
#     4  10  21  39  63  98 136 168 219 271 327 392
#     4  10  23  41  67  91 132 171 224 270 328 398
#     4  10  22  40  65  91 132 176 216 267 341 393
#
# _framework density 25.921772000000001
#
# number of rings (size 3 to 8) (size 9 to 14) (size 15 to 20)
#    0.000    2.400    0.000    3.600   11.200    4.000 
#    0.000    0.000    0.000    0.000    0.000    0.000 
#    0.000    0.000    0.000    0.000    0.000    0.000 
#
# Total GULP energy -111745.229285 kJ/mol
# GULP energy per Si atom -5587.261464 kJ/mol
# Density = 2.586277 g / cm^3
# Si number density = 25.921772 Si / 1000 Ang^3
#
#
#
# Elastic Constant Matrix: (Units=GPa)
#
#
# Indices 1 2 3 4 5 6 
#
# 1 107.4447 1.9811 9.4844 0.0000 -5.4007 0.0000
# 2 1.9811 98.0919 45.5059 0.0000 4.7573 0.0000
# 3 9.4844 45.5059 89.2968 0.0000 11.9328 0.0000
# 4 0.0000 0.0000 0.0000 32.9035 0.0000 -11.4606
# 5 -5.4007 4.7573 11.9328 0.0000 27.6538 0.0000
# 6 0.0000 0.0000 0.0000 -11.4606 0.0000 14.3671
#
#
#
# Elastic Compliance Matrix: (Units=1/GPa)
#
#
# Indices 1 2 3 4 5 6 
#
# 1 0.009561 0.000408 -0.001553 0.000000 0.002467 0.000000
# 2 0.000408 0.013380 -0.006967 0.000000 0.000784 0.000000
# 3 -0.001553 -0.006967 0.015699 0.000000 -0.005879 0.000000
# 4 0.000000 0.000000 0.000000 0.042085 0.000000 0.033571
# 5 0.002467 0.000784 -0.005879 0.000000 0.039045 0.000000
# 6 0.000000 0.000000 0.000000 0.033571 0.000000 0.096383
#
#
# Mechanical properties :
#
#
# Convention : Reuss Voigt Hill
#
# Bulk Modulus (GPa) = 44.60995 45.41959 45.01477
# Shear Modulus (GPa) = 20.84637 30.84234 25.84435
#
# Velocity S-wave (km/s) = 2.83892 3.45312 3.16098
# Velocity P-wave (km/s) = 5.29082 5.78434 5.54308
#
# Compressibility (1/GPa) = 0.02241653
#
# Stress axis : x y z
#
# Youngs Moduli (GPa) = 104.59504 74.73752 63.69667
#
# Poissons Ratio (x) = -0.03047 0.09891
# Poissons Ratio (y) = -0.04264 0.44375
# Poissons Ratio (z) = 0.16242 0.52067
#
# Static dielectric constant tensor:
#      x y z
#    x 2.020970 0.000000 -0.044700 
#    y 0.000000 2.082220 0.000000 
#    z -0.044700 0.000000 2.132650 
# 
# From -- ./inp_files/54235.got.cif
#   From: 2010.05.17/outbox.cif.g08.bks.cpg/sg15_28_cif.got.tgz:54235.got - 2010.06.03 18:47:42.
