data_PCOD9282543
_publ_section_title
;
Structure prediction by ZEFSAII (Michael W. Deem and Ramdas Pophale) SiO2 
 PCOD9282543
Probable space group: C 2/C
;
_chemical_formula_sum "Si O2"
_cell_formula_units_Z 36
_cell_length_a 12.036437
_cell_length_b 14.235524
_cell_length_c 11.379951
_cell_angle_alpha 90.000000
_cell_angle_beta 121.181437
_cell_angle_gamma 90.000000
_cell_volume 1668.199858
_symmetry_space_group_name_H-M "C 2/C"
_symmetry_group_IT_number 15
_symmetry_cell_setting 'monoclinic'
loop_
_space_group_symop_operation_xyz
x,y,z
-x,y,1/2-z
-x,-y,-z
x,-y,1/2+z
1/2+x,1/2+y,z
1/2-x,1/2+y,1/2-z
1/2-x,1/2-y,-z
1/2+x,1/2-y,1/2+z
loop_
_atom_site_type_symbol
_atom_site_label
_atom_site_fract_x
_atom_site_fract_y
_atom_site_fract_z
Si Si1 0.313709 0.648298 0.046821
Si Si2 0.229395 0.550359 0.467004
Si Si3 0.500000 0.168013 0.250000
Si Si4 0.226280 0.204655 0.856767
Si Si5 0.398209 0.348562 0.859394
O O1 0.447880 0.643565 0.047623
O O2 0.353343 0.629809 0.203409
O O3 0.250000 0.750000 0.000000
O O4 0.224979 0.560915 0.962220
O O5 0.089160 0.598988 0.374885
O O6 0.285571 0.595729 0.619097
O O7 0.322188 0.587420 0.412157
O O8 0.400324 0.240065 0.258910
O O9 0.349164 0.241314 0.853090
O O10 0.250000 0.250000 0.000000
#
# Coordination Sequence:
#
# PCOD9282543 Si02
#       5
#     8   8   4   8   8
#     4  11  24  38  56  87 124 157 189 237 295 344
#     4  10  21  39  63  87 112 155 200 236 284 350
#     4   8  16  32  58  90 108 130 190 254 282 312
#     4   8  17  35  59  84 109 141 191 243 280 331
#     4   9  21  40  57  82 117 157 196 235 290 348
#
# _framework density 21.580147
#
# number of rings (size 3 to 8) (size 9 to 14) (size 15 to 20)
#    0.000    3.111    0.000    0.667    0.000   16.000 
#    0.000    7.778    0.000    0.000    0.000    0.000 
#    0.000    0.000    0.000    0.000    0.000    0.000 
#
# Total GULP energy -100270.820351 kJ/mol
# GULP energy per Si atom -5570.601131 kJ/mol
# Density = 2.153103 g / cm^3
# Si number density = 21.580147 Si / 1000 Ang^3
#
#
#
# Elastic Constant Matrix: (Units=GPa)
#
#
# Indices 1 2 3 4 5 6 
#
# 1 48.6947 30.4314 25.7857 0.0000 9.8046 0.0000
# 2 30.4314 173.3974 36.2018 0.0000 19.8462 0.0000
# 3 25.7857 36.2018 42.7928 0.0000 11.5370 0.0000
# 4 0.0000 0.0000 0.0000 13.7235 0.0000 -10.0586
# 5 9.8046 19.8462 11.5370 0.0000 33.1093 0.0000
# 6 0.0000 0.0000 0.0000 -10.0586 0.0000 9.2846
#
#
#
# Elastic Compliance Matrix: (Units=1/GPa)
#
#
# Indices 1 2 3 4 5 6 
#
# 1 0.030802 -0.001692 -0.016493 0.000000 -0.002360 0.000000
# 2 -0.001692 0.007268 -0.004513 0.000000 -0.002283 0.000000
# 3 -0.016493 -0.004513 0.038715 0.000000 -0.005901 0.000000
# 4 0.000000 0.000000 0.000000 0.353804 0.000000 0.383297
# 5 -0.002360 -0.002283 -0.005901 0.000000 0.034326 0.000000
# 6 0.000000 0.000000 0.000000 0.383297 0.000000 0.522955
#
#
# Mechanical properties :
#
#
# Convention : Reuss Voigt Hill
#
# Bulk Modulus (GPa) = 31.85808 49.96919 40.91363
# Shear Modulus (GPa) = 4.79051 22.72120 13.75586
#
# Velocity S-wave (km/s) = 1.49154 3.24832 2.52748
# Velocity P-wave (km/s) = 4.21438 6.10526 5.24572
#
# Compressibility (1/GPa) = 0.03138921
#
# Stress axis : x y z
#
# Youngs Moduli (GPa) = 32.46500 137.59691 25.82958
#
# Poissons Ratio (x) = 0.23287 0.42600
# Poissons Ratio (y) = 0.05494 0.11657
# Poissons Ratio (z) = 0.53543 0.62099
#
# Static dielectric constant tensor:
#      x y z
#    x 1.807400 0.000000 0.004840 
#    y 0.000000 1.851040 0.000000 
#    z 0.004840 0.000000 1.866000 
# 
# From -- ./inp_files/85380.got.cif
#   From: 2010.05.17/outbox.cif.g08.bks.cpg/sg15_43_cif.got.tgz:85380.got - 2010.06.03 18:47:42.
