data_PCOD9282179
_publ_section_title
;
Structure prediction by ZEFSAII (Michael W. Deem and Ramdas Pophale) SiO2 
 PCOD9282179
Probable space group: C 2/C
;
_chemical_formula_sum "Si O2"
_cell_formula_units_Z 40
_cell_length_a 12.560565
_cell_length_b 5.136730
_cell_length_c 30.350239
_cell_angle_alpha 90.000000
_cell_angle_beta 94.878647
_cell_angle_gamma 90.000000
_cell_volume 1951.109976
_symmetry_space_group_name_H-M "C 2/C"
_symmetry_group_IT_number 15
_symmetry_cell_setting 'monoclinic'
loop_
_space_group_symop_operation_xyz
x,y,z
-x,y,1/2-z
-x,-y,-z
x,-y,1/2+z
1/2+x,1/2+y,z
1/2-x,1/2+y,1/2-z
1/2-x,1/2-y,-z
1/2+x,1/2-y,1/2+z
loop_
_atom_site_type_symbol
_atom_site_label
_atom_site_fract_x
_atom_site_fract_y
_atom_site_fract_z
Si Si1 0.424610 0.352176 0.446372
Si Si2 0.168369 0.952689 0.474905
Si Si3 0.119402 0.240387 0.269965
Si Si4 0.779387 0.740184 0.192436
Si Si5 0.677307 0.881063 0.096263
O O1 0.548988 0.345502 0.462609
O O2 0.357961 0.321173 0.490104
O O3 0.400608 0.126944 0.410737
O O4 0.383451 0.630254 0.426544
O O5 0.250000 0.750000 0.500000
O O6 0.221735 0.983257 0.429141
O O7 0.134488 0.962563 0.293474
O O8 0.194208 0.244881 0.229306
O O9 0.000000 0.289611 0.250000
O O10 0.163328 0.462143 0.304024
O O11 0.719078 0.804172 0.145407
#
# Coordination Sequence:
#
# PCOD9282179 Si02
#       5
#     8   8   8   8   8
#     4  10  22  37  56  81 111 148 184 222 274 324
#     4   9  21  38  57  80 112 148 184 226 273 321
#     4  10  21  39  59  80 112 146 177 223 278 326
#     4  10  22  37  57  85 110 141 185 224 269 330
#     4  11  22  37  57  83 112 142 184 230 268 321
#
# _framework density 20.501149999999999
#
# number of rings (size 3 to 8) (size 9 to 14) (size 15 to 20)
#    0.000    2.000    0.000    2.400    0.000   13.600 
#    0.000    0.000    0.000    0.000    0.000    0.000 
#    0.000    0.000    0.000    0.000    0.000    0.000 
#
# Total GULP energy -111601.401380 kJ/mol
# GULP energy per Si atom -5580.070069 kJ/mol
# Density = 2.045449 g / cm^3
# Si number density = 20.501150 Si / 1000 Ang^3
#
#
#
# Elastic Constant Matrix: (Units=GPa)
#
#
# Indices 1 2 3 4 5 6 
#
# 1 81.1771 11.5815 11.6631 0.0000 29.6171 0.0000
# 2 11.5815 63.1386 -7.7672 0.0000 -1.2087 0.0000
# 3 11.6631 -7.7672 73.4188 0.0000 12.8196 0.0000
# 4 0.0000 0.0000 0.0000 28.9338 0.0000 12.1823
# 5 29.6171 -1.2087 12.8196 0.0000 20.6822 0.0000
# 6 0.0000 0.0000 0.0000 12.1823 0.0000 14.9366
#
#
#
# Elastic Compliance Matrix: (Units=1/GPa)
#
#
# Indices 1 2 3 4 5 6 
#
# 1 0.028141 -0.005688 0.002268 0.000000 -0.042037 0.000000
# 2 -0.005688 0.017197 0.001262 0.000000 0.008368 0.000000
# 3 0.002268 0.001262 0.015641 0.000000 -0.012869 0.000000
# 4 0.000000 0.000000 0.000000 0.052638 0.000000 -0.042931
# 5 -0.042037 0.008368 -0.012869 0.000000 0.117014 0.000000
# 6 0.000000 0.000000 0.000000 -0.042931 0.000000 0.101964
#
#
# Mechanical properties :
#
#
# Convention : Reuss Voigt Hill
#
# Bulk Modulus (GPa) = 17.64828 27.63213 22.64020
# Shear Modulus (GPa) = 14.05292 26.39433 20.22363
#
# Velocity S-wave (km/s) = 2.62099 3.59201 3.14421
# Velocity P-wave (km/s) = 4.21741 5.54175 4.92430
#
# Compressibility (1/GPa) = 0.05666276
#
# Stress axis : x y z
#
# Youngs Moduli (GPa) = 35.53500 58.15019 63.93578
#
# Poissons Ratio (x) = 0.33074 -0.14500
# Poissons Ratio (y) = 0.20211 -0.08067
# Poissons Ratio (z) = -0.08059 -0.07337
#
# Static dielectric constant tensor:
#      x y z
#    x 1.742940 0.000000 -0.031390 
#    y 0.000000 1.752220 0.000000 
#    z -0.031390 0.000000 1.725130 
# 
# From -- ./inp_files/290516.got.cif
#   From: 2010.05.17/outbox.cif.g08.bks.cpg/sg15_146_cif.got.tgz:290516.got - 2010.06.03 18:47:42.
