data_PCOD9282965
_publ_section_title
;
Structure prediction by ZEFSAII (Michael W. Deem and Ramdas Pophale) SiO2 
 PCOD9282965
Probable space group: C 2/C
;
_chemical_formula_sum "Si O2"
_cell_formula_units_Z 44
_cell_length_a 18.805437
_cell_length_b 9.658951
_cell_length_c 9.449819
_cell_angle_alpha 90.000000
_cell_angle_beta 75.329013
_cell_angle_gamma 90.000000
_cell_volume 1660.508972
_symmetry_space_group_name_H-M "C 2/C"
_symmetry_group_IT_number 15
_symmetry_cell_setting 'monoclinic'
loop_
_space_group_symop_operation_xyz
x,y,z
-x,y,1/2-z
-x,-y,-z
x,-y,1/2+z
1/2+x,1/2+y,z
1/2-x,1/2+y,1/2-z
1/2-x,1/2-y,-z
1/2+x,1/2-y,1/2+z
loop_
_atom_site_type_symbol
_atom_site_label
_atom_site_fract_x
_atom_site_fract_y
_atom_site_fract_z
Si Si1 0.403022 0.412994 0.037980
Si Si2 0.307557 0.187915 0.209417
Si Si3 0.141420 0.602107 0.765297
Si Si4 0.250000 0.750000 0.500000
Si Si5 0.360956 0.279725 0.469751
Si Si6 0.500000 0.320633 0.250000
Si Si7 0.500000 0.728957 0.250000
O O1 0.335412 0.301008 0.074985
O O2 0.372132 0.563642 0.019730
O O3 0.444826 0.601325 0.667642
O O4 0.460698 0.362793 0.891003
O O5 0.311609 0.263204 0.355748
O O6 0.360979 0.059820 0.199714
O O7 0.237308 0.147196 0.154074
O O8 0.198255 0.626910 0.609708
O O9 0.164497 0.678168 0.896851
O O10 0.064268 0.672487 0.771199
O O11 0.443660 0.239263 0.377195
#
# Coordination Sequence:
#
# PCOD9282965 Si02
#       7
#     8   8   8   4   8   4   4
#     4  11  24  43  74 114 156 205 254 320 390 463
#     4  11  28  50  77 114 153 202 267 321 392 466
#     4  12  28  50  81 116 159 208 258 327 397 463
#     4  12  28  54  76 106 154 210 262 318 388 474
#     4  11  25  43  73 114 155 205 256 324 386 467
#     4  10  21  39  66 108 159 195 252 308 379 469
#     4  12  25  47  80 118 161 207 254 330 391 471
#
# _framework density 26.497902
#
# number of rings (size 3 to 8) (size 9 to 14) (size 15 to 20)
#    0.000    0.727    3.636    2.182    5.091    7.273 
#    0.000    0.000    0.000    0.000    0.000    0.000 
#    0.000    0.000    0.000    0.000    0.000    0.000 
#
# Total GULP energy -122859.659222 kJ/mol
# GULP energy per Si atom -5584.529965 kJ/mol
# Density = 2.643759 g / cm^3
# Si number density = 26.497902 Si / 1000 Ang^3
#
#
#
# Elastic Constant Matrix: (Units=GPa)
#
#
# Indices 1 2 3 4 5 6 
#
# 1 148.5784 49.6445 59.3948 0.0000 23.9149 0.0000
# 2 49.6445 133.4949 45.1507 0.0000 7.4475 0.0000
# 3 59.3948 45.1507 181.8591 0.0000 20.5268 0.0000
# 4 0.0000 0.0000 0.0000 32.0893 0.0000 10.7265
# 5 23.9149 7.4475 20.5268 0.0000 70.5666 0.0000
# 6 0.0000 0.0000 0.0000 10.7265 0.0000 3.3111
#
#
#
# Elastic Compliance Matrix: (Units=1/GPa)
#
#
# Indices 1 2 3 4 5 6 
#
# 1 0.008680 -0.002437 -0.001992 0.000000 -0.002105 0.000000
# 2 -0.002437 0.008867 -0.001441 0.000000 0.000309 0.000000
# 3 -0.001992 -0.001441 0.006631 0.000000 -0.001102 0.000000
# 4 0.000000 0.000000 0.000000 -0.375975 0.000000 1.217984
# 5 -0.002105 0.000309 -0.001102 0.000000 0.015172 0.000000
# 6 0.000000 0.000000 0.000000 1.217984 0.000000 -3.643696
#
#
# Mechanical properties :
#
#
# Convention : Reuss Voigt Hill
#
# Bulk Modulus (GPa) = 80.38943 85.81249 83.10096
# Shear Modulus (GPa) = -1.26121 41.84290 20.29084
#
# Velocity S-wave (km/s) = -0.69065 3.97810 2.77023
# Velocity P-wave (km/s) = 5.45600 7.31815 6.45458
#
# Compressibility (1/GPa) = 0.01243945
#
# Stress axis : x y z
#
# Youngs Moduli (GPa) = 115.20965 112.77724 150.79675
#
# Poissons Ratio (x) = 0.27480 0.30043
# Poissons Ratio (y) = 0.28072 0.21723
# Poissons Ratio (z) = 0.22953 0.16246
#
# Static dielectric constant tensor:
#      x y z
#    x 2.596360 0.000000 0.071790 
#    y 0.000000 2.139440 0.000000 
#    z 0.071790 0.000000 2.144670 
# 
# From -- ./inp_files/116707.got.cif
#   From: 2010.05.17/outbox.cif.g08.bks.cpg/sg15_59_cif.got.tgz:116707.got - 2010.06.03 18:47:42.
