data_PCOD9282260
_publ_section_title
;
Structure prediction by ZEFSAII (Michael W. Deem and Ramdas Pophale) SiO2 
 PCOD9282260
Probable space group: C 2/C
;
_chemical_formula_sum "Si O2"
_cell_formula_units_Z 64
_cell_length_a 20.851518
_cell_length_b 8.586354
_cell_length_c 14.406361
_cell_angle_alpha 90.000000
_cell_angle_beta 93.006926
_cell_angle_gamma 90.000000
_cell_volume 2575.742311
_symmetry_space_group_name_H-M "C 2/C"
_symmetry_group_IT_number 15
_symmetry_cell_setting 'monoclinic'
loop_
_space_group_symop_operation_xyz
x,y,z
-x,y,1/2-z
-x,-y,-z
x,-y,1/2+z
1/2+x,1/2+y,z
1/2-x,1/2+y,1/2-z
1/2-x,1/2-y,-z
1/2+x,1/2-y,1/2+z
loop_
_atom_site_type_symbol
_atom_site_label
_atom_site_fract_x
_atom_site_fract_y
_atom_site_fract_z
Si Si1 0.800022 0.608166 0.909096
Si Si2 0.601356 0.949848 0.862699
Si Si3 0.605709 0.153009 0.026990
Si Si4 0.394297 0.666853 0.499046
Si Si5 0.312782 0.406846 0.555524
Si Si6 0.066731 0.126649 0.199114
Si Si7 0.565441 0.716624 0.705292
Si Si8 0.684307 0.178102 0.784498
O O1 0.861487 0.493954 0.920116
O O2 0.828229 0.769429 0.947645
O O3 0.746440 0.520699 0.963602
O O4 0.775684 0.637246 0.803031
O O5 0.584780 0.872880 0.762516
O O6 0.670665 0.025295 0.845026
O O7 0.591083 0.802159 0.927636
O O8 0.575255 0.090545 0.927829
O O9 0.560525 0.236197 0.097460
O O10 0.664777 0.271014 0.011736
O O11 0.376658 0.514193 0.556642
O O12 0.439976 0.642905 0.413675
O O13 0.294352 0.316152 0.647824
O O14 0.115378 0.258649 0.240314
O O15 0.000000 0.143524 0.250000
O O16 0.099192 0.953346 0.213060
O O17 0.500000 0.676344 0.750000
#
# Coordination Sequence:
#
# PCOD9282260 Si02
#       8
#     8   8   8   8   8   8   8   8
#     4  10  21  39  60  89 123 163 204 256 317 369
#     4  10  22  40  62  90 127 162 205 259 315 374
#     4  10  21  41  61  90 129 160 207 265 308 378
#     4  10  21  40  63  90 123 160 209 264 306 377
#     4  11  21  38  62  91 121 164 205 256 314 370
#     4  10  22  43  64  89 124 169 209 258 320 372
#     4  11  22  41  65  90 126 171 210 261 321 373
#     4  10  22  40  59  90 128 160 207 258 306 382
#
# _framework density 24.847207000000001
#
# number of rings (size 3 to 8) (size 9 to 14) (size 15 to 20)
#    0.000    1.750    2.500    1.500    0.000    2.000 
#    6.750    4.375    0.000    0.000    0.000    0.000 
#    0.000    0.000    0.000    0.000    0.000    0.000 
#
# Total GULP energy -178232.074971 kJ/mol
# GULP energy per Si atom -5569.752343 kJ/mol
# Density = 2.479065 g / cm^3
# Si number density = 24.847207 Si / 1000 Ang^3
#
#
#
# Elastic Constant Matrix: (Units=GPa)
#
#
# Indices 1 2 3 4 5 6 
#
# 1 24.6701 31.8952 3.5588 0.0000 -0.8075 0.0000
# 2 31.8952 88.3706 70.6378 0.0000 -45.7980 0.0000
# 3 3.5588 70.6378 85.6867 0.0000 13.7201 0.0000
# 4 0.0000 0.0000 0.0000 -1.6380 0.0000 -17.2681
# 5 -0.8075 -45.7980 13.7201 0.0000 -12.0841 0.0000
# 6 0.0000 0.0000 0.0000 -17.2681 0.0000 19.9564
#
#
#
# Elastic Compliance Matrix: (Units=1/GPa)
#
#
# Indices 1 2 3 4 5 6 
#
# 1 0.049853 -0.006647 -0.000077 0.000000 0.021774 0.000000
# 2 -0.006647 0.004755 -0.000702 0.000000 -0.018372 0.000000
# 3 -0.000077 -0.000702 0.010006 0.000000 0.014026 0.000000
# 4 0.000000 0.000000 0.000000 -0.060314 0.000000 -0.052189
# 5 0.021774 -0.018372 0.014026 0.000000 0.001346 0.000000
# 6 0.000000 0.000000 0.000000 -0.052189 0.000000 0.004950
#
#
# Mechanical properties :
#
#
# Convention : Reuss Voigt Hill
#
# Bulk Modulus (GPa) = 20.09583 45.65678 32.87631
# Shear Modulus (GPa) = 118.94595 7.42258 63.18426
#
# Velocity S-wave (km/s) = 6.92639 1.73025 5.04820
# Velocity P-wave (km/s) = 8.48951 4.73356 6.87308
#
# Compressibility (1/GPa) = 0.04976156
#
# Stress axis : x y z
#
# Youngs Moduli (GPa) = 20.05906 210.32183 99.93673
#
# Poissons Ratio (x) = 1.39806 0.00770
# Poissons Ratio (y) = 0.13334 0.07013
# Poissons Ratio (z) = 0.00155 0.14759
#
# Static dielectric constant tensor:
#      x y z
#    x 2.008220 0.000000 0.037560 
#    y 0.000000 2.024740 0.000000 
#    z 0.037560 0.000000 2.046860 
# 
# From -- ./inp_files/172379.got.cif
#   From: 2010.05.17/outbox.cif.g08.bks.cpg/sg15_87_cif.got.tgz:172379.got - 2010.06.03 18:47:42.
