data_PCOD9282645
_publ_section_title
;
Structure prediction by ZEFSAII (Michael W. Deem and Ramdas Pophale) SiO2 
 PCOD9282645
Probable space group: C 2/C
;
_chemical_formula_sum "Si O2"
_cell_formula_units_Z 40
_cell_length_a 13.564151
_cell_length_b 9.386057
_cell_length_c 15.460276
_cell_angle_alpha 90.000000
_cell_angle_beta 56.952558
_cell_angle_gamma 90.000000
_cell_volume 1649.873727
_symmetry_space_group_name_H-M "C 2/C"
_symmetry_group_IT_number 15
_symmetry_cell_setting 'monoclinic'
loop_
_space_group_symop_operation_xyz
x,y,z
-x,y,1/2-z
-x,-y,-z
x,-y,1/2+z
1/2+x,1/2+y,z
1/2-x,1/2+y,1/2-z
1/2-x,1/2-y,-z
1/2+x,1/2-y,1/2+z
loop_
_atom_site_type_symbol
_atom_site_label
_atom_site_fract_x
_atom_site_fract_y
_atom_site_fract_z
Si Si1 0.893792 0.316930 0.865170
Si Si2 0.377508 0.049142 0.013283
Si Si3 0.755731 0.364202 0.194974
Si Si4 0.524510 0.564292 0.895115
Si Si5 0.996658 0.761052 0.654245
O O1 0.852595 0.445901 0.944011
O O2 0.798114 0.243071 0.850215
O O3 0.000000 0.359594 0.750000
O O4 0.945793 0.197573 0.905123
O O5 0.402631 0.200702 0.958157
O O6 0.283555 0.013419 0.132238
O O7 0.500000 0.000000 0.000000
O O8 0.658787 0.389992 0.314386
O O9 0.874174 0.295200 0.173720
O O10 0.498155 0.430587 0.846547
O O11 0.500000 0.500000 0.000000
O O12 0.000000 0.705054 0.750000
#
# Coordination Sequence:
#
# PCOD9282645 Si02
#       5
#     8   8   8   8   8
#     4  10  21  41  65  89 124 169 206 242 301 379
#     4  10  21  39  63  94 125 158 203 255 303 363
#     4  10  23  40  64  90 123 169 209 243 306 378
#     4  11  24  43  63  90 126 164 205 255 307 365
#     4  11  24  41  63  95 126 156 205 265 309 353
#
# _framework density 24.244281000000001
#
# number of rings (size 3 to 8) (size 9 to 14) (size 15 to 20)
#    0.000    1.600    0.000    5.400    0.000   11.200 
#    0.000    3.000    0.000    0.000    0.000    0.000 
#    0.000    0.000    0.000    0.000    0.000    0.000 
#
# Total GULP energy -112031.757330 kJ/mol
# GULP energy per Si atom -5601.587867 kJ/mol
# Density = 2.418910 g / cm^3
# Si number density = 24.244281 Si / 1000 Ang^3
#
#
#
# Elastic Constant Matrix: (Units=GPa)
#
#
# Indices 1 2 3 4 5 6 
#
# 1 68.0439 -4.9678 36.8558 0.0000 -2.3699 0.0000
# 2 -4.9678 78.1817 -4.6237 0.0000 -7.8818 0.0000
# 3 36.8558 -4.6237 114.5117 0.0000 9.5755 0.0000
# 4 0.0000 0.0000 0.0000 28.1019 0.0000 3.1679
# 5 -2.3699 -7.8818 9.5755 0.0000 28.9102 0.0000
# 6 0.0000 0.0000 0.0000 3.1679 0.0000 14.8336
#
#
#
# Elastic Compliance Matrix: (Units=1/GPa)
#
#
# Indices 1 2 3 4 5 6 
#
# 1 0.018247 0.001184 -0.006147 0.000000 0.003855 0.000000
# 2 0.001184 0.013235 -0.000161 0.000000 0.003759 0.000000
# 3 -0.006147 -0.000161 0.011057 0.000000 -0.004210 0.000000
# 4 0.000000 0.000000 0.000000 0.036463 0.000000 -0.007787
# 5 0.003855 0.003759 -0.004210 0.000000 0.037325 0.000000
# 6 0.000000 0.000000 0.000000 -0.007787 0.000000 0.069078
#
#
# Mechanical properties :
#
#
# Convention : Reuss Voigt Hill
#
# Bulk Modulus (GPa) = 30.96825 35.02954 32.99890
# Shear Modulus (GPa) = 24.22295 29.93401 27.07848
#
# Velocity S-wave (km/s) = 3.16432 3.51762 3.34563
# Velocity P-wave (km/s) = 5.11387 5.56580 5.34461
#
# Compressibility (1/GPa) = 0.03229114
#
# Stress axis : x y z
#
# Youngs Moduli (GPa) = 54.80424 75.55497 90.44231
#
# Poissons Ratio (x) = -0.08949 0.55597
# Poissons Ratio (y) = -0.06491 0.01457
# Poissons Ratio (z) = 0.33690 0.01217
#
# Static dielectric constant tensor:
#      x y z
#    x 1.912410 0.000000 -0.013100 
#    y 0.000000 1.923040 0.000000 
#    z -0.013100 0.000000 1.965560 
# 
# From -- ./inp_files/150620.got.cif
#   From: 2010.05.17/outbox.cif.g08.bks.cpg/sg15_76_cif.got.tgz:150620.got - 2010.06.03 18:47:42.
