data_PCOD9282528
_publ_section_title
;
Structure prediction by ZEFSAII (Michael W. Deem and Ramdas Pophale) SiO2 
 PCOD9282528
Probable space group: C 2/C
;
_chemical_formula_sum "Si O2"
_cell_formula_units_Z 56
_cell_length_a 14.629361
_cell_length_b 13.816770
_cell_length_c 11.795687
_cell_angle_alpha 90.000000
_cell_angle_beta 83.241527
_cell_angle_gamma 90.000000
_cell_volume 2367.700175
_symmetry_space_group_name_H-M "C 2/C"
_symmetry_group_IT_number 15
_symmetry_cell_setting 'monoclinic'
loop_
_space_group_symop_operation_xyz
x,y,z
-x,y,1/2-z
-x,-y,-z
x,-y,1/2+z
1/2+x,1/2+y,z
1/2-x,1/2+y,1/2-z
1/2-x,1/2-y,-z
1/2+x,1/2-y,1/2+z
loop_
_atom_site_type_symbol
_atom_site_label
_atom_site_fract_x
_atom_site_fract_y
_atom_site_fract_z
Si Si1 0.288913 0.977248 0.967829
Si Si2 0.379065 0.293222 0.385683
Si Si3 0.580586 0.497406 0.081031
Si Si4 0.832071 0.301711 0.123603
Si Si5 0.840530 0.676172 0.042828
Si Si6 0.407847 0.898168 0.765962
Si Si7 0.869991 0.796175 0.848558
O O1 0.335085 0.907292 0.058602
O O2 0.180805 0.985574 0.006555
O O3 0.324969 0.085625 0.963785
O O4 0.318302 0.938367 0.841504
O O5 0.426701 0.394657 0.355054
O O6 0.278026 0.292661 0.342678
O O7 0.360183 0.274528 0.521800
O O8 0.428509 0.198306 0.334812
O O9 0.592103 0.593994 0.156249
O O10 0.500000 0.500000 0.000000
O O11 0.881213 0.267275 0.232768
O O12 0.887837 0.631634 0.143462
O O13 0.739956 0.706500 0.105603
O O14 0.902879 0.750493 0.963401
O O15 0.500000 0.962352 0.750000
#
# Coordination Sequence:
#
# PCOD9282528 Si02
#       7
#     8   8   8   8   8   8   8
#     4   9  22  42  70  99 129 181 223 281 340 420
#     4   9  19  39  63  92 131 177 222 276 328 418
#     4  10  22  41  67 101 142 177 225 276 346 409
#     4   9  17  38  68  91 124 176 227 268 344 401
#     4  10  22  39  64  96 133 168 224 281 342 402
#     4  11  23  40  69  95 127 179 229 284 337 401
#     4  10  21  39  62  99 134 179 219 282 337 411
#
# _framework density 23.651643
#
# number of rings (size 3 to 8) (size 9 to 14) (size 15 to 20)
#    0.000    2.286    1.429    0.857    4.000    0.571 
#    2.571    0.714    0.000    0.000    0.000    0.000 
#    0.000    0.000    0.000    0.000    0.000    0.000 
#
# Total GULP energy -156115.155309 kJ/mol
# GULP energy per Si atom -5575.541261 kJ/mol
# Density = 2.359781 g / cm^3
# Si number density = 23.651643 Si / 1000 Ang^3
#
#
#
# Elastic Constant Matrix: (Units=GPa)
#
#
# Indices 1 2 3 4 5 6 
#
# 1 53.9629 5.0300 23.4312 0.0000 -4.8631 0.0000
# 2 5.0300 101.6485 14.6460 0.0000 -6.9041 0.0000
# 3 23.4312 14.6460 91.6210 0.0000 10.2499 0.0000
# 4 0.0000 0.0000 0.0000 9.2237 0.0000 6.7780
# 5 -4.8631 -6.9041 10.2499 0.0000 21.6655 0.0000
# 6 0.0000 0.0000 0.0000 6.7780 0.0000 0.4052
#
#
#
# Elastic Compliance Matrix: (Units=1/GPa)
#
#
# Indices 1 2 3 4 5 6 
#
# 1 0.022121 0.000423 -0.006647 0.000000 0.008245 0.000000
# 2 0.000423 0.010452 -0.002283 0.000000 0.004506 0.000000
# 3 -0.006647 -0.002283 0.013967 0.000000 -0.008827 0.000000
# 4 0.000000 0.000000 0.000000 -0.009601 0.000000 0.160601
# 5 0.008245 0.004506 -0.008827 0.000000 0.053619 0.000000
# 6 0.000000 0.000000 0.000000 0.160601 0.000000 -0.218550
#
#
# Mechanical properties :
#
#
# Convention : Reuss Voigt Hill
#
# Bulk Modulus (GPa) = 33.86891 37.04963 35.45927
# Shear Modulus (GPa) = -49.43870 19.86723 -14.78574
#
# Velocity S-wave (km/s) = -4.57692 2.90141 -2.50300
# Velocity P-wave (km/s) = 3.68511 5.18873 2.58292
#
# Compressibility (1/GPa) = 0.02952560
#
# Stress axis : x y z
#
# Youngs Moduli (GPa) = 45.20557 95.67657 71.59724
#
# Poissons Ratio (x) = -0.04049 0.47593
# Poissons Ratio (y) = -0.01913 0.16346
# Poissons Ratio (z) = 0.30050 0.21844
#
# Static dielectric constant tensor:
#      x y z
#    x 1.148480 0.000000 1.182900 
#    y 0.000000 1.988000 0.000000 
#    z 1.182900 0.000000 0.301240 
# 
# From -- ./inp_files/97029.got.cif
#   From: 2010.05.17/outbox.cif.g08.bks.cpg/sg15_49_cif.got.tgz:97029.got - 2010.06.03 18:47:42.
