data_PCOD9282516
_publ_section_title
;
Structure prediction by ZEFSAII (Michael W. Deem and Ramdas Pophale) SiO2 
 PCOD9282516
Probable space group: C 2/C
;
_chemical_formula_sum "Si O2"
_cell_formula_units_Z 48
_cell_length_a 15.671000
_cell_length_b 26.722332
_cell_length_c 9.566470
_cell_angle_alpha 90.000000
_cell_angle_beta 33.084469
_cell_angle_gamma 90.000000
_cell_volume 2186.834294
_symmetry_space_group_name_H-M "C 2/C"
_symmetry_group_IT_number 15
_symmetry_cell_setting 'monoclinic'
loop_
_space_group_symop_operation_xyz
x,y,z
-x,y,1/2-z
-x,-y,-z
x,-y,1/2+z
1/2+x,1/2+y,z
1/2-x,1/2+y,1/2-z
1/2-x,1/2-y,-z
1/2+x,1/2-y,1/2+z
loop_
_atom_site_type_symbol
_atom_site_label
_atom_site_fract_x
_atom_site_fract_y
_atom_site_fract_z
Si Si1 0.379097 0.851340 0.041434
Si Si2 0.091342 0.333257 0.008499
Si Si3 0.166226 0.762606 0.972498
Si Si4 0.769735 0.565926 0.114995
Si Si5 0.893803 0.932417 0.126160
Si Si6 0.233553 0.991667 0.932623
O O1 0.348715 0.791524 0.078480
O O2 0.222831 0.885185 0.239963
O O3 0.500000 0.863858 0.750000
O O4 0.478910 0.855538 0.044600
O O5 0.229856 0.301525 0.752302
O O6 0.162840 0.379637 0.992153
O O7 0.000000 0.301373 0.250000
O O8 0.250000 0.750000 0.000000
O O9 0.000000 0.783626 0.250000
O O10 0.580716 0.573176 0.368546
O O11 0.813794 0.543590 0.207028
O O12 0.820348 0.529013 0.920647
O O13 0.852650 0.956308 0.334755
O O14 0.857754 0.971542 0.049876
#
# Coordination Sequence:
#
# PCOD9282516 Si02
#       6
#     8   8   8   8   8   8
#     4  11  24  44  65  96 133 171 222 279 327 406
#     4  12  27  45  67 104 142 169 217 286 341 391
#     4  11  24  48  76  98 131 177 227 268 330 411
#     4  11  22  39  66  93 130 177 222 270 329 393
#     4  11  21  38  66  92 128 174 226 274 326 388
#     4  10  21  39  62  95 128 172 230 276 316 392
#
# _framework density 21.949536999999999
#
# number of rings (size 3 to 8) (size 9 to 14) (size 15 to 20)
#    0.000    1.000    3.333    6.000    2.333    0.667 
#    0.000   18.333    0.000    0.000    0.000    0.000 
#    0.000    0.000    0.000    0.000    0.000    0.000 
#
# Total GULP energy -133991.843571 kJ/mol
# GULP energy per Si atom -5582.993482 kJ/mol
# Density = 2.189958 g / cm^3
# Si number density = 21.949537 Si / 1000 Ang^3
#
#
#
# Elastic Constant Matrix: (Units=GPa)
#
#
# Indices 1 2 3 4 5 6 
#
# 1 100.3703 26.7455 67.6255 0.0003 13.9493 -0.0001
# 2 26.7455 91.5323 59.1292 0.0000 -5.7872 0.0000
# 3 67.6255 59.1292 154.1271 0.0003 10.9506 -0.0001
# 4 0.0003 0.0000 0.0003 40.9749 -0.0001 -15.3346
# 5 13.9493 -5.7872 10.9506 -0.0001 31.2892 0.0000
# 6 -0.0001 0.0000 -0.0001 -15.3346 0.0000 39.3610
#
#
#
# Elastic Compliance Matrix: (Units=1/GPa)
#
#
# Indices 1 2 3 4 5 6 
#
# 1 0.014763 -0.000854 -0.005815 0.000000 -0.004704 0.000000
# 2 -0.000854 0.015298 -0.005868 0.000000 0.005264 0.000000
# 3 -0.005815 -0.005868 0.011469 0.000000 -0.002507 0.000000
# 4 0.000000 0.000000 0.000000 0.028571 0.000000 0.011131
# 5 -0.004704 0.005264 -0.002507 0.000000 0.035908 0.000000
# 6 0.000000 0.000000 0.000000 0.011131 0.000000 0.029742
#
#
# Mechanical properties :
#
#
# Convention : Reuss Voigt Hill
#
# Bulk Modulus (GPa) = 60.77427 72.55890 66.66658
# Shear Modulus (GPa) = 30.06396 35.16033 32.61214
#
# Velocity S-wave (km/s) = 3.70494 4.00668 3.85876
# Velocity P-wave (km/s) = 6.78604 7.38468 7.09168
#
# Compressibility (1/GPa) = 0.01645433
#
# Stress axis : x y z
#
# Youngs Moduli (GPa) = 67.73829 65.36626 87.19080
#
# Poissons Ratio (x) = 0.05585 0.50704
# Poissons Ratio (y) = 0.05787 0.51166
# Poissons Ratio (z) = 0.39392 0.38358
#
# Static dielectric constant tensor:
#      x y z
#    x 1.761070 0.000000 0.005460 
#    y 0.000000 1.829270 0.000000 
#    z 0.005460 0.000000 1.819470 
# 
# From -- ./inp_files/43817.got.cif
#   From: 2010.05.17/outbox.cif.g08.bks.cpg/sg15_22_cif.got.tgz:43817.got - 2010.06.03 18:47:42.
