data_PCOD9282564
_publ_section_title
;
Structure prediction by ZEFSAII (Michael W. Deem and Ramdas Pophale) SiO2 
 PCOD9282564
Probable space group: C 2/C
;
_chemical_formula_sum "Si O2"
_cell_formula_units_Z 40
_cell_length_a 8.624356
_cell_length_b 8.333053
_cell_length_c 31.009566
_cell_angle_alpha 90.000000
_cell_angle_beta 129.878074
_cell_angle_gamma 90.000000
_cell_volume 1710.229061
_symmetry_space_group_name_H-M "C 2/C"
_symmetry_group_IT_number 15
_symmetry_cell_setting 'monoclinic'
loop_
_space_group_symop_operation_xyz
x,y,z
-x,y,1/2-z
-x,-y,-z
x,-y,1/2+z
1/2+x,1/2+y,z
1/2-x,1/2+y,1/2-z
1/2-x,1/2-y,-z
1/2+x,1/2-y,1/2+z
loop_
_atom_site_type_symbol
_atom_site_label
_atom_site_fract_x
_atom_site_fract_y
_atom_site_fract_z
Si Si1 0.758265 0.484426 0.714908
Si Si2 0.131030 0.501445 0.086707
Si Si3 0.303878 0.378086 0.385624
Si Si4 0.719103 0.435024 0.481913
Si Si5 0.153481 0.377276 0.180777
O O1 0.678952 0.599952 0.663014
O O2 0.661944 0.311713 0.690411
O O3 0.000000 0.471852 0.750000
O O4 0.270801 0.542549 0.741440
O O5 0.167325 0.691397 0.098473
O O6 0.224656 0.450109 0.058286
O O7 0.221774 0.417471 0.144864
O O8 0.889264 0.469127 0.038559
O O9 0.481910 0.474370 0.441640
O O10 0.079776 0.432765 0.357800
O O11 0.750000 0.250000 0.500000
#
# Coordination Sequence:
#
# PCOD9282564 Si02
#       5
#     8   8   8   8   8
#     4  10  23  39  58  90 122 153 197 249 300 355
#     4  10  21  39  63  89 120 161 199 243 300 354
#     4  10  21  40  61  87 123 156 197 247 296 356
#     4   9  20  39  61  88 123 158 198 247 298 354
#     4  11  23  39  63  89 117 158 202 245 299 357
#
# _framework density 23.388681999999999
#
# number of rings (size 3 to 8) (size 9 to 14) (size 15 to 20)
#    0.000    2.000    0.000    2.400    0.000   10.400 
#    0.000   14.000    0.000    0.000    0.000    0.000 
#    0.000    0.000    0.000    0.000    0.000    0.000 
#
# Total GULP energy -111847.012234 kJ/mol
# GULP energy per Si atom -5592.350612 kJ/mol
# Density = 2.333545 g / cm^3
# Si number density = 23.388682 Si / 1000 Ang^3
#
#
#
# Elastic Constant Matrix: (Units=GPa)
#
#
# Indices 1 2 3 4 5 6 
#
# 1 36.9350 11.1163 46.8836 0.0000 0.8780 0.0000
# 2 11.1163 48.2224 23.5860 0.0000 -25.1929 0.0000
# 3 46.8836 23.5860 139.2980 0.0000 -25.7730 0.0000
# 4 0.0000 0.0000 0.0000 42.6004 0.0000 -8.6546
# 5 0.8780 -25.1929 -25.7730 0.0000 67.5945 0.0000
# 6 0.0000 0.0000 0.0000 -8.6546 0.0000 23.0908
#
#
#
# Elastic Compliance Matrix: (Units=1/GPa)
#
#
# Indices 1 2 3 4 5 6 
#
# 1 0.053693 -0.009128 -0.018596 0.000000 -0.011190 0.000000
# 2 -0.009128 0.028345 0.000268 0.000000 0.010785 0.000000
# 3 -0.018596 0.000268 0.014477 0.000000 0.005861 0.000000
# 4 0.000000 0.000000 0.000000 0.025409 0.000000 0.009523
# 5 -0.011190 0.010785 0.005861 0.000000 0.021194 0.000000
# 6 0.000000 0.000000 0.000000 0.009523 0.000000 0.046877
#
#
# Mechanical properties :
#
#
# Convention : Reuss Voigt Hill
#
# Bulk Modulus (GPa) = 24.03675 43.06967 33.55321
# Shear Modulus (GPa) = 19.32191 36.18179 27.75185
#
# Velocity S-wave (km/s) = 2.87735 3.93743 3.44837
# Velocity P-wave (km/s) = 4.61934 6.25507 5.49837
#
# Compressibility (1/GPa) = 0.04160296
#
# Stress axis : x y z
#
# Youngs Moduli (GPa) = 18.62433 35.28000 69.07550
#
# Poissons Ratio (x) = 0.32203 1.28456
# Poissons Ratio (y) = 0.17000 -0.01853
# Poissons Ratio (z) = 0.34635 -0.00946
#
# Static dielectric constant tensor:
#      x y z
#    x 1.939550 0.000000 0.050490 
#    y 0.000000 1.803220 0.000000 
#    z 0.050490 0.000000 1.881480 
# 
# From -- ./inp_files/306559.got.cif
#   From: 2010.05.17/outbox.cif.g08.bks.cpg/sg15_154_cif.got.tgz:306559.got - 2010.06.03 18:47:42.
