data_PCOD9282626
_publ_section_title
;
Structure prediction by ZEFSAII (Michael W. Deem and Ramdas Pophale) SiO2 
 PCOD9282626
Probable space group: C 2/C
;
_chemical_formula_sum "Si O2"
_cell_formula_units_Z 64
_cell_length_a 29.278268
_cell_length_b 13.374675
_cell_length_c 21.337334
_cell_angle_alpha 90.000000
_cell_angle_beta 158.992249
_cell_angle_gamma 90.000000
_cell_volume 2995.373331
_symmetry_space_group_name_H-M "C 2/C"
_symmetry_group_IT_number 15
_symmetry_cell_setting 'monoclinic'
loop_
_space_group_symop_operation_xyz
x,y,z
-x,y,1/2-z
-x,-y,-z
x,-y,1/2+z
1/2+x,1/2+y,z
1/2-x,1/2+y,1/2-z
1/2-x,1/2-y,-z
1/2+x,1/2-y,1/2+z
loop_
_atom_site_type_symbol
_atom_site_label
_atom_site_fract_x
_atom_site_fract_y
_atom_site_fract_z
Si Si1 0.459954 0.091002 0.905348
Si Si2 0.176072 0.087268 0.897082
Si Si3 0.380904 0.434751 0.321316
Si Si4 0.278465 0.602998 0.986139
Si Si5 0.353492 0.819574 0.056416
Si Si6 0.724705 0.095197 0.175068
Si Si7 0.441433 0.194371 0.242413
Si Si8 0.446383 0.741305 0.486381
O O1 0.340909 0.070760 0.708691
O O2 0.588057 0.112324 0.030618
O O3 0.416980 0.181489 0.894348
O O4 0.500000 0.000000 0.000000
O O5 0.153699 0.053079 0.796507
O O6 0.103196 0.189830 0.817466
O O7 0.322395 0.119760 0.096185
O O8 0.140822 0.995040 0.895743
O O9 0.500000 0.500000 0.500000
O O10 0.267896 0.479383 0.219852
O O11 0.430216 0.320520 0.381847
O O12 0.221063 0.641298 0.978573
O O13 0.347448 0.699134 0.046175
O O14 0.500000 0.852059 0.250000
O O15 0.286776 0.862131 0.909623
O O16 0.834383 0.159267 0.350560
O O17 0.500000 0.169612 0.250000
O O18 0.525242 0.199059 0.412998
#
# Coordination Sequence:
#
# PCOD9282626 Si02
#       8
#     8   8   8   8   8   8   8   8
#     4  12  26  40  62  97 136 170 215 278 325 378
#     4  10  21  39  63  93 125 162 213 267 311 378
#     4   9  20  39  66  92 123 170 215 262 318 385
#     4  11  23  40  65  92 134 164 213 275 313 385
#     4  11  22  40  66  96 124 173 218 255 326 393
#     4  11  22  42  66  93 128 173 216 260 329 395
#     4  10  23  41  67  90 121 168 213 261 323 381
#     4  10  23  44  63  93 131 169 215 270 324 392
#
# _framework density 21.366285999999999
#
# number of rings (size 3 to 8) (size 9 to 14) (size 15 to 20)
#    0.000    1.500    3.750    0.750    0.000    8.000 
#    0.000    1.250    0.000    0.000    0.000    0.000 
#    0.000    0.000    0.000    0.000    0.000    0.000 
#
# Total GULP energy -178598.278468 kJ/mol
# GULP energy per Si atom -5581.196202 kJ/mol
# Density = 2.131766 g / cm^3
# Si number density = 21.366286 Si / 1000 Ang^3
#
#
#
# Elastic Constant Matrix: (Units=GPa)
#
#
# Indices 1 2 3 4 5 6 
#
# 1 52.1932 0.2109 11.5539 0.0000 -15.4635 0.0000
# 2 0.2109 72.7363 1.8576 0.0000 -14.1359 0.0000
# 3 11.5539 1.8576 78.0652 0.0000 -26.2736 0.0000
# 4 0.0000 0.0000 0.0000 18.5914 0.0000 -8.7794
# 5 -15.4635 -14.1359 -26.2736 0.0000 34.4601 0.0000
# 6 0.0000 0.0000 0.0000 -8.7794 0.0000 13.4446
#
#
#
# Elastic Compliance Matrix: (Units=1/GPa)
#
#
# Indices 1 2 3 4 5 6 
#
# 1 0.022385 0.002106 0.000415 0.000000 0.011225 0.000000
# 2 0.002106 0.015450 0.002383 0.000000 0.009100 0.000000
# 3 0.000415 0.002383 0.017599 0.000000 0.014582 0.000000
# 4 0.000000 0.000000 0.000000 0.077770 0.000000 0.050784
# 5 0.011225 0.009100 0.014582 0.000000 0.048907 0.000000
# 6 0.000000 0.000000 0.000000 0.050784 0.000000 0.107541
#
#
# Mechanical properties :
#
#
# Convention : Reuss Voigt Hill
#
# Bulk Modulus (GPa) = 15.32743 25.58216 20.45479
# Shear Modulus (GPa) = 16.57870 25.92405 21.25137
#
# Velocity S-wave (km/s) = 2.78857 3.48705 3.15718
# Velocity P-wave (km/s) = 4.19015 5.31148 4.78378
#
# Compressibility (1/GPa) = 0.06524253
#
# Stress axis : x y z
#
# Youngs Moduli (GPa) = 44.67283 64.72561 56.81981
#
# Poissons Ratio (x) = -0.13632 -0.02357
# Poissons Ratio (y) = -0.09408 -0.13542
# Poissons Ratio (z) = -0.01853 -0.15426
#
# Static dielectric constant tensor:
#      x y z
#    x 2.119850 0.000000 0.184890 
#    y 0.000000 1.793410 0.000000 
#    z 0.184890 0.000000 1.840100 
# 
# From -- ./inp_files/259450.got.cif
#   From: 2010.05.17/outbox.cif.g08.bks.cpg/sg15_130_cif.got.tgz:259450.got - 2010.06.03 18:47:42.
