data_PCOD9282878
_publ_section_title
;
Structure prediction by ZEFSAII (Michael W. Deem and Ramdas Pophale) SiO2 
 PCOD9282878
Probable space group: C 2/C
;
_chemical_formula_sum "Si O2"
_cell_formula_units_Z 64
_cell_length_a 8.738429
_cell_length_b 28.576194
_cell_length_c 12.073871
_cell_angle_alpha 90.000000
_cell_angle_beta 86.097233
_cell_angle_gamma 90.000000
_cell_volume 3007.987155
_symmetry_space_group_name_H-M "C 2/C"
_symmetry_group_IT_number 15
_symmetry_cell_setting 'monoclinic'
loop_
_space_group_symop_operation_xyz
x,y,z
-x,y,1/2-z
-x,-y,-z
x,-y,1/2+z
1/2+x,1/2+y,z
1/2-x,1/2+y,1/2-z
1/2-x,1/2-y,-z
1/2+x,1/2-y,1/2+z
loop_
_atom_site_type_symbol
_atom_site_label
_atom_site_fract_x
_atom_site_fract_y
_atom_site_fract_z
Si Si1 0.671566 0.385796 0.599583
Si Si2 0.153588 0.131171 0.672774
Si Si3 0.089457 0.175688 0.445068
Si Si4 0.678676 0.194901 0.259534
Si Si5 0.918775 0.456788 0.642699
Si Si6 0.157773 0.640728 0.623145
Si Si7 0.396905 0.242264 0.865580
Si Si8 0.405850 0.935811 0.089990
O O1 0.493999 0.369721 0.608121
O O2 0.762311 0.348669 0.670554
O O3 0.750012 0.434622 0.630744
O O4 0.717387 0.377995 0.469230
O O5 0.127156 0.165143 0.570204
O O6 0.269783 0.149922 0.760662
O O7 0.238872 0.086322 0.615735
O O8 0.000000 0.120954 0.750000
O O9 0.232653 0.190408 0.362103
O O10 0.967463 0.217806 0.439878
O O11 0.500000 0.194379 0.250000
O O12 0.734441 0.239920 0.326887
O O13 0.909657 0.512927 0.642517
O O14 0.000000 0.439996 0.750000
O O15 0.033053 0.441985 0.537994
O O16 0.100781 0.690970 0.583840
O O17 0.027838 0.601414 0.631535
O O18 0.500000 0.241929 0.750000
#
# Coordination Sequence:
#
# PCOD9282878 Si02
#       8
#     8   8   8   8   8   8   8   8
#     4  10  21  39  65  92 129 174 203 274 329 388
#     4  12  24  42  64  94 135 176 218 261 328 398
#     4  10  23  43  63  91 136 172 212 274 329 389
#     4  10  22  40  63  94 128 167 224 277 324 380
#     4  10  21  41  72 104 126 163 228 270 326 386
#     4  11  22  42  67  92 128 179 222 262 332 386
#     4   9  20  42  62  91 130 174 219 270 331 389
#     4  10  24  43  69  97 133 172 213 279 322 389
#
# _framework density 21.276688
#
# number of rings (size 3 to 8) (size 9 to 14) (size 15 to 20)
#    0.000    1.750    1.250    3.375    5.250    2.500 
#    2.250    3.750    0.000    0.000    0.000    0.000 
#    0.000    0.000    0.000    0.000    0.000    0.000 
#
# Total GULP energy -178742.554393 kJ/mol
# GULP energy per Si atom -5585.704825 kJ/mol
# Density = 2.122826 g / cm^3
# Si number density = 21.276688 Si / 1000 Ang^3
#
#
#
# Elastic Constant Matrix: (Units=GPa)
#
#
# Indices 1 2 3 4 5 6 
#
# 1 99.5845 43.3783 38.2939 0.0000 1.8385 0.0000
# 2 43.3783 116.7323 44.7744 0.0000 6.2184 0.0000
# 3 38.2939 44.7744 97.8254 0.0000 20.7632 0.0000
# 4 0.0000 0.0000 0.0000 17.2675 0.0000 -6.5691
# 5 1.8385 6.2184 20.7632 0.0000 33.5467 0.0000
# 6 0.0000 0.0000 0.0000 -6.5691 0.0000 18.3235
#
#
#
# Elastic Compliance Matrix: (Units=1/GPa)
#
#
# Indices 1 2 3 4 5 6 
#
# 1 0.013047 -0.003422 -0.004057 0.000000 0.002430 0.000000
# 2 -0.003422 0.011328 -0.003960 0.000000 0.000538 0.000000
# 3 -0.004057 -0.003960 0.015449 0.000000 -0.008606 0.000000
# 4 0.000000 0.000000 0.000000 0.067058 0.000000 0.024041
# 5 0.002430 0.000538 -0.008606 0.000000 0.034903 0.000000
# 6 0.000000 0.000000 0.000000 0.024041 0.000000 0.063193
#
#
# Mechanical properties :
#
#
# Convention : Reuss Voigt Hill
#
# Bulk Modulus (GPa) = 59.00471 63.00393 61.00432
# Shear Modulus (GPa) = 21.41273 26.34057 23.87665
#
# Velocity S-wave (km/s) = 3.17581 3.52234 3.35356
# Velocity P-wave (km/s) = 6.42184 6.79842 6.61281
#
# Compressibility (1/GPa) = 0.01694780
#
# Stress axis : x y z
#
# Youngs Moduli (GPa) = 76.64309 88.27444 64.72736
#
# Poissons Ratio (x) = 0.30206 0.26261
# Poissons Ratio (y) = 0.26226 0.25631
# Poissons Ratio (z) = 0.31095 0.34955
#
# Static dielectric constant tensor:
#      x y z
#    x 1.796070 0.000000 -0.020340 
#    y 0.000000 1.774140 0.000000 
#    z -0.020340 0.000000 1.794460 
# 
# From -- ./inp_files/82612.got.cif
#   From: 2010.05.17/outbox.cif.g08.bks.cpg/sg15_42_cif.got.tgz:82612.got - 2010.06.03 18:47:42.
