data_PCOD9282949
_publ_section_title
;
Structure prediction by ZEFSAII (Michael W. Deem and Ramdas Pophale) SiO2 
 PCOD9282949
Probable space group: C 2/C
;
_chemical_formula_sum "Si O2"
_cell_formula_units_Z 56
_cell_length_a 5.526933
_cell_length_b 32.403215
_cell_length_c 14.295951
_cell_angle_alpha 90.000000
_cell_angle_beta 92.213209
_cell_angle_gamma 90.000000
_cell_volume 2558.357701
_symmetry_space_group_name_H-M "C 2/C"
_symmetry_group_IT_number 15
_symmetry_cell_setting 'monoclinic'
loop_
_space_group_symop_operation_xyz
x,y,z
-x,y,1/2-z
-x,-y,-z
x,-y,1/2+z
1/2+x,1/2+y,z
1/2-x,1/2+y,1/2-z
1/2-x,1/2-y,-z
1/2+x,1/2-y,1/2+z
loop_
_atom_site_type_symbol
_atom_site_label
_atom_site_fract_x
_atom_site_fract_y
_atom_site_fract_z
Si Si1 0.478212 0.640971 0.359788
Si Si2 0.772062 0.798385 0.510502
Si Si3 0.120017 0.511892 0.402487
Si Si4 0.404731 0.865886 0.503626
Si Si5 0.508557 0.652584 0.645667
Si Si6 0.640796 0.080589 0.848672
Si Si7 0.384875 0.554673 0.144548
O O1 0.500000 0.647670 0.250000
O O2 0.528410 0.683388 0.415335
O O3 0.237955 0.622322 0.404460
O O4 0.655645 0.602515 0.386082
O O5 0.750000 0.750000 0.500000
O O6 0.545884 0.825247 0.539272
O O7 0.815934 0.818180 0.409768
O O8 0.882206 0.534529 0.355224
O O9 0.000000 0.500000 0.500000
O O10 0.168268 0.468233 0.352408
O O11 0.388876 0.533523 0.409614
O O12 0.522455 0.902998 0.444508
O O13 0.229737 0.848620 0.419047
O O14 0.500000 0.667868 0.750000
O O15 0.611256 0.606139 0.649646
O O16 0.500000 0.091893 0.750000
O O17 0.500000 0.555626 0.250000
#
# Coordination Sequence:
#
# PCOD9282949 Si02
#       7
#     8   8   8   8   8   8   8
#     4  10  24  44  69  95 131 184 231 274 346 415
#     4  10  24  45  67 103 134 169 222 285 351 417
#     4  12  27  41  66 100 138 184 241 295 348 400
#     4  10  22  41  68  92 138 169 220 279 341 408
#     4  10  21  39  65  99 134 180 219 272 348 418
#     4  11  22  37  64  97 133 181 227 279 342 411
#     4  11  25  45  64  94 137 186 234 289 338 406
#
# _framework density 21.889043999999998
#
# number of rings (size 3 to 8) (size 9 to 14) (size 15 to 20)
#    0.000    1.429    1.429    2.571   10.000    3.429 
#    5.143    0.000    0.000    0.000    0.000    0.000 
#    0.000    0.000    0.000    0.000    0.000    0.000 
#
# Total GULP energy -155938.586633 kJ/mol
# GULP energy per Si atom -5569.235237 kJ/mol
# Density = 2.183922 g / cm^3
# Si number density = 21.889044 Si / 1000 Ang^3
#
#
#
# Elastic Constant Matrix: (Units=GPa)
#
#
# Indices 1 2 3 4 5 6 
#
# 1 60.8501 30.1657 3.5688 0.0000 -5.3883 0.0000
# 2 30.1657 164.2534 6.7843 0.0000 -3.0974 0.0000
# 3 3.5688 6.7843 122.3003 0.0000 -24.5779 0.0000
# 4 0.0000 0.0000 0.0000 -0.9290 0.0000 19.0474
# 5 -5.3883 -3.0974 -24.5779 0.0000 31.6867 0.0000
# 6 0.0000 0.0000 0.0000 19.0474 0.0000 13.5506
#
#
#
# Elastic Compliance Matrix: (Units=1/GPa)
#
#
# Indices 1 2 3 4 5 6 
#
# 1 0.018330 -0.003320 0.000249 0.000000 0.002986 0.000000
# 2 -0.003320 0.006708 -0.000304 0.000000 -0.000145 0.000000
# 3 0.000249 -0.000304 0.009701 0.000000 0.007537 0.000000
# 4 0.000000 0.000000 0.000000 -0.036097 0.000000 0.050740
# 5 0.002986 -0.000145 0.007537 0.000000 0.037899 0.000000
# 6 0.000000 0.000000 0.000000 0.050740 0.000000 0.002475
#
#
# Mechanical properties :
#
#
# Convention : Reuss Voigt Hill
#
# Bulk Modulus (GPa) = 35.72998 47.60459 41.66729
# Shear Modulus (GPa) = 90.75305 29.32066 60.03685
#
# Velocity S-wave (km/s) = 6.44597 3.66391 5.24284
# Velocity P-wave (km/s) = 8.47109 6.30034 7.46504
#
# Compressibility (1/GPa) = 0.02798770
#
# Stress axis : x y z
#
# Youngs Moduli (GPa) = 54.55660 149.08086 103.08315
#
# Poissons Ratio (x) = 0.49499 -0.02570
# Poissons Ratio (y) = 0.18114 0.03137
# Poissons Ratio (z) = -0.01360 0.04537
#
# Static dielectric constant tensor:
#      x y z
#    x 2.010520 0.000000 0.054000 
#    y 0.000000 1.797610 0.000000 
#    z 0.054000 0.000000 1.827290 
# 
# From -- ./inp_files/130769.got.cif
#   From: 2010.05.17/outbox.cif.g08.bks.cpg/sg15_66_cif.got.tgz:130769.got - 2010.06.03 18:47:42.
