data_PCOD9282402
_publ_section_title
;
Structure prediction by ZEFSAII (Michael W. Deem and Ramdas Pophale) SiO2 
 PCOD9282402
Probable space group: C 2/C
;
_chemical_formula_sum "Si O2"
_cell_formula_units_Z 60
_cell_length_a 20.818354
_cell_length_b 10.013714
_cell_length_c 13.520680
_cell_angle_alpha 90.000000
_cell_angle_beta 114.890021
_cell_angle_gamma 90.000000
_cell_volume 2556.840113
_symmetry_space_group_name_H-M "C 2/C"
_symmetry_group_IT_number 15
_symmetry_cell_setting 'monoclinic'
loop_
_space_group_symop_operation_xyz
x,y,z
-x,y,1/2-z
-x,-y,-z
x,-y,1/2+z
1/2+x,1/2+y,z
1/2-x,1/2+y,1/2-z
1/2-x,1/2-y,-z
1/2+x,1/2-y,1/2+z
loop_
_atom_site_type_symbol
_atom_site_label
_atom_site_fract_x
_atom_site_fract_y
_atom_site_fract_z
Si Si1 0.739425 0.637220 0.118681
Si Si2 0.764006 0.362671 0.247518
Si Si3 0.599436 0.337896 0.143238
Si Si4 0.481235 0.094804 0.399212
Si Si5 0.500000 0.390042 0.250000
Si Si6 0.611902 0.064276 0.354058
Si Si7 0.107168 0.016847 0.463391
Si Si8 0.329110 0.220486 0.589876
O O1 0.755465 0.521641 0.216140
O O2 0.714743 0.783080 0.139797
O O3 0.815005 0.641839 0.114101
O O4 0.678685 0.571008 0.012086
O O5 0.682695 0.312441 0.188212
O O6 0.814615 0.299773 0.197175
O O7 0.555056 0.218199 0.070305
O O8 0.568168 0.335107 0.233335
O O9 0.589309 0.464833 0.067561
O O10 0.500000 0.000000 0.500000
O O11 0.552751 0.129953 0.385576
O O12 0.427206 0.043083 0.278415
O O13 0.540029 0.462980 0.363783
O O14 0.635292 0.920852 0.414431
O O15 0.126556 0.155487 0.421237
O O16 0.250000 0.250000 0.500000
#
# Coordination Sequence:
#
# PCOD9282402 Si02
#       8
#     8   8   8   8   4   8   8   8
#     4  10  21  43  68 102 133 171 233 283 338 410
#     4  10  22  39  72  97 135 174 224 282 344 400
#     4  11  23  45  66  94 135 182 222 277 351 409
#     4  11  23  38  67  95 138 172 213 279 345 405
#     4  12  28  46  66  90 140 188 222 288 336 410
#     4  10  21  39  62 102 133 170 222 271 343 406
#     4  11  25  44  70  97 131 182 235 279 336 415
#     4  11  20  40  69  97 132 173 225 289 337 398
#
# _framework density 23.466467000000002
#
# number of rings (size 3 to 8) (size 9 to 14) (size 15 to 20)
#    0.000    1.333    5.333    2.000    3.733    2.133 
#    4.800    0.667    2.933    0.000    0.000    0.000 
#    0.000    0.000    0.000    0.000    0.000    0.000 
#
# Total GULP energy -167281.700923 kJ/mol
# GULP energy per Si atom -5576.056697 kJ/mol
# Density = 2.341306 g / cm^3
# Si number density = 23.466467 Si / 1000 Ang^3
#
#
#
# Elastic Constant Matrix: (Units=GPa)
#
#
# Indices 1 2 3 4 5 6 
#
# 1 147.3135 17.5121 15.2179 0.0000 -3.8633 0.0000
# 2 17.5121 51.7637 12.5556 0.0000 4.2666 0.0000
# 3 15.2179 12.5556 67.1023 0.0000 0.0620 0.0000
# 4 0.0000 0.0000 0.0000 34.5889 0.0000 -6.7241
# 5 -3.8633 4.2666 0.0620 0.0000 36.9091 0.0000
# 6 0.0000 0.0000 0.0000 -6.7241 0.0000 35.0724
#
#
#
# Elastic Compliance Matrix: (Units=1/GPa)
#
#
# Indices 1 2 3 4 5 6 
#
# 1 0.007205 -0.002226 -0.001219 0.000000 0.001013 0.000000
# 2 -0.002226 0.021127 -0.003446 0.000000 -0.002669 0.000000
# 3 -0.001219 -0.003446 0.015824 0.000000 0.000244 0.000000
# 4 0.000000 0.000000 0.000000 0.030030 0.000000 0.005757
# 5 0.001013 -0.002669 0.000244 0.000000 0.027508 0.000000
# 6 0.000000 0.000000 0.000000 0.005757 0.000000 0.029616
#
#
# Mechanical properties :
#
#
# Convention : Reuss Voigt Hill
#
# Bulk Modulus (GPa) = 32.92079 39.63897 36.27988
# Shear Modulus (GPa) = 32.21320 36.04036 34.12678
#
# Velocity S-wave (km/s) = 3.70906 3.92321 3.81764
# Velocity P-wave (km/s) = 5.69229 6.11968 5.90985
#
# Compressibility (1/GPa) = 0.03037594
#
# Stress axis : x y z
#
# Youngs Moduli (GPa) = 138.78729 47.33207 63.19705
#
# Poissons Ratio (x) = 0.10534 0.07701
# Poissons Ratio (y) = 0.30888 0.21777
# Poissons Ratio (z) = 0.16912 0.16310
#
# Static dielectric constant tensor:
#      x y z
#    x 2.062130 0.000000 0.034770 
#    y 0.000000 2.071020 0.000000 
#    z 0.034770 0.000000 1.984810 
# 
# From -- ./inp_files/167701.got.cif
#   From: 2010.05.17/outbox.cif.g08.bks.cpg/sg15_84_cif.got.tgz:167701.got - 2010.06.03 18:47:42.
