data_PCOD9282291
_publ_section_title
;
Structure prediction by ZEFSAII (Michael W. Deem and Ramdas Pophale) SiO2 
 PCOD9282291
Probable space group: C 2/C
;
_chemical_formula_sum "Si O2"
_cell_formula_units_Z 60
_cell_length_a 26.335003
_cell_length_b 8.583419
_cell_length_c 22.246088
_cell_angle_alpha 90.000000
_cell_angle_beta 147.923995
_cell_angle_gamma 90.000000
_cell_volume 2670.408185
_symmetry_space_group_name_H-M "C 2/C"
_symmetry_group_IT_number 15
_symmetry_cell_setting 'monoclinic'
loop_
_space_group_symop_operation_xyz
x,y,z
-x,y,1/2-z
-x,-y,-z
x,-y,1/2+z
1/2+x,1/2+y,z
1/2-x,1/2+y,1/2-z
1/2-x,1/2-y,-z
1/2+x,1/2-y,1/2+z
loop_
_atom_site_type_symbol
_atom_site_label
_atom_site_fract_x
_atom_site_fract_y
_atom_site_fract_z
Si Si1 0.000000 0.648327 0.250000
Si Si2 0.765271 0.979673 0.639465
Si Si3 0.401466 0.381799 0.945743
Si Si4 0.881160 0.203799 0.824182
Si Si5 0.901711 0.755163 0.811657
Si Si6 0.351188 0.049163 0.193429
Si Si7 0.122861 0.243491 0.553402
Si Si8 0.167436 0.234587 0.996918
O O1 0.932144 0.542885 0.223897
O O2 0.074986 0.754073 0.362431
O O3 0.865756 0.892236 0.731153
O O4 0.692646 0.841946 0.582166
O O5 0.794006 0.087133 0.725292
O O6 0.722354 0.099270 0.549016
O O7 0.517497 0.381713 0.065301
O O8 0.622548 0.696427 0.143124
O O9 0.364794 0.557582 0.922631
O O10 0.366833 0.284559 0.968470
O O11 0.884069 0.307753 0.768325
O O12 0.866870 0.308194 0.868482
O O13 0.852350 0.600365 0.737247
O O14 0.014901 0.733966 0.923500
O O15 0.246288 0.100456 0.064934
#
# Coordination Sequence:
#
# PCOD9282291 Si02
#       8
#     4   8   8   8   8   8   8   8
#     4  12  24  52  68  92 134 182 250 314 324 400
#     4  11  23  38  63 102 139 178 221 276 337 422
#     4  11  21  41  65 105 143 185 214 272 363 425
#     4  10  21  39  60  97 139 181 228 273 328 413
#     4  11  23  40  64 101 148 174 215 281 347 430
#     4  11  25  42  71 100 133 184 241 288 347 405
#     4  11  22  36  63  98 147 190 208 261 347 426
#     4  11  26  42  72 101 131 181 242 287 354 409
#
# _framework density 22.468475999999999
#
# number of rings (size 3 to 8) (size 9 to 14) (size 15 to 20)
#    0.000    1.067    4.000    2.800    5.600    1.067 
#    0.000    0.667    0.000   13.600    0.000    0.000 
#    0.000    0.000    0.000    0.000    0.000    0.000 
#
# Total GULP energy -167464.024395 kJ/mol
# GULP energy per Si atom -5582.134147 kJ/mol
# Density = 2.241734 g / cm^3
# Si number density = 22.468476 Si / 1000 Ang^3
#
#
#
# Elastic Constant Matrix: (Units=GPa)
#
#
# Indices 1 2 3 4 5 6 
#
# 1 67.4369 27.9395 37.9557 0.0000 1.7569 0.0000
# 2 27.9395 103.2430 61.3678 0.0000 -5.6112 0.0000
# 3 37.9557 61.3678 165.3358 0.0000 3.0867 0.0000
# 4 0.0000 0.0000 0.0000 28.1680 0.0000 8.7766
# 5 1.7569 -5.6112 3.0867 0.0000 28.1052 0.0000
# 6 0.0000 0.0000 0.0000 8.7766 0.0000 8.8613
#
#
#
# Elastic Compliance Matrix: (Units=1/GPa)
#
#
# Indices 1 2 3 4 5 6 
#
# 1 0.017806 -0.003185 -0.002879 0.000000 -0.001433 0.000000
# 2 -0.003185 0.013254 -0.004250 0.000000 0.003312 0.000000
# 3 -0.002879 -0.004250 0.008316 0.000000 -0.001582 0.000000
# 4 0.000000 0.000000 0.000000 0.051347 0.000000 -0.050857
# 5 -0.001433 0.003312 -0.001582 0.000000 0.036505 0.000000
# 6 0.000000 0.000000 0.000000 -0.050857 0.000000 0.163221
#
#
# Mechanical properties :
#
#
# Convention : Reuss Voigt Hill
#
# Bulk Modulus (GPa) = 53.33903 65.61575 59.47739
# Shear Modulus (GPa) = 15.75657 26.94374 21.35016
#
# Velocity S-wave (km/s) = 2.65103 3.46667 3.08592
# Velocity P-wave (km/s) = 5.75862 6.72983 6.26308
#
# Compressibility (1/GPa) = 0.01874800
#
# Stress axis : x y z
#
# Youngs Moduli (GPa) = 56.16117 75.44758 120.24751
#
# Poissons Ratio (x) = 0.24034 0.34614
# Poissons Ratio (y) = 0.17890 0.51107
# Poissons Ratio (z) = 0.16166 0.32066
#
# Static dielectric constant tensor:
#      x y z
#    x 1.874570 0.000000 0.007000 
#    y 0.000000 1.882370 0.000000 
#    z 0.007000 0.000000 1.858540 
# 
# From -- ./inp_files/283411.got.cif
#   From: 2010.05.17/outbox.cif.g08.bks.cpg/sg15_142_cif.got.tgz:283411.got - 2010.06.03 18:47:42.
