data_PCOD9282864
_publ_section_title
;
Structure prediction by ZEFSAII (Michael W. Deem and Ramdas Pophale) SiO2 
 PCOD9282864
Probable space group: C 2/C
;
_chemical_formula_sum "Si O2"
_cell_formula_units_Z 44
_cell_length_a 13.094360
_cell_length_b 11.153391
_cell_length_c 15.620159
_cell_angle_alpha 90.000000
_cell_angle_beta 125.450676
_cell_angle_gamma 90.000000
_cell_volume 1858.356895
_symmetry_space_group_name_H-M "C 2/C"
_symmetry_group_IT_number 15
_symmetry_cell_setting 'monoclinic'
loop_
_space_group_symop_operation_xyz
x,y,z
-x,y,1/2-z
-x,-y,-z
x,-y,1/2+z
1/2+x,1/2+y,z
1/2-x,1/2+y,1/2-z
1/2-x,1/2-y,-z
1/2+x,1/2-y,1/2+z
loop_
_atom_site_type_symbol
_atom_site_label
_atom_site_fract_x
_atom_site_fract_y
_atom_site_fract_z
Si Si1 0.045858 0.694732 0.043656
Si Si2 0.787067 0.711391 0.113030
Si Si3 0.000000 0.518956 0.250000
Si Si4 0.367759 0.042734 0.849808
Si Si5 0.403237 0.611812 0.792254
Si Si6 0.961019 0.896729 0.913959
O O1 0.143195 0.593662 0.120964
O O2 0.036151 0.786114 0.118567
O O3 0.924547 0.615940 0.957503
O O4 0.059168 0.787607 0.971367
O O5 0.883561 0.602261 0.167182
O O6 0.866586 0.826174 0.185831
O O7 0.670053 0.663255 0.115748
O O8 0.750000 0.750000 0.000000
O O9 0.965110 0.450874 0.319421
O O10 0.240159 0.088961 0.746666
O O11 0.457939 0.478151 0.827626
O O12 0.000000 0.000000 0.000000
#
# Coordination Sequence:
#
# PCOD9282864 Si02
#       6
#     8   8   4   8   8   8
#     4  10  21  39  65  92 122 168 223 255 312 398
#     4  12  25  40  65 100 131 165 224 279 320 380
#     4  12  24  42  60 100 134 162 212 286 326 376
#     4  11  22  39  67  92 130 173 211 263 329 388
#     4  11  21  41  67  93 127 176 219 261 326 391
#     4  10  21  40  66  92 127 170 218 266 316 395
#
# _framework density 23.676831
#
# number of rings (size 3 to 8) (size 9 to 14) (size 15 to 20)
#    0.000    1.091    5.455    1.091    5.091    0.000 
#    0.000    0.909    8.000    0.000    0.000    0.000 
#    0.000    0.000    0.000    0.000    0.000    0.000 
#
# Total GULP energy -122538.031607 kJ/mol
# GULP energy per Si atom -5569.910528 kJ/mol
# Density = 2.362294 g / cm^3
# Si number density = 23.676831 Si / 1000 Ang^3
#
#
#
# Elastic Constant Matrix: (Units=GPa)
#
#
# Indices 1 2 3 4 5 6 
#
# 1 53.6655 20.0461 24.7132 0.0000 -6.8828 0.0000
# 2 20.0461 146.2866 54.8348 0.0000 -18.4171 0.0000
# 3 24.7132 54.8348 141.8589 0.0000 -21.0316 0.0000
# 4 0.0000 0.0000 0.0000 58.6038 0.0000 -2.2199
# 5 -6.8828 -18.4171 -21.0316 0.0000 31.6322 0.0000
# 6 0.0000 0.0000 0.0000 -2.2199 0.0000 22.3048
#
#
#
# Elastic Compliance Matrix: (Units=1/GPa)
#
#
# Indices 1 2 3 4 5 6 
#
# 1 0.020713 -0.001592 -0.002731 0.000000 0.001764 0.000000
# 2 -0.001592 0.008361 -0.002534 0.000000 0.002837 0.000000
# 3 -0.002731 -0.002534 0.009094 0.000000 0.003977 0.000000
# 4 0.000000 0.000000 0.000000 0.017128 0.000000 0.001705
# 5 0.001764 0.002837 0.003977 0.000000 0.036293 0.000000
# 6 0.000000 0.000000 0.000000 0.001705 0.000000 0.045003
#
#
# Mechanical properties :
#
#
# Convention : Reuss Voigt Hill
#
# Bulk Modulus (GPa) = 40.89554 60.11103 50.50328
# Shear Modulus (GPa) = 31.55396 38.65594 35.10495
#
# Velocity S-wave (km/s) = 3.65457 4.04499 3.85472
# Velocity P-wave (km/s) = 5.92602 6.87453 6.41782
#
# Compressibility (1/GPa) = 0.02445255
#
# Stress axis : x y z
#
# Youngs Moduli (GPa) = 48.27938 119.60148 109.96053
#
# Poissons Ratio (x) = 0.19046 0.30034
# Poissons Ratio (y) = 0.07688 0.27863
# Poissons Ratio (z) = 0.13187 0.30306
#
# Static dielectric constant tensor:
#      x y z
#    x 2.104030 0.000000 -0.040700 
#    y 0.000000 1.958290 0.000000 
#    z -0.040700 0.000000 1.995700 
# 
# From -- ./inp_files/204225.got.cif
#   From: 2010.05.17/outbox.cif.g08.bks.cpg/sg15_103_cif.got.tgz:204225.got - 2010.06.03 18:47:42.
