data_PCOD9282671
_publ_section_title
;
Structure prediction by ZEFSAII (Michael W. Deem and Ramdas Pophale) SiO2 
 PCOD9282671
Probable space group: C 2/C
;
_chemical_formula_sum "Si O2"
_cell_formula_units_Z 52
_cell_length_a 7.787412
_cell_length_b 26.049943
_cell_length_c 12.744418
_cell_angle_alpha 90.000000
_cell_angle_beta 100.730529
_cell_angle_gamma 90.000000
_cell_volume 2540.145325
_symmetry_space_group_name_H-M "C 2/C"
_symmetry_group_IT_number 15
_symmetry_cell_setting 'monoclinic'
loop_
_space_group_symop_operation_xyz
x,y,z
-x,y,1/2-z
-x,-y,-z
x,-y,1/2+z
1/2+x,1/2+y,z
1/2-x,1/2+y,1/2-z
1/2-x,1/2-y,-z
1/2+x,1/2-y,1/2+z
loop_
_atom_site_type_symbol
_atom_site_label
_atom_site_fract_x
_atom_site_fract_y
_atom_site_fract_z
Si Si1 0.667768 0.433854 0.070108
Si Si2 0.585357 0.847323 0.503994
Si Si3 0.797719 0.797462 0.720046
Si Si4 0.917197 0.034484 0.353735
Si Si5 0.646435 0.879144 0.843430
Si Si6 0.500000 0.620331 0.750000
Si Si7 0.648030 0.184056 0.697033
O O1 0.715224 0.488430 0.129339
O O2 0.545009 0.410043 0.147833
O O3 0.799986 0.389166 0.047148
O O4 0.568784 0.454712 0.955677
O O5 0.707128 0.817672 0.602756
O O6 0.438243 0.877586 0.552933
O O7 0.467436 0.808669 0.421013
O O8 0.693869 0.822948 0.804750
O O9 0.801404 0.736531 0.738221
O O10 0.000000 0.814091 0.750000
O O11 0.813460 0.087031 0.346044
O O12 0.000000 0.024432 0.250000
O O13 0.500000 0.900892 0.750000
O O14 0.325444 0.652884 0.705245
O O15 0.500000 0.155785 0.750000
#
# Coordination Sequence:
#
# PCOD9282671 Si02
#       7
#     8   8   8   8   8   4   8
#     4  11  24  42  71  95 136 183 222 287 344 411
#     4  11  23  44  64  99 142 178 234 282 347 416
#     4  10  23  42  68  99 134 180 227 290 339 410
#     4  11  22  42  68 102 129 177 233 274 350 414
#     4  10  21  39  63  96 133 171 218 280 338 401
#     4  12  24  48  68 100 140 186 228 292 344 414
#     4  11  25  43  67  99 136 181 236 284 345 415
#
# _framework density 20.471268999999999
#
# number of rings (size 3 to 8) (size 9 to 14) (size 15 to 20)
#    0.000    1.231    2.308    4.154    3.231    3.692 
#    5.538    0.000    0.000    0.000    0.000    0.000 
#    0.000    0.000    0.000    0.000    0.000    0.000 
#
# Total GULP energy -144833.020330 kJ/mol
# GULP energy per Si atom -5570.500782 kJ/mol
# Density = 2.042468 g / cm^3
# Si number density = 20.471269 Si / 1000 Ang^3
#
#
#
# Elastic Constant Matrix: (Units=GPa)
#
#
# Indices 1 2 3 4 5 6 
#
# 1 77.7456 20.3753 30.8191 0.0000 -11.9756 0.0000
# 2 20.3753 80.6210 30.9665 0.0000 -4.4333 0.0000
# 3 30.8191 30.9665 98.4807 0.0000 -10.3379 0.0000
# 4 0.0000 0.0000 0.0000 -16.8903 0.0000 87.1387
# 5 -11.9756 -4.4333 -10.3379 0.0000 40.5065 0.0000
# 6 0.0000 0.0000 0.0000 87.1387 0.0000 -204.9134
#
#
#
# Elastic Compliance Matrix: (Units=1/GPa)
#
#
# Indices 1 2 3 4 5 6 
#
# 1 0.015473 -0.002276 -0.003773 0.000000 0.003362 0.000000
# 2 -0.002276 0.014449 -0.003839 0.000000 -0.000071 0.000000
# 3 -0.003773 -0.003839 0.012722 0.000000 0.001711 0.000000
# 4 0.000000 0.000000 0.000000 0.049591 0.000000 0.021088
# 5 0.003362 -0.000071 0.001711 0.000000 0.026110 0.000000
# 6 0.000000 0.000000 0.000000 0.021088 0.000000 0.004088
#
#
# Mechanical properties :
#
#
# Convention : Reuss Voigt Hill
#
# Bulk Modulus (GPa) = 43.73025 46.79657 45.26341
# Shear Modulus (GPa) = 33.37079 -24.61367 4.37856
#
# Velocity S-wave (km/s) = 4.04186 -3.47126 1.46408
# Velocity P-wave (km/s) = 6.57194 2.61593 5.00167
#
# Compressibility (1/GPa) = 0.02286747
#
# Stress axis : x y z
#
# Youngs Moduli (GPa) = 64.62984 69.20659 78.60510
#
# Poissons Ratio (x) = 0.15752 0.29661
# Poissons Ratio (y) = 0.14711 0.30174
# Poissons Ratio (z) = 0.24388 0.26566
#
# Static dielectric constant tensor:
#      x y z
#    x 1.702070 0.000000 -0.032350 
#    y 0.000000 1.743720 0.000000 
#    z -0.032350 0.000000 1.789610 
# 
# From -- ./inp_files/80874.got.cif
#   From: 2010.05.17/outbox.cif.g08.bks.cpg/sg15_41_cif.got.tgz:80874.got - 2010.06.03 18:47:42.
