data_PCOD9282853
_publ_section_title
;
Structure prediction by ZEFSAII (Michael W. Deem and Ramdas Pophale) SiO2 
 PCOD9282853
Probable space group: C 2/C
;
_chemical_formula_sum "Si O2"
_cell_formula_units_Z 52
_cell_length_a 15.444261
_cell_length_b 12.347920
_cell_length_c 13.742128
_cell_angle_alpha 90.000000
_cell_angle_beta 76.944064
_cell_angle_gamma 90.000000
_cell_volume 2552.940884
_symmetry_space_group_name_H-M "C 2/C"
_symmetry_group_IT_number 15
_symmetry_cell_setting 'monoclinic'
loop_
_space_group_symop_operation_xyz
x,y,z
-x,y,1/2-z
-x,-y,-z
x,-y,1/2+z
1/2+x,1/2+y,z
1/2-x,1/2+y,1/2-z
1/2-x,1/2-y,-z
1/2+x,1/2-y,1/2+z
loop_
_atom_site_type_symbol
_atom_site_label
_atom_site_fract_x
_atom_site_fract_y
_atom_site_fract_z
Si Si1 0.988981 0.378553 0.539386
Si Si2 0.186052 0.530489 0.367701
Si Si3 0.610164 0.250989 0.592829
Si Si4 0.331807 0.789087 0.049162
Si Si5 0.257105 0.392992 0.057497
Si Si6 0.838159 0.927906 0.672946
Si Si7 0.000000 0.913687 0.750000
O O1 0.904397 0.400305 0.631661
O O2 0.961337 0.314604 0.449385
O O3 0.000000 0.500000 0.500000
O O4 0.083059 0.322900 0.540681
O O5 0.181636 0.399162 0.382216
O O6 0.212423 0.565374 0.469985
O O7 0.263353 0.568197 0.275799
O O8 0.667850 0.310460 0.495753
O O9 0.678211 0.171551 0.631006
O O10 0.565095 0.337357 0.672357
O O11 0.349971 0.688196 0.117364
O O12 0.250000 0.750000 0.000000
O O13 0.300840 0.489445 0.103363
O O14 0.931856 0.970289 0.693634
#
# Coordination Sequence:
#
# PCOD9282853 Si02
#       7
#     8   8   8   8   8   8   4
#     4   9  20  39  64  91 122 168 216 276 324 389
#     4  10  22  41  65  95 131 167 226 274 332 399
#     4  10  21  39  65  91 125 168 221 270 323 399
#     4  11  22  42  67  94 132 178 224 277 340 392
#     4  10  22  41  65  92 127 172 215 273 339 391
#     4  12  25  41  67  98 133 177 223 281 334 402
#     4  12  24  40  62 100 130 174 230 264 326 414
#
# _framework density 20.368666000000001
#
# number of rings (size 3 to 8) (size 9 to 14) (size 15 to 20)
#    0.000    1.538    4.615    0.000    2.154    0.615 
#    2.769    0.769    0.000    0.000    0.000    0.000 
#    0.000    0.000    0.000    0.000    0.000    0.000 
#
# Total GULP energy -144826.184877 kJ/mol
# GULP energy per Si atom -5570.237880 kJ/mol
# Density = 2.032231 g / cm^3
# Si number density = 20.368666 Si / 1000 Ang^3
#
#
#
# Elastic Constant Matrix: (Units=GPa)
#
#
# Indices 1 2 3 4 5 6 
#
# 1 132.5510 51.4211 30.9532 0.0000 -15.3971 0.0000
# 2 51.4211 67.4783 17.6954 0.0000 -13.8928 0.0000
# 3 30.9532 17.6954 43.9992 0.0000 -10.5900 0.0000
# 4 0.0000 0.0000 0.0000 39.8285 0.0000 13.1368
# 5 -15.3971 -13.8928 -10.5900 0.0000 21.3879 0.0000
# 6 0.0000 0.0000 0.0000 13.1368 0.0000 49.4643
#
#
#
# Elastic Compliance Matrix: (Units=1/GPa)
#
#
# Indices 1 2 3 4 5 6 
#
# 1 0.011704 -0.007370 -0.004988 0.000000 0.001168 0.000000
# 2 -0.007370 0.022680 -0.001893 0.000000 0.008489 0.000000
# 3 -0.004988 -0.001893 0.029334 0.000000 0.009703 0.000000
# 4 0.000000 0.000000 0.000000 0.027518 0.000000 -0.007308
# 5 0.001168 0.008489 0.009703 0.000000 0.057915 0.000000
# 6 0.000000 0.000000 0.000000 -0.007308 0.000000 0.022158
#
#
# Mechanical properties :
#
#
# Convention : Reuss Voigt Hill
#
# Bulk Modulus (GPa) = 28.39755 49.35199 38.87477
# Shear Modulus (GPa) = 23.63492 31.73338 27.68415
#
# Velocity S-wave (km/s) = 3.41010 3.95137 3.69067
# Velocity P-wave (km/s) = 5.42928 6.71563 6.10642
#
# Compressibility (1/GPa) = 0.03521431
#
# Stress axis : x y z
#
# Youngs Moduli (GPa) = 85.44059 44.09117 34.09018
#
# Poissons Ratio (x) = 0.32496 0.17006
# Poissons Ratio (y) = 0.62972 0.06454
# Poissons Ratio (z) = 0.42621 0.08348
#
# Static dielectric constant tensor:
#      x y z
#    x 1.896340 0.000000 0.004930 
#    y 0.000000 1.818620 0.000000 
#    z 0.004930 0.000000 1.745520 
# 
# From -- ./inp_files/152549.got.cif
#   From: 2010.05.17/outbox.cif.g08.bks.cpg/sg15_77_cif.got.tgz:152549.got - 2010.06.03 18:47:42.
