data_PCOD9282696
_publ_section_title
;
Structure prediction by ZEFSAII (Michael W. Deem and Ramdas Pophale) SiO2 
 PCOD9282696
Probable space group: C 2/C
;
_chemical_formula_sum "Si O2"
_cell_formula_units_Z 44
_cell_length_a 6.495528
_cell_length_b 17.534022
_cell_length_c 21.134047
_cell_angle_alpha 90.000000
_cell_angle_beta 102.062896
_cell_angle_gamma 90.000000
_cell_volume 2353.864509
_symmetry_space_group_name_H-M "C 2/C"
_symmetry_group_IT_number 15
_symmetry_cell_setting 'monoclinic'
loop_
_space_group_symop_operation_xyz
x,y,z
-x,y,1/2-z
-x,-y,-z
x,-y,1/2+z
1/2+x,1/2+y,z
1/2-x,1/2+y,1/2-z
1/2-x,1/2-y,-z
1/2+x,1/2-y,1/2+z
loop_
_atom_site_type_symbol
_atom_site_label
_atom_site_fract_x
_atom_site_fract_y
_atom_site_fract_z
Si Si1 0.894395 0.324554 0.522811
Si Si2 0.259422 0.095726 0.539832
Si Si3 0.080751 0.830607 0.686686
Si Si4 0.315634 0.730765 0.870760
Si Si5 0.391728 0.557325 0.424674
Si Si6 0.500000 0.255096 0.250000
O O1 0.750000 0.250000 0.500000
O O2 0.741109 0.388133 0.538702
O O3 0.031309 0.364462 0.475874
O O4 0.050981 0.298765 0.588929
O O5 0.168802 0.163919 0.576861
O O6 0.122701 0.062694 0.472018
O O7 0.235544 0.022000 0.583699
O O8 0.088557 0.901486 0.640693
O O9 0.309646 0.794883 0.710509
O O10 0.000000 0.854524 0.750000
O O11 0.919425 0.764981 0.652034
O O12 0.402894 0.706304 0.807190
#
# Coordination Sequence:
#
# PCOD9282696 Si02
#       6
#     8   8   8   8   8   4
#     4  12  21  36  63  90 118 160 201 242 305 363
#     4  11  24  37  59  96 124 154 192 258 313 365
#     4  10  21  39  64  85 115 161 213 249 291 367
#     4  11  21  38  61  87 117 154 208 248 293 353
#     4  11  22  40  59  90 129 157 193 249 319 368
#     4  10  22  38  64  84 110 160 214 250 290 352
#
# _framework density 18.692665000000002
#
# number of rings (size 3 to 8) (size 9 to 14) (size 15 to 20)
#    0.000    1.091    5.455    2.182    0.000    0.000 
#    1.636    0.000    6.000    0.000    0.000    0.000 
#    0.000    0.000    0.000    0.000    0.000    0.000 
#
# Total GULP energy -122488.968864 kJ/mol
# GULP energy per Si atom -5567.680403 kJ/mol
# Density = 1.865012 g / cm^3
# Si number density = 18.692665 Si / 1000 Ang^3
#
#
#
# Elastic Constant Matrix: (Units=GPa)
#
#
# Indices 1 2 3 4 5 6 
#
# 1 93.1172 37.1384 22.4217 0.0000 1.6208 0.0000
# 2 37.1384 71.9162 12.8999 0.0000 -17.1053 0.0000
# 3 22.4217 12.8999 66.6169 0.0000 -5.7054 0.0000
# 4 0.0000 0.0000 0.0000 112.8339 0.0000 -11.1248
# 5 1.6208 -17.1053 -5.7054 0.0000 39.2735 0.0000
# 6 0.0000 0.0000 0.0000 -11.1248 0.0000 21.4570
#
#
#
# Elastic Compliance Matrix: (Units=1/GPa)
#
#
# Indices 1 2 3 4 5 6 
#
# 1 0.015023 -0.008193 -0.003877 0.000000 -0.004751 0.000000
# 2 -0.008193 0.020387 -0.000406 0.000000 0.009159 0.000000
# 3 -0.003877 -0.000406 0.016600 0.000000 0.002395 0.000000
# 4 0.000000 0.000000 0.000000 0.009340 0.000000 0.004843
# 5 -0.004751 0.009159 0.002395 0.000000 0.029995 0.000000
# 6 0.000000 0.000000 0.000000 0.004843 0.000000 0.049116
#
#
# Mechanical properties :
#
#
# Convention : Reuss Voigt Hill
#
# Bulk Modulus (GPa) = 36.95663 41.84111 39.39887
# Shear Modulus (GPa) = 28.66457 45.32557 36.99507
#
# Velocity S-wave (km/s) = 3.92020 4.92955 4.45356
# Velocity P-wave (km/s) = 6.34856 7.40492 6.89699
#
# Compressibility (1/GPa) = 0.02705874
#
# Stress axis : x y z
#
# Youngs Moduli (GPa) = 66.56496 49.05059 60.24182
#
# Poissons Ratio (x) = 0.40186 0.23355
# Poissons Ratio (y) = 0.54535 0.02445
# Poissons Ratio (z) = 0.25806 0.01991
#
# Static dielectric constant tensor:
#      x y z
#    x 1.720860 0.000000 0.009720 
#    y 0.000000 1.677130 0.000000 
#    z 0.009720 0.000000 1.675220 
# 
# From -- ./inp_files/226906.got.cif
#   From: 2010.05.17/outbox.cif.g08.bks.cpg/sg15_114_cif.got.tgz:226906.got - 2010.06.03 18:47:42.
