data_PCOD9282435
_publ_section_title
;
Structure prediction by ZEFSAII (Michael W. Deem and Ramdas Pophale) SiO2 
 PCOD9282435
Probable space group: C 2/C
;
_chemical_formula_sum "Si O2"
_cell_formula_units_Z 52
_cell_length_a 34.981063
_cell_length_b 15.954882
_cell_length_c 5.168740
_cell_angle_alpha 90.000000
_cell_angle_beta 108.193617
_cell_angle_gamma 90.000000
_cell_volume 2740.551821
_symmetry_space_group_name_H-M "C 2/C"
_symmetry_group_IT_number 15
_symmetry_cell_setting 'monoclinic'
loop_
_space_group_symop_operation_xyz
x,y,z
-x,y,1/2-z
-x,-y,-z
x,-y,1/2+z
1/2+x,1/2+y,z
1/2-x,1/2+y,1/2-z
1/2-x,1/2-y,-z
1/2+x,1/2-y,1/2+z
loop_
_atom_site_type_symbol
_atom_site_label
_atom_site_fract_x
_atom_site_fract_y
_atom_site_fract_z
Si Si1 0.000000 0.440716 0.250000
Si Si2 0.699804 0.554980 0.204143
Si Si3 0.376644 0.323325 0.031489
Si Si4 0.736666 0.198519 0.221538
Si Si5 0.046596 0.941413 0.361922
Si Si6 0.413626 0.057813 0.516348
Si Si7 0.858614 0.286031 0.994649
O O1 0.042894 0.396717 0.355064
O O2 0.000000 0.500000 0.500000
O O3 0.699577 0.519054 0.493259
O O4 0.659885 0.610663 0.078782
O O5 0.739091 0.611631 0.236635
O O6 0.370901 0.254795 0.793576
O O7 0.419282 0.370813 0.095570
O O8 0.371084 0.278603 0.295418
O O9 0.750000 0.250000 0.500000
O O10 0.688740 0.195518 0.116073
O O11 0.750000 0.250000 0.000000
O O12 0.000000 0.910620 0.250000
O O13 0.051772 0.991238 0.641732
O O14 0.380434 0.126673 0.490807
O O15 0.411243 0.013874 0.231810
#
# Coordination Sequence:
#
# PCOD9282435 Si02
#       7
#     4   8   8   8   8   8   8
#     4   8  16  34  58  82 114 152 186 244 296 342
#     4  12  24  39  65  93 117 157 213 251 290 359
#     4  12  23  41  61  94 129 161 204 250 306 374
#     4  12  23  44  62  84 126 165 195 250 312 366
#     4  10  21  40  64  90 126 169 206 253 310 360
#     4  10  21  39  62  89 120 155 206 246 293 360
#     4  12  24  40  65  89 125 169 195 251 323 360
#
# _framework density 18.974281000000001
#
# number of rings (size 3 to 8) (size 9 to 14) (size 15 to 20)
#    0.000    0.923    3.077    4.615    0.000    1.231 
#    2.769    0.000    0.000    0.000    0.000    0.000 
#    0.000    0.000    0.000    0.000    0.000    0.000 
#
# Total GULP energy -145299.333370 kJ/mol
# GULP energy per Si atom -5588.435899 kJ/mol
# Density = 1.893109 g / cm^3
# Si number density = 18.974281 Si / 1000 Ang^3
#
#
#
# Elastic Constant Matrix: (Units=GPa)
#
#
# Indices 1 2 3 4 5 6 
#
# 1 146.9013 27.8414 8.5662 0.0000 27.4465 0.0000
# 2 27.8414 31.6002 -17.7164 0.0000 14.5451 0.0000
# 3 8.5662 -17.7164 53.3545 0.0000 -12.0104 0.0000
# 4 0.0000 0.0000 0.0000 33.1434 0.0000 -5.0528
# 5 27.4465 14.5451 -12.0104 0.0000 40.9157 0.0000
# 6 0.0000 0.0000 0.0000 -5.0528 0.0000 33.8999
#
#
#
# Elastic Compliance Matrix: (Units=1/GPa)
#
#
# Indices 1 2 3 4 5 6 
#
# 1 0.009940 -0.009840 -0.005971 0.000000 -0.004923 0.000000
# 2 -0.009840 0.053598 0.017747 0.000000 -0.007244 0.000000
# 3 -0.005971 0.017747 0.026850 0.000000 0.005578 0.000000
# 4 0.000000 0.000000 0.000000 0.030873 0.000000 0.004602
# 5 -0.004923 -0.007244 0.005578 0.000000 0.031955 0.000000
# 6 0.000000 0.000000 0.000000 0.004602 0.000000 0.030184
#
#
# Mechanical properties :
#
#
# Convention : Reuss Voigt Hill
#
# Bulk Modulus (GPa) = 10.60905 29.91537 20.26221
# Shear Modulus (GPa) = 23.70230 35.80279 29.75254
#
# Velocity S-wave (km/s) = 3.53821 4.34857 3.96415
# Velocity P-wave (km/s) = 4.72179 6.40421 5.62624
#
# Compressibility (1/GPa) = 0.09425918
#
# Stress axis : x y z
#
# Youngs Moduli (GPa) = 100.60248 18.65733 37.24432
#
# Poissons Ratio (x) = 0.18358 0.22240
# Poissons Ratio (y) = 0.98989 -0.66096
# Poissons Ratio (z) = 0.60073 -0.33110
#
# Static dielectric constant tensor:
#      x y z
#    x 1.616730 0.000000 0.005050 
#    y 0.000000 1.641420 0.000000 
#    z 0.005050 0.000000 1.638600 
# 
# From -- ./inp_files/18246.got.cif
#   From: 2010.05.17/outbox.cif.g08.bks.cpg/sg15_10_cif.got.tgz:18246.got - 2010.06.03 18:47:42.
