data_PCOD9282231
_publ_section_title
;
Structure prediction by ZEFSAII (Michael W. Deem and Ramdas Pophale) SiO2 
 PCOD9282231
Probable space group: C 2/C
;
_chemical_formula_sum "Si O2"
_cell_formula_units_Z 52
_cell_length_a 17.144167
_cell_length_b 22.489468
_cell_length_c 15.574570
_cell_angle_alpha 90.000000
_cell_angle_beta 27.833927
_cell_angle_gamma 90.000000
_cell_volume 2803.787782
_symmetry_space_group_name_H-M "C 2/C"
_symmetry_group_IT_number 15
_symmetry_cell_setting 'monoclinic'
loop_
_space_group_symop_operation_xyz
x,y,z
-x,y,1/2-z
-x,-y,-z
x,-y,1/2+z
1/2+x,1/2+y,z
1/2-x,1/2+y,1/2-z
1/2-x,1/2-y,-z
1/2+x,1/2-y,1/2+z
loop_
_atom_site_type_symbol
_atom_site_label
_atom_site_fract_x
_atom_site_fract_y
_atom_site_fract_z
Si Si1 0.284635 0.926823 0.855040
Si Si2 0.484605 0.044790 0.667390
Si Si3 0.162227 0.082359 0.877502
Si Si4 0.668963 0.677905 0.735164
Si Si5 0.682708 0.538011 0.263703
Si Si6 0.464187 0.197505 0.186989
Si Si7 0.000000 0.099760 0.750000
O O1 0.211927 0.935100 0.830539
O O2 0.344770 0.859454 0.807192
O O3 0.431931 0.974943 0.719013
O O4 0.146297 0.937924 0.062762
O O5 0.500000 0.065081 0.750000
O O6 0.331412 0.076228 0.766965
O O7 0.658849 0.052150 0.448569
O O8 0.140122 0.145137 0.853110
O O9 0.175259 0.032667 0.788864
O O10 0.996951 0.062484 0.090246
O O11 0.610763 0.745967 0.788242
O O12 0.864361 0.677059 0.522866
O O13 0.574155 0.641331 0.752919
O O14 0.500000 0.216526 0.250000
#
# Coordination Sequence:
#
# PCOD9282231 Si02
#       7
#     8   8   8   8   8   8   4
#     4  11  22  37  58  85 124 161 196 236 287 350
#     4  11  24  39  60  89 115 154 203 249 302 355
#     4  10  22  39  58  83 117 160 194 250 292 345
#     4  12  23  37  53  83 124 161 204 233 283 343
#     4  10  21  39  60  81 119 154 197 246 299 348
#     4  12  22  34  53  81 125 164 197 238 271 346
#     4  12  22  34  56  84 120 168 202 224 272 352
#
# _framework density 18.546339
#
# number of rings (size 3 to 8) (size 9 to 14) (size 15 to 20)
#    0.000    0.923    3.846    5.538    2.154    0.615 
#    0.000    0.000    0.000    0.000    0.000    4.308 
#    0.000    0.000    0.000    0.000    0.000    0.000 
#
# Total GULP energy -145367.933086 kJ/mol
# GULP energy per Si atom -5591.074349 kJ/mol
# Density = 1.850413 g / cm^3
# Si number density = 18.546339 Si / 1000 Ang^3
#
#
#
# Elastic Constant Matrix: (Units=GPa)
#
#
# Indices 1 2 3 4 5 6 
#
# 1 69.2031 34.8792 37.3754 -0.0172 -3.6781 0.0190
# 2 34.8792 81.2168 14.5816 -0.0258 2.8551 0.0220
# 3 37.3754 14.5816 142.0595 0.0034 -16.8298 -0.0126
# 4 -0.0172 -0.0258 0.0034 -19.0580 0.0092 33.0769
# 5 -3.6781 2.8551 -16.8298 0.0092 20.2322 -0.0134
# 6 0.0190 0.0220 -0.0126 33.0769 -0.0134 -9.4811
#
#
#
# Elastic Compliance Matrix: (Units=1/GPa)
#
#
# Indices 1 2 3 4 5 6 
#
# 1 0.021176 -0.008316 -0.004573 -0.000008 0.001219 0.000000
# 2 -0.008316 0.015994 0.000111 -0.000006 -0.003677 0.000006
# 3 -0.004573 0.000111 0.009020 0.000009 0.006656 0.000000
# 4 -0.000008 -0.000006 0.000009 0.010380 0.000026 0.036213
# 5 0.001219 -0.003677 0.006656 0.000026 0.055703 -0.000004
# 6 0.000000 0.000006 0.000000 0.036213 -0.000004 0.020865
#
#
# Mechanical properties :
#
#
# Convention : Reuss Voigt Hill
#
# Bulk Modulus (GPa) = 48.46840 51.79462 50.13151
# Shear Modulus (GPa) = 30.19812 12.04817 21.12315
#
# Velocity S-wave (km/s) = 4.03954 2.55154 3.37848
# Velocity P-wave (km/s) = 6.92442 6.05543 6.50445
#
# Compressibility (1/GPa) = 0.02063200
#
# Stress axis : x y z
#
# Youngs Moduli (GPa) = 47.22222 62.52530 110.86822
#
# Poissons Ratio (x) = 0.51997 0.50705
# Poissons Ratio (y) = 0.39271 -0.01228
# Poissons Ratio (z) = 0.21597 -0.00692
#
# Static dielectric constant tensor:
#      x y z
#    x 3.209290 -0.003770 -0.428330 
#    y -0.003770 1.646160 0.000990 
#    z -0.428330 0.000990 1.762460 
# 
# From -- ./inp_files/164002.got.cif
#   From: 2010.05.17/outbox.cif.g08.bks.cpg/sg15_83_cif.got.tgz:164002.got - 2010.06.03 18:47:42.
