data_PCOD9282931
_publ_section_title
;
Structure prediction by ZEFSAII (Michael W. Deem and Ramdas Pophale) SiO2 
 PCOD9282931
Probable space group: C 2/C
;
_chemical_formula_sum "Si O2"
_cell_formula_units_Z 40
_cell_length_a 27.097281
_cell_length_b 5.645895
_cell_length_c 24.029120
_cell_angle_alpha 90.000000
_cell_angle_beta 26.145115
_cell_angle_gamma 90.000000
_cell_volume 1619.893092
_symmetry_space_group_name_H-M "C 2/C"
_symmetry_group_IT_number 15
_symmetry_cell_setting 'monoclinic'
loop_
_space_group_symop_operation_xyz
x,y,z
-x,y,1/2-z
-x,-y,-z
x,-y,1/2+z
1/2+x,1/2+y,z
1/2-x,1/2+y,1/2-z
1/2-x,1/2-y,-z
1/2+x,1/2-y,1/2+z
loop_
_atom_site_type_symbol
_atom_site_label
_atom_site_fract_x
_atom_site_fract_y
_atom_site_fract_z
Si Si1 0.181557 0.428734 0.031487
Si Si2 0.921631 0.806263 0.548696
Si Si3 0.123112 0.724787 0.195507
Si Si4 0.557197 0.438098 0.577204
Si Si5 0.400439 0.919273 0.175791
O O1 0.120473 0.585484 0.140142
O O2 0.113865 0.264981 0.056992
O O3 0.250000 0.250000 0.000000
O O4 0.272978 0.595415 0.910414
O O5 0.846609 0.681721 0.672775
O O6 0.002632 0.600851 0.442940
O O7 0.873179 0.937571 0.543325
O O8 0.000000 0.000000 0.500000
O O9 0.148661 0.553307 0.221468
O O10 0.005754 0.860892 0.323615
O O11 0.456978 0.307042 0.646818
#
# Coordination Sequence:
#
# PCOD9282931 Si02
#       5
#     8   8   8   8   8
#     4  11  25  41  60  97 137 182 224 274 339 410
#     4   8  16  32  60 100 118 159 216 274 331 404
#     4  10  23  39  60  94 136 184 222 283 330 415
#     4  10  21  39  65  97 128 175 226 276 338 404
#     4   9  17  34  62  97 122 168 216 275 336 397
#
# _framework density 24.692986999999999
#
# number of rings (size 3 to 8) (size 9 to 14) (size 15 to 20)
#    0.000    2.400    0.000    1.200    0.000   11.200 
#    0.000    0.000    0.000    0.000  431.600    0.000 
#    0.000    0.000    0.000    0.000    0.000    0.600 
#
# Total GULP energy -111701.527718 kJ/mol
# GULP energy per Si atom -5585.076386 kJ/mol
# Density = 2.463678 g / cm^3
# Si number density = 24.692987 Si / 1000 Ang^3
#
#
#
# Elastic Constant Matrix: (Units=GPa)
#
#
# Indices 1 2 3 4 5 6 
#
# 1 165.9218 77.3686 84.5237 -0.0125 40.5489 0.0079
# 2 77.3686 120.6476 46.5527 -0.0099 32.6845 0.0356
# 3 84.5237 46.5527 78.4485 -0.0126 33.0381 0.0251
# 4 -0.0125 -0.0099 -0.0126 44.5390 0.0290 20.2071
# 5 40.5489 32.6845 33.0381 0.0290 38.3021 -0.0058
# 6 0.0079 0.0356 0.0251 20.2071 -0.0058 74.8383
#
#
#
# Elastic Compliance Matrix: (Units=1/GPa)
#
#
# Indices 1 2 3 4 5 6 
#
# 1 0.014962 -0.004272 -0.013271 -0.000003 -0.000747 0.000006
# 2 -0.004272 0.012846 -0.000485 0.000009 -0.006022 -0.000008
# 3 -0.013271 -0.000485 0.033362 0.000023 -0.014314 -0.000017
# 4 -0.000003 0.000009 0.000023 0.025587 -0.000045 -0.006909
# 5 -0.000747 -0.006022 -0.014314 -0.000045 0.044385 0.000023
# 6 0.000006 -0.000008 -0.000017 -0.006909 0.000023 0.015228
#
#
# Mechanical properties :
#
#
# Convention : Reuss Voigt Hill
#
# Bulk Modulus (GPa) = 39.81646 86.87867 63.34756
# Shear Modulus (GPa) = 26.20611 41.97408 34.09010
#
# Velocity S-wave (km/s) = 3.26126 4.12738 3.71962
# Velocity P-wave (km/s) = 5.50824 7.61404 6.64509
#
# Compressibility (1/GPa) = 0.02511524
#
# Stress axis : x y z
#
# Youngs Moduli (GPa) = 66.83652 77.84350 29.97442
#
# Poissons Ratio (x) = 0.33251 0.39779
# Poissons Ratio (y) = 0.28549 0.01453
# Poissons Ratio (z) = 0.88699 0.03774
#
# Static dielectric constant tensor:
#      x y z
#    x 1.969050 -0.000070 0.030860 
#    y -0.000070 1.794080 0.000050 
#    z 0.030860 0.000050 2.035020 
# 
# From -- ./inp_files/283069.got.cif
#   From: 2010.05.17/outbox.cif.g08.bks.cpg/sg15_142_cif.got.tgz:283069.got - 2010.06.03 18:47:42.
