data_PCOD9282177
_publ_section_title
;
Structure prediction by ZEFSAII (Michael W. Deem and Ramdas Pophale) SiO2 
 PCOD9282177
Probable space group: C 2/C
;
_chemical_formula_sum "Si O2"
_cell_formula_units_Z 56
_cell_length_a 24.503090
_cell_length_b 8.584492
_cell_length_c 14.904458
_cell_angle_alpha 90.000000
_cell_angle_beta 129.359876
_cell_angle_gamma 90.000000
_cell_volume 2423.991349
_symmetry_space_group_name_H-M "C 2/C"
_symmetry_group_IT_number 15
_symmetry_cell_setting 'monoclinic'
loop_
_space_group_symop_operation_xyz
x,y,z
-x,y,1/2-z
-x,-y,-z
x,-y,1/2+z
1/2+x,1/2+y,z
1/2-x,1/2+y,1/2-z
1/2-x,1/2-y,-z
1/2+x,1/2-y,1/2+z
loop_
_atom_site_type_symbol
_atom_site_label
_atom_site_fract_x
_atom_site_fract_y
_atom_site_fract_z
Si Si1 0.767159 0.520530 0.536608
Si Si2 0.833028 0.801078 0.151039
Si Si3 0.516157 0.390463 0.865979
Si Si4 0.331303 0.761147 0.971540
Si Si5 0.950226 0.672787 0.924300
Si Si6 0.052006 0.240980 0.876104
Si Si7 0.888802 0.374236 0.863682
O O1 0.787099 0.357936 0.603720
O O2 0.711519 0.458637 0.402503
O O3 0.729662 0.640772 0.564384
O O4 0.828974 0.609838 0.547965
O O5 0.878174 0.792097 0.107422
O O6 0.881855 0.767355 0.287370
O O7 0.500000 0.327972 0.750000
O O8 0.597030 0.337875 0.964656
O O9 0.457053 0.329076 0.873244
O O10 0.516082 0.576144 0.861639
O O11 0.328504 0.852669 0.874510
O O12 0.896808 0.545271 0.828037
O O13 0.932613 0.686815 0.011299
O O14 0.033711 0.629036 0.009413
O O15 0.000000 0.325927 0.750000
#
# Coordination Sequence:
#
# PCOD9282177 Si02
#       7
#     8   8   8   8   8   8   8
#     4  10  23  40  64  84 121 173 215 260 310 379
#     4  11  22  40  63  92 122 167 218 256 321 386
#     4  10  22  37  64  95 127 168 215 262 334 389
#     4  10  21  43  61  87 127 162 212 268 314 378
#     4  10  21  39  58  98 128 164 205 265 332 386
#     4  11  20  38  63  93 129 170 206 269 328 391
#     4  10  22  38  61  91 128 157 209 267 321 381
#
# _framework density 23.102391999999998
#
# number of rings (size 3 to 8) (size 9 to 14) (size 15 to 20)
#    0.000    1.714    2.857    1.286    2.000    1.143 
#    0.000    0.000    0.000    0.000    0.000    0.000 
#    0.000    0.000    0.000    0.000    0.000    0.000 
#
# Total GULP energy -156084.188299 kJ/mol
# GULP energy per Si atom -5574.435296 kJ/mol
# Density = 2.304981 g / cm^3
# Si number density = 23.102392 Si / 1000 Ang^3
#
#
#
# Elastic Constant Matrix: (Units=GPa)
#
#
# Indices 1 2 3 4 5 6 
#
# 1 120.1503 26.8517 14.5434 0.0000 -19.5460 0.0000
# 2 26.8517 68.1733 9.6608 0.0000 -1.1265 0.0000
# 3 14.5434 9.6608 32.5700 0.0000 -6.1998 0.0000
# 4 0.0000 0.0000 0.0000 18.7676 0.0000 -2.7205
# 5 -19.5460 -1.1265 -6.1998 0.0000 25.0937 0.0000
# 6 0.0000 0.0000 0.0000 -2.7205 0.0000 36.2855
#
#
#
# Elastic Compliance Matrix: (Units=1/GPa)
#
#
# Indices 1 2 3 4 5 6 
#
# 1 0.010666 -0.003764 -0.002200 0.000000 0.007595 0.000000
# 2 -0.003764 0.016645 -0.003854 0.000000 -0.003137 0.000000
# 3 -0.002200 -0.003854 0.034072 0.000000 0.006531 0.000000
# 4 0.000000 0.000000 0.000000 0.053869 0.000000 0.004039
# 5 0.007595 -0.003137 0.006531 0.000000 0.047240 0.000000
# 6 0.000000 0.000000 0.000000 0.004039 0.000000 0.027862
#
#
# Mechanical properties :
#
#
# Convention : Reuss Voigt Hill
#
# Bulk Modulus (GPa) = 23.95364 35.88952 29.92158
# Shear Modulus (GPa) = 22.33087 27.35186 24.84137
#
# Velocity S-wave (km/s) = 3.11240 3.44458 3.28269
# Velocity P-wave (km/s) = 4.82773 5.60258 5.22953
#
# Compressibility (1/GPa) = 0.04174731
#
# Stress axis : x y z
#
# Youngs Moduli (GPa) = 93.75579 60.07733 29.34968
#
# Poissons Ratio (x) = 0.22612 0.06458
# Poissons Ratio (y) = 0.35287 0.11310
# Poissons Ratio (z) = 0.20631 0.23152
#
# Static dielectric constant tensor:
#      x y z
#    x 1.842370 0.000000 -0.028850 
#    y 0.000000 1.984340 0.000000 
#    z -0.028850 0.000000 2.047720 
# 
# From -- ./inp_files/218649.got.cif
#   From: 2010.05.17/outbox.cif.g08.bks.cpg/sg15_110_cif.got.tgz:218649.got - 2010.06.03 18:47:42.
