data_PCOD9282754
_publ_section_title
;
Structure prediction by ZEFSAII (Michael W. Deem and Ramdas Pophale) SiO2 
 PCOD9282754
Probable space group: C 2/C
;
_chemical_formula_sum "Si O2"
_cell_formula_units_Z 60
_cell_length_a 21.834905
_cell_length_b 15.108438
_cell_length_c 14.422246
_cell_angle_alpha 90.000000
_cell_angle_beta 143.551466
_cell_angle_gamma 90.000000
_cell_volume 2826.595589
_symmetry_space_group_name_H-M "C 2/C"
_symmetry_group_IT_number 15
_symmetry_cell_setting 'monoclinic'
loop_
_space_group_symop_operation_xyz
x,y,z
-x,y,1/2-z
-x,-y,-z
x,-y,1/2+z
1/2+x,1/2+y,z
1/2-x,1/2+y,1/2-z
1/2-x,1/2-y,-z
1/2+x,1/2-y,1/2+z
loop_
_atom_site_type_symbol
_atom_site_label
_atom_site_fract_x
_atom_site_fract_y
_atom_site_fract_z
Si Si1 0.821942 0.683898 0.644996
Si Si2 0.756467 0.016822 0.862633
Si Si3 0.854399 0.830060 0.811608
Si Si4 0.046828 0.917035 0.001243
Si Si5 0.324226 0.671904 0.482309
Si Si6 0.812666 0.485524 0.919538
Si Si7 0.000000 0.604784 0.750000
Si Si8 0.687509 0.652067 0.830297
O O1 0.750000 0.750000 0.500000
O O2 0.776387 0.586465 0.600993
O O3 0.826740 0.730912 0.750366
O O4 0.931364 0.667285 0.731536
O O5 0.873113 0.044502 0.975160
O O6 0.686537 0.022790 0.684848
O O7 0.753256 0.915598 0.889551
O O8 0.883152 0.832450 0.955644
O O9 0.761555 0.899034 0.680658
O O10 0.946326 0.860586 0.855360
O O11 0.112072 0.858048 0.151909
O O12 0.000000 0.000000 0.000000
O O13 0.371047 0.661968 0.642324
O O14 0.259359 0.762296 0.405175
O O15 0.755937 0.562442 0.908636
O O16 0.920579 0.454761 0.093561
#
# Coordination Sequence:
#
# PCOD9282754 Si02
#       8
#     8   8   8   8   8   8   4   8
#     4  12  27  45  68 102 136 175 231 289 343 413
#     4  10  23  43  69  95 140 176 222 282 347 399
#     4  11  22  40  64  98 138 169 222 280 345 403
#     4  11  20  40  68 103 130 179 219 282 348 398
#     4  10  21  39  64  92 132 187 216 279 330 396
#     4  10  21  43  68  95 138 172 223 283 334 413
#     4  12  26  44  70 100 134 186 232 276 350 416
#     4  10  21  39  65  97 135 174 227 277 331 397
#
# _framework density 21.226949999999999
#
# number of rings (size 3 to 8) (size 9 to 14) (size 15 to 20)
#    0.000    1.333    5.333    2.400    1.867    3.200 
#    0.000    8.000    0.000    0.000    0.000    0.000 
#    0.000    0.000    0.000    0.000    0.000    0.000 
#
# Total GULP energy -167360.107158 kJ/mol
# GULP energy per Si atom -5578.670239 kJ/mol
# Density = 2.117864 g / cm^3
# Si number density = 21.226950 Si / 1000 Ang^3
#
#
#
# Elastic Constant Matrix: (Units=GPa)
#
#
# Indices 1 2 3 4 5 6 
#
# 1 85.6405 22.5852 8.6996 0.0000 4.6177 0.0000
# 2 22.5852 113.1926 8.8178 0.0000 3.5324 0.0000
# 3 8.6996 8.8178 71.1790 0.0000 12.8372 0.0000
# 4 0.0000 0.0000 0.0000 24.1073 0.0000 -10.2217
# 5 4.6177 3.5324 12.8372 0.0000 28.5597 0.0000
# 6 0.0000 0.0000 0.0000 -10.2217 0.0000 30.3809
#
#
#
# Elastic Compliance Matrix: (Units=1/GPa)
#
#
# Indices 1 2 3 4 5 6 
#
# 1 0.012472 -0.002371 -0.001001 0.000000 -0.001273 0.000000
# 2 -0.002371 0.009383 -0.000797 0.000000 -0.000419 0.000000
# 3 -0.001001 -0.000797 0.015478 0.000000 -0.006697 0.000000
# 4 0.000000 0.000000 0.000000 0.048383 0.000000 0.016279
# 5 -0.001273 -0.000419 -0.006697 0.000000 0.038282 0.000000
# 6 0.000000 0.000000 0.000000 0.016279 0.000000 0.038392
#
#
# Mechanical properties :
#
#
# Convention : Reuss Voigt Hill
#
# Bulk Modulus (GPa) = 34.48853 38.91302 36.70078
# Shear Modulus (GPa) = 27.71713 31.93689 29.82701
#
# Velocity S-wave (km/s) = 3.61744 3.88305 3.75260
# Velocity P-wave (km/s) = 5.80781 6.20289 6.00860
#
# Compressibility (1/GPa) = 0.02899514
#
# Stress axis : x y z
#
# Youngs Moduli (GPa) = 80.17757 106.57887 64.60819
#
# Poissons Ratio (x) = 0.25268 0.06467
# Poissons Ratio (y) = 0.19009 0.05149
# Poissons Ratio (z) = 0.08026 0.08495
#
# Static dielectric constant tensor:
#      x y z
#    x 1.826680 0.000000 -0.018490 
#    y 0.000000 1.764800 0.000000 
#    z -0.018490 0.000000 1.809130 
# 
# From -- ./inp_files/168659.got.cif
#   From: 2010.05.17/outbox.cif.g08.bks.cpg/sg15_85_cif.got.tgz:168659.got - 2010.06.03 18:47:42.
