data_PCOD9282743
_publ_section_title
;
Structure prediction by ZEFSAII (Michael W. Deem and Ramdas Pophale) SiO2 
 PCOD9282743
Probable space group: C 2/C
;
_chemical_formula_sum "Si O2"
_cell_formula_units_Z 48
_cell_length_a 28.976527
_cell_length_b 15.881449
_cell_length_c 15.165185
_cell_angle_alpha 90.000000
_cell_angle_beta 162.231945
_cell_angle_gamma 90.000000
_cell_volume 2129.698081
_symmetry_space_group_name_H-M "C 2/C"
_symmetry_group_IT_number 15
_symmetry_cell_setting 'monoclinic'
loop_
_space_group_symop_operation_xyz
x,y,z
-x,y,1/2-z
-x,-y,-z
x,-y,1/2+z
1/2+x,1/2+y,z
1/2-x,1/2+y,1/2-z
1/2-x,1/2-y,-z
1/2+x,1/2-y,1/2+z
loop_
_atom_site_type_symbol
_atom_site_label
_atom_site_fract_x
_atom_site_fract_y
_atom_site_fract_z
Si Si1 0.000000 0.845625 0.250000
Si Si2 0.293482 0.128557 0.510548
Si Si3 0.944242 0.755048 0.510094
Si Si4 0.239008 0.007791 0.566216
Si Si5 0.500000 0.607958 0.250000
Si Si6 0.817567 0.412811 0.862419
Si Si7 0.060570 0.158356 0.674823
O O1 0.135028 0.905604 0.527239
O O2 0.047053 0.798382 0.246595
O O3 0.383383 0.217314 0.680925
O O4 0.313052 0.070168 0.630847
O O5 0.356057 0.083541 0.535124
O O6 0.112287 0.136958 0.169129
O O7 0.920400 0.830676 0.534744
O O8 0.862288 0.676834 0.404830
O O9 0.888016 0.783057 0.311889
O O10 0.110794 0.057394 0.387470
O O11 0.353215 0.978820 0.851048
O O12 0.161350 0.926005 0.376491
#
# Coordination Sequence:
#
# PCOD9282743 Si02
#       7
#     4   8   8   8   4   8   8
#     4   8  19  36  60  80 121 158 196 240 307 346
#     4  11  21  39  63  92 126 163 203 256 306 361
#     4  12  24  38  66  92 126 160 209 255 309 361
#     4  11  24  38  65  93 122 163 209 253 308 360
#     4  12  23  40  60 100 113 160 214 248 301 368
#     4  10  22  42  60  92 126 163 200 260 304 370
#     4  10  21  39  64  92 121 163 206 253 298 372
#
# _framework density 22.538405999999998
#
# number of rings (size 3 to 8) (size 9 to 14) (size 15 to 20)
#    0.000    1.333    3.333    4.000    2.333    3.333 
#    0.000    0.000    3.667    2.000    0.000    0.000 
#    0.000    0.000    0.000    0.000    0.000    0.000 
#
# Total GULP energy -133846.036492 kJ/mol
# GULP energy per Si atom -5576.918187 kJ/mol
# Density = 2.248711 g / cm^3
# Si number density = 22.538406 Si / 1000 Ang^3
#
#
#
# Elastic Constant Matrix: (Units=GPa)
#
#
# Indices 1 2 3 4 5 6 
#
# 1 191.5678 45.6271 7.7716 0.0000 -42.9580 0.0000
# 2 45.6271 51.5398 -8.0305 0.0000 -14.1949 0.0000
# 3 7.7716 -8.0305 34.1052 0.0000 -16.0696 0.0000
# 4 0.0000 0.0000 0.0000 15.7504 0.0000 -13.1363
# 5 -42.9580 -14.1949 -16.0696 0.0000 48.6867 0.0000
# 6 0.0000 0.0000 0.0000 -13.1363 0.0000 18.9651
#
#
#
# Elastic Compliance Matrix: (Units=1/GPa)
#
#
# Indices 1 2 3 4 5 6 
#
# 1 0.007674 -0.005560 -0.000747 0.000000 0.004904 0.000000
# 2 -0.005560 0.027959 0.011107 0.000000 0.006912 0.000000
# 3 -0.000747 0.011107 0.039458 0.000000 0.015602 0.000000
# 4 0.000000 0.000000 0.000000 0.150342 0.000000 0.104135
# 5 0.004904 0.006912 0.015602 0.000000 0.032031 0.000000
# 6 0.000000 0.000000 0.000000 0.104135 0.000000 0.124858
#
#
# Mechanical properties :
#
#
# Convention : Reuss Voigt Hill
#
# Bulk Modulus (GPa) = 11.80772 40.88323 26.34547
# Shear Modulus (GPa) = 12.47028 32.13674 22.30351
#
# Velocity S-wave (km/s) = 2.35476 3.78016 3.14917
# Velocity P-wave (km/s) = 3.55577 6.10177 4.99375
#
# Compressibility (1/GPa) = 0.08469038
#
# Stress axis : x y z
#
# Youngs Moduli (GPa) = 130.30660 35.76712 25.34332
#
# Poissons Ratio (x) = 0.19886 0.01894
# Poissons Ratio (y) = 0.72447 -0.28148
# Poissons Ratio (z) = 0.09739 -0.39726
#
# Static dielectric constant tensor:
#      x y z
#    x 1.910910 0.000000 0.059330 
#    y 0.000000 1.859180 0.000000 
#    z 0.059330 0.000000 1.782190 
# 
# From -- ./inp_files/143862.got.cif
#   From: 2010.05.17/outbox.cif.g08.bks.cpg/sg15_72_cif.got.tgz:143862.got - 2010.06.03 18:47:42.
