data_PCOD9282883
_publ_section_title
;
Structure prediction by ZEFSAII (Michael W. Deem and Ramdas Pophale) SiO2 
 PCOD9282883
Probable space group: C 2/C
;
_chemical_formula_sum "Si O2"
_cell_formula_units_Z 60
_cell_length_a 7.408941
_cell_length_b 12.285603
_cell_length_c 29.663106
_cell_angle_alpha 90.000000
_cell_angle_beta 112.716098
_cell_angle_gamma 90.000000
_cell_volume 2490.591382
_symmetry_space_group_name_H-M "C 2/C"
_symmetry_group_IT_number 15
_symmetry_cell_setting 'monoclinic'
loop_
_space_group_symop_operation_xyz
x,y,z
-x,y,1/2-z
-x,-y,-z
x,-y,1/2+z
1/2+x,1/2+y,z
1/2-x,1/2+y,1/2-z
1/2-x,1/2-y,-z
1/2+x,1/2-y,1/2+z
loop_
_atom_site_type_symbol
_atom_site_label
_atom_site_fract_x
_atom_site_fract_y
_atom_site_fract_z
Si Si1 0.712612 0.031392 0.615711
Si Si2 0.342650 0.632159 0.443289
Si Si3 0.789151 0.994824 0.019817
Si Si4 0.848377 0.102760 0.816593
Si Si5 0.254120 0.133868 0.164387
Si Si6 0.000000 0.207957 0.750000
Si Si7 0.888289 0.676839 0.560697
Si Si8 0.698394 0.293366 0.865144
O O1 0.526939 0.106212 0.607539
O O2 0.922020 0.084677 0.647586
O O3 0.701670 0.018518 0.560395
O O4 0.708371 0.910865 0.635222
O O5 0.483948 0.526438 0.449619
O O6 0.258386 0.608078 0.484221
O O7 0.212808 0.637744 0.386176
O O8 0.474049 0.739098 0.452367
O O9 0.710632 0.096751 0.983880
O O10 0.853085 0.132654 0.764285
O O11 0.755081 0.202971 0.834615
O O12 0.742115 0.989894 0.817895
O O13 0.395111 0.213319 0.204539
O O14 0.031863 0.176420 0.151964
O O15 0.747990 0.745002 0.580266
#
# Coordination Sequence:
#
# PCOD9282883 Si02
#       8
#     8   8   8   8   8   4   8   8
#     4  11  24  41  63  99 135 171 223 264 309 389
#     4  10  21  39  65  92 135 172 221 264 317 387
#     4  11  21  37  64  97 132 182 216 260 315 390
#     4  11  24  45  70  93 130 170 209 272 337 379
#     4  10  23  47  65  99 129 163 218 274 317 395
#     4  12  28  44  74  98 124 162 220 276 338 386
#     4  11  22  37  61  93 134 176 217 260 311 373
#     4  10  23  42  68  94 133 172 211 262 327 383
#
# _framework density 24.090662999999999
#
# number of rings (size 3 to 8) (size 9 to 14) (size 15 to 20)
#    0.000    1.333    4.000    3.200    1.867    7.467 
#    0.000    0.000    0.000    0.000    0.000    0.000 
#    0.000    0.000    0.000    0.000    0.000    0.000 
#
# Total GULP energy -167935.326283 kJ/mol
# GULP energy per Si atom -5597.844209 kJ/mol
# Density = 2.403583 g / cm^3
# Si number density = 24.090663 Si / 1000 Ang^3
#
#
#
# Elastic Constant Matrix: (Units=GPa)
#
#
# Indices 1 2 3 4 5 6 
#
# 1 38.9803 5.3941 -18.7939 0.0000 -0.2948 0.0000
# 2 5.3941 139.7911 12.1691 0.0000 -18.2001 0.0000
# 3 -18.7939 12.1691 41.0902 0.0000 -7.5231 0.0000
# 4 0.0000 0.0000 0.0000 34.6046 0.0000 4.3259
# 5 -0.2948 -18.2001 -7.5231 0.0000 34.1079 0.0000
# 6 0.0000 0.0000 0.0000 4.3259 0.0000 25.9605
#
#
#
# Elastic Compliance Matrix: (Units=1/GPa)
#
#
# Indices 1 2 3 4 5 6 
#
# 1 0.034121 -0.002428 0.016821 0.000000 0.002710 0.000000
# 2 -0.002428 0.007961 -0.002808 0.000000 0.003608 0.000000
# 3 0.016821 -0.002808 0.033987 0.000000 0.006144 0.000000
# 4 0.000000 0.000000 0.000000 0.029513 0.000000 -0.004918
# 5 0.002710 0.003608 0.006144 0.000000 0.032622 0.000000
# 6 0.000000 0.000000 0.000000 -0.004918 0.000000 0.039340
#
#
# Mechanical properties :
#
#
# Convention : Reuss Voigt Hill
#
# Bulk Modulus (GPa) = 10.07661 24.15559 17.11610
# Shear Modulus (GPa) = 26.67338 33.67409 30.17374
#
# Velocity S-wave (km/s) = 3.33108 3.74278 3.54292
# Velocity P-wave (km/s) = 4.35737 5.35972 4.88433
#
# Compressibility (1/GPa) = 0.09923972
#
# Stress axis : x y z
#
# Youngs Moduli (GPa) = 29.30770 125.60621 29.42309
#
# Poissons Ratio (x) = 0.30500 -0.49494
# Poissons Ratio (y) = 0.07116 0.08262
# Poissons Ratio (z) = -0.49300 0.35269
#
# Static dielectric constant tensor:
#      x y z
#    x 2.008520 0.000000 0.021700 
#    y 0.000000 1.925070 0.000000 
#    z 0.021700 0.000000 1.924970 
# 
# From -- ./inp_files/307530.got.cif
#   From: 2010.05.17/outbox.cif.g08.bks.cpg/sg15_154_cif.got.tgz:307530.got - 2010.06.03 18:47:42.
