data_PCOD9282333
_publ_section_title
;
Structure prediction by ZEFSAII (Michael W. Deem and Ramdas Pophale) SiO2 
 PCOD9282333
Probable space group: C 2/C
;
_chemical_formula_sum "Si O2"
_cell_formula_units_Z 40
_cell_length_a 10.613339
_cell_length_b 11.070795
_cell_length_c 17.765983
_cell_angle_alpha 90.000000
_cell_angle_beta 134.735447
_cell_angle_gamma 90.000000
_cell_volume 1482.863365
_symmetry_space_group_name_H-M "C 2/C"
_symmetry_group_IT_number 15
_symmetry_cell_setting 'monoclinic'
loop_
_space_group_symop_operation_xyz
x,y,z
-x,y,1/2-z
-x,-y,-z
x,-y,1/2+z
1/2+x,1/2+y,z
1/2-x,1/2+y,1/2-z
1/2-x,1/2-y,-z
1/2+x,1/2-y,1/2+z
loop_
_atom_site_type_symbol
_atom_site_label
_atom_site_fract_x
_atom_site_fract_y
_atom_site_fract_z
Si Si1 0.192111 0.469150 0.360965
Si Si2 0.588849 0.112926 0.080936
Si Si3 0.172522 0.766396 0.605152
Si Si4 0.337130 0.443496 0.270132
Si Si5 0.129335 0.879881 0.917421
O O1 0.226276 0.612896 0.375446
O O2 0.323631 0.416546 0.353039
O O3 0.236063 0.420423 0.461194
O O4 0.000000 0.437315 0.250000
O O5 0.753106 0.167251 0.101660
O O6 0.685967 0.047759 0.191308
O O7 0.428978 0.207487 0.008931
O O8 0.500000 0.000000 0.000000
O O9 0.292906 0.669076 0.699269
O O10 0.020795 0.801949 0.603632
O O11 0.527062 0.504608 0.341597
#
# Coordination Sequence:
#
# PCOD9282333 Si02
#       5
#     8   8   8   8   8
#     4  11  24  41  60  87 123 160 199 249 301 355
#     4  10  21  39  61  88 121 156 197 246 294 352
#     4  10  22  40  63  91 120 157 203 244 299 358
#     4  10  22  41  62  91 123 155 199 249 298 357
#     4  11  23  41  63  89 122 160 200 248 299 356
#
# _framework density 26.974838999999999
#
# number of rings (size 3 to 8) (size 9 to 14) (size 15 to 20)
#    0.000    1.600    0.000    6.000    0.000    9.600 
#    0.000   10.000    0.000    0.000    0.000    0.000 
#    0.000    0.000    0.000    0.000    0.000    0.000 
#
# Total GULP energy -112118.309592 kJ/mol
# GULP energy per Si atom -5605.915480 kJ/mol
# Density = 2.691344 g / cm^3
# Si number density = 26.974839 Si / 1000 Ang^3
#
#
#
# Elastic Constant Matrix: (Units=GPa)
#
#
# Indices 1 2 3 4 5 6 
#
# 1 60.7291 0.8832 2.3877 0.0000 -10.3298 0.0000
# 2 0.8832 107.1405 41.8127 0.0000 2.4124 0.0000
# 3 2.3877 41.8127 124.4657 0.0000 -1.0035 0.0000
# 4 0.0000 0.0000 0.0000 63.3449 0.0000 9.5568
# 5 -10.3298 2.4124 -1.0035 0.0000 44.3972 0.0000
# 6 0.0000 0.0000 0.0000 9.5568 0.0000 32.7912
#
#
#
# Elastic Compliance Matrix: (Units=1/GPa)
#
#
# Indices 1 2 3 4 5 6 
#
# 1 0.017158 -0.000133 -0.000252 0.000000 0.003994 0.000000
# 2 -0.000133 0.010763 -0.003619 0.000000 -0.000698 0.000000
# 3 -0.000252 -0.003619 0.009258 0.000000 0.000347 0.000000
# 4 0.000000 0.000000 0.000000 0.016513 0.000000 -0.004813
# 5 0.003994 -0.000698 0.000347 0.000000 0.023499 0.000000
# 6 0.000000 0.000000 0.000000 -0.004813 0.000000 0.031899
#
#
# Mechanical properties :
#
#
# Convention : Reuss Voigt Hill
#
# Bulk Modulus (GPa) = 34.28151 42.50027 38.39089
# Shear Modulus (GPa) = 39.42626 44.59010 42.00818
#
# Velocity S-wave (km/s) = 3.82723 4.07015 3.95056
# Velocity P-wave (km/s) = 5.68036 6.15450 5.92218
#
# Compressibility (1/GPa) = 0.02917024
#
# Stress axis : x y z
#
# Youngs Moduli (GPa) = 58.28280 92.91489 108.01924
#
# Poissons Ratio (x) = 0.01235 0.02725
# Poissons Ratio (y) = 0.00775 0.39088
# Poissons Ratio (z) = 0.01470 0.33622
#
# Static dielectric constant tensor:
#      x y z
#    x 2.127680 0.000000 0.002890 
#    y 0.000000 2.161860 0.000000 
#    z 0.002890 0.000000 2.033090 
# 
# From -- ./inp_files/237352.got.cif
#   From: 2010.05.17/outbox.cif.g08.bks.cpg/sg15_119_cif.got.tgz:237352.got - 2010.06.03 18:47:42.
