data_PCOD9282141
_publ_section_title
;
Structure prediction by ZEFSAII (Michael W. Deem and Ramdas Pophale) SiO2 
 PCOD9282141
Probable space group: C 2/C
;
_chemical_formula_sum "Si O2"
_cell_formula_units_Z 64
_cell_length_a 25.787467
_cell_length_b 9.192686
_cell_length_c 11.284306
_cell_angle_alpha 90.000000
_cell_angle_beta 89.992861
_cell_angle_gamma 90.000000
_cell_volume 2675.013403
_symmetry_space_group_name_H-M "C 2/C"
_symmetry_group_IT_number 15
_symmetry_cell_setting 'monoclinic'
loop_
_space_group_symop_operation_xyz
x,y,z
-x,y,1/2-z
-x,-y,-z
x,-y,1/2+z
1/2+x,1/2+y,z
1/2-x,1/2+y,1/2-z
1/2-x,1/2-y,-z
1/2+x,1/2-y,1/2+z
loop_
_atom_site_type_symbol
_atom_site_label
_atom_site_fract_x
_atom_site_fract_y
_atom_site_fract_z
Si Si1 0.435752 0.747003 0.862484
Si Si2 0.810347 0.765220 0.962957
Si Si3 0.153990 0.321673 0.456859
Si Si4 0.067919 0.066558 0.238006
Si Si5 0.789430 0.477905 0.848883
Si Si6 0.318316 0.417511 0.729841
Si Si7 0.003875 0.162156 0.052334
Si Si8 0.630735 0.880444 0.838486
O O1 0.386539 0.742128 0.953936
O O2 0.449231 0.593145 0.802602
O O3 0.415510 0.846305 0.753899
O O4 0.484869 0.772903 0.951000
O O5 0.819113 0.624949 0.879251
O O6 0.813441 0.897023 0.871404
O O7 0.750000 0.750000 0.000000
O O8 0.851728 0.743108 0.067637
O O9 0.201356 0.379481 0.536472
O O10 0.177908 0.226818 0.351636
O O11 0.125047 0.464869 0.404960
O O12 0.124169 0.027859 0.284255
O O13 0.037678 0.150632 0.340902
O O14 0.058875 0.167641 0.121092
O O15 0.729995 0.505813 0.818451
O O16 0.817345 0.400341 0.740306
O O17 0.000000 0.000000 0.000000
#
# Coordination Sequence:
#
# PCOD9282141 Si02
#       8
#     8   8   8   8   8   8   8   8
#     4  10  21  39  68  88 123 165 205 259 312 382
#     4  11  23  37  54  83 127 167 201 264 301 355
#     4  10  21  39  57  87 121 166 213 249 306 362
#     4  10  22  36  63 101 123 154 203 255 326 383
#     4  10  22  36  56  81 121 168 208 248 301 362
#     4  12  22  36  61  90 125 161 210 256 306 377
#     4   9  19  41  62  94 125 155 192 256 333 373
#     4  10  21  39  58  87 121 171 213 247 307 363
#
# _framework density 23.925115000000002
#
# number of rings (size 3 to 8) (size 9 to 14) (size 15 to 20)
#    0.000    1.750    3.750    0.375    1.750    3.000 
#    0.000    0.000    0.000    0.750   16.250    0.000 
#    0.000    0.000    0.000    0.000    0.000    0.000 
#
# Total GULP energy -178357.110510 kJ/mol
# GULP energy per Si atom -5573.659703 kJ/mol
# Density = 2.387066 g / cm^3
# Si number density = 23.925115 Si / 1000 Ang^3
#
#
#
# Elastic Constant Matrix: (Units=GPa)
#
#
# Indices 1 2 3 4 5 6 
#
# 1 66.1293 12.0831 41.5955 0.0000 26.2967 0.0000
# 2 12.0831 21.5248 27.8905 0.0000 15.4208 0.0000
# 3 41.5955 27.8905 136.1040 0.0000 26.8293 0.0000
# 4 0.0000 0.0000 0.0000 33.0682 0.0000 13.1379
# 5 26.2967 15.4208 26.8293 0.0000 44.8963 0.0000
# 6 0.0000 0.0000 0.0000 13.1379 0.0000 15.7613
#
#
#
# Elastic Compliance Matrix: (Units=1/GPa)
#
#
# Indices 1 2 3 4 5 6 
#
# 1 0.022184 0.001623 -0.005034 0.000000 -0.010543 0.000000
# 2 0.001623 0.075174 -0.012042 0.000000 -0.019575 0.000000
# 3 -0.005034 -0.012042 0.011286 0.000000 0.000340 0.000000
# 4 0.000000 0.000000 0.000000 0.045214 0.000000 -0.037688
# 5 -0.010543 -0.019575 0.000340 0.000000 0.034969 0.000000
# 6 0.000000 0.000000 0.000000 -0.037688 0.000000 0.094862
#
#
# Mechanical properties :
#
#
# Convention : Reuss Voigt Hill
#
# Bulk Modulus (GPa) = 12.86373 42.98849 27.92611
# Shear Modulus (GPa) = 14.68390 28.22443 21.45416
#
# Velocity S-wave (km/s) = 2.48007 3.43840 2.99778
# Velocity P-wave (km/s) = 3.68637 5.81123 4.86620
#
# Compressibility (1/GPa) = 0.07773794
#
# Stress axis : x y z
#
# Youngs Moduli (GPa) = 45.07690 13.30245 88.60188
#
# Poissons Ratio (x) = -0.02159 0.44604
# Poissons Ratio (y) = -0.07314 1.06694
# Poissons Ratio (z) = 0.22692 0.16019
#
# Static dielectric constant tensor:
#      x y z
#    x 1.961830 0.000000 0.051740 
#    y 0.000000 1.962800 0.000000 
#    z 0.051740 0.000000 1.942160 
# 
# From -- ./inp_files/117614.got.cif
#   From: 2010.05.17/outbox.cif.g08.bks.cpg/sg15_59_cif.got.tgz:117614.got - 2010.06.03 18:47:42.
