data_PCOD9282914
_publ_section_title
;
Structure prediction by ZEFSAII (Michael W. Deem and Ramdas Pophale) SiO2 
 PCOD9282914
Probable space group: C 2/C
;
_chemical_formula_sum "Si O2"
_cell_formula_units_Z 52
_cell_length_a 20.560723
_cell_length_b 14.033965
_cell_length_c 8.153826
_cell_angle_alpha 90.000000
_cell_angle_beta 100.536397
_cell_angle_gamma 90.000000
_cell_volume 2313.103739
_symmetry_space_group_name_H-M "C 2/C"
_symmetry_group_IT_number 15
_symmetry_cell_setting 'monoclinic'
loop_
_space_group_symop_operation_xyz
x,y,z
-x,y,1/2-z
-x,-y,-z
x,-y,1/2+z
1/2+x,1/2+y,z
1/2-x,1/2+y,1/2-z
1/2-x,1/2-y,-z
1/2+x,1/2-y,1/2+z
loop_
_atom_site_type_symbol
_atom_site_label
_atom_site_fract_x
_atom_site_fract_y
_atom_site_fract_z
Si Si1 0.931334 0.112116 0.960371
Si Si2 0.569651 0.391517 0.434872
Si Si3 0.709095 0.652478 0.460356
Si Si4 0.906288 0.556791 0.461525
Si Si5 0.820545 0.591894 0.710658
Si Si6 0.500000 0.932661 0.750000
Si Si7 0.302225 0.714503 0.389529
O O1 0.931206 0.113251 0.762753
O O2 0.007415 0.147249 0.015119
O O3 0.867052 0.158636 0.015549
O O4 0.927229 0.002836 0.018288
O O5 0.634621 0.334038 0.505558
O O6 0.750000 0.750000 0.500000
O O7 0.747364 0.578303 0.598197
O O8 0.716785 0.641801 0.267652
O O9 0.863936 0.613154 0.570507
O O10 0.856262 0.490438 0.332684
O O11 0.949206 0.616400 0.350495
O O12 0.954754 0.495144 0.604123
O O13 0.821731 0.685566 0.818403
O O14 0.250000 0.750000 0.500000
#
# Coordination Sequence:
#
# PCOD9282914 Si02
#       7
#     8   8   8   8   8   4   8
#     4  10  21  40  66  95 126 169 216 272 326 386
#     4  10  21  39  65  95 129 166 218 269 326 394
#     4  10  22  40  59  85 124 160 204 265 325 386
#     4   9  18  36  60  88 118 160 210 256 312 383
#     4  10  22  38  60  88 122 166 214 262 320 390
#     4   8  16  34  58  84 122 150 192 260 306 364
#     4  11  24  42  62  89 129 170 210 267 332 393
#
# _framework density 22.480616000000001
#
# number of rings (size 3 to 8) (size 9 to 14) (size 15 to 20)
#    0.000    2.154    0.000    2.769    0.000    8.000 
#    0.000   20.000    0.000    0.000    0.000    0.000 
#    0.000    0.000    0.000    0.000    0.000    0.000 
#
# Total GULP energy -144781.271336 kJ/mol
# GULP energy per Si atom -5568.510436 kJ/mol
# Density = 2.242945 g / cm^3
# Si number density = 22.480616 Si / 1000 Ang^3
#
#
#
# Elastic Constant Matrix: (Units=GPa)
#
#
# Indices 1 2 3 4 5 6 
#
# 1 114.0182 44.7467 20.6733 0.0000 -1.3714 0.0000
# 2 44.7467 42.3094 21.7619 0.0000 -10.9946 0.0000
# 3 20.6733 21.7619 81.2803 0.0000 -3.8280 0.0000
# 4 0.0000 0.0000 0.0000 38.6655 0.0000 11.3734
# 5 -1.3714 -10.9946 -3.8280 0.0000 44.9529 0.0000
# 6 0.0000 0.0000 0.0000 11.3734 0.0000 71.2846
#
#
#
# Elastic Compliance Matrix: (Units=1/GPa)
#
#
# Indices 1 2 3 4 5 6 
#
# 1 0.015605 -0.017818 0.000621 0.000000 -0.003829 0.000000
# 2 -0.017818 0.049532 -0.008218 0.000000 0.010871 0.000000
# 3 0.000621 -0.008218 0.014309 0.000000 -0.000772 0.000000
# 4 0.000000 0.000000 0.000000 0.027136 0.000000 -0.004330
# 5 -0.003829 0.010871 -0.000772 0.000000 0.024722 0.000000
# 6 0.000000 0.000000 0.000000 -0.004330 0.000000 0.014719
#
#
# Mechanical properties :
#
#
# Convention : Reuss Voigt Hill
#
# Bulk Modulus (GPa) = 34.94510 45.77464 40.35987
# Shear Modulus (GPa) = 24.22601 41.00899 32.61750
#
# Velocity S-wave (km/s) = 3.28630 4.27569 3.81322
# Velocity P-wave (km/s) = 5.47522 6.69189 6.11390
#
# Compressibility (1/GPa) = 0.02861632
#
# Stress axis : x y z
#
# Youngs Moduli (GPa) = 64.08389 20.18913 69.88667
#
# Poissons Ratio (x) = 0.35973 -0.04342
# Poissons Ratio (y) = 1.14185 0.57430
# Poissons Ratio (z) = -0.03982 0.16591
#
# Static dielectric constant tensor:
#      x y z
#    x 1.941600 0.000000 0.109310 
#    y 0.000000 1.854910 0.000000 
#    z 0.109310 0.000000 1.988610 
# 
# From -- ./inp_files/55389.got.cif
#   From: 2010.05.17/outbox.cif.g08.bks.cpg/sg15_28_cif.got.tgz:55389.got - 2010.06.03 18:47:42.
