data_PCOD9282933
_publ_section_title
;
Structure prediction by ZEFSAII (Michael W. Deem and Ramdas Pophale) SiO2 
 PCOD9282933
Probable space group: C 2/C
;
_chemical_formula_sum "Si O2"
_cell_formula_units_Z 56
_cell_length_a 7.063017
_cell_length_b 27.610885
_cell_length_c 12.657991
_cell_angle_alpha 90.000000
_cell_angle_beta 70.181289
_cell_angle_gamma 90.000000
_cell_volume 2322.302909
_symmetry_space_group_name_H-M "C 2/C"
_symmetry_group_IT_number 15
_symmetry_cell_setting 'monoclinic'
loop_
_space_group_symop_operation_xyz
x,y,z
-x,y,1/2-z
-x,-y,-z
x,-y,1/2+z
1/2+x,1/2+y,z
1/2-x,1/2+y,1/2-z
1/2-x,1/2-y,-z
1/2+x,1/2-y,1/2+z
loop_
_atom_site_type_symbol
_atom_site_label
_atom_site_fract_x
_atom_site_fract_y
_atom_site_fract_z
Si Si1 0.012415 0.277664 0.860608
Si Si2 0.811500 0.028252 0.840911
Si Si3 0.953630 0.084137 0.019302
Si Si4 0.624906 0.318269 0.053734
Si Si5 0.228086 0.870469 0.745522
Si Si6 0.367610 0.060301 0.046173
Si Si7 0.133075 0.620188 0.825018
O O1 0.175944 0.318082 0.799647
O O2 0.000000 0.251961 0.750000
O O3 0.016975 0.229180 0.929453
O O4 0.813730 0.304885 0.941473
O O5 0.771837 0.073740 0.769950
O O6 0.000000 0.001709 0.750000
O O7 0.625495 0.992480 0.897534
O O8 0.862930 0.050765 0.945493
O O9 0.795963 0.102159 0.138059
O O10 0.146539 0.059536 0.033907
O O11 0.005198 0.135994 0.957631
O O12 0.739417 0.338132 0.138789
O O13 0.355181 0.904860 0.647868
O O14 0.000000 0.866964 0.750000
O O15 0.499708 0.091144 0.937907
O O16 0.000000 0.635844 0.750000
#
# Coordination Sequence:
#
# PCOD9282933 Si02
#       7
#     8   8   8   8   8   8   8
#     4  11  21  41  68  91 130 165 222 272 328 407
#     4  11  23  41  64  98 134 178 220 264 328 403
#     4  10  21  39  66  96 131 178 216 267 330 393
#     4  10  23  41  66  97 124 174 220 268 338 394
#     4  10  21  39  65  97 131 173 218 280 331 386
#     4  11  22  40  64  96 138 171 221 273 326 392
#     4  11  24  42  65  95 133 171 221 275 334 394
#
# _framework density 24.113994999999999
#
# number of rings (size 3 to 8) (size 9 to 14) (size 15 to 20)
#    0.000    1.429    2.857    3.000    0.000    4.571 
#    0.000    5.714    0.000    0.000    0.000    0.000 
#    0.000    0.000    0.000    0.000    0.000    0.000 
#
# Total GULP energy -155931.052803 kJ/mol
# GULP energy per Si atom -5568.966172 kJ/mol
# Density = 2.405911 g / cm^3
# Si number density = 24.113995 Si / 1000 Ang^3
#
#
#
# Elastic Constant Matrix: (Units=GPa)
#
#
# Indices 1 2 3 4 5 6 
#
# 1 49.1448 -5.9164 16.7397 0.0000 -1.6988 0.0000
# 2 -5.9164 117.3731 21.6768 0.0000 -7.9922 0.0000
# 3 16.7397 21.6768 93.2473 0.0000 -10.1237 0.0000
# 4 0.0000 0.0000 0.0000 57.9630 0.0000 -44.0311
# 5 -1.6988 -7.9922 -10.1237 0.0000 33.5364 0.0000
# 6 0.0000 0.0000 0.0000 -44.0311 0.0000 54.4522
#
#
#
# Elastic Compliance Matrix: (Units=1/GPa)
#
#
# Indices 1 2 3 4 5 6 
#
# 1 0.022085 0.001941 -0.004388 0.000000 0.000257 0.000000
# 2 0.001941 0.009151 -0.002304 0.000000 0.001584 0.000000
# 3 -0.004388 -0.002304 0.012369 0.000000 0.002963 0.000000
# 4 0.000000 0.000000 0.000000 0.044725 0.000000 0.036166
# 5 0.000257 0.001584 0.002963 0.000000 0.031103 0.000000
# 6 0.000000 0.000000 0.000000 0.036166 0.000000 0.047609
#
#
# Mechanical properties :
#
#
# Convention : Reuss Voigt Hill
#
# Bulk Modulus (GPa) = 29.32225 36.08504 32.70364
# Shear Modulus (GPa) = 26.60818 44.34135 35.47476
#
# Velocity S-wave (km/s) = 3.32540 4.29280 3.83969
# Velocity P-wave (km/s) = 5.18947 6.29029 5.76621
#
# Compressibility (1/GPa) = 0.03410380
#
# Stress axis : x y z
#
# Youngs Moduli (GPa) = 45.27907 109.27772 80.84652
#
# Poissons Ratio (x) = -0.21212 0.35476
# Poissons Ratio (y) = -0.08789 0.18626
# Poissons Ratio (z) = 0.19869 0.25176
#
# Static dielectric constant tensor:
#      x y z
#    x 2.008470 0.000000 -0.048350 
#    y 0.000000 1.972310 0.000000 
#    z -0.048350 0.000000 1.979750 
# 
# From -- ./inp_files/81294.got.cif
#   From: 2010.05.17/outbox.cif.g08.bks.cpg/sg15_41_cif.got.tgz:81294.got - 2010.06.03 18:47:42.
