data_PCOD9282937
_publ_section_title
;
Structure prediction by ZEFSAII (Michael W. Deem and Ramdas Pophale) SiO2 
 PCOD9282937
Probable space group: C 2/C
;
_chemical_formula_sum "Si O2"
_cell_formula_units_Z 40
_cell_length_a 5.432688
_cell_length_b 24.070114
_cell_length_c 16.882168
_cell_angle_alpha 90.000000
_cell_angle_beta 135.070096
_cell_angle_gamma 90.000000
_cell_volume 1559.100685
_symmetry_space_group_name_H-M "C 2/C"
_symmetry_group_IT_number 15
_symmetry_cell_setting 'monoclinic'
loop_
_space_group_symop_operation_xyz
x,y,z
-x,y,1/2-z
-x,-y,-z
x,-y,1/2+z
1/2+x,1/2+y,z
1/2-x,1/2+y,1/2-z
1/2-x,1/2-y,-z
1/2+x,1/2-y,1/2+z
loop_
_atom_site_type_symbol
_atom_site_label
_atom_site_fract_x
_atom_site_fract_y
_atom_site_fract_z
Si Si1 0.046979 0.397350 0.339206
Si Si2 0.244764 0.388736 0.917533
Si Si3 0.871817 0.497297 0.878239
Si Si4 0.629373 0.784960 0.161984
Si Si5 0.743078 0.676141 0.415119
O O1 0.441903 0.383607 0.448068
O O2 0.000000 0.432703 0.250000
O O3 0.906374 0.437087 0.373000
O O4 0.835619 0.341202 0.281321
O O5 0.427573 0.361539 0.881122
O O6 0.132187 0.453438 0.893440
O O7 0.928796 0.354649 0.885128
O O8 0.500000 0.482832 0.750000
O O9 0.000000 0.500000 0.000000
O O10 0.369616 0.738305 0.133208
O O11 0.000000 0.756354 0.250000
O O12 0.497643 0.808917 0.047496
#
# Coordination Sequence:
#
# PCOD9282937 Si02
#       5
#     8   8   8   8   8
#     4  11  23  41  72 106 141 187 247 306 370 443
#     4  11  24  45  68  99 141 186 236 298 367 435
#     4  12  26  47  75 108 150 196 249 308 374 445
#     4  10  21  39  65  97 136 182 234 297 362 431
#     4  10  24  42  66  99 138 184 237 295 363 437
#
# _framework density 25.655812999999998
#
# number of rings (size 3 to 8) (size 9 to 14) (size 15 to 20)
#    0.000    1.200    0.000    6.000    0.000   12.000 
#    0.000    0.000    0.000    0.000    0.000    0.000 
#    0.000    0.000    0.000    0.000    0.000    0.000 
#
# Total GULP energy -111579.204187 kJ/mol
# GULP energy per Si atom -5578.960209 kJ/mol
# Density = 2.559742 g / cm^3
# Si number density = 25.655813 Si / 1000 Ang^3
#
#
#
# Elastic Constant Matrix: (Units=GPa)
#
#
# Indices 1 2 3 4 5 6 
#
# 1 105.4321 25.0986 47.3588 0.0000 5.1376 0.0000
# 2 25.0986 119.6997 22.0171 0.0000 13.0290 0.0000
# 3 47.3588 22.0171 101.8581 0.0000 -4.1241 0.0000
# 4 0.0000 0.0000 0.0000 -73.5611 0.0000 86.1418
# 5 5.1376 13.0290 -4.1241 0.0000 43.7319 0.0000
# 6 0.0000 0.0000 0.0000 86.1418 0.0000 -27.3319
#
#
#
# Elastic Compliance Matrix: (Units=1/GPa)
#
#
# Indices 1 2 3 4 5 6 
#
# 1 0.012371 -0.001412 -0.005510 0.000000 -0.001552 0.000000
# 2 -0.001412 0.009211 -0.001445 0.000000 -0.002715 0.000000
# 3 -0.005510 -0.001445 0.012784 0.000000 0.002283 0.000000
# 4 0.000000 0.000000 0.000000 0.005052 0.000000 0.015923
# 5 -0.001552 -0.002715 0.002283 0.000000 0.024073 0.000000
# 6 0.000000 0.000000 0.000000 0.015923 0.000000 0.013598
#
#
# Mechanical properties :
#
#
# Convention : Reuss Voigt Hill
#
# Bulk Modulus (GPa) = 56.70626 57.32656 57.01641
# Shear Modulus (GPa) = 50.15027 4.06880 27.10953
#
# Velocity S-wave (km/s) = 4.42603 1.26070 3.25416
# Velocity P-wave (km/s) = 6.94769 4.95097 6.03252
#
# Compressibility (1/GPa) = 0.01763474
#
# Stress axis : x y z
#
# Youngs Moduli (GPa) = 80.83161 108.56053 78.22231
#
# Poissons Ratio (x) = 0.15324 0.43099
# Poissons Ratio (y) = 0.11410 0.11301
# Poissons Ratio (z) = 0.44537 0.15684
#
# Static dielectric constant tensor:
#      x y z
#    x 2.221220 0.000000 0.039140 
#    y 0.000000 1.977250 0.000000 
#    z 0.039140 0.000000 1.953410 
# 
# From -- ./inp_files/228272.got.cif
#   From: 2010.05.17/outbox.cif.g08.bks.cpg/sg15_115_cif.got.tgz:228272.got - 2010.06.03 18:47:42.
