data_PCOD9282490
_publ_section_title
;
Structure prediction by ZEFSAII (Michael W. Deem and Ramdas Pophale) SiO2 
 PCOD9282490
Probable space group: C 2/C
;
_chemical_formula_sum "Si O2"
_cell_formula_units_Z 52
_cell_length_a 27.662364
_cell_length_b 16.752065
_cell_length_c 9.558867
_cell_angle_alpha 90.000000
_cell_angle_beta 147.247350
_cell_angle_gamma 90.000000
_cell_volume 2396.470338
_symmetry_space_group_name_H-M "C 2/C"
_symmetry_group_IT_number 15
_symmetry_cell_setting 'monoclinic'
loop_
_space_group_symop_operation_xyz
x,y,z
-x,y,1/2-z
-x,-y,-z
x,-y,1/2+z
1/2+x,1/2+y,z
1/2-x,1/2+y,1/2-z
1/2-x,1/2-y,-z
1/2+x,1/2-y,1/2+z
loop_
_atom_site_type_symbol
_atom_site_label
_atom_site_fract_x
_atom_site_fract_y
_atom_site_fract_z
Si Si1 0.054479 0.783865 0.670793
Si Si2 0.761809 0.837264 0.462912
Si Si3 0.500000 0.687402 0.750000
Si Si4 0.916678 0.038457 0.709976
Si Si5 0.703932 0.498414 0.330280
Si Si6 0.115964 0.240313 0.602857
Si Si7 0.799231 0.647896 0.982376
O O1 0.136665 0.844473 0.851544
O O2 0.038880 0.760421 0.471795
O O3 0.963096 0.812680 0.521618
O O4 0.090416 0.728749 0.885237
O O5 0.750000 0.750000 0.500000
O O6 0.760895 0.911403 0.564907
O O7 0.695483 0.841355 0.170525
O O8 0.440669 0.623962 0.695981
O O9 0.877354 0.992949 0.478445
O O10 0.834562 0.035482 0.617973
O O11 0.000000 0.000000 0.000000
O O12 0.784708 0.443913 0.477810
O O13 0.206491 0.191227 0.804071
O O14 0.127827 0.309597 0.745124
#
# Coordination Sequence:
#
# PCOD9282490 Si02
#       7
#     8   8   4   8   8   8   8
#     4  10  21  39  62  93 122 167 212 257 328 375
#     4  11  24  41  62  94 129 168 215 269 325 389
#     4  12  22  34  58  92 130 170 196 264 310 394
#     4  12  22  36  55  89 131 169 203 247 315 395
#     4  12  23  40  61  90 130 170 212 261 320 389
#     4   9  21  41  64  90 126 169 212 264 305 395
#     4  10  22  41  64  93 127 172 216 256 323 380
#
# _framework density 21.69858
#
# number of rings (size 3 to 8) (size 9 to 14) (size 15 to 20)
#    0.000    1.231    4.615    0.923    4.308    3.692 
#    0.000    0.000    0.000    0.923    0.000    0.000 
#    0.000    0.000    0.000    0.000    0.000    0.000 
#
# Total GULP energy -144818.382233 kJ/mol
# GULP energy per Si atom -5569.937778 kJ/mol
# Density = 2.164919 g / cm^3
# Si number density = 21.698580 Si / 1000 Ang^3
#
#
#
# Elastic Constant Matrix: (Units=GPa)
#
#
# Indices 1 2 3 4 5 6 
#
# 1 82.6365 35.9972 37.0164 0.0000 -33.4185 0.0000
# 2 35.9972 118.1779 36.9290 0.0000 -21.7197 0.0000
# 3 37.0164 36.9290 114.7467 0.0000 -53.5609 0.0000
# 4 0.0000 0.0000 0.0000 12.2961 0.0000 -11.5621
# 5 -33.4185 -21.7197 -53.5609 0.0000 49.4427 0.0000
# 6 0.0000 0.0000 0.0000 -11.5621 0.0000 24.3373
#
#
#
# Elastic Compliance Matrix: (Units=1/GPa)
#
#
# Indices 1 2 3 4 5 6 
#
# 1 0.017919 -0.003589 0.000591 0.000000 0.011175 0.000000
# 2 -0.003589 0.010200 -0.002358 0.000000 -0.000499 0.000000
# 3 0.000591 -0.002358 0.018178 0.000000 0.019055 0.000000
# 4 0.000000 0.000000 0.000000 0.146989 0.000000 0.069831
# 5 0.011175 -0.000499 0.019055 0.000000 0.048201 0.000000
# 6 0.000000 0.000000 0.000000 0.069831 0.000000 0.074264
#
#
# Mechanical properties :
#
#
# Convention : Reuss Voigt Hill
#
# Bulk Modulus (GPa) = 28.10248 59.49402 43.79825
# Shear Modulus (GPa) = 14.77865 30.92311 22.85088
#
# Velocity S-wave (km/s) = 2.61260 3.77917 3.24868
# Velocity P-wave (km/s) = 4.69897 6.82061 5.85667
#
# Compressibility (1/GPa) = 0.03558405
#
# Stress axis : x y z
#
# Youngs Moduli (GPa) = 55.80615 98.03832 55.01254
#
# Poissons Ratio (x) = 0.35185 -0.03249
# Poissons Ratio (y) = 0.20029 0.12972
# Poissons Ratio (z) = -0.03296 0.23118
#
# Static dielectric constant tensor:
#      x y z
#    x 1.829100 0.000000 0.009390 
#    y 0.000000 1.850490 0.000000 
#    z 0.009390 0.000000 1.919170 
# 
# From -- ./inp_files/67054.got.cif
#   From: 2010.05.17/outbox.cif.g08.bks.cpg/sg15_34_cif.got.tgz:67054.got - 2010.06.03 18:47:42.
