data_PCOD9282244
_publ_section_title
;
Structure prediction by ZEFSAII (Michael W. Deem and Ramdas Pophale) SiO2 
 PCOD9282244
Probable space group: C 2/C
;
_chemical_formula_sum "Si O2"
_cell_formula_units_Z 56
_cell_length_a 22.581830
_cell_length_b 21.664317
_cell_length_c 11.849457
_cell_angle_alpha 90.000000
_cell_angle_beta 149.953546
_cell_angle_gamma 90.000000
_cell_volume 2902.564639
_symmetry_space_group_name_H-M "C 2/C"
_symmetry_group_IT_number 15
_symmetry_cell_setting 'monoclinic'
loop_
_space_group_symop_operation_xyz
x,y,z
-x,y,1/2-z
-x,-y,-z
x,-y,1/2+z
1/2+x,1/2+y,z
1/2-x,1/2+y,1/2-z
1/2-x,1/2-y,-z
1/2+x,1/2-y,1/2+z
loop_
_atom_site_type_symbol
_atom_site_label
_atom_site_fract_x
_atom_site_fract_y
_atom_site_fract_z
Si Si1 0.046674 0.574342 0.454754
Si Si2 0.014566 0.918313 0.906881
Si Si3 0.331064 0.823182 0.209470
Si Si4 0.185273 0.992029 0.335367
Si Si5 0.169088 0.553625 0.235156
Si Si6 0.861396 0.411189 0.046241
Si Si7 0.935305 0.781752 0.753882
O O1 0.128324 0.632151 0.623783
O O2 0.118554 0.511859 0.604419
O O3 0.000000 0.575314 0.250000
O O4 0.935329 0.578090 0.356890
O O5 0.000000 0.931352 0.750000
O O6 0.000696 0.844911 0.896307
O O7 0.133388 0.947077 0.154969
O O8 0.908843 0.953734 0.796902
O O9 0.335189 0.861790 0.098971
O O10 0.417643 0.766079 0.326173
O O11 0.197350 0.800444 0.003009
O O12 0.214828 0.957151 0.499447
O O13 0.307026 0.025333 0.503475
O O14 0.193640 0.596756 0.168313
O O15 0.000000 0.415416 0.250000
O O16 0.000000 0.754853 0.750000
#
# Coordination Sequence:
#
# PCOD9282244 Si02
#       7
#     8   8   8   8   8   8   8
#     4  11  22  35  57  88 128 163 191 249 313 374
#     4  10  21  39  60  86 120 165 210 245 301 374
#     4  11  22  41  64  93 120 159 217 260 311 361
#     4  11  21  35  58  90 127 161 196 253 310 373
#     4  11  20  33  54  93 126 157 193 243 313 374
#     4  12  20  35  60  92 128 156 203 256 310 371
#     4  10  22  40  68  88 116 164 217 264 296 370
#
# _framework density 19.293282999999999
#
# number of rings (size 3 to 8) (size 9 to 14) (size 15 to 20)
#    0.000    1.143    4.286    3.429    0.000    3.429 
#    0.000    0.000    6.286    1.714    0.000    0.000 
#    0.000    0.000    0.000    0.000    0.000    0.000 
#
# Total GULP energy -156432.922197 kJ/mol
# GULP energy per Si atom -5586.890078 kJ/mol
# Density = 1.924937 g / cm^3
# Si number density = 19.293283 Si / 1000 Ang^3
#
#
#
# Elastic Constant Matrix: (Units=GPa)
#
#
# Indices 1 2 3 4 5 6 
#
# 1 83.1196 18.1922 26.6681 0.0000 -9.8770 0.0000
# 2 18.1922 52.9710 21.1056 0.0000 -8.4132 0.0000
# 3 26.6681 21.1056 75.6769 0.0000 -24.4710 0.0000
# 4 0.0000 0.0000 0.0000 19.5655 0.0000 -2.2990
# 5 -9.8770 -8.4132 -24.4710 0.0000 41.9062 0.0000
# 6 0.0000 0.0000 0.0000 -2.2990 0.0000 22.4514
#
#
#
# Elastic Compliance Matrix: (Units=1/GPa)
#
#
# Indices 1 2 3 4 5 6 
#
# 1 0.014037 -0.003194 -0.003937 0.000000 0.000368 0.000000
# 2 -0.003194 0.021998 -0.004715 0.000000 0.000910 0.000000
# 3 -0.003937 -0.004715 0.018874 0.000000 0.009147 0.000000
# 4 0.000000 0.000000 0.000000 0.051733 0.000000 0.005297
# 5 0.000368 0.000910 0.009147 0.000000 0.029474 0.000000
# 6 0.000000 0.000000 0.000000 0.005297 0.000000 0.045083
#
#
# Mechanical properties :
#
#
# Convention : Reuss Voigt Hill
#
# Bulk Modulus (GPa) = 32.03296 38.18880 35.11088
# Shear Modulus (GPa) = 23.22380 26.50472 24.86426
#
# Velocity S-wave (km/s) = 3.47324 3.71047 3.59381
# Velocity P-wave (km/s) = 5.72046 6.18010 5.95472
#
# Compressibility (1/GPa) = 0.03121784
#
# Stress axis : x y z
#
# Youngs Moduli (GPa) = 71.24197 45.45778 52.98233
#
# Poissons Ratio (x) = 0.14518 0.20857
# Poissons Ratio (y) = 0.22753 0.24983
# Poissons Ratio (z) = 0.28045 0.21435
#
# Static dielectric constant tensor:
#      x y z
#    x 1.716980 0.000000 0.004250 
#    y 0.000000 1.694850 0.000000 
#    z 0.004250 0.000000 1.686060 
# 
# From -- ./inp_files/119871.got.cif
#   From: 2010.05.17/outbox.cif.g08.bks.cpg/sg15_60_cif.got.tgz:119871.got - 2010.06.03 18:47:42.
