data_PCOD9282866
_publ_section_title
;
Structure prediction by ZEFSAII (Michael W. Deem and Ramdas Pophale) SiO2 
 PCOD9282866
Probable space group: C 2/C
;
_chemical_formula_sum "Si O2"
_cell_formula_units_Z 56
_cell_length_a 7.656812
_cell_length_b 17.149988
_cell_length_c 22.789160
_cell_angle_alpha 90.000000
_cell_angle_beta 122.319612
_cell_angle_gamma 90.000000
_cell_volume 2528.933265
_symmetry_space_group_name_H-M "C 2/C"
_symmetry_group_IT_number 15
_symmetry_cell_setting 'monoclinic'
loop_
_space_group_symop_operation_xyz
x,y,z
-x,y,1/2-z
-x,-y,-z
x,-y,1/2+z
1/2+x,1/2+y,z
1/2-x,1/2+y,1/2-z
1/2-x,1/2-y,-z
1/2+x,1/2-y,1/2+z
loop_
_atom_site_type_symbol
_atom_site_label
_atom_site_fract_x
_atom_site_fract_y
_atom_site_fract_z
Si Si1 0.123649 0.915772 0.833450
Si Si2 0.174651 0.800598 0.544734
Si Si3 0.789289 0.117609 0.938815
Si Si4 0.387538 0.553205 0.598105
Si Si5 0.658112 0.236852 0.830381
Si Si6 0.406862 0.956938 0.555042
Si Si7 0.434418 0.704420 0.671929
O O1 0.131141 0.824513 0.847914
O O2 0.359083 0.948272 0.880000
O O3 0.000000 0.925723 0.750000
O O4 0.028865 0.969669 0.866724
O O5 0.250000 0.750000 0.500000
O O6 0.293105 0.883305 0.565118
O O7 0.240451 0.752112 0.613133
O O8 0.933288 0.822935 0.501098
O O9 0.633587 0.171397 0.874852
O O10 0.954891 0.084491 0.921902
O O11 0.688183 0.041599 0.948231
O O12 0.164419 0.555247 0.525889
O O13 0.393715 0.613200 0.653001
O O14 0.500000 0.222627 0.750000
O O15 0.882346 0.229839 0.839787
O O16 0.500000 0.720259 0.750000
#
# Coordination Sequence:
#
# PCOD9282866 Si02
#       7
#     8   8   8   8   8   8   8
#     4  11  23  41  61  86 128 168 208 256 329 375
#     4  11  17  39  67  89 125 169 208 255 322 373
#     4  10  22  39  66  93 123 164 217 259 314 376
#     4  10  21  39  65  92 123 163 207 259 317 381
#     4  10  22  43  61  86 127 169 204 260 321 372
#     4  11  21  40  64  96 123 164 217 261 312 378
#     4  11  22  39  67  92 119 165 218 255 310 385
#
# _framework density 22.143722
#
# number of rings (size 3 to 8) (size 9 to 14) (size 15 to 20)
#    0.000    1.429    5.714    2.571    0.000    3.429 
#   10.286    1.429    0.000    0.000    0.000    0.000 
#    0.000    0.000    0.000    0.000    0.000    0.000 
#
# Total GULP energy -156360.764477 kJ/mol
# GULP energy per Si atom -5584.313017 kJ/mol
# Density = 2.209332 g / cm^3
# Si number density = 22.143722 Si / 1000 Ang^3
#
#
#
# Elastic Constant Matrix: (Units=GPa)
#
#
# Indices 1 2 3 4 5 6 
#
# 1 36.1956 24.4339 24.6551 0.0000 5.7205 0.0000
# 2 24.4339 145.1824 79.1954 0.0000 1.5207 0.0000
# 3 24.6551 79.1954 132.6683 0.0000 5.5746 0.0000
# 4 0.0000 0.0000 0.0000 24.2277 0.0000 16.2795
# 5 5.7205 1.5207 5.5746 0.0000 30.1574 0.0000
# 6 0.0000 0.0000 0.0000 16.2795 0.0000 18.9113
#
#
#
# Elastic Compliance Matrix: (Units=1/GPa)
#
#
# Indices 1 2 3 4 5 6 
#
# 1 0.033492 -0.003424 -0.003951 0.000000 -0.005450 0.000000
# 2 -0.003424 0.010575 -0.005726 0.000000 0.001175 0.000000
# 3 -0.003951 -0.005726 0.011737 0.000000 -0.001131 0.000000
# 4 0.000000 0.000000 0.000000 0.097908 0.000000 -0.084283
# 5 -0.005450 0.001175 -0.001131 0.000000 0.034343 0.000000
# 6 0.000000 0.000000 0.000000 -0.084283 0.000000 0.125432
#
#
# Mechanical properties :
#
#
# Convention : Reuss Voigt Hill
#
# Bulk Modulus (GPa) = 33.78120 63.40169 48.59144
# Shear Modulus (GPa) = 14.30382 27.04339 20.67361
#
# Velocity S-wave (km/s) = 2.54432 3.49845 3.05882
# Velocity P-wave (km/s) = 4.89080 6.70917 5.87081
#
# Compressibility (1/GPa) = 0.02960227
#
# Stress axis : x y z
#
# Youngs Moduli (GPa) = 29.85798 94.56045 85.19795
#
# Poissons Ratio (x) = 0.32380 0.33662
# Poissons Ratio (y) = 0.10224 0.48783
# Poissons Ratio (z) = 0.11797 0.54143
#
# Static dielectric constant tensor:
#      x y z
#    x 1.937440 0.000000 0.027630 
#    y 0.000000 1.824700 0.000000 
#    z 0.027630 0.000000 1.822130 
# 
# From -- ./inp_files/265598.got.cif
#   From: 2010.05.17/outbox.cif.g08.bks.cpg/sg15_133_cif.got.tgz:265598.got - 2010.06.03 18:47:42.
