data_PCOD9282194
_publ_section_title
;
Structure prediction by ZEFSAII (Michael W. Deem and Ramdas Pophale) SiO2 
 PCOD9282194
Probable space group: C 2/C
;
_chemical_formula_sum "Si O2"
_cell_formula_units_Z 64
_cell_length_a 20.532238
_cell_length_b 16.929429
_cell_length_c 24.211186
_cell_angle_alpha 90.000000
_cell_angle_beta 21.818533
_cell_angle_gamma 90.000000
_cell_volume 3127.879440
_symmetry_space_group_name_H-M "C 2/C"
_symmetry_group_IT_number 15
_symmetry_cell_setting 'monoclinic'
loop_
_space_group_symop_operation_xyz
x,y,z
-x,y,1/2-z
-x,-y,-z
x,-y,1/2+z
1/2+x,1/2+y,z
1/2-x,1/2+y,1/2-z
1/2-x,1/2-y,-z
1/2+x,1/2-y,1/2+z
loop_
_atom_site_type_symbol
_atom_site_label
_atom_site_fract_x
_atom_site_fract_y
_atom_site_fract_z
Si Si1 0.049016 0.802491 0.552500
Si Si2 0.469360 0.829198 0.713256
Si Si3 0.909966 0.501833 0.237014
Si Si4 0.859687 0.471465 0.153618
Si Si5 0.703987 0.804885 0.312382
Si Si6 0.485697 0.516674 0.444196
Si Si7 0.099859 0.755189 0.003297
Si Si8 0.954428 0.682176 0.721612
O O1 0.905448 0.768044 0.624028
O O2 0.000766 0.894712 0.590442
O O3 0.045113 0.746463 0.609920
O O4 0.247824 0.802109 0.374606
O O5 0.500000 0.796504 0.750000
O O6 0.575012 0.782517 0.583183
O O7 0.513472 0.922211 0.676951
O O8 0.260704 0.815521 0.868651
O O9 0.886672 0.515936 0.189743
O O10 0.711440 0.506090 0.416728
O O11 0.983039 0.413030 0.189839
O O12 0.874879 0.379744 0.156273
O O13 0.663287 0.476245 0.284032
O O14 0.000000 0.500000 0.000000
O O15 0.651193 0.811392 0.418160
O O16 0.909785 0.793019 0.141009
O O17 0.500000 0.500000 0.500000
O O18 0.000000 0.697093 0.750000
#
# Coordination Sequence:
#
# PCOD9282194 Si02
#       8
#     8   8   8   8   8   8   8   8
#     4  11  23  38  63  87 122 162 198 250 304 358
#     4  11  22  41  62  85 120 161 205 249 293 360
#     4  10  21  39  59  85 114 162 204 243 298 359
#     4  11  22  34  55  87 121 149 186 248 306 358
#     4  11  22  37  59  89 122 149 190 248 305 362
#     4   9  22  36  58  84 121 154 193 240 305 365
#     4  10  24  36  61  90 119 152 198 244 308 359
#     4  11  23  41  60  88 120 163 211 248 290 358
#
# _framework density 20.461145999999999
#
# number of rings (size 3 to 8) (size 9 to 14) (size 15 to 20)
#    0.000    1.500    1.250    3.375   14.000    0.000 
#    0.000    0.000    0.000    0.000    0.000    5.250 
#    0.000    0.000    0.000    0.000    0.000    0.000 
#
# Total GULP energy -178338.774155 kJ/mol
# GULP energy per Si atom -5573.086692 kJ/mol
# Density = 2.041458 g / cm^3
# Si number density = 20.461146 Si / 1000 Ang^3
#
#
#
# Elastic Constant Matrix: (Units=GPa)
#
#
# Indices 1 2 3 4 5 6 
#
# 1 54.6564 -2.2988 4.5079 0.0041 16.2988 -0.0016
# 2 -2.2988 86.6243 12.4204 0.0056 13.0033 -0.0016
# 3 4.5079 12.4204 91.5171 0.0121 17.4183 -0.0055
# 4 0.0041 0.0056 0.0121 17.4562 -0.0042 1.5148
# 5 16.2988 13.0033 17.4183 -0.0042 27.9332 0.0004
# 6 -0.0016 -0.0016 -0.0055 1.5148 0.0004 19.0411
#
#
#
# Elastic Compliance Matrix: (Units=1/GPa)
#
#
# Indices 1 2 3 4 5 6 
#
# 1 0.022932 0.002736 0.001462 -0.000011 -0.015566 0.000004
# 2 0.002736 0.012773 -0.000491 -0.000006 -0.007236 0.000002
# 3 0.001462 -0.000491 0.012527 -0.000011 -0.008436 0.000005
# 4 -0.000011 -0.000006 -0.000011 0.057685 0.000026 -0.004589
# 5 -0.015566 -0.007236 -0.008436 0.000026 0.053511 -0.000008
# 6 0.000004 0.000002 0.000005 -0.004589 -0.000008 0.052883
#
#
# Mechanical properties :
#
#
# Convention : Reuss Voigt Hill
#
# Bulk Modulus (GPa) = 17.97094 29.11744 23.54419
# Shear Modulus (GPa) = 22.37662 27.43065 24.90363
#
# Velocity S-wave (km/s) = 3.31057 3.66542 3.49251
# Velocity P-wave (km/s) = 4.83893 5.67232 5.27212
#
# Compressibility (1/GPa) = 0.05564538
#
# Stress axis : x y z
#
# Youngs Moduli (GPa) = 43.60642 78.28813 79.82668
#
# Poissons Ratio (x) = -0.21416 -0.11669
# Poissons Ratio (y) = -0.11929 0.03920
# Poissons Ratio (z) = -0.06374 0.03844
#
# Static dielectric constant tensor:
#      x y z
#    x 1.809770 0.000020 0.033570 
#    y 0.000020 1.806550 0.000030 
#    z 0.033570 0.000030 1.760310 
# 
# From -- ./inp_files/255994.got.cif
#   From: 2010.05.17/outbox.cif.g08.bks.cpg/sg15_128_cif.got.tgz:255994.got - 2010.06.03 18:47:42.
