data_PCOD9282441
_publ_section_title
;
Structure prediction by ZEFSAII (Michael W. Deem and Ramdas Pophale) SiO2 
 PCOD9282441
Probable space group: C 2/C
;
_chemical_formula_sum "Si O2"
_cell_formula_units_Z 44
_cell_length_a 16.218466
_cell_length_b 9.143342
_cell_length_c 14.319807
_cell_angle_alpha 90.000000
_cell_angle_beta 56.094487
_cell_angle_gamma 90.000000
_cell_volume 1762.415652
_symmetry_space_group_name_H-M "C 2/C"
_symmetry_group_IT_number 15
_symmetry_cell_setting 'monoclinic'
loop_
_space_group_symop_operation_xyz
x,y,z
-x,y,1/2-z
-x,-y,-z
x,-y,1/2+z
1/2+x,1/2+y,z
1/2-x,1/2+y,1/2-z
1/2-x,1/2-y,-z
1/2+x,1/2-y,1/2+z
loop_
_atom_site_type_symbol
_atom_site_label
_atom_site_fract_x
_atom_site_fract_y
_atom_site_fract_z
Si Si1 0.279350 0.842753 0.841494
Si Si2 0.553653 0.250364 0.848843
Si Si3 0.940837 0.187199 0.953441
Si Si4 0.769338 0.447478 0.179849
Si Si5 0.901918 0.494231 0.921336
Si Si6 0.000000 0.022589 0.250000
O O1 0.311931 0.677721 0.793010
O O2 0.353736 0.938401 0.855838
O O3 0.247528 0.930846 0.769605
O O4 0.179421 0.817606 0.964345
O O5 0.644282 0.149332 0.824415
O O6 0.575715 0.364177 0.752499
O O7 0.465795 0.139759 0.876295
O O8 0.521588 0.334280 0.964635
O O9 0.968641 0.355029 0.911136
O O10 0.965636 0.076631 0.856640
O O11 0.817848 0.510016 0.054661
#
# Coordination Sequence:
#
# PCOD9282441 Si02
#       6
#     8   8   8   8   8   4
#     4  10  22  39  61  90 122 160 206 252 309 370
#     4  10  22  41  61  91 122 160 209 251 303 373
#     4  10  23  40  60  90 124 158 203 258 310 364
#     4  10  21  39  62  89 125 161 199 258 312 360
#     4  10  21  41  64  88 119 163 211 250 299 376
#     4  12  24  38  62  88 122 162 200 254 312 364
#
# _framework density 24.965734000000001
#
# number of rings (size 3 to 8) (size 9 to 14) (size 15 to 20)
#    0.000    2.182    0.000    6.000    0.000   10.909 
#    0.000    2.727    0.000    0.000    0.000    0.000 
#    0.000    0.000    0.000    0.000    0.000    0.000 
#
# Total GULP energy -123097.664826 kJ/mol
# GULP energy per Si atom -5595.348401 kJ/mol
# Density = 2.490891 g / cm^3
# Si number density = 24.965734 Si / 1000 Ang^3
#
#
#
# Elastic Constant Matrix: (Units=GPa)
#
#
# Indices 1 2 3 4 5 6 
#
# 1 85.4193 32.8772 27.7074 0.0000 23.9979 0.0000
# 2 32.8772 129.3937 68.6482 0.0000 12.0512 0.0000
# 3 27.7074 68.6482 111.3758 0.0000 27.5260 0.0000
# 4 0.0000 0.0000 0.0000 53.8780 0.0000 22.3137
# 5 23.9979 12.0512 27.5260 0.0000 33.0932 0.0000
# 6 0.0000 0.0000 0.0000 22.3137 0.0000 41.5595
#
#
#
# Elastic Compliance Matrix: (Units=1/GPa)
#
#
# Indices 1 2 3 4 5 6 
#
# 1 0.015836 -0.003493 0.000928 0.000000 -0.010984 0.000000
# 2 -0.003493 0.012376 -0.007894 0.000000 0.004592 0.000000
# 3 0.000928 -0.007894 0.016451 0.000000 -0.011482 0.000000
# 4 0.000000 0.000000 0.000000 0.023868 0.000000 -0.012815
# 5 -0.010984 0.004592 -0.011482 0.000000 0.046060 0.000000
# 6 0.000000 0.000000 0.000000 -0.012815 0.000000 0.030942
#
#
# Mechanical properties :
#
#
# Convention : Reuss Voigt Hill
#
# Bulk Modulus (GPa) = 42.11465 64.96161 53.53813
# Shear Modulus (GPa) = 28.67493 38.83655 33.75574
#
# Velocity S-wave (km/s) = 3.39274 3.94838 3.68106
# Velocity P-wave (km/s) = 5.67918 6.84566 6.28952
#
# Compressibility (1/GPa) = 0.02374471
#
# Stress axis : x y z
#
# Youngs Moduli (GPa) = 63.14665 80.79844 60.78552
#
# Poissons Ratio (x) = 0.28224 -0.05640
# Poissons Ratio (y) = 0.22058 0.47987
# Poissons Ratio (z) = -0.05860 0.63786
#
# Static dielectric constant tensor:
#      x y z
#    x 2.051500 0.000000 -0.002460 
#    y 0.000000 2.002980 0.000000 
#    z -0.002460 0.000000 1.973650 
# 
# From -- ./inp_files/159673.got.cif
#   From: 2010.05.17/outbox.cif.g08.bks.cpg/sg15_80_cif.got.tgz:159673.got - 2010.06.03 18:47:42.
