data_PCOD9282827
_publ_section_title
;
Structure prediction by ZEFSAII (Michael W. Deem and Ramdas Pophale) SiO2 
 PCOD9282827
Probable space group: C 2/C
;
_chemical_formula_sum "Si O2"
_cell_formula_units_Z 60
_cell_length_a 8.684849
_cell_length_b 28.097183
_cell_length_c 11.507902
_cell_angle_alpha 90.000000
_cell_angle_beta 89.222039
_cell_angle_gamma 90.000000
_cell_volume 2807.896995
_symmetry_space_group_name_H-M "C 2/C"
_symmetry_group_IT_number 15
_symmetry_cell_setting 'monoclinic'
loop_
_space_group_symop_operation_xyz
x,y,z
-x,y,1/2-z
-x,-y,-z
x,-y,1/2+z
1/2+x,1/2+y,z
1/2-x,1/2+y,1/2-z
1/2-x,1/2-y,-z
1/2+x,1/2-y,1/2+z
loop_
_atom_site_type_symbol
_atom_site_label
_atom_site_fract_x
_atom_site_fract_y
_atom_site_fract_z
Si Si1 0.416224 0.043037 0.370804
Si Si2 0.127290 0.795431 0.662660
Si Si3 0.282881 0.160876 0.579771
Si Si4 0.312034 0.944753 0.447262
Si Si5 0.165431 0.216583 0.780354
Si Si6 0.500000 0.895857 0.250000
Si Si7 0.842863 0.354519 0.822901
Si Si8 0.438433 0.363806 0.050245
O O1 0.500000 0.027648 0.250000
O O2 0.554715 0.059823 0.455628
O O3 0.317738 0.089625 0.345401
O O4 0.311618 0.001905 0.428684
O O5 0.241508 0.751822 0.639020
O O6 0.214626 0.832725 0.743468
O O7 0.070781 0.825440 0.554155
O O8 0.000000 0.774785 0.750000
O O9 0.244106 0.207248 0.655584
O O10 0.410379 0.134257 0.654290
O O11 0.342474 0.169396 0.449447
O O12 0.120986 0.131397 0.573243
O O13 0.378914 0.926059 0.324700
O O14 0.161823 0.911668 0.472292
O O15 0.138279 0.165622 0.842241
O O16 0.000000 0.237509 0.750000
O O17 0.000000 0.350647 0.750000
#
# Coordination Sequence:
#
# PCOD9282827 Si02
#       8
#     8   8   8   8   8   4   8   8
#     4  10  21  39  65 103 134 174 233 272 323 401
#     4  12  25  43  66  96 135 176 220 279 343 402
#     4  11  24  43  67  97 135 172 231 278 340 399
#     4  11  22  38  71  97 133 180 222 277 332 396
#     4  10  24  43  66  97 132 178 226 277 333 407
#     4  12  22  40  68 100 128 176 230 282 326 406
#     4  11  23  43  67  94 135 182 222 276 336 401
#     4  11  23  46  66  97 141 177 218 285 341 401
#
# _framework density 21.368307000000001
#
# number of rings (size 3 to 8) (size 9 to 14) (size 15 to 20)
#    0.000    1.067    4.667    2.400    0.933    0.533 
#    2.400    0.667    2.933    0.000    0.000    0.000 
#    0.000    0.000    0.000    0.000    0.000    0.000 
#
# Total GULP energy -167475.203497 kJ/mol
# GULP energy per Si atom -5582.506783 kJ/mol
# Density = 2.131967 g / cm^3
# Si number density = 21.368307 Si / 1000 Ang^3
#
#
#
# Elastic Constant Matrix: (Units=GPa)
#
#
# Indices 1 2 3 4 5 6 
#
# 1 73.4341 35.8502 18.9832 0.0000 9.5882 0.0000
# 2 35.8502 79.3143 6.8112 0.0000 6.5793 0.0000
# 3 18.9832 6.8112 107.5913 0.0000 -7.2652 0.0000
# 4 0.0000 0.0000 0.0000 1.8654 0.0000 65.0231
# 5 9.5882 6.5793 -7.2652 0.0000 36.7923 0.0000
# 6 0.0000 0.0000 0.0000 65.0231 0.0000 -161.2263
#
#
#
# Elastic Compliance Matrix: (Units=1/GPa)
#
#
# Indices 1 2 3 4 5 6 
#
# 1 0.018808 -0.007895 -0.003095 0.000000 -0.004101 0.000000
# 2 -0.007895 0.016214 0.000314 0.000000 -0.000780 0.000000
# 3 -0.003095 0.000314 0.010005 0.000000 0.002726 0.000000
# 4 0.000000 0.000000 0.000000 0.035601 0.000000 0.014358
# 5 -0.004101 -0.000780 0.002726 0.000000 0.028926 0.000000
# 6 0.000000 0.000000 0.000000 0.014358 0.000000 -0.000412
#
#
# Mechanical properties :
#
#
# Convention : Reuss Voigt Hill
#
# Bulk Modulus (GPa) = 42.24145 42.62541 42.43343
# Shear Modulus (GPa) = 36.13076 -11.26739 12.43169
#
# Velocity S-wave (km/s) = 4.11646 -2.29878 2.41463
# Velocity P-wave (km/s) = 6.51190 3.59797 5.26072
#
# Compressibility (1/GPa) = 0.02367343
#
# Stress axis : x y z
#
# Youngs Moduli (GPa) = 53.16993 61.67351 99.95191
#
# Poissons Ratio (x) = 0.48692 0.30940
# Poissons Ratio (y) = 0.41978 -0.03137
# Poissons Ratio (z) = 0.16459 -0.01936
#
# Static dielectric constant tensor:
#      x y z
#    x 1.943660 0.000000 -0.086560 
#    y 0.000000 1.801220 0.000000 
#    z -0.086560 0.000000 1.806850 
# 
# From -- ./inp_files/82260.got.cif
#   From: 2010.05.17/outbox.cif.g08.bks.cpg/sg15_42_cif.got.tgz:82260.got - 2010.06.03 18:47:42.
