data_PCOD9282042
_publ_section_title
;
Structure prediction by ZEFSAII (Michael W. Deem and Ramdas Pophale) SiO2 
 PCOD9282042
Probable space group: C 2/C
;
_chemical_formula_sum "Si O2"
_cell_formula_units_Z 40
_cell_length_a 8.129742
_cell_length_b 23.882079
_cell_length_c 8.294782
_cell_angle_alpha 90.000000
_cell_angle_beta 82.150494
_cell_angle_gamma 90.000000
_cell_volume 1595.384752
_symmetry_space_group_name_H-M "C 2/C"
_symmetry_group_IT_number 15
_symmetry_cell_setting 'monoclinic'
loop_
_space_group_symop_operation_xyz
x,y,z
-x,y,1/2-z
-x,-y,-z
x,-y,1/2+z
1/2+x,1/2+y,z
1/2-x,1/2+y,1/2-z
1/2-x,1/2-y,-z
1/2+x,1/2-y,1/2+z
loop_
_atom_site_type_symbol
_atom_site_label
_atom_site_fract_x
_atom_site_fract_y
_atom_site_fract_z
Si Si1 0.429972 0.647332 0.073506
Si Si2 0.334879 0.534974 0.170432
Si Si3 0.867012 0.549512 0.996393
Si Si4 0.806005 0.733937 0.252667
Si Si5 0.291185 0.167610 0.917029
O O1 0.500000 0.644375 0.250000
O O2 0.357428 0.586350 0.045451
O O3 0.290410 0.695383 0.103791
O O4 0.593154 0.654725 0.946008
O O5 0.500000 0.524060 0.250000
O O6 0.201927 0.558191 0.315701
O O7 0.272609 0.479750 0.093836
O O8 0.895134 0.610376 0.916266
O O9 0.000000 0.500000 0.000000
O O10 0.694428 0.788780 0.230977
O O11 0.000000 0.746393 0.250000
O O12 0.813530 0.699842 0.082896
#
# Coordination Sequence:
#
# PCOD9282042 Si02
#       5
#     8   8   8   8   8
#     4   9  18  39  66  86 127 178 213 264 340 402
#     4  11  22  42  67  94 131 185 225 272 341 418
#     4  12  25  41  67 101 137 178 227 290 343 399
#     4  10  21  38  68  94 125 174 222 277 330 399
#     4  10  22  42  60  96 135 168 223 277 334 408
#
# _framework density 25.072320999999999
#
# number of rings (size 3 to 8) (size 9 to 14) (size 15 to 20)
#    0.000    1.600    6.000    1.200    2.800    1.600 
#    0.000   10.000    0.000    0.000    0.000    0.000 
#    0.000    0.000    0.000    0.000    0.000    0.000 
#
# Total GULP energy -111807.173304 kJ/mol
# GULP energy per Si atom -5590.358665 kJ/mol
# Density = 2.501526 g / cm^3
# Si number density = 25.072321 Si / 1000 Ang^3
#
#
#
# Elastic Constant Matrix: (Units=GPa)
#
#
# Indices 1 2 3 4 5 6 
#
# 1 97.5025 38.9596 7.1257 0.0000 6.1155 0.0000
# 2 38.9596 180.8021 21.6994 0.0000 26.4003 0.0000
# 3 7.1257 21.6994 38.3391 0.0000 -5.3581 0.0000
# 4 0.0000 0.0000 0.0000 15.7824 0.0000 1.1454
# 5 6.1155 26.4003 -5.3581 0.0000 25.1873 0.0000
# 6 0.0000 0.0000 0.0000 1.1454 0.0000 39.1260
#
#
#
# Elastic Compliance Matrix: (Units=1/GPa)
#
#
# Indices 1 2 3 4 5 6 
#
# 1 0.011250 -0.002229 -0.000912 0.000000 -0.000590 0.000000
# 2 -0.002229 0.007956 -0.005337 0.000000 -0.008934 0.000000
# 3 -0.000912 -0.005337 0.031008 0.000000 0.012412 0.000000
# 4 0.000000 0.000000 0.000000 0.063496 0.000000 -0.001859
# 5 -0.000590 -0.008934 0.012412 0.000000 0.051850 0.000000
# 6 0.000000 0.000000 0.000000 -0.001859 0.000000 0.025613
#
#
# Mechanical properties :
#
#
# Convention : Reuss Voigt Hill
#
# Bulk Modulus (GPa) = 30.06752 50.24591 40.15672
# Shear Modulus (GPa) = 22.80854 32.60974 27.70914
#
# Velocity S-wave (km/s) = 3.01941 3.61033 3.32801
# Velocity P-wave (km/s) = 4.91672 6.12072 5.55146
#
# Compressibility (1/GPa) = 0.03325848
#
# Stress axis : x y z
#
# Youngs Moduli (GPa) = 88.88646 125.68818 32.24964
#
# Poissons Ratio (x) = 0.28012 0.02941
# Poissons Ratio (y) = 0.19810 0.17213
# Poissons Ratio (z) = 0.08106 0.67085
#
# Static dielectric constant tensor:
#      x y z
#    x 2.041020 0.000000 -0.036640 
#    y 0.000000 2.048050 0.000000 
#    z -0.036640 0.000000 2.009790 
# 
# From -- ./inp_files/23648.got.cif
#   From: 2010.05.17/outbox.cif.g08.bks.cpg/sg15_12_cif.got.tgz:23648.got - 2010.06.03 18:47:42.
