data_PCOD9282108
_publ_section_title
;
Structure prediction by ZEFSAII (Michael W. Deem and Ramdas Pophale) SiO2 
 PCOD9282108
Probable space group: C 2/C
;
_chemical_formula_sum "Si O2"
_cell_formula_units_Z 56
_cell_length_a 20.311442
_cell_length_b 26.222569
_cell_length_c 11.031172
_cell_angle_alpha 90.000000
_cell_angle_beta 151.233209
_cell_angle_gamma 90.000000
_cell_volume 2827.512245
_symmetry_space_group_name_H-M "C 2/C"
_symmetry_group_IT_number 15
_symmetry_cell_setting 'monoclinic'
loop_
_space_group_symop_operation_xyz
x,y,z
-x,y,1/2-z
-x,-y,-z
x,-y,1/2+z
1/2+x,1/2+y,z
1/2-x,1/2+y,1/2-z
1/2-x,1/2-y,-z
1/2+x,1/2-y,1/2+z
loop_
_atom_site_type_symbol
_atom_site_label
_atom_site_fract_x
_atom_site_fract_y
_atom_site_fract_z
Si Si1 0.916700 0.484062 0.240468
Si Si2 0.711936 0.820378 0.845879
Si Si3 0.263533 0.200255 0.383675
Si Si4 0.845495 0.380863 0.216220
Si Si5 0.594280 0.097656 0.287829
Si Si6 0.056161 0.224604 0.643484
Si Si7 0.852322 0.187043 0.964898
O O1 0.817723 0.436842 0.113566
O O2 0.857791 0.539875 0.114337
O O3 0.000000 0.470068 0.250000
O O4 0.000000 0.500000 0.500000
O O5 0.697083 0.826248 0.679360
O O6 0.718291 0.867900 0.945565
O O7 0.584394 0.784999 0.681809
O O8 0.856309 0.791811 0.099202
O O9 0.325654 0.163723 0.585906
O O10 0.318729 0.258436 0.475301
O O11 0.099079 0.206882 0.118694
O O12 0.751687 0.358151 0.172111
O O13 0.994497 0.391883 0.511523
O O14 0.500000 0.111970 0.250000
O O15 0.135844 0.202494 0.655392
O O16 0.000000 0.170499 0.250000
#
# Coordination Sequence:
#
# PCOD9282108 Si02
#       7
#     8   8   8   8   8   8   8
#     4   9  21  38  60  89 117 146 195 252 305 359
#     4  10  22  35  61  82 118 159 194 242 287 358
#     4  11  23  34  56  87 121 155 195 240 292 357
#     4  11  22  35  60  85 117 150 191 245 299 353
#     4  10  21  39  60  87 113 151 195 250 303 351
#     4  10  21  39  53  84 121 160 199 229 288 354
#     4  11  22  35  54  84 122 156 193 237 287 355
#
# _framework density 19.805395999999998
#
# number of rings (size 3 to 8) (size 9 to 14) (size 15 to 20)
#    0.000    1.714    1.429    2.571    8.000    2.286 
#    0.000    0.000    0.000    2.571    0.000    0.000 
#    0.000    0.000    0.000    0.000    0.000    0.000 
#
# Total GULP energy -155945.190596 kJ/mol
# GULP energy per Si atom -5569.471093 kJ/mol
# Density = 1.976032 g / cm^3
# Si number density = 19.805396 Si / 1000 Ang^3
#
#
#
# Elastic Constant Matrix: (Units=GPa)
#
#
# Indices 1 2 3 4 5 6 
#
# 1 74.3052 42.3104 -7.5764 0.0000 -5.8006 0.0000
# 2 42.3104 113.7161 16.6553 0.0000 18.7546 0.0000
# 3 -7.5764 16.6553 52.8527 0.0000 -3.4079 0.0000
# 4 0.0000 0.0000 0.0000 19.1460 0.0000 3.3841
# 5 -5.8006 18.7546 -3.4079 0.0000 29.5315 0.0000
# 6 0.0000 0.0000 0.0000 3.3841 0.0000 31.2464
#
#
#
# Elastic Compliance Matrix: (Units=1/GPa)
#
#
# Indices 1 2 3 4 5 6 
#
# 1 0.021432 -0.011037 0.007328 0.000000 0.012065 0.000000
# 2 -0.011037 0.016204 -0.007548 0.000000 -0.013330 0.000000
# 3 0.007328 -0.007548 0.022922 0.000000 0.008878 0.000000
# 4 0.000000 0.000000 0.000000 0.053250 0.000000 -0.005767
# 5 0.012065 -0.013330 0.008878 0.000000 0.045722 0.000000
# 6 0.000000 0.000000 0.000000 -0.005767 0.000000 0.032628
#
#
# Mechanical properties :
#
#
# Convention : Reuss Voigt Hill
#
# Bulk Modulus (GPa) = 26.28528 38.18363 32.23446
# Shear Modulus (GPa) = 21.99218 28.61710 25.30464
#
# Velocity S-wave (km/s) = 3.33590 3.80533 3.57832
# Velocity P-wave (km/s) = 5.30455 6.21519 5.77784
#
# Compressibility (1/GPa) = 0.03804410
#
# Stress axis : x y z
#
# Youngs Moduli (GPa) = 46.65972 61.71165 43.62609
#
# Poissons Ratio (x) = 0.68112 -0.31970
# Poissons Ratio (y) = 0.51499 0.32929
# Poissons Ratio (z) = -0.34193 0.46581
#
# Static dielectric constant tensor:
#      x y z
#    x 1.764900 0.000000 -0.038020 
#    y 0.000000 1.792340 0.000000 
#    z -0.038020 0.000000 1.734220 
# 
# From -- ./inp_files/91847.got.cif
#   From: 2010.05.17/outbox.cif.g08.bks.cpg/sg15_46_cif.got.tgz:91847.got - 2010.06.03 18:47:42.
