data_PCOD9282216
_publ_section_title
;
Structure prediction by ZEFSAII (Michael W. Deem and Ramdas Pophale) SiO2 
 PCOD9282216
Probable space group: C 2/C
;
_chemical_formula_sum "Si O2"
_cell_formula_units_Z 52
_cell_length_a 20.230415
_cell_length_b 22.423269
_cell_length_c 5.041960
_cell_angle_alpha 90.000000
_cell_angle_beta 96.897176
_cell_angle_gamma 90.000000
_cell_volume 2270.642760
_symmetry_space_group_name_H-M "C 2/C"
_symmetry_group_IT_number 15
_symmetry_cell_setting 'monoclinic'
loop_
_space_group_symop_operation_xyz
x,y,z
-x,y,1/2-z
-x,-y,-z
x,-y,1/2+z
1/2+x,1/2+y,z
1/2-x,1/2+y,1/2-z
1/2-x,1/2-y,-z
1/2+x,1/2-y,1/2+z
loop_
_atom_site_type_symbol
_atom_site_label
_atom_site_fract_x
_atom_site_fract_y
_atom_site_fract_z
Si Si1 0.933229 0.266007 0.599929
Si Si2 0.688670 0.037054 0.491669
Si Si3 0.745641 0.682736 0.610888
Si Si4 0.349705 0.537383 0.592348
Si Si5 0.161218 0.162777 0.084624
Si Si6 0.872512 0.365615 0.913259
Si Si7 0.000000 0.361935 0.250000
O O1 0.887929 0.218595 0.431819
O O2 0.892324 0.300618 0.806248
O O3 0.960070 0.318690 0.427903
O O4 0.000000 0.236871 0.750000
O O5 0.768836 0.043764 0.531959
O O6 0.655750 0.093736 0.336181
O O7 0.671114 0.016871 0.779418
O O8 0.750000 0.750000 0.500000
O O9 0.718109 0.679684 0.894870
O O10 0.814953 0.648756 0.597950
O O11 0.693612 0.651434 0.385749
O O12 0.368286 0.511836 0.884725
O O13 0.374271 0.603177 0.535007
O O14 0.941030 0.393300 0.060748
#
# Coordination Sequence:
#
# PCOD9282216 Si02
#       7
#     8   8   8   8   8   8   4
#     4  10  24  43  63  92 126 170 207 257 317 386
#     4  10  23  38  60  88 123 166 209 256 310 366
#     4  12  24  36  62 101 131 159 203 268 323 378
#     4  10  21  39  59  91 129 167 204 256 317 376
#     4  12  24  40  65  98 128 166 210 257 325 382
#     4  11  23  41  63  89 128 167 210 260 318 369
#     4  10  24  42  66  84 126 172 212 250 326 376
#
# _framework density 22.901001999999998
#
# number of rings (size 3 to 8) (size 9 to 14) (size 15 to 20)
#    0.000    1.231    3.077    2.308   10.769    0.000 
#    0.000    0.769    0.000    0.923    0.000    0.000 
#    0.000    0.000    0.000    0.000    0.000    0.000 
#
# Total GULP energy -145541.698504 kJ/mol
# GULP energy per Si atom -5597.757635 kJ/mol
# Density = 2.284888 g / cm^3
# Si number density = 22.901002 Si / 1000 Ang^3
#
#
#
# Elastic Constant Matrix: (Units=GPa)
#
#
# Indices 1 2 3 4 5 6 
#
# 1 60.6389 0.9358 20.4766 0.0000 2.4629 0.0000
# 2 0.9358 68.1347 -14.9801 0.0000 -1.5207 0.0000
# 3 20.4766 -14.9801 72.4659 0.0000 0.3802 0.0000
# 4 0.0000 0.0000 0.0000 33.5257 0.0000 0.0480
# 5 2.4629 -1.5207 0.3802 0.0000 21.6831 0.0000
# 6 0.0000 0.0000 0.0000 0.0480 0.0000 15.2061
#
#
#
# Elastic Compliance Matrix: (Units=1/GPa)
#
#
# Indices 1 2 3 4 5 6 
#
# 1 0.018464 -0.001514 -0.005519 0.000000 -0.002107 0.000000
# 2 -0.001514 0.015523 0.003630 0.000000 0.001197 0.000000
# 3 -0.005519 0.003630 0.016106 0.000000 0.000599 0.000000
# 4 0.000000 0.000000 0.000000 0.029828 0.000000 -0.000094
# 5 -0.002107 0.001197 0.000599 0.000000 0.046431 0.000000
# 6 0.000000 0.000000 0.000000 -0.000094 0.000000 0.065763
#
#
# Mechanical properties :
#
#
# Convention : Reuss Voigt Hill
#
# Bulk Modulus (GPa) = 23.10168 23.78932 23.44550
# Shear Modulus (GPa) = 23.43563 27.07015 25.25289
#
# Velocity S-wave (km/s) = 3.20245 3.44183 3.32429
# Velocity P-wave (km/s) = 4.87686 5.11911 4.99945
#
# Compressibility (1/GPa) = 0.04328689
#
# Stress axis : x y z
#
# Youngs Moduli (GPa) = 54.16026 64.42260 62.08687
#
# Poissons Ratio (x) = 0.09754 0.34267
# Poissons Ratio (y) = 0.08200 -0.22540
# Poissons Ratio (z) = 0.29892 -0.23388
#
# Static dielectric constant tensor:
#      x y z
#    x 1.866720 0.000000 -0.009900 
#    y 0.000000 1.879490 0.000000 
#    z -0.009900 0.000000 1.898990 
# 
# From -- ./inp_files/13315.got.cif
#   From: 2010.05.17/outbox.cif.g08.bks.cpg/sg15_7_cif.got.tgz:13315.got - 2010.06.03 18:47:42.
