data_PCOD9282375
_publ_section_title
;
Structure prediction by ZEFSAII (Michael W. Deem and Ramdas Pophale) SiO2 
 PCOD9282375
Probable space group: C 2/C
;
_chemical_formula_sum "Si O2"
_cell_formula_units_Z 48
_cell_length_a 10.740800
_cell_length_b 21.928209
_cell_length_c 11.151145
_cell_angle_alpha 90.000000
_cell_angle_beta 122.721740
_cell_angle_gamma 90.000000
_cell_volume 2209.597167
_symmetry_space_group_name_H-M "C 2/C"
_symmetry_group_IT_number 15
_symmetry_cell_setting 'monoclinic'
loop_
_space_group_symop_operation_xyz
x,y,z
-x,y,1/2-z
-x,-y,-z
x,-y,1/2+z
1/2+x,1/2+y,z
1/2-x,1/2+y,1/2-z
1/2-x,1/2-y,-z
1/2+x,1/2-y,1/2+z
loop_
_atom_site_type_symbol
_atom_site_label
_atom_site_fract_x
_atom_site_fract_y
_atom_site_fract_z
Si Si1 0.396594 0.169155 0.580699
Si Si2 0.390461 0.600621 0.846514
Si Si3 0.356045 0.269282 0.395687
Si Si4 0.349566 0.043203 0.597880
Si Si5 0.715570 0.416484 0.471683
Si Si6 0.821096 0.708070 0.141016
O O1 0.500000 0.165222 0.750000
O O2 0.448248 0.216663 0.508689
O O3 0.248274 0.197760 0.560247
O O4 0.374617 0.100700 0.521878
O O5 0.438104 0.671216 0.890860
O O6 0.281162 0.569122 0.884205
O O7 0.302621 0.603140 0.675744
O O8 0.547207 0.567252 0.922400
O O9 0.270085 0.234550 0.244230
O O10 0.500000 0.035334 0.750000
O O11 0.307321 0.978524 0.523436
O O12 0.780452 0.361631 0.585913
O O13 0.000000 0.713655 0.250000
O O14 0.750000 0.750000 0.000000
#
# Coordination Sequence:
#
# PCOD9282375 Si02
#       6
#     8   8   8   8   8   8
#     4   9  21  38  64  89 121 172 214 278 327 381
#     4  10  22  41  65  91 132 176 217 287 333 397
#     4  10  21  39  61  92 128 163 222 270 334 392
#     4  10  22  41  63  93 129 175 228 271 334 398
#     4  11  23  40  63  95 132 176 221 271 342 404
#     4  12  25  38  63  97 129 175 219 272 340 402
#
# _framework density 21.723416
#
# number of rings (size 3 to 8) (size 9 to 14) (size 15 to 20)
#    0.000    1.667    1.667    2.000    4.667    3.333 
#    0.000    0.000    7.333    0.000    0.000    0.000 
#    0.000    0.000    0.000    0.000    0.000    0.000 
#
# Total GULP energy -133870.863200 kJ/mol
# GULP energy per Si atom -5577.952633 kJ/mol
# Density = 2.167397 g / cm^3
# Si number density = 21.723416 Si / 1000 Ang^3
#
#
#
# Elastic Constant Matrix: (Units=GPa)
#
#
# Indices 1 2 3 4 5 6 
#
# 1 18.5951 8.5992 6.9823 0.0000 12.1306 0.0000
# 2 8.5992 177.6718 58.6681 0.0000 6.4757 0.0000
# 3 6.9823 58.6681 85.5711 0.0000 9.3177 0.0000
# 4 0.0000 0.0000 0.0000 30.5562 0.0000 5.9309
# 5 12.1306 6.4757 9.3177 0.0000 27.7410 0.0000
# 6 0.0000 0.0000 0.0000 5.9309 0.0000 1.4166
#
#
#
# Elastic Compliance Matrix: (Units=1/GPa)
#
#
# Indices 1 2 3 4 5 6 
#
# 1 0.076427 -0.002099 -0.001257 0.000000 -0.032508 0.000000
# 2 -0.002099 0.007333 -0.004951 0.000000 0.000869 0.000000
# 3 -0.001257 -0.004951 0.015567 0.000000 -0.003523 0.000000
# 4 0.000000 0.000000 0.000000 0.174668 0.000000 -0.731288
# 5 -0.032508 0.000869 -0.003523 0.000000 0.051243 0.000000
# 6 0.000000 0.000000 0.000000 -0.731288 0.000000 3.767632
#
#
# Mechanical properties :
#
#
# Convention : Reuss Voigt Hill
#
# Bulk Modulus (GPa) = 12.09008 47.81524 29.95266
# Shear Modulus (GPa) = 1.20859 25.78198 13.49529
#
# Velocity S-wave (km/s) = 0.74670 3.44878 2.49516
# Velocity P-wave (km/s) = 2.51415 6.15771 4.70311
#
# Compressibility (1/GPa) = 0.08271245
#
# Stress axis : x y z
#
# Youngs Moduli (GPa) = 13.08436 136.36781 64.23917
#
# Poissons Ratio (x) = 0.28624 0.08077
# Poissons Ratio (y) = 0.02746 0.31805
# Poissons Ratio (z) = 0.01645 0.67515
#
# Static dielectric constant tensor:
#      x y z
#    x 1.891570 0.000000 -0.035260 
#    y 0.000000 1.829060 0.000000 
#    z -0.035260 0.000000 1.780730 
# 
# From -- ./inp_files/89786.got.cif
#   From: 2010.05.17/outbox.cif.g08.bks.cpg/sg15_45_cif.got.tgz:89786.got - 2010.06.03 18:47:42.
