data_PCOD9282593
_publ_section_title
;
Structure prediction by ZEFSAII (Michael W. Deem and Ramdas Pophale) SiO2 
 PCOD9282593
Probable space group: C 2/C
;
_chemical_formula_sum "Si O2"
_cell_formula_units_Z 60
_cell_length_a 16.251744
_cell_length_b 7.668421
_cell_length_c 23.060476
_cell_angle_alpha 90.000000
_cell_angle_beta 57.589661
_cell_angle_gamma 90.000000
_cell_volume 2426.250274
_symmetry_space_group_name_H-M "C 2/C"
_symmetry_group_IT_number 15
_symmetry_cell_setting 'monoclinic'
loop_
_space_group_symop_operation_xyz
x,y,z
-x,y,1/2-z
-x,-y,-z
x,-y,1/2+z
1/2+x,1/2+y,z
1/2-x,1/2+y,1/2-z
1/2-x,1/2-y,-z
1/2+x,1/2-y,1/2+z
loop_
_atom_site_type_symbol
_atom_site_label
_atom_site_fract_x
_atom_site_fract_y
_atom_site_fract_z
Si Si1 0.973099 0.296210 0.512376
Si Si2 0.813545 0.449121 0.647135
Si Si3 0.344933 0.218731 0.731194
Si Si4 0.000000 0.104936 0.250000
Si Si5 0.658888 0.617517 0.631488
Si Si6 0.357600 0.832653 0.446715
Si Si7 0.135099 0.743262 0.029476
Si Si8 0.387713 0.998784 0.315364
O O1 0.891955 0.307840 0.594674
O O2 0.927590 0.242446 0.468117
O O3 0.000000 0.500000 0.500000
O O4 0.073057 0.208542 0.496570
O O5 0.738657 0.356604 0.720154
O O6 0.850962 0.621926 0.667205
O O7 0.760138 0.523464 0.608981
O O8 0.447695 0.292391 0.716830
O O9 0.327436 0.064061 0.783538
O O10 0.914273 0.980672 0.300517
O O11 0.607303 0.615935 0.588697
O O12 0.658163 0.820469 0.647163
O O13 0.250000 0.750000 0.500000
O O14 0.372968 0.850569 0.371101
O O15 0.380047 0.038240 0.451969
O O16 0.250000 0.750000 0.000000
O O17 0.500000 0.027185 0.250000
#
# Coordination Sequence:
#
# PCOD9282593 Si02
#       8
#     8   8   8   4   8   8   8   8
#     4  10  22  39  66  93 125 179 221 273 335 407
#     4  11  24  42  64  97 138 173 230 274 351 414
#     4  11  24  40  63  95 134 178 219 287 336 419
#     4  10  22  38  60  94 124 178 222 266 350 406
#     4  10  21  39  63  90 132 171 213 284 333 413
#     4  10  22  42  68  95 131 178 227 284 341 416
#     4  10  22  41  63  93 124 172 222 276 337 401
#     4  11  22  38  67  98 135 176 230 280 350 412
#
# _framework density 24.729517000000001
#
# number of rings (size 3 to 8) (size 9 to 14) (size 15 to 20)
#    0.000    1.600    1.333    3.200    5.600    3.200 
#    0.000    3.333    0.000    0.000    0.000    2.800 
#    0.000    0.000    0.000    0.000    0.000    0.000 
#
# Total GULP energy -167005.433004 kJ/mol
# GULP energy per Si atom -5566.847767 kJ/mol
# Density = 2.467323 g / cm^3
# Si number density = 24.729517 Si / 1000 Ang^3
#
#
#
# Elastic Constant Matrix: (Units=GPa)
#
#
# Indices 1 2 3 4 5 6 
#
# 1 144.3896 23.1282 30.4848 0.0000 30.9625 0.0001
# 2 23.1282 56.4488 12.2896 -0.0001 12.3428 0.0001
# 3 30.4848 12.2896 72.4718 0.0000 11.2249 0.0000
# 4 0.0000 -0.0001 0.0000 25.6449 0.0000 8.2884
# 5 30.9625 12.3428 11.2249 0.0000 51.6249 0.0000
# 6 0.0001 0.0001 0.0000 8.2884 0.0000 36.0834
#
#
#
# Elastic Compliance Matrix: (Units=1/GPa)
#
#
# Indices 1 2 3 4 5 6 
#
# 1 0.008712 -0.002082 -0.002669 0.000000 -0.004147 0.000000
# 2 -0.002082 0.019662 -0.001991 0.000000 -0.003020 0.000000
# 3 -0.002669 -0.001991 0.015458 0.000000 -0.001284 0.000000
# 4 0.000000 0.000000 0.000000 0.042121 0.000000 -0.009675
# 5 -0.004147 -0.003020 -0.001284 0.000000 0.022859 0.000000
# 6 0.000000 0.000000 0.000000 -0.009675 0.000000 0.029936
#
#
# Mechanical properties :
#
#
# Convention : Reuss Voigt Hill
#
# Bulk Modulus (GPa) = 32.95125 45.01284 38.98204
# Shear Modulus (GPa) = 30.79821 36.49780 33.64800
#
# Velocity S-wave (km/s) = 3.53285 3.84589 3.69269
# Velocity P-wave (km/s) = 5.47677 6.16139 5.82914
#
# Compressibility (1/GPa) = 0.03034787
#
# Stress axis : x y z
#
# Youngs Moduli (GPa) = 114.78443 50.86031 64.69225
#
# Poissons Ratio (x) = 0.10587 0.17269
# Poissons Ratio (y) = 0.23893 0.12880
# Poissons Ratio (z) = 0.30640 0.10126
#
# Static dielectric constant tensor:
#      x y z
#    x 2.097650 0.000000 -0.069010 
#    y 0.000000 1.945660 0.000000 
#    z -0.069010 0.000000 2.035600 
# 
# From -- ./inp_files/273123.got.cif
#   From: 2010.05.17/outbox.cif.g08.bks.cpg/sg15_137_cif.got.tgz:273123.got - 2010.06.03 18:47:42.
