data_PCOD9282746
_publ_section_title
;
Structure prediction by ZEFSAII (Michael W. Deem and Ramdas Pophale) SiO2 
 PCOD9282746
Probable space group: C 2/C
;
_chemical_formula_sum "Si O2"
_cell_formula_units_Z 52
_cell_length_a 34.010395
_cell_length_b 15.929613
_cell_length_c 5.249861
_cell_angle_alpha 90.000000
_cell_angle_beta 114.011585
_cell_angle_gamma 90.000000
_cell_volume 2598.099389
_symmetry_space_group_name_H-M "C 2/C"
_symmetry_group_IT_number 15
_symmetry_cell_setting 'monoclinic'
loop_
_space_group_symop_operation_xyz
x,y,z
-x,y,1/2-z
-x,-y,-z
x,-y,1/2+z
1/2+x,1/2+y,z
1/2-x,1/2+y,1/2-z
1/2-x,1/2-y,-z
1/2+x,1/2-y,1/2+z
loop_
_atom_site_type_symbol
_atom_site_label
_atom_site_fract_x
_atom_site_fract_y
_atom_site_fract_z
Si Si1 0.610881 0.680464 0.906266
Si Si2 0.365506 0.216990 0.535574
Si Si3 0.000000 0.442290 0.250000
Si Si4 0.763543 0.700906 0.287558
Si Si5 0.091476 0.445645 0.527926
Si Si6 0.950229 0.963686 0.342127
Si Si7 0.193886 0.057335 0.153960
O O1 0.618933 0.725512 0.658054
O O2 0.565346 0.629009 0.781175
O O3 0.614265 0.746061 0.149964
O O4 0.651208 0.616098 0.039657
O O5 0.314636 0.209259 0.429903
O O6 0.376093 0.122943 0.478466
O O7 0.954591 0.398316 0.123614
O O8 0.000000 0.500000 0.500000
O O9 0.750000 0.750000 0.500000
O O10 0.737054 0.613759 0.232213
O O11 0.750000 0.750000 0.000000
O O12 0.094058 0.480278 0.822324
O O13 0.931099 0.978282 0.570284
O O14 0.000000 0.000000 0.500000
O O15 0.193278 0.007454 0.417832
#
# Coordination Sequence:
#
# PCOD9282746 Si02
#       7
#     8   8   4   8   8   8   8
#     4  12  23  41  63  94 130 171 219 264 324 397
#     4  12  24  40  66  94 130 174 212 271 334 392
#     4   8  16  34  58  82 114 152 190 244 306 368
#     4  12  23  44  62  87 131 171 207 264 343 374
#     4  10  21  39  64  92 124 163 210 261 321 387
#     4  10  21  40  64  90 126 173 213 263 327 372
#     4  12  24  39  65  93 118 164 225 268 310 394
#
# _framework density 20.014631000000001
#
# number of rings (size 3 to 8) (size 9 to 14) (size 15 to 20)
#    0.000    0.923    3.077    4.615    0.000    1.231 
#    0.000    4.615    0.000    0.000    0.000    0.000 
#    0.000    0.000    0.000    0.000    0.000    0.000 
#
# Total GULP energy -144836.818985 kJ/mol
# GULP energy per Si atom -5570.646884 kJ/mol
# Density = 1.996908 g / cm^3
# Si number density = 20.014631 Si / 1000 Ang^3
#
#
#
# Elastic Constant Matrix: (Units=GPa)
#
#
# Indices 1 2 3 4 5 6 
#
# 1 73.6253 5.7629 14.6722 0.0000 3.9964 0.0000
# 2 5.7629 35.0724 -10.4748 0.0000 5.5584 0.0000
# 3 14.6722 -10.4748 71.9701 0.0000 -23.8702 0.0000
# 4 0.0000 0.0000 0.0000 36.4934 0.0000 -2.5006
# 5 3.9964 5.5584 -23.8702 0.0000 31.0463 0.0000
# 6 0.0000 0.0000 0.0000 -2.5006 0.0000 32.3012
#
#
#
# Elastic Compliance Matrix: (Units=1/GPa)
#
#
# Indices 1 2 3 4 5 6 
#
# 1 0.015214 -0.003238 -0.005410 0.000000 -0.005538 0.000000
# 2 -0.003238 0.030665 0.004618 0.000000 -0.001523 0.000000
# 3 -0.005410 0.004618 0.020975 0.000000 0.015997 0.000000
# 4 0.000000 0.000000 0.000000 0.027548 0.000000 0.002133
# 5 -0.005538 -0.001523 0.015997 0.000000 0.045495 0.000000
# 6 0.000000 0.000000 0.000000 0.002133 0.000000 0.031124
#
#
# Mechanical properties :
#
#
# Convention : Reuss Voigt Hill
#
# Bulk Modulus (GPa) = 17.00801 22.28760 19.64781
# Shear Modulus (GPa) = 25.16623 31.34867 28.25745
#
# Velocity S-wave (km/s) = 3.54982 3.96193 3.76152
# Velocity P-wave (km/s) = 5.03169 5.66472 5.35756
#
# Compressibility (1/GPa) = 0.05879581
#
# Stress axis : x y z
#
# Youngs Moduli (GPa) = 65.72717 32.61034 47.67526
#
# Poissons Ratio (x) = 0.10559 0.25791
# Poissons Ratio (y) = 0.21282 -0.22018
# Poissons Ratio (z) = 0.35557 -0.15060
#
# Static dielectric constant tensor:
#      x y z
#    x 1.582850 0.000000 0.022030 
#    y 0.000000 1.692890 0.000000 
#    z 0.022030 0.000000 1.709450 
# 
# From -- ./inp_files/18245.got.cif
#   From: 2010.05.17/outbox.cif.g08.bks.cpg/sg15_10_cif.got.tgz:18245.got - 2010.06.03 18:47:42.
