data_PCOD9282097
_publ_section_title
;
Structure prediction by ZEFSAII (Michael W. Deem and Ramdas Pophale) SiO2 
 PCOD9282097
Probable space group: C 2/C
;
_chemical_formula_sum "Si O2"
_cell_formula_units_Z 56
_cell_length_a 13.541715
_cell_length_b 20.175824
_cell_length_c 8.626995
_cell_angle_alpha 90.000000
_cell_angle_beta 97.071578
_cell_angle_gamma 90.000000
_cell_volume 2339.097072
_symmetry_space_group_name_H-M "C 2/C"
_symmetry_group_IT_number 15
_symmetry_cell_setting 'monoclinic'
loop_
_space_group_symop_operation_xyz
x,y,z
-x,y,1/2-z
-x,-y,-z
x,-y,1/2+z
1/2+x,1/2+y,z
1/2-x,1/2+y,1/2-z
1/2-x,1/2-y,-z
1/2+x,1/2-y,1/2+z
loop_
_atom_site_type_symbol
_atom_site_label
_atom_site_fract_x
_atom_site_fract_y
_atom_site_fract_z
Si Si1 0.913124 0.601533 0.460444
Si Si2 0.568052 0.541719 0.398267
Si Si3 0.369674 0.994562 0.198721
Si Si4 0.175512 0.806222 0.550068
Si Si5 0.695916 0.664393 0.422660
Si Si6 0.025707 0.263690 0.438097
Si Si7 0.233915 0.941472 0.413798
O O1 0.904688 0.557836 0.304451
O O2 0.938698 0.547695 0.597518
O O3 0.805895 0.635643 0.476756
O O4 0.982231 0.665504 0.478543
O O5 0.500000 0.570290 0.250000
O O6 0.500000 0.500000 0.500000
O O7 0.627728 0.604094 0.471169
O O8 0.646805 0.490229 0.342992
O O9 0.320057 0.942242 0.304716
O O10 0.283540 0.023931 0.072159
O O11 0.250000 0.750000 0.500000
O O12 0.194227 0.824575 0.735048
O O13 0.193451 0.871022 0.452151
O O14 0.061892 0.782581 0.516088
O O15 0.634958 0.728769 0.473594
O O16 0.000000 0.273218 0.250000
#
# Coordination Sequence:
#
# PCOD9282097 Si02
#       7
#     8   8   8   8   8   8   8
#     4  11  22  43  72 101 136 182 239 283 351 412
#     4  12  22  34  63 102 145 175 222 290 357 436
#     4  10  21  38  72 100 131 181 231 290 342 415
#     4  11  24  44  69  95 139 186 227 292 355 420
#     4  11  21  42  69 100 140 186 227 283 362 424
#     4  10  24  43  66 100 138 184 234 285 353 429
#     4  11  20  40  62  97 135 175 229 277 361 405
#
# _framework density 23.940861999999999
#
# number of rings (size 3 to 8) (size 9 to 14) (size 15 to 20)
#    0.000    1.143    4.286    4.286    4.000    0.000 
#    0.000    1.429    0.000    0.000    0.000    0.000 
#    0.000    0.000    0.000    0.000    0.000    0.000 
#
# Total GULP energy -156630.939646 kJ/mol
# GULP energy per Si atom -5593.962130 kJ/mol
# Density = 2.388637 g / cm^3
# Si number density = 23.940862 Si / 1000 Ang^3
#
#
#
# Elastic Constant Matrix: (Units=GPa)
#
#
# Indices 1 2 3 4 5 6 
#
# 1 83.2335 26.3033 20.3757 0.0000 -9.8083 0.0000
# 2 26.3033 158.3492 25.8939 0.0000 -2.5954 0.0000
# 3 20.3757 25.8939 62.9251 0.0000 -8.3293 0.0000
# 4 0.0000 0.0000 0.0000 22.6906 0.0000 2.9077
# 5 -9.8083 -2.5954 -8.3293 0.0000 30.9404 0.0000
# 6 0.0000 0.0000 0.0000 2.9077 0.0000 48.5861
#
#
#
# Elastic Compliance Matrix: (Units=1/GPa)
#
#
# Indices 1 2 3 4 5 6 
#
# 1 0.013752 -0.001687 -0.003319 0.000000 0.003324 0.000000
# 2 -0.001687 0.006979 -0.002404 0.000000 -0.000597 0.000000
# 3 -0.003319 -0.002404 0.018447 0.000000 0.003712 0.000000
# 4 0.000000 0.000000 0.000000 0.044412 0.000000 -0.002658
# 5 0.003324 -0.000597 0.003712 0.000000 0.034323 0.000000
# 6 0.000000 0.000000 0.000000 -0.002658 0.000000 0.020741
#
#
# Mechanical properties :
#
#
# Convention : Reuss Voigt Hill
#
# Bulk Modulus (GPa) = 41.05523 49.96151 45.50837
# Shear Modulus (GPa) = 30.94177 35.90573 33.42375
#
# Velocity S-wave (km/s) = 3.59893 3.87688 3.74049
# Velocity P-wave (km/s) = 5.86989 6.39956 6.14044
#
# Compressibility (1/GPa) = 0.02435743
#
# Stress axis : x y z
#
# Youngs Moduli (GPa) = 72.71816 143.29078 54.20827
#
# Poissons Ratio (x) = 0.24175 0.17990
# Poissons Ratio (y) = 0.12268 0.13034
# Poissons Ratio (z) = 0.24132 0.34454
#
# Static dielectric constant tensor:
#      x y z
#    x 1.976350 0.000000 0.015080 
#    y 0.000000 1.863470 0.000000 
#    z 0.015080 0.000000 1.889420 
# 
# From -- ./inp_files/41256.got.cif
#   From: 2010.05.17/outbox.cif.g08.bks.cpg/sg15_21_cif.got.tgz:41256.got - 2010.06.03 18:47:42.
