data_PCOD9282539
_publ_section_title
;
Structure prediction by ZEFSAII (Michael W. Deem and Ramdas Pophale) SiO2 
 PCOD9282539
Probable space group: C 2/C
;
_chemical_formula_sum "Si O2"
_cell_formula_units_Z 52
_cell_length_a 14.182323
_cell_length_b 23.363777
_cell_length_c 7.260352
_cell_angle_alpha 90.000000
_cell_angle_beta 119.605651
_cell_angle_gamma 90.000000
_cell_volume 2091.658691
_symmetry_space_group_name_H-M "C 2/C"
_symmetry_group_IT_number 15
_symmetry_cell_setting 'monoclinic'
loop_
_space_group_symop_operation_xyz
x,y,z
-x,y,1/2-z
-x,-y,-z
x,-y,1/2+z
1/2+x,1/2+y,z
1/2-x,1/2+y,1/2-z
1/2-x,1/2-y,-z
1/2+x,1/2-y,1/2+z
loop_
_atom_site_type_symbol
_atom_site_label
_atom_site_fract_x
_atom_site_fract_y
_atom_site_fract_z
Si Si1 0.000000 0.930233 0.750000
Si Si2 0.088012 0.530590 0.459108
Si Si3 0.810782 0.642114 0.785165
Si Si4 0.747600 0.845865 0.860430
Si Si5 0.266064 0.564550 0.096481
Si Si6 0.975150 0.290655 0.944960
Si Si7 0.481823 0.669373 0.517914
O O1 0.115341 0.961054 0.834913
O O2 0.992464 0.887102 0.570133
O O3 0.155213 0.579228 0.616333
O O4 0.170275 0.481108 0.474255
O O5 0.000000 0.563997 0.250000
O O6 0.000000 0.500000 0.500000
O O7 0.747004 0.622575 0.540863
O O8 0.754715 0.664251 0.920169
O O9 0.921146 0.678457 0.862586
O O10 0.759768 0.911608 0.800634
O O11 0.636176 0.824962 0.663427
O O12 0.854118 0.815498 0.885470
O O13 0.957664 0.225763 0.993568
O O14 0.000000 0.285342 0.750000
O O15 0.500000 0.657641 0.750000
#
# Coordination Sequence:
#
# PCOD9282539 Si02
#       7
#     4   8   8   8   8   8   8
#     4  10  24  44  60  92 124 160 216 252 296 370
#     4  12  22  38  63  93 122 155 202 252 311 366
#     4  11  22  39  62  90 123 159 197 255 315 360
#     4  10  22  38  59  89 123 156 204 252 302 367
#     4  11  24  40  64  88 124 166 201 258 304 366
#     4   9  20  36  59  92 123 155 202 252 305 372
#     4  10  21  39  63  85 120 165 203 249 305 364
#
# _framework density 24.860652999999999
#
# number of rings (size 3 to 8) (size 9 to 14) (size 15 to 20)
#    0.000    1.538    1.538    4.154    0.000    8.000 
#    0.000    3.846    1.692    0.000    0.000    0.000 
#    0.000    0.000    0.000    0.000    0.000    0.000 
#
# Total GULP energy -145182.651907 kJ/mol
# GULP energy per Si atom -5583.948150 kJ/mol
# Density = 2.480407 g / cm^3
# Si number density = 24.860653 Si / 1000 Ang^3
#
#
#
# Elastic Constant Matrix: (Units=GPa)
#
#
# Indices 1 2 3 4 5 6 
#
# 1 126.1646 20.2815 28.1740 0.0000 33.5705 0.0000
# 2 20.2815 49.2174 2.8001 0.0000 5.6159 0.0000
# 3 28.1740 2.8001 82.6841 0.0000 1.2136 0.0000
# 4 0.0000 0.0000 0.0000 11.7662 0.0000 10.2376
# 5 33.5705 5.6159 1.2136 0.0000 41.0575 0.0000
# 6 0.0000 0.0000 0.0000 10.2376 0.0000 3.5359
#
#
#
# Elastic Compliance Matrix: (Units=1/GPa)
#
#
# Indices 1 2 3 4 5 6 
#
# 1 0.011733 -0.003596 -0.003744 0.000000 -0.008991 0.000000
# 2 -0.003596 0.021778 0.000489 0.000000 -0.000053 0.000000
# 3 -0.003744 0.000489 0.013315 0.000000 0.002601 0.000000
# 4 0.000000 0.000000 0.000000 -0.055945 0.000000 0.161977
# 5 -0.008991 -0.000053 0.002601 0.000000 0.031638 0.000000
# 6 0.000000 0.000000 0.000000 0.161977 0.000000 -0.186162
#
#
# Mechanical properties :
#
#
# Convention : Reuss Voigt Hill
#
# Bulk Modulus (GPa) = 30.19040 40.06414 35.12727
# Shear Modulus (GPa) = -35.99710 25.05930 -5.46890
#
# Velocity S-wave (km/s) = -3.80933 3.17833 -1.48479
# Velocity P-wave (km/s) = 2.67913 5.44238 3.34976
#
# Compressibility (1/GPa) = 0.03312311
#
# Stress axis : x y z
#
# Youngs Moduli (GPa) = 85.23304 45.91778 75.10185
#
# Poissons Ratio (x) = 0.16511 0.28118
# Poissons Ratio (y) = 0.30649 -0.03669
# Poissons Ratio (z) = 0.31912 -0.02243
#
# Static dielectric constant tensor:
#      x y z
#    x 2.073870 0.000000 -0.093400 
#    y 0.000000 1.903240 0.000000 
#    z -0.093400 0.000000 1.931230 
# 
# From -- ./inp_files/43667.got.cif
#   From: 2010.05.17/outbox.cif.g08.bks.cpg/sg15_22_cif.got.tgz:43667.got - 2010.06.03 18:47:42.
