data_PCOD9282561
_publ_section_title
;
Structure prediction by ZEFSAII (Michael W. Deem and Ramdas Pophale) SiO2 
 PCOD9282561
Probable space group: C 2/C
;
_chemical_formula_sum "Si O2"
_cell_formula_units_Z 48
_cell_length_a 7.974434
_cell_length_b 26.482532
_cell_length_c 13.999983
_cell_angle_alpha 90.000000
_cell_angle_beta 136.163323
_cell_angle_gamma 90.000000
_cell_volume 2047.729276
_symmetry_space_group_name_H-M "C 2/C"
_symmetry_group_IT_number 15
_symmetry_cell_setting 'monoclinic'
loop_
_space_group_symop_operation_xyz
x,y,z
-x,y,1/2-z
-x,-y,-z
x,-y,1/2+z
1/2+x,1/2+y,z
1/2-x,1/2+y,1/2-z
1/2-x,1/2-y,-z
1/2+x,1/2-y,1/2+z
loop_
_atom_site_type_symbol
_atom_site_label
_atom_site_fract_x
_atom_site_fract_y
_atom_site_fract_z
Si Si1 0.500000 0.553890 0.250000
Si Si2 0.287615 0.691042 0.028121
Si Si3 0.807316 0.362258 0.277047
Si Si4 0.500000 0.044586 0.750000
Si Si5 0.728994 0.149427 0.217701
Si Si6 0.187716 0.984879 0.494333
Si Si7 0.789382 0.133271 0.535020
O O1 0.316469 0.592145 0.229391
O O2 0.627875 0.517604 0.377352
O O3 0.249524 0.677821 0.124077
O O4 0.564153 0.671816 0.127820
O O5 0.250000 0.750000 0.000000
O O6 0.073071 0.663585 0.880684
O O7 0.823733 0.415851 0.230433
O O8 0.772252 0.366527 0.376947
O O9 0.551682 0.339627 0.134811
O O10 0.431546 0.007599 0.636737
O O11 0.443172 0.152553 0.119223
O O12 0.192409 0.925674 0.482505
O O13 0.000000 0.000000 0.500000
#
# Coordination Sequence:
#
# PCOD9282561 Si02
#       7
#     4   8   8   4   8   8   8
#     4  10  22  42  61  88 136 178 225 266 324 394
#     4   9  18  37  64  95 117 158 218 266 323 417
#     4  10  21  39  63  88 127 172 208 271 338 377
#     4  12  24  38  57  98 128 170 237 262 314 396
#     4   9  20  38  65  89 120 179 209 260 349 385
#     4  12  25  38  61  96 132 179 234 270 314 387
#     4  10  21  40  61  88 131 175 211 263 331 379
#
# _framework density 23.440598999999999
#
# number of rings (size 3 to 8) (size 9 to 14) (size 15 to 20)
#    0.000    2.000    1.667    4.000    2.333    2.667 
#    0.000    0.833    0.000    4.000    0.000    0.000 
#    0.000    0.000    0.000    0.000    0.000    0.000 
#
# Total GULP energy -133962.872841 kJ/mol
# GULP energy per Si atom -5581.786368 kJ/mol
# Density = 2.338725 g / cm^3
# Si number density = 23.440599 Si / 1000 Ang^3
#
#
#
# Elastic Constant Matrix: (Units=GPa)
#
#
# Indices 1 2 3 4 5 6 
#
# 1 72.0670 9.4473 55.8900 0.0000 32.3196 0.0000
# 2 9.4473 91.3004 71.0403 0.0000 17.4066 0.0000
# 3 55.8900 71.0403 231.0252 0.0000 30.7062 0.0000
# 4 0.0000 0.0000 0.0000 10.1175 0.0000 9.1055
# 5 32.3196 17.4066 30.7062 0.0000 59.6176 0.0000
# 6 0.0000 0.0000 0.0000 9.1055 0.0000 2.1611
#
#
#
# Elastic Compliance Matrix: (Units=1/GPa)
#
#
# Indices 1 2 3 4 5 6 
#
# 1 0.021969 0.003637 -0.005055 0.000000 -0.010368 0.000000
# 2 0.003637 0.015240 -0.005059 0.000000 -0.003816 0.000000
# 3 -0.005055 -0.005059 0.007028 0.000000 0.000598 0.000000
# 4 0.000000 0.000000 0.000000 -0.035401 0.000000 0.149159
# 5 -0.010368 -0.003816 0.000598 0.000000 0.023200 0.000000
# 6 0.000000 0.000000 0.000000 0.149159 0.000000 -0.165736
#
#
# Mechanical properties :
#
#
# Convention : Reuss Voigt Hill
#
# Bulk Modulus (GPa) = 31.96667 74.12753 53.04710
# Shear Modulus (GPa) = -45.32396 31.58021 -6.87187
#
# Velocity S-wave (km/s) = -4.40200 3.67446 -1.71405
# Velocity P-wave (km/s) = 3.48854 7.04943 4.33154
#
# Compressibility (1/GPa) = 0.03128258
#
# Stress axis : x y z
#
# Youngs Moduli (GPa) = 45.51791 65.61481 142.29444
#
# Poissons Ratio (x) = -0.23863 0.71932
# Poissons Ratio (y) = -0.16554 0.71988
# Poissons Ratio (z) = 0.23010 0.33195
#
# Static dielectric constant tensor:
#      x y z
#    x 1.965240 0.000000 0.113700 
#    y 0.000000 1.812450 0.000000 
#    z 0.113700 0.000000 2.039070 
# 
# From -- ./inp_files/139069.got.cif
#   From: 2010.05.17/outbox.cif.g08.bks.cpg/sg15_70_cif.got.tgz:139069.got - 2010.06.03 18:47:42.
