data_PCOD9282267
_publ_section_title
;
Structure prediction by ZEFSAII (Michael W. Deem and Ramdas Pophale) SiO2 
 PCOD9282267
Probable space group: C 2/C
;
_chemical_formula_sum "Si O2"
_cell_formula_units_Z 28
_cell_length_a 12.515997
_cell_length_b 9.003352
_cell_length_c 12.581805
_cell_angle_alpha 90.000000
_cell_angle_beta 126.737335
_cell_angle_gamma 90.000000
_cell_volume 1136.199016
_symmetry_space_group_name_H-M "C 2/C"
_symmetry_group_IT_number 15
_symmetry_cell_setting 'monoclinic'
loop_
_space_group_symop_operation_xyz
x,y,z
-x,y,1/2-z
-x,-y,-z
x,-y,1/2+z
1/2+x,1/2+y,z
1/2-x,1/2+y,1/2-z
1/2-x,1/2-y,-z
1/2+x,1/2-y,1/2+z
loop_
_atom_site_type_symbol
_atom_site_label
_atom_site_fract_x
_atom_site_fract_y
_atom_site_fract_z
Si Si1 0.639902 0.548208 0.456856
Si Si2 0.583601 0.335745 0.147966
Si Si3 0.164520 0.504505 0.250161
Si Si4 0.000000 0.724250 0.750000
O O1 0.550858 0.403239 0.383817
O O2 0.569268 0.636423 0.512940
O O3 0.776665 0.499994 0.593353
O O4 0.622785 0.667646 0.353825
O O5 0.714074 0.438909 0.248062
O O6 0.616178 0.167023 0.193001
O O7 0.049184 0.382983 0.185819
#
# Coordination Sequence:
#
# PCOD9282267 Si02
#       4
#     8   8   8   4
#     4   9  22  40  62  86 119 157 194 249 282 356
#     4   9  20  41  63  84 114 157 209 226 293 347
#     4  10  21  39  60  90 114 158 193 247 286 351
#     4  12  22  38  60  90 128 150 192 240 314 330
#
# _framework density 24.643571999999999
#
# number of rings (size 3 to 8) (size 9 to 14) (size 15 to 20)
#    1.714    0.571    0.000    2.571    0.000    2.286 
#    0.000    2.857    0.000    0.000    0.000    0.000 
#    0.000    0.000    0.000    0.000    0.000    0.000 
#
# Total GULP energy -78091.421346 kJ/mol
# GULP energy per Si atom -5577.958668 kJ/mol
# Density = 2.458748 g / cm^3
# Si number density = 24.643572 Si / 1000 Ang^3
#
#
#
# Elastic Constant Matrix: (Units=GPa)
#
#
# Indices 1 2 3 4 5 6 
#
# 1 50.5861 29.3496 -4.8737 0.0000 16.8961 0.0000
# 2 29.3496 224.9692 47.3908 0.0000 4.7978 0.0000
# 3 -4.8737 47.3908 47.5018 0.0000 -1.1846 0.0000
# 4 0.0000 0.0000 0.0000 45.2263 0.0000 11.4492
# 5 16.8961 4.7978 -1.1846 0.0000 23.2659 0.0000
# 6 0.0000 0.0000 0.0000 11.4492 0.0000 30.7628
#
#
#
# Elastic Compliance Matrix: (Units=1/GPa)
#
#
# Indices 1 2 3 4 5 6 
#
# 1 0.030393 -0.005158 0.007750 0.000000 -0.020613 0.000000
# 2 -0.005158 0.006552 -0.007015 0.000000 0.002037 0.000000
# 3 0.007750 -0.007015 0.028778 0.000000 -0.002716 0.000000
# 4 0.000000 0.000000 0.000000 0.024411 0.000000 -0.009085
# 5 -0.020613 0.002037 -0.002716 0.000000 0.057393 0.000000
# 6 0.000000 0.000000 0.000000 -0.009085 0.000000 0.035888
#
#
# Mechanical properties :
#
#
# Convention : Reuss Voigt Hill
#
# Bulk Modulus (GPa) = 17.58189 51.86561 34.72375
# Shear Modulus (GPa) = 23.67196 36.59704 30.13450
#
# Velocity S-wave (km/s) = 3.10267 3.85782 3.50067
# Velocity P-wave (km/s) = 4.47050 6.39810 5.51911
#
# Compressibility (1/GPa) = 0.05687671
#
# Stress axis : x y z
#
# Youngs Moduli (GPa) = 32.90271 152.61698 34.74845
#
# Poissons Ratio (x) = 0.78720 -0.26931
# Poissons Ratio (y) = 0.16971 0.24378
# Poissons Ratio (z) = -0.25500 1.07067
#
# Static dielectric constant tensor:
#      x y z
#    x 1.979490 0.000000 -0.067490 
#    y 0.000000 1.882400 0.000000 
#    z -0.067490 0.000000 2.048350 
# 
# From -- ./inp_files/45408.got.cif
#   From: 2010.05.17/outbox.cif.g08.bks.cpg/sg15_23_cif.got.tgz:45408.got - 2010.06.03 18:47:42.
