data_PCOD9282740
_publ_section_title
;
Structure prediction by ZEFSAII (Michael W. Deem and Ramdas Pophale) SiO2 
 PCOD9282740
Probable space group: C 2/C
;
_chemical_formula_sum "Si O2"
_cell_formula_units_Z 40
_cell_length_a 13.989036
_cell_length_b 14.557255
_cell_length_c 14.841119
_cell_angle_alpha 90.000000
_cell_angle_beta 144.113697
_cell_angle_gamma 90.000000
_cell_volume 1771.592990
_symmetry_space_group_name_H-M "C 2/C"
_symmetry_group_IT_number 15
_symmetry_cell_setting 'monoclinic'
loop_
_space_group_symop_operation_xyz
x,y,z
-x,y,1/2-z
-x,-y,-z
x,-y,1/2+z
1/2+x,1/2+y,z
1/2-x,1/2+y,1/2-z
1/2-x,1/2-y,-z
1/2+x,1/2-y,1/2+z
loop_
_atom_site_type_symbol
_atom_site_label
_atom_site_fract_x
_atom_site_fract_y
_atom_site_fract_z
Si Si1 0.327535 0.890385 0.921313
Si Si2 0.303010 0.031813 0.589603
Si Si3 0.248690 0.824012 0.577789
Si Si4 0.213533 0.435640 0.222605
Si Si5 0.097241 0.237281 0.649187
O O1 0.322785 0.789893 0.874044
O O2 0.251920 0.967256 0.797679
O O3 0.520569 0.915410 0.071045
O O4 0.261221 0.907101 0.970957
O O5 0.500000 0.032209 0.750000
O O6 0.250463 0.925994 0.539578
O O7 0.234922 0.063913 0.633623
O O8 0.250000 0.750000 0.500000
O O9 0.393143 0.809434 0.760578
O O10 0.082850 0.800331 0.504938
O O11 0.302658 0.351573 0.243665
#
# Coordination Sequence:
#
# PCOD9282740 Si02
#       5
#     8   8   8   8   8
#     4  10  21  40  64  92 129 171 212 262 324 389
#     4  10  21  39  64  91 128 172 217 258 323 387
#     4  12  24  39  64  98 127 163 220 271 318 374
#     4  10  21  39  65  90 127 174 213 260 323 386
#     4  12  23  41  66  95 130 168 215 270 321 380
#
# _framework density 22.57855
#
# number of rings (size 3 to 8) (size 9 to 14) (size 15 to 20)
#    0.000    1.200    4.000    3.000    2.800    1.600 
#    0.000    0.000    0.000    0.000    0.000    0.000 
#    0.000    0.000    0.000    0.000    0.000    0.000 
#
# Total GULP energy -111784.807394 kJ/mol
# GULP energy per Si atom -5589.240370 kJ/mol
# Density = 2.252716 g / cm^3
# Si number density = 22.578550 Si / 1000 Ang^3
#
#
#
# Elastic Constant Matrix: (Units=GPa)
#
#
# Indices 1 2 3 4 5 6 
#
# 1 44.8815 11.0113 18.5661 0.0002 -21.5216 0.0001
# 2 11.0113 80.8071 5.8453 0.0000 -4.5832 0.0000
# 3 18.5661 5.8453 48.1813 0.0002 -15.0036 0.0002
# 4 0.0002 0.0000 0.0002 30.4651 0.0002 -6.6238
# 5 -21.5216 -4.5832 -15.0036 0.0002 26.1415 0.0002
# 6 0.0001 0.0000 0.0002 -6.6238 0.0002 39.4864
#
#
#
# Elastic Compliance Matrix: (Units=1/GPa)
#
#
# Indices 1 2 3 4 5 6 
#
# 1 0.039034 -0.003296 -0.005862 0.000000 0.028193 0.000000
# 2 -0.003296 0.012819 -0.000524 0.000000 -0.000767 0.000000
# 3 -0.005862 -0.000524 0.026235 0.000000 0.010139 0.000000
# 4 0.000000 0.000000 0.000000 0.034067 -0.000001 0.005715
# 5 0.028193 -0.000767 0.010139 -0.000001 0.067149 -0.000001
# 6 0.000000 0.000000 0.000000 0.005715 -0.000001 0.026284
#
#
# Mechanical properties :
#
#
# Convention : Reuss Voigt Hill
#
# Bulk Modulus (GPa) = 17.02898 27.19058 22.10978
# Shear Modulus (GPa) = 20.44787 28.44842 24.44814
#
# Velocity S-wave (km/s) = 3.01264 3.55346 3.29417
# Velocity P-wave (km/s) = 4.43394 5.37633 4.92771
#
# Compressibility (1/GPa) = 0.05872342
#
# Stress axis : x y z
#
# Youngs Moduli (GPa) = 25.61897 78.01114 38.11748
#
# Poissons Ratio (x) = 0.25711 0.22345
# Poissons Ratio (y) = 0.08444 0.01997
# Poissons Ratio (z) = 0.15018 0.04087
#
# Static dielectric constant tensor:
#      x y z
#    x 1.859420 0.000000 -0.000480 
#    y 0.000000 1.803010 0.000000 
#    z -0.000480 0.000000 1.884020 
# 
# From -- ./inp_files/37811.got.cif
#   From: 2010.05.17/outbox.cif.g08.bks.cpg/sg15_19_cif.got.tgz:37811.got - 2010.06.03 18:47:42.
