data_PCOD9282737
_publ_section_title
;
Structure prediction by ZEFSAII (Michael W. Deem and Ramdas Pophale) SiO2 
 PCOD9282737
Probable space group: C 2/C
;
_chemical_formula_sum "Si O2"
_cell_formula_units_Z 64
_cell_length_a 17.152683
_cell_length_b 9.194732
_cell_length_c 28.842075
_cell_angle_alpha 90.000000
_cell_angle_beta 141.533965
_cell_angle_gamma 90.000000
_cell_volume 2829.588941
_symmetry_space_group_name_H-M "C 2/C"
_symmetry_group_IT_number 15
_symmetry_cell_setting 'monoclinic'
loop_
_space_group_symop_operation_xyz
x,y,z
-x,y,1/2-z
-x,-y,-z
x,-y,1/2+z
1/2+x,1/2+y,z
1/2-x,1/2+y,1/2-z
1/2-x,1/2-y,-z
1/2+x,1/2-y,1/2+z
loop_
_atom_site_type_symbol
_atom_site_label
_atom_site_fract_x
_atom_site_fract_y
_atom_site_fract_z
Si Si1 0.415643 0.162558 0.577843
Si Si2 0.149731 0.501893 0.812542
Si Si3 0.778414 0.242035 0.720911
Si Si4 0.566406 0.864755 0.056564
Si Si5 0.497372 0.565878 0.696567
Si Si6 0.109347 0.919535 0.521453
Si Si7 0.618771 0.745739 0.236993
Si Si8 0.820033 0.011714 0.043260
O O1 0.469823 0.186549 0.551622
O O2 0.520107 0.146029 0.665798
O O3 0.326522 0.023621 0.534068
O O4 0.355598 0.317467 0.563695
O O5 0.197758 0.389109 0.796124
O O6 0.250773 0.474787 0.899988
O O7 0.169699 0.666556 0.804180
O O8 0.000000 0.481188 0.750000
O O9 0.693171 0.135311 0.647990
O O10 0.714580 0.279849 0.739777
O O11 0.908930 0.162724 0.789427
O O12 0.594275 0.745726 0.030533
O O13 0.500000 0.000000 0.000000
O O14 0.500000 0.621085 0.750000
O O15 0.553301 0.402936 0.721467
O O16 0.362020 0.563482 0.610070
O O17 0.102689 0.947056 0.463614
O O18 0.000000 0.000000 0.500000
#
# Coordination Sequence:
#
# PCOD9282737 Si02
#       8
#     8   8   8   8   8   8   8   8
#     4   9  19  38  60  90 130 165 199 273 322 363
#     4  11  23  41  66  92 131 170 214 266 327 388
#     4  10  23  41  62  87 132 168 202 264 332 379
#     4  10  22  40  62  90 127 164 210 267 328 383
#     4  11  24  40  62  94 126 164 211 262 319 378
#     4  11  23  41  68  96 126 173 224 269 320 390
#     4  10  21  39  65  94 121 164 223 260 310 386
#     4  10  21  39  64  91 127 162 214 262 319 381
#
# _framework density 22.618124999999999
#
# number of rings (size 3 to 8) (size 9 to 14) (size 15 to 20)
#    0.000    1.750    1.250    2.250    5.250    3.000 
#    4.500    0.625    0.000    0.000    0.000    0.000 
#    0.000    0.000    0.000    0.000    0.000    0.000 
#
# Total GULP energy -178624.777321 kJ/mol
# GULP energy per Si atom -5582.024291 kJ/mol
# Density = 2.256665 g / cm^3
# Si number density = 22.618125 Si / 1000 Ang^3
#
#
#
# Elastic Constant Matrix: (Units=GPa)
#
#
# Indices 1 2 3 4 5 6 
#
# 1 79.2397 -11.7393 15.5467 0.0000 1.8458 0.0000
# 2 -11.7393 31.6883 -1.3380 0.0000 -5.7711 -0.0001
# 3 15.5467 -1.3380 35.3640 0.0000 0.8327 0.0000
# 4 0.0000 0.0000 0.0000 -20.0747 0.0000 -118.1530
# 5 1.8458 -5.7711 0.8327 0.0000 27.6499 0.0000
# 6 0.0000 -0.0001 0.0000 -118.1530 0.0000 -349.5106
#
#
#
# Elastic Compliance Matrix: (Units=1/GPa)
#
#
# Indices 1 2 3 4 5 6 
#
# 1 0.014606 0.005202 -0.006231 0.000000 0.000298 0.000000
# 2 0.005202 0.034699 -0.001137 0.000000 0.006929 0.000000
# 3 -0.006231 -0.001137 0.030992 0.000000 -0.000755 0.000000
# 4 0.000000 0.000000 0.000000 0.050334 0.000000 -0.017016
# 5 0.000298 0.006929 -0.000755 0.000000 0.037616 0.000000
# 6 0.000000 0.000000 0.000000 -0.017016 0.000000 0.002891
#
#
# Mechanical properties :
#
#
# Convention : Reuss Voigt Hill
#
# Bulk Modulus (GPa) = 13.16423 16.80343 14.98383
# Shear Modulus (GPa) = 24.90147 -58.79890 -16.94872
#
# Velocity S-wave (km/s) = 3.32166 -5.10419 -2.74038
# Velocity P-wave (km/s) = 4.53256 5.22415 1.83680
#
# Compressibility (1/GPa) = 0.07596342
#
# Stress axis : x y z
#
# Youngs Moduli (GPa) = 68.46359 28.81961 32.26685
#
# Poissons Ratio (x) = -0.14993 0.20107
# Poissons Ratio (y) = -0.35617 0.03670
# Poissons Ratio (z) = 0.42663 0.03278
#
# Static dielectric constant tensor:
#      x y z
#    x 1.820580 0.000000 0.016550 
#    y 0.000000 1.811200 0.000000 
#    z 0.016550 0.000000 1.893100 
# 
# From -- ./inp_files/315742.got.cif
#   From: 2010.05.17/outbox.cif.g08.bks.cpg/sg15_158_cif.got.tgz:315742.got - 2010.06.03 18:47:42.
