data_PCOD9282729
_publ_section_title
;
Structure prediction by ZEFSAII (Michael W. Deem and Ramdas Pophale) SiO2 
 PCOD9282729
Probable space group: C 2/C
;
_chemical_formula_sum "Si O2"
_cell_formula_units_Z 56
_cell_length_a 17.015840
_cell_length_b 15.448000
_cell_length_c 18.538457
_cell_angle_alpha 90.000000
_cell_angle_beta 32.646398
_cell_angle_gamma 90.000000
_cell_volume 2628.770723
_symmetry_space_group_name_H-M "C 2/C"
_symmetry_group_IT_number 15
_symmetry_cell_setting 'monoclinic'
loop_
_space_group_symop_operation_xyz
x,y,z
-x,y,1/2-z
-x,-y,-z
x,-y,1/2+z
1/2+x,1/2+y,z
1/2-x,1/2+y,1/2-z
1/2-x,1/2-y,-z
1/2+x,1/2-y,1/2+z
loop_
_atom_site_type_symbol
_atom_site_label
_atom_site_fract_x
_atom_site_fract_y
_atom_site_fract_z
Si Si1 0.663116 0.117630 0.826478
Si Si2 0.775035 0.196312 0.196616
Si Si3 0.632914 0.540616 0.567059
Si Si4 0.545897 0.277024 0.084802
Si Si5 0.406900 0.985624 0.260592
Si Si6 0.862529 0.400401 0.989052
Si Si7 0.094860 0.019573 0.354904
O O1 0.672671 0.218632 0.800677
O O2 0.602359 0.070144 0.804021
O O3 0.596079 0.102903 0.958153
O O4 0.815108 0.068880 0.721361
O O5 0.613659 0.231128 0.297658
O O6 0.799606 0.103147 0.215575
O O7 0.888836 0.193767 0.042660
O O8 0.561712 0.636106 0.618202
O O9 0.759021 0.521910 0.409470
O O10 0.723943 0.542266 0.571469
O O11 0.509347 0.474518 0.634711
O O12 0.654001 0.198719 0.021814
O O13 0.500000 0.937845 0.250000
O O14 0.504888 0.065094 0.160256
O O15 0.000000 0.000000 0.500000
#
# Coordination Sequence:
#
# PCOD9282729 Si02
#       7
#     8   8   8   8   8   8   8
#     4  11  21  39  62  90 126 165 208 272 316 370
#     4  11  23  37  65  97 121 172 218 257 321 378
#     4  11  21  38  63  89 129 171 206 252 321 392
#     4  11  20  38  58  97 131 162 206 258 321 390
#     4  10  21  39  64  90 123 170 217 256 314 385
#     4  10  23  35  58  97 130 160 204 265 330 375
#     4  12  21  40  66  87 127 173 215 254 311 393
#
# _framework density 21.302733
#
# number of rings (size 3 to 8) (size 9 to 14) (size 15 to 20)
#    0.000    1.143    4.286    2.571    0.000    1.714 
#    0.000    1.429    3.143    1.714    0.000    0.000 
#    0.000    0.000    0.000    0.000    0.000    0.000 
#
# Total GULP energy -155912.501584 kJ/mol
# GULP energy per Si atom -5568.303628 kJ/mol
# Density = 2.125425 g / cm^3
# Si number density = 21.302733 Si / 1000 Ang^3
#
#
#
# Elastic Constant Matrix: (Units=GPa)
#
#
# Indices 1 2 3 4 5 6 
#
# 1 124.3755 30.1773 21.0144 0.0004 -10.4329 0.0000
# 2 30.1773 91.5341 16.5996 0.0006 -2.4552 -0.0003
# 3 21.0144 16.5996 92.5340 0.0013 0.5306 -0.0005
# 4 0.0004 0.0006 0.0013 23.6226 -0.0007 -0.8302
# 5 -10.4329 -2.4552 0.5306 -0.0007 28.1678 0.0003
# 6 0.0000 -0.0003 -0.0005 -0.8302 0.0003 8.4358
#
#
#
# Elastic Compliance Matrix: (Units=1/GPa)
#
#
# Indices 1 2 3 4 5 6 
#
# 1 0.009232 -0.002660 -0.001638 0.000000 0.003219 0.000000
# 2 -0.002660 0.012088 -0.001565 0.000000 0.000098 0.000000
# 3 -0.001638 -0.001565 0.011465 -0.000001 -0.000959 0.000001
# 4 0.000000 0.000000 -0.000001 0.042479 0.000001 0.004181
# 5 0.003219 0.000098 -0.000959 0.000001 0.036720 -0.000001
# 6 0.000000 0.000000 0.000001 0.004181 -0.000001 0.118954
#
#
# Mechanical properties :
#
#
# Convention : Reuss Voigt Hill
#
# Bulk Modulus (GPa) = 47.48470 49.33624 48.41047
# Shear Modulus (GPa) = 20.02516 28.08870 24.05693
#
# Velocity S-wave (km/s) = 3.06931 3.63512 3.36413
# Velocity P-wave (km/s) = 5.90760 6.38973 6.15339
#
# Compressibility (1/GPa) = 0.02105942
#
# Stress axis : x y z
#
# Youngs Moduli (GPa) = 108.31448 82.72395 87.22174
#
# Poissons Ratio (x) = 0.22008 0.14286
# Poissons Ratio (y) = 0.28816 0.13649
# Poissons Ratio (z) = 0.17740 0.12946
#
# Static dielectric constant tensor:
#      x y z
#    x 1.889010 0.000000 -0.031230 
#    y 0.000000 1.823920 0.000000 
#    z -0.031230 0.000000 1.851440 
# 
# From -- ./inp_files/249235.got.cif
#   From: 2010.05.17/outbox.cif.g08.bks.cpg/sg15_125_cif.got.tgz:249235.got - 2010.06.03 18:47:42.
