data_PCOD9282206
_publ_section_title
;
Structure prediction by ZEFSAII (Michael W. Deem and Ramdas Pophale) SiO2 
 PCOD9282206
Probable space group: C 2/C
;
_chemical_formula_sum "Si O2"
_cell_formula_units_Z 52
_cell_length_a 21.014019
_cell_length_b 25.126993
_cell_length_c 15.408619
_cell_angle_alpha 90.000000
_cell_angle_beta 161.202466
_cell_angle_gamma 90.000000
_cell_volume 2621.636789
_symmetry_space_group_name_H-M "C 2/C"
_symmetry_group_IT_number 15
_symmetry_cell_setting 'monoclinic'
loop_
_space_group_symop_operation_xyz
x,y,z
-x,y,1/2-z
-x,-y,-z
x,-y,1/2+z
1/2+x,1/2+y,z
1/2-x,1/2+y,1/2-z
1/2-x,1/2-y,-z
1/2+x,1/2-y,1/2+z
loop_
_atom_site_type_symbol
_atom_site_label
_atom_site_fract_x
_atom_site_fract_y
_atom_site_fract_z
Si Si1 0.136662 0.390227 0.105346
Si Si2 0.348623 0.921465 0.886913
Si Si3 0.598379 0.514195 0.510403
Si Si4 0.315826 0.815327 0.947807
Si Si5 0.698608 0.989346 0.416947
Si Si6 0.076252 0.803770 0.946509
Si Si7 0.500000 0.088522 0.250000
O O1 0.284654 0.440053 0.289545
O O2 0.249826 0.343610 0.302150
O O3 0.958923 0.411353 0.937025
O O4 0.082002 0.377133 0.935800
O O5 0.306469 0.863967 0.870398
O O6 0.505637 0.953346 0.150894
O O7 0.155458 0.958045 0.626509
O O8 0.698970 0.509538 0.545071
O O9 0.372284 0.530440 0.204417
O O10 0.500000 0.824850 0.250000
O O11 0.355276 0.757321 0.958290
O O12 0.113372 0.812710 0.738932
O O13 0.641926 0.046694 0.382500
O O14 0.000000 0.813202 0.750000
#
# Coordination Sequence:
#
# PCOD9282206 Si02
#       7
#     8   8   8   8   8   8   4
#     4  11  23  38  62  88 132 170 209 260 312 368
#     4  11  21  41  60  95 129 169 210 259 317 376
#     4  10  21  39  59  87 125 176 209 251 320 369
#     4  11  24  40  67  94 125 159 202 264 325 378
#     4  10  22  36  58  86 129 165 213 258 305 378
#     4  11  24  44  65  97 124 160 206 262 320 375
#     4  12  22  38  56  88 132 168 210 256 302 370
#
# _framework density 19.834937
#
# number of rings (size 3 to 8) (size 9 to 14) (size 15 to 20)
#    0.000    1.231    3.077    4.615    9.692    0.615 
#    0.000    0.000    0.000    5.538    0.000    0.000 
#    0.000    0.000    0.000    0.000    0.000    0.000 
#
# Total GULP energy -145312.498873 kJ/mol
# GULP energy per Si atom -5588.942264 kJ/mol
# Density = 1.978979 g / cm^3
# Si number density = 19.834937 Si / 1000 Ang^3
#
#
#
# Elastic Constant Matrix: (Units=GPa)
#
#
# Indices 1 2 3 4 5 6 
#
# 1 79.7313 25.2181 38.2384 0.0000 -14.0879 0.0001
# 2 25.2181 89.8721 30.9024 0.0000 -28.5351 0.0000
# 3 38.2384 30.9024 74.1694 0.0001 -14.6397 0.0002
# 4 0.0000 0.0000 0.0001 20.6239 0.0000 -4.5840
# 5 -14.0879 -28.5351 -14.6397 0.0000 32.9546 0.0001
# 6 0.0001 0.0000 0.0002 -4.5840 0.0001 26.7436
#
#
#
# Elastic Compliance Matrix: (Units=1/GPa)
#
#
# Indices 1 2 3 4 5 6 
#
# 1 0.017161 -0.001255 -0.007772 0.000000 0.002797 0.000000
# 2 -0.001255 0.016688 -0.003902 0.000000 0.012180 0.000000
# 3 -0.007772 -0.003902 0.019503 0.000000 0.001963 0.000000
# 4 0.000000 0.000000 0.000000 0.050408 0.000000 0.008640
# 5 0.002797 0.012180 0.001963 0.000000 0.042959 0.000000
# 6 0.000000 0.000000 0.000000 0.008640 0.000000 0.038873
#
#
# Mechanical properties :
#
#
# Convention : Reuss Voigt Hill
#
# Bulk Modulus (GPa) = 36.37248 48.05452 42.21350
# Shear Modulus (GPa) = 22.66398 26.02535 24.34466
#
# Velocity S-wave (km/s) = 3.38395 3.62622 3.50717
# Velocity P-wave (km/s) = 5.80048 6.46625 6.14239
#
# Compressibility (1/GPa) = 0.02749331
#
# Stress axis : x y z
#
# Youngs Moduli (GPa) = 58.27251 59.92332 51.27444
#
# Poissons Ratio (x) = 0.07519 0.39853
# Poissons Ratio (y) = 0.07312 0.20007
# Poissons Ratio (z) = 0.45292 0.23382
#
# Static dielectric constant tensor:
#      x y z
#    x 1.745310 0.000000 -0.005410 
#    y 0.000000 1.674910 0.000000 
#    z -0.005410 0.000000 1.735000 
# 
# From -- ./inp_files/169892.got.cif
#   From: 2010.05.17/outbox.cif.g08.bks.cpg/sg15_85_cif.got.tgz:169892.got - 2010.06.03 18:47:42.
