data_PCOD9282687
_publ_section_title
;
Structure prediction by ZEFSAII (Michael W. Deem and Ramdas Pophale) SiO2 
 PCOD9282687
Probable space group: C 2/C
;
_chemical_formula_sum "Si O2"
_cell_formula_units_Z 44
_cell_length_a 4.929556
_cell_length_b 25.363811
_cell_length_c 15.153267
_cell_angle_alpha 90.000000
_cell_angle_beta 98.749463
_cell_angle_gamma 90.000000
_cell_volume 1872.600088
_symmetry_space_group_name_H-M "C 2/C"
_symmetry_group_IT_number 15
_symmetry_cell_setting 'monoclinic'
loop_
_space_group_symop_operation_xyz
x,y,z
-x,y,1/2-z
-x,-y,-z
x,-y,1/2+z
1/2+x,1/2+y,z
1/2-x,1/2+y,1/2-z
1/2-x,1/2-y,-z
1/2+x,1/2-y,1/2+z
loop_
_atom_site_type_symbol
_atom_site_label
_atom_site_fract_x
_atom_site_fract_y
_atom_site_fract_z
Si Si1 0.214100 0.485440 0.588748
Si Si2 0.000000 0.242662 0.750000
Si Si3 0.741429 0.395332 0.397708
Si Si4 0.309892 0.618641 0.009661
Si Si5 0.146302 0.827590 0.666914
Si Si6 0.000000 0.424383 0.750000
Si Si7 0.500000 0.168675 0.750000
O O1 0.321994 0.542945 0.619934
O O2 0.393726 0.439387 0.552258
O O3 0.107750 0.459367 0.674224
O O4 0.000000 0.500000 0.500000
O O5 0.868750 0.281407 0.669156
O O6 0.759473 0.207139 0.779468
O O7 0.462959 0.373400 0.424991
O O8 0.983154 0.384894 0.482099
O O9 0.869981 0.368350 0.318929
O O10 0.425008 0.662311 0.080855
O O11 0.286580 0.883636 0.695679
O O12 0.000000 0.812978 0.750000
#
# Coordination Sequence:
#
# PCOD9282687 Si02
#       7
#     8   4   8   8   8   4   4
#     4  10  21  39  64 100 142 181 219 270 331 409
#     4  11  26  44  75  92 131 180 234 293 352 396
#     4  11  25  43  69  95 144 183 224 272 329 413
#     4  11  23  43  67 104 137 174 222 284 342 400
#     4  11  22  42  70  99 130 171 225 297 353 399
#     4  11  21  38  64 102 134 180 227 273 344 416
#     4  12  25  50  67  98 131 190 235 274 336 416
#
# _framework density 23.496742000000001
#
# number of rings (size 3 to 8) (size 9 to 14) (size 15 to 20)
#    0.000    1.091    2.727    4.364    2.545    1.455 
#    0.000    7.273    0.000    0.000    0.000    0.000 
#    0.000    0.000    0.000    0.000    0.000    0.000 
#
# Total GULP energy -122873.697622 kJ/mol
# GULP energy per Si atom -5585.168074 kJ/mol
# Density = 2.344326 g / cm^3
# Si number density = 23.496742 Si / 1000 Ang^3
#
#
#
# Elastic Constant Matrix: (Units=GPa)
#
#
# Indices 1 2 3 4 5 6 
#
# 1 89.7586 22.5407 14.9117 0.0000 -16.0483 0.0000
# 2 22.5407 101.6194 47.2321 0.0000 -4.5762 0.0000
# 3 14.9117 47.2321 87.8599 0.0000 -28.9508 0.0000
# 4 0.0000 0.0000 0.0000 7.2362 0.0000 4.7678
# 5 -16.0483 -4.5762 -28.9508 0.0000 41.7555 0.0000
# 6 0.0000 0.0000 0.0000 4.7678 0.0000 20.5503
#
#
#
# Elastic Compliance Matrix: (Units=1/GPa)
#
#
# Indices 1 2 3 4 5 6 
#
# 1 0.012699 -0.003210 0.001377 0.000000 0.005484 0.000000
# 2 -0.003210 0.014608 -0.009316 0.000000 -0.006092 0.000000
# 3 0.001377 -0.009316 0.020730 0.000000 0.013881 0.000000
# 4 0.000000 0.000000 0.000000 0.163131 0.000000 -0.037847
# 5 0.005484 -0.006092 0.013881 0.000000 0.035013 0.000000
# 6 0.000000 0.000000 0.000000 -0.037847 0.000000 0.057442
#
#
# Mechanical properties :
#
#
# Convention : Reuss Voigt Hill
#
# Bulk Modulus (GPa) = 38.84936 49.84523 44.34729
# Shear Modulus (GPa) = 14.94769 26.87863 20.91316
#
# Velocity S-wave (km/s) = 2.52496 3.38587 2.98660
# Velocity P-wave (km/s) = 5.00703 6.04527 5.55048
#
# Compressibility (1/GPa) = 0.02574045
#
# Stress axis : x y z
#
# Youngs Moduli (GPa) = 78.74791 68.45487 48.23944
#
# Poissons Ratio (x) = 0.21974 -0.06644
# Poissons Ratio (y) = 0.25278 0.44938
# Poissons Ratio (z) = -0.10847 0.63770
#
# Static dielectric constant tensor:
#      x y z
#    x 1.953140 0.000000 0.050330 
#    y 0.000000 1.920170 0.000000 
#    z 0.050330 0.000000 1.940830 
# 
# From -- ./inp_files/129861.got.cif
#   From: 2010.05.17/outbox.cif.g08.bks.cpg/sg15_65_cif.got.tgz:129861.got - 2010.06.03 18:47:42.
