data_PCOD9282041
_publ_section_title
;
Structure prediction by ZEFSAII (Michael W. Deem and Ramdas Pophale) SiO2 
 PCOD9282041
Probable space group: C 2/C
;
_chemical_formula_sum "Si O2"
_cell_formula_units_Z 64
_cell_length_a 16.204313
_cell_length_b 11.855452
_cell_length_c 27.385327
_cell_angle_alpha 90.000000
_cell_angle_beta 36.490559
_cell_angle_gamma 90.000000
_cell_volume 3128.654035
_symmetry_space_group_name_H-M "C 2/C"
_symmetry_group_IT_number 15
_symmetry_cell_setting 'monoclinic'
loop_
_space_group_symop_operation_xyz
x,y,z
-x,y,1/2-z
-x,-y,-z
x,-y,1/2+z
1/2+x,1/2+y,z
1/2-x,1/2+y,1/2-z
1/2-x,1/2-y,-z
1/2+x,1/2-y,1/2+z
loop_
_atom_site_type_symbol
_atom_site_label
_atom_site_fract_x
_atom_site_fract_y
_atom_site_fract_z
Si Si1 0.600927 0.393756 0.155693
Si Si2 0.657719 0.996644 0.904690
Si Si3 0.060618 0.091354 0.565331
Si Si4 0.617966 0.798527 0.856534
Si Si5 0.061996 0.513461 0.307393
Si Si6 0.348892 0.819262 0.178478
Si Si7 0.812166 0.632179 0.391590
Si Si8 0.356954 0.587477 0.124269
O O1 0.500000 0.407312 0.250000
O O2 0.735746 0.468059 0.103796
O O3 0.532088 0.423850 0.136607
O O4 0.639826 0.261349 0.133387
O O5 0.683324 0.089320 0.849022
O O6 0.681815 0.872241 0.870011
O O7 0.500000 0.000000 0.000000
O O8 0.225016 0.101009 0.480961
O O9 0.997013 0.207774 0.575348
O O10 0.985400 0.994107 0.571018
O O11 0.546923 0.893774 0.857110
O O12 0.725024 0.728116 0.771806
O O13 0.049458 0.388435 0.334463
O O14 0.221254 0.531996 0.214928
O O15 0.944652 0.551077 0.325866
O O16 0.397142 0.706630 0.128913
O O17 0.703076 0.610418 0.400447
#
# Coordination Sequence:
#
# PCOD9282041 Si02
#       8
#     8   8   8   8   8   8   8   8
#     4  12  25  42  68 101 130 168 225 276 326 396
#     4  11  24  41  70 104 136 172 230 285 334 394
#     4  12  25  42  65  99 134 170 216 280 338 391
#     4  10  21  39  67  95 130 177 220 270 338 402
#     4  10  21  38  68  93 126 168 226 270 324 392
#     4  10  21  40  68  93 130 179 222 264 334 407
#     4  12  24  40  65 100 130 167 221 281 329 386
#     4  11  23  42  66  91 133 177 216 262 336 405
#
# _framework density 20.45608
#
# number of rings (size 3 to 8) (size 9 to 14) (size 15 to 20)
#    0.000    1.000    3.750    3.375    7.000    0.000 
#    0.000    1.875    0.000    0.000    0.000    0.000 
#    0.000    0.000    0.000    0.000    0.000    0.000 
#
# Total GULP energy -178626.241793 kJ/mol
# GULP energy per Si atom -5582.070056 kJ/mol
# Density = 2.040952 g / cm^3
# Si number density = 20.456080 Si / 1000 Ang^3
#
#
#
# Elastic Constant Matrix: (Units=GPa)
#
#
# Indices 1 2 3 4 5 6 
#
# 1 62.4273 33.7828 18.0097 0.0000 -3.4553 0.0000
# 2 33.7828 98.3311 38.9628 0.0000 -8.2735 0.0000
# 3 18.0097 38.9628 41.5035 -0.0003 -10.6643 -0.0001
# 4 0.0000 0.0000 -0.0003 -126.2250 0.0000 -61.7532
# 5 -3.4553 -8.2735 -10.6643 0.0000 29.6016 0.0000
# 6 0.0000 0.0000 -0.0001 -61.7532 0.0000 10.1498
#
#
#
# Elastic Compliance Matrix: (Units=1/GPa)
#
#
# Indices 1 2 3 4 5 6 
#
# 1 0.020007 -0.005453 -0.003696 0.000000 -0.000520 0.000000
# 2 -0.005453 0.017709 -0.014492 0.000000 -0.000908 0.000000
# 3 -0.003696 -0.014492 0.042044 0.000000 0.010665 0.000000
# 4 0.000000 0.000000 0.000000 -0.001992 0.000000 -0.012121
# 5 -0.000520 -0.000908 0.010665 0.000000 0.037310 0.000000
# 6 0.000000 0.000000 0.000000 -0.012121 0.000000 0.024776
#
#
# Mechanical properties :
#
#
# Convention : Reuss Voigt Hill
#
# Bulk Modulus (GPa) = 30.79094 42.64136 36.71615
# Shear Modulus (GPa) = 25.25745 -9.86093 7.69826
#
# Velocity S-wave (km/s) = 3.51766 -2.19795 1.94203
# Velocity P-wave (km/s) = 5.61992 3.80122 4.79754
#
# Compressibility (1/GPa) = 0.03247708
#
# Stress axis : x y z
#
# Youngs Moduli (GPa) = 49.98256 56.46823 23.78482
#
# Poissons Ratio (x) = 0.30791 0.08792
# Poissons Ratio (y) = 0.27254 0.34469
# Poissons Ratio (z) = 0.18476 0.81835
#
# Static dielectric constant tensor:
#      x y z
#    x 1.760330 0.000000 0.038410 
#    y 0.000000 1.691660 0.000000 
#    z 0.038410 0.000000 1.830840 
# 
# From -- ./inp_files/296117.got.cif
#   From: 2010.05.17/outbox.cif.g08.bks.cpg/sg15_149_cif.got.tgz:296117.got - 2010.06.03 18:47:42.
