data_PCOD9282514
_publ_section_title
;
Structure prediction by ZEFSAII (Michael W. Deem and Ramdas Pophale) SiO2 
 PCOD9282514
Probable space group: C 2/C
;
_chemical_formula_sum "Si O2"
_cell_formula_units_Z 64
_cell_length_a 21.640566
_cell_length_b 5.130532
_cell_length_c 22.294859
_cell_angle_alpha 90.000000
_cell_angle_beta 83.155959
_cell_angle_gamma 90.000000
_cell_volume 2457.706244
_symmetry_space_group_name_H-M "C 2/C"
_symmetry_group_IT_number 15
_symmetry_cell_setting 'monoclinic'
loop_
_space_group_symop_operation_xyz
x,y,z
-x,y,1/2-z
-x,-y,-z
x,-y,1/2+z
1/2+x,1/2+y,z
1/2-x,1/2+y,1/2-z
1/2-x,1/2-y,-z
1/2+x,1/2-y,1/2+z
loop_
_atom_site_type_symbol
_atom_site_label
_atom_site_fract_x
_atom_site_fract_y
_atom_site_fract_z
Si Si1 0.802882 0.205457 0.790224
Si Si2 0.374020 0.834448 0.071280
Si Si3 0.098580 0.307980 0.644799
Si Si4 0.995010 0.202426 0.445677
Si Si5 0.526451 0.315964 0.680363
Si Si6 0.862318 0.952994 0.965815
Si Si7 0.253036 0.836001 0.598949
Si Si8 0.182743 0.055653 0.320788
O O1 0.843833 0.411676 0.822974
O O2 0.842275 0.138199 0.726182
O O3 0.736055 0.304962 0.775939
O O4 0.780604 0.008690 0.845547
O O5 0.447240 0.902765 0.053564
O O6 0.363309 0.751644 0.141765
O O7 0.316419 0.027415 0.066949
O O8 0.361799 0.583070 0.030836
O O9 0.046146 0.524107 0.658459
O O10 0.119571 0.204473 0.577751
O O11 0.080225 0.033114 0.677689
O O12 0.007472 0.085179 0.377211
O O13 0.920394 0.245019 0.453191
O O14 0.000000 0.000000 0.500000
O O15 0.500000 0.302294 0.750000
O O16 0.799558 0.829517 0.946447
O O17 0.279495 0.586420 0.630546
#
# Coordination Sequence:
#
# PCOD9282514 Si02
#       8
#     8   8   8   8   8   8   8   8
#     4  10  22  37  62  90 133 174 225 279 355 422
#     4  10  22  41  62 100 129 173 231 292 348 427
#     4  10  24  42  70  98 135 186 231 292 359 427
#     4   9  21  44  67  95 141 185 229 291 364 430
#     4  11  24  44  68 104 136 184 239 296 354 429
#     4   9  20  44  66  90 136 177 233 284 354 426
#     4  10  21  39  62  95 124 172 225 285 346 413
#     4  11  22  37  62  94 131 174 223 285 352 420
#
# _framework density 26.04054
#
# number of rings (size 3 to 8) (size 9 to 14) (size 15 to 20)
#    0.000    2.000    1.250    0.750    7.000    1.500 
#   11.250    3.125    0.000    0.000    0.000    0.000 
#    0.000    0.000    0.000    0.000    0.000    0.000 
#
# Total GULP energy -178435.035413 kJ/mol
# GULP energy per Si atom -5576.094857 kJ/mol
# Density = 2.598127 g / cm^3
# Si number density = 26.040540 Si / 1000 Ang^3
#
#
#
# Elastic Constant Matrix: (Units=GPa)
#
#
# Indices 1 2 3 4 5 6 
#
# 1 163.5418 23.4511 34.9250 0.0000 3.1386 0.0000
# 2 23.4511 69.3485 22.1130 0.0000 -16.5788 0.0000
# 3 34.9250 22.1130 156.4247 0.0000 -5.4825 0.0000
# 4 0.0000 0.0000 0.0000 30.2387 0.0000 -5.2163
# 5 3.1386 -16.5788 -5.4825 0.0000 30.4889 0.0000
# 6 0.0000 0.0000 0.0000 -5.2163 0.0000 32.2406
#
#
#
# Elastic Compliance Matrix: (Units=1/GPa)
#
#
# Indices 1 2 3 4 5 6 
#
# 1 0.006772 -0.002428 -0.001247 0.000000 -0.002242 0.000000
# 2 -0.002428 0.018118 -0.001676 0.000000 0.009801 0.000000
# 3 -0.001247 -0.001676 0.006924 0.000000 0.000462 0.000000
# 4 0.000000 0.000000 0.000000 0.034020 0.000000 0.005504
# 5 -0.002242 0.009801 0.000462 0.000000 0.038442 0.000000
# 6 0.000000 0.000000 0.000000 0.005504 0.000000 0.031907
#
#
# Mechanical properties :
#
#
# Convention : Reuss Voigt Hill
#
# Bulk Modulus (GPa) = 47.36532 61.14369 54.25450
# Shear Modulus (GPa) = 32.48348 39.18204 35.83276
#
# Velocity S-wave (km/s) = 3.53571 3.88320 3.71352
# Velocity P-wave (km/s) = 5.90736 6.60581 6.26633
#
# Compressibility (1/GPa) = 0.02111249
#
# Stress axis : x y z
#
# Youngs Moduli (GPa) = 147.66129 55.19239 144.41630
#
# Poissons Ratio (x) = 0.13403 0.18014
# Poissons Ratio (y) = 0.35857 0.24199
# Poissons Ratio (z) = 0.18418 0.09248
#
# Static dielectric constant tensor:
#      x y z
#    x 2.158040 0.000000 -0.010970 
#    y 0.000000 2.126380 0.000000 
#    z -0.010970 0.000000 2.049090 
# 
# From -- ./inp_files/280970.got.cif
#   From: 2010.05.17/outbox.cif.g08.bks.cpg/sg15_141_cif.got.tgz:280970.got - 2010.06.03 18:47:42.
