data_PCOD9282628
_publ_section_title
;
Structure prediction by ZEFSAII (Michael W. Deem and Ramdas Pophale) SiO2 
 PCOD9282628
Probable space group: C 2/C
;
_chemical_formula_sum "Si O2"
_cell_formula_units_Z 60
_cell_length_a 26.093055
_cell_length_b 15.380451
_cell_length_c 21.206437
_cell_angle_alpha 90.000000
_cell_angle_beta 19.712341
_cell_angle_gamma 90.000000
_cell_volume 2870.618754
_symmetry_space_group_name_H-M "C 2/C"
_symmetry_group_IT_number 15
_symmetry_cell_setting 'monoclinic'
loop_
_space_group_symop_operation_xyz
x,y,z
-x,y,1/2-z
-x,-y,-z
x,-y,1/2+z
1/2+x,1/2+y,z
1/2-x,1/2+y,1/2-z
1/2-x,1/2-y,-z
1/2+x,1/2-y,1/2+z
loop_
_atom_site_type_symbol
_atom_site_label
_atom_site_fract_x
_atom_site_fract_y
_atom_site_fract_z
Si Si1 0.098268 0.278532 0.295628
Si Si2 0.313839 0.706749 0.082258
Si Si3 0.089004 0.155242 0.082360
Si Si4 0.933036 0.147403 0.621342
Si Si5 0.410120 0.503643 0.753502
Si Si6 0.326152 0.604156 0.249033
Si Si7 0.397627 0.082549 0.101271
Si Si8 0.000000 0.132482 0.750000
O O1 0.196138 0.207098 0.220397
O O2 0.993034 0.222741 0.370543
O O3 0.000984 0.340004 0.453293
O O4 0.233475 0.333993 0.109225
O O5 0.201078 0.625880 0.228351
O O6 0.217761 0.794957 0.201330
O O7 0.438297 0.705400 0.993485
O O8 0.401317 0.688359 0.914715
O O9 0.000000 0.165446 0.250000
O O10 0.054983 0.057096 0.098613
O O11 0.999300 0.108812 0.479519
O O12 0.923737 0.066490 0.678501
O O13 0.296200 0.434100 0.853504
O O14 0.393226 0.567567 0.832264
O O15 0.221267 0.561780 0.317496
O O16 0.500000 0.000000 0.000000
#
# Coordination Sequence:
#
# PCOD9282628 Si02
#       8
#     8   8   8   8   8   8   8   4
#     4  11  22  40  64  92 129 162 212 267 315 399
#     4  10  23  40  64  94 128 175 212 273 322 394
#     4  11  23  40  64  90 127 172 209 255 327 388
#     4  10  21  39  63  93 126 161 218 264 330 381
#     4  10  22  37  64  92 124 169 210 265 313 395
#     4  10  21  41  61  98 128 163 211 268 332 381
#     4  11  24  40  65  97 133 166 217 276 330 377
#     4  10  22  44  64  94 134 176 230 256 334 398
#
# _framework density 20.901416999999999
#
# number of rings (size 3 to 8) (size 9 to 14) (size 15 to 20)
#    0.000    1.600    3.333    0.800    5.600    3.200 
#    0.000    0.000    0.000    4.800    0.000    0.000 
#    0.000    0.000    0.000    0.000    0.000    0.000 
#
# Total GULP energy -167027.431407 kJ/mol
# GULP energy per Si atom -5567.581047 kJ/mol
# Density = 2.085384 g / cm^3
# Si number density = 20.901417 Si / 1000 Ang^3
#
#
#
# Elastic Constant Matrix: (Units=GPa)
#
#
# Indices 1 2 3 4 5 6 
#
# 1 63.3518 15.8164 20.7473 0.0050 12.1251 -0.0034
# 2 15.8164 69.9978 13.5653 0.0075 -9.2347 -0.0056
# 3 20.7473 13.5653 88.7518 0.0034 2.6061 -0.0024
# 4 0.0050 0.0075 0.0034 24.7744 -0.0045 13.7591
# 5 12.1251 -9.2347 2.6061 -0.0045 30.2772 0.0041
# 6 -0.0034 -0.0056 -0.0024 13.7591 0.0041 -1.4864
#
#
#
# Elastic Compliance Matrix: (Units=1/GPa)
#
#
# Indices 1 2 3 4 5 6 
#
# 1 0.019998 -0.005032 -0.003635 0.000004 -0.009231 -0.000013
# 2 -0.005032 0.016686 -0.001587 0.000002 0.007241 -0.000008
# 3 -0.003635 -0.001587 0.012362 0.000000 -0.000092 -0.000002
# 4 0.000004 0.000002 0.000000 0.006573 -0.000008 0.060844
# 5 -0.009231 0.007241 -0.000092 -0.000008 0.038941 0.000027
# 6 -0.000013 -0.000008 -0.000002 0.060844 0.000027 -0.109554
#
#
# Mechanical properties :
#
#
# Convention : Reuss Voigt Hill
#
# Bulk Modulus (GPa) = 35.03918 35.81771 35.42844
# Shear Modulus (GPa) = 332.73890 22.17787 177.45838
#
# Velocity S-wave (km/s) = 12.63092 3.26094 9.22425
# Velocity P-wave (km/s) = 15.14993 5.59929 11.42087
#
# Compressibility (1/GPa) = 0.02853948
#
# Stress axis : x y z
#
# Youngs Moduli (GPa) = 50.00440 59.93051 80.89113
#
# Poissons Ratio (x) = 0.30158 0.29402
# Poissons Ratio (y) = 0.25163 0.12835
# Poissons Ratio (z) = 0.18175 0.09509
#
# Static dielectric constant tensor:
#      x y z
#    x 1.817030 0.000000 -0.006200 
#    y 0.000000 1.863400 0.000000 
#    z -0.006200 0.000000 1.781990 
# 
# From -- ./inp_files/257853.got.cif
#   From: 2010.05.17/outbox.cif.g08.bks.cpg/sg15_129_cif.got.tgz:257853.got - 2010.06.03 18:47:42.
