data_PCOD9282674
_publ_section_title
;
Structure prediction by ZEFSAII (Michael W. Deem and Ramdas Pophale) SiO2 
 PCOD9282674
Probable space group: C 2/C
;
_chemical_formula_sum "Si O2"
_cell_formula_units_Z 44
_cell_length_a 7.691206
_cell_length_b 12.448974
_cell_length_c 19.577970
_cell_angle_alpha 90.000000
_cell_angle_beta 82.517463
_cell_angle_gamma 90.000000
_cell_volume 1858.581604
_symmetry_space_group_name_H-M "C 2/C"
_symmetry_group_IT_number 15
_symmetry_cell_setting 'monoclinic'
loop_
_space_group_symop_operation_xyz
x,y,z
-x,y,1/2-z
-x,-y,-z
x,-y,1/2+z
1/2+x,1/2+y,z
1/2-x,1/2+y,1/2-z
1/2-x,1/2-y,-z
1/2+x,1/2-y,1/2+z
loop_
_atom_site_type_symbol
_atom_site_label
_atom_site_fract_x
_atom_site_fract_y
_atom_site_fract_z
Si Si1 0.570509 0.257628 0.468518
Si Si2 0.829396 0.602537 0.658853
Si Si3 0.092569 0.823638 0.886204
Si Si4 0.503739 0.880630 0.647484
Si Si5 0.500000 0.298929 0.250000
Si Si6 0.556396 0.537125 0.573170
O O1 0.750000 0.250000 0.500000
O O2 0.428065 0.287232 0.533531
O O3 0.542210 0.149889 0.427969
O O4 0.565166 0.357374 0.415724
O O5 0.939294 0.712907 0.651995
O O6 0.938234 0.497531 0.671334
O O7 0.656697 0.628615 0.712405
O O8 0.745198 0.579374 0.587656
O O9 0.287665 0.863418 0.859981
O O10 0.974354 0.928703 0.881860
O O11 0.425985 0.787015 0.698873
O O12 0.500000 0.500000 0.500000
#
# Coordination Sequence:
#
# PCOD9282674 Si02
#       6
#     8   8   8   8   4   8
#     4  11  22  40  66 102 139 174 216 273 344 403
#     4  11  24  45  69  93 132 179 221 283 337 395
#     4  10  23  40  66 100 135 172 214 279 336 404
#     4  11  23  43  68  95 129 178 224 276 336 396
#     4  10  24  46  62  92 134 172 228 278 332 406
#     4  10  21  39  63  97 138 170 212 272 333 401
#
# _framework density 23.673967999999999
#
# number of rings (size 3 to 8) (size 9 to 14) (size 15 to 20)
#    0.000    1.455    3.636    2.727    5.091    3.636 
#    0.000    0.000    0.000    0.000    0.000    0.000 
#    0.000    0.000    0.000    0.000    0.000    0.000 
#
# Total GULP energy -122711.140488 kJ/mol
# GULP energy per Si atom -5577.779113 kJ/mol
# Density = 2.362008 g / cm^3
# Si number density = 23.673968 Si / 1000 Ang^3
#
#
#
# Elastic Constant Matrix: (Units=GPa)
#
#
# Indices 1 2 3 4 5 6 
#
# 1 39.7844 46.1518 5.3257 0.0000 -5.6187 0.0000
# 2 46.1518 226.8070 38.6944 0.0000 -30.6111 0.0000
# 3 5.3257 38.6944 57.5035 0.0000 -20.0975 0.0000
# 4 0.0000 0.0000 0.0000 28.8788 0.0000 -6.7168
# 5 -5.6187 -30.6111 -20.0975 0.0000 29.7132 0.0000
# 6 0.0000 0.0000 0.0000 -6.7168 0.0000 46.0246
#
#
#
# Elastic Compliance Matrix: (Units=1/GPa)
#
#
# Indices 1 2 3 4 5 6 
#
# 1 0.033042 -0.006988 0.001715 0.000000 0.000209 0.000000
# 2 -0.006988 0.006800 -0.002543 0.000000 0.003964 0.000000
# 3 0.001715 -0.002543 0.023756 0.000000 0.013773 0.000000
# 4 0.000000 0.000000 0.000000 0.035844 0.000000 0.005231
# 5 0.000209 0.003964 0.013773 0.000000 0.047094 0.000000
# 6 0.000000 0.000000 0.000000 0.005231 0.000000 0.022491
#
#
# Mechanical properties :
#
#
# Convention : Reuss Voigt Hill
#
# Bulk Modulus (GPa) = 20.84811 56.04874 38.44843
# Shear Modulus (GPa) = 24.91943 36.51821 30.71882
#
# Velocity S-wave (km/s) = 3.24791 3.93179 3.60610
# Velocity P-wave (km/s) = 4.78442 6.65872 5.79782
#
# Compressibility (1/GPa) = 0.04796598
#
# Stress axis : x y z
#
# Youngs Moduli (GPa) = 30.26483 147.06325 42.09432
#
# Poissons Ratio (x) = 1.02766 -0.07220
# Poissons Ratio (y) = 0.21149 0.10705
# Poissons Ratio (z) = -0.05191 0.37400
#
# Static dielectric constant tensor:
#      x y z
#    x 1.883080 0.000000 0.010320 
#    y 0.000000 1.926310 0.000000 
#    z 0.010320 0.000000 2.060520 
# 
# From -- ./inp_files/230208.got.cif
#   From: 2010.05.17/outbox.cif.g08.bks.cpg/sg15_116_cif.got.tgz:230208.got - 2010.06.03 18:47:42.
