data_PCOD9282495
_publ_section_title
;
Structure prediction by ZEFSAII (Michael W. Deem and Ramdas Pophale) SiO2 
 PCOD9282495
Probable space group: C 2/C
;
_chemical_formula_sum "Si O2"
_cell_formula_units_Z 52
_cell_length_a 22.806805
_cell_length_b 14.625518
_cell_length_c 7.910898
_cell_angle_alpha 90.000000
_cell_angle_beta 100.886837
_cell_angle_gamma 90.000000
_cell_volume 2591.277478
_symmetry_space_group_name_H-M "C 2/C"
_symmetry_group_IT_number 15
_symmetry_cell_setting 'monoclinic'
loop_
_space_group_symop_operation_xyz
x,y,z
-x,y,1/2-z
-x,-y,-z
x,-y,1/2+z
1/2+x,1/2+y,z
1/2-x,1/2+y,1/2-z
1/2-x,1/2-y,-z
1/2+x,1/2-y,1/2+z
loop_
_atom_site_type_symbol
_atom_site_label
_atom_site_fract_x
_atom_site_fract_y
_atom_site_fract_z
Si Si1 0.713735 0.917100 0.059707
Si Si2 0.500000 0.451805 0.750000
Si Si3 0.500000 0.954396 0.250000
Si Si4 0.700381 0.326483 0.115498
Si Si5 0.233173 0.626111 0.182506
Si Si6 0.927091 0.393811 0.505330
Si Si7 0.572111 0.603922 0.587719
Si Si8 0.500000 0.250209 0.250000
O O1 0.747998 0.863103 0.228673
O O2 0.714845 0.026282 0.100091
O O3 0.741406 0.892084 0.889140
O O4 0.643796 0.892137 0.020228
O O5 0.543949 0.514989 0.661812
O O6 0.455610 0.394550 0.612443
O O7 0.453583 0.896805 0.332899
O O8 0.543249 0.017925 0.387316
O O9 0.691625 0.217423 0.144492
O O10 0.642558 0.386408 0.126535
O O11 0.716002 0.343114 0.925770
O O12 0.957601 0.310103 0.612935
O O13 0.543854 0.687816 0.668250
#
# Coordination Sequence:
#
# PCOD9282495 Si02
#       8
#     8   4   4   8   8   8   8   4
#     4  12  23  44  70  97 134 183 218 281 338 398
#     4   9  22  42  68  93 116 172 224 263 334 393
#     4   9  20  36  58  89 124 170 214 251 304 382
#     4  11  26  45  67 102 136 176 223 285 330 402
#     4  11  25  43  63 104 136 176 228 263 345 393
#     4  10  21  39  62  93 127 169 215 259 321 396
#     4  10  22  44  65  92 128 164 217 278 326 393
#     4  10  22  42  60  94 132 168 208 274 328 381
#
# _framework density 20.067321
#
# number of rings (size 3 to 8) (size 9 to 14) (size 15 to 20)
#    0.000    1.538    1.538    2.308    2.154    3.077 
#   13.846    0.000    0.000    0.000    0.000    0.000 
#    0.000    0.000    0.000    0.000    0.000    0.000 
#
# Total GULP energy -144955.231150 kJ/mol
# GULP energy per Si atom -5575.201198 kJ/mol
# Density = 2.002165 g / cm^3
# Si number density = 20.067321 Si / 1000 Ang^3
#
#
#
# Elastic Constant Matrix: (Units=GPa)
#
#
# Indices 1 2 3 4 5 6 
#
# 1 111.1979 16.1221 49.9620 0.0000 8.7200 0.0000
# 2 16.1221 127.1912 44.8527 0.0000 22.5191 0.0000
# 3 49.9620 44.8527 119.4341 0.0000 -7.0574 0.0000
# 4 0.0000 0.0000 0.0000 -20.3563 0.0000 -17.2782
# 5 8.7200 22.5191 -7.0574 0.0000 42.6670 0.0000
# 6 0.0000 0.0000 0.0000 -17.2782 0.0000 36.3397
#
#
#
# Elastic Compliance Matrix: (Units=1/GPa)
#
#
# Indices 1 2 3 4 5 6 
#
# 1 0.011613 0.001169 -0.005528 0.000000 -0.003905 0.000000
# 2 0.001169 0.010605 -0.004864 0.000000 -0.006640 0.000000
# 3 -0.005528 -0.004864 0.012856 0.000000 0.005823 0.000000
# 4 0.000000 0.000000 0.000000 -0.035000 0.000000 -0.016641
# 5 -0.003905 -0.006640 0.005823 0.000000 0.028703 0.000000
# 6 0.000000 0.000000 0.000000 -0.016641 0.000000 0.019606
#
#
# Mechanical properties :
#
#
# Convention : Reuss Voigt Hill
#
# Bulk Modulus (GPa) = 60.13886 64.41076 62.27481
# Shear Modulus (GPa) = 69.08752 28.18918 48.63835
#
# Velocity S-wave (km/s) = 5.87389 3.75204 4.92851
# Velocity P-wave (km/s) = 8.71993 7.13705 7.96789
#
# Compressibility (1/GPa) = 0.01662818
#
# Stress axis : x y z
#
# Youngs Moduli (GPa) = 86.10764 94.29580 77.78566
#
# Poissons Ratio (x) = -0.11019 0.42997
# Poissons Ratio (y) = -0.10062 0.37834
# Poissons Ratio (z) = 0.47598 0.45864
#
# Static dielectric constant tensor:
#      x y z
#    x 1.644420 0.000000 -0.040860 
#    y 0.000000 1.781850 0.000000 
#    z -0.040860 0.000000 1.744900 
# 
# From -- ./inp_files/55409.got.cif
#   From: 2010.05.17/outbox.cif.g08.bks.cpg/sg15_28_cif.got.tgz:55409.got - 2010.06.03 18:47:42.
