data_PCOD9282119
_publ_section_title
;
Structure prediction by ZEFSAII (Michael W. Deem and Ramdas Pophale) SiO2 
 PCOD9282119
Probable space group: C 2/C
;
_chemical_formula_sum "Si O2"
_cell_formula_units_Z 48
_cell_length_a 23.356655
_cell_length_b 10.523199
_cell_length_c 29.800953
_cell_angle_alpha 90.000000
_cell_angle_beta 16.152129
_cell_angle_gamma 90.000000
_cell_volume 2037.642690
_symmetry_space_group_name_H-M "C 2/C"
_symmetry_group_IT_number 15
_symmetry_cell_setting 'monoclinic'
loop_
_space_group_symop_operation_xyz
x,y,z
-x,y,1/2-z
-x,-y,-z
x,-y,1/2+z
1/2+x,1/2+y,z
1/2-x,1/2+y,1/2-z
1/2-x,1/2-y,-z
1/2+x,1/2-y,1/2+z
loop_
_atom_site_type_symbol
_atom_site_label
_atom_site_fract_x
_atom_site_fract_y
_atom_site_fract_z
Si Si1 0.267586 0.534324 0.161044
Si Si2 0.953118 0.865856 0.435201
Si Si3 0.787339 0.785768 0.724472
Si Si4 0.217548 0.864439 0.088284
Si Si5 0.241761 0.261503 0.154310
Si Si6 0.494979 0.525788 0.186615
O O1 0.202721 0.605919 0.254767
O O2 0.162357 0.403105 0.225956
O O3 0.500000 0.500000 0.000000
O O4 0.297193 0.619309 0.094332
O O5 0.885586 0.742733 0.457334
O O6 0.176177 0.838884 0.288226
O O7 0.954691 0.986133 0.401761
O O8 0.716431 0.801278 0.828581
O O9 0.034642 0.774782 0.536858
O O10 0.000000 0.790114 0.250000
O O11 0.198305 0.940814 0.149535
O O12 0.180231 0.972784 0.078609
O O13 0.076781 0.170539 0.254847
#
# Coordination Sequence:
#
# PCOD9282119 Si02
#       6
#     8   8   8   8   8   8
#     4  10  21  39  55  96 138 170 209 260 337 410
#     4  12  19  40  66  94 136 171 219 283 326 395
#     4  11  23  36  64  98 136 172 219 263 343 398
#     4   8  22  40  62  97 123 168 235 276 321 371
#     4  11  23  41  61  95 141 178 211 268 337 409
#     4   9  21  38  65  87 129 172 225 273 322 387
#
# _framework density 23.556632
#
# number of rings (size 3 to 8) (size 9 to 14) (size 15 to 20)
#    1.000    0.667    3.333    3.500    0.000    2.000 
#    0.000    0.000    3.667   13.000    0.000    0.000 
#    0.000    0.000    0.000    0.000    0.000    0.000 
#
# Total GULP energy -133727.520256 kJ/mol
# GULP energy per Si atom -5571.980011 kJ/mol
# Density = 2.350302 g / cm^3
# Si number density = 23.556632 Si / 1000 Ang^3
#
#
#
# Elastic Constant Matrix: (Units=GPa)
#
#
# Indices 1 2 3 4 5 6 
#
# 1 65.4231 26.9593 10.8906 0.0992 8.5556 0.0066
# 2 26.9593 110.2056 15.6875 0.0773 -6.6194 0.0513
# 3 10.8906 15.6875 45.7729 0.1960 -3.9876 0.0495
# 4 0.0992 0.0773 0.1960 30.1018 0.0996 -1.9175
# 5 8.5556 -6.6194 -3.9876 0.0996 30.7019 0.0221
# 6 0.0066 0.0513 0.0495 -1.9175 0.0221 35.1844
#
#
#
# Elastic Compliance Matrix: (Units=1/GPa)
#
#
# Indices 1 2 3 4 5 6 
#
# 1 0.018552 -0.004440 -0.003465 -0.000005 -0.006577 0.000012
# 2 -0.004440 0.010685 -0.002323 -0.000009 0.003239 -0.000014
# 3 -0.003465 -0.002323 0.023778 -0.000152 0.003554 -0.000040
# 4 -0.000005 -0.000009 -0.000152 0.033338 -0.000130 0.001817
# 5 -0.006577 0.003239 0.003554 -0.000130 0.035564 -0.000038
# 6 0.000012 -0.000014 -0.000040 0.001817 -0.000038 0.028521
#
#
# Mechanical properties :
#
#
# Convention : Reuss Voigt Hill
#
# Bulk Modulus (GPa) = 30.71473 36.49739 33.60606
# Shear Modulus (GPa) = 27.51057 30.38857 28.94957
#
# Velocity S-wave (km/s) = 3.42109 3.59558 3.50942
# Velocity P-wave (km/s) = 5.35463 5.72405 5.54242
#
# Compressibility (1/GPa) = 0.03255767
#
# Stress axis : x y z
#
# Youngs Moduli (GPa) = 53.90339 93.58538 42.05565
#
# Poissons Ratio (x) = 0.41552 0.14573
# Poissons Ratio (y) = 0.23933 0.09772
# Poissons Ratio (z) = 0.18679 0.21745
#
# Static dielectric constant tensor:
#      x y z
#    x 1.917990 0.000000 0.012280 
#    y 0.000000 1.974230 0.000020 
#    z 0.012280 0.000020 1.939460 
# 
# From -- ./inp_files/300907.got.cif
#   From: 2010.05.17/outbox.cif.g08.bks.cpg/sg15_151_cif.got.tgz:300907.got - 2010.06.03 18:47:42.
