data_PCOD9282536
_publ_section_title
;
Structure prediction by ZEFSAII (Michael W. Deem and Ramdas Pophale) SiO2 
 PCOD9282536
Probable space group: C 2/C
;
_chemical_formula_sum "Si O2"
_cell_formula_units_Z 64
_cell_length_a 18.998281
_cell_length_b 21.395422
_cell_length_c 10.003719
_cell_angle_alpha 90.000000
_cell_angle_beta 131.928825
_cell_angle_gamma 90.000000
_cell_volume 3025.208174
_symmetry_space_group_name_H-M "C 2/C"
_symmetry_group_IT_number 15
_symmetry_cell_setting 'monoclinic'
loop_
_space_group_symop_operation_xyz
x,y,z
-x,y,1/2-z
-x,-y,-z
x,-y,1/2+z
1/2+x,1/2+y,z
1/2-x,1/2+y,1/2-z
1/2-x,1/2-y,-z
1/2+x,1/2-y,1/2+z
loop_
_atom_site_type_symbol
_atom_site_label
_atom_site_fract_x
_atom_site_fract_y
_atom_site_fract_z
Si Si1 0.635618 0.276884 0.205578
Si Si2 0.364763 0.755840 0.496184
Si Si3 0.990883 0.450033 0.377950
Si Si4 0.853109 0.137804 0.296770
Si Si5 0.643040 0.846924 0.229297
Si Si6 0.637179 0.378383 0.998101
Si Si7 0.629698 0.165431 0.000442
Si Si8 0.066747 0.016567 0.961486
O O1 0.601810 0.263601 0.313831
O O2 0.751094 0.270563 0.361920
O O3 0.601208 0.339356 0.083207
O O4 0.608721 0.220086 0.075706
O O5 0.382775 0.698747 0.417794
O O6 0.398997 0.816917 0.458057
O O7 0.066429 0.393947 0.459653
O O8 0.000000 0.484548 0.250000
O O9 0.000000 0.500000 0.500000
O O10 0.893698 0.415368 0.283985
O O11 0.739244 0.145159 0.143086
O O12 0.875215 0.076310 0.412563
O O13 0.894318 0.133935 0.196862
O O14 0.755195 0.853440 0.365118
O O15 0.614448 0.810777 0.328966
O O16 0.624711 0.452699 0.003762
O O17 0.000000 0.031316 0.750000
O O18 0.000000 0.000000 0.000000
#
# Coordination Sequence:
#
# PCOD9282536 Si02
#       8
#     8   8   8   8   8   8   8   8
#     4   9  18  34  59  91 118 147 195 245 290 345
#     4   9  18  34  59  91 117 148 195 245 291 343
#     4  10  22  38  56  86 123 153 192 238 282 341
#     4  10  21  39  63  84 116 159 197 237 299 357
#     4   9  19  38  61  87 119 157 197 236 289 355
#     4  10  21  39  63  84 115 160 197 238 299 355
#     4   9  19  38  61  87 118 158 196 236 290 355
#     4  12  26  44  58  85 121 153 202 256 301 359
#
# _framework density 21.155569
#
# number of rings (size 3 to 8) (size 9 to 14) (size 15 to 20)
#    0.000    2.250    1.250    0.750    3.500    4.000 
#    2.250    0.625    0.000    0.000    0.000    0.000 
#    0.000    0.000    0.000    0.000    0.000    0.000 
#
# Total GULP energy -178408.981358 kJ/mol
# GULP energy per Si atom -5575.280667 kJ/mol
# Density = 2.110742 g / cm^3
# Si number density = 21.155569 Si / 1000 Ang^3
#
#
#
# Elastic Constant Matrix: (Units=GPa)
#
#
# Indices 1 2 3 4 5 6 
#
# 1 50.5667 4.0061 33.8763 0.0000 -26.2963 0.0000
# 2 4.0061 72.4735 56.2409 0.0000 -25.9504 0.0000
# 3 33.8763 56.2409 147.6979 0.0000 -44.9614 0.0000
# 4 0.0000 0.0000 0.0000 37.7652 0.0000 -14.4578
# 5 -26.2963 -25.9504 -44.9614 0.0000 40.7237 0.0000
# 6 0.0000 0.0000 0.0000 -14.4578 0.0000 4.2477
#
#
#
# Elastic Compliance Matrix: (Units=1/GPa)
#
#
# Indices 1 2 3 4 5 6 
#
# 1 0.034232 0.010029 -0.004513 0.000000 0.023513 0.000000
# 2 0.010029 0.023696 -0.007163 0.000000 0.013668 0.000000
# 3 -0.004513 -0.007163 0.012436 0.000000 0.006252 0.000000
# 4 0.000000 0.000000 0.000000 -0.087378 0.000000 -0.297406
# 5 0.023513 0.013668 0.006252 0.000000 0.055351 0.000000
# 6 0.000000 0.000000 0.000000 -0.297406 0.000000 -0.776853
#
#
# Mechanical properties :
#
#
# Convention : Reuss Voigt Hill
#
# Bulk Modulus (GPa) = 14.90940 50.99829 32.95385
# Shear Modulus (GPa) = -7.01395 28.32163 10.65384
#
# Velocity S-wave (km/s) = -1.82280 3.66284 2.24653
# Velocity P-wave (km/s) = 1.62255 6.48438 4.72651
#
# Compressibility (1/GPa) = 0.06707177
#
# Stress axis : x y z
#
# Youngs Moduli (GPa) = 29.21240 42.20083 80.40973
#
# Poissons Ratio (x) = -0.42323 0.36286
# Poissons Ratio (y) = -0.29297 0.57595
# Poissons Ratio (z) = 0.13183 0.30227
#
# Static dielectric constant tensor:
#      x y z
#    x 1.805500 0.000000 -0.001240 
#    y 0.000000 1.437810 0.000000 
#    z -0.001240 0.000000 1.752290 
# 
# From -- ./inp_files/57886.got.cif
#   From: 2010.05.17/outbox.cif.g08.bks.cpg/sg15_29_cif.got.tgz:57886.got - 2010.06.03 18:47:42.
