data_PCOD9282773
_publ_section_title
;
Structure prediction by ZEFSAII (Michael W. Deem and Ramdas Pophale) SiO2 
 PCOD9282773
Probable space group: C 2/C
;
_chemical_formula_sum "Si O2"
_cell_formula_units_Z 64
_cell_length_a 16.761103
_cell_length_b 20.631284
_cell_length_c 23.293248
_cell_angle_alpha 90.000000
_cell_angle_beta 22.707774
_cell_angle_gamma 90.000000
_cell_volume 3109.433846
_symmetry_space_group_name_H-M "C 2/C"
_symmetry_group_IT_number 15
_symmetry_cell_setting 'monoclinic'
loop_
_space_group_symop_operation_xyz
x,y,z
-x,y,1/2-z
-x,-y,-z
x,-y,1/2+z
1/2+x,1/2+y,z
1/2-x,1/2+y,1/2-z
1/2-x,1/2-y,-z
1/2+x,1/2-y,1/2+z
loop_
_atom_site_type_symbol
_atom_site_label
_atom_site_fract_x
_atom_site_fract_y
_atom_site_fract_z
Si Si1 0.537931 0.021533 0.376660
Si Si2 0.890301 0.383296 0.185495
Si Si3 0.417287 0.128048 0.364311
Si Si4 0.678724 0.479395 0.704296
Si Si5 0.691674 0.340386 0.654386
Si Si6 0.304059 0.748088 0.804966
Si Si7 0.445503 0.614534 0.694150
Si Si8 0.340469 0.736273 0.644882
O O1 0.482201 0.082754 0.374749
O O2 0.729386 0.032226 0.292901
O O3 0.576759 0.956118 0.314091
O O4 0.358119 0.001953 0.541073
O O5 0.732198 0.392266 0.236440
O O6 0.775994 0.328879 0.298498
O O7 0.108404 0.355681 0.017647
O O8 0.500000 0.098239 0.250000
O O9 0.522788 0.198399 0.298996
O O10 0.171477 0.134987 0.524254
O O11 0.605236 0.409323 0.733816
O O12 0.528885 0.541063 0.800993
O O13 0.500000 0.307132 0.750000
O O14 0.769933 0.297174 0.654732
O O15 0.360798 0.674987 0.787450
O O16 0.283346 0.744539 0.749531
O O17 0.086301 0.768995 0.975562
#
# Coordination Sequence:
#
# PCOD9282773 Si02
#       8
#     8   8   8   8   8   8   8   8
#     4   9  20  39  66  87 126 165 206 263 311 382
#     4   9  20  42  62  88 127 168 205 262 324 377
#     4  12  25  40  59  97 136 171 211 255 314 390
#     4   9  20  39  64  96 116 158 217 264 326 356
#     4  11  22  37  65  96 126 156 213 278 319 373
#     4  11  24  41  66  91 135 175 211 256 315 390
#     4  10  21  39  64  94 126 166 211 265 311 374
#     4  11  21  44  66  92 126 176 212 257 327 384
#
# _framework density 20.582523999999999
#
# number of rings (size 3 to 8) (size 9 to 14) (size 15 to 20)
#    0.000    1.750    2.500    3.375    5.250    0.500 
#    0.000    7.500    0.000    0.000    0.000    0.000 
#    0.000    0.000    0.000    0.000    0.000    0.000 
#
# Total GULP energy -178522.325689 kJ/mol
# GULP energy per Si atom -5578.822678 kJ/mol
# Density = 2.053568 g / cm^3
# Si number density = 20.582524 Si / 1000 Ang^3
#
#
#
# Elastic Constant Matrix: (Units=GPa)
#
#
# Indices 1 2 3 4 5 6 
#
# 1 -144.4007 -271.3004 187.3002 -3.5514 -46.6076 0.0125
# 2 -271.3004 -274.7592 270.9998 -4.6287 -53.7897 -0.0042
# 3 187.3002 270.9998 -85.9439 3.8980 13.3078 0.0659
# 4 -3.5514 -4.6287 3.8980 -4.8228 -0.5871 -13.4583
# 5 -46.6076 -53.7897 13.3078 -0.5871 20.0535 -0.0105
# 6 0.0125 -0.0042 0.0659 -13.4583 -0.0105 -1.4745
#
#
#
# Elastic Compliance Matrix: (Units=1/GPa)
#
#
# Indices 1 2 3 4 5 6 
#
# 1 0.012149 -0.006565 0.006728 -0.000040 0.006161 0.000746
# 2 -0.006565 0.005292 0.002007 -0.000064 -0.002396 0.000621
# 3 0.006728 0.002007 0.011437 0.000023 0.013432 0.000252
# 4 -0.000040 -0.000064 0.000023 0.008469 -0.000074 -0.077296
# 5 0.006161 -0.002396 0.013432 -0.000074 0.048843 0.000984
# 6 0.000746 0.000621 0.000252 -0.077296 0.000984 0.027318
#
#
# Mechanical properties :
#
#
# Convention : Reuss Voigt Hill
#
# Bulk Modulus (GPa) = 30.10362 -14.56719 7.76822
# Shear Modulus (GPa) = 41.58337 -43.38900 -0.90282
#
# Velocity S-wave (km/s) = 4.49968 -4.59633 -0.66301
# Velocity P-wave (km/s) = 6.45397 5.93811 1.78781
#
# Compressibility (1/GPa) = 0.03321860
#
# Stress axis : x y z
#
# Youngs Moduli (GPa) = 82.31391 188.96189 87.43564
#
# Poissons Ratio (x) = 1.24049 -0.58830
# Poissons Ratio (y) = 0.54037 -0.17547
# Poissons Ratio (z) = -0.55384 -0.37922
#
# Static dielectric constant tensor:
#      x y z
#    x 1.768050 0.000000 -0.007860 
#    y 0.000000 1.802200 0.000050 
#    z -0.007860 0.000050 1.718270 
# 
# From -- ./inp_files/278124.got.cif
#   From: 2010.05.17/outbox.cif.g08.bks.cpg/sg15_140_cif.got.tgz:278124.got - 2010.06.03 18:47:42.
