data_PCOD9282263
_publ_section_title
;
Structure prediction by ZEFSAII (Michael W. Deem and Ramdas Pophale) SiO2 
 PCOD9282263
Probable space group: C 2/C
;
_chemical_formula_sum "Si O2"
_cell_formula_units_Z 64
_cell_length_a 14.189384
_cell_length_b 14.993740
_cell_length_c 23.592704
_cell_angle_alpha 90.000000
_cell_angle_beta 38.886055
_cell_angle_gamma 90.000000
_cell_volume 3151.042802
_symmetry_space_group_name_H-M "C 2/C"
_symmetry_group_IT_number 15
_symmetry_cell_setting 'monoclinic'
loop_
_space_group_symop_operation_xyz
x,y,z
-x,y,1/2-z
-x,-y,-z
x,-y,1/2+z
1/2+x,1/2+y,z
1/2-x,1/2+y,1/2-z
1/2-x,1/2-y,-z
1/2+x,1/2-y,1/2+z
loop_
_atom_site_type_symbol
_atom_site_label
_atom_site_fract_x
_atom_site_fract_y
_atom_site_fract_z
Si Si1 0.279582 0.680092 0.259821
Si Si2 0.386670 0.316335 0.920955
Si Si3 0.166939 0.264119 0.695917
Si Si4 0.189877 0.397953 0.918523
Si Si5 0.418541 0.484355 0.977381
Si Si6 0.305302 0.526157 0.708143
Si Si7 0.850311 0.404187 0.111720
Si Si8 0.675795 0.959016 0.658979
O O1 0.449404 0.719061 0.175328
O O2 0.177371 0.726369 0.259652
O O3 0.213657 0.669018 0.353873
O O4 0.292456 0.576139 0.235203
O O5 0.321751 0.377300 0.900683
O O6 0.418805 0.381609 0.958774
O O7 0.250000 0.250000 0.000000
O O8 0.263367 0.181311 0.629418
O O9 0.231627 0.358598 0.644241
O O10 0.000000 0.255002 0.750000
O O11 0.189383 0.501548 0.899354
O O12 0.027035 0.386238 0.023516
O O13 0.517443 0.539224 0.885638
O O14 0.500000 0.500000 0.000000
O O15 0.246651 0.512458 0.066501
O O16 0.213664 0.583772 0.795018
O O17 0.230802 0.526825 0.681437
O O18 0.500000 0.955276 0.750000
#
# Coordination Sequence:
#
# PCOD9282263 Si02
#       8
#     8   8   8   8   8   8   8   8
#     4   9  19  40  59  85 124 161 204 253 318 378
#     4  11  22  38  65  92 126 165 209 263 323 383
#     4  10  21  39  62  86 121 164 203 258 313 363
#     4  10  22  39  64  89 125 167 203 258 326 381
#     4   9  19  37  58  87 119 163 205 254 317 382
#     4   8  17  34  59  78 114 160 195 247 312 364
#     4  10  21  39  60  89 125 157 212 262 306 379
#     4   9  18  34  57  82 118 155 201 251 302 367
#
# _framework density 20.310737
#
# number of rings (size 3 to 8) (size 9 to 14) (size 15 to 20)
#    0.000    2.500    0.000    1.875    1.750    3.000 
#    9.000    0.625    0.000    0.000    0.000    0.000 
#    0.000    0.000    0.000    0.000    0.000    0.000 
#
# Total GULP energy -178223.687399 kJ/mol
# GULP energy per Si atom -5569.490231 kJ/mol
# Density = 2.026451 g / cm^3
# Si number density = 20.310737 Si / 1000 Ang^3
#
#
#
# Elastic Constant Matrix: (Units=GPa)
#
#
# Indices 1 2 3 4 5 6 
#
# 1 88.1939 14.9200 36.5916 0.0000 -14.8069 0.0000
# 2 14.9200 47.4951 38.8883 0.0000 -10.0762 0.0000
# 3 36.5916 38.8883 159.8690 -0.0002 -11.8616 0.0000
# 4 0.0000 0.0000 -0.0002 18.9791 0.0000 -7.7980
# 5 -14.8069 -10.0762 -11.8616 0.0000 23.1518 0.0000
# 6 0.0000 0.0000 0.0000 -7.7980 0.0000 22.6679
#
#
#
# Elastic Compliance Matrix: (Units=1/GPa)
#
#
# Indices 1 2 3 4 5 6 
#
# 1 0.013675 -0.000810 -0.002401 0.000000 0.007163 0.000000
# 2 -0.000810 0.028048 -0.005998 0.000000 0.008616 0.000000
# 3 -0.002401 -0.005998 0.008271 0.000000 0.000091 0.000000
# 4 0.000000 0.000000 0.000000 0.061363 0.000000 0.021110
# 5 0.007163 0.008616 0.000091 0.000000 0.051571 0.000000
# 6 0.000000 0.000000 0.000000 0.021110 0.000000 0.051377
#
#
# Mechanical properties :
#
#
# Convention : Reuss Voigt Hill
#
# Bulk Modulus (GPa) = 31.67091 52.92863 42.29977
# Shear Modulus (GPa) = 20.55514 26.63697 23.59606
#
# Velocity S-wave (km/s) = 3.18470 3.62535 3.41215
# Velocity P-wave (km/s) = 5.39908 6.60608 6.03284
#
# Compressibility (1/GPa) = 0.03157472
#
# Stress axis : x y z
#
# Youngs Moduli (GPa) = 73.12837 35.65267 120.91038
#
# Poissons Ratio (x) = 0.02887 0.29036
# Poissons Ratio (y) = 0.05922 0.72524
# Poissons Ratio (z) = 0.17562 0.21385
#
# Static dielectric constant tensor:
#      x y z
#    x 1.755570 0.000000 -0.005170 
#    y 0.000000 1.732970 0.000000 
#    z -0.005170 0.000000 1.805150 
# 
# From -- ./inp_files/274307.got.cif
#   From: 2010.05.17/outbox.cif.g08.bks.cpg/sg15_138_cif.got.tgz:274307.got - 2010.06.03 18:47:42.
