data_PCOD9282392
_publ_section_title
;
Structure prediction by ZEFSAII (Michael W. Deem and Ramdas Pophale) SiO2 
 PCOD9282392
Probable space group: C 2/C
;
_chemical_formula_sum "Si O2"
_cell_formula_units_Z 48
_cell_length_a 5.728871
_cell_length_b 23.037860
_cell_length_c 24.256660
_cell_angle_alpha 90.000000
_cell_angle_beta 129.079270
_cell_angle_gamma 90.000000
_cell_volume 2485.178117
_symmetry_space_group_name_H-M "C 2/C"
_symmetry_group_IT_number 15
_symmetry_cell_setting 'monoclinic'
loop_
_space_group_symop_operation_xyz
x,y,z
-x,y,1/2-z
-x,-y,-z
x,-y,1/2+z
1/2+x,1/2+y,z
1/2-x,1/2+y,1/2-z
1/2-x,1/2-y,-z
1/2+x,1/2-y,1/2+z
loop_
_atom_site_type_symbol
_atom_site_label
_atom_site_fract_x
_atom_site_fract_y
_atom_site_fract_z
Si Si1 0.626695 0.262139 0.328106
Si Si2 0.190486 0.864908 0.170540
Si Si3 0.874803 0.679788 0.075271
Si Si4 0.950199 0.455398 0.575983
Si Si5 0.321004 0.719226 0.937622
Si Si6 0.490920 0.513422 0.591745
O O1 0.500000 0.245389 0.250000
O O2 0.530610 0.328510 0.323692
O O3 0.511292 0.214402 0.354306
O O4 0.977936 0.264233 0.392414
O O5 0.500000 0.865718 0.250000
O O6 0.185912 0.824202 0.115645
O O7 0.096101 0.928609 0.138428
O O8 0.967029 0.613512 0.087248
O O9 0.013515 0.719081 0.047200
O O10 0.514730 0.685397 0.012189
O O11 0.779595 0.482818 0.604538
O O12 0.726714 0.468724 0.491462
O O13 0.276186 0.478598 0.603164
#
# Coordination Sequence:
#
# PCOD9282392 Si02
#       6
#     8   8   8   8   8   8
#     4  11  23  37  64  92 127 169 207 269 335 389
#     4  11  22  39  63  90 126 163 211 273 320 378
#     4  10  22  38  63  93 128 163 213 269 316 395
#     4  10  22  41  63  92 125 168 207 266 313 374
#     4  10  21  39  61  96 120 163 213 259 332 383
#     4  10  23  39  65  92 123 166 217 256 318 375
#
# _framework density 19.314509000000001
#
# number of rings (size 3 to 8) (size 9 to 14) (size 15 to 20)
#    0.000    1.667    3.333    0.500    4.667    1.333 
#    0.000    0.833    3.667    0.000    0.000    0.000 
#    0.000    0.000    0.000    0.000    0.000    0.000 
#
# Total GULP energy -133646.528033 kJ/mol
# GULP energy per Si atom -5568.605335 kJ/mol
# Density = 1.927055 g / cm^3
# Si number density = 19.314509 Si / 1000 Ang^3
#
#
#
# Elastic Constant Matrix: (Units=GPa)
#
#
# Indices 1 2 3 4 5 6 
#
# 1 99.7175 63.3550 30.5555 0.0000 9.0976 0.0000
# 2 63.3550 169.6887 36.8996 0.0000 -1.3413 0.0000
# 3 30.5555 36.8996 76.3032 0.0000 -3.3102 0.0000
# 4 0.0000 0.0000 0.0000 23.7753 0.0000 -2.4154
# 5 9.0976 -1.3413 -3.3102 0.0000 26.8771 0.0000
# 6 0.0000 0.0000 0.0000 -2.4154 0.0000 27.6492
#
#
#
# Elastic Compliance Matrix: (Units=1/GPa)
#
#
# Indices 1 2 3 4 5 6 
#
# 1 0.014719 -0.004699 -0.003869 0.000000 -0.005693 0.000000
# 2 -0.004699 0.008086 -0.001953 0.000000 0.001754 0.000000
# 3 -0.003869 -0.001953 0.015736 0.000000 0.003150 0.000000
# 4 0.000000 0.000000 0.000000 0.042437 0.000000 0.003707
# 5 -0.005693 0.001754 0.003150 0.000000 0.039609 0.000000
# 6 0.000000 0.000000 0.000000 0.003707 0.000000 0.036491
#
#
# Mechanical properties :
#
#
# Convention : Reuss Voigt Hill
#
# Bulk Modulus (GPa) = 57.14308 67.48106 62.31207
# Shear Modulus (GPa) = 27.18109 29.98696 28.58402
#
# Velocity S-wave (km/s) = 3.75545 3.94453 3.85115
# Velocity P-wave (km/s) = 6.96092 7.46724 7.21852
#
# Compressibility (1/GPa) = 0.01749993
#
# Stress axis : x y z
#
# Youngs Moduli (GPa) = 67.94076 123.66971 63.54998
#
# Poissons Ratio (x) = 0.58114 0.24585
# Poissons Ratio (y) = 0.31926 0.12408
# Poissons Ratio (z) = 0.26284 0.24147
#
# Static dielectric constant tensor:
#      x y z
#    x 1.852190 0.000000 0.037520 
#    y 0.000000 1.636680 0.000000 
#    z 0.037520 0.000000 1.736580 
# 
# From -- ./inp_files/227292.got.cif
#   From: 2010.05.17/outbox.cif.g08.bks.cpg/sg15_114_cif.got.tgz:227292.got - 2010.06.03 18:47:42.
