data_PCOD9282851
_publ_section_title
;
Structure prediction by ZEFSAII (Michael W. Deem and Ramdas Pophale) SiO2 
 PCOD9282851
Probable space group: C 2/C
;
_chemical_formula_sum "Si O2"
_cell_formula_units_Z 48
_cell_length_a 8.673584
_cell_length_b 19.251855
_cell_length_c 13.698994
_cell_angle_alpha 90.000000
_cell_angle_beta 68.340580
_cell_angle_gamma 90.000000
_cell_volume 2125.983112
_symmetry_space_group_name_H-M "C 2/C"
_symmetry_group_IT_number 15
_symmetry_cell_setting 'monoclinic'
loop_
_space_group_symop_operation_xyz
x,y,z
-x,y,1/2-z
-x,-y,-z
x,-y,1/2+z
1/2+x,1/2+y,z
1/2-x,1/2+y,1/2-z
1/2-x,1/2-y,-z
1/2+x,1/2-y,1/2+z
loop_
_atom_site_type_symbol
_atom_site_label
_atom_site_fract_x
_atom_site_fract_y
_atom_site_fract_z
Si Si1 0.317075 0.451981 0.342728
Si Si2 0.936735 0.342288 0.157528
Si Si3 0.309425 0.400949 0.768300
Si Si4 0.325827 0.752933 0.737276
Si Si5 0.288813 0.322120 0.044277
Si Si6 0.412300 0.425955 0.533659
O O1 0.500000 0.446652 0.250000
O O2 0.183561 0.407459 0.315861
O O3 0.268707 0.533045 0.345655
O O4 0.322848 0.419383 0.450005
O O5 0.822757 0.275487 0.157394
O O6 0.000000 0.323171 0.250000
O O7 0.112238 0.359871 0.067386
O O8 0.500000 0.383770 0.750000
O O9 0.210135 0.329562 0.795051
O O10 0.302638 0.426004 0.656783
O O11 0.500000 0.751143 0.750000
O O12 0.327785 0.699984 0.646460
O O13 0.250000 0.250000 0.000000
O O14 0.445612 0.368579 0.980587
O O15 0.500000 0.500000 0.500000
#
# Coordination Sequence:
#
# PCOD9282851 Si02
#       6
#     8   8   8   8   8   8
#     4  11  22  40  68  93 132 177 218 271 334 397
#     4  10  21  39  65  91 124 166 221 264 328 398
#     4  11  23  41  66  92 135 171 219 273 331 393
#     4  11  23  41  64  94 129 172 220 273 336 393
#     4  11  24  41  69  94 133 170 219 275 335 400
#     4  12  23  42  68 100 129 180 224 269 337 406
#
# _framework density 22.577791000000001
#
# number of rings (size 3 to 8) (size 9 to 14) (size 15 to 20)
#    0.000    1.000    3.333    7.000    0.000    2.000 
#    0.000    4.167    0.000    0.000    0.000    0.000 
#    0.000    0.000    0.000    0.000    0.000    0.000 
#
# Total GULP energy -133972.099538 kJ/mol
# GULP energy per Si atom -5582.170814 kJ/mol
# Density = 2.252640 g / cm^3
# Si number density = 22.577791 Si / 1000 Ang^3
#
#
#
# Elastic Constant Matrix: (Units=GPa)
#
#
# Indices 1 2 3 4 5 6 
#
# 1 128.4597 56.5382 4.7512 0.0000 11.2741 0.0000
# 2 56.5382 113.2417 10.8703 0.0000 -4.5815 0.0000
# 3 4.7512 10.8703 64.4953 0.0000 17.6373 0.0000
# 4 0.0000 0.0000 0.0000 32.4394 0.0000 4.9261
# 5 11.2741 -4.5815 17.6373 0.0000 18.1282 0.0000
# 6 0.0000 0.0000 0.0000 4.9261 0.0000 41.8207
#
#
#
# Elastic Compliance Matrix: (Units=1/GPa)
#
#
# Indices 1 2 3 4 5 6 
#
# 1 0.011705 -0.006709 0.003710 0.000000 -0.012584 0.000000
# 2 -0.006709 0.013181 -0.005149 0.000000 0.012513 0.000000
# 3 0.003710 -0.005149 0.023280 0.000000 -0.026258 0.000000
# 4 0.000000 0.000000 0.000000 0.031388 0.000000 -0.003697
# 5 -0.012584 0.012513 -0.026258 0.000000 0.091698 0.000000
# 6 0.000000 0.000000 0.000000 -0.003697 0.000000 0.024347
#
#
# Mechanical properties :
#
#
# Convention : Reuss Voigt Hill
#
# Bulk Modulus (GPa) = 31.37863 50.05735 40.71799
# Shear Modulus (GPa) = 22.46996 34.08012 28.27504
#
# Velocity S-wave (km/s) = 3.15814 3.88938 3.54268
# Velocity P-wave (km/s) = 5.21792 6.51068 5.89981
#
# Compressibility (1/GPa) = 0.03186882
#
# Stress axis : x y z
#
# Youngs Moduli (GPa) = 85.43699 75.86785 42.95467
#
# Poissons Ratio (x) = 0.50899 -0.15935
# Poissons Ratio (y) = 0.57319 0.22119
# Poissons Ratio (z) = -0.31696 0.39067
#
# Static dielectric constant tensor:
#      x y z
#    x 1.830710 0.000000 -0.032630 
#    y 0.000000 1.884890 0.000000 
#    z -0.032630 0.000000 2.062100 
# 
# From -- ./inp_files/135905.got.cif
#   From: 2010.05.17/outbox.cif.g08.bks.cpg/sg15_68_cif.got.tgz:135905.got - 2010.06.03 18:47:42.
