data_PCOD9282970
_publ_section_title
;
Structure prediction by ZEFSAII (Michael W. Deem and Ramdas Pophale) SiO2 
 PCOD9282970
Probable space group: C 2/C
;
_chemical_formula_sum "Si O2"
_cell_formula_units_Z 52
_cell_length_a 27.119788
_cell_length_b 9.422913
_cell_length_c 13.487115
_cell_angle_alpha 90.000000
_cell_angle_beta 132.679843
_cell_angle_gamma 90.000000
_cell_volume 2533.776729
_symmetry_space_group_name_H-M "C 2/C"
_symmetry_group_IT_number 15
_symmetry_cell_setting 'monoclinic'
loop_
_space_group_symop_operation_xyz
x,y,z
-x,y,1/2-z
-x,-y,-z
x,-y,1/2+z
1/2+x,1/2+y,z
1/2-x,1/2+y,1/2-z
1/2-x,1/2-y,-z
1/2+x,1/2-y,1/2+z
loop_
_atom_site_type_symbol
_atom_site_label
_atom_site_fract_x
_atom_site_fract_y
_atom_site_fract_z
Si Si1 0.408260 0.659376 0.454283
Si Si2 0.817878 0.609396 0.944378
Si Si3 0.105430 0.651025 0.260053
Si Si4 0.161993 0.875670 0.182508
Si Si5 0.500000 0.681651 0.750000
Si Si6 0.895999 0.319062 0.047895
Si Si7 0.455996 0.849184 0.341702
O O1 0.357110 0.766843 0.439006
O O2 0.370423 0.529718 0.352470
O O3 0.457977 0.601930 0.608360
O O4 0.447075 0.748760 0.423881
O O5 0.740574 0.615954 0.810549
O O6 0.831741 0.624428 0.081026
O O7 0.851568 0.458308 0.966324
O O8 0.127668 0.763003 0.209088
O O9 0.072493 0.506614 0.174424
O O10 0.049943 0.718247 0.256864
O O11 0.143349 0.814540 0.049272
O O12 0.911886 0.303101 0.186002
O O13 0.967751 0.344674 0.092730
#
# Coordination Sequence:
#
# PCOD9282970 Si02
#       7
#     8   8   8   8   4   8   8
#     4  11  24  39  62  89 123 153 194 251 301 353
#     4  10  22  43  61  85 119 162 205 240 287 356
#     4  10  21  39  66  87 116 156 204 251 289 345
#     4  12  24  38  59  91 125 162 192 238 303 360
#     4  10  22  40  60  90 118 154 198 246 300 346
#     4  10  22  40  65  87 118 157 204 249 288 351
#     4  10  21  41  65  92 113 152 206 253 297 339
#
# _framework density 20.522724
#
# number of rings (size 3 to 8) (size 9 to 14) (size 15 to 20)
#    0.000    1.538    0.000    6.000    0.000    8.000 
#    0.000   10.000    0.000    0.923    0.000    0.000 
#    0.000    0.000    0.000    0.000    0.000    0.000 
#
# Total GULP energy -145380.705090 kJ/mol
# GULP energy per Si atom -5591.565580 kJ/mol
# Density = 2.047601 g / cm^3
# Si number density = 20.522724 Si / 1000 Ang^3
#
#
#
# Elastic Constant Matrix: (Units=GPa)
#
#
# Indices 1 2 3 4 5 6 
#
# 1 65.5962 9.8496 45.1470 0.0000 -2.6976 0.0000
# 2 9.8496 42.9452 19.6731 0.0000 0.3180 0.0000
# 3 45.1470 19.6731 125.0128 0.0000 16.0611 0.0000
# 4 0.0000 0.0000 0.0000 102.2631 0.0000 54.7804
# 5 -2.6976 0.3180 16.0611 0.0000 31.1509 0.0000
# 6 0.0000 0.0000 0.0000 54.7804 0.0000 61.0535
#
#
#
# Elastic Compliance Matrix: (Units=1/GPa)
#
#
# Indices 1 2 3 4 5 6 
#
# 1 0.021414 -0.001133 -0.008348 0.000000 0.006170 0.000000
# 2 -0.001133 0.025261 -0.003770 0.000000 0.001588 0.000000
# 3 -0.008348 -0.003770 0.012525 0.000000 -0.007142 0.000000
# 4 0.000000 0.000000 0.000000 0.018828 0.000000 -0.016894
# 5 0.006170 0.001588 -0.007142 0.000000 0.036302 0.000000
# 6 0.000000 0.000000 0.000000 -0.016894 0.000000 0.031537
#
#
# Mechanical properties :
#
#
# Convention : Reuss Voigt Hill
#
# Bulk Modulus (GPa) = 30.58315 42.54373 36.56344
# Shear Modulus (GPa) = 27.28239 49.48582 38.38411
#
# Velocity S-wave (km/s) = 3.65001 4.91580 4.32941
# Velocity P-wave (km/s) = 5.71821 7.27977 6.54573
#
# Compressibility (1/GPa) = 0.03269774
#
# Stress axis : x y z
#
# Youngs Moduli (GPa) = 46.69817 39.58734 79.84159
#
# Poissons Ratio (x) = 0.04485 0.66651
# Poissons Ratio (y) = 0.05291 0.30101
# Poissons Ratio (z) = 0.38983 0.14925
#
# Static dielectric constant tensor:
#      x y z
#    x 1.702870 0.000000 -0.028200 
#    y 0.000000 1.701020 0.000000 
#    z -0.028200 0.000000 1.780880 
# 
# From -- ./inp_files/181211.got.cif
#   From: 2010.05.17/outbox.cif.g08.bks.cpg/sg15_91_cif.got.tgz:181211.got - 2010.06.03 18:47:42.
