data_PCOD9282387
_publ_section_title
;
Structure prediction by ZEFSAII (Michael W. Deem and Ramdas Pophale) SiO2 
 PCOD9282387
Probable space group: C 2/C
;
_chemical_formula_sum "Si O2"
_cell_formula_units_Z 48
_cell_length_a 7.946953
_cell_length_b 27.324309
_cell_length_c 11.505404
_cell_angle_alpha 90.000000
_cell_angle_beta 94.127708
_cell_angle_gamma 90.000000
_cell_volume 2491.860474
_symmetry_space_group_name_H-M "C 2/C"
_symmetry_group_IT_number 15
_symmetry_cell_setting 'monoclinic'
loop_
_space_group_symop_operation_xyz
x,y,z
-x,y,1/2-z
-x,-y,-z
x,-y,1/2+z
1/2+x,1/2+y,z
1/2-x,1/2+y,1/2-z
1/2-x,1/2-y,-z
1/2+x,1/2-y,1/2+z
loop_
_atom_site_type_symbol
_atom_site_label
_atom_site_fract_x
_atom_site_fract_y
_atom_site_fract_z
Si Si1 0.000000 0.142726 0.750000
Si Si2 0.093404 0.408091 0.941403
Si Si3 0.167940 0.159560 0.187670
Si Si4 0.000000 0.514602 0.250000
Si Si5 0.011802 0.209261 0.528071
Si Si6 0.137197 0.686102 0.077955
Si Si7 0.325767 0.920885 0.289193
O O1 0.032776 0.177171 0.862379
O O2 0.836940 0.108471 0.758817
O O3 0.241284 0.385813 0.868774
O O4 0.010146 0.451771 0.864107
O O5 0.960895 0.363876 0.950685
O O6 0.161747 0.422396 0.070743
O O7 0.293293 0.183349 0.287199
O O8 0.000000 0.144998 0.250000
O O9 0.110656 0.196595 0.084386
O O10 0.843081 0.476681 0.245015
O O11 0.021078 0.266613 0.554849
O O12 0.199665 0.193130 0.495774
O O13 0.500000 0.897042 0.250000
#
# Coordination Sequence:
#
# PCOD9282387 Si02
#       7
#     4   8   8   4   8   8   8
#     4  12  22  43  64  92 136 173 212 264 328 386
#     4  12  20  43  68  90 125 170 207 270 328 381
#     4  10  21  39  61  95 129 163 218 258 312 383
#     4  10  24  43  66  96 124 163 220 276 324 390
#     4  10  23  39  61  95 131 167 210 262 313 392
#     4  10  22  39  65  93 127 169 211 260 321 385
#     4  10  25  43  64  95 128 168 219 271 325 391
#
# _framework density 19.262716000000001
#
# number of rings (size 3 to 8) (size 9 to 14) (size 15 to 20)
#    0.500    1.000    3.333    1.500    2.333    2.000 
#    1.500    4.167    0.000    0.000    0.000    0.000 
#    0.000    0.000    0.000    0.000    0.000    0.000 
#
# Total GULP energy -134028.954546 kJ/mol
# GULP energy per Si atom -5584.539773 kJ/mol
# Density = 1.921887 g / cm^3
# Si number density = 19.262716 Si / 1000 Ang^3
#
#
#
# Elastic Constant Matrix: (Units=GPa)
#
#
# Indices 1 2 3 4 5 6 
#
# 1 58.8318 14.2693 -9.8651 0.0000 -9.1676 0.0000
# 2 14.2693 99.3280 6.0174 0.0000 -2.7714 0.0000
# 3 -9.8651 6.0174 60.5252 0.0000 -10.4262 0.0000
# 4 0.0000 0.0000 0.0000 25.4255 0.0000 -3.7173
# 5 -9.1676 -2.7714 -10.4262 0.0000 24.6173 0.0000
# 6 0.0000 0.0000 0.0000 -3.7173 0.0000 26.1634
#
#
#
# Elastic Compliance Matrix: (Units=1/GPa)
#
#
# Indices 1 2 3 4 5 6 
#
# 1 0.020024 -0.002929 0.005159 0.000000 0.009312 0.000000
# 2 -0.002929 0.010571 -0.001630 0.000000 -0.000591 0.000000
# 3 0.005159 -0.001630 0.019227 0.000000 0.009881 0.000000
# 4 0.000000 0.000000 0.000000 0.040165 0.000000 0.005707
# 5 0.009312 -0.000591 0.009881 0.000000 0.048208 0.000000
# 6 0.000000 0.000000 0.000000 0.005707 0.000000 0.039032
#
#
# Mechanical properties :
#
#
# Convention : Reuss Voigt Hill
#
# Bulk Modulus (GPa) = 19.59958 26.61423 23.10691
# Shear Modulus (GPa) = 25.90196 29.12548 27.51372
#
# Velocity S-wave (km/s) = 3.67095 3.89268 3.78344
# Velocity P-wave (km/s) = 5.30705 5.83527 5.57742
#
# Compressibility (1/GPa) = 0.05102149
#
# Stress axis : x y z
#
# Youngs Moduli (GPa) = 49.93913 94.60069 52.00968
#
# Poissons Ratio (x) = 0.27712 -0.26833
# Poissons Ratio (y) = 0.14629 0.08479
# Poissons Ratio (z) = -0.25765 0.15422
#
# Static dielectric constant tensor:
#      x y z
#    x 1.684170 0.000000 -0.023420 
#    y 0.000000 1.647050 0.000000 
#    z -0.023420 0.000000 1.662770 
# 
# From -- ./inp_files/80267.got.cif
#   From: 2010.05.17/outbox.cif.g08.bks.cpg/sg15_41_cif.got.tgz:80267.got - 2010.06.03 18:47:42.
