data_PCOD9282613
_publ_section_title
;
Structure prediction by ZEFSAII (Michael W. Deem and Ramdas Pophale) SiO2 
 PCOD9282613
Probable space group: C 2/C
;
_chemical_formula_sum "Si O2"
_cell_formula_units_Z 48
_cell_length_a 20.266841
_cell_length_b 8.436855
_cell_length_c 13.852142
_cell_angle_alpha 90.000000
_cell_angle_beta 77.306462
_cell_angle_gamma 90.000000
_cell_volume 2310.666502
_symmetry_space_group_name_H-M "C 2/C"
_symmetry_group_IT_number 15
_symmetry_cell_setting 'monoclinic'
loop_
_space_group_symop_operation_xyz
x,y,z
-x,y,1/2-z
-x,-y,-z
x,-y,1/2+z
1/2+x,1/2+y,z
1/2-x,1/2+y,1/2-z
1/2-x,1/2-y,-z
1/2+x,1/2-y,1/2+z
loop_
_atom_site_type_symbol
_atom_site_label
_atom_site_fract_x
_atom_site_fract_y
_atom_site_fract_z
Si Si1 0.184528 0.327447 0.070145
Si Si2 0.269392 0.600297 0.716452
Si Si3 0.387913 0.581537 0.266605
Si Si4 0.167320 0.561041 0.368068
Si Si5 0.014537 0.544845 0.386632
Si Si6 0.500000 0.805295 0.250000
Si Si7 0.000000 0.175690 0.750000
O O1 0.216830 0.431421 0.145973
O O2 0.144047 0.183451 0.135090
O O3 0.250000 0.250000 0.000000
O O4 0.154242 0.414732 0.986621
O O5 0.330393 0.476323 0.712141
O O6 0.222366 0.573877 0.825674
O O7 0.301919 0.773573 0.685755
O O8 0.446597 0.698359 0.210930
O O9 0.432352 0.429250 0.280232
O O10 0.095073 0.522541 0.345011
O O11 0.969887 0.424923 0.337118
O O12 0.001939 0.716764 0.345469
O O13 0.000000 0.500000 0.500000
#
# Coordination Sequence:
#
# PCOD9282613 Si02
#       7
#     8   8   8   8   8   4   4
#     4  10  21  39  63  92 127 163 205 266 326 370
#     4  11  21  39  67  92 129 168 207 267 326 377
#     4  11  20  43  65  92 126 172 210 264 316 380
#     4  11  23  42  67  95 128 168 216 265 326 384
#     4  11  23  43  63  94 128 169 210 267 322 381
#     4  10  24  40  64  86 130 168 210 260 324 372
#     4  10  24  42  66  94 126 168 224 258 304 394
#
# _framework density 20.773226999999999
#
# number of rings (size 3 to 8) (size 9 to 14) (size 15 to 20)
#    0.000    1.333    5.000    2.000    0.000    1.333 
#    6.000    3.333    0.000    0.000    0.000    0.000 
#    0.000    0.000    0.000    0.000    0.000    0.000 
#
# Total GULP energy -133626.242795 kJ/mol
# GULP energy per Si atom -5567.760116 kJ/mol
# Density = 2.072595 g / cm^3
# Si number density = 20.773227 Si / 1000 Ang^3
#
#
#
# Elastic Constant Matrix: (Units=GPa)
#
#
# Indices 1 2 3 4 5 6 
#
# 1 104.0210 57.9508 25.7379 0.0000 9.3576 0.0000
# 2 57.9508 99.5461 51.4433 0.0000 8.3816 0.0000
# 3 25.7379 51.4433 111.2849 0.0000 10.0713 0.0000
# 4 0.0000 0.0000 0.0000 29.1858 0.0000 -1.6605
# 5 9.3576 8.3816 10.0713 0.0000 34.1750 0.0000
# 6 0.0000 0.0000 0.0000 -1.6605 0.0000 40.7141
#
#
#
# Elastic Compliance Matrix: (Units=1/GPa)
#
#
# Indices 1 2 3 4 5 6 
#
# 1 0.014411 -0.008658 0.000857 0.000000 -0.002075 0.000000
# 2 -0.008658 0.018473 -0.006515 0.000000 -0.000240 0.000000
# 3 0.000857 -0.006515 0.011996 0.000000 -0.002172 0.000000
# 4 0.000000 0.000000 0.000000 0.034343 0.000000 0.001401
# 5 -0.002075 -0.000240 -0.002172 0.000000 0.030528 0.000000
# 6 0.000000 0.000000 0.000000 0.001401 0.000000 0.024619
#
#
# Mechanical properties :
#
#
# Convention : Reuss Voigt Hill
#
# Bulk Modulus (GPa) = 61.54545 65.01290 63.27918
# Shear Modulus (GPa) = 29.68797 32.79633 31.24215
#
# Velocity S-wave (km/s) = 3.78451 3.97770 3.88230
# Velocity P-wave (km/s) = 6.98486 7.24296 7.11508
#
# Compressibility (1/GPa) = 0.01624815
#
# Stress axis : x y z
#
# Youngs Moduli (GPa) = 69.38971 54.13344 83.36019
#
# Poissons Ratio (x) = 0.46867 -0.07143
# Poissons Ratio (y) = 0.60075 0.54312
# Poissons Ratio (z) = -0.05946 0.35270
#
# Static dielectric constant tensor:
#      x y z
#    x 1.782270 0.000000 0.049030 
#    y 0.000000 1.755710 0.000000 
#    z 0.049030 0.000000 1.662200 
# 
# From -- ./inp_files/116492.got.cif
#   From: 2010.05.17/outbox.cif.g08.bks.cpg/sg15_59_cif.got.tgz:116492.got - 2010.06.03 18:47:42.
