data_PCOD9282563
_publ_section_title
;
Structure prediction by ZEFSAII (Michael W. Deem and Ramdas Pophale) SiO2 
 PCOD9282563
Probable space group: C 2/C
;
_chemical_formula_sum "Si O2"
_cell_formula_units_Z 64
_cell_length_a 22.609275
_cell_length_b 12.672596
_cell_length_c 31.146246
_cell_angle_alpha 90.000000
_cell_angle_beta 160.583182
_cell_angle_gamma 90.000000
_cell_volume 2966.665437
_symmetry_space_group_name_H-M "C 2/C"
_symmetry_group_IT_number 15
_symmetry_cell_setting 'monoclinic'
loop_
_space_group_symop_operation_xyz
x,y,z
-x,y,1/2-z
-x,-y,-z
x,-y,1/2+z
1/2+x,1/2+y,z
1/2-x,1/2+y,1/2-z
1/2-x,1/2-y,-z
1/2+x,1/2-y,1/2+z
loop_
_atom_site_type_symbol
_atom_site_label
_atom_site_fract_x
_atom_site_fract_y
_atom_site_fract_z
Si Si1 0.644166 0.888088 0.968693
Si Si2 0.942265 0.888088 0.617751
Si Si3 0.109237 0.338627 0.780358
Si Si4 0.828600 0.616411 0.491045
Si Si5 0.293707 0.838608 0.122584
Si Si6 0.518590 0.312623 0.435989
Si Si7 0.478412 0.616408 0.815941
Si Si8 0.188199 0.312612 0.270800
O O1 0.489773 0.896822 0.826751
O O2 0.588302 0.795371 0.962008
O O3 0.817357 0.862750 0.058622
O O4 0.693910 0.991535 0.030215
O O5 0.782409 0.862737 0.541157
O O6 0.837656 0.896823 0.500698
O O7 0.083126 0.795379 0.709423
O O8 0.039109 0.991534 0.702829
O O9 0.000000 0.350703 0.750000
O O10 0.116662 0.213549 0.772579
O O11 0.311292 0.370148 0.927313
O O12 0.759772 0.713549 0.415648
O O13 0.039348 0.627391 0.641420
O O14 0.500000 0.850636 0.250000
O O15 0.275367 0.870147 0.159344
O O16 0.447638 0.372612 0.345555
O O17 0.365624 0.295184 0.365623
#
# Coordination Sequence:
#
# PCOD9282563 Si02
#       8
#     8   8   8   8   8   8   8   8
#     4  10  21  39  63  89 117 155 199 242 295 352
#     4  10  21  39  63  89 117 155 199 242 295 352
#     4  11  19  38  62  86 119 156 199 239 286 348
#     4  10  21  39  63  89 117 155 199 242 295 352
#     4  11  19  38  62  86 119 156 199 239 286 348
#     4  11  23  39  59  89 123 157 195 245 298 348
#     4  10  21  39  63  89 117 155 199 242 295 352
#     4  11  23  39  59  89 123 157 195 245 298 348
#
# _framework density 21.573042999999998
#
# number of rings (size 3 to 8) (size 9 to 14) (size 15 to 20)
#    0.000    1.500    5.000    1.500    0.000    7.000 
#    0.000    2.500    0.000    0.000    0.000    0.000 
#    0.000    0.000    0.000    0.000    0.000    0.000 
#
# Total GULP energy -178576.398045 kJ/mol
# GULP energy per Si atom -5580.512439 kJ/mol
# Density = 2.152394 g / cm^3
# Si number density = 21.573043 Si / 1000 Ang^3
#
#
#
# Elastic Constant Matrix: (Units=GPa)
#
#
# Indices 1 2 3 4 5 6 
#
# 1 79.0990 -16.9899 47.5200 0.0190 3.3160 0.0147
# 2 -16.9899 60.1969 -12.9074 -0.0049 -6.0777 -0.0118
# 3 47.5200 -12.9074 80.1256 -0.0282 -4.6814 -0.0304
# 4 0.0190 -0.0049 -0.0282 12.2124 0.0041 -4.6241
# 5 3.3160 -6.0777 -4.6814 0.0041 26.7198 0.0028
# 6 0.0147 -0.0118 -0.0304 -4.6241 0.0028 9.1861
#
#
#
# Elastic Compliance Matrix: (Units=1/GPa)
#
#
# Indices 1 2 3 4 5 6 
#
# 1 0.020643 0.002843 -0.012020 -0.000103 -0.004021 -0.000120
# 2 0.002843 0.018137 0.001471 0.000017 0.004030 0.000031
# 3 -0.012020 0.001471 0.020159 0.000120 0.005358 0.000146
# 4 -0.000103 0.000017 0.000120 0.101167 0.000017 0.050926
# 5 -0.004021 0.004030 0.005358 0.000017 0.039780 0.000026
# 6 -0.000120 0.000031 0.000146 0.050926 0.000026 0.134496
#
#
# Mechanical properties :
#
#
# Convention : Reuss Voigt Hill
#
# Bulk Modulus (GPa) = 22.97402 28.29633 25.63518
# Shear Modulus (GPa) = 13.72491 23.07690 18.40091
#
# Velocity S-wave (km/s) = 2.52505 3.27419 2.92371
# Velocity P-wave (km/s) = 4.37878 5.23820 4.82765
#
# Compressibility (1/GPa) = 0.04352742
#
# Stress axis : x y z
#
# Youngs Moduli (GPa) = 48.44360 55.13622 49.60580
#
# Poissons Ratio (x) = -0.15675 0.59624
# Poissons Ratio (y) = -0.13772 -0.07298
# Poissons Ratio (z) = 0.58227 -0.08111
#
# Static dielectric constant tensor:
#      x y z
#    x 1.736060 0.000000 -0.053450 
#    y 0.000000 1.842230 0.000000 
#    z -0.053450 0.000000 1.771640 
# 
# From -- ./inp_files/318017.got.cif
#   From: 2010.05.17/outbox.cif.g08.bks.cpg/sg15_160_cif.got.tgz:318017.got - 2010.06.03 18:47:42.
