data_PCOD9282792
_publ_section_title
;
Structure prediction by ZEFSAII (Michael W. Deem and Ramdas Pophale) SiO2 
 PCOD9282792
Probable space group: C 2/C
;
_chemical_formula_sum "Si O2"
_cell_formula_units_Z 56
_cell_length_a 10.341256
_cell_length_b 17.354259
_cell_length_c 17.532021
_cell_angle_alpha 90.000000
_cell_angle_beta 126.214891
_cell_angle_gamma 90.000000
_cell_volume 2538.521756
_symmetry_space_group_name_H-M "C 2/C"
_symmetry_group_IT_number 15
_symmetry_cell_setting 'monoclinic'
loop_
_space_group_symop_operation_xyz
x,y,z
-x,y,1/2-z
-x,-y,-z
x,-y,1/2+z
1/2+x,1/2+y,z
1/2-x,1/2+y,1/2-z
1/2-x,1/2-y,-z
1/2+x,1/2-y,1/2+z
loop_
_atom_site_type_symbol
_atom_site_label
_atom_site_fract_x
_atom_site_fract_y
_atom_site_fract_z
Si Si1 0.387190 0.205966 0.870028
Si Si2 0.100638 0.733780 0.362443
Si Si3 0.844853 0.457750 0.414800
Si Si4 0.672907 0.602975 0.348061
Si Si5 0.805466 0.272127 0.178607
Si Si6 0.909043 0.851556 0.516481
Si Si7 0.665870 0.370934 0.484216
O O1 0.273507 0.233764 0.897571
O O2 0.412518 0.116094 0.893264
O O3 0.277160 0.211868 0.757055
O O4 0.526687 0.270304 0.923276
O O5 0.158666 0.656199 0.423640
O O6 0.061124 0.800888 0.409241
O O7 0.000000 0.724074 0.250000
O O8 0.754275 0.527636 0.341481
O O9 0.716438 0.428192 0.433763
O O10 0.000000 0.500000 0.500000
O O11 0.500000 0.609513 0.250000
O O12 0.754736 0.685305 0.359147
O O13 0.651842 0.600413 0.432302
O O14 0.000000 0.277131 0.250000
O O15 0.731042 0.329278 0.091159
O O16 0.053327 0.890872 0.517905
#
# Coordination Sequence:
#
# PCOD9282792 Si02
#       7
#     8   8   8   8   8   8   8
#     4  10  21  39  64  96 124 171 224 265 321 399
#     4   9  17  33  61  92 124 158 221 267 311 379
#     4  11  25  42  65  91 139 176 213 275 343 390
#     4  11  24  42  66  97 130 174 220 272 340 402
#     4  11  22  37  67  99 121 166 231 267 327 391
#     4  11  21  41  68  90 134 163 223 287 313 400
#     4   9  21  38  57  96 125 173 216 259 335 398
#
# _framework density 22.060084
#
# number of rings (size 3 to 8) (size 9 to 14) (size 15 to 20)
#    0.000    1.714    2.857    3.000    2.000    5.143 
#    0.000    0.000    0.000    0.000    0.000    0.000 
#    0.000    0.000    0.000    0.000    0.000    0.000 
#
# Total GULP energy -155971.512023 kJ/mol
# GULP energy per Si atom -5570.411144 kJ/mol
# Density = 2.200987 g / cm^3
# Si number density = 22.060084 Si / 1000 Ang^3
#
#
#
# Elastic Constant Matrix: (Units=GPa)
#
#
# Indices 1 2 3 4 5 6 
#
# 1 40.3822 5.1560 1.6100 0.0000 -3.6523 0.0000
# 2 5.1560 69.6287 4.0483 0.0000 3.4112 0.0000
# 3 1.6100 4.0483 117.4686 0.0000 -1.8874 0.0000
# 4 0.0000 0.0000 0.0000 16.1505 0.0000 -4.5006
# 5 -3.6523 3.4112 -1.8874 0.0000 33.1196 0.0000
# 6 0.0000 0.0000 0.0000 -4.5006 0.0000 22.4668
#
#
#
# Elastic Compliance Matrix: (Units=1/GPa)
#
#
# Indices 1 2 3 4 5 6 
#
# 1 0.025299 -0.002006 -0.000230 0.000000 0.002983 0.000000
# 2 -0.002006 0.014626 -0.000505 0.000000 -0.001756 0.000000
# 3 -0.000230 -0.000505 0.008542 0.000000 0.000513 0.000000
# 4 0.000000 0.000000 0.000000 0.065578 0.000000 0.013137
# 5 0.002983 -0.001756 0.000513 0.000000 0.030733 0.000000
# 6 0.000000 0.000000 0.000000 0.013137 0.000000 0.047142
#
#
# Mechanical properties :
#
#
# Convention : Reuss Voigt Hill
#
# Bulk Modulus (GPa) = 23.26399 27.67868 25.47133
# Shear Modulus (GPa) = 23.61520 28.79175 26.20347
#
# Velocity S-wave (km/s) = 3.27539 3.61661 3.45022
# Velocity P-wave (km/s) = 4.98727 5.47850 5.23865
#
# Compressibility (1/GPa) = 0.04298489
#
# Stress axis : x y z
#
# Youngs Moduli (GPa) = 39.52799 68.37215 117.07265
#
# Poissons Ratio (x) = 0.13717 0.02689
# Poissons Ratio (y) = 0.07930 0.05910
# Poissons Ratio (z) = 0.00908 0.03451
#
# Static dielectric constant tensor:
#      x y z
#    x 2.064000 0.000000 0.196450 
#    y 0.000000 1.908690 0.000000 
#    z 0.196450 0.000000 0.089820 
# 
# From -- ./inp_files/199584.got.cif
#   From: 2010.05.17/outbox.cif.g08.bks.cpg/sg15_100_cif.got.tgz:199584.got - 2010.06.03 18:47:42.
