data_PCOD9282307
_publ_section_title
;
Structure prediction by ZEFSAII (Michael W. Deem and Ramdas Pophale) SiO2 
 PCOD9282307
Probable space group: C 2/C
;
_chemical_formula_sum "Si O2"
_cell_formula_units_Z 56
_cell_length_a 9.535730
_cell_length_b 16.145335
_cell_length_c 26.836815
_cell_angle_alpha 90.000000
_cell_angle_beta 138.979308
_cell_angle_gamma 90.000000
_cell_volume 2711.785015
_symmetry_space_group_name_H-M "C 2/C"
_symmetry_group_IT_number 15
_symmetry_cell_setting 'monoclinic'
loop_
_space_group_symop_operation_xyz
x,y,z
-x,y,1/2-z
-x,-y,-z
x,-y,1/2+z
1/2+x,1/2+y,z
1/2-x,1/2+y,1/2-z
1/2-x,1/2-y,-z
1/2+x,1/2-y,1/2+z
loop_
_atom_site_type_symbol
_atom_site_label
_atom_site_fract_x
_atom_site_fract_y
_atom_site_fract_z
Si Si1 0.724339 0.152004 0.488396
Si Si2 0.546032 0.634542 0.053301
Si Si3 0.786738 0.507565 0.672412
Si Si4 0.921292 0.394705 0.110336
Si Si5 0.283027 0.718925 0.672207
Si Si6 0.453326 0.575739 0.645779
Si Si7 0.900723 0.471538 0.920269
O O1 0.750000 0.250000 0.500000
O O2 0.828016 0.122707 0.464793
O O3 0.847394 0.106497 0.565899
O O4 0.481588 0.119916 0.429176
O O5 0.611920 0.557621 0.105897
O O6 0.641580 0.717648 0.102662
O O7 0.294639 0.638641 0.974315
O O8 0.847222 0.568191 0.643190
O O9 0.692195 0.557724 0.693873
O O10 0.000000 0.464819 0.750000
O O11 0.111786 0.326962 0.162164
O O12 0.007382 0.468659 0.097997
O O13 0.500000 0.761668 0.750000
O O14 0.389361 0.646752 0.667042
O O15 0.346731 0.492291 0.638857
O O16 0.000000 0.500000 0.000000
#
# Coordination Sequence:
#
# PCOD9282307 Si02
#       7
#     8   8   8   8   8   8   8
#     4  11  19  35  61  91 120 155 202 257 309 359
#     4  12  22  39  64  94 124 159 214 262 308 367
#     4  12  24  40  63  93 128 167 205 265 323 368
#     4  11  22  40  66  92 120 162 220 258 299 377
#     4  11  24  42  61  91 130 168 202 258 324 380
#     4  10  21  39  61  85 118 163 211 248 306 377
#     4   9  19  35  59  89 118 153 201 260 300 356
#
# _framework density 20.650604999999999
#
# number of rings (size 3 to 8) (size 9 to 14) (size 15 to 20)
#    0.000    1.143    4.286    3.857    0.000    0.000 
#    2.571    0.000    0.000    0.000    0.000    0.000 
#    0.000    0.000    0.000    0.000    0.000    0.000 
#
# Total GULP energy -156258.093381 kJ/mol
# GULP energy per Si atom -5580.646192 kJ/mol
# Density = 2.060360 g / cm^3
# Si number density = 20.650605 Si / 1000 Ang^3
#
#
#
# Elastic Constant Matrix: (Units=GPa)
#
#
# Indices 1 2 3 4 5 6 
#
# 1 121.2006 35.9218 19.8932 0.0000 15.9015 0.0000
# 2 35.9218 82.8446 25.5307 0.0000 16.7152 0.0000
# 3 19.8932 25.5307 80.3491 0.0000 28.7946 0.0000
# 4 0.0000 0.0000 0.0000 10.3249 0.0000 -1.2488
# 5 15.9015 16.7152 28.7946 0.0000 22.6163 0.0000
# 6 0.0000 0.0000 0.0000 -1.2488 0.0000 25.5711
#
#
#
# Elastic Compliance Matrix: (Units=1/GPa)
#
#
# Indices 1 2 3 4 5 6 
#
# 1 0.009837 -0.003398 0.000410 0.000000 -0.004927 0.000000
# 2 -0.003398 0.015443 -0.001529 0.000000 -0.007078 0.000000
# 3 0.000410 -0.001529 0.023041 0.000000 -0.028494 0.000000
# 4 0.000000 0.000000 0.000000 0.097428 0.000000 0.004758
# 5 -0.004927 -0.007078 -0.028494 0.000000 0.089189 0.000000
# 6 0.000000 0.000000 0.000000 0.004758 0.000000 0.039339
#
#
# Mechanical properties :
#
#
# Convention : Reuss Voigt Hill
#
# Bulk Modulus (GPa) = 25.45342 49.67618 37.56480
# Shear Modulus (GPa) = 16.86863 25.23905 21.05384
#
# Velocity S-wave (km/s) = 2.86118 3.49978 3.19647
# Velocity P-wave (km/s) = 4.82365 6.35917 5.64388
#
# Compressibility (1/GPa) = 0.03928745
#
# Stress axis : x y z
#
# Youngs Moduli (GPa) = 101.65787 64.75272 43.40000
#
# Poissons Ratio (x) = 0.22000 -0.01778
# Poissons Ratio (y) = 0.34538 0.06638
# Poissons Ratio (z) = -0.04166 0.09903
#
# Static dielectric constant tensor:
#      x y z
#    x 1.742380 0.000000 0.010460 
#    y 0.000000 1.734330 0.000000 
#    z 0.010460 0.000000 1.802520 
# 
# From -- ./inp_files/289779.got.cif
#   From: 2010.05.17/outbox.cif.g08.bks.cpg/sg15_145_cif.got.tgz:289779.got - 2010.06.03 18:47:42.
