data_PCOD9282253
_publ_section_title
;
Structure prediction by ZEFSAII (Michael W. Deem and Ramdas Pophale) SiO2 
 PCOD9282253
Probable space group: C 2/C
;
_chemical_formula_sum "Si O2"
_cell_formula_units_Z 36
_cell_length_a 8.254100
_cell_length_b 24.365891
_cell_length_c 12.753480
_cell_angle_alpha 90.000000
_cell_angle_beta 38.845572
_cell_angle_gamma 90.000000
_cell_volume 1608.803636
_symmetry_space_group_name_H-M "C 2/C"
_symmetry_group_IT_number 15
_symmetry_cell_setting 'monoclinic'
loop_
_space_group_symop_operation_xyz
x,y,z
-x,y,1/2-z
-x,-y,-z
x,-y,1/2+z
1/2+x,1/2+y,z
1/2-x,1/2+y,1/2-z
1/2-x,1/2-y,-z
1/2+x,1/2-y,1/2+z
loop_
_atom_site_type_symbol
_atom_site_label
_atom_site_fract_x
_atom_site_fract_y
_atom_site_fract_z
Si Si1 0.393364 0.081755 0.472467
Si Si2 0.900897 0.454629 0.414574
Si Si3 0.458525 0.672597 0.943168
Si Si4 0.500000 0.250200 0.250000
Si Si5 0.043506 0.125686 0.341756
O O1 0.425514 0.072605 0.581318
O O2 0.154285 0.117896 0.554508
O O3 0.654282 0.111988 0.301248
O O4 0.392500 0.020124 0.429080
O O5 0.616104 0.430889 0.578097
O O6 0.000000 0.439913 0.250000
O O7 0.564970 0.657843 0.003590
O O8 0.214407 0.711027 0.094024
O O9 0.614497 0.708934 0.781123
O O10 0.000000 0.152612 0.250000
#
# Coordination Sequence:
#
# PCOD9282253 Si02
#       5
#     8   8   8   4   8
#     4  10  21  39  60  87 125 160 186 242 299 351
#     4  10  22  36  58  93 124 154 198 231 292 367
#     4  11  21  42  63  87 115 154 202 249 293 353
#     4  10  24  38  66  86 110 152 214 248 292 342
#     4  10  21  39  61  86 126 159 185 243 304 345
#
# _framework density 22.376875999999999
#
# number of rings (size 3 to 8) (size 9 to 14) (size 15 to 20)
#    0.000    1.778    2.222    1.333    3.111    3.556 
#    6.000    1.111    0.000    0.000    0.000    0.000 
#    0.000    0.000    0.000    0.000    0.000    0.000 
#
# Total GULP energy -100563.048390 kJ/mol
# GULP energy per Si atom -5586.836022 kJ/mol
# Density = 2.232595 g / cm^3
# Si number density = 22.376876 Si / 1000 Ang^3
#
#
#
# Elastic Constant Matrix: (Units=GPa)
#
#
# Indices 1 2 3 4 5 6 
#
# 1 58.6510 29.8981 24.7432 0.0000 26.5659 0.0000
# 2 29.8981 74.9831 23.0613 0.0000 24.4534 0.0000
# 3 24.7432 23.0613 86.3864 0.0000 36.1041 0.0000
# 4 0.0000 0.0000 0.0000 15.0734 0.0000 10.9099
# 5 26.5659 24.4534 36.1041 0.0000 46.9189 0.0000
# 6 0.0000 0.0000 0.0000 10.9099 0.0000 5.0586
#
#
#
# Elastic Compliance Matrix: (Units=1/GPa)
#
#
# Indices 1 2 3 4 5 6 
#
# 1 0.025450 -0.006469 -0.001399 0.000000 -0.009962 0.000000
# 2 -0.006469 0.017791 -0.000814 0.000000 -0.004984 0.000000
# 3 -0.001399 -0.000814 0.017225 0.000000 -0.012038 0.000000
# 4 0.000000 0.000000 0.000000 -0.118256 0.000000 0.255045
# 5 -0.009962 -0.004984 -0.012038 0.000000 0.038815 0.000000
# 6 0.000000 0.000000 0.000000 0.255045 0.000000 -0.352375
#
#
# Mechanical properties :
#
#
# Convention : Reuss Voigt Hill
#
# Bulk Modulus (GPa) = 23.20010 41.71395 32.45702
# Shear Modulus (GPa) = -14.72238 22.89803 4.08782
#
# Velocity S-wave (km/s) = -2.56779 3.20236 1.35306
# Velocity P-wave (km/s) = 1.26451 5.68819 4.12034
#
# Compressibility (1/GPa) = 0.04310326
#
# Stress axis : x y z
#
# Youngs Moduli (GPa) = 39.29266 56.20780 58.05435
#
# Poissons Ratio (x) = 0.36359 0.08123
# Poissons Ratio (y) = 0.25417 0.04724
# Poissons Ratio (z) = 0.05498 0.04574
#
# Static dielectric constant tensor:
#      x y z
#    x 1.869030 0.000000 0.053800 
#    y 0.000000 1.807330 0.000000 
#    z 0.053800 0.000000 1.872860 
# 
# From -- ./inp_files/22546.got.cif
#   From: 2010.05.17/outbox.cif.g08.bks.cpg/sg15_12_cif.got.tgz:22546.got - 2010.06.03 18:47:42.
