data_PCOD9282707
_publ_section_title
;
Structure prediction by ZEFSAII (Michael W. Deem and Ramdas Pophale) SiO2 
 PCOD9282707
Probable space group: C 2/C
;
_chemical_formula_sum "Si O2"
_cell_formula_units_Z 44
_cell_length_a 30.651522
_cell_length_b 13.150457
_cell_length_c 5.191106
_cell_angle_alpha 90.000000
_cell_angle_beta 101.110741
_cell_angle_gamma 90.000000
_cell_volume 2053.219395
_symmetry_space_group_name_H-M "C 2/C"
_symmetry_group_IT_number 15
_symmetry_cell_setting 'monoclinic'
loop_
_space_group_symop_operation_xyz
x,y,z
-x,y,1/2-z
-x,-y,-z
x,-y,1/2+z
1/2+x,1/2+y,z
1/2-x,1/2+y,1/2-z
1/2-x,1/2-y,-z
1/2+x,1/2-y,1/2+z
loop_
_atom_site_type_symbol
_atom_site_label
_atom_site_fract_x
_atom_site_fract_y
_atom_site_fract_z
Si Si1 0.825406 0.435407 0.188199
Si Si2 0.357759 0.711618 0.149952
Si Si3 0.000000 0.070694 0.750000
Si Si4 0.087482 0.794342 0.293545
Si Si5 0.220067 0.935410 0.077219
Si Si6 0.053622 0.565590 0.318783
O O1 0.834631 0.480437 0.480721
O O2 0.850544 0.332289 0.154345
O O3 0.772469 0.411627 0.117209
O O4 0.376545 0.678326 0.447387
O O5 0.392891 0.686764 0.966477
O O6 0.311741 0.657541 0.026309
O O7 0.043357 0.141365 0.791422
O O8 0.000000 0.000000 0.500000
O O9 0.075744 0.674999 0.309123
O O10 0.211272 0.978368 0.351822
O O11 0.064881 0.510985 0.599677
O O12 0.000000 0.580506 0.250000
#
# Coordination Sequence:
#
# PCOD9282707 Si02
#       6
#     8   8   4   8   8   8
#     4  10  22  41  64  94 132 172 205 248 313 382
#     4  12  25  39  66  96 129 164 208 269 312 369
#     4  12  28  50  70  88 124 172 216 266 318 368
#     4  12  26  43  64  96 127 162 215 264 315 377
#     4  10  22  41  64  90 127 169 215 259 307 373
#     4  10  21  39  64  88 119 158 196 249 312 378
#
# _framework density 21.429760999999999
#
# number of rings (size 3 to 8) (size 9 to 14) (size 15 to 20)
#    0.000    1.091    0.909    4.909    0.000    8.727 
#    0.000    7.273    0.000    0.000    0.000    0.000 
#    0.000    0.000    0.000    0.000    0.000    0.000 
#
# Total GULP energy -123270.870646 kJ/mol
# GULP energy per Si atom -5603.221393 kJ/mol
# Density = 2.138099 g / cm^3
# Si number density = 21.429761 Si / 1000 Ang^3
#
#
#
# Elastic Constant Matrix: (Units=GPa)
#
#
# Indices 1 2 3 4 5 6 
#
# 1 72.3328 24.4137 4.0590 0.0000 -6.5108 0.0000
# 2 24.4137 58.7497 11.6383 0.0000 1.9684 0.0000
# 3 4.0590 11.6383 95.7531 0.0000 -6.4787 0.0000
# 4 0.0000 0.0000 0.0000 25.2693 0.0000 6.1644
# 5 -6.5108 1.9684 -6.4787 0.0000 33.5877 0.0000
# 6 0.0000 0.0000 0.0000 6.1644 0.0000 30.3483
#
#
#
# Elastic Compliance Matrix: (Units=1/GPa)
#
#
# Indices 1 2 3 4 5 6 
#
# 1 0.016521 -0.007070 0.000409 0.000000 0.003696 0.000000
# 2 -0.007070 0.020537 -0.002402 0.000000 -0.003037 0.000000
# 3 0.000409 -0.002402 0.010875 0.000000 0.002318 0.000000
# 4 0.000000 0.000000 0.000000 0.041637 0.000000 -0.008457
# 5 0.003696 -0.003037 0.002318 0.000000 0.031114 0.000000
# 6 0.000000 0.000000 0.000000 -0.008457 0.000000 0.034669
#
#
# Mechanical properties :
#
#
# Convention : Reuss Voigt Hill
#
# Bulk Modulus (GPa) = 33.54948 34.11752 33.83350
# Shear Modulus (GPa) = 27.26063 30.28937 28.77500
#
# Velocity S-wave (km/s) = 3.57051 3.76363 3.66834
# Velocity P-wave (km/s) = 5.71731 5.90269 5.81074
#
# Compressibility (1/GPa) = 0.02980672
#
# Stress axis : x y z
#
# Youngs Moduli (GPa) = 60.52884 48.69251 91.95443
#
# Poissons Ratio (x) = 0.34427 -0.03762
# Poissons Ratio (y) = 0.42795 0.22087
# Poissons Ratio (z) = -0.02476 0.11696
#
# Static dielectric constant tensor:
#      x y z
#    x 1.777570 0.000000 0.018920 
#    y 0.000000 1.719500 0.000000 
#    z 0.018920 0.000000 1.736050 
# 
# From -- ./inp_files/18030.got.cif
#   From: 2010.05.17/outbox.cif.g08.bks.cpg/sg15_10_cif.got.tgz:18030.got - 2010.06.03 18:47:42.
