data_PCOD9282590
_publ_section_title
;
Structure prediction by ZEFSAII (Michael W. Deem and Ramdas Pophale) SiO2 
 PCOD9282590
Probable space group: C 2/C
;
_chemical_formula_sum "Si O2"
_cell_formula_units_Z 40
_cell_length_a 19.624774
_cell_length_b 12.815738
_cell_length_c 10.775560
_cell_angle_alpha 90.000000
_cell_angle_beta 43.077641
_cell_angle_gamma 90.000000
_cell_volume 1850.979914
_symmetry_space_group_name_H-M "C 2/C"
_symmetry_group_IT_number 15
_symmetry_cell_setting 'monoclinic'
loop_
_space_group_symop_operation_xyz
x,y,z
-x,y,1/2-z
-x,-y,-z
x,-y,1/2+z
1/2+x,1/2+y,z
1/2-x,1/2+y,1/2-z
1/2-x,1/2-y,-z
1/2+x,1/2-y,1/2+z
loop_
_atom_site_type_symbol
_atom_site_label
_atom_site_fract_x
_atom_site_fract_y
_atom_site_fract_z
Si Si1 0.326430 0.117325 0.971908
Si Si2 0.498171 0.891356 0.070476
Si Si3 0.777983 0.899243 0.418401
Si Si4 0.287105 0.712225 0.163693
Si Si5 0.488594 0.704258 0.625318
O O1 0.420378 0.090867 0.932779
O O2 0.386728 0.138737 0.765219
O O3 0.272834 0.204106 0.127776
O O4 0.254954 0.018012 0.052349
O O5 0.534322 0.796723 0.937455
O O6 0.500000 0.000000 0.000000
O O7 0.722435 0.825833 0.389896
O O8 0.752561 0.860383 0.592516
O O9 0.896866 0.876541 0.244721
O O10 0.397928 0.670405 0.049271
O O11 0.500000 0.746594 0.750000
#
# Coordination Sequence:
#
# PCOD9282590 Si02
#       5
#     8   8   8   8   8
#     4  11  23  37  63  94 129 166 214 272 318 379
#     4  11  23  37  60  95 127 163 220 268 317 368
#     4  10  21  40  62  91 132 168 214 258 318 392
#     4  10  21  39  63  90 125 174 212 258 323 383
#     4  10  22  40  66  90 125 172 215 258 319 387
#
# _framework density 21.610174000000001
#
# number of rings (size 3 to 8) (size 9 to 14) (size 15 to 20)
#    0.000    1.600    2.000    2.400    8.400    1.600 
#    0.000    0.000    0.000    0.000    0.000    0.000 
#    0.000    0.000    0.000    0.000    0.000    0.000 
#
# Total GULP energy -111477.421475 kJ/mol
# GULP energy per Si atom -5573.871074 kJ/mol
# Density = 2.156099 g / cm^3
# Si number density = 21.610174 Si / 1000 Ang^3
#
#
#
# Elastic Constant Matrix: (Units=GPa)
#
#
# Indices 1 2 3 4 5 6 
#
# 1 74.8857 23.2742 28.8699 0.0000 -23.9246 0.0000
# 2 23.2742 39.0762 3.6079 0.0000 0.0590 0.0000
# 3 28.8699 3.6079 137.0322 0.0000 -20.8903 0.0000
# 4 0.0000 0.0000 0.0000 8.1469 0.0000 -7.9778
# 5 -23.9246 0.0590 -20.8903 0.0000 34.6077 0.0000
# 6 0.0000 0.0000 0.0000 -7.9778 0.0000 30.4407
#
#
#
# Elastic Compliance Matrix: (Units=1/GPa)
#
#
# Indices 1 2 3 4 5 6 
#
# 1 0.023135 -0.013590 -0.002285 0.000000 0.014637 0.000000
# 2 -0.013590 0.033645 0.000591 0.000000 -0.009096 0.000000
# 3 -0.002285 0.000591 0.008285 0.000000 0.003420 0.000000
# 4 0.000000 0.000000 0.000000 0.165122 0.000000 0.043275
# 5 0.014637 -0.009096 0.003420 0.000000 0.041094 0.000000
# 6 0.000000 0.000000 0.000000 0.043275 0.000000 0.044192
#
#
# Mechanical properties :
#
#
# Convention : Reuss Voigt Hill
#
# Bulk Modulus (GPa) = 28.98938 40.27757 34.63347
# Shear Modulus (GPa) = 13.98443 27.65520 20.81981
#
# Velocity S-wave (km/s) = 2.54662 3.58121 3.10728
# Velocity P-wave (km/s) = 4.70009 5.98154 5.37911
#
# Compressibility (1/GPa) = 0.03449539
#
# Stress axis : x y z
#
# Youngs Moduli (GPa) = 43.22508 29.72228 120.70292
#
# Poissons Ratio (x) = 0.40394 0.27578
# Poissons Ratio (y) = 0.58745 -0.07130
# Poissons Ratio (z) = 0.09876 -0.01756
#
# Static dielectric constant tensor:
#      x y z
#    x 1.823100 0.000000 0.017710 
#    y 0.000000 1.837900 0.000000 
#    z 0.017710 0.000000 1.951960 
# 
# From -- ./inp_files/95515.got.cif
#   From: 2010.05.17/outbox.cif.g08.bks.cpg/sg15_48_cif.got.tgz:95515.got - 2010.06.03 18:47:42.
