data_PCOD9282332
_publ_section_title
;
Structure prediction by ZEFSAII (Michael W. Deem and Ramdas Pophale) SiO2 
 PCOD9282332
Probable space group: C 2/C
;
_chemical_formula_sum "Si O2"
_cell_formula_units_Z 60
_cell_length_a 19.750699
_cell_length_b 14.572778
_cell_length_c 9.083585
_cell_angle_alpha 90.000000
_cell_angle_beta 58.882343
_cell_angle_gamma 90.000000
_cell_volume 2238.260288
_symmetry_space_group_name_H-M "C 2/C"
_symmetry_group_IT_number 15
_symmetry_cell_setting 'monoclinic'
loop_
_space_group_symop_operation_xyz
x,y,z
-x,y,1/2-z
-x,-y,-z
x,-y,1/2+z
1/2+x,1/2+y,z
1/2-x,1/2+y,1/2-z
1/2-x,1/2-y,-z
1/2+x,1/2-y,1/2+z
loop_
_atom_site_type_symbol
_atom_site_label
_atom_site_fract_x
_atom_site_fract_y
_atom_site_fract_z
Si Si1 0.631942 0.378022 0.567315
Si Si2 0.047294 0.214432 0.403902
Si Si3 0.885828 0.688202 0.165930
Si Si4 0.210369 0.645663 0.514118
Si Si5 0.422113 0.571582 0.912189
Si Si6 0.130026 0.394636 0.408958
Si Si7 0.293681 0.649569 0.842087
Si Si8 0.500000 0.072880 0.250000
O O1 0.585131 0.294959 0.699669
O O2 0.706259 0.406476 0.587164
O O3 0.576241 0.463319 0.597943
O O4 0.672355 0.363600 0.363127
O O5 0.069771 0.114411 0.437786
O O6 0.093920 0.291224 0.444503
O O7 0.957329 0.244431 0.530493
O O8 0.815518 0.742503 0.327996
O O9 0.934553 0.624317 0.222385
O O10 0.840910 0.645593 0.075872
O O11 0.250000 0.750000 0.500000
O O12 0.159592 0.601441 0.705244
O O13 0.500000 0.612738 0.750000
O O14 0.345788 0.604503 0.910151
O O15 0.207669 0.393031 0.420713
O O16 0.061649 0.460575 0.552146
#
# Coordination Sequence:
#
# PCOD9282332 Si02
#       8
#     8   8   8   8   8   8   8   4
#     4  11  24  38  58  84 123 171 215 244 299 371
#     4  11  22  37  57  90 122 166 210 254 310 368
#     4  11  20  36  59  86 123 158 213 264 314 364
#     4  11  20  40  60  89 113 168 221 266 310 356
#     4  12  26  39  54  90 137 178 204 233 304 394
#     4  10  21  39  61  88 121 154 220 266 326 362
#     4  11  21  39  59  82 120 167 206 266 299 372
#     4  10  24  34  54  94 120 150 184 264 344 376
#
# _framework density 26.806533999999999
#
# number of rings (size 3 to 8) (size 9 to 14) (size 15 to 20)
#    0.000    1.067    5.333    2.400    2.800    8.533 
#    0.000    0.000    0.000    0.000    0.000   14.933 
#    0.000    0.000    0.000    0.000    0.000    0.000 
#
# Total GULP energy -167477.283982 kJ/mol
# GULP energy per Si atom -5582.576133 kJ/mol
# Density = 2.674552 g / cm^3
# Si number density = 26.806534 Si / 1000 Ang^3
#
#
#
# Elastic Constant Matrix: (Units=GPa)
#
#
# Indices 1 2 3 4 5 6 
#
# 1 188.6498 11.5759 31.0517 0.0000 -3.5143 0.0000
# 2 11.5759 36.7560 -4.6667 0.0000 10.1417 0.0000
# 3 31.0517 -4.6667 131.3570 0.0000 -21.6147 0.0000
# 4 0.0000 0.0000 0.0000 10.6076 0.0000 7.6952
# 5 -3.5143 10.1417 -21.6147 0.0000 59.9595 0.0000
# 6 0.0000 0.0000 0.0000 7.6952 0.0000 27.6341
#
#
#
# Elastic Compliance Matrix: (Units=1/GPa)
#
#
# Indices 1 2 3 4 5 6 
#
# 1 0.005654 -0.002004 -0.001379 0.000000 0.000173 0.000000
# 2 -0.002004 0.029255 0.000722 0.000000 -0.004805 0.000000
# 3 -0.001379 0.000722 0.008431 0.000000 0.002836 0.000000
# 4 0.000000 0.000000 0.000000 0.118137 0.000000 -0.032897
# 5 0.000173 -0.004805 0.002836 0.000000 0.018523 0.000000
# 6 0.000000 0.000000 0.000000 -0.032897 0.000000 0.045348
#
#
# Mechanical properties :
#
#
# Convention : Reuss Voigt Hill
#
# Bulk Modulus (GPa) = 26.30251 48.07607 37.18929
# Shear Modulus (GPa) = 20.54715 40.89370 30.72042
#
# Velocity S-wave (km/s) = 2.77157 3.91002 3.38894
# Velocity P-wave (km/s) = 4.48056 6.19336 5.40524
#
# Compressibility (1/GPa) = 0.03801918
#
# Stress axis : x y z
#
# Youngs Moduli (GPa) = 176.86534 34.18217 118.60610
#
# Poissons Ratio (x) = 0.06849 0.16359
# Poissons Ratio (y) = 0.35436 -0.08566
# Poissons Ratio (z) = 0.24394 -0.02469
#
# Static dielectric constant tensor:
#      x y z
#    x 2.100720 0.000000 0.021100 
#    y 0.000000 2.193180 0.000000 
#    z 0.021100 0.000000 2.265220 
# 
# From -- ./inp_files/50622.got.cif
#   From: 2010.05.17/outbox.cif.g08.bks.cpg/sg15_26_cif.got.tgz:50622.got - 2010.06.03 18:47:42.
