data_PCOD9282631
_publ_section_title
;
Structure prediction by ZEFSAII (Michael W. Deem and Ramdas Pophale) SiO2 
 PCOD9282631
Probable space group: C 2/C
;
_chemical_formula_sum "Si O2"
_cell_formula_units_Z 48
_cell_length_a 13.697400
_cell_length_b 5.472872
_cell_length_c 27.266078
_cell_angle_alpha 90.000000
_cell_angle_beta 62.494482
_cell_angle_gamma 90.000000
_cell_volume 1812.939246
_symmetry_space_group_name_H-M "C 2/C"
_symmetry_group_IT_number 15
_symmetry_cell_setting 'monoclinic'
loop_
_space_group_symop_operation_xyz
x,y,z
-x,y,1/2-z
-x,-y,-z
x,-y,1/2+z
1/2+x,1/2+y,z
1/2-x,1/2+y,1/2-z
1/2-x,1/2-y,-z
1/2+x,1/2-y,1/2+z
loop_
_atom_site_type_symbol
_atom_site_label
_atom_site_fract_x
_atom_site_fract_y
_atom_site_fract_z
Si Si1 0.091987 0.183460 0.000244
Si Si2 0.558574 0.903855 0.915040
Si Si3 0.913589 0.782280 0.662361
Si Si4 0.869364 0.862239 0.780643
Si Si5 0.784692 0.636938 0.348839
Si Si6 0.875258 0.061106 0.915626
O O1 0.014238 0.380246 0.044634
O O2 0.139878 0.312255 0.939569
O O3 0.169664 0.070959 0.024689
O O4 0.000000 0.000000 0.000000
O O5 0.466584 0.720505 0.920540
O O6 0.598564 0.003261 0.853233
O O7 0.848911 0.824384 0.727461
O O8 0.842540 0.905650 0.635402
O O9 0.040871 0.875483 0.633226
O O10 0.837646 0.617539 0.818658
O O11 0.000000 0.876951 0.750000
O O12 0.826937 0.125648 0.808633
O O13 0.805645 0.749912 0.398404
#
# Coordination Sequence:
#
# PCOD9282631 Si02
#       6
#     8   8   8   8   8   8
#     4   8  16  34  61  95 121 165 214 266 329 396
#     4   9  18  35  65  89 128 165 216 267 329 398
#     4  11  24  40  63  95 128 174 220 277 332 400
#     4  12  25  45  66  93 131 175 223 275 333 396
#     4  12  27  42  65  96 133 172 224 276 331 401
#     4  10  21  39  63  93 126 172 214 270 333 398
#
# _framework density 26.476343
#
# number of rings (size 3 to 8) (size 9 to 14) (size 15 to 20)
#    0.000    1.667    1.667    2.500    7.000    0.000 
#    0.000    0.833    0.000   34.000    0.000    0.000 
#    0.000    0.000    0.000    0.000    0.000    0.000 
#
# Total GULP energy -133770.500684 kJ/mol
# GULP energy per Si atom -5573.770862 kJ/mol
# Density = 2.641608 g / cm^3
# Si number density = 26.476343 Si / 1000 Ang^3
#
#
#
# Elastic Constant Matrix: (Units=GPa)
#
#
# Indices 1 2 3 4 5 6 
#
# 1 76.1003 19.0372 9.1663 -0.0004 15.1769 -0.0003
# 2 19.0372 124.9357 57.9061 -0.0009 0.4649 -0.0014
# 3 9.1663 57.9061 142.5391 -0.0005 36.5232 0.0002
# 4 -0.0004 -0.0009 -0.0005 68.1064 -0.0004 -3.3909
# 5 15.1769 0.4649 36.5232 -0.0004 50.1924 -0.0001
# 6 -0.0003 -0.0014 0.0002 -3.3909 -0.0001 32.0471
#
#
#
# Elastic Compliance Matrix: (Units=1/GPa)
#
#
# Indices 1 2 3 4 5 6 
#
# 1 0.014837 -0.003053 0.001756 0.000000 -0.005736 0.000000
# 2 -0.003053 0.011007 -0.005514 0.000000 0.004833 0.000001
# 3 0.001756 -0.005514 0.011389 0.000000 -0.008767 0.000000
# 4 0.000000 0.000000 0.000000 0.014761 0.000000 0.001562
# 5 -0.005736 0.004833 -0.008767 0.000000 0.027993 0.000000
# 6 0.000000 0.000001 0.000000 0.001562 0.000000 0.031369
#
#
# Mechanical properties :
#
#
# Convention : Reuss Voigt Hill
#
# Bulk Modulus (GPa) = 42.35358 57.31049 49.83204
# Shear Modulus (GPa) = 37.63718 47.23354 42.43536
#
# Velocity S-wave (km/s) = 3.77442 4.22831 4.00780
# Velocity P-wave (km/s) = 5.91832 6.74767 6.34656
#
# Compressibility (1/GPa) = 0.02361075
#
# Stress axis : x y z
#
# Youngs Moduli (GPa) = 67.40030 90.85236 87.80357
#
# Poissons Ratio (x) = 0.27740 -0.15418
# Poissons Ratio (y) = 0.20579 0.48412
# Poissons Ratio (z) = -0.11835 0.50093
#
# Static dielectric constant tensor:
#      x y z
#    x 2.126130 0.000000 -0.078460 
#    y 0.000000 2.434330 0.000000 
#    z -0.078460 0.000000 2.392550 
# 
# From -- ./inp_files/294423.got.cif
#   From: 2010.05.17/outbox.cif.g08.bks.cpg/sg15_148_cif.got.tgz:294423.got - 2010.06.03 18:47:42.
