data_PCOD9282084
_publ_section_title
;
Structure prediction by ZEFSAII (Michael W. Deem and Ramdas Pophale) SiO2 
 PCOD9282084
Probable space group: C 2/C
;
_chemical_formula_sum "Si O2"
_cell_formula_units_Z 56
_cell_length_a 12.050840
_cell_length_b 13.005750
_cell_length_c 17.113315
_cell_angle_alpha 90.000000
_cell_angle_beta 63.945726
_cell_angle_gamma 90.000000
_cell_volume 2409.606709
_symmetry_space_group_name_H-M "C 2/C"
_symmetry_group_IT_number 15
_symmetry_cell_setting 'monoclinic'
loop_
_space_group_symop_operation_xyz
x,y,z
-x,y,1/2-z
-x,-y,-z
x,-y,1/2+z
1/2+x,1/2+y,z
1/2-x,1/2+y,1/2-z
1/2-x,1/2-y,-z
1/2+x,1/2-y,1/2+z
loop_
_atom_site_type_symbol
_atom_site_label
_atom_site_fract_x
_atom_site_fract_y
_atom_site_fract_z
Si Si1 0.354996 0.328328 0.491985
Si Si2 0.762916 0.371095 0.682603
Si Si3 0.677196 0.546541 0.048416
Si Si4 0.830797 0.558216 0.739332
Si Si5 0.690872 0.188766 0.612484
Si Si6 0.035706 0.066420 0.829513
Si Si7 0.429599 0.265110 0.641435
O O1 0.250000 0.250000 0.500000
O O2 0.292564 0.441131 0.506345
O O3 0.465614 0.340048 0.394561
O O4 0.407359 0.299716 0.560048
O O5 0.727706 0.445499 0.620919
O O6 0.856032 0.441316 0.704261
O O7 0.783917 0.263552 0.631112
O O8 0.651988 0.333588 0.773591
O O9 0.530091 0.529718 0.105730
O O10 0.736544 0.635538 0.979384
O O11 0.864103 0.599620 0.814761
O O12 0.681284 0.563441 0.789478
O O13 0.878859 0.647255 0.666833
O O14 0.571806 0.255150 0.624079
O O15 0.000000 0.065937 0.750000
#
# Coordination Sequence:
#
# PCOD9282084 Si02
#       7
#     8   8   8   8   8   8   8
#     4  10  22  43  71 102 138 186 232 288 346 419
#     4  11  22  41  69  95 139 182 228 287 341 419
#     4  10  23  41  65  99 140 178 236 291 352 410
#     4  11  22  43  67  99 136 185 233 282 349 412
#     4  11  26  43  65 105 147 180 230 292 363 421
#     4  10  21  38  70  96 133 177 235 295 340 401
#     4  11  25  43  69 103 145 185 227 290 356 422
#
# _framework density 23.240307000000001
#
# number of rings (size 3 to 8) (size 9 to 14) (size 15 to 20)
#    0.857    0.571    1.429    4.714    4.000    4.000 
#    0.000    5.714    0.000    1.714    0.000    0.000 
#    0.000    0.000    0.000    0.000    0.000    0.000 
#
# Total GULP energy -156289.264524 kJ/mol
# GULP energy per Si atom -5581.759447 kJ/mol
# Density = 2.318741 g / cm^3
# Si number density = 23.240307 Si / 1000 Ang^3
#
#
#
# Elastic Constant Matrix: (Units=GPa)
#
#
# Indices 1 2 3 4 5 6 
#
# 1 67.3172 31.9557 33.5816 0.0000 13.1543 0.0000
# 2 31.9557 134.4046 59.9233 0.0000 8.1119 0.0000
# 3 33.5816 59.9233 157.0962 0.0000 17.1265 0.0000
# 4 0.0000 0.0000 0.0000 56.6941 0.0000 -1.2086
# 5 13.1543 8.1119 17.1265 0.0000 32.4958 0.0000
# 6 0.0000 0.0000 0.0000 -1.2086 0.0000 42.9634
#
#
#
# Elastic Compliance Matrix: (Units=1/GPa)
#
#
# Indices 1 2 3 4 5 6 
#
# 1 0.018493 -0.003095 -0.002165 0.000000 -0.005572 0.000000
# 2 -0.003095 0.009489 -0.003009 0.000000 0.000470 0.000000
# 3 -0.002165 -0.003009 0.008274 0.000000 -0.002733 0.000000
# 4 0.000000 0.000000 0.000000 0.017649 0.000000 0.000496
# 5 -0.005572 0.000470 -0.002733 0.000000 0.034352 0.000000
# 6 0.000000 0.000000 0.000000 0.000496 0.000000 0.023290
#
#
# Mechanical properties :
#
#
# Convention : Reuss Voigt Hill
#
# Bulk Modulus (GPa) = 50.71596 67.74882 59.23239
# Shear Modulus (GPa) = 37.13068 41.98781 39.55924
#
# Velocity S-wave (km/s) = 4.00144 4.25512 4.13023
# Velocity P-wave (km/s) = 6.57408 7.30453 6.94891
#
# Compressibility (1/GPa) = 0.01971766
#
# Stress axis : x y z
#
# Youngs Moduli (GPa) = 54.07352 105.38016 120.85809
#
# Poissons Ratio (x) = 0.32619 0.26166
# Poissons Ratio (y) = 0.16738 0.36369
# Poissons Ratio (z) = 0.11707 0.31712
#
# Static dielectric constant tensor:
#      x y z
#    x 1.853140 0.000000 -0.004920 
#    y 0.000000 2.019360 0.000000 
#    z -0.004920 0.000000 1.879610 
# 
# From -- ./inp_files/218942.got.cif
#   From: 2010.05.17/outbox.cif.g08.bks.cpg/sg15_110_cif.got.tgz:218942.got - 2010.06.03 18:47:42.
