data_PCOD9282582
_publ_section_title
;
Structure prediction by ZEFSAII (Michael W. Deem and Ramdas Pophale) SiO2 
 PCOD9282582
Probable space group: C 2/C
;
_chemical_formula_sum "Si O2"
_cell_formula_units_Z 40
_cell_length_a 20.898355
_cell_length_b 20.569851
_cell_length_c 9.341837
_cell_angle_alpha 90.000000
_cell_angle_beta 151.905437
_cell_angle_gamma 90.000000
_cell_volume 1891.168407
_symmetry_space_group_name_H-M "C 2/C"
_symmetry_group_IT_number 15
_symmetry_cell_setting 'monoclinic'
loop_
_space_group_symop_operation_xyz
x,y,z
-x,y,1/2-z
-x,-y,-z
x,-y,1/2+z
1/2+x,1/2+y,z
1/2-x,1/2+y,1/2-z
1/2-x,1/2-y,-z
1/2+x,1/2-y,1/2+z
loop_
_atom_site_type_symbol
_atom_site_label
_atom_site_fract_x
_atom_site_fract_y
_atom_site_fract_z
Si Si1 0.829480 0.568767 0.742800
Si Si2 0.134312 0.176516 0.212309
Si Si3 0.362327 0.235325 0.517246
Si Si4 0.852136 0.433048 0.626988
Si Si5 0.164828 0.815974 0.305246
O O1 0.724299 0.620745 0.467850
O O2 0.818609 0.500128 0.640193
O O3 0.815350 0.561085 0.886011
O O4 0.989408 0.585964 0.041648
O O5 0.220951 0.196620 0.243241
O O6 0.124057 0.240029 0.294209
O O7 0.973783 0.164358 0.886950
O O8 0.364673 0.298875 0.420812
O O9 0.500000 0.197113 0.750000
O O10 0.765044 0.375271 0.517873
O O11 0.250000 0.750000 0.500000
#
# Coordination Sequence:
#
# PCOD9282582 Si02
#       5
#     8   8   8   8   8
#     4  10  22  42  65  87 125 171 217 262 314 384
#     4  10  21  39  63  90 118 168 208 251 318 372
#     4   9  20  37  59  90 123 159 200 253 310 375
#     4  10  23  41  62  92 125 168 215 265 319 374
#     4  11  24  38  61  94 130 162 207 263 317 380
#
# _framework density 21.150945
#
# number of rings (size 3 to 8) (size 9 to 14) (size 15 to 20)
#    0.000    2.000    2.000    0.000    8.400    3.200 
#    3.600    0.000    0.000    0.000    0.000    0.000 
#    0.000    0.000    0.000    0.000    0.000    0.000 
#
# Total GULP energy -111400.776101 kJ/mol
# GULP energy per Si atom -5570.038805 kJ/mol
# Density = 2.110280 g / cm^3
# Si number density = 21.150945 Si / 1000 Ang^3
#
#
#
# Elastic Constant Matrix: (Units=GPa)
#
#
# Indices 1 2 3 4 5 6 
#
# 1 81.2111 50.7581 70.1541 0.0000 41.1006 0.0000
# 2 50.7581 95.7350 98.2110 0.0000 29.1594 0.0000
# 3 70.1541 98.2110 157.9776 0.0000 34.7555 0.0000
# 4 0.0000 0.0000 0.0000 45.5979 0.0000 -0.2011
# 5 41.1006 29.1594 34.7555 0.0000 43.6447 0.0000
# 6 0.0000 0.0000 0.0000 -0.2011 0.0000 30.5487
#
#
#
# Elastic Compliance Matrix: (Units=1/GPa)
#
#
# Indices 1 2 3 4 5 6 
#
# 1 0.031582 -0.001679 -0.008104 0.000000 -0.022165 0.000000
# 2 -0.001679 0.030305 -0.016959 0.000000 -0.005161 0.000000
# 3 -0.008104 -0.016959 0.019762 0.000000 0.003225 0.000000
# 4 0.000000 0.000000 0.000000 0.021931 0.000000 0.000144
# 5 -0.022165 -0.005161 0.003225 0.000000 0.044665 0.000000
# 6 0.000000 0.000000 0.000000 0.000144 0.000000 0.032736
#
#
# Mechanical properties :
#
#
# Convention : Reuss Voigt Hill
#
# Bulk Modulus (GPa) = 35.50596 85.90777 60.70686
# Shear Modulus (GPa) = 20.50395 31.67829 26.09112
#
# Velocity S-wave (km/s) = 3.11691 3.87424 3.51603
# Velocity P-wave (km/s) = 5.45682 7.79216 6.72661
#
# Compressibility (1/GPa) = 0.02816429
#
# Stress axis : x y z
#
# Youngs Moduli (GPa) = 31.66383 32.99734 50.60106
#
# Poissons Ratio (x) = 0.05542 0.41008
# Poissons Ratio (y) = 0.05318 0.85814
# Poissons Ratio (z) = 0.25661 0.55960
#
# Static dielectric constant tensor:
#      x y z
#    x 1.900070 0.000000 0.029180 
#    y 0.000000 1.708370 0.000000 
#    z 0.029180 0.000000 1.978910 
# 
# From -- ./inp_files/119905.got.cif
#   From: 2010.05.17/outbox.cif.g08.bks.cpg/sg15_60_cif.got.tgz:119905.got - 2010.06.03 18:47:42.
