data_PCOD9282860
_publ_section_title
;
Structure prediction by ZEFSAII (Michael W. Deem and Ramdas Pophale) SiO2 
 PCOD9282860
Probable space group: C 2/C
;
_chemical_formula_sum "Si O2"
_cell_formula_units_Z 60
_cell_length_a 6.351829
_cell_length_b 31.084704
_cell_length_c 16.659247
_cell_angle_alpha 90.000000
_cell_angle_beta 72.851147
_cell_angle_gamma 90.000000
_cell_volume 3143.045455
_symmetry_space_group_name_H-M "C 2/C"
_symmetry_group_IT_number 15
_symmetry_cell_setting 'monoclinic'
loop_
_space_group_symop_operation_xyz
x,y,z
-x,y,1/2-z
-x,-y,-z
x,-y,1/2+z
1/2+x,1/2+y,z
1/2-x,1/2+y,1/2-z
1/2-x,1/2-y,-z
1/2+x,1/2-y,1/2+z
loop_
_atom_site_type_symbol
_atom_site_label
_atom_site_fract_x
_atom_site_fract_y
_atom_site_fract_z
Si Si1 0.546832 0.435715 0.026207
Si Si2 0.725418 0.450822 0.185570
Si Si3 0.380760 0.191772 0.891621
Si Si4 0.000000 0.619130 0.750000
Si Si5 0.873891 0.501215 0.928983
Si Si6 0.903846 0.708974 0.462523
Si Si7 0.501993 0.340624 0.975576
Si Si8 0.358976 0.712682 0.341346
O O1 0.655072 0.434991 0.103554
O O2 0.322421 0.463715 0.054054
O O3 0.729389 0.457435 0.946744
O O4 0.476139 0.389762 0.000970
O O5 0.500000 0.468624 0.250000
O O6 0.814497 0.412074 0.232146
O O7 0.929140 0.484427 0.152923
O O8 0.434072 0.151863 0.828625
O O9 0.437651 0.238664 0.851549
O O10 0.499496 0.192031 0.964193
O O11 0.123596 0.187032 0.942116
O O12 0.000000 0.500000 0.000000
O O13 0.750000 0.750000 0.500000
O O14 0.754928 0.671226 0.446082
O O15 0.095363 0.717712 0.376459
O O16 0.407525 0.322320 0.904040
O O17 0.500000 0.698820 0.250000
#
# Coordination Sequence:
#
# PCOD9282860 Si02
#       8
#     8   8   8   4   8   8   8   8
#     4  10  21  39  65  92 119 163 213 259 309 377
#     4  11  21  36  57  92 133 165 196 254 320 380
#     4  11  21  36  56  87 124 161 204 255 306 372
#     4  12  24  36  58  94 138 166 198 256 324 376
#     4   9  20  39  65  90 119 155 201 248 318 380
#     4  11  20  38  62  84 112 165 216 247 303 369
#     4  11  21  38  62  86 119 158 210 258 303 364
#     4  11  23  39  56  82 121 162 206 261 308 360
#
# _framework density 19.089766000000001
#
# number of rings (size 3 to 8) (size 9 to 14) (size 15 to 20)
#    0.000    1.333    3.333    4.000    0.000    3.733 
#    0.000    1.333    0.000   25.600    0.000    0.000 
#    0.000    0.000    0.000    0.000    0.000    0.000 
#
# Total GULP energy -167060.345877 kJ/mol
# GULP energy per Si atom -5568.678196 kJ/mol
# Density = 1.904632 g / cm^3
# Si number density = 19.089766 Si / 1000 Ang^3
#
#
#
# Elastic Constant Matrix: (Units=GPa)
#
#
# Indices 1 2 3 4 5 6 
#
# 1 95.0377 27.1950 37.1280 0.0000 -13.2707 0.0000
# 2 27.1950 75.2942 35.1986 0.0000 4.3453 0.0000
# 3 37.1280 35.1986 110.6468 0.0000 -25.4790 0.0000
# 4 0.0000 0.0000 0.0000 51.9391 0.0000 -25.2247
# 5 -13.2707 4.3453 -25.4790 0.0000 31.8253 0.0000
# 6 0.0000 0.0000 0.0000 -25.2247 0.0000 59.9329
#
#
#
# Elastic Compliance Matrix: (Units=1/GPa)
#
#
# Indices 1 2 3 4 5 6 
#
# 1 0.013096 -0.003976 -0.002142 0.000000 0.004289 0.000000
# 2 -0.003976 0.018412 -0.006723 0.000000 -0.009554 0.000000
# 3 -0.002142 -0.006723 0.014591 0.000000 0.011706 0.000000
# 4 0.000000 0.000000 0.000000 0.024200 0.000000 0.010185
# 5 0.004289 -0.009554 0.011706 0.000000 0.043886 0.000000
# 6 0.000000 0.000000 0.000000 0.010185 0.000000 0.020972
#
#
# Mechanical properties :
#
#
# Convention : Reuss Voigt Hill
#
# Bulk Modulus (GPa) = 48.98083 53.33579 51.15831
# Shear Modulus (GPa) = 29.82535 40.83662 35.33098
#
# Velocity S-wave (km/s) = 3.95698 4.63015 4.30674
# Velocity P-wave (km/s) = 6.82574 7.52227 7.18245
#
# Compressibility (1/GPa) = 0.02041615
#
# Stress axis : x y z
#
# Youngs Moduli (GPa) = 76.36207 54.31380 68.53701
#
# Poissons Ratio (x) = 0.21596 0.14679
# Poissons Ratio (y) = 0.30363 0.46076
# Poissons Ratio (z) = 0.16355 0.36514
#
# Static dielectric constant tensor:
#      x y z
#    x 1.702350 0.000000 -0.006390 
#    y 0.000000 1.709750 0.000000 
#    z -0.006390 0.000000 1.607260 
# 
# From -- ./inp_files/186708.got.cif
#   From: 2010.05.17/outbox.cif.g08.bks.cpg/sg15_94_cif.got.tgz:186708.got - 2010.06.03 18:47:42.
