data_PCOD9282739
_publ_section_title
;
Structure prediction by ZEFSAII (Michael W. Deem and Ramdas Pophale) SiO2 
 PCOD9282739
Probable space group: C 2/C
;
_chemical_formula_sum "Si O2"
_cell_formula_units_Z 44
_cell_length_a 14.344509
_cell_length_b 23.694564
_cell_length_c 9.058611
_cell_angle_alpha 90.000000
_cell_angle_beta 137.843929
_cell_angle_gamma 90.000000
_cell_volume 2066.413237
_symmetry_space_group_name_H-M "C 2/C"
_symmetry_group_IT_number 15
_symmetry_cell_setting 'monoclinic'
loop_
_space_group_symop_operation_xyz
x,y,z
-x,y,1/2-z
-x,-y,-z
x,-y,1/2+z
1/2+x,1/2+y,z
1/2-x,1/2+y,1/2-z
1/2-x,1/2-y,-z
1/2+x,1/2-y,1/2+z
loop_
_atom_site_type_symbol
_atom_site_label
_atom_site_fract_x
_atom_site_fract_y
_atom_site_fract_z
Si Si1 0.218866 0.682400 0.333199
Si Si2 0.855616 0.920019 0.112188
Si Si3 0.164451 0.306375 0.435349
Si Si4 0.729051 0.498454 0.243479
Si Si5 0.000000 0.249380 0.750000
Si Si6 0.850675 0.573850 0.648207
O O1 0.234422 0.624706 0.443150
O O2 0.077986 0.713671 0.217067
O O3 0.362461 0.717235 0.527242
O O4 0.208359 0.671894 0.148208
O O5 0.851301 0.948899 0.265764
O O6 0.000000 0.889562 0.250000
O O7 0.846808 0.967156 0.973921
O O8 0.250000 0.250000 0.500000
O O9 0.194171 0.361703 0.369821
O O10 0.000000 0.293461 0.250000
O O11 0.768069 0.541128 0.421049
O O12 0.847397 0.465217 0.289628
O O13 0.000000 0.579534 0.750000
#
# Coordination Sequence:
#
# PCOD9282739 Si02
#       6
#     8   8   8   8   4   8
#     4  11  22  43  65  95 128 168 216 270 324 384
#     4  11  22  41  65  92 130 165 212 270 323 390
#     4  11  24  43  64  92 131 170 217 265 323 389
#     4  10  22  40  62  95 123 166 215 259 331 382
#     4  10  24  40  68  92 126 168 218 266 324 388
#     4  10  21  39  64  91 128 163 210 264 322 387
#
# _framework density 21.292933999999999
#
# number of rings (size 3 to 8) (size 9 to 14) (size 15 to 20)
#    0.000    1.455    2.727    2.182    0.000    5.818 
#    9.818    0.909    0.000    0.000    0.000    0.000 
#    0.000    0.000    0.000    0.000    0.000    0.000 
#
# Total GULP energy -122588.249263 kJ/mol
# GULP energy per Si atom -5572.193148 kJ/mol
# Density = 2.124447 g / cm^3
# Si number density = 21.292934 Si / 1000 Ang^3
#
#
#
# Elastic Constant Matrix: (Units=GPa)
#
#
# Indices 1 2 3 4 5 6 
#
# 1 76.9030 41.2678 16.4936 0.0000 12.3848 0.0000
# 2 41.2678 104.8967 9.4070 0.0000 10.6753 0.0000
# 3 16.4936 9.4070 35.4606 0.0000 5.4529 0.0000
# 4 0.0000 0.0000 0.0000 23.8920 0.0000 3.3798
# 5 12.3848 10.6753 5.4529 0.0000 27.1944 0.0000
# 6 0.0000 0.0000 0.0000 3.3798 0.0000 31.7509
#
#
#
# Elastic Compliance Matrix: (Units=1/GPa)
#
#
# Indices 1 2 3 4 5 6 
#
# 1 0.018425 -0.006214 -0.006198 0.000000 -0.004709 0.000000
# 2 -0.006214 0.012179 -0.000042 0.000000 -0.001943 0.000000
# 3 -0.006198 -0.000042 0.031633 0.000000 -0.003504 0.000000
# 4 0.000000 0.000000 0.000000 0.042495 0.000000 -0.004524
# 5 -0.004709 -0.001943 -0.003504 0.000000 0.040382 0.000000
# 6 0.000000 0.000000 0.000000 -0.004524 0.000000 0.031977
#
#
# Mechanical properties :
#
#
# Convention : Reuss Voigt Hill
#
# Bulk Modulus (GPa) = 26.78744 39.06634 32.92689
# Shear Modulus (GPa) = 23.31634 26.57358 24.94496
#
# Velocity S-wave (km/s) = 3.31271 3.53654 3.42645
# Velocity P-wave (km/s) = 5.21918 5.92141 5.58135
#
# Compressibility (1/GPa) = 0.03733094
#
# Stress axis : x y z
#
# Youngs Moduli (GPa) = 54.27273 82.10691 31.61265
#
# Poissons Ratio (x) = 0.51019 0.19592
# Poissons Ratio (y) = 0.33724 0.00133
# Poissons Ratio (z) = 0.33636 0.00345
#
# Static dielectric constant tensor:
#      x y z
#    x 1.765120 0.000000 0.003730 
#    y 0.000000 1.822130 0.000000 
#    z 0.003730 0.000000 1.811540 
# 
# From -- ./inp_files/43698.got.cif
#   From: 2010.05.17/outbox.cif.g08.bks.cpg/sg15_22_cif.got.tgz:43698.got - 2010.06.03 18:47:42.
