data_PCOD9282386
_publ_section_title
;
Structure prediction by ZEFSAII (Michael W. Deem and Ramdas Pophale) SiO2 
 PCOD9282386
Probable space group: C 2/C
;
_chemical_formula_sum "Si O2"
_cell_formula_units_Z 48
_cell_length_a 22.694046
_cell_length_b 20.470229
_cell_length_c 13.607001
_cell_angle_alpha 90.000000
_cell_angle_beta 23.114401
_cell_angle_gamma 90.000000
_cell_volume 2481.488530
_symmetry_space_group_name_H-M "C 2/C"
_symmetry_group_IT_number 15
_symmetry_cell_setting 'monoclinic'
loop_
_space_group_symop_operation_xyz
x,y,z
-x,y,1/2-z
-x,-y,-z
x,-y,1/2+z
1/2+x,1/2+y,z
1/2-x,1/2+y,1/2-z
1/2-x,1/2-y,-z
1/2+x,1/2-y,1/2+z
loop_
_atom_site_type_symbol
_atom_site_label
_atom_site_fract_x
_atom_site_fract_y
_atom_site_fract_z
Si Si1 0.949808 0.710400 0.721127
Si Si2 0.424816 0.946269 0.969905
Si Si3 0.618223 0.335061 0.782873
Si Si4 0.399030 0.596283 0.990671
Si Si5 0.062710 0.049167 0.043174
Si Si6 0.928418 0.583985 0.054494
O O1 0.962964 0.767759 0.621684
O O2 0.000000 0.737294 0.750000
O O3 0.049140 0.649151 0.540625
O O4 0.783179 0.679344 0.985526
O O5 0.500000 0.928333 0.750000
O O6 0.488236 0.910029 0.969402
O O7 0.242731 0.940346 0.250222
O O8 0.476129 0.020849 0.917710
O O9 0.628102 0.352416 0.881889
O O10 0.532669 0.397081 0.868642
O O11 0.463135 0.528238 0.937463
O O12 0.248639 0.574400 0.164784
O O13 0.500000 0.624267 0.750000
O O14 0.000000 0.057118 0.250000
#
# Coordination Sequence:
#
# PCOD9282386 Si02
#       6
#     8   8   8   8   8   8
#     4  11  22  40  64  90 122 162 211 257 308 368
#     4  10  22  37  64  94 124 164 207 259 313 370
#     4  11  23  38  65  91 120 164 210 258 305 372
#     4  10  22  39  61  90 124 163 203 253 317 373
#     4  10  21  39  61  95 128 159 204 264 310 370
#     4  10  21  40  61  88 127 161 205 254 311 372
#
# _framework density 19.343229000000001
#
# number of rings (size 3 to 8) (size 9 to 14) (size 15 to 20)
#    0.000    1.667    1.667    2.500    4.667    2.667 
#    0.000    1.667    0.000    0.000    0.000    0.000 
#    0.000    0.000    0.000    0.000    0.000    0.000 
#
# Total GULP energy -133731.189779 kJ/mol
# GULP energy per Si atom -5572.132907 kJ/mol
# Density = 1.929920 g / cm^3
# Si number density = 19.343229 Si / 1000 Ang^3
#
#
#
# Elastic Constant Matrix: (Units=GPa)
#
#
# Indices 1 2 3 4 5 6 
#
# 1 77.8477 30.6167 28.7934 0.0217 5.1592 -0.0120
# 2 30.6167 63.2808 22.5871 0.0638 0.5650 -0.0312
# 3 28.7934 22.5871 81.4820 0.0315 13.2378 -0.0152
# 4 0.0217 0.0638 0.0315 -90.5789 -0.0123 59.6446
# 5 5.1592 0.5650 13.2378 -0.0123 21.6059 0.0065
# 6 -0.0120 -0.0312 -0.0152 59.6446 0.0065 -3.4711
#
#
#
# Elastic Compliance Matrix: (Units=1/GPa)
#
#
# Indices 1 2 3 4 5 6 
#
# 1 0.017084 -0.006864 -0.003887 -0.000001 -0.001518 0.000002
# 2 -0.006864 0.020450 -0.003801 0.000008 0.003433 -0.000005
# 3 -0.003887 -0.003801 0.016140 0.000002 -0.008861 -0.000001
# 4 -0.000001 0.000008 0.000002 0.001070 -0.000006 0.018391
# 5 -0.001518 0.003433 -0.008861 -0.000006 0.051985 0.000003
# 6 0.000002 -0.000005 -0.000001 0.018391 0.000003 0.027930
#
#
# Mechanical properties :
#
#
# Convention : Reuss Voigt Hill
#
# Bulk Modulus (GPa) = 40.70385 42.95610 41.82997
# Shear Modulus (GPa) = 29.07767 -5.11462 11.98152
#
# Velocity S-wave (km/s) = 3.88138 -1.62784 2.49151
# Velocity P-wave (km/s) = 6.41681 4.32693 5.47256
#
# Compressibility (1/GPa) = 0.02456770
#
# Stress axis : x y z
#
# Youngs Moduli (GPa) = 58.53516 48.90044 61.95972
#
# Poissons Ratio (x) = 0.33567 0.24086
# Poissons Ratio (y) = 0.40181 0.23550
# Poissons Ratio (z) = 0.22755 0.18586
#
# Static dielectric constant tensor:
#      x y z
#    x 1.829600 0.000000 -0.083640 
#    y 0.000000 1.674760 0.000000 
#    z -0.083640 0.000000 1.708960 
# 
# From -- ./inp_files/114181.got.cif
#   From: 2010.05.17/outbox.cif.g08.bks.cpg/sg15_58_cif.got.tgz:114181.got - 2010.06.03 18:47:42.
