data_PCOD9282064
_publ_section_title
;
Structure prediction by ZEFSAII (Michael W. Deem and Ramdas Pophale) SiO2 
 PCOD9282064
Probable space group: C 2/C
;
_chemical_formula_sum "Si O2"
_cell_formula_units_Z 56
_cell_length_a 7.917545
_cell_length_b 30.489759
_cell_length_c 13.501149
_cell_angle_alpha 90.000000
_cell_angle_beta 127.277250
_cell_angle_gamma 90.000000
_cell_volume 2593.416560
_symmetry_space_group_name_H-M "C 2/C"
_symmetry_group_IT_number 15
_symmetry_cell_setting 'monoclinic'
loop_
_space_group_symop_operation_xyz
x,y,z
-x,y,1/2-z
-x,-y,-z
x,-y,1/2+z
1/2+x,1/2+y,z
1/2-x,1/2+y,1/2-z
1/2-x,1/2-y,-z
1/2+x,1/2-y,1/2+z
loop_
_atom_site_type_symbol
_atom_site_label
_atom_site_fract_x
_atom_site_fract_y
_atom_site_fract_z
Si Si1 0.527142 0.579992 0.954635
Si Si2 0.758288 0.750709 0.624099
Si Si3 0.623031 0.891649 0.075837
Si Si4 0.826601 0.474245 0.277400
Si Si5 0.780704 0.566284 0.227901
Si Si6 0.745829 0.846773 0.662030
Si Si7 0.247779 0.657580 0.808956
O O1 0.732403 0.598502 0.968696
O O2 0.393935 0.545804 0.842086
O O3 0.375435 0.621600 0.915616
O O4 0.596042 0.559845 0.082601
O O5 0.750000 0.750000 0.500000
O O6 0.666199 0.796345 0.633920
O O7 0.664490 0.705720 0.634948
O O8 0.000000 0.749562 0.750000
O O9 0.593860 0.938805 0.115945
O O10 0.749229 0.859852 0.196572
O O11 0.398862 0.868981 0.973874
O O12 0.785282 0.523750 0.300284
O O13 0.000000 0.473767 0.250000
O O14 0.776494 0.615838 0.263462
O O15 0.000000 0.562639 0.250000
O O16 0.000000 0.842804 0.750000
O O17 0.000000 0.656003 0.750000
#
# Coordination Sequence:
#
# PCOD9282064 Si02
#       7
#     8   8   8   8   8   8   8
#     4  11  22  40  66  88 131 162 206 261 319 373
#     4  10  22  40  64  96 130 163 212 269 317 368
#     4  11  22  42  63  93 125 164 212 259 314 379
#     4  10  23  40  66  90 118 167 215 259 306 372
#     4  11  24  44  57  93 131 166 201 262 323 373
#     4  11  25  39  65  92 125 166 211 262 316 372
#     4  10  21  38  69  93 121 162 214 259 305 373
#
# _framework density 21.593139000000001
#
# number of rings (size 3 to 8) (size 9 to 14) (size 15 to 20)
#    0.000    1.429    1.429    5.571    8.000    1.714 
#    0.000    2.143    0.000    0.000    0.000    0.000 
#    0.000    0.000    0.000    0.000    0.000    0.000 
#
# Total GULP energy -156097.905301 kJ/mol
# GULP energy per Si atom -5574.925189 kJ/mol
# Density = 2.154399 g / cm^3
# Si number density = 21.593139 Si / 1000 Ang^3
#
#
#
# Elastic Constant Matrix: (Units=GPa)
#
#
# Indices 1 2 3 4 5 6 
#
# 1 42.1064 34.0141 5.0700 0.0000 4.8466 0.0000
# 2 34.0141 176.0563 19.2369 0.0000 -4.6214 0.0000
# 3 5.0700 19.2369 91.7010 0.0000 10.8205 0.0000
# 4 0.0000 0.0000 0.0000 36.2162 0.0000 25.2042
# 5 4.8466 -4.6214 10.8205 0.0000 24.9644 0.0000
# 6 0.0000 0.0000 0.0000 25.2042 0.0000 82.8238
#
#
#
# Elastic Compliance Matrix: (Units=1/GPa)
#
#
# Indices 1 2 3 4 5 6 
#
# 1 0.029248 -0.005881 0.000438 0.000000 -0.006957 0.000000
# 2 -0.005881 0.007064 -0.001524 0.000000 0.003110 0.000000
# 3 0.000438 -0.001524 0.011850 0.000000 -0.005503 0.000000
# 4 0.000000 0.000000 0.000000 0.035031 0.000000 -0.010660
# 5 -0.006957 0.003110 -0.005503 0.000000 0.044369 0.000000
# 6 0.000000 0.000000 0.000000 -0.010660 0.000000 0.015318
#
#
# Mechanical properties :
#
#
# Convention : Reuss Voigt Hill
#
# Bulk Modulus (GPa) = 29.21613 47.38950 38.30282
# Shear Modulus (GPa) = 29.72228 45.57038 37.64633
#
# Velocity S-wave (km/s) = 3.71410 4.59890 4.17998
# Velocity P-wave (km/s) = 5.65265 7.08478 6.40884
#
# Compressibility (1/GPa) = 0.03422767
#
# Stress axis : x y z
#
# Youngs Moduli (GPa) = 34.18999 141.55524 84.38940
#
# Poissons Ratio (x) = 0.83251 -0.03692
# Poissons Ratio (y) = 0.20108 0.12859
# Poissons Ratio (z) = -0.01496 0.21570
#
# Static dielectric constant tensor:
#      x y z
#    x 1.800660 0.000000 -0.021200 
#    y 0.000000 1.861230 0.000000 
#    z -0.021200 0.000000 1.841190 
# 
# From -- ./inp_files/139555.got.cif
#   From: 2010.05.17/outbox.cif.g08.bks.cpg/sg15_70_cif.got.tgz:139555.got - 2010.06.03 18:47:42.
