data_PCOD9282533
_publ_section_title
;
Structure prediction by ZEFSAII (Michael W. Deem and Ramdas Pophale) SiO2 
 PCOD9282533
Probable space group: C 2/C
;
_chemical_formula_sum "Si O2"
_cell_formula_units_Z 52
_cell_length_a 18.260430
_cell_length_b 11.978378
_cell_length_c 12.392290
_cell_angle_alpha 90.000000
_cell_angle_beta 53.979768
_cell_angle_gamma 90.000000
_cell_volume 2192.334235
_symmetry_space_group_name_H-M "C 2/C"
_symmetry_group_IT_number 15
_symmetry_cell_setting 'monoclinic'
loop_
_space_group_symop_operation_xyz
x,y,z
-x,y,1/2-z
-x,-y,-z
x,-y,1/2+z
1/2+x,1/2+y,z
1/2-x,1/2+y,1/2-z
1/2-x,1/2-y,-z
1/2+x,1/2-y,1/2+z
loop_
_atom_site_type_symbol
_atom_site_label
_atom_site_fract_x
_atom_site_fract_y
_atom_site_fract_z
Si Si1 0.405822 0.465597 0.522792
Si Si2 0.312045 0.304430 0.104468
Si Si3 0.386530 0.817859 0.743855
Si Si4 0.500000 0.555392 0.250000
Si Si5 0.386895 0.756635 0.312087
Si Si6 0.084581 0.552844 0.863606
Si Si7 0.103598 0.720989 0.020609
O O1 0.500000 0.500000 0.500000
O O2 0.334061 0.564452 0.601142
O O3 0.434363 0.478004 0.373335
O O4 0.377014 0.337799 0.555427
O O5 0.333961 0.247704 0.197845
O O6 0.212850 0.276281 0.147787
O O7 0.375401 0.256269 0.951821
O O8 0.361265 0.788553 0.888102
O O9 0.493647 0.790703 0.630174
O O10 0.370706 0.948738 0.734889
O O11 0.436064 0.640827 0.239427
O O12 0.439329 0.857364 0.208152
O O13 0.134688 0.620790 0.915315
O O14 0.000000 0.500000 0.000000
#
# Coordination Sequence:
#
# PCOD9282533 Si02
#       7
#     8   8   8   4   8   8   8
#     4  11  20  37  66  99 130 172 220 274 350 411
#     4  10  23  43  66  97 135 179 221 294 350 416
#     4  10  21  39  63  91 136 168 225 283 340 409
#     4  10  22  36  70  90 120 180 220 280 334 410
#     4  10  23  43  65  98 130 172 239 280 344 424
#     4  10  23  40  66  95 126 181 222 286 341 410
#     4  10  21  39  63 101 129 170 230 281 335 421
#
# _framework density 23.719011999999999
#
# number of rings (size 3 to 8) (size 9 to 14) (size 15 to 20)
#    0.000    1.846    1.538    1.846    8.615    1.231 
#    5.538    2.308    0.000    0.000    0.000    0.000 
#    0.000    0.000    0.000    0.000    0.000    0.000 
#
# Total GULP energy -145269.167582 kJ/mol
# GULP energy per Si atom -5587.275676 kJ/mol
# Density = 2.366503 g / cm^3
# Si number density = 23.719012 Si / 1000 Ang^3
#
#
#
# Elastic Constant Matrix: (Units=GPa)
#
#
# Indices 1 2 3 4 5 6 
#
# 1 115.0558 35.2547 40.6669 0.0000 18.0192 0.0000
# 2 35.2547 144.2361 45.9833 0.0000 23.7663 0.0000
# 3 40.6669 45.9833 98.6336 0.0000 31.0694 0.0000
# 4 0.0000 0.0000 0.0000 41.9538 0.0000 8.6903
# 5 18.0192 23.7663 31.0694 0.0000 50.2218 0.0000
# 6 0.0000 0.0000 0.0000 8.6903 0.0000 24.5986
#
#
#
# Elastic Compliance Matrix: (Units=1/GPa)
#
#
# Indices 1 2 3 4 5 6 
#
# 1 0.010446 -0.001307 -0.003368 0.000000 -0.001046 0.000000
# 2 -0.001307 0.008451 -0.002843 0.000000 -0.001771 0.000000
# 3 -0.003368 -0.002843 0.014964 0.000000 -0.006704 0.000000
# 4 0.000000 0.000000 0.000000 0.025718 0.000000 -0.009086
# 5 -0.001046 -0.001771 -0.006704 0.000000 0.025272 0.000000
# 6 0.000000 0.000000 0.000000 -0.009086 0.000000 0.043863
#
#
# Mechanical properties :
#
#
# Convention : Reuss Voigt Hill
#
# Bulk Modulus (GPa) = 53.12127 66.85948 59.99038
# Shear Modulus (GPa) = 33.32768 39.08953 36.20861
#
# Velocity S-wave (km/s) = 3.75254 4.06399 3.91137
# Velocity P-wave (km/s) = 6.42029 7.09018 6.76353
#
# Compressibility (1/GPa) = 0.01882485
#
# Stress axis : x y z
#
# Youngs Moduli (GPa) = 95.72809 118.33221 66.82602
#
# Poissons Ratio (x) = 0.15468 0.22508
# Poissons Ratio (y) = 0.12514 0.18997
# Poissons Ratio (z) = 0.32243 0.33640
#
# Static dielectric constant tensor:
#      x y z
#    x 1.956140 0.000000 -0.016570 
#    y 0.000000 1.895940 0.000000 
#    z -0.016570 0.000000 2.023590 
# 
# From -- ./inp_files/111516.got.cif
#   From: 2010.05.17/outbox.cif.g08.bks.cpg/sg15_56_cif.got.tgz:111516.got - 2010.06.03 18:47:42.
