data_PCOD9282979
_publ_section_title
;
Structure prediction by ZEFSAII (Michael W. Deem and Ramdas Pophale) SiO2 
 PCOD9282979
Probable space group: C 2/C
;
_chemical_formula_sum "Si O2"
_cell_formula_units_Z 60
_cell_length_a 16.375513
_cell_length_b 10.774127
_cell_length_c 17.411897
_cell_angle_alpha 90.000000
_cell_angle_beta 86.852641
_cell_angle_gamma 90.000000
_cell_volume 3067.379582
_symmetry_space_group_name_H-M "C 2/C"
_symmetry_group_IT_number 15
_symmetry_cell_setting 'monoclinic'
loop_
_space_group_symop_operation_xyz
x,y,z
-x,y,1/2-z
-x,-y,-z
x,-y,1/2+z
1/2+x,1/2+y,z
1/2-x,1/2+y,1/2-z
1/2-x,1/2-y,-z
1/2+x,1/2-y,1/2+z
loop_
_atom_site_type_symbol
_atom_site_label
_atom_site_fract_x
_atom_site_fract_y
_atom_site_fract_z
Si Si1 0.455230 0.951432 0.078884
Si Si2 0.367049 0.561439 0.718207
Si Si3 0.208331 0.381244 0.492693
Si Si4 0.861214 0.353871 0.687692
Si Si5 0.693067 0.444894 0.619230
Si Si6 0.697054 0.011315 0.159678
Si Si7 0.500000 0.397516 0.750000
Si Si8 0.906153 0.275047 0.360150
O O1 0.517295 0.852681 0.112850
O O2 0.428105 0.065962 0.135920
O O3 0.371070 0.885305 0.057734
O O4 0.500000 0.000000 0.000000
O O5 0.375021 0.706912 0.698287
O O6 0.345725 0.529978 0.809774
O O7 0.292086 0.500342 0.676250
O O8 0.451012 0.488869 0.696398
O O9 0.250000 0.250000 0.500000
O O10 0.274426 0.470761 0.450417
O O11 0.183804 0.430259 0.577452
O O12 0.773687 0.378702 0.650959
O O13 0.850549 0.414010 0.772227
O O14 0.634186 0.336661 0.589500
O O15 0.661726 0.873376 0.158789
O O16 0.566447 0.304282 0.713881
#
# Coordination Sequence:
#
# PCOD9282979 Si02
#       8
#     8   8   8   8   8   8   4   8
#     4  11  24  42  61  93 126 162 202 257 310 358
#     4  10  21  40  61  95 120 158 209 257 302 367
#     4  11  24  42  63  90 123 163 206 254 303 369
#     4  10  21  39  66  90 122 159 208 255 298 364
#     4   9  21  40  64  89 122 168 201 251 308 365
#     4  11  22  37  67  91 116 165 210 243 308 369
#     4  10  24  38  64  90 128 158 198 266 312 348
#     4  11  21  41  60  89 123 160 205 246 309 370
#
# _framework density 19.560669999999998
#
# number of rings (size 3 to 8) (size 9 to 14) (size 15 to 20)
#    0.000    1.600    2.667    1.600    1.867    2.667 
#    4.800    0.667    0.000    0.000    0.000    0.000 
#    0.000    0.000    0.000    0.000    0.000    0.000 
#
# Total GULP energy -167315.798541 kJ/mol
# GULP energy per Si atom -5577.193285 kJ/mol
# Density = 1.951615 g / cm^3
# Si number density = 19.560670 Si / 1000 Ang^3
#
#
#
# Elastic Constant Matrix: (Units=GPa)
#
#
# Indices 1 2 3 4 5 6 
#
# 1 63.0170 20.4555 -9.1784 0.0000 10.6605 0.0000
# 2 20.4555 119.4109 15.5481 0.0000 3.7910 0.0000
# 3 -9.1784 15.5481 51.4182 0.0000 -1.3328 0.0000
# 4 0.0000 0.0000 0.0000 26.7808 0.0000 -0.8368
# 5 10.6605 3.7910 -1.3328 0.0000 24.4408 0.0000
# 6 0.0000 0.0000 0.0000 -0.8368 0.0000 47.9866
#
#
#
# Elastic Compliance Matrix: (Units=1/GPa)
#
#
# Indices 1 2 3 4 5 6 
#
# 1 0.018905 -0.003556 0.004256 0.000000 -0.007462 0.000000
# 2 -0.003556 0.009442 -0.003492 0.000000 -0.000104 0.000000
# 3 0.004256 -0.003492 0.021260 0.000000 -0.000156 0.000000
# 4 0.000000 0.000000 0.000000 0.037361 0.000000 0.000651
# 5 -0.007462 -0.000104 -0.000156 0.000000 0.044178 0.000000
# 6 0.000000 0.000000 0.000000 0.000651 0.000000 0.020851
#
#
# Mechanical properties :
#
#
# Convention : Reuss Voigt Hill
#
# Bulk Modulus (GPa) = 22.71510 31.94405 27.32958
# Shear Modulus (GPa) = 29.02687 33.64302 31.33494
#
# Velocity S-wave (km/s) = 3.85637 4.15171 4.00676
# Velocity P-wave (km/s) = 5.60952 6.27283 5.95042
#
# Compressibility (1/GPa) = 0.04402358
#
# Stress axis : x y z
#
# Youngs Moduli (GPa) = 52.89510 105.91409 47.03620
#
# Poissons Ratio (x) = 0.37662 -0.20021
# Poissons Ratio (y) = 0.18809 0.16427
# Poissons Ratio (z) = -0.22515 0.36990
#
# Static dielectric constant tensor:
#      x y z
#    x 1.732080 0.000000 -0.039510 
#    y 0.000000 1.645460 0.000000 
#    z -0.039510 0.000000 1.683190 
# 
# From -- ./inp_files/209593.got.cif
#   From: 2010.05.17/outbox.cif.g08.bks.cpg/sg15_105_cif.got.tgz:209593.got - 2010.06.03 18:47:42.
