data_PCOD9282487
_publ_section_title
;
Structure prediction by ZEFSAII (Michael W. Deem and Ramdas Pophale) SiO2 
 PCOD9282487
Probable space group: C 2/C
;
_chemical_formula_sum "Si O2"
_cell_formula_units_Z 52
_cell_length_a 18.215391
_cell_length_b 25.419405
_cell_length_c 5.347028
_cell_angle_alpha 90.000000
_cell_angle_beta 114.421274
_cell_angle_gamma 90.000000
_cell_volume 2254.294739
_symmetry_space_group_name_H-M "C 2/C"
_symmetry_group_IT_number 15
_symmetry_cell_setting 'monoclinic'
loop_
_space_group_symop_operation_xyz
x,y,z
-x,y,1/2-z
-x,-y,-z
x,-y,1/2+z
1/2+x,1/2+y,z
1/2-x,1/2+y,1/2-z
1/2-x,1/2-y,-z
1/2+x,1/2-y,1/2+z
loop_
_atom_site_type_symbol
_atom_site_label
_atom_site_fract_x
_atom_site_fract_y
_atom_site_fract_z
Si Si1 0.450074 0.124195 0.931077
Si Si2 0.919170 0.741166 0.762478
Si Si3 0.807284 0.784298 0.248353
Si Si4 0.000000 0.095528 0.250000
Si Si5 0.264054 0.119193 0.591358
Si Si6 0.850310 0.032924 0.844801
Si Si7 0.873359 0.847786 0.942658
O O1 0.500000 0.112606 0.750000
O O2 0.440379 0.187763 0.928915
O O3 0.358442 0.105803 0.745975
O O4 0.500000 0.107287 0.250000
O O5 0.858683 0.738184 0.447743
O O6 0.879573 0.787596 0.859734
O O7 0.000000 0.762012 0.750000
O O8 0.748420 0.821521 0.325274
O O9 0.750000 0.750000 0.000000
O O10 0.866769 0.830951 0.224132
O O11 0.063424 0.060264 0.492118
O O12 0.054679 0.124508 0.111466
O O13 0.217871 0.075596 0.688768
O O14 0.210147 0.124123 0.260065
O O15 0.843959 0.010234 0.557378
#
# Coordination Sequence:
#
# PCOD9282487 Si02
#       7
#     8   8   8   4   8   8   8
#     4  11  26  42  68  97 136 180 228 295 351 416
#     4  10  22  37  52  95 131 184 231 273 327 395
#     4  11  23  38  67  92 136 192 238 286 335 412
#     4  10  22  44  64 108 144 184 230 288 344 424
#     4  10  25  44  66 102 131 181 236 288 358 420
#     4  11  26  48  74 105 137 184 229 292 357 424
#     4  10  21  39  62  92 139 186 236 280 338 401
#
# _framework density 23.067081000000002
#
# number of rings (size 3 to 8) (size 9 to 14) (size 15 to 20)
#    0.000    1.538    0.769    2.308   15.077    2.462 
#    5.538    0.000    0.000    2.769    0.000    0.000 
#    0.000    0.000    0.000    0.000    0.000    0.000 
#
# Total GULP energy -144970.279782 kJ/mol
# GULP energy per Si atom -5575.779992 kJ/mol
# Density = 2.301458 g / cm^3
# Si number density = 23.067081 Si / 1000 Ang^3
#
#
#
# Elastic Constant Matrix: (Units=GPa)
#
#
# Indices 1 2 3 4 5 6 
#
# 1 144.9157 28.2951 57.9156 0.0000 29.9345 0.0000
# 2 28.2951 58.5949 21.0962 0.0000 1.3920 0.0000
# 3 57.9156 21.0962 81.9766 0.0000 10.8323 0.0000
# 4 0.0000 0.0000 0.0000 33.2992 0.0000 -4.6847
# 5 29.9345 1.3920 10.8323 0.0000 37.0924 0.0000
# 6 0.0000 0.0000 0.0000 -4.6847 0.0000 32.1724
#
#
#
# Elastic Compliance Matrix: (Units=1/GPa)
#
#
# Indices 1 2 3 4 5 6 
#
# 1 0.011595 -0.003114 -0.006417 0.000000 -0.007366 0.000000
# 2 -0.003114 0.019665 -0.003220 0.000000 0.002715 0.000000
# 3 -0.006417 -0.003220 0.017537 0.000000 0.000178 0.000000
# 4 0.000000 0.000000 0.000000 0.030659 0.000000 0.004464
# 5 -0.007366 0.002715 0.000178 0.000000 0.032751 0.000000
# 6 0.000000 0.000000 0.000000 0.004464 0.000000 0.031733
#
#
# Mechanical properties :
#
#
# Convention : Reuss Voigt Hill
#
# Bulk Modulus (GPa) = 42.92557 55.56678 49.24617
# Shear Modulus (GPa) = 28.21610 32.39148 30.30379
#
# Velocity S-wave (km/s) = 3.50125 3.75137 3.62847
# Velocity P-wave (km/s) = 5.91561 6.55021 6.24098
#
# Compressibility (1/GPa) = 0.02329614
#
# Stress axis : x y z
#
# Youngs Moduli (GPa) = 86.24684 50.85291 57.02225
#
# Poissons Ratio (x) = 0.15834 0.36590
# Poissons Ratio (y) = 0.26855 0.18359
# Poissons Ratio (z) = 0.55343 0.16372
#
# Static dielectric constant tensor:
#      x y z
#    x 1.995670 0.000000 -0.225400 
#    y 0.000000 1.862170 0.000000 
#    z -0.225400 0.000000 2.034690 
# 
# From -- ./inp_files/11626.got.cif
#   From: 2010.05.17/outbox.cif.g08.bks.cpg/sg15_6_cif.got.tgz:11626.got - 2010.06.03 18:47:42.
