data_PCOD9282837
_publ_section_title
;
Structure prediction by ZEFSAII (Michael W. Deem and Ramdas Pophale) SiO2 
 PCOD9282837
Probable space group: C 2/C
;
_chemical_formula_sum "Si O2"
_cell_formula_units_Z 64
_cell_length_a 12.746650
_cell_length_b 14.704372
_cell_length_c 29.153455
_cell_angle_alpha 90.000000
_cell_angle_beta 36.632267
_cell_angle_gamma 90.000000
_cell_volume 3260.406853
_symmetry_space_group_name_H-M "C 2/C"
_symmetry_group_IT_number 15
_symmetry_cell_setting 'monoclinic'
loop_
_space_group_symop_operation_xyz
x,y,z
-x,y,1/2-z
-x,-y,-z
x,-y,1/2+z
1/2+x,1/2+y,z
1/2-x,1/2+y,1/2-z
1/2-x,1/2-y,-z
1/2+x,1/2-y,1/2+z
loop_
_atom_site_type_symbol
_atom_site_label
_atom_site_fract_x
_atom_site_fract_y
_atom_site_fract_z
Si Si1 0.619006 0.159456 0.594388
Si Si2 0.199779 0.678620 0.669131
Si Si3 0.014697 0.687060 0.386071
Si Si4 0.602432 0.636663 0.084857
Si Si5 0.700146 0.649623 0.564847
Si Si6 0.798814 0.505595 0.088339
Si Si7 0.836050 0.498768 0.682717
Si Si8 0.888395 0.026414 0.653217
O O1 0.717853 0.163102 0.608511
O O2 0.542568 0.261687 0.617545
O O3 0.751438 0.144167 0.505903
O O4 0.475511 0.079875 0.641219
O O5 0.329260 0.753875 0.645609
O O6 0.240936 0.581664 0.678226
O O7 0.000000 0.705221 0.750000
O O8 0.080905 0.599803 0.335221
O O9 0.881670 0.657705 0.473555
O O10 0.896097 0.754729 0.397437
O O11 0.693552 0.582219 0.095794
O O12 0.443035 0.575407 0.122370
O O13 0.726496 0.594155 0.601614
O O14 0.565111 0.585560 0.584180
O O15 0.789417 0.515861 0.145832
O O16 0.000000 0.500000 0.000000
O O17 0.673384 0.521884 0.772336
#
# Coordination Sequence:
#
# PCOD9282837 Si02
#       8
#     8   8   8   8   8   8   8   8
#     4  11  23  40  63  91 125 160 204 256 310 360
#     4  11  23  41  65  93 123 161 210 257 308 368
#     4  10  21  39  65  89 117 164 209 246 304 369
#     4  10  23  40  61  91 121 159 206 253 303 370
#     4   9  20  38  59  89 123 154 202 260 298 365
#     4  11  19  37  62  89 121 156 202 250 307 365
#     4  12  22  36  63  90 124 163 199 260 308 358
#     4  10  23  41  60  90 128 161 207 255 306 371
#
# _framework density 19.629452000000001
#
# number of rings (size 3 to 8) (size 9 to 14) (size 15 to 20)
#    0.000    1.500    3.750    1.500    1.750    2.500 
#    0.000    1.250    0.000    1.500    0.000    0.000 
#    0.000    0.000    0.000    0.000    0.000    0.000 
#
# Total GULP energy -178489.652137 kJ/mol
# GULP energy per Si atom -5577.801629 kJ/mol
# Density = 1.958477 g / cm^3
# Si number density = 19.629452 Si / 1000 Ang^3
#
#
#
# Elastic Constant Matrix: (Units=GPa)
#
#
# Indices 1 2 3 4 5 6 
#
# 1 39.3578 39.9195 30.3130 -0.0001 -5.4128 0.0000
# 2 39.9195 145.8527 42.9252 -0.0001 -0.9685 0.0000
# 3 30.3130 42.9252 63.0067 -0.0008 -12.7176 -0.0003
# 4 -0.0001 -0.0001 -0.0008 20.2338 -0.0001 -9.1680
# 5 -5.4128 -0.9685 -12.7176 -0.0001 27.9759 0.0001
# 6 0.0000 0.0000 -0.0003 -9.1680 0.0001 32.1002
#
#
#
# Elastic Compliance Matrix: (Units=1/GPa)
#
#
# Indices 1 2 3 4 5 6 
#
# 1 0.046345 -0.007727 -0.016820 -0.000001 0.001053 0.000000
# 2 -0.007727 0.010039 -0.003692 0.000000 -0.002826 0.000000
# 3 -0.016820 -0.003692 0.028402 0.000001 0.009529 0.000001
# 4 -0.000001 0.000000 0.000001 0.056769 0.000001 0.016213
# 5 0.001053 -0.002826 0.009529 0.000001 0.040183 0.000000
# 6 0.000000 0.000000 0.000001 0.016213 0.000000 0.035783
#
#
# Mechanical properties :
#
#
# Convention : Reuss Voigt Hill
#
# Bulk Modulus (GPa) = 35.32619 52.72587 44.02603
# Shear Modulus (GPa) = 17.64072 25.06594 21.35333
#
# Velocity S-wave (km/s) = 3.00106 3.57733 3.30179
# Velocity P-wave (km/s) = 5.48125 6.63189 6.08383
#
# Compressibility (1/GPa) = 0.02830761
#
# Stress axis : x y z
#
# Youngs Moduli (GPa) = 21.57741 99.61139 35.20848
#
# Poissons Ratio (x) = 0.76973 0.59220
# Poissons Ratio (y) = 0.16673 0.12999
# Poissons Ratio (z) = 0.36293 0.36778
#
# Static dielectric constant tensor:
#      x y z
#    x 1.708510 0.000000 -0.022230 
#    y 0.000000 1.726080 0.000000 
#    z -0.022230 0.000000 1.678040 
# 
# From -- ./inp_files/293032.got.cif
#   From: 2010.05.17/outbox.cif.g08.bks.cpg/sg15_147_cif.got.tgz:293032.got - 2010.06.03 18:47:42.
