data_PCOD9282199
_publ_section_title
;
Structure prediction by ZEFSAII (Michael W. Deem and Ramdas Pophale) SiO2 
 PCOD9282199
Probable space group: C 2/C
;
_chemical_formula_sum "Si O2"
_cell_formula_units_Z 40
_cell_length_a 16.560876
_cell_length_b 9.501404
_cell_length_c 23.769700
_cell_angle_alpha 90.000000
_cell_angle_beta 25.156999
_cell_angle_gamma 90.000000
_cell_volume 1589.959230
_symmetry_space_group_name_H-M "C 2/C"
_symmetry_group_IT_number 15
_symmetry_cell_setting 'monoclinic'
loop_
_space_group_symop_operation_xyz
x,y,z
-x,y,1/2-z
-x,-y,-z
x,-y,1/2+z
1/2+x,1/2+y,z
1/2-x,1/2+y,1/2-z
1/2-x,1/2-y,-z
1/2+x,1/2-y,1/2+z
loop_
_atom_site_type_symbol
_atom_site_label
_atom_site_fract_x
_atom_site_fract_y
_atom_site_fract_z
Si Si1 0.161024 0.351718 0.388724
Si Si2 0.973619 0.048559 0.354117
Si Si3 0.369293 0.841637 0.221317
Si Si4 0.570104 0.632229 0.522708
Si Si5 0.895944 0.417103 0.956490
O O1 0.340400 0.452813 0.268926
O O2 0.091772 0.316797 0.370142
O O3 0.040769 0.416821 0.517252
O O4 0.204064 0.199777 0.391105
O O5 0.037013 0.209428 0.306915
O O6 0.808301 0.990946 0.418511
O O7 0.900967 0.013870 0.463851
O O8 0.142868 0.859078 0.368444
O O9 0.472681 0.989065 0.165438
O O10 0.591561 0.749969 0.559199
#
# Coordination Sequence:
#
# PCOD9282199 Si02
#       5
#     8   8   8   8   8
#     4   9  22  39  61  84 119 162 198 234 306 370
#     4  11  21  37  62  91 118 157 201 256 297 353
#     4  11  21  35  62  90 119 154 205 252 295 355
#     4   9  21  37  62  82 122 161 201 237 301 370
#     4  10  21  39  59  86 122 157 200 245 307 357
#
# _framework density 25.157876999999999
#
# number of rings (size 3 to 8) (size 9 to 14) (size 15 to 20)
#    1.200    0.800    0.000    4.800    2.800    0.800 
#    0.000    0.000    0.000    2.400    0.000    0.000 
#    0.000    0.000    0.000    0.000    0.000    0.000 
#
# Total GULP energy -111443.730510 kJ/mol
# GULP energy per Si atom -5572.186526 kJ/mol
# Density = 2.510062 g / cm^3
# Si number density = 25.157877 Si / 1000 Ang^3
#
#
#
# Elastic Constant Matrix: (Units=GPa)
#
#
# Indices 1 2 3 4 5 6 
#
# 1 39.2217 4.5486 3.0623 0.0021 -18.0043 0.0002
# 2 4.5486 71.2209 21.8506 -0.0007 -6.6944 -0.0010
# 3 3.0623 21.8506 49.2071 -0.0038 -15.2849 -0.0020
# 4 0.0021 -0.0007 -0.0038 28.9423 -0.0004 -0.1940
# 5 -18.0043 -6.6944 -15.2849 -0.0004 42.2177 0.0009
# 6 0.0002 -0.0010 -0.0020 -0.1940 0.0009 23.9036
#
#
#
# Elastic Compliance Matrix: (Units=1/GPa)
#
#
# Indices 1 2 3 4 5 6 
#
# 1 0.032154 -0.001689 0.003296 -0.000002 0.014638 -0.000001
# 2 -0.001689 0.016344 -0.007404 0.000000 -0.000809 0.000000
# 3 0.003296 -0.007404 0.026452 0.000003 0.009808 0.000001
# 4 -0.000002 0.000000 0.000003 0.034553 0.000001 0.000280
# 5 0.014638 -0.000809 0.009808 0.000001 0.033352 -0.000001
# 6 -0.000001 0.000000 0.000001 0.000280 -0.000001 0.041837
#
#
# Mechanical properties :
#
#
# Convention : Reuss Voigt Hill
#
# Bulk Modulus (GPa) = 15.78386 24.28586 20.03486
# Shear Modulus (GPa) = 22.99857 27.69192 25.34525
#
# Velocity S-wave (km/s) = 3.02680 3.32132 3.17748
# Velocity P-wave (km/s) = 4.30150 4.93787 4.63063
#
# Compressibility (1/GPa) = 0.06335587
#
# Stress axis : x y z
#
# Youngs Moduli (GPa) = 31.10034 61.18399 37.80485
#
# Poissons Ratio (x) = 0.10333 -0.12460
# Poissons Ratio (y) = 0.05252 0.27990
# Poissons Ratio (z) = -0.10250 0.45300
#
# Static dielectric constant tensor:
#      x y z
#    x 2.052370 0.000000 0.065560 
#    y 0.000000 2.168380 0.000000 
#    z 0.065560 0.000000 2.059880 
# 
# From -- ./inp_files/298290.got.cif
#   From: 2010.05.17/outbox.cif.g08.bks.cpg/sg15_150_cif.got.tgz:298290.got - 2010.06.03 18:47:42.
