data_PCOD9282902
_publ_section_title
;
Structure prediction by ZEFSAII (Michael W. Deem and Ramdas Pophale) SiO2 
 PCOD9282902
Probable space group: C 2/C
;
_chemical_formula_sum "Si O2"
_cell_formula_units_Z 44
_cell_length_a 8.309723
_cell_length_b 18.274440
_cell_length_c 20.518033
_cell_angle_alpha 90.000000
_cell_angle_beta 139.930208
_cell_angle_gamma 90.000000
_cell_volume 2005.688667
_symmetry_space_group_name_H-M "C 2/C"
_symmetry_group_IT_number 15
_symmetry_cell_setting 'monoclinic'
loop_
_space_group_symop_operation_xyz
x,y,z
-x,y,1/2-z
-x,-y,-z
x,-y,1/2+z
1/2+x,1/2+y,z
1/2-x,1/2+y,1/2-z
1/2-x,1/2-y,-z
1/2+x,1/2-y,1/2+z
loop_
_atom_site_type_symbol
_atom_site_label
_atom_site_fract_x
_atom_site_fract_y
_atom_site_fract_z
Si Si1 0.248300 0.503328 0.868550
Si Si2 0.228122 0.269596 0.416828
Si Si3 0.500000 0.502437 0.750000
Si Si4 0.358652 0.616576 0.491655
Si Si5 0.541621 0.095765 0.626650
Si Si6 0.862751 0.383348 0.923208
O O1 0.468576 0.557668 0.916126
O O2 0.000000 0.505666 0.750000
O O3 0.162886 0.538949 0.910699
O O4 0.320250 0.420913 0.908586
O O5 0.250000 0.250000 0.500000
O O6 0.476440 0.310962 0.467596
O O7 0.208268 0.192283 0.375573
O O8 0.008017 0.329879 0.348238
O O9 0.303026 0.557443 0.721120
O O10 0.675159 0.449436 0.847831
O O11 0.092087 0.623721 0.443589
O O12 0.488419 0.107277 0.533610
#
# Coordination Sequence:
#
# PCOD9282902 Si02
#       6
#     8   8   4   8   8   8
#     4  10  22  38  62  99 131 168 222 275 322 390
#     4   9  21  44  64  87 132 177 213 269 340 399
#     4  12  24  38  70 102 130 168 230 276 330 392
#     4  10  21  39  65  94 128 173 220 273 333 384
#     4  10  23  42  66  94 132 176 214 272 333 392
#     4  11  23  42  67  97 132 170 221 278 332 393
#
# _framework density 21.937602999999999
#
# number of rings (size 3 to 8) (size 9 to 14) (size 15 to 20)
#    0.000    1.818    1.818    1.091    2.545    4.364 
#    6.545    3.636    2.000    0.000    0.000    0.000 
#    0.000    0.000    0.000    0.000    0.000    0.000 
#
# Total GULP energy -122751.775650 kJ/mol
# GULP energy per Si atom -5579.626166 kJ/mol
# Density = 2.188767 g / cm^3
# Si number density = 21.937603 Si / 1000 Ang^3
#
#
#
# Elastic Constant Matrix: (Units=GPa)
#
#
# Indices 1 2 3 4 5 6 
#
# 1 95.3841 45.0710 38.9524 -0.0002 21.8207 -0.0002
# 2 45.0710 136.3013 39.8074 -0.0004 19.1176 -0.0001
# 3 38.9524 39.8074 101.5007 -0.0006 15.4464 0.0000
# 4 -0.0002 -0.0004 -0.0006 19.1302 -0.0002 10.1958
# 5 21.8207 19.1176 15.4464 -0.0002 33.3884 -0.0001
# 6 -0.0002 -0.0001 0.0000 10.1958 -0.0001 26.0846
#
#
#
# Elastic Compliance Matrix: (Units=1/GPa)
#
#
# Indices 1 2 3 4 5 6 
#
# 1 0.014779 -0.002965 -0.003547 0.000000 -0.006320 0.000000
# 2 -0.002965 0.009276 -0.002137 0.000000 -0.002385 0.000000
# 3 -0.003547 -0.002137 0.012385 0.000000 -0.002187 0.000000
# 4 0.000000 0.000000 0.000000 0.066029 0.000000 -0.025809
# 5 -0.006320 -0.002385 -0.002187 0.000000 0.036459 0.000000
# 6 0.000000 0.000000 0.000000 -0.025809 0.000000 0.048425
#
#
# Mechanical properties :
#
#
# Convention : Reuss Voigt Hill
#
# Bulk Modulus (GPa) = 52.24280 64.53863 58.39071
# Shear Modulus (GPa) = 23.69329 29.67766 26.68547
#
# Velocity S-wave (km/s) = 3.28995 3.68206 3.49151
# Velocity P-wave (km/s) = 6.18851 6.89636 6.55200
#
# Compressibility (1/GPa) = 0.01914140
#
# Stress axis : x y z
#
# Youngs Moduli (GPa) = 67.66245 107.80889 80.74599
#
# Poissons Ratio (x) = 0.31961 0.28643
# Poissons Ratio (y) = 0.20059 0.17257
# Poissons Ratio (z) = 0.24001 0.23041
#
# Static dielectric constant tensor:
#      x y z
#    x 1.907470 0.000000 0.009870 
#    y 0.000000 1.834500 0.000000 
#    z 0.009870 0.000000 1.809460 
# 
# From -- ./inp_files/265637.got.cif
#   From: 2010.05.17/outbox.cif.g08.bks.cpg/sg15_133_cif.got.tgz:265637.got - 2010.06.03 18:47:42.
