data_PCOD9282076
_publ_section_title
;
Structure prediction by ZEFSAII (Michael W. Deem and Ramdas Pophale) SiO2 
 PCOD9282076
Probable space group: C 2/C
;
_chemical_formula_sum "Si O2"
_cell_formula_units_Z 56
_cell_length_a 21.016738
_cell_length_b 21.748294
_cell_length_c 10.922659
_cell_angle_alpha 90.000000
_cell_angle_beta 31.835126
_cell_angle_gamma 90.000000
_cell_volume 2633.432497
_symmetry_space_group_name_H-M "C 2/C"
_symmetry_group_IT_number 15
_symmetry_cell_setting 'monoclinic'
loop_
_space_group_symop_operation_xyz
x,y,z
-x,y,1/2-z
-x,-y,-z
x,-y,1/2+z
1/2+x,1/2+y,z
1/2-x,1/2+y,1/2-z
1/2-x,1/2-y,-z
1/2+x,1/2-y,1/2+z
loop_
_atom_site_type_symbol
_atom_site_label
_atom_site_fract_x
_atom_site_fract_y
_atom_site_fract_z
Si Si1 0.637566 0.988102 0.046981
Si Si2 0.732464 0.463988 0.923530
Si Si3 0.500000 0.238462 0.250000
Si Si4 0.541221 0.658279 0.308265
Si Si5 0.730076 0.322405 0.861954
Si Si6 0.506684 0.221125 0.496132
Si Si7 0.197619 0.350470 0.027728
Si Si8 0.500000 0.457075 0.750000
O O1 0.500000 0.007039 0.250000
O O2 0.645553 0.917472 0.081877
O O3 0.701542 0.024325 0.054324
O O4 0.697227 0.987336 0.814036
O O5 0.711145 0.391704 0.938946
O O6 0.608138 0.501142 0.118519
O O7 0.382068 0.279968 0.421426
O O8 0.474888 0.200212 0.411915
O O9 0.500000 0.690979 0.250000
O O10 0.504581 0.705049 0.473082
O O11 0.476648 0.592006 0.399113
O O12 0.684628 0.646502 0.077789
O O13 0.857636 0.298317 0.701000
O O14 0.748694 0.323928 0.685421
O O15 0.408472 0.191175 0.745936
#
# Coordination Sequence:
#
# PCOD9282076 Si02
#       8
#     8   8   4   8   8   8   8   4
#     4  11  23  43  69 100 133 182 231 283 333 410
#     4  11  24  45  70  99 141 177 229 285 340 415
#     4  12  27  42  64  96 144 173 216 282 346 416
#     4  10  21  38  70 102 125 168 232 285 323 389
#     4  11  25  46  66 101 132 187 218 277 353 405
#     4  12  25  43  68  97 137 175 230 282 336 410
#     4  11  21  44  71  96 128 179 236 270 341 401
#     4  10  23  42  68 110 130 177 230 282 348 394
#
# _framework density 21.265021999999998
#
# number of rings (size 3 to 8) (size 9 to 14) (size 15 to 20)
#    0.429    0.571    2.857    4.714    2.000    1.714 
#    3.857    0.000    0.000    0.000    0.000    0.000 
#    0.000    0.000    0.000    0.000    0.000    0.000 
#
# Total GULP energy -156331.595747 kJ/mol
# GULP energy per Si atom -5583.271277 kJ/mol
# Density = 2.121662 g / cm^3
# Si number density = 21.265022 Si / 1000 Ang^3
#
#
#
# Elastic Constant Matrix: (Units=GPa)
#
#
# Indices 1 2 3 4 5 6 
#
# 1 122.9805 11.0991 16.8329 0.0010 -15.6550 0.0003
# 2 11.0991 50.6805 18.4129 0.0007 -9.1491 0.0000
# 3 16.8329 18.4129 27.2809 0.0016 -3.3212 0.0003
# 4 0.0010 0.0007 0.0016 6.7192 -0.0011 -8.8653
# 5 -15.6550 -9.1491 -3.3212 -0.0011 30.0207 -0.0003
# 6 0.0003 0.0000 0.0003 -8.8653 -0.0003 11.5824
#
#
#
# Elastic Compliance Matrix: (Units=1/GPa)
#
#
# Indices 1 2 3 4 5 6 
#
# 1 0.009432 0.000884 -0.005864 -0.000062 0.004539 -0.000047
# 2 0.000884 0.027374 -0.018195 -0.000293 0.006791 -0.000224
# 3 -0.005864 -0.018195 0.052210 0.001134 -0.002827 0.000867
# 4 -0.000062 -0.000293 0.001134-15.054165 -0.000677-11.522613
# 5 0.004539 0.006791 -0.002827 -0.000677 0.037434 -0.000517
# 6 -0.000047 -0.000224 0.000867-11.522613 -0.000517 -8.733190
#
#
# Mechanical properties :
#
#
# Convention : Reuss Voigt Hill
#
# Bulk Modulus (GPa) = 23.43718 32.62577 28.03148
# Shear Modulus (GPa) = -0.21186 19.97091 9.87953
#
# Velocity S-wave (km/s) = -0.31598 3.06787 2.15777
# Velocity P-wave (km/s) = 3.30337 5.28440 4.40665
#
# Compressibility (1/GPa) = 0.04266725
#
# Stress axis : x y z
#
# Youngs Moduli (GPa) = 106.02166 36.53088 19.15344
#
# Poissons Ratio (x) = -0.03230 0.11232
# Poissons Ratio (y) = -0.09375 0.34849
# Poissons Ratio (z) = 0.62171 0.66467
#
# Static dielectric constant tensor:
#      x y z
#    x 1.841100 0.000000 0.053850 
#    y 0.000000 1.755600 0.000000 
#    z 0.053850 0.000000 1.767710 
# 
# From -- ./inp_files/119826.got.cif
#   From: 2010.05.17/outbox.cif.g08.bks.cpg/sg15_60_cif.got.tgz:119826.got - 2010.06.03 18:47:42.
