data_PCOD9282627
_publ_section_title
;
Structure prediction by ZEFSAII (Michael W. Deem and Ramdas Pophale) SiO2 
 PCOD9282627
Probable space group: C 2/C
;
_chemical_formula_sum "Si O2"
_cell_formula_units_Z 64
_cell_length_a 18.201591
_cell_length_b 8.097045
_cell_length_c 31.416729
_cell_angle_alpha 90.000000
_cell_angle_beta 41.595017
_cell_angle_gamma 90.000000
_cell_volume 3073.789621
_symmetry_space_group_name_H-M "C 2/C"
_symmetry_group_IT_number 15
_symmetry_cell_setting 'monoclinic'
loop_
_space_group_symop_operation_xyz
x,y,z
-x,y,1/2-z
-x,-y,-z
x,-y,1/2+z
1/2+x,1/2+y,z
1/2-x,1/2+y,1/2-z
1/2-x,1/2-y,-z
1/2+x,1/2-y,1/2+z
loop_
_atom_site_type_symbol
_atom_site_label
_atom_site_fract_x
_atom_site_fract_y
_atom_site_fract_z
Si Si1 0.190548 0.276991 0.980266
Si Si2 0.370055 0.808940 0.800674
Si Si3 0.426023 0.699516 0.934566
Si Si4 0.040427 0.139086 0.411380
Si Si5 0.238195 0.327922 0.283297
Si Si6 0.161852 0.311666 0.840021
Si Si7 0.240020 0.145423 0.570540
Si Si8 0.203611 0.069433 0.894683
O O1 0.234107 0.451142 0.943804
O O2 0.215484 0.123688 0.938107
O O3 0.250000 0.250000 0.000000
O O4 0.056443 0.271853 0.039329
O O5 0.500000 0.803733 0.750000
O O6 0.337007 0.744876 0.768741
O O7 0.305292 0.699826 0.864100
O O8 0.317730 0.989484 0.829834
O O9 0.477262 0.518553 0.919586
O O10 0.532379 0.816276 0.884972
O O11 0.352531 0.694038 0.924194
O O12 0.349233 0.758797 0.006797
O O13 0.131763 0.216385 0.340716
O O14 0.108427 0.063324 0.422242
O O15 0.213617 0.511382 0.309454
O O16 0.275251 0.314674 0.218732
O O17 0.174289 0.234671 0.881261
#
# Coordination Sequence:
#
# PCOD9282627 Si02
#       8
#     8   8   8   8   8   8   8   8
#     4  12  23  41  63  99 136 167 219 274 330 391
#     4  11  24  44  66  93 132 169 218 267 332 391
#     4  10  21  39  63  93 125 177 208 270 321 385
#     4  10  21  42  65  93 130 170 218 272 322 391
#     4  11  23  41  66  95 126 173 221 269 322 396
#     4  11  22  43  66  91 130 167 227 264 327 387
#     4  11  23  38  63  95 134 168 215 263 336 390
#     4  10  24  43  66  94 126 175 220 270 331 397
#
# _framework density 20.821203000000001
#
# number of rings (size 3 to 8) (size 9 to 14) (size 15 to 20)
#    0.000    1.250    1.250    5.625    1.750    3.000 
#    4.500    7.500    0.000    0.000    0.000    0.000 
#    0.000    0.000    0.000    0.000    0.000    0.000 
#
# Total GULP energy -178885.555984 kJ/mol
# GULP energy per Si atom -5590.173625 kJ/mol
# Density = 2.077381 g / cm^3
# Si number density = 20.821203 Si / 1000 Ang^3
#
#
#
# Elastic Constant Matrix: (Units=GPa)
#
#
# Indices 1 2 3 4 5 6 
#
# 1 84.8491 21.9377 41.9693 0.0007 -1.4582 0.0050
# 2 21.9377 64.5789 13.7351 0.0023 -9.6307 0.0015
# 3 41.9693 13.7351 71.0298 0.0000 -13.1853 -0.0015
# 4 0.0007 0.0023 0.0000 31.2172 0.0002 -1.8405
# 5 -1.4582 -9.6307 -13.1853 0.0002 42.5297 0.0009
# 6 0.0050 0.0015 -0.0015 -1.8405 0.0009 20.9834
#
#
#
# Elastic Compliance Matrix: (Units=1/GPa)
#
#
# Indices 1 2 3 4 5 6 
#
# 1 0.018060 -0.004447 -0.010487 0.000000 -0.003639 -0.000005
# 2 -0.004447 0.017577 -0.000064 -0.000001 0.003808 0.000000
# 3 -0.010487 -0.000064 0.021452 0.000000 0.006277 0.000004
# 4 0.000000 -0.000001 0.000000 0.032200 0.000000 0.002824
# 5 -0.003639 0.003808 0.006277 0.000000 0.026196 0.000000
# 6 -0.000005 0.000000 0.000004 0.002824 0.000000 0.047904
#
#
# Mechanical properties :
#
#
# Convention : Reuss Voigt Hill
#
# Bulk Modulus (GPa) = 36.90969 41.74912 39.32940
# Shear Modulus (GPa) = 24.70133 28.46709 26.58421
#
# Velocity S-wave (km/s) = 3.44809 3.70160 3.57709
# Velocity P-wave (km/s) = 5.79809 6.19386 5.99924
#
# Compressibility (1/GPa) = 0.02709316
#
# Stress axis : x y z
#
# Youngs Moduli (GPa) = 55.37098 56.89174 46.61483
#
# Poissons Ratio (x) = 0.25302 0.48883
# Poissons Ratio (y) = 0.24625 0.00300
# Poissons Ratio (z) = 0.58065 0.00366
#
# Static dielectric constant tensor:
#      x y z
#    x 1.724710 0.000000 0.002260 
#    y 0.000000 1.760100 0.000000 
#    z 0.002260 0.000000 1.751660 
# 
# From -- ./inp_files/315656.got.cif
#   From: 2010.05.17/outbox.cif.g08.bks.cpg/sg15_158_cif.got.tgz:315656.got - 2010.06.03 18:47:42.
