data_PCOD9282758
_publ_section_title
;
Structure prediction by ZEFSAII (Michael W. Deem and Ramdas Pophale) SiO2 
 PCOD9282758
Probable space group: C 2/C
;
_chemical_formula_sum "Si O2"
_cell_formula_units_Z 32
_cell_length_a 9.060947
_cell_length_b 19.370006
_cell_length_c 8.036074
_cell_angle_alpha 90.000000
_cell_angle_beta 112.101500
_cell_angle_gamma 90.000000
_cell_volume 1306.777053
_symmetry_space_group_name_H-M "C 2/C"
_symmetry_group_IT_number 15
_symmetry_cell_setting 'monoclinic'
loop_
_space_group_symop_operation_xyz
x,y,z
-x,y,1/2-z
-x,-y,-z
x,-y,1/2+z
1/2+x,1/2+y,z
1/2-x,1/2+y,1/2-z
1/2-x,1/2-y,-z
1/2+x,1/2-y,1/2+z
loop_
_atom_site_type_symbol
_atom_site_label
_atom_site_fract_x
_atom_site_fract_y
_atom_site_fract_z
Si Si1 0.341963 0.099928 0.926061
Si Si2 0.683721 0.768808 0.264319
Si Si3 0.684197 0.485394 0.054278
Si Si4 0.712385 0.135040 0.086072
O O1 0.293001 0.179382 0.879515
O O2 0.532439 0.107161 0.005648
O O3 0.275206 0.056618 0.738552
O O4 0.277697 0.055701 0.051929
O O5 0.500000 0.762130 0.250000
O O6 0.754469 0.815661 0.444594
O O7 0.755063 0.693357 0.263708
O O8 0.688396 0.433608 0.896820
O O9 0.500000 0.500000 0.000000
#
# Coordination Sequence:
#
# PCOD9282758 Si02
#       4
#     8   8   8   8
#     4  10  21  39  64  93 124 163 211 258 315 380
#     4   8  16  33  60  90 122 164 208 252 308 377
#     4  11  22  37  61  92 128 164 206 262 318 376
#     4   9  18  35  61  88 123 166 206 251 311 378
#
# _framework density 24.487728000000001
#
# number of rings (size 3 to 8) (size 9 to 14) (size 15 to 20)
#    0.000    2.500    0.000    3.750    0.000    2.000 
#    0.000    0.000    0.000   69.000    0.000    0.000 
#    0.000    6.000    0.000    0.000    0.000    0.000 
#
# Total GULP energy -89289.942722 kJ/mol
# GULP energy per Si atom -5580.621420 kJ/mol
# Density = 2.443199 g / cm^3
# Si number density = 24.487728 Si / 1000 Ang^3
#
#
#
# Elastic Constant Matrix: (Units=GPa)
#
#
# Indices 1 2 3 4 5 6 
#
# 1 113.2967 114.7252 41.3320 0.0000 14.6465 0.0000
# 2 114.7252 242.5460 51.0491 0.0000 20.7574 0.0000
# 3 41.3320 51.0491 77.1950 0.0000 1.5226 0.0000
# 4 0.0000 0.0000 0.0000 39.1915 0.0000 14.7090
# 5 14.6465 20.7574 1.5226 0.0000 25.0514 0.0000
# 6 0.0000 0.0000 0.0000 14.7090 0.0000 28.5340
#
#
#
# Elastic Compliance Matrix: (Units=1/GPa)
#
#
# Indices 1 2 3 4 5 6 
#
# 1 0.018780 -0.007434 -0.005050 0.000000 -0.004513 0.000000
# 2 -0.007434 0.008119 -0.001343 0.000000 -0.002299 0.000000
# 3 -0.005050 -0.001343 0.016486 0.000000 0.003064 0.000000
# 4 0.000000 0.000000 0.000000 0.031636 0.000000 -0.016308
# 5 -0.004513 -0.002299 0.003064 0.000000 0.044276 0.000000
# 6 0.000000 0.000000 0.000000 -0.016308 0.000000 0.043453
#
#
# Mechanical properties :
#
#
# Convention : Reuss Voigt Hill
#
# Bulk Modulus (GPa) = 63.57267 94.13893 78.85580
# Shear Modulus (GPa) = 25.55631 33.61747 29.58689
#
# Velocity S-wave (km/s) = 3.23404 3.70919 3.47974
# Velocity P-wave (km/s) = 6.32161 7.54128 6.95822
#
# Compressibility (1/GPa) = 0.01573003
#
# Stress axis : x y z
#
# Youngs Moduli (GPa) = 53.24948 123.17435 60.65729
#
# Poissons Ratio (x) = 0.91563 0.30633
# Poissons Ratio (y) = 0.39584 0.08148
# Poissons Ratio (z) = 0.26891 0.16546
#
# Static dielectric constant tensor:
#      x y z
#    x 1.899480 0.000000 -0.072900 
#    y 0.000000 1.988930 0.000000 
#    z -0.072900 0.000000 2.198650 
# 
# From -- ./inp_files/75668.got.cif
#   From: 2010.05.17/outbox.cif.g08.bks.cpg/sg15_38_cif.got.tgz:75668.got - 2010.06.03 18:47:42.
