data_PCOD9282502
_publ_section_title
;
Structure prediction by ZEFSAII (Michael W. Deem and Ramdas Pophale) SiO2 
 PCOD9282502
Probable space group: C 2/C
;
_chemical_formula_sum "Si O2"
_cell_formula_units_Z 48
_cell_length_a 22.445976
_cell_length_b 9.640657
_cell_length_c 10.111615
_cell_angle_alpha 90.000000
_cell_angle_beta 73.993885
_cell_angle_gamma 90.000000
_cell_volume 2103.264999
_symmetry_space_group_name_H-M "C 2/C"
_symmetry_group_IT_number 15
_symmetry_cell_setting 'monoclinic'
loop_
_space_group_symop_operation_xyz
x,y,z
-x,y,1/2-z
-x,-y,-z
x,-y,1/2+z
1/2+x,1/2+y,z
1/2-x,1/2+y,1/2-z
1/2-x,1/2-y,-z
1/2+x,1/2-y,1/2+z
loop_
_atom_site_type_symbol
_atom_site_label
_atom_site_fract_x
_atom_site_fract_y
_atom_site_fract_z
Si Si1 0.312211 0.762911 0.681902
Si Si2 0.527632 0.397493 0.088765
Si Si3 0.943098 0.647940 0.093328
Si Si4 0.664857 0.668154 0.533951
Si Si5 0.272385 0.020594 0.846835
Si Si6 0.392877 0.951063 0.911253
O O1 0.383071 0.757519 0.591158
O O2 0.317744 0.698844 0.825919
O O3 0.293679 0.925244 0.708472
O O4 0.261261 0.666836 0.647372
O O5 0.500000 0.422915 0.250000
O O6 0.503350 0.244182 0.062078
O O7 0.601014 0.413039 0.055463
O O8 0.500000 0.500000 0.000000
O O9 0.927199 0.597185 0.253522
O O10 0.937482 0.530071 0.985068
O O11 0.721111 0.584170 0.438596
O O12 0.643097 0.821014 0.498530
O O13 0.335014 0.040294 0.891716
#
# Coordination Sequence:
#
# PCOD9282502 Si02
#       6
#     8   8   8   8   8   8
#     4  10  21  39  62  93 136 165 223 276 333 402
#     4  12  24  49  68  93 135 175 227 279 331 401
#     4  10  23  45  66 101 132 180 221 285 335 401
#     4  10  22  39  65  87 133 178 210 268 340 400
#     4  10  22  37  64  97 130 178 218 275 343 398
#     4  10  22  41  69  94 142 168 223 275 346 404
#
# _framework density 22.821662
#
# number of rings (size 3 to 8) (size 9 to 14) (size 15 to 20)
#    0.000    2.000    3.333    3.000    9.333    1.333 
#    6.000    0.000    0.000    0.000    0.000    0.000 
#    0.000    0.000    0.000    0.000    0.000    0.000 
#
# Total GULP energy -134010.697005 kJ/mol
# GULP energy per Si atom -5583.779042 kJ/mol
# Density = 2.276972 g / cm^3
# Si number density = 22.821662 Si / 1000 Ang^3
#
#
#
# Elastic Constant Matrix: (Units=GPa)
#
#
# Indices 1 2 3 4 5 6 
#
# 1 140.8139 25.0526 27.8469 0.0000 11.4503 0.0000
# 2 25.0526 72.6638 53.1470 0.0000 22.3632 0.0000
# 3 27.8469 53.1470 51.7317 0.0000 21.4807 0.0000
# 4 0.0000 0.0000 0.0000 27.9203 0.0000 2.0956
# 5 11.4503 22.3632 21.4807 0.0000 22.0509 0.0000
# 6 0.0000 0.0000 0.0000 2.0956 0.0000 6.4390
#
#
#
# Elastic Compliance Matrix: (Units=1/GPa)
#
#
# Indices 1 2 3 4 5 6 
#
# 1 0.007992 0.001573 -0.005932 0.000000 0.000033 0.000000
# 2 0.001573 0.055692 -0.057549 0.000000 -0.001237 0.000000
# 3 -0.005932 -0.057549 0.094262 0.000000 -0.030380 0.000000
# 4 0.000000 0.000000 0.000000 0.036713 0.000000 -0.011949
# 5 0.000033 -0.001237 -0.030380 0.000000 0.076181 0.000000
# 6 0.000000 0.000000 0.000000 -0.011949 0.000000 0.159192
#
#
# Mechanical properties :
#
#
# Convention : Reuss Voigt Hill
#
# Bulk Modulus (GPa) = 29.29948 53.03361 41.16654
# Shear Modulus (GPa) = 8.84604 21.89292 15.36948
#
# Velocity S-wave (km/s) = 1.97093 3.10062 2.59793
# Velocity P-wave (km/s) = 4.24803 6.00893 5.20351
#
# Compressibility (1/GPa) = 0.03413030
#
# Stress axis : x y z
#
# Youngs Moduli (GPa) = 125.12368 17.95581 10.60876
#
# Poissons Ratio (x) = -0.02824 0.06293
# Poissons Ratio (y) = -0.19681 0.61052
# Poissons Ratio (z) = 0.74222 1.03334
#
# Static dielectric constant tensor:
#      x y z
#    x 1.824980 0.000000 -0.013800 
#    y 0.000000 1.919910 0.000000 
#    z -0.013800 0.000000 1.884910 
# 
# From -- ./inp_files/116279.got.cif
#   From: 2010.05.17/outbox.cif.g08.bks.cpg/sg15_59_cif.got.tgz:116279.got - 2010.06.03 18:47:42.
