data_PCOD9282259
_publ_section_title
;
Structure prediction by ZEFSAII (Michael W. Deem and Ramdas Pophale) SiO2 
 PCOD9282259
Probable space group: C 2/C
;
_chemical_formula_sum "Si O2"
_cell_formula_units_Z 48
_cell_length_a 30.130650
_cell_length_b 9.280641
_cell_length_c 9.647894
_cell_angle_alpha 90.000000
_cell_angle_beta 99.029851
_cell_angle_gamma 90.000000
_cell_volume 2664.422097
_symmetry_space_group_name_H-M "C 2/C"
_symmetry_group_IT_number 15
_symmetry_cell_setting 'monoclinic'
loop_
_space_group_symop_operation_xyz
x,y,z
-x,y,1/2-z
-x,-y,-z
x,-y,1/2+z
1/2+x,1/2+y,z
1/2-x,1/2+y,1/2-z
1/2-x,1/2-y,-z
1/2+x,1/2-y,1/2+z
loop_
_atom_site_type_symbol
_atom_site_label
_atom_site_fract_x
_atom_site_fract_y
_atom_site_fract_z
Si Si1 0.376363 0.384121 0.078642
Si Si2 0.957870 0.665812 0.146220
Si Si3 0.456647 0.131083 0.814067
Si Si4 0.268308 0.325904 0.644487
Si Si5 0.778053 0.170086 0.630587
Si Si6 0.628448 0.337691 0.744640
O O1 0.416568 0.274677 0.126520
O O2 0.330342 0.323298 0.119580
O O3 0.383764 0.537202 0.153843
O O4 0.370216 0.399663 0.910831
O O5 0.949256 0.523035 0.234935
O O6 0.000000 0.733441 0.250000
O O7 0.965915 0.628245 0.985939
O O8 0.500000 0.191723 0.750000
O O9 0.410934 0.220344 0.771960
O O10 0.250000 0.250000 0.500000
O O11 0.236088 0.258938 0.743232
O O12 0.266567 0.499967 0.637615
O O13 0.320755 0.286971 0.697451
O O14 0.750000 0.250000 0.500000
#
# Coordination Sequence:
#
# PCOD9282259 Si02
#       6
#     8   8   8   8   8   8
#     4  10  23  40  61  86 119 158 194 246 294 353
#     4  10  21  39  60  89 120 152 196 245 297 350
#     4  10  21  39  61  88 119 154 195 245 295 355
#     4  11  24  40  62  91 120 165 202 252 306 352
#     4  11  22  42  62  87 126 157 207 250 298 365
#     4  10  23  41  60  86 120 154 200 241 297 355
#
# _framework density 18.015163000000001
#
# number of rings (size 3 to 8) (size 9 to 14) (size 15 to 20)
#    0.000    1.667    1.667    3.000    7.000    6.000 
#    0.000    3.333    0.000    0.000    0.000    0.000 
#    0.000    0.000    0.000    0.000    0.000    0.000 
#
# Total GULP energy -133819.581645 kJ/mol
# GULP energy per Si atom -5575.815902 kJ/mol
# Density = 1.797416 g / cm^3
# Si number density = 18.015163 Si / 1000 Ang^3
#
#
#
# Elastic Constant Matrix: (Units=GPa)
#
#
# Indices 1 2 3 4 5 6 
#
# 1 67.1745 38.3428 32.0347 0.0000 16.3256 0.0000
# 2 38.3428 41.1036 25.5433 0.0000 6.4230 0.0000
# 3 32.0347 25.5433 141.4155 0.0000 9.8314 0.0000
# 4 0.0000 0.0000 0.0000 35.7950 0.0000 0.8391
# 5 16.3256 6.4230 9.8314 0.0000 33.6514 0.0000
# 6 0.0000 0.0000 0.0000 0.8391 0.0000 32.1692
#
#
#
# Elastic Compliance Matrix: (Units=1/GPa)
#
#
# Indices 1 2 3 4 5 6 
#
# 1 0.035956 -0.030673 -0.001836 0.000000 -0.011053 0.000000
# 2 -0.030673 0.054072 -0.003200 0.000000 0.005495 0.000000
# 3 -0.001836 -0.003200 0.008126 0.000000 -0.000872 0.000000
# 4 0.000000 0.000000 0.000000 0.027954 0.000000 -0.000729
# 5 -0.011053 0.005495 -0.000872 0.000000 0.034285 0.000000
# 6 0.000000 0.000000 0.000000 -0.000729 0.000000 0.031105
#
#
# Mechanical properties :
#
#
# Convention : Reuss Voigt Hill
#
# Bulk Modulus (GPa) = 37.40481 49.05947 43.23214
# Shear Modulus (GPa) = 18.39394 30.57464 24.48429
#
# Velocity S-wave (km/s) = 3.19882 4.12413 3.69059
# Velocity P-wave (km/s) = 5.86952 7.06890 6.49695
#
# Compressibility (1/GPa) = 0.02673453
#
# Stress axis : x y z
#
# Youngs Moduli (GPa) = 27.81139 18.49399 123.06032
#
# Poissons Ratio (x) = 0.56726 0.22599
# Poissons Ratio (y) = 0.85306 0.39385
# Poissons Ratio (z) = 0.05107 0.05919
#
# Static dielectric constant tensor:
#      x y z
#    x 1.611310 0.000000 0.007100 
#    y 0.000000 1.525430 0.000000 
#    z 0.007100 0.000000 1.580510 
# 
# From -- ./inp_files/68568.got.cif
#   From: 2010.05.17/outbox.cif.g08.bks.cpg/sg15_35_cif.got.tgz:68568.got - 2010.06.03 18:47:42.
