data_PCOD9282653
_publ_section_title
;
Structure prediction by ZEFSAII (Michael W. Deem and Ramdas Pophale) SiO2 
 PCOD9282653
Probable space group: C 2/C
;
_chemical_formula_sum "Si O2"
_cell_formula_units_Z 36
_cell_length_a 13.481103
_cell_length_b 9.700336
_cell_length_c 12.336122
_cell_angle_alpha 90.000000
_cell_angle_beta 101.354154
_cell_angle_gamma 90.000000
_cell_volume 1581.637733
_symmetry_space_group_name_H-M "C 2/C"
_symmetry_group_IT_number 15
_symmetry_cell_setting 'monoclinic'
loop_
_space_group_symop_operation_xyz
x,y,z
-x,y,1/2-z
-x,-y,-z
x,-y,1/2+z
1/2+x,1/2+y,z
1/2-x,1/2+y,1/2-z
1/2-x,1/2-y,-z
1/2+x,1/2-y,1/2+z
loop_
_atom_site_type_symbol
_atom_site_label
_atom_site_fract_x
_atom_site_fract_y
_atom_site_fract_z
Si Si1 0.000004 0.365108 0.924964
Si Si2 0.158571 0.982683 0.153095
Si Si3 0.360492 0.315828 0.541529
Si Si4 0.500000 0.376171 0.750000
Si Si5 0.160734 0.693667 0.284281
O O1 0.917839 0.383029 0.812467
O O2 0.102633 0.313619 0.888128
O O3 0.948694 0.251466 0.989169
O O4 0.000000 0.500000 0.000000
O O5 0.178564 0.844165 0.231534
O O6 0.240361 0.100489 0.191371
O O7 0.156805 0.959110 0.023575
O O8 0.049224 0.030898 0.168536
O O9 0.250000 0.250000 0.500000
O O10 0.405694 0.303283 0.671159
#
# Coordination Sequence:
#
# PCOD9282653 Si02
#       5
#     8   8   8   4   8
#     4  10  21  39  63  94 130 173 223 277 332 395
#     4  11  23  43  65  95 132 176 224 275 331 399
#     4  11  24  43  65  98 135 174 222 274 334 402
#     4  12  24  42  68  94 130 176 220 278 338 396
#     4  10  23  42  65  94 135 177 222 276 331 394
#
# _framework density 22.761218
#
# number of rings (size 3 to 8) (size 9 to 14) (size 15 to 20)
#    0.000    1.333    0.000    7.333    0.000    5.333 
#    0.000    3.333    0.000    0.000    0.000    0.000 
#    0.000    0.000    0.000    0.000    0.000    0.000 
#
# Total GULP energy -100336.361672 kJ/mol
# GULP energy per Si atom -5574.242315 kJ/mol
# Density = 2.270941 g / cm^3
# Si number density = 22.761218 Si / 1000 Ang^3
#
#
#
# Elastic Constant Matrix: (Units=GPa)
#
#
# Indices 1 2 3 4 5 6 
#
# 1 132.7279 38.8054 42.2699 0.0000 -5.5662 0.0000
# 2 38.8054 56.9557 22.6461 0.0000 12.3309 0.0000
# 3 42.2699 22.6461 106.7081 0.0000 2.5847 0.0000
# 4 0.0000 0.0000 0.0000 35.5701 0.0000 2.8209
# 5 -5.5662 12.3309 2.5847 0.0000 41.8572 0.0000
# 6 0.0000 0.0000 0.0000 2.8209 0.0000 33.7211
#
#
#
# Elastic Compliance Matrix: (Units=1/GPa)
#
#
# Indices 1 2 3 4 5 6 
#
# 1 0.010596 -0.006878 -0.002825 0.000000 0.003610 0.000000
# 2 -0.006878 0.024944 -0.002373 0.000000 -0.008116 0.000000
# 3 -0.002825 -0.002373 0.011003 0.000000 -0.000356 0.000000
# 4 0.000000 0.000000 0.000000 0.028301 0.000000 -0.002368
# 5 0.003610 -0.008116 -0.000356 0.000000 0.026784 0.000000
# 6 0.000000 0.000000 0.000000 -0.002368 0.000000 0.029853
#
#
# Mechanical properties :
#
#
# Convention : Reuss Voigt Hill
#
# Bulk Modulus (GPa) = 44.65943 55.98162 50.32052
# Shear Modulus (GPa) = 30.65683 35.07438 32.86561
#
# Velocity S-wave (km/s) = 3.67398 3.92978 3.80403
# Velocity P-wave (km/s) = 6.13685 6.72603 6.43818
#
# Compressibility (1/GPa) = 0.02239169
#
# Stress axis : x y z
#
# Youngs Moduli (GPa) = 94.37419 40.08990 90.88683
#
# Poissons Ratio (x) = 0.27572 0.25678
# Poissons Ratio (y) = 0.64906 0.21565
# Poissons Ratio (z) = 0.26663 0.09512
#
# Static dielectric constant tensor:
#      x y z
#    x 1.837250 0.000000 0.015730 
#    y 0.000000 1.950900 0.000000 
#    z 0.015730 0.000000 2.073700 
# 
# From -- ./inp_files/84332.got.cif
#   From: 2010.05.17/outbox.cif.g08.bks.cpg/sg15_43_cif.got.tgz:84332.got - 2010.06.03 18:47:42.
