data_PCOD9282861
_publ_section_title
;
Structure prediction by ZEFSAII (Michael W. Deem and Ramdas Pophale) SiO2 
 PCOD9282861
Probable space group: C 2/C
;
_chemical_formula_sum "Si O2"
_cell_formula_units_Z 32
_cell_length_a 9.620900
_cell_length_b 16.659219
_cell_length_c 10.528231
_cell_angle_alpha 90.000000
_cell_angle_beta 65.387811
_cell_angle_gamma 90.000000
_cell_volume 1534.122736
_symmetry_space_group_name_H-M "C 2/C"
_symmetry_group_IT_number 15
_symmetry_cell_setting 'monoclinic'
loop_
_space_group_symop_operation_xyz
x,y,z
-x,y,1/2-z
-x,-y,-z
x,-y,1/2+z
1/2+x,1/2+y,z
1/2-x,1/2+y,1/2-z
1/2-x,1/2-y,-z
1/2+x,1/2-y,1/2+z
loop_
_atom_site_type_symbol
_atom_site_label
_atom_site_fract_x
_atom_site_fract_y
_atom_site_fract_z
Si Si1 0.000000 0.491944 0.250000
Si Si2 0.605461 0.394083 0.027657
Si Si3 0.180936 0.631259 0.297806
Si Si4 0.500000 0.730022 0.750000
Si Si5 0.203983 0.072018 0.992542
O O1 0.929430 0.553298 0.172416
O O2 0.863002 0.440017 0.358706
O O3 0.616500 0.327562 0.131455
O O4 0.430147 0.398134 0.047964
O O5 0.708647 0.375228 0.866153
O O6 0.652472 0.482574 0.056251
O O7 0.271714 0.626011 0.393603
O O8 0.082077 0.710925 0.317790
#
# Coordination Sequence:
#
# PCOD9282861 Si02
#       5
#     4   8   8   4   8
#     4   9  20  36  60  96 119 158 202 251 296 358
#     4  10  23  38  64  92 120 160 206 253 296 362
#     4  10  21  41  61  89 128 160 196 252 310 359
#     4  11  24  40  60  92 127 160 196 251 318 358
#     4  10  21  39  65  92 120 159 210 250 295 359
#
# _framework density 20.858826000000001
#
# number of rings (size 3 to 8) (size 9 to 14) (size 15 to 20)
#    0.000    2.000    0.000    2.250   10.500    1.000 
#    4.500    0.000    0.000    0.000    0.000    0.000 
#    0.000    0.000    0.000    0.000    0.000    0.000 
#
# Total GULP energy -89455.553945 kJ/mol
# GULP energy per Si atom -5590.972122 kJ/mol
# Density = 2.081135 g / cm^3
# Si number density = 20.858826 Si / 1000 Ang^3
#
#
#
# Elastic Constant Matrix: (Units=GPa)
#
#
# Indices 1 2 3 4 5 6 
#
# 1 74.4145 2.9309 14.9856 0.0000 -3.6925 0.0000
# 2 2.9309 57.6773 19.5031 0.0000 10.6130 0.0000
# 3 14.9856 19.5031 38.6664 0.0000 -3.2785 0.0000
# 4 0.0000 0.0000 0.0000 23.2198 0.0000 -1.3284
# 5 -3.6925 10.6130 -3.2785 0.0000 34.6501 0.0000
# 6 0.0000 0.0000 0.0000 -1.3284 0.0000 0.1176
#
#
#
# Elastic Compliance Matrix: (Units=1/GPa)
#
#
# Indices 1 2 3 4 5 6 
#
# 1 0.014682 0.001271 -0.006282 0.000000 0.000581 0.000000
# 2 0.001271 0.023119 -0.012846 0.000000 -0.008161 0.000000
# 3 -0.006282 -0.012846 0.035337 0.000000 0.006609 0.000000
# 4 0.000000 0.000000 0.000000 0.121703 0.000000 1.374471
# 5 0.000581 -0.008161 0.006609 0.000000 0.032047 0.000000
# 6 0.000000 0.000000 0.000000 1.374471 0.000000 24.024301
#
#
# Mechanical properties :
#
#
# Convention : Reuss Voigt Hill
#
# Bulk Modulus (GPa) = 26.72058 27.28858 27.00458
# Shear Modulus (GPa) = 0.20577 20.48672 10.34624
#
# Velocity S-wave (km/s) = 0.31442 3.13734 2.22955
# Velocity P-wave (km/s) = 3.60136 5.12199 4.42745
#
# Compressibility (1/GPa) = 0.03742434
#
# Stress axis : x y z
#
# Youngs Moduli (GPa) = 68.11007 43.25526 28.29924
#
# Poissons Ratio (x) = -0.05499 0.17778
# Poissons Ratio (y) = -0.08659 0.36352
# Poissons Ratio (z) = 0.42789 0.55564
#
# Static dielectric constant tensor:
#      x y z
#    x 1.753890 0.000000 -0.006300 
#    y 0.000000 1.739140 0.000000 
#    z -0.006300 0.000000 1.732410 
# 
# From -- ./inp_files/75550.got.cif
#   From: 2010.05.17/outbox.cif.g08.bks.cpg/sg15_38_cif.got.tgz:75550.got - 2010.06.03 18:47:42.
