data_PCOD9282519
_publ_section_title
;
Structure prediction by ZEFSAII (Michael W. Deem and Ramdas Pophale) SiO2 
 PCOD9282519
Probable space group: C 2/C
;
_chemical_formula_sum "Si O2"
_cell_formula_units_Z 56
_cell_length_a 13.908588
_cell_length_b 29.042609
_cell_length_c 5.170983
_cell_angle_alpha 90.000000
_cell_angle_beta 97.301236
_cell_angle_gamma 90.000000
_cell_volume 2071.839160
_symmetry_space_group_name_H-M "C 2/C"
_symmetry_group_IT_number 15
_symmetry_cell_setting 'monoclinic'
loop_
_space_group_symop_operation_xyz
x,y,z
-x,y,1/2-z
-x,-y,-z
x,-y,1/2+z
1/2+x,1/2+y,z
1/2-x,1/2+y,1/2-z
1/2-x,1/2-y,-z
1/2+x,1/2-y,1/2+z
loop_
_atom_site_type_symbol
_atom_site_label
_atom_site_fract_x
_atom_site_fract_y
_atom_site_fract_z
Si Si1 0.144594 0.026977 0.270149
Si Si2 0.879731 0.472214 0.865355
Si Si3 0.890425 0.265936 0.642296
Si Si4 0.101695 0.174301 0.675112
Si Si5 0.735075 0.856797 0.916130
Si Si6 0.000000 0.293219 0.250000
Si Si7 0.000000 0.105860 0.250000
Si Si8 0.862891 0.379486 0.109860
O O1 0.261414 0.032097 0.308698
O O2 0.080200 0.070285 0.165627
O O3 0.121092 0.012881 0.555650
O O4 0.905648 0.489223 0.588391
O O5 0.913697 0.423457 0.996102
O O6 0.850935 0.225221 0.809655
O O7 0.814728 0.306844 0.605363
O O8 0.000000 0.284355 0.750000
O O9 0.922527 0.257980 0.355985
O O10 0.162562 0.147951 0.912428
O O11 0.000000 0.191658 0.750000
O O12 0.064595 0.139390 0.449043
O O13 0.672064 0.885921 0.106266
O O14 0.727169 0.871453 0.616319
O O15 0.075349 0.332823 0.380192
#
# Coordination Sequence:
#
# PCOD9282519 Si02
#       8
#     8   8   8   8   8   4   4   8
#     4  10  23  41  70  91 128 177 229 274 332 402
#     4  10  21  39  62  95 131 172 214 274 339 411
#     4  10  21  46  69  96 133 175 232 277 347 401
#     4  11  28  42  65  96 144 182 226 286 348 392
#     4  11  24  45  70  99 132 185 232 285 332 409
#     4  10  22  43  74 102 132 178 226 294 329 424
#     4  12  26  43  62  98 136 176 230 288 339 396
#     4  11  23  42  74 100 135 173 235 275 349 402
#
# _framework density 27.029123999999999
#
# number of rings (size 3 to 8) (size 9 to 14) (size 15 to 20)
#    0.000    1.429    1.429    2.571    6.000    3.429 
#    0.000    2.857    0.000    0.000    0.000    0.000 
#    0.000    0.000    0.000    0.000    0.000    0.000 
#
# Total GULP energy -156166.539066 kJ/mol
# GULP energy per Si atom -5577.376395 kJ/mol
# Density = 2.696760 g / cm^3
# Si number density = 27.029124 Si / 1000 Ang^3
#
#
#
# Elastic Constant Matrix: (Units=GPa)
#
#
# Indices 1 2 3 4 5 6 
#
# 1 70.4161 22.7997 32.9983 0.0000 31.9128 0.0000
# 2 22.7997 125.0106 48.4450 0.0000 5.7126 0.0000
# 3 32.9983 48.4450 132.6687 0.0000 33.5419 0.0000
# 4 0.0000 0.0000 0.0000 37.3362 0.0000 -5.9741
# 5 31.9128 5.7126 33.5419 0.0000 44.9141 0.0000
# 6 0.0000 0.0000 0.0000 -5.9741 0.0000 -27.8594
#
#
#
# Elastic Compliance Matrix: (Units=1/GPa)
#
#
# Indices 1 2 3 4 5 6 
#
# 1 0.022298 -0.003146 -0.000607 0.000000 -0.014990 0.000000
# 2 -0.003146 0.009865 -0.003782 0.000000 0.003805 0.000000
# 3 -0.000607 -0.003782 0.010896 0.000000 -0.007225 0.000000
# 4 0.000000 0.000000 0.000000 0.025895 0.000000 -0.005553
# 5 -0.014990 0.003805 -0.007225 0.000000 0.037827 0.000000
# 6 0.000000 0.000000 0.000000 -0.005553 0.000000 -0.034704
#
#
# Mechanical properties :
#
#
# Convention : Reuss Voigt Hill
#
# Bulk Modulus (GPa) = 35.72958 59.62016 47.67487
# Shear Modulus (GPa) = 51.82573 25.80166 38.81370
#
# Velocity S-wave (km/s) = 4.38357 3.09299 3.79356
# Velocity P-wave (km/s) = 6.23446 5.90433 6.07164
#
# Compressibility (1/GPa) = 0.02798802
#
# Stress axis : x y z
#
# Youngs Moduli (GPa) = 44.84700 101.37093 91.77585
#
# Poissons Ratio (x) = 0.31895 0.05575
# Poissons Ratio (y) = 0.14111 0.34706
# Poissons Ratio (z) = 0.02724 0.38334
#
# Static dielectric constant tensor:
#      x y z
#    x 2.146450 0.000000 0.310240 
#    y 0.000000 2.195090 0.000000 
#    z 0.310240 0.000000 0.800530 
# 
# From -- ./inp_files/11589.got.cif
#   From: 2010.05.17/outbox.cif.g08.bks.cpg/sg15_6_cif.got.tgz:11589.got - 2010.06.03 18:47:42.
