data_PCOD9282384
_publ_section_title
;
Structure prediction by ZEFSAII (Michael W. Deem and Ramdas Pophale) SiO2 
 PCOD9282384
Probable space group: C 2/C
;
_chemical_formula_sum "Si O2"
_cell_formula_units_Z 32
_cell_length_a 15.821597
_cell_length_b 26.967833
_cell_length_c 5.653836
_cell_angle_alpha 90.000000
_cell_angle_beta 38.828091
_cell_angle_gamma 90.000000
_cell_volume 1512.506679
_symmetry_space_group_name_H-M "C 2/C"
_symmetry_group_IT_number 15
_symmetry_cell_setting 'monoclinic'
loop_
_space_group_symop_operation_xyz
x,y,z
-x,y,1/2-z
-x,-y,-z
x,-y,1/2+z
1/2+x,1/2+y,z
1/2-x,1/2+y,1/2-z
1/2-x,1/2-y,-z
1/2+x,1/2-y,1/2+z
loop_
_atom_site_type_symbol
_atom_site_label
_atom_site_fract_x
_atom_site_fract_y
_atom_site_fract_z
Si Si1 0.883794 0.694584 0.814000
Si Si2 0.717245 0.709958 0.774677
Si Si3 0.137766 0.135447 0.589999
Si Si4 0.155611 0.018941 0.641680
O O1 0.854786 0.690283 0.595625
O O2 0.000000 0.681604 0.750000
O O3 0.869180 0.754752 0.866483
O O4 0.757898 0.661742 0.183019
O O5 0.750000 0.750000 0.500000
O O6 0.640309 0.664392 0.831248
O O7 0.158813 0.077471 0.589293
O O8 0.000000 0.142200 0.750000
O O9 0.214416 0.994123 0.273332
O O10 0.000000 0.000000 0.000000
#
# Coordination Sequence:
#
# PCOD9282384 Si02
#       4
#     8   8   8   8
#     4  10  23  40  58  87 127 168 212 258 313 387
#     4   9  22  37  59  88 123 165 212 257 311 383
#     4  11  23  36  63  93 123 164 209 265 327 377
#     4  10  21  39  61  94 132 160 210 275 329 384
#
# _framework density 21.156932000000001
#
# number of rings (size 3 to 8) (size 9 to 14) (size 15 to 20)
#    0.000    2.000    2.500    0.000   14.000    3.000 
#    0.000    0.000    0.000    1.500    0.000    0.000 
#    0.000    0.000    0.000    0.000    0.000    0.000 
#
# Total GULP energy -89088.414736 kJ/mol
# GULP energy per Si atom -5568.025921 kJ/mol
# Density = 2.110878 g / cm^3
# Si number density = 21.156932 Si / 1000 Ang^3
#
#
#
# Elastic Constant Matrix: (Units=GPa)
#
#
# Indices 1 2 3 4 5 6 
#
# 1 216.4803 64.9384 56.5837 0.0000 9.2988 0.0000
# 2 64.9384 154.0859 24.2712 0.0000 -7.3473 0.0000
# 3 56.5837 24.2712 32.4877 0.0000 3.8943 0.0000
# 4 0.0000 0.0000 0.0000 19.1153 0.0000 2.2895
# 5 9.2988 -7.3473 3.8943 0.0000 39.2615 0.0000
# 6 0.0000 0.0000 0.0000 2.2895 0.0000 28.1494
#
#
#
# Elastic Compliance Matrix: (Units=1/GPa)
#
#
# Indices 1 2 3 4 5 6 
#
# 1 0.008797 -0.001540 -0.014053 0.000000 -0.000978 0.000000
# 2 -0.001540 0.007775 -0.003384 0.000000 0.002155 0.000000
# 3 -0.014053 -0.003384 0.058154 0.000000 -0.003073 0.000000
# 4 0.000000 0.000000 0.000000 0.052829 0.000000 -0.004297
# 5 -0.000978 0.002155 -0.003073 0.000000 0.026410 0.000000
# 6 0.000000 0.000000 0.000000 -0.004297 0.000000 0.035874
#
#
# Mechanical properties :
#
#
# Convention : Reuss Voigt Hill
#
# Bulk Modulus (GPa) = 27.19605 77.18228 52.18917
# Shear Modulus (GPa) = 20.82902 34.45594 27.64248
#
# Velocity S-wave (km/s) = 3.14108 4.03996 3.61854
# Velocity P-wave (km/s) = 5.10270 7.63686 6.49458
#
# Compressibility (1/GPa) = 0.03677004
#
# Stress axis : x y z
#
# Youngs Moduli (GPa) = 113.68047 128.61942 17.19585
#
# Poissons Ratio (x) = 0.19811 0.24165
# Poissons Ratio (y) = 0.17510 0.05819
# Poissons Ratio (z) = 1.59755 0.43527
#
# Static dielectric constant tensor:
#      x y z
#    x 1.892320 0.000000 0.095430 
#    y 0.000000 1.705000 0.000000 
#    z 0.095430 0.000000 2.024840 
# 
# From -- ./inp_files/4059.got.cif
#   From: 2010.05.17/outbox.cif.g08.bks.cpg/sg15_3_cif.got.tgz:4059.got - 2010.06.03 18:47:42.
