data_PCOD9282742
_publ_section_title
;
Structure prediction by ZEFSAII (Michael W. Deem and Ramdas Pophale) SiO2 
 PCOD9282742
Probable space group: C 2/C
;
_chemical_formula_sum "Si O2"
_cell_formula_units_Z 56
_cell_length_a 13.759079
_cell_length_b 20.474092
_cell_length_c 9.500031
_cell_angle_alpha 90.000000
_cell_angle_beta 117.556696
_cell_angle_gamma 90.000000
_cell_volume 2372.597006
_symmetry_space_group_name_H-M "C 2/C"
_symmetry_group_IT_number 15
_symmetry_cell_setting 'monoclinic'
loop_
_space_group_symop_operation_xyz
x,y,z
-x,y,1/2-z
-x,-y,-z
x,-y,1/2+z
1/2+x,1/2+y,z
1/2-x,1/2+y,1/2-z
1/2-x,1/2-y,-z
1/2+x,1/2-y,1/2+z
loop_
_atom_site_type_symbol
_atom_site_label
_atom_site_fract_x
_atom_site_fract_y
_atom_site_fract_z
Si Si1 0.483307 0.625073 0.392449
Si Si2 0.605734 0.019653 0.214518
Si Si3 0.179252 0.838672 0.212578
Si Si4 0.211876 0.095546 0.035895
Si Si5 0.500319 0.103001 0.583412
Si Si6 0.120839 0.710003 0.324819
Si Si7 0.605534 0.767691 0.131684
O O1 0.500000 0.594498 0.250000
O O2 0.601209 0.630229 0.545143
O O3 0.398266 0.593337 0.445635
O O4 0.432266 0.698576 0.336447
O O5 0.500000 0.026585 0.250000
O O6 0.713248 0.033023 0.377852
O O7 0.599887 0.949251 0.132731
O O8 0.590901 0.070356 0.075522
O O9 0.191535 0.884643 0.359290
O O10 0.118813 0.772491 0.224234
O O11 0.294481 0.809071 0.233346
O O12 0.290509 0.154686 0.143633
O O13 0.500000 0.102689 0.750000
O O14 0.510434 0.178786 0.558704
O O15 0.142889 0.738759 0.495126
O O16 0.000000 0.679209 0.250000
#
# Coordination Sequence:
#
# PCOD9282742 Si02
#       7
#     8   8   8   8   8   8   8
#     4  12  25  37  54  88 135 167 200 245 318 387
#     4  10  21  39  64  92 117 159 212 260 303 362
#     4  11  21  37  58  87 124 160 215 257 292 371
#     4  11  20  37  59  86 118 164 206 259 306 354
#     4  10  22  38  58  91 128 157 203 254 311 372
#     4  11  17  32  60  87 115 152 206 254 290 352
#     4  11  20  35  57  85 121 167 195 242 313 363
#
# _framework density 23.602827999999999
#
# number of rings (size 3 to 8) (size 9 to 14) (size 15 to 20)
#    0.000    1.143    4.286    4.714    0.000    1.714 
#    0.000    0.000    0.000    0.857    0.000    1.000 
#    0.000    0.000    0.000    0.000    0.000    0.000 
#
# Total GULP energy -156258.694873 kJ/mol
# GULP energy per Si atom -5580.667674 kJ/mol
# Density = 2.354911 g / cm^3
# Si number density = 23.602828 Si / 1000 Ang^3
#
#
#
# Elastic Constant Matrix: (Units=GPa)
#
#
# Indices 1 2 3 4 5 6 
#
# 1 58.5457 -15.6690 24.0403 0.0000 3.6696 0.0000
# 2 -15.6690 20.3529 -3.9517 0.0000 4.4962 0.0000
# 3 24.0403 -3.9517 134.5860 0.0000 7.1450 0.0000
# 4 0.0000 0.0000 0.0000 22.5180 0.0000 1.1264
# 5 3.6696 4.4962 7.1450 0.0000 38.6039 0.0000
# 6 0.0000 0.0000 0.0000 1.1264 0.0000 15.2545
#
#
#
# Elastic Compliance Matrix: (Units=1/GPa)
#
#
# Indices 1 2 3 4 5 6 
#
# 1 0.023664 0.018367 -0.003489 0.000000 -0.003743 0.000000
# 2 0.018367 0.065127 -0.000882 0.000000 -0.009168 0.000000
# 3 -0.003489 -0.000882 0.008084 0.000000 -0.001062 0.000000
# 4 0.000000 0.000000 0.000000 0.044574 0.000000 -0.003291
# 5 -0.003743 -0.009168 -0.001062 0.000000 0.027524 0.000000
# 6 0.000000 0.000000 0.000000 -0.003291 0.000000 0.065797
#
#
# Mechanical properties :
#
#
# Convention : Reuss Voigt Hill
#
# Bulk Modulus (GPa) = 8.00846 24.70265 16.35556
# Shear Modulus (GPa) = 20.12885 29.21295 24.67090
#
# Velocity S-wave (km/s) = 2.92347 3.52190 3.23654
# Velocity P-wave (km/s) = 3.84655 5.19875 4.57291
#
# Compressibility (1/GPa) = 0.12486793
#
# Stress axis : x y z
#
# Youngs Moduli (GPa) = 42.25892 15.35453 123.70313
#
# Poissons Ratio (x) = -0.28202 0.43159
# Poissons Ratio (y) = -0.77618 0.10909
# Poissons Ratio (z) = 0.14744 0.01354
#
# Static dielectric constant tensor:
#      x y z
#    x 1.996950 0.000000 -0.013910 
#    y 0.000000 2.030780 0.000000 
#    z -0.013910 0.000000 1.956480 
# 
# From -- ./inp_files/42739.got.cif
#   From: 2010.05.17/outbox.cif.g08.bks.cpg/sg15_22_cif.got.tgz:42739.got - 2010.06.03 18:47:42.
