data_PCOD9282789
_publ_section_title
;
Structure prediction by ZEFSAII (Michael W. Deem and Ramdas Pophale) SiO2 
 PCOD9282789
Probable space group: C 2/C
;
_chemical_formula_sum "Si O2"
_cell_formula_units_Z 56
_cell_length_a 27.572944
_cell_length_b 9.285585
_cell_length_c 11.252612
_cell_angle_alpha 90.000000
_cell_angle_beta 115.483076
_cell_angle_gamma 90.000000
_cell_volume 2600.729390
_symmetry_space_group_name_H-M "C 2/C"
_symmetry_group_IT_number 15
_symmetry_cell_setting 'monoclinic'
loop_
_space_group_symop_operation_xyz
x,y,z
-x,y,1/2-z
-x,-y,-z
x,-y,1/2+z
1/2+x,1/2+y,z
1/2-x,1/2+y,1/2-z
1/2-x,1/2-y,-z
1/2+x,1/2-y,1/2+z
loop_
_atom_site_type_symbol
_atom_site_label
_atom_site_fract_x
_atom_site_fract_y
_atom_site_fract_z
Si Si1 0.671855 0.185804 0.943716
Si Si2 0.000000 0.323206 0.750000
Si Si3 0.760172 0.918066 0.354450
Si Si4 0.085837 0.740124 0.662918
Si Si5 0.461826 0.432072 0.055464
Si Si6 0.000000 0.833851 0.750000
Si Si7 0.213719 0.753387 0.580178
Si Si8 0.392464 0.077630 0.037134
O O1 0.717327 0.098424 0.918055
O O2 0.635163 0.251975 0.802433
O O3 0.635194 0.074277 0.975224
O O4 0.694751 0.305796 0.054971
O O5 0.992614 0.209372 0.635268
O O6 0.944338 0.408712 0.677970
O O7 0.734741 0.855827 0.205575
O O8 0.780393 0.082131 0.366743
O O9 0.087186 0.872893 0.571623
O O10 0.031244 0.746021 0.682621
O O11 0.089937 0.603391 0.580632
O O12 0.456329 0.553510 0.149190
O O13 0.500000 0.500000 0.000000
O O14 0.250000 0.750000 0.500000
O O15 0.153633 0.697476 0.485393
#
# Coordination Sequence:
#
# PCOD9282789 Si02
#       8
#     8   4   8   8   8   4   8   8
#     4  11  24  44  69  99 147 185 239 300 355 437
#     4   9  20  37  62 100 134 184 242 292 352 428
#     4  11  26  45  72 109 139 185 244 299 363 434
#     4  10  21  39  64  95 136 187 235 296 354 425
#     4   8  16  34  60  88 137 183 232 292 343 428
#     4   9  18  37  64  96 140 186 242 296 354 432
#     4  12  25  46  77 105 146 189 240 301 367 431
#     4  11  23  44  71 100 142 193 239 300 359 435
#
# _framework density 21.532420999999999
#
# number of rings (size 3 to 8) (size 9 to 14) (size 15 to 20)
#    0.000    1.714    2.857    0.857    2.000    5.143 
#    0.000   13.571    0.000    0.857    0.000    0.000 
#    0.000    0.000    0.000    0.000    0.000    0.000 
#
# Total GULP energy -156179.280845 kJ/mol
# GULP energy per Si atom -5577.831459 kJ/mol
# Density = 2.148341 g / cm^3
# Si number density = 21.532421 Si / 1000 Ang^3
#
#
#
# Elastic Constant Matrix: (Units=GPa)
#
#
# Indices 1 2 3 4 5 6 
#
# 1 100.0812 48.5820 43.6538 0.0000 3.2128 0.0000
# 2 48.5820 112.3928 46.0943 0.0000 8.4554 0.0000
# 3 43.6538 46.0943 93.1210 0.0000 8.9895 0.0000
# 4 0.0000 0.0000 0.0000 -2.2891 0.0000 6.4203
# 5 3.2128 8.4554 8.9895 0.0000 41.1044 0.0000
# 6 0.0000 0.0000 0.0000 6.4203 0.0000 41.1746
#
#
#
# Elastic Compliance Matrix: (Units=1/GPa)
#
#
# Indices 1 2 3 4 5 6 
#
# 1 0.014011 -0.004254 -0.004537 0.000000 0.000772 0.000000
# 2 -0.004254 0.012505 -0.004065 0.000000 -0.001351 0.000000
# 3 -0.004537 -0.004065 0.015081 0.000000 -0.002107 0.000000
# 4 0.000000 0.000000 0.000000 -0.303930 0.000000 0.047392
# 5 0.000772 -0.001351 -0.002107 0.000000 0.025007 0.000000
# 6 0.000000 0.000000 0.000000 0.047392 0.000000 0.016897
#
#
# Mechanical properties :
#
#
# Convention : Reuss Voigt Hill
#
# Bulk Modulus (GPa) = 62.95262 64.69500 63.82381
# Shear Modulus (GPa) = -26.39612 27.14898 0.37643
#
# Velocity S-wave (km/s) = -3.50505 3.55469 0.41857
# Velocity P-wave (km/s) = 3.59432 6.85262 5.47163
#
# Compressibility (1/GPa) = 0.01588496
#
# Stress axis : x y z
#
# Youngs Moduli (GPa) = 71.37283 79.96869 66.30647
#
# Poissons Ratio (x) = 0.34015 0.30084
# Poissons Ratio (y) = 0.30359 0.26956
# Poissons Ratio (z) = 0.32383 0.32511
#
# Static dielectric constant tensor:
#      x y z
#    x 1.804160 0.000000 0.024770 
#    y 0.000000 1.858740 0.000000 
#    z 0.024770 0.000000 1.824420 
# 
# From -- ./inp_files/125999.got.cif
#   From: 2010.05.17/outbox.cif.g08.bks.cpg/sg15_63_cif.got.tgz:125999.got - 2010.06.03 18:47:42.
