data_PCOD9282942
_publ_section_title
;
Structure prediction by ZEFSAII (Michael W. Deem and Ramdas Pophale) SiO2 
 PCOD9282942
Probable space group: C 2/C
;
_chemical_formula_sum "Si O2"
_cell_formula_units_Z 52
_cell_length_a 9.559287
_cell_length_b 11.702246
_cell_length_c 22.278128
_cell_angle_alpha 90.000000
_cell_angle_beta 77.730138
_cell_angle_gamma 90.000000
_cell_volume 2435.218792
_symmetry_space_group_name_H-M "C 2/C"
_symmetry_group_IT_number 15
_symmetry_cell_setting 'monoclinic'
loop_
_space_group_symop_operation_xyz
x,y,z
-x,y,1/2-z
-x,-y,-z
x,-y,1/2+z
1/2+x,1/2+y,z
1/2-x,1/2+y,1/2-z
1/2-x,1/2-y,-z
1/2+x,1/2-y,1/2+z
loop_
_atom_site_type_symbol
_atom_site_label
_atom_site_fract_x
_atom_site_fract_y
_atom_site_fract_z
Si Si1 0.961618 0.134735 0.501905
Si Si2 0.818692 0.509057 0.589302
Si Si3 0.456158 0.081649 0.694842
Si Si4 0.012267 0.075974 0.125653
Si Si5 0.571064 0.144426 0.031749
Si Si6 0.000000 0.796911 0.750000
Si Si7 0.764534 0.537135 0.901303
O O1 0.849503 0.000110 0.401061
O O2 0.979068 0.166091 0.430381
O O3 0.805008 0.126487 0.545614
O O4 0.000000 0.000000 0.500000
O O5 0.882787 0.602435 0.538300
O O6 0.852623 0.530541 0.655613
O O7 0.909554 0.397916 0.560943
O O8 0.500000 0.009962 0.750000
O O9 0.605943 0.094787 0.645924
O O10 0.397654 0.200690 0.728020
O O11 0.035922 0.126941 0.189435
O O12 0.862547 0.008883 0.130405
O O13 0.937976 0.219290 0.969465
O O14 0.670375 0.072787 0.068760
#
# Coordination Sequence:
#
# PCOD9282942 Si02
#       7
#     8   8   8   8   8   4   8
#     4  10  22  39  62  97 132 172 210 271 329 394
#     4  10  21  39  65  98 124 166 214 271 326 392
#     4   9  22  42  62  84 124 170 216 264 324 389
#     4  11  23  39  63  94 129 163 219 268 328 388
#     4  10  21  39  67  95 134 168 212 265 336 399
#     4  10  24  38  62  90 120 176 214 274 320 388
#     4  10  22  43  61  96 129 171 214 278 334 396
#
# _framework density 21.353316
#
# number of rings (size 3 to 8) (size 9 to 14) (size 15 to 20)
#    0.462    1.538    1.538    0.923    4.308    3.077 
#    5.538    0.000    0.000    1.846    0.000    0.000 
#    0.000    0.000    0.000    0.000    0.000    0.000 
#
# Total GULP energy -144757.358499 kJ/mol
# GULP energy per Si atom -5567.590711 kJ/mol
# Density = 2.130471 g / cm^3
# Si number density = 21.353316 Si / 1000 Ang^3
#
#
#
# Elastic Constant Matrix: (Units=GPa)
#
#
# Indices 1 2 3 4 5 6 
#
# 1 86.9704 22.3033 25.0426 0.0000 20.4033 0.0000
# 2 22.3033 99.8404 38.5363 0.0000 8.8882 0.0000
# 3 25.0426 38.5363 139.5153 0.0000 17.4154 0.0000
# 4 0.0000 0.0000 0.0000 18.7661 0.0000 11.6554
# 5 20.4033 8.8882 17.4154 0.0000 22.0066 0.0000
# 6 0.0000 0.0000 0.0000 11.6554 0.0000 8.7220
#
#
#
# Elastic Compliance Matrix: (Units=1/GPa)
#
#
# Indices 1 2 3 4 5 6 
#
# 1 0.015188 -0.002034 -0.000565 0.000000 -0.012813 0.000000
# 2 -0.002034 0.011590 -0.002760 0.000000 -0.000611 0.000000
# 3 -0.000565 -0.002760 0.008685 0.000000 -0.005234 0.000000
# 4 0.000000 0.000000 0.000000 0.313423 0.000000 -0.418835
# 5 -0.012813 -0.000611 -0.005234 0.000000 0.061710 0.000000
# 6 0.000000 0.000000 0.000000 -0.418835 0.000000 0.674354
#
#
# Mechanical properties :
#
#
# Convention : Reuss Voigt Hill
#
# Bulk Modulus (GPa) = 40.41195 55.34338 47.87767
# Shear Modulus (GPa) = 4.52933 25.92852 15.22892
#
# Velocity S-wave (km/s) = 1.45799 3.48841 2.67345
# Velocity P-wave (km/s) = 4.66913 6.49611 5.65687
#
# Compressibility (1/GPa) = 0.02474515
#
# Stress axis : x y z
#
# Youngs Moduli (GPa) = 65.83934 86.28066 115.14330
#
# Poissons Ratio (x) = 0.17551 0.06505
# Poissons Ratio (y) = 0.13393 0.31779
# Poissons Ratio (z) = 0.03720 0.23813
#
# Static dielectric constant tensor:
#      x y z
#    x 1.821070 0.000000 0.009460 
#    y 0.000000 1.826690 0.000000 
#    z 0.009460 0.000000 1.836170 
# 
# From -- ./inp_files/238049.got.cif
#   From: 2010.05.17/outbox.cif.g08.bks.cpg/sg15_120_cif.got.tgz:238049.got - 2010.06.03 18:47:42.
