data_PCOD9282819
_publ_section_title
;
Structure prediction by ZEFSAII (Michael W. Deem and Ramdas Pophale) SiO2 
 PCOD9282819
Probable space group: C 2/C
;
_chemical_formula_sum "Si O2"
_cell_formula_units_Z 40
_cell_length_a 14.260052
_cell_length_b 24.024567
_cell_length_c 5.150603
_cell_angle_alpha 90.000000
_cell_angle_beta 58.702899
_cell_angle_gamma 90.000000
_cell_volume 1507.784438
_symmetry_space_group_name_H-M "C 2/C"
_symmetry_group_IT_number 15
_symmetry_cell_setting 'monoclinic'
loop_
_space_group_symop_operation_xyz
x,y,z
-x,y,1/2-z
-x,-y,-z
x,-y,1/2+z
1/2+x,1/2+y,z
1/2-x,1/2+y,1/2-z
1/2-x,1/2-y,-z
1/2+x,1/2-y,1/2+z
loop_
_atom_site_type_symbol
_atom_site_label
_atom_site_fract_x
_atom_site_fract_y
_atom_site_fract_z
Si Si1 0.926544 0.806021 0.615012
Si Si2 0.110610 0.315999 0.421248
Si Si3 0.275857 0.376778 0.511197
Si Si4 0.620093 0.067618 0.612723
Si Si5 0.834543 0.969079 0.070009
O O1 0.882348 0.743547 0.726472
O O2 0.836019 0.851074 0.671926
O O3 0.000000 0.821744 0.750000
O O4 0.000000 0.803271 0.250000
O O5 0.216354 0.326779 0.448108
O O6 0.103412 0.370465 0.255209
O O7 0.000000 0.315884 0.750000
O O8 0.351298 0.412144 0.206232
O O9 0.183610 0.418364 0.755111
O O10 0.500000 0.042327 0.750000
O O11 0.703777 0.036482 0.686054
O O12 0.873975 0.015259 0.223827
#
# Coordination Sequence:
#
# PCOD9282819 Si02
#       5
#     8   8   8   8   8
#     4  11  27  44  67  98 132 173 224 272 317 379
#     4  10  21  39  64  99 139 174 212 257 318 394
#     4  11  24  43  70  94 133 176 217 268 327 383
#     4  11  22  38  65  98 136 175 213 257 319 398
#     4  11  24  43  65  95 130 170 216 271 328 390
#
# _framework density 26.528991999999999
#
# number of rings (size 3 to 8) (size 9 to 14) (size 15 to 20)
#    0.000    1.200    4.000    1.200    8.400    1.600 
#    0.000    0.000    0.000    3.600    0.000    0.000 
#    0.000    0.000    0.000    0.000    0.000    0.000 
#
# Total GULP energy -111992.524901 kJ/mol
# GULP energy per Si atom -5599.626245 kJ/mol
# Density = 2.646861 g / cm^3
# Si number density = 26.528992 Si / 1000 Ang^3
#
#
#
# Elastic Constant Matrix: (Units=GPa)
#
#
# Indices 1 2 3 4 5 6 
#
# 1 119.8946 38.6110 34.6088 0.0000 36.5838 0.0000
# 2 38.6110 100.3250 12.2985 0.0000 -7.1580 0.0000
# 3 34.6088 12.2985 104.3419 0.0000 18.6417 0.0000
# 4 0.0000 0.0000 0.0000 29.9650 0.0000 11.1277
# 5 36.5838 -7.1580 18.6417 0.0000 48.8527 0.0000
# 6 0.0000 0.0000 0.0000 11.1277 0.0000 28.2217
#
#
#
# Elastic Compliance Matrix: (Units=1/GPa)
#
#
# Indices 1 2 3 4 5 6 
#
# 1 0.014092 -0.005927 -0.002077 0.000000 -0.010629 0.000000
# 2 -0.005927 0.012807 -0.000721 0.000000 0.006590 0.000000
# 3 -0.002077 -0.000721 0.010838 0.000000 -0.002686 0.000000
# 4 0.000000 0.000000 0.000000 0.039097 0.000000 -0.015416
# 5 -0.010629 0.006590 -0.002686 0.000000 0.030420 0.000000
# 6 0.000000 0.000000 0.000000 -0.015416 0.000000 0.041512
#
#
# Mechanical properties :
#
#
# Convention : Reuss Voigt Hill
#
# Bulk Modulus (GPa) = 49.29175 55.06644 52.17910
# Shear Modulus (GPa) = 28.90529 37.34410 33.12469
#
# Velocity S-wave (km/s) = 3.30445 3.75596 3.53742
# Velocity P-wave (km/s) = 5.76020 6.29379 6.03290
#
# Compressibility (1/GPa) = 0.02028737
#
# Stress axis : x y z
#
# Youngs Moduli (GPa) = 70.96099 78.07987 92.27207
#
# Poissons Ratio (x) = 0.46281 0.19161
# Poissons Ratio (y) = 0.42061 0.06653
# Poissons Ratio (z) = 0.14735 0.05630
#
# Static dielectric constant tensor:
#      x y z
#    x 1.987330 0.000000 0.097070 
#    y 0.000000 2.086020 0.000000 
#    z 0.097070 0.000000 1.855530 
# 
# From -- ./inp_files/7500.got.cif
#   From: 2010.05.17/outbox.cif.g08.bks.cpg/sg15_4_cif.got.tgz:7500.got - 2010.06.03 18:47:42.
