data_PCOD9282412
_publ_section_title
;
Structure prediction by ZEFSAII (Michael W. Deem and Ramdas Pophale) SiO2 
 PCOD9282412
Probable space group: C 2/C
;
_chemical_formula_sum "Si O2"
_cell_formula_units_Z 48
_cell_length_a 9.566033
_cell_length_b 11.932530
_cell_length_c 15.004984
_cell_angle_alpha 90.000000
_cell_angle_beta 88.052330
_cell_angle_gamma 90.000000
_cell_volume 1711.784050
_symmetry_space_group_name_H-M "C 2/C"
_symmetry_group_IT_number 15
_symmetry_cell_setting 'monoclinic'
loop_
_space_group_symop_operation_xyz
x,y,z
-x,y,1/2-z
-x,-y,-z
x,-y,1/2+z
1/2+x,1/2+y,z
1/2-x,1/2+y,1/2-z
1/2-x,1/2-y,-z
1/2+x,1/2-y,1/2+z
loop_
_atom_site_type_symbol
_atom_site_label
_atom_site_fract_x
_atom_site_fract_y
_atom_site_fract_z
Si Si1 0.379089 0.384598 0.918459
Si Si2 0.893225 0.170018 0.624674
Si Si3 0.904856 0.358090 0.338127
Si Si4 0.513253 0.909837 0.643437
Si Si5 0.325707 0.338804 0.595679
Si Si6 0.800643 0.882809 0.386172
O O1 0.373451 0.254512 0.893249
O O2 0.537387 0.405236 0.877321
O O3 0.281773 0.483268 0.882162
O O4 0.371831 0.383267 0.026110
O O5 0.760890 0.122882 0.683797
O O6 0.914058 0.307107 0.614351
O O7 0.047624 0.142329 0.657957
O O8 0.974317 0.461377 0.390784
O O9 0.000000 0.340646 0.250000
O O10 0.500000 0.919886 0.750000
O O11 0.673559 0.875078 0.626500
O O12 0.319825 0.208787 0.626158
O O13 0.331477 0.354311 0.489754
#
# Coordination Sequence:
#
# PCOD9282412 Si02
#       6
#     8   8   8   8   8   8
#     4  11  21  35  62  89 121 156 194 257 299 357
#     4  10  21  39  62  87 114 156 208 241 300 367
#     4  11  25  40  55  87 124 161 197 244 311 365
#     4  10  22  39  60  83 118 163 198 249 303 364
#     4   9  18  34  60  87 114 150 204 244 297 357
#     4   9  18  35  60  91 114 150 199 253 297 350
#
# _framework density 28.040922999999999
#
# number of rings (size 3 to 8) (size 9 to 14) (size 15 to 20)
#    0.000    2.000    0.000    5.500    2.333    2.000 
#    0.000    3.333    0.000    0.000    0.000    0.000 
#    0.000    0.000    0.000    0.000    0.000    0.000 
#
# Total GULP energy -133978.063224 kJ/mol
# GULP energy per Si atom -5582.419301 kJ/mol
# Density = 2.797710 g / cm^3
# Si number density = 28.040923 Si / 1000 Ang^3
#
#
#
# Elastic Constant Matrix: (Units=GPa)
#
#
# Indices 1 2 3 4 5 6 
#
# 1 82.0943 45.3218 39.2960 0.0000 -40.1871 0.0000
# 2 45.3218 244.4871 17.0643 0.0000 -14.4909 0.0000
# 3 39.2960 17.0643 101.7470 0.0000 -31.9762 0.0000
# 4 0.0000 0.0000 0.0000 26.0198 0.0000 -6.1281
# 5 -40.1871 -14.4909 -31.9762 0.0000 42.0749 0.0000
# 6 0.0000 0.0000 0.0000 -6.1281 0.0000 75.3623
#
#
#
# Elastic Compliance Matrix: (Units=1/GPa)
#
#
# Indices 1 2 3 4 5 6 
#
# 1 0.025805 -0.003325 -0.002657 0.000000 0.021482 0.000000
# 2 -0.003325 0.004612 0.000015 0.000000 -0.001575 0.000000
# 3 -0.002657 0.000015 0.013211 0.000000 0.007508 0.000000
# 4 0.000000 0.000000 0.000000 0.039183 0.000000 0.003186
# 5 0.021482 -0.001575 0.007508 0.000000 0.049449 0.000000
# 6 0.000000 0.000000 0.000000 0.003186 0.000000 0.013528
#
#
# Mechanical properties :
#
#
# Convention : Reuss Voigt Hill
#
# Bulk Modulus (GPa) = 31.55048 70.18805 50.86926
# Shear Modulus (GPa) = 29.71125 50.46781 40.08953
#
# Velocity S-wave (km/s) = 3.25863 4.24700 3.78521
# Velocity P-wave (km/s) = 5.04324 7.00958 6.10608
#
# Compressibility (1/GPa) = 0.03169524
#
# Stress axis : x y z
#
# Youngs Moduli (GPa) = 38.75255 216.82213 75.69193
#
# Poissons Ratio (x) = 0.72089 0.20113
# Poissons Ratio (y) = 0.12884 -0.00117
# Poissons Ratio (z) = 0.10297 -0.00335
#
# Static dielectric constant tensor:
#      x y z
#    x 2.397000 0.000000 -0.024710 
#    y 0.000000 2.401160 0.000000 
#    z -0.024710 0.000000 1.903540 
# 
# From -- ./inp_files/196470.got.cif
#   From: 2010.05.17/outbox.cif.g08.bks.cpg/sg15_99_cif.got.tgz:196470.got - 2010.06.03 18:47:42.
