data_PCOD9282963
_publ_section_title
;
Structure prediction by ZEFSAII (Michael W. Deem and Ramdas Pophale) SiO2 
 PCOD9282963
Probable space group: C 2/C
;
_chemical_formula_sum "Si O2"
_cell_formula_units_Z 48
_cell_length_a 10.680135
_cell_length_b 9.235462
_cell_length_c 24.188812
_cell_angle_alpha 90.000000
_cell_angle_beta 127.683168
_cell_angle_gamma 90.000000
_cell_volume 1888.198644
_symmetry_space_group_name_H-M "C 2/C"
_symmetry_group_IT_number 15
_symmetry_cell_setting 'monoclinic'
loop_
_space_group_symop_operation_xyz
x,y,z
-x,y,1/2-z
-x,-y,-z
x,-y,1/2+z
1/2+x,1/2+y,z
1/2-x,1/2+y,1/2-z
1/2-x,1/2-y,-z
1/2+x,1/2-y,1/2+z
loop_
_atom_site_type_symbol
_atom_site_label
_atom_site_fract_x
_atom_site_fract_y
_atom_site_fract_z
Si Si1 0.730457 0.886749 0.566230
Si Si2 0.998686 0.547434 0.588659
Si Si3 0.579452 0.597500 0.568637
Si Si4 0.979116 0.259472 0.647048
Si Si5 0.937796 0.970065 0.794060
Si Si6 0.712823 0.319006 0.664274
O O1 0.665319 0.924718 0.487950
O O2 0.688415 0.722236 0.571452
O O3 0.909403 0.929486 0.627223
O O4 0.621808 0.981400 0.577736
O O5 0.990601 0.428275 0.634318
O O6 0.075376 0.699351 0.625147
O O7 0.500000 0.500000 0.500000
O O8 0.466131 0.686293 0.581406
O O9 0.674392 0.476297 0.627584
O O10 0.845849 0.258614 0.659051
O O11 0.096183 0.140020 0.706535
O O12 0.000000 0.940639 0.750000
O O13 0.789939 0.873238 0.772561
#
# Coordination Sequence:
#
# PCOD9282963 Si02
#       6
#     8   8   8   8   8   8
#     4  10  21  42  68 101 142 177 224 290 340 425
#     4  10  21  41  71 105 132 175 221 283 365 404
#     4  10  21  39  66 105 141 184 217 272 364 417
#     4  10  24  44  67 100 141 177 226 293 347 418
#     4  11  26  49  67  93 137 185 236 286 343 422
#     4  11  23  43  66 101 135 177 229 285 351 417
#
# _framework density 25.421054999999999
#
# number of rings (size 3 to 8) (size 9 to 14) (size 15 to 20)
#    0.000    1.667    3.333    0.000    2.333    4.667 
#    9.000    0.833    0.000    0.000    0.000    0.000 
#    0.000    0.000    0.000    0.000    0.000    0.000 
#
# Total GULP energy -133948.260500 kJ/mol
# GULP energy per Si atom -5581.177521 kJ/mol
# Density = 2.536320 g / cm^3
# Si number density = 25.421055 Si / 1000 Ang^3
#
#
#
# Elastic Constant Matrix: (Units=GPa)
#
#
# Indices 1 2 3 4 5 6 
#
# 1 134.8822 65.6040 50.5383 0.0000 -28.0404 0.0000
# 2 65.6040 193.1830 42.7990 0.0000 8.1486 0.0000
# 3 50.5383 42.7990 72.3289 0.0000 -8.6737 0.0000
# 4 0.0000 0.0000 0.0000 12.5957 0.0000 -20.6772
# 5 -28.0404 8.1486 -8.6737 0.0000 35.2880 0.0000
# 6 0.0000 0.0000 0.0000 -20.6772 0.0000 53.1133
#
#
#
# Elastic Compliance Matrix: (Units=1/GPa)
#
#
# Indices 1 2 3 4 5 6 
#
# 1 0.013616 -0.003701 -0.006104 0.000000 0.010174 0.000000
# 2 -0.003701 0.007152 -0.002264 0.000000 -0.005148 0.000000
# 3 -0.006104 -0.002264 0.019486 0.000000 0.000462 0.000000
# 4 0.000000 0.000000 0.000000 0.219975 0.000000 0.085637
# 5 0.010174 -0.005148 0.000462 0.000000 0.037725 0.000000
# 6 0.000000 0.000000 0.000000 0.085637 0.000000 0.052166
#
#
# Mechanical properties :
#
#
# Convention : Reuss Voigt Hill
#
# Bulk Modulus (GPa) = 62.04712 79.80851 70.92781
# Shear Modulus (GPa) = 13.17080 36.29626 24.73353
#
# Velocity S-wave (km/s) = 2.27866 3.78273 3.12261
# Velocity P-wave (km/s) = 5.60213 7.10925 6.40021
#
# Compressibility (1/GPa) = 0.01611678
#
# Stress axis : x y z
#
# Youngs Moduli (GPa) = 73.44395 139.82455 51.32016
#
# Poissons Ratio (x) = 0.51745 0.31326
# Poissons Ratio (y) = 0.27179 0.11617
# Poissons Ratio (z) = 0.44830 0.31650
#
# Static dielectric constant tensor:
#      x y z
#    x 2.053580 0.000000 -0.065530 
#    y 0.000000 1.984510 0.000000 
#    z -0.065530 0.000000 2.196950 
# 
# From -- ./inp_files/291295.got.cif
#   From: 2010.05.17/outbox.cif.g08.bks.cpg/sg15_146_cif.got.tgz:291295.got - 2010.06.03 18:47:42.
