data_PCOD9282309
_publ_section_title
;
Structure prediction by ZEFSAII (Michael W. Deem and Ramdas Pophale) SiO2 
 PCOD9282309
Probable space group: C 2/C
;
_chemical_formula_sum "Si O2"
_cell_formula_units_Z 56
_cell_length_a 16.370497
_cell_length_b 11.920619
_cell_length_c 16.482868
_cell_angle_alpha 90.000000
_cell_angle_beta 117.512812
_cell_angle_gamma 90.000000
_cell_volume 2852.803174
_symmetry_space_group_name_H-M "C 2/C"
_symmetry_group_IT_number 15
_symmetry_cell_setting 'monoclinic'
loop_
_space_group_symop_operation_xyz
x,y,z
-x,y,1/2-z
-x,-y,-z
x,-y,1/2+z
1/2+x,1/2+y,z
1/2-x,1/2+y,1/2-z
1/2-x,1/2-y,-z
1/2+x,1/2-y,1/2+z
loop_
_atom_site_type_symbol
_atom_site_label
_atom_site_fract_x
_atom_site_fract_y
_atom_site_fract_z
Si Si1 0.187274 0.636438 0.879046
Si Si2 0.000000 0.967119 0.750000
Si Si3 0.516732 0.383980 0.409854
Si Si4 0.000000 0.481514 0.250000
Si Si5 0.352688 0.937721 0.964510
Si Si6 0.653621 0.521340 0.106815
Si Si7 0.190704 0.133645 0.288073
Si Si8 0.514633 0.877319 0.916447
O O1 0.263852 0.542084 0.899261
O O2 0.212295 0.745162 0.836936
O O3 0.089282 0.593832 0.802603
O O4 0.172460 0.641003 0.969799
O O5 0.914697 0.892536 0.738380
O O6 0.962852 0.045077 0.660960
O O7 0.413675 0.426296 0.385355
O O8 0.587038 0.416170 0.513430
O O9 0.524729 0.252322 0.400905
O O10 0.015216 0.556610 0.177593
O O11 0.263630 0.946613 0.866811
O O12 0.437114 0.887864 0.950686
O O13 0.392872 0.057251 0.013053
O O14 0.692932 0.605617 0.193467
#
# Coordination Sequence:
#
# PCOD9282309 Si02
#       8
#     8   4   8   4   8   8   8   8
#     4  11  22  39  60  86 120 154 191 247 294 341
#     4  10  22  38  60  86 114 152 200 236 288 362
#     4  10  21  40  59  83 118 153 190 243 295 343
#     4  10  22  38  60  90 118 150 198 236 290 356
#     4  10  22  37  60  89 116 151 202 238 286 355
#     4  10  23  37  58  88 116 151 198 238 289 358
#     4  11  22  38  60  86 118 156 194 243 293 345
#     4  10  21  39  61  86 118 155 191 244 292 343
#
# _framework density 19.629816000000002
#
# number of rings (size 3 to 8) (size 9 to 14) (size 15 to 20)
#    0.000    1.714    0.000    3.857    0.000    8.000 
#    0.000    9.286    0.000    0.000    0.000    0.000 
#    0.000    0.000    0.000    0.000    0.000    0.000 
#
# Total GULP energy -156275.321204 kJ/mol
# GULP energy per Si atom -5581.261472 kJ/mol
# Density = 1.958514 g / cm^3
# Si number density = 19.629816 Si / 1000 Ang^3
#
#
#
# Elastic Constant Matrix: (Units=GPa)
#
#
# Indices 1 2 3 4 5 6 
#
# 1 67.4588 -0.7002 17.3248 0.0000 -4.0109 0.0000
# 2 -0.7002 46.4112 12.3579 0.0000 -5.6684 0.0000
# 3 17.3248 12.3579 124.0342 0.0000 -2.3198 0.0000
# 4 0.0000 0.0000 0.0000 14.2027 0.0000 0.3769
# 5 -4.0109 -5.6684 -2.3198 0.0000 37.6242 0.0000
# 6 0.0000 0.0000 0.0000 0.3769 0.0000 18.5408
#
#
#
# Elastic Compliance Matrix: (Units=1/GPa)
#
#
# Indices 1 2 3 4 5 6 
#
# 1 0.015509 0.001034 -0.002238 0.000000 0.001671 0.000000
# 2 0.001034 0.022595 -0.002333 0.000000 0.003371 0.000000
# 3 -0.002238 -0.002333 0.008606 0.000000 -0.000059 0.000000
# 4 0.000000 0.000000 0.000000 0.070447 0.000000 -0.001432
# 5 0.001671 0.003371 -0.000059 0.000000 0.027261 0.000000
# 6 0.000000 0.000000 0.000000 -0.001432 0.000000 0.053964
#
#
# Mechanical properties :
#
#
# Convention : Reuss Voigt Hill
#
# Bulk Modulus (GPa) = 25.22924 32.87437 29.05180
# Shear Modulus (GPa) = 22.86579 28.00165 25.43372
#
# Velocity S-wave (km/s) = 3.41669 3.78098 3.60344
# Velocity P-wave (km/s) = 5.33343 5.98704 5.66966
#
# Compressibility (1/GPa) = 0.03963656
#
# Stress axis : x y z
#
# Youngs Moduli (GPa) = 64.47989 44.25785 116.19552
#
# Poissons Ratio (x) = -0.04576 0.26004
# Poissons Ratio (y) = -0.06667 0.27104
# Poissons Ratio (z) = 0.14431 0.10323
#
# Static dielectric constant tensor:
#      x y z
#    x 1.684220 0.000000 -0.033760 
#    y 0.000000 1.662810 0.000000 
#    z -0.033760 0.000000 1.702300 
# 
# From -- ./inp_files/161447.got.cif
#   From: 2010.05.17/outbox.cif.g08.bks.cpg/sg15_81_cif.got.tgz:161447.got - 2010.06.03 18:47:42.
