data_PCOD9282285
_publ_section_title
;
Structure prediction by ZEFSAII (Michael W. Deem and Ramdas Pophale) SiO2 
 PCOD9282285
Probable space group: C 2/C
;
_chemical_formula_sum "Si O2"
_cell_formula_units_Z 56
_cell_length_a 15.805049
_cell_length_b 14.252875
_cell_length_c 23.562027
_cell_angle_alpha 90.000000
_cell_angle_beta 27.503180
_cell_angle_gamma 90.000000
_cell_volume 2451.110398
_symmetry_space_group_name_H-M "C 2/C"
_symmetry_group_IT_number 15
_symmetry_cell_setting 'monoclinic'
loop_
_space_group_symop_operation_xyz
x,y,z
-x,y,1/2-z
-x,-y,-z
x,-y,1/2+z
1/2+x,1/2+y,z
1/2-x,1/2+y,1/2-z
1/2-x,1/2-y,-z
1/2+x,1/2-y,1/2+z
loop_
_atom_site_type_symbol
_atom_site_label
_atom_site_fract_x
_atom_site_fract_y
_atom_site_fract_z
Si Si1 0.802144 0.530849 0.801660
Si Si2 0.613750 0.762081 0.233513
Si Si3 0.073310 0.630189 0.478499
Si Si4 0.000789 0.387788 0.894548
Si Si5 0.030013 0.024718 0.060961
Si Si6 0.345533 0.277352 0.666364
Si Si7 0.836106 0.007965 0.892404
O O1 0.899203 0.627500 0.756731
O O2 0.939024 0.460873 0.689522
O O3 0.635257 0.545521 0.856183
O O4 0.703966 0.501149 0.918434
O O5 0.500000 0.720439 0.250000
O O6 0.813926 0.725421 0.100393
O O7 0.563723 0.730605 0.325547
O O8 0.063153 0.584470 0.421957
O O9 0.188361 0.566472 0.453645
O O10 0.886713 0.678555 0.611290
O O11 0.128593 0.298656 0.803243
O O12 0.781993 0.396426 0.028053
O O13 0.083566 0.024376 0.094804
O O14 0.940154 0.123631 0.091987
O O15 0.000000 0.018037 0.750000
#
# Coordination Sequence:
#
# PCOD9282285 Si02
#       7
#     8   8   8   8   8   8   8
#     4  10  21  39  60  92 134 170 221 264 328 398
#     4  11  22  33  60 100 132 167 211 271 337 388
#     4  11  22  40  65  96 137 170 209 276 340 391
#     4  10  24  41  63  96 129 179 218 266 331 391
#     4  10  22  39  62  95 129 179 218 265 329 389
#     4  10  21  39  61  96 135 167 215 270 338 396
#     4  12  24  40  66  99 138 176 221 268 321 400
#
# _framework density 22.846788
#
# number of rings (size 3 to 8) (size 9 to 14) (size 15 to 20)
#    0.000    1.429    1.429    5.143    4.000    2.286 
#    0.000    0.000    0.000    7.714    3.714    0.000 
#    0.000    0.000    0.000    0.000    0.000    0.000 
#
# Total GULP energy -156105.364661 kJ/mol
# GULP energy per Si atom -5575.191595 kJ/mol
# Density = 2.279479 g / cm^3
# Si number density = 22.846788 Si / 1000 Ang^3
#
#
#
# Elastic Constant Matrix: (Units=GPa)
#
#
# Indices 1 2 3 4 5 6 
#
# 1 78.5663 25.6331 33.8704 0.0071 11.5348 0.0048
# 2 25.6331 43.0677 38.3332 -0.0008 -0.8592 0.0016
# 3 33.8704 38.3332 129.1244 -0.0011 17.8850 0.0100
# 4 0.0071 -0.0008 -0.0011 29.5715 -0.0005 -10.9685
# 5 11.5348 -0.8592 17.8850 -0.0005 31.6314 -0.0027
# 6 0.0048 0.0016 0.0100 -10.9685 -0.0027 6.0106
#
#
#
# Elastic Compliance Matrix: (Units=1/GPa)
#
#
# Indices 1 2 3 4 5 6 
#
# 1 0.017084 -0.009574 -0.000803 -0.000028 -0.006036 -0.000064
# 2 -0.009574 0.038279 -0.010286 0.000032 0.010347 0.000078
# 3 -0.000803 -0.010286 0.011942 -0.000022 -0.006739 -0.000059
# 4 -0.000028 0.000032 -0.000022 0.104655 0.000041 0.190983
# 5 -0.006036 0.010347 -0.006739 0.000041 0.037907 0.000106
# 6 -0.000064 0.000078 -0.000059 0.190983 0.000106 0.514895
#
#
# Mechanical properties :
#
#
# Convention : Reuss Voigt Hill
#
# Bulk Modulus (GPa) = 38.49139 49.60352 44.04746
# Shear Modulus (GPa) = 6.45372 23.63745 15.04559
#
# Velocity S-wave (km/s) = 1.68253 3.22002 2.56899
# Velocity P-wave (km/s) = 4.54519 5.96517 5.30292
#
# Compressibility (1/GPa) = 0.02597983
#
# Stress axis : x y z
#
# Youngs Moduli (GPa) = 58.53418 26.12413 83.73774
#
# Poissons Ratio (x) = 0.25011 0.06725
# Poissons Ratio (y) = 0.56039 0.86130
# Poissons Ratio (z) = 0.04701 0.26871
#
# Static dielectric constant tensor:
#      x y z
#    x 1.854410 0.000000 0.011230 
#    y 0.000000 1.911720 0.000000 
#    z 0.011230 0.000000 1.932010 
# 
# From -- ./inp_files/274482.got.cif
#   From: 2010.05.17/outbox.cif.g08.bks.cpg/sg15_138_cif.got.tgz:274482.got - 2010.06.03 18:47:42.
