data_PCOD9282755
_publ_section_title
;
Structure prediction by ZEFSAII (Michael W. Deem and Ramdas Pophale) SiO2 
 PCOD9282755
Probable space group: C 2/C
;
_chemical_formula_sum "Si O2"
_cell_formula_units_Z 60
_cell_length_a 17.111398
_cell_length_b 13.069860
_cell_length_c 15.394004
_cell_angle_alpha 90.000000
_cell_angle_beta 105.765872
_cell_angle_gamma 90.000000
_cell_volume 3313.253115
_symmetry_space_group_name_H-M "C 2/C"
_symmetry_group_IT_number 15
_symmetry_cell_setting 'monoclinic'
loop_
_space_group_symop_operation_xyz
x,y,z
-x,y,1/2-z
-x,-y,-z
x,-y,1/2+z
1/2+x,1/2+y,z
1/2-x,1/2+y,1/2-z
1/2-x,1/2-y,-z
1/2+x,1/2-y,1/2+z
loop_
_atom_site_type_symbol
_atom_site_label
_atom_site_fract_x
_atom_site_fract_y
_atom_site_fract_z
Si Si1 0.777199 0.271292 0.143830
Si Si2 0.002147 0.836084 0.961762
Si Si3 0.566872 0.180231 0.698396
Si Si4 0.259379 0.073912 0.482928
Si Si5 0.900109 0.266392 0.858345
Si Si6 0.595666 0.460167 0.432133
Si Si7 0.416174 0.989198 0.921294
Si Si8 0.000000 0.862087 0.250000
O O1 0.855205 0.278542 0.227254
O O2 0.775069 0.167028 0.086860
O O3 0.693779 0.264839 0.172359
O O4 0.775818 0.369363 0.079243
O O5 0.970195 0.768646 0.873473
O O6 0.931690 0.874734 0.006011
O O7 0.047704 0.936734 0.942678
O O8 0.065423 0.770977 0.038056
O O9 0.500000 0.148717 0.750000
O O10 0.590996 0.087290 0.642478
O O11 0.341017 0.029009 0.464611
O O12 0.190043 0.988007 0.465834
O O13 0.914693 0.387236 0.861903
O O14 0.948999 0.207580 0.799925
O O15 0.561944 0.426742 0.328121
O O16 0.500000 0.000000 0.000000
#
# Coordination Sequence:
#
# PCOD9282755 Si02
#       8
#     8   8   8   8   8   8   8   4
#     4  10  22  39  63  87 119 159 204 257 298 363
#     4  10  21  41  63  90 123 157 199 256 305 365
#     4  12  25  39  63  93 119 159 214 257 288 364
#     4  10  21  41  63  85 121 162 199 252 318 353
#     4  10  21  44  61  86 127 163 200 250 311 366
#     4  10  21  39  64  93 119 159 199 248 315 363
#     4  11  23  41  64  85 121 167 206 244 306 365
#     4  10  24  36  66  90 122 162 200 252 306 368
#
# _framework density 18.109089999999998
#
# number of rings (size 3 to 8) (size 9 to 14) (size 15 to 20)
#    0.000    1.600    2.667    1.600    7.467    0.000 
#    4.800    0.667    0.000    0.000    0.000    0.000 
#    0.000    0.000    0.000    0.000    0.000    0.000 
#
# Total GULP energy -167551.784424 kJ/mol
# GULP energy per Si atom -5585.059481 kJ/mol
# Density = 1.806787 g / cm^3
# Si number density = 18.109090 Si / 1000 Ang^3
#
#
#
# Elastic Constant Matrix: (Units=GPa)
#
#
# Indices 1 2 3 4 5 6 
#
# 1 104.1372 18.0512 27.5927 0.0000 12.1178 0.0000
# 2 18.0512 54.3820 5.8034 0.0000 -2.6971 0.0000
# 3 27.5927 5.8034 72.9555 0.0000 5.5123 0.0000
# 4 0.0000 0.0000 0.0000 -0.9882 0.0000 5.5944
# 5 12.1178 -2.6971 5.5123 0.0000 22.7484 0.0000
# 6 0.0000 0.0000 0.0000 5.5944 0.0000 19.2056
#
#
#
# Elastic Compliance Matrix: (Units=1/GPa)
#
#
# Indices 1 2 3 4 5 6 
#
# 1 0.011959 -0.003861 -0.003769 0.000000 -0.005915 0.000000
# 2 -0.003861 0.019945 -0.000469 0.000000 0.004535 0.000000
# 3 -0.003769 -0.000469 0.015302 0.000000 -0.001756 0.000000
# 4 0.000000 0.000000 0.000000 -0.382001 0.000000 0.111274
# 5 -0.005915 0.004535 -0.001756 0.000000 0.048073 0.000000
# 6 0.000000 0.000000 0.000000 0.111274 0.000000 0.019655
#
#
# Mechanical properties :
#
#
# Convention : Reuss Voigt Hill
#
# Bulk Modulus (GPa) = 32.24894 37.15214 34.70054
# Shear Modulus (GPa) = -20.78716 20.19499 -0.29608
#
# Velocity S-wave (km/s) = -3.39172 3.34306 -0.40479
# Velocity P-wave (km/s) = 1.58381 5.95497 4.35719
#
# Compressibility (1/GPa) = 0.03100877
#
# Stress axis : x y z
#
# Youngs Moduli (GPa) = 83.62024 50.13818 65.34905
#
# Poissons Ratio (x) = 0.19357 0.24630
# Poissons Ratio (y) = 0.32283 0.03065
# Poissons Ratio (z) = 0.31516 0.02352
#
# Static dielectric constant tensor:
#      x y z
#    x 1.627920 0.000000 -0.017480 
#    y 0.000000 1.611540 0.000000 
#    z -0.017480 0.000000 1.601360 
# 
# From -- ./inp_files/160979.got.cif
#   From: 2010.05.17/outbox.cif.g08.bks.cpg/sg15_81_cif.got.tgz:160979.got - 2010.06.03 18:47:42.
