data_PCOD9282591
_publ_section_title
;
Structure prediction by ZEFSAII (Michael W. Deem and Ramdas Pophale) SiO2 
 PCOD9282591
Probable space group: C 2/C
;
_chemical_formula_sum "Si O2"
_cell_formula_units_Z 32
_cell_length_a 8.790633
_cell_length_b 15.578494
_cell_length_c 21.361496
_cell_angle_alpha 90.000000
_cell_angle_beta 143.133911
_cell_angle_gamma 90.000000
_cell_volume 1755.052209
_symmetry_space_group_name_H-M "C 2/C"
_symmetry_group_IT_number 15
_symmetry_cell_setting 'monoclinic'
loop_
_space_group_symop_operation_xyz
x,y,z
-x,y,1/2-z
-x,-y,-z
x,-y,1/2+z
1/2+x,1/2+y,z
1/2-x,1/2+y,1/2-z
1/2-x,1/2-y,-z
1/2+x,1/2-y,1/2+z
loop_
_atom_site_type_symbol
_atom_site_label
_atom_site_fract_x
_atom_site_fract_y
_atom_site_fract_z
Si Si1 0.861927 0.155775 0.525854
Si Si2 0.468256 0.002131 0.564301
Si Si3 0.827345 0.124379 0.748201
Si Si4 0.224097 0.669626 0.946001
O O1 0.008873 0.121767 0.635761
O O2 0.061124 0.163751 0.535292
O O3 0.750000 0.250000 0.500000
O O4 0.639193 0.086225 0.443939
O O5 0.275537 0.080039 0.515973
O O6 0.721248 0.035511 0.683134
O O7 0.500000 0.000000 0.500000
O O8 0.563987 0.173290 0.675340
O O9 0.000000 0.164684 0.750000
O O10 0.250000 0.750000 0.000000
#
# Coordination Sequence:
#
# PCOD9282591 Si02
#       4
#     8   8   8   8
#     4  12  22  42  65  93 130 168 211 264 321 378
#     4  10  21  39  65  91 127 167 204 266 311 380
#     4  10  21  39  63  90 128 160 214 254 320 375
#     4  10  22  40  64  93 129 163 214 264 316 379
#
# _framework density 18.233076000000001
#
# number of rings (size 3 to 8) (size 9 to 14) (size 15 to 20)
#    1.500    0.000    2.500    4.500    0.000    0.000 
#    4.500    0.000    0.000    0.000    0.000    0.000 
#    0.000    0.000    0.000    0.000    0.000    0.000 
#
# Total GULP energy -89070.485582 kJ/mol
# GULP energy per Si atom -5566.905349 kJ/mol
# Density = 1.819158 g / cm^3
# Si number density = 18.233076 Si / 1000 Ang^3
#
#
#
# Elastic Constant Matrix: (Units=GPa)
#
#
# Indices 1 2 3 4 5 6 
#
# 1 171.7027 52.3203 30.8696 0.0000 21.9350 0.0000
# 2 52.3203 127.7720 31.8264 -0.0002 9.8676 0.0000
# 3 30.8696 31.8264 84.1450 -0.0009 1.2252 -0.0001
# 4 0.0000 -0.0002 -0.0009 19.2923 -0.0002 2.2587
# 5 21.9350 9.8676 1.2252 -0.0002 39.7625 0.0000
# 6 0.0000 0.0000 -0.0001 2.2587 0.0000 34.7273
#
#
#
# Elastic Compliance Matrix: (Units=1/GPa)
#
#
# Indices 1 2 3 4 5 6 
#
# 1 0.007266 -0.002276 -0.001755 0.000000 -0.003389 0.000000
# 2 -0.002276 0.009523 -0.002752 0.000000 -0.001023 0.000000
# 3 -0.001755 -0.002752 0.013551 0.000001 0.001234 0.000000
# 4 0.000000 0.000000 0.000001 0.052232 0.000000 -0.003397
# 5 -0.003389 -0.001023 0.001234 0.000000 0.027235 0.000000
# 6 0.000000 0.000000 0.000000 -0.003397 0.000000 0.029017
#
#
# Mechanical properties :
#
#
# Convention : Reuss Voigt Hill
#
# Bulk Modulus (GPa) = 59.61934 68.18359 63.90146
# Shear Modulus (GPa) = 31.64908 36.66330 34.15619
#
# Velocity S-wave (km/s) = 4.17082 4.48907 4.33287
# Velocity P-wave (km/s) = 7.48089 8.02158 7.75595
#
# Compressibility (1/GPa) = 0.01677308
#
# Stress axis : x y z
#
# Youngs Moduli (GPa) = 137.62240 105.00856 73.79466
#
# Poissons Ratio (x) = 0.23904 0.12954
# Poissons Ratio (y) = 0.31328 0.20308
# Poissons Ratio (z) = 0.24158 0.28897
#
# Static dielectric constant tensor:
#      x y z
#    x 1.628040 0.000000 0.016610 
#    y 0.000000 1.633210 0.000000 
#    z 0.016610 0.000000 1.686310 
# 
# From -- ./inp_files/288970.got.cif
#   From: 2010.05.17/outbox.cif.g08.bks.cpg/sg15_145_cif.got.tgz:288970.got - 2010.06.03 18:47:42.
