data_PCOD9282360
_publ_section_title
;
Structure prediction by ZEFSAII (Michael W. Deem and Ramdas Pophale) SiO2 
 PCOD9282360
Probable space group: C 2/C
;
_chemical_formula_sum "Si O2"
_cell_formula_units_Z 60
_cell_length_a 19.150813
_cell_length_b 12.618715
_cell_length_c 26.620924
_cell_angle_alpha 90.000000
_cell_angle_beta 152.282801
_cell_angle_gamma 90.000000
_cell_volume 2992.120620
_symmetry_space_group_name_H-M "C 2/C"
_symmetry_group_IT_number 15
_symmetry_cell_setting 'monoclinic'
loop_
_space_group_symop_operation_xyz
x,y,z
-x,y,1/2-z
-x,-y,-z
x,-y,1/2+z
1/2+x,1/2+y,z
1/2-x,1/2+y,1/2-z
1/2-x,1/2-y,-z
1/2+x,1/2-y,1/2+z
loop_
_atom_site_type_symbol
_atom_site_label
_atom_site_fract_x
_atom_site_fract_y
_atom_site_fract_z
Si Si1 0.402484 0.563916 0.796768
Si Si2 0.825571 0.258294 0.807015
Si Si3 0.342139 0.172259 0.626742
Si Si4 0.063967 0.509807 0.095720
Si Si5 0.407161 0.405101 0.882783
Si Si6 0.305049 0.884177 0.986361
Si Si7 0.206519 0.092897 0.631684
Si Si8 0.000000 0.001466 0.250000
O O1 0.426987 0.675695 0.840290
O O2 0.226276 0.543481 0.692968
O O3 0.469148 0.465742 0.872343
O O4 0.444435 0.559165 0.765083
O O5 0.911256 0.366511 0.875170
O O6 0.679672 0.298895 0.684566
O O7 0.761794 0.195239 0.814492
O O8 0.500000 0.215237 0.750000
O O9 0.332948 0.130245 0.564056
O O10 0.216786 0.264960 0.548745
O O11 0.302872 0.084999 0.643194
O O12 0.000000 0.500000 0.000000
O O13 0.946949 0.448925 0.056503
O O14 0.290152 0.487730 0.833249
O O15 0.536651 0.391402 0.005217
O O16 0.148467 0.937990 0.867073
#
# Coordination Sequence:
#
# PCOD9282360 Si02
#       8
#     8   8   8   8   8   8   8   4
#     4  10  23  40  65  92 128 168 214 261 318 380
#     4  10  23  37  65  95 121 162 214 264 307 378
#     4  11  25  38  61  95 132 172 206 262 330 383
#     4  11  22  42  66  97 124 170 214 264 314 381
#     4   9  21  39  62  90 124 161 216 258 313 375
#     4  11  25  41  63  95 133 165 217 264 322 387
#     4  10  21  39  61  90 125 168 203 261 319 375
#     4  12  22  44  64  90 134 170 208 268 326 374
#
# _framework density 20.052668000000001
#
# number of rings (size 3 to 8) (size 9 to 14) (size 15 to 20)
#    0.000    1.600    2.000    1.600   11.200    1.067 
#    0.000    2.000    0.000    0.000    0.000    0.000 
#    0.000    0.000    0.000    0.000    0.000    0.000 
#
# Total GULP energy -167240.179736 kJ/mol
# GULP energy per Si atom -5574.672658 kJ/mol
# Density = 2.000703 g / cm^3
# Si number density = 20.052668 Si / 1000 Ang^3
#
#
#
# Elastic Constant Matrix: (Units=GPa)
#
#
# Indices 1 2 3 4 5 6 
#
# 1 121.6550 35.6218 7.6612 -0.0001 -13.1597 -0.0002
# 2 35.6218 73.1370 9.2253 0.0013 -0.6743 0.0016
# 3 7.6612 9.2253 67.9398 0.0040 -8.4440 0.0038
# 4 -0.0001 0.0013 0.0040 29.3092 -0.0002 -3.2957
# 5 -13.1597 -0.6743 -8.4440 -0.0002 34.9559 -0.0001
# 6 -0.0002 0.0016 0.0038 -3.2957 -0.0001 15.2012
#
#
#
# Elastic Compliance Matrix: (Units=1/GPa)
#
#
# Indices 1 2 3 4 5 6 
#
# 1 0.010041 -0.004855 -0.000015 0.000000 0.003683 0.000001
# 2 -0.004855 0.016260 -0.001906 -0.000001 -0.001974 -0.000001
# 3 -0.000015 -0.001906 0.015438 -0.000002 0.003687 -0.000004
# 4 0.000000 -0.000001 -0.000002 0.034972 0.000000 0.007582
# 5 0.003683 -0.001974 0.003687 0.000000 0.030846 -0.000001
# 6 0.000001 -0.000001 -0.000004 0.007582 -0.000001 0.067428
#
#
# Mechanical properties :
#
#
# Convention : Reuss Voigt Hill
#
# Bulk Modulus (GPa) = 35.47781 40.86093 38.16937
# Shear Modulus (GPa) = 25.26135 29.90817 27.58476
#
# Velocity S-wave (km/s) = 3.55315 3.86616 3.71295
# Velocity P-wave (km/s) = 5.87910 6.35221 6.12023
#
# Compressibility (1/GPa) = 0.02818663
#
# Stress axis : x y z
#
# Youngs Moduli (GPa) = 99.59423 61.50225 64.77679
#
# Poissons Ratio (x) = 0.29856 0.00100
# Poissons Ratio (y) = 0.48348 0.12345
# Poissons Ratio (z) = 0.00153 0.11721
#
# Static dielectric constant tensor:
#      x y z
#    x 1.708720 0.000000 -0.036860 
#    y 0.000000 1.730730 -0.000010 
#    z -0.036860 -0.000010 1.510210 
# 
# From -- ./inp_files/298977.got.cif
#   From: 2010.05.17/outbox.cif.g08.bks.cpg/sg15_150_cif.got.tgz:298977.got - 2010.06.03 18:47:42.
