data_PCOD9282361
_publ_section_title
;
Structure prediction by ZEFSAII (Michael W. Deem and Ramdas Pophale) SiO2 
 PCOD9282361
Probable space group: C 2/C
;
_chemical_formula_sum "Si O2"
_cell_formula_units_Z 48
_cell_length_a 12.503055
_cell_length_b 26.783300
_cell_length_c 7.618013
_cell_angle_alpha 90.000000
_cell_angle_beta 120.578906
_cell_angle_gamma 90.000000
_cell_volume 2196.288888
_symmetry_space_group_name_H-M "C 2/C"
_symmetry_group_IT_number 15
_symmetry_cell_setting 'monoclinic'
loop_
_space_group_symop_operation_xyz
x,y,z
-x,y,1/2-z
-x,-y,-z
x,-y,1/2+z
1/2+x,1/2+y,z
1/2-x,1/2+y,1/2-z
1/2-x,1/2-y,-z
1/2+x,1/2-y,1/2+z
loop_
_atom_site_type_symbol
_atom_site_label
_atom_site_fract_x
_atom_site_fract_y
_atom_site_fract_z
Si Si1 0.500000 0.796584 0.250000
Si Si2 0.158608 0.559804 0.573388
Si Si3 0.372548 0.709657 0.964883
Si Si4 0.500000 0.747405 0.750000
Si Si5 0.500000 0.627206 0.250000
Si Si6 0.854929 0.672592 0.954845
Si Si7 0.551690 0.446638 0.101993
Si Si8 0.500000 0.020467 0.750000
O O1 0.611668 0.760285 0.410415
O O2 0.541733 0.826029 0.113421
O O3 0.155800 0.615670 0.492326
O O4 0.298431 0.552521 0.761751
O O5 0.112011 0.516353 0.404148
O O6 0.057972 0.553698 0.644966
O O7 0.484670 0.715979 0.914607
O O8 0.264208 0.693241 0.745861
O O9 0.388541 0.665337 0.117825
O O10 0.388140 0.786806 0.629526
O O11 0.499446 0.592639 0.418863
O O12 0.500000 0.434292 0.250000
O O13 0.500000 0.500000 0.000000
#
# Coordination Sequence:
#
# PCOD9282361 Si02
#       8
#     4   8   8   4   4   8   8   4
#     4   9  21  36  58  87 117 164 206 265 317 384
#     4  11  23  43  65  96 131 174 223 275 328 404
#     4  10  21  39  61  90 129 163 213 264 326 394
#     4  10  23  38  63  93 129 167 210 275 322 390
#     4  11  24  42  64  98 134 172 224 266 337 404
#     4  11  20  39  61  87 124 165 216 261 325 389
#     4  12  25  44  69 101 138 176 225 282 340 394
#     4  10  24  42  65  92 134 175 218 272 338 392
#
# _framework density 21.855048
#
# number of rings (size 3 to 8) (size 9 to 14) (size 15 to 20)
#    0.000    1.333    2.500    3.000    1.167    0.000 
#    0.000    3.333    0.000    0.000    0.000    0.000 
#    0.000    0.000    0.000    0.000    0.000    0.000 
#
# Total GULP energy -133910.584343 kJ/mol
# GULP energy per Si atom -5579.607681 kJ/mol
# Density = 2.180531 g / cm^3
# Si number density = 21.855048 Si / 1000 Ang^3
#
#
#
# Elastic Constant Matrix: (Units=GPa)
#
#
# Indices 1 2 3 4 5 6 
#
# 1 42.1211 16.0516 3.8734 0.0000 -9.0332 0.0000
# 2 16.0516 114.7251 35.8012 0.0000 5.9516 0.0000
# 3 3.8734 35.8012 120.9268 0.0000 6.7099 0.0000
# 4 0.0000 0.0000 0.0000 -16.9154 0.0000 -23.2163
# 5 -9.0332 5.9516 6.7099 0.0000 40.7535 0.0000
# 6 0.0000 0.0000 0.0000 -23.2163 0.0000 11.6217
#
#
#
# Elastic Compliance Matrix: (Units=1/GPa)
#
#
# Indices 1 2 3 4 5 6 
#
# 1 0.026689 -0.004068 -0.000012 0.000000 0.006512 0.000000
# 2 -0.004068 0.010260 -0.002800 0.000000 -0.001939 0.000000
# 3 -0.000012 -0.002800 0.009160 0.000000 -0.001102 0.000000
# 4 0.000000 0.000000 0.000000 -0.015799 0.000000 -0.031562
# 5 0.006512 -0.001939 -0.001102 0.000000 0.026446 0.000000
# 6 0.000000 0.000000 0.000000 -0.031562 0.000000 0.022996
#
#
# Mechanical properties :
#
#
# Convention : Reuss Voigt Hill
#
# Bulk Modulus (GPa) = 30.91242 43.24726 37.07984
# Shear Modulus (GPa) = 47.94162 21.89510 34.91836
#
# Velocity S-wave (km/s) = 4.68869 3.16861 4.00149
# Velocity P-wave (km/s) = 6.59445 5.76350 6.19293
#
# Compressibility (1/GPa) = 0.03234946
#
# Stress axis : x y z
#
# Youngs Moduli (GPa) = 37.46860 97.46643 109.17241
#
# Poissons Ratio (x) = 0.39652 0.00128
# Poissons Ratio (y) = 0.15243 0.30564
# Poissons Ratio (z) = 0.00044 0.27287
#
# Static dielectric constant tensor:
#      x y z
#    x 1.827190 0.000000 0.023010 
#    y 0.000000 1.790040 0.000000 
#    z 0.023010 0.000000 1.828730 
# 
# From -- ./inp_files/44009.got.cif
#   From: 2010.05.17/outbox.cif.g08.bks.cpg/sg15_23_cif.got.tgz:44009.got - 2010.06.03 18:47:42.
