data_PCOD9282164
_publ_section_title
;
Structure prediction by ZEFSAII (Michael W. Deem and Ramdas Pophale) SiO2 
 PCOD9282164
Probable space group: C 2/C
;
_chemical_formula_sum "Si O2"
_cell_formula_units_Z 56
_cell_length_a 10.046547
_cell_length_b 21.839115
_cell_length_c 18.846076
_cell_angle_alpha 90.000000
_cell_angle_beta 36.905013
_cell_angle_gamma 90.000000
_cell_volume 2483.011384
_symmetry_space_group_name_H-M "C 2/C"
_symmetry_group_IT_number 15
_symmetry_cell_setting 'monoclinic'
loop_
_space_group_symop_operation_xyz
x,y,z
-x,y,1/2-z
-x,-y,-z
x,-y,1/2+z
1/2+x,1/2+y,z
1/2-x,1/2+y,1/2-z
1/2-x,1/2-y,-z
1/2+x,1/2-y,1/2+z
loop_
_atom_site_type_symbol
_atom_site_label
_atom_site_fract_x
_atom_site_fract_y
_atom_site_fract_z
Si Si1 0.840148 0.959192 0.116787
Si Si2 0.829166 0.829305 0.068779
Si Si3 0.440510 0.290809 0.383213
Si Si4 0.153875 0.439841 0.790563
Si Si5 0.724437 0.310159 0.790562
Si Si6 0.000000 0.984318 0.750000
Si Si7 0.214497 0.920696 0.068779
Si Si8 0.000000 0.234318 0.250000
O O1 0.761883 0.900754 0.103771
O O2 0.006830 0.935568 0.106633
O O3 0.667686 0.002654 0.231615
O O4 0.000000 0.000000 0.000000
O O5 0.633169 0.781040 0.142516
O O6 0.923270 0.814432 0.106633
O O7 0.015966 0.814698 0.931534
O O8 0.250000 0.250000 0.500000
O O9 0.612532 0.247347 0.268385
O O10 0.323195 0.349246 0.396230
O O11 0.156696 0.375000 0.750002
O O12 0.380646 0.445353 0.740138
O O13 0.939431 0.435303 0.931535
O O14 0.648939 0.304647 0.740138
O O15 0.189284 0.031039 0.642515
#
# Coordination Sequence:
#
# PCOD9282164 Si02
#       8
#     8   8   8   8   8   4   8   4
#     4  10  21  39  58  89 122 156 207 255 306 368
#     4  10  22  39  61  88 123 159 205 257 305 372
#     4  10  21  39  58  89 122 156 207 255 306 368
#     4  11  21  39  64  90 121 163 205 258 313 367
#     4  11  21  39  64  90 121 163 205 258 313 367
#     4  10  23  40  60  90 125 160 206 250 314 376
#     4  10  22  39  61  88 123 159 205 257 305 372
#     4  10  23  40  60  90 125 160 206 250 314 376
#
# _framework density 22.553259000000001
#
# number of rings (size 3 to 8) (size 9 to 14) (size 15 to 20)
#    0.000    1.714    2.857    1.286    0.000    3.429 
#    0.000    0.000    0.000    0.000    0.000    0.000 
#    0.000    0.000    0.000    0.000    0.000    0.000 
#
# Total GULP energy -156349.980813 kJ/mol
# GULP energy per Si atom -5583.927886 kJ/mol
# Density = 2.250193 g / cm^3
# Si number density = 22.553259 Si / 1000 Ang^3
#
#
#
# Elastic Constant Matrix: (Units=GPa)
#
#
# Indices 1 2 3 4 5 6 
#
# 1 70.2723 14.5147 -18.4237 0.0009 -0.3136 -0.0005
# 2 14.5147 173.7994 65.0382 0.0003 0.3927 0.0000
# 3 -18.4237 65.0382 163.1117 0.0006 1.0364 0.0005
# 4 0.0009 0.0003 0.0006 33.2999 -0.0003 0.2120
# 5 -0.3136 0.3927 1.0364 -0.0003 24.0795 0.0006
# 6 -0.0005 0.0000 0.0005 0.2120 0.0006 6.0118
#
#
#
# Elastic Compliance Matrix: (Units=1/GPa)
#
#
# Indices 1 2 3 4 5 6 
#
# 1 0.015395 -0.002276 0.002646 0.000000 0.000124 0.000001
# 2 -0.002276 0.007099 -0.003088 0.000000 -0.000013 0.000000
# 3 0.002646 -0.003088 0.007662 0.000000 -0.000245 0.000000
# 4 0.000000 0.000000 0.000000 0.030037 0.000000 -0.001059
# 5 0.000124 -0.000013 -0.000245 0.000000 0.041542 -0.000004
# 6 0.000001 0.000000 0.000000 -0.001059 -0.000004 0.166378
#
#
# Mechanical properties :
#
#
# Convention : Reuss Voigt Hill
#
# Bulk Modulus (GPa) = 40.45305 58.82688 49.63996
# Shear Modulus (GPa) = 17.74377 35.74849 26.74613
#
# Velocity S-wave (km/s) = 2.80795 3.98561 3.44744
# Velocity P-wave (km/s) = 5.33745 6.87898 6.15665
#
# Compressibility (1/GPa) = 0.02472002
#
# Stress axis : x y z
#
# Youngs Moduli (GPa) = 64.95776 140.85815 130.50852
#
# Poissons Ratio (x) = 0.32059 -0.34527
# Poissons Ratio (y) = 0.14784 0.40298
# Poissons Ratio (z) = -0.17185 0.43493
#
# Static dielectric constant tensor:
#      x y z
#    x -3.826690 0.000160 0.051930 
#    y 0.000160 1.851040 0.000060 
#    z 0.051930 0.000060 1.623320 
# 
# From -- ./inp_files/240785.got.cif
#   From: 2010.05.17/outbox.cif.g08.bks.cpg/sg15_121_cif.got.tgz:240785.got - 2010.06.03 18:47:42.
