data_PCOD9282382
_publ_section_title
;
Structure prediction by ZEFSAII (Michael W. Deem and Ramdas Pophale) SiO2 
 PCOD9282382
Probable space group: C 2/C
;
_chemical_formula_sum "Si O2"
_cell_formula_units_Z 48
_cell_length_a 26.515140
_cell_length_b 7.565481
_cell_length_c 13.483952
_cell_angle_alpha 90.000000
_cell_angle_beta 136.474203
_cell_angle_gamma 90.000000
_cell_volume 1862.798296
_symmetry_space_group_name_H-M "C 2/C"
_symmetry_group_IT_number 15
_symmetry_cell_setting 'monoclinic'
loop_
_space_group_symop_operation_xyz
x,y,z
-x,y,1/2-z
-x,-y,-z
x,-y,1/2+z
1/2+x,1/2+y,z
1/2-x,1/2+y,1/2-z
1/2-x,1/2-y,-z
1/2+x,1/2-y,1/2+z
loop_
_atom_site_type_symbol
_atom_site_label
_atom_site_fract_x
_atom_site_fract_y
_atom_site_fract_z
Si Si1 0.290266 0.045598 0.914254
Si Si2 0.967506 0.138875 0.313833
Si Si3 0.419668 0.087460 0.457090
Si Si4 0.991860 0.773657 0.121149
Si Si5 0.838082 0.599147 0.682237
Si Si6 0.828592 0.151905 0.351490
O O1 0.357080 0.941962 0.952555
O O2 0.216631 0.013576 0.747589
O O3 0.307082 0.252641 0.923344
O O4 0.288744 0.974442 0.023746
O O5 0.896903 0.263340 0.220964
O O6 0.000000 0.136344 0.250000
O O7 0.030912 0.240703 0.464437
O O8 0.952610 0.935322 0.320400
O O9 0.526144 0.080360 0.448146
O O10 0.378919 0.063600 0.294361
O O11 0.000000 0.737857 0.250000
O O12 0.914880 0.868529 0.982461
O O13 0.808644 0.707915 0.734895
#
# Coordination Sequence:
#
# PCOD9282382 Si02
#       6
#     8   8   8   8   8   8
#     4  10  21  41  64  86 127 164 208 252 316 367
#     4  11  20  36  66  89 125 171 200 253 316 367
#     4  10  22  38  63  90 127 165 204 259 310 366
#     4   9  21  37  59  94 121 158 209 250 308 364
#     4  10  21  39  61  94 121 166 208 256 313 367
#     4  10  24  39  65  89 125 166 204 267 303 372
#
# _framework density 25.767683000000002
#
# number of rings (size 3 to 8) (size 9 to 14) (size 15 to 20)
#    0.000    2.333    1.667    1.500    4.667    2.667 
#    0.000    3.333    7.333    0.000    0.000    0.000 
#    0.000    0.000    0.000    0.000    0.000    0.000 
#
# Total GULP energy -134105.339642 kJ/mol
# GULP energy per Si atom -5587.722485 kJ/mol
# Density = 2.570904 g / cm^3
# Si number density = 25.767683 Si / 1000 Ang^3
#
#
#
# Elastic Constant Matrix: (Units=GPa)
#
#
# Indices 1 2 3 4 5 6 
#
# 1 60.8715 4.9236 12.5366 0.0000 -25.3035 0.0000
# 2 4.9236 101.0275 21.6318 0.0000 -18.2994 0.0000
# 3 12.5366 21.6318 107.5054 0.0000 -28.8385 0.0000
# 4 0.0000 0.0000 0.0000 28.1168 0.0000 0.8951
# 5 -25.3035 -18.2994 -28.8385 0.0000 34.4402 0.0000
# 6 0.0000 0.0000 0.0000 0.8951 0.0000 23.7128
#
#
#
# Elastic Compliance Matrix: (Units=1/GPa)
#
#
# Indices 1 2 3 4 5 6 
#
# 1 0.024569 0.002128 0.002389 0.000000 0.021182 0.000000
# 2 0.002128 0.011194 -0.000626 0.000000 0.006987 0.000000
# 3 0.002389 -0.000626 0.012292 0.000000 0.011715 0.000000
# 4 0.000000 0.000000 0.000000 0.035609 0.000000 -0.001344
# 5 0.021182 0.006987 0.011715 0.000000 0.058120 0.000000
# 6 0.000000 0.000000 0.000000 -0.001344 0.000000 0.042222
#
#
# Mechanical properties :
#
#
# Convention : Reuss Voigt Hill
#
# Bulk Modulus (GPa) = 17.90965 38.62092 28.26529
# Shear Modulus (GPa) = 25.66245 32.60814 29.13530
#
# Velocity S-wave (km/s) = 3.15924 3.56120 3.36622
# Velocity P-wave (km/s) = 4.50258 5.65068 5.10898
#
# Compressibility (1/GPa) = 0.05583582
#
# Stress axis : x y z
#
# Youngs Moduli (GPa) = 40.70171 89.33165 81.35461
#
# Poissons Ratio (x) = -0.19009 -0.19435
# Poissons Ratio (y) = -0.08661 0.05096
# Poissons Ratio (z) = -0.09723 0.05596
#
# Static dielectric constant tensor:
#      x y z
#    x 2.212650 0.000000 -0.008930 
#    y 0.000000 2.040780 0.000000 
#    z -0.008930 0.000000 1.999260 
# 
# From -- ./inp_files/176988.got.cif
#   From: 2010.05.17/outbox.cif.g08.bks.cpg/sg15_89_cif.got.tgz:176988.got - 2010.06.03 18:47:42.
