data_PCOD9282479
_publ_section_title
;
Structure prediction by ZEFSAII (Michael W. Deem and Ramdas Pophale) SiO2 
 PCOD9282479
Probable space group: C 2/C
;
_chemical_formula_sum "Si O2"
_cell_formula_units_Z 60
_cell_length_a 18.892401
_cell_length_b 21.704109
_cell_length_c 17.293621
_cell_angle_alpha 90.000000
_cell_angle_beta 22.323410
_cell_angle_gamma 90.000000
_cell_volume 2693.450907
_symmetry_space_group_name_H-M "C 2/C"
_symmetry_group_IT_number 15
_symmetry_cell_setting 'monoclinic'
loop_
_space_group_symop_operation_xyz
x,y,z
-x,y,1/2-z
-x,-y,-z
x,-y,1/2+z
1/2+x,1/2+y,z
1/2-x,1/2+y,1/2-z
1/2-x,1/2-y,-z
1/2+x,1/2-y,1/2+z
loop_
_atom_site_type_symbol
_atom_site_label
_atom_site_fract_x
_atom_site_fract_y
_atom_site_fract_z
Si Si1 0.090170 0.917044 0.833296
Si Si2 0.199720 0.469743 0.196713
Si Si3 0.500000 0.819672 0.750000
Si Si4 0.820720 0.912160 0.374029
Si Si5 0.336793 0.208297 0.257603
Si Si6 0.282011 0.551591 0.448265
Si Si7 0.934286 0.418379 0.595058
Si Si8 0.559809 0.337974 0.388315
O O1 0.244379 0.933707 0.740325
O O2 0.986331 0.859918 0.978668
O O3 0.213958 0.905896 0.631510
O O4 0.923302 0.965570 0.985582
O O5 0.104380 0.537407 0.292545
O O6 0.097381 0.437235 0.371912
O O7 0.173443 0.439168 0.138446
O O8 0.668999 0.863171 0.554230
O O9 0.577715 0.782127 0.744059
O O10 0.749067 0.981800 0.453660
O O11 0.000000 0.907987 0.250000
O O12 0.862067 0.892923 0.243727
O O13 0.449200 0.152681 0.103095
O O14 0.131596 0.180035 0.462056
O O15 0.329578 0.274128 0.224096
O O16 0.500000 0.554705 0.250000
#
# Coordination Sequence:
#
# PCOD9282479 Si02
#       8
#     8   8   4   8   8   8   8   8
#     4  10  23  38  62  87 117 163 196 248 304 351
#     4  10  21  39  62  92 124 156 192 251 302 365
#     4  12  24  38  62  86 124 164 202 234 306 360
#     4  11  23  38  58  90 125 159 197 248 291 365
#     4  11  25  41  59  90 119 164 206 250 292 363
#     4   9  21  38  62  91 125 158 201 248 304 364
#     4  10  23  38  61  93 124 152 203 244 300 366
#     4  11  25  41  61  86 122 160 210 249 297 355
#
# _framework density 22.276256
#
# number of rings (size 3 to 8) (size 9 to 14) (size 15 to 20)
#    0.000    1.600    1.333    2.000   15.867    3.733 
#    0.000    0.000    0.000    0.800    3.467    0.000 
#    0.000    0.000    0.000    0.000    0.000    0.000 
#
# Total GULP energy -167576.836754 kJ/mol
# GULP energy per Si atom -5585.894558 kJ/mol
# Density = 2.222555 g / cm^3
# Si number density = 22.276256 Si / 1000 Ang^3
#
#
#
# Elastic Constant Matrix: (Units=GPa)
#
#
# Indices 1 2 3 4 5 6 
#
# 1 88.5941 16.2225 31.3964 0.0975 16.8797 -0.0623
# 2 16.2225 59.2828 24.9522 0.0539 21.4836 -0.0242
# 3 31.3964 24.9522 106.8722 0.0616 22.9548 -0.0407
# 4 0.0975 0.0539 0.0616 10.8189 -0.1274 17.2870
# 5 16.8797 21.4836 22.9548 -0.1274 47.3642 0.0569
# 6 -0.0623 -0.0242 -0.0407 17.2870 0.0569 14.3156
#
#
#
# Elastic Compliance Matrix: (Units=1/GPa)
#
#
# Indices 1 2 3 4 5 6 
#
# 1 0.013086 -0.001394 -0.002962 0.000231 -0.002595 -0.000223
# 2 -0.001394 0.021276 -0.002893 0.000271 -0.007750 -0.000275
# 3 -0.002962 -0.002893 0.011601 0.000116 -0.003254 -0.000112
# 4 0.000231 0.000271 0.000116 -0.099421 -0.000674 0.120061
# 5 -0.002595 -0.007750 -0.003254 -0.000674 0.027128 0.000672
# 6 -0.000223 -0.000275 -0.000112 0.120061 0.000672 -0.075132
#
#
# Mechanical properties :
#
#
# Convention : Reuss Voigt Hill
#
# Bulk Modulus (GPa) = 31.78161 44.43235 38.10698
# Shear Modulus (GPa) = -65.38142 26.64494 -19.36824
#
# Velocity S-wave (km/s) = -5.42347 3.46224 -2.95185
# Velocity P-wave (km/s) = 4.99206 5.99768 2.35069
#
# Compressibility (1/GPa) = 0.03146474
#
# Stress axis : x y z
#
# Youngs Moduli (GPa) = 76.41540 47.00146 86.19602
#
# Poissons Ratio (x) = 0.06553 0.25529
# Poissons Ratio (y) = 0.10655 0.24940
# Poissons Ratio (z) = 0.22632 0.13600
#
# Static dielectric constant tensor:
#      x y z
#    x 1.901220 -0.000020 -0.004760 
#    y -0.000020 1.817140 0.000020 
#    z -0.004760 0.000020 1.931990 
# 
# From -- ./inp_files/164092.got.cif
#   From: 2010.05.17/outbox.cif.g08.bks.cpg/sg15_83_cif.got.tgz:164092.got - 2010.06.03 18:47:42.
