data_PCOD9282294
_publ_section_title
;
Structure prediction by ZEFSAII (Michael W. Deem and Ramdas Pophale) SiO2 
 PCOD9282294
Probable space group: C 2/C
;
_chemical_formula_sum "Si O2"
_cell_formula_units_Z 60
_cell_length_a 5.512607
_cell_length_b 22.107334
_cell_length_c 25.311924
_cell_angle_alpha 90.000000
_cell_angle_beta 118.307545
_cell_angle_gamma 90.000000
_cell_volume 2715.851092
_symmetry_space_group_name_H-M "C 2/C"
_symmetry_group_IT_number 15
_symmetry_cell_setting 'monoclinic'
loop_
_space_group_symop_operation_xyz
x,y,z
-x,y,1/2-z
-x,-y,-z
x,-y,1/2+z
1/2+x,1/2+y,z
1/2-x,1/2+y,1/2-z
1/2-x,1/2-y,-z
1/2+x,1/2-y,1/2+z
loop_
_atom_site_type_symbol
_atom_site_label
_atom_site_fract_x
_atom_site_fract_y
_atom_site_fract_z
Si Si1 0.498222 0.525574 0.367148
Si Si2 0.500000 0.556227 0.250000
Si Si3 0.635396 0.137683 0.070760
Si Si4 0.958797 0.623276 0.167698
Si Si5 0.248834 0.301314 0.044015
Si Si6 0.117324 0.765705 0.639894
Si Si7 0.772595 0.638330 0.812738
Si Si8 0.602255 0.605887 0.625181
O O1 0.532124 0.517121 0.306912
O O2 0.719526 0.572375 0.413132
O O3 0.470194 0.463248 0.394959
O O4 0.224570 0.565029 0.341014
O O5 0.248127 0.602805 0.220138
O O6 0.448168 0.134670 0.103573
O O7 0.847105 0.192526 0.105674
O O8 0.481523 0.152130 0.000838
O O9 0.845278 0.685180 0.178841
O O10 0.177448 0.265942 0.089949
O O11 0.530994 0.340153 0.077058
O O12 0.250000 0.250000 0.000000
O O13 0.135008 0.708846 0.680574
O O14 0.500000 0.627997 0.750000
O O15 0.632147 0.621674 0.854670
O O16 0.066552 0.606391 0.829802
#
# Coordination Sequence:
#
# PCOD9282294 Si02
#       8
#     8   4   8   8   8   8   8   8
#     4  10  24  42  64  95 133 174 232 287 342 411
#     4  10  22  38  68  92 128 178 222 282 348 400
#     4  10  21  39  68  94 134 175 228 283 346 406
#     4  10  21  39  61 100 126 174 226 278 337 407
#     4  11  21  42  71  98 135 186 227 284 352 407
#     4  10  22  40  66  98 134 171 234 281 339 419
#     4  11  26  44  67  98 136 183 220 285 349 414
#     4  11  27  46  67 102 137 177 240 281 341 422
#
# _framework density 22.092521999999999
#
# number of rings (size 3 to 8) (size 9 to 14) (size 15 to 20)
#    0.000    1.600    1.333    2.000    6.533    5.867 
#    0.000    0.667    0.000    0.000    0.000    0.000 
#    0.000    0.000    0.000    0.000    0.000    0.000 
#
# Total GULP energy -167234.878071 kJ/mol
# GULP energy per Si atom -5574.495936 kJ/mol
# Density = 2.204224 g / cm^3
# Si number density = 22.092522 Si / 1000 Ang^3
#
#
#
# Elastic Constant Matrix: (Units=GPa)
#
#
# Indices 1 2 3 4 5 6 
#
# 1 66.9189 28.9601 12.2037 0.0000 10.6210 0.0000
# 2 28.9601 138.5773 23.3093 0.0000 6.9720 0.0000
# 3 12.2037 23.3093 71.2378 0.0000 13.7068 0.0000
# 4 0.0000 0.0000 0.0000 -5.9096 0.0000 -30.6158
# 5 10.6210 6.9720 13.7068 0.0000 21.2934 0.0000
# 6 0.0000 0.0000 0.0000 -30.6158 0.0000 -21.3956
#
#
#
# Elastic Compliance Matrix: (Units=1/GPa)
#
#
# Indices 1 2 3 4 5 6 
#
# 1 0.017606 -0.003217 -0.000544 0.000000 -0.007378 0.000000
# 2 -0.003217 0.008244 -0.002209 0.000000 0.000327 0.000000
# 3 -0.000544 -0.002209 0.016735 0.000000 -0.009778 0.000000
# 4 0.000000 0.000000 0.000000 0.026385 0.000000 -0.037756
# 5 -0.007378 0.000327 -0.009778 0.000000 0.056830 0.000000
# 6 0.000000 0.000000 0.000000 -0.037756 0.000000 0.007288
#
#
# Mechanical properties :
#
#
# Convention : Reuss Voigt Hill
#
# Bulk Modulus (GPa) = 32.63214 45.07557 38.85386
# Shear Modulus (GPa) = 32.20786 12.94839 22.57812
#
# Velocity S-wave (km/s) = 3.82234 2.42357 3.20031
# Velocity P-wave (km/s) = 5.85518 5.31780 5.59295
#
# Compressibility (1/GPa) = 0.03064463
#
# Stress axis : x y z
#
# Youngs Moduli (GPa) = 56.79977 121.30726 59.75543
#
# Poissons Ratio (x) = 0.39019 0.03250
# Poissons Ratio (y) = 0.18270 0.13202
# Poissons Ratio (z) = 0.03089 0.26800
#
# Static dielectric constant tensor:
#      x y z
#    x 1.828820 0.000000 -0.141690 
#    y 0.000000 1.824310 0.000000 
#    z -0.141690 0.000000 1.760220 
# 
# From -- ./inp_files/286510.got.cif
#   From: 2010.05.17/outbox.cif.g08.bks.cpg/sg15_144_cif.got.tgz:286510.got - 2010.06.03 18:47:42.
