data_PCOD9282142
_publ_section_title
;
Structure prediction by ZEFSAII (Michael W. Deem and Ramdas Pophale) SiO2 
 PCOD9282142
Probable space group: C 2/C
;
_chemical_formula_sum "Si O2"
_cell_formula_units_Z 64
_cell_length_a 17.908408
_cell_length_b 23.912076
_cell_length_c 11.839528
_cell_angle_alpha 90.000000
_cell_angle_beta 149.671329
_cell_angle_gamma 90.000000
_cell_volume 2560.149286
_symmetry_space_group_name_H-M "C 2/C"
_symmetry_group_IT_number 15
_symmetry_cell_setting 'monoclinic'
loop_
_space_group_symop_operation_xyz
x,y,z
-x,y,1/2-z
-x,-y,-z
x,-y,1/2+z
1/2+x,1/2+y,z
1/2-x,1/2+y,1/2-z
1/2-x,1/2-y,-z
1/2+x,1/2-y,1/2+z
loop_
_atom_site_type_symbol
_atom_site_label
_atom_site_fract_x
_atom_site_fract_y
_atom_site_fract_z
Si Si1 0.936134 0.868793 0.428155
Si Si2 0.127507 0.924057 0.825680
Si Si3 0.015958 0.564412 0.138062
Si Si4 0.268382 0.722473 0.402756
Si Si5 0.555489 0.754094 0.061134
Si Si6 0.943989 0.559556 0.794387
Si Si7 0.166806 0.810142 0.983080
Si Si8 0.839160 0.900146 0.066905
O O1 0.044982 0.920195 0.599308
O O2 0.023499 0.811922 0.515896
O O3 0.847300 0.848068 0.421813
O O4 0.835819 0.887828 0.195702
O O5 0.000000 0.936194 0.750000
O O6 0.275205 0.956079 0.043159
O O7 0.178567 0.858867 0.906839
O O8 0.968769 0.499290 0.082748
O O9 0.190029 0.569834 0.339061
O O10 0.000000 0.585834 0.250000
O O11 0.948681 0.586049 0.927961
O O12 0.250000 0.750000 0.500000
O O13 0.374661 0.762943 0.470867
O O14 0.331705 0.660908 0.500014
O O15 0.105482 0.719287 0.133014
O O16 0.688791 0.772290 0.316748
O O17 0.000000 0.588704 0.750000
O O18 0.000000 0.784548 0.750000
O O19 0.000000 0.925391 0.250000
#
# Coordination Sequence:
#
# PCOD9282142 Si02
#       8
#     8   8   8   8   8   8   8   8
#     4  10  21  39  57  87 126 159 214 271 310 382
#     4   9  22  40  68  89 123 171 216 262 326 394
#     4  10  26  45  71 100 134 173 210 271 332 402
#     4  12  23  37  56  85 122 171 210 262 326 380
#     4  12  21  38  58  81 126 168 214 268 324 376
#     4  10  23  48  69 100 136 165 217 270 331 398
#     4   9  21  39  59  88 119 170 219 266 318 388
#     4  12  24  40  62  95 131 163 223 274 322 383
#
# _framework density 24.998540999999999
#
# number of rings (size 3 to 8) (size 9 to 14) (size 15 to 20)
#    0.000    1.750    3.750    0.375    7.000    3.500 
#    0.000    0.625    0.000    0.000    0.000    0.000 
#    0.000    0.000    0.000    0.000    0.000    0.000 
#
# Total GULP energy -178387.020435 kJ/mol
# GULP energy per Si atom -5574.594389 kJ/mol
# Density = 2.494164 g / cm^3
# Si number density = 24.998541 Si / 1000 Ang^3
#
#
#
# Elastic Constant Matrix: (Units=GPa)
#
#
# Indices 1 2 3 4 5 6 
#
# 1 93.0164 -9.8471 38.5978 0.0000 -6.5649 0.0000
# 2 -9.8471 34.5494 14.2719 0.0000 0.5905 0.0000
# 3 38.5978 14.2719 158.8008 0.0000 2.1111 0.0000
# 4 0.0000 0.0000 0.0000 21.2999 0.0000 3.1798
# 5 -6.5649 0.5905 2.1111 0.0000 51.3429 0.0000
# 6 0.0000 0.0000 0.0000 3.1798 0.0000 1.3944
#
#
#
# Elastic Compliance Matrix: (Units=1/GPa)
#
#
# Indices 1 2 3 4 5 6 
#
# 1 0.012925 0.005152 -0.003628 0.000000 0.001742 0.000000
# 2 0.005152 0.032117 -0.004145 0.000000 0.000460 0.000000
# 3 -0.003628 -0.004145 0.007561 0.000000 -0.000727 0.000000
# 4 0.000000 0.000000 0.000000 0.071182 0.000000 -0.162324
# 5 0.001742 0.000460 -0.000727 0.000000 0.019724 0.000000
# 6 0.000000 0.000000 0.000000 -0.162324 0.000000 1.087326
#
#
# Mechanical properties :
#
#
# Convention : Reuss Voigt Hill
#
# Bulk Modulus (GPa) = 21.11377 41.37908 31.24642
# Shear Modulus (GPa) = 3.99405 31.03035 17.51220
#
# Velocity S-wave (km/s) = 1.26538 3.52701 2.64962
# Velocity P-wave (km/s) = 3.25565 5.75977 4.67836
#
# Compressibility (1/GPa) = 0.04736246
#
# Stress axis : x y z
#
# Youngs Moduli (GPa) = 77.37207 31.13617 132.25568
#
# Poissons Ratio (x) = -0.16043 0.47978
# Poissons Ratio (y) = -0.39866 0.54819
# Poissons Ratio (z) = 0.28068 0.12906
#
# Static dielectric constant tensor:
#      x y z
#    x 2.133320 0.000000 -0.077340 
#    y 0.000000 1.997510 0.000000 
#    z -0.077340 0.000000 2.114190 
# 
# From -- ./inp_files/108659.got.cif
#   From: 2010.05.17/outbox.cif.g08.bks.cpg/sg15_55_cif.got.tgz:108659.got - 2010.06.03 18:47:42.
