data_PCOD9282521
_publ_section_title
;
Structure prediction by ZEFSAII (Michael W. Deem and Ramdas Pophale) SiO2 
 PCOD9282521
Probable space group: C 2/C
;
_chemical_formula_sum "Si O2"
_cell_formula_units_Z 56
_cell_length_a 18.211215
_cell_length_b 17.039680
_cell_length_c 12.706881
_cell_angle_alpha 90.000000
_cell_angle_beta 129.306042
_cell_angle_gamma 90.000000
_cell_volume 3051.076680
_symmetry_space_group_name_H-M "C 2/C"
_symmetry_group_IT_number 15
_symmetry_cell_setting 'monoclinic'
loop_
_space_group_symop_operation_xyz
x,y,z
-x,y,1/2-z
-x,-y,-z
x,-y,1/2+z
1/2+x,1/2+y,z
1/2-x,1/2+y,1/2-z
1/2-x,1/2-y,-z
1/2+x,1/2-y,1/2+z
loop_
_atom_site_type_symbol
_atom_site_label
_atom_site_fract_x
_atom_site_fract_y
_atom_site_fract_z
Si Si1 0.485437 0.332132 0.119349
Si Si2 0.812006 0.924381 0.507753
Si Si3 0.500000 0.486688 0.250000
Si Si4 0.347938 0.718315 0.881078
Si Si5 0.670735 0.950623 0.776862
Si Si6 0.768998 0.213063 0.403743
Si Si7 0.500000 0.976533 0.250000
Si Si8 0.651626 0.107505 0.030133
O O1 0.500000 0.296547 0.250000
O O2 0.508062 0.424485 0.160440
O O3 0.558699 0.299224 0.102525
O O4 0.377360 0.315150 0.990820
O O5 0.908185 0.961698 0.641584
O O6 0.831239 0.850669 0.449332
O O7 0.745095 0.900415 0.543943
O O8 0.751982 0.989120 0.388114
O O9 0.262977 0.728963 0.718910
O O10 0.358784 0.802220 0.946559
O O11 0.703855 0.863830 0.837999
O O12 0.659709 0.946230 0.641368
O O13 0.573594 0.973279 0.747264
O O14 0.750000 0.250000 0.500000
O O15 0.563320 0.922778 0.382962
#
# Coordination Sequence:
#
# PCOD9282521 Si02
#       8
#     8   8   4   8   8   8   4   8
#     4  10  21  39  62  96 124 158 217 264 321 379
#     4  11  24  41  65  93 130 174 218 267 325 397
#     4  10  22  41  65  96 128 164 218 280 316 381
#     4  11  25  39  64  94 131 178 208 266 334 386
#     4  10  22  39  64  94 120 169 211 274 317 382
#     4  11  21  40  64  93 132 161 211 269 325 391
#     4  10  22  41  67  90 128 164 218 268 324 397
#     4  10  24  42  61  93 131 166 222 261 324 395
#
# _framework density 18.354177
#
# number of rings (size 3 to 8) (size 9 to 14) (size 15 to 20)
#    0.429    1.143    2.857    0.857    2.000    9.143 
#    0.000    0.000    0.000    0.000    0.000    0.000 
#    0.000    0.000    0.000    0.000    0.000    0.000 
#
# Total GULP energy -156283.468157 kJ/mol
# GULP energy per Si atom -5581.552434 kJ/mol
# Density = 1.831240 g / cm^3
# Si number density = 18.354177 Si / 1000 Ang^3
#
#
#
# Elastic Constant Matrix: (Units=GPa)
#
#
# Indices 1 2 3 4 5 6 
#
# 1 147.2668 76.9819 104.4604 0.0000 -1.4842 0.0000
# 2 76.9819 103.5216 73.0904 0.0000 -0.6959 0.0000
# 3 104.4604 73.0904 149.4593 0.0000 6.5815 0.0000
# 4 0.0000 0.0000 0.0000 59.6683 0.0000 -6.6286
# 5 -1.4842 -0.6959 6.5815 0.0000 32.2925 0.0000
# 6 0.0000 0.0000 0.0000 -6.6286 0.0000 26.0011
#
#
#
# Elastic Compliance Matrix: (Units=1/GPa)
#
#
# Indices 1 2 3 4 5 6 
#
# 1 0.015699 -0.005867 -0.008203 0.000000 0.002267 0.000000
# 2 -0.005867 0.017052 -0.004281 0.000000 0.000970 0.000000
# 3 -0.008203 -0.004281 0.014670 0.000000 -0.003459 0.000000
# 4 0.000000 0.000000 0.000000 0.017248 0.000000 0.004397
# 5 0.002267 0.000970 -0.003459 0.000000 0.031797 0.000000
# 6 0.000000 0.000000 0.000000 0.004397 0.000000 0.039581
#
#
# Mechanical properties :
#
#
# Convention : Reuss Voigt Hill
#
# Bulk Modulus (GPa) = 93.29668 101.03477 97.16572
# Shear Modulus (GPa) = 28.35744 33.30673 30.83209
#
# Velocity S-wave (km/s) = 3.93493 4.26451 4.10303
# Velocity P-wave (km/s) = 8.46088 8.91150 8.68911
#
# Compressibility (1/GPa) = 0.01071850
#
# Stress axis : x y z
#
# Youngs Moduli (GPa) = 63.69938 58.64425 68.16828
#
# Poissons Ratio (x) = 0.34409 0.55916
# Poissons Ratio (y) = 0.37375 0.29182
# Poissons Ratio (z) = 0.52250 0.25104
#
# Static dielectric constant tensor:
#      x y z
#    x 1.606340 0.000000 -0.009010 
#    y 0.000000 1.618700 0.000000 
#    z -0.009010 0.000000 1.639680 
# 
# From -- ./inp_files/106765.got.cif
#   From: 2010.05.17/outbox.cif.g08.bks.cpg/sg15_54_cif.got.tgz:106765.got - 2010.06.03 18:47:42.
