data_PCOD9282030
_publ_section_title
;
Structure prediction by ZEFSAII (Michael W. Deem and Ramdas Pophale) SiO2 
 PCOD9282030
Probable space group: C 2/C
;
_chemical_formula_sum "Si O2"
_cell_formula_units_Z 36
_cell_length_a 13.452882
_cell_length_b 16.588547
_cell_length_c 12.134035
_cell_angle_alpha 90.000000
_cell_angle_beta 145.197944
_cell_angle_gamma 90.000000
_cell_volume 1545.501898
_symmetry_space_group_name_H-M "C 2/C"
_symmetry_group_IT_number 15
_symmetry_cell_setting 'monoclinic'
loop_
_space_group_symop_operation_xyz
x,y,z
-x,y,1/2-z
-x,-y,-z
x,-y,1/2+z
1/2+x,1/2+y,z
1/2-x,1/2+y,1/2-z
1/2-x,1/2-y,-z
1/2+x,1/2-y,1/2+z
loop_
_atom_site_type_symbol
_atom_site_label
_atom_site_fract_x
_atom_site_fract_y
_atom_site_fract_z
Si Si1 0.814513 0.484007 0.637221
Si Si2 0.425734 0.716672 0.985698
Si Si3 0.860420 0.818885 0.035746
Si Si4 0.500000 0.405603 0.750000
Si Si5 0.560358 0.867923 0.177378
O O1 0.744258 0.396534 0.599668
O O2 0.667457 0.536252 0.433552
O O3 0.871960 0.543256 0.789065
O O4 0.000000 0.467736 0.750000
O O5 0.509711 0.657361 0.155663
O O6 0.413221 0.812606 0.993525
O O7 0.527519 0.710654 0.964682
O O8 0.228991 0.685842 0.807748
O O9 0.000000 0.850823 0.250000
O O10 0.750000 0.750000 0.000000
O O11 0.500000 0.871492 0.250000
#
# Coordination Sequence:
#
# PCOD9282030 Si02
#       5
#     8   8   8   4   8
#     4  10  23  43  70 103 144 182 236 296 352 423
#     4  11  23  40  71 104 138 186 231 291 365 412
#     4  12  26  49  69  97 147 195 241 279 350 440
#     4  10  22  42  72 106 142 176 236 310 364 400
#     4  10  21  38  68 106 140 167 231 298 359 415
#
# _framework density 23.293403999999999
#
# number of rings (size 3 to 8) (size 9 to 14) (size 15 to 20)
#    0.000    1.333    2.222    2.667    6.222    3.556 
#    4.000    1.111    0.000    0.000    0.000    0.000 
#    0.000    0.000    0.000    0.000    0.000    0.000 
#
# Total GULP energy -100241.228761 kJ/mol
# GULP energy per Si atom -5568.957153 kJ/mol
# Density = 2.324039 g / cm^3
# Si number density = 23.293404 Si / 1000 Ang^3
#
#
#
# Elastic Constant Matrix: (Units=GPa)
#
#
# Indices 1 2 3 4 5 6 
#
# 1 105.6158 6.2114 17.5065 0.0000 3.0713 0.0000
# 2 6.2114 125.2489 14.5213 0.0000 1.7576 0.0000
# 3 17.5065 14.5213 69.8713 0.0000 20.8607 0.0000
# 4 0.0000 0.0000 0.0000 97.8175 0.0000 -38.7270
# 5 3.0713 1.7576 20.8607 0.0000 35.7221 0.0000
# 6 0.0000 0.0000 0.0000 -38.7270 0.0000 26.8907
#
#
#
# Elastic Compliance Matrix: (Units=1/GPa)
#
#
# Indices 1 2 3 4 5 6 
#
# 1 0.009899 -0.000193 -0.002651 0.000000 0.000706 0.000000
# 2 -0.000193 0.008200 -0.001866 0.000000 0.000703 0.000000
# 3 -0.002651 -0.001866 0.018493 0.000000 -0.010480 0.000000
# 4 0.000000 0.000000 0.000000 0.023784 0.000000 0.034253
# 5 0.000706 0.000703 -0.010480 0.000000 0.034018 0.000000
# 6 0.000000 0.000000 0.000000 0.034253 0.000000 0.086518
#
#
# Mechanical properties :
#
#
# Convention : Reuss Voigt Hill
#
# Bulk Modulus (GPa) = 36.80302 41.91272 39.35787
# Shear Modulus (GPa) = 25.07669 49.58585 37.33127
#
# Velocity S-wave (km/s) = 3.28465 4.61884 4.00766
# Velocity P-wave (km/s) = 5.49721 6.81743 6.19261
#
# Compressibility (1/GPa) = 0.02717168
#
# Stress axis : x y z
#
# Youngs Moduli (GPa) = 101.02534 121.94938 54.07550
#
# Poissons Ratio (x) = 0.02359 0.14334
# Poissons Ratio (y) = 0.01954 0.10088
# Poissons Ratio (z) = 0.26780 0.22750
#
# Static dielectric constant tensor:
#      x y z
#    x 1.861450 0.000000 -0.068420 
#    y 0.000000 2.034240 0.000000 
#    z -0.068420 0.000000 2.013160 
# 
# From -- ./inp_files/155320.got.cif
#   From: 2010.05.17/outbox.cif.g08.bks.cpg/sg15_78_cif.got.tgz:155320.got - 2010.06.03 18:47:42.
