data_PCOD9282240
_publ_section_title
;
Structure prediction by ZEFSAII (Michael W. Deem and Ramdas Pophale) SiO2 
 PCOD9282240
Probable space group: C 2/C
;
_chemical_formula_sum "Si O2"
_cell_formula_units_Z 32
_cell_length_a 9.463682
_cell_length_b 10.346923
_cell_length_c 22.711008
_cell_angle_alpha 90.000000
_cell_angle_beta 43.324274
_cell_angle_gamma 90.000000
_cell_volume 1525.850680
_symmetry_space_group_name_H-M "C 2/C"
_symmetry_group_IT_number 15
_symmetry_cell_setting 'monoclinic'
loop_
_space_group_symop_operation_xyz
x,y,z
-x,y,1/2-z
-x,-y,-z
x,-y,1/2+z
1/2+x,1/2+y,z
1/2-x,1/2+y,1/2-z
1/2-x,1/2-y,-z
1/2+x,1/2-y,1/2+z
loop_
_atom_site_type_symbol
_atom_site_label
_atom_site_fract_x
_atom_site_fract_y
_atom_site_fract_z
Si Si1 0.379563 0.353347 0.997351
Si Si2 0.410018 0.633928 0.951045
Si Si3 0.863738 0.957744 0.234188
Si Si4 0.763542 0.695238 0.302114
O O1 0.311878 0.499595 0.004141
O O2 0.611116 0.342077 0.900917
O O3 0.250000 0.250000 0.000000
O O4 0.404853 0.333659 0.059380
O O5 0.494998 0.601969 0.860659
O O6 0.250000 0.750000 0.000000
O O7 0.711722 0.840453 0.296812
O O8 0.000000 0.987585 0.250000
O O9 0.234969 0.087410 0.260952
O O10 0.000000 0.697138 0.250000
#
# Coordination Sequence:
#
# PCOD9282240 Si02
#       4
#     8   8   8   8
#     4  10  23  40  60  89 118 152 199 243 291 349
#     4  10  21  39  60  86 119 155 195 241 294 346
#     4  10  22  37  58  88 116 152 198 239 291 351
#     4  10  22  40  60  84 118 154 193 242 292 347
#
# _framework density 20.971907999999999
#
# number of rings (size 3 to 8) (size 9 to 14) (size 15 to 20)
#    0.000    2.000    0.000    3.000    0.000   14.000 
#    0.000    0.000    0.000    0.000    0.000    0.000 
#    0.000    0.000    0.000    0.000    0.000    0.000 
#
# Total GULP energy -89384.197763 kJ/mol
# GULP energy per Si atom -5586.512360 kJ/mol
# Density = 2.092418 g / cm^3
# Si number density = 20.971908 Si / 1000 Ang^3
#
#
#
# Elastic Constant Matrix: (Units=GPa)
#
#
# Indices 1 2 3 4 5 6 
#
# 1 126.9125 48.3833 28.2396 0.0000 27.6621 0.0000
# 2 48.3833 96.0385 -11.2417 0.0000 -3.7179 0.0000
# 3 28.2396 -11.2417 42.8323 0.0000 12.2404 0.0000
# 4 0.0000 0.0000 0.0000 22.3407 0.0000 3.7705
# 5 27.6621 -3.7179 12.2404 0.0000 36.1549 0.0000
# 6 0.0000 0.0000 0.0000 3.7705 0.0000 36.7292
#
#
#
# Elastic Compliance Matrix: (Units=1/GPa)
#
#
# Indices 1 2 3 4 5 6 
#
# 1 0.015941 -0.009608 -0.010256 0.000000 -0.009712 0.000000
# 2 -0.009608 0.016534 0.008953 0.000000 0.006020 0.000000
# 3 -0.010256 0.008953 0.033162 0.000000 -0.002459 0.000000
# 4 0.000000 0.000000 0.000000 0.045551 0.000000 -0.004676
# 5 -0.009712 0.006020 -0.002459 0.000000 0.036541 0.000000
# 6 0.000000 0.000000 0.000000 -0.004676 0.000000 0.027706
#
#
# Mechanical properties :
#
#
# Convention : Reuss Voigt Hill
#
# Bulk Modulus (GPa) = 22.82272 44.06063 33.44167
# Shear Modulus (GPa) = 23.60045 32.40511 28.00278
#
# Velocity S-wave (km/s) = 3.35824 3.93513 3.65807
# Velocity P-wave (km/s) = 5.09345 6.45770 5.81572
#
# Compressibility (1/GPa) = 0.04381599
#
# Stress axis : x y z
#
# Youngs Moduli (GPa) = 62.73065 60.48238 30.15541
#
# Poissons Ratio (x) = 0.58109 0.30928
# Poissons Ratio (y) = 0.60269 -0.26999
# Poissons Ratio (z) = 0.64338 -0.54153
#
# Static dielectric constant tensor:
#      x y z
#    x 1.744920 0.000000 0.010360 
#    y 0.000000 1.778630 0.000000 
#    z 0.010360 0.000000 1.778130 
# 
# From -- ./inp_files/262701.got.cif
#   From: 2010.05.17/outbox.cif.g08.bks.cpg/sg15_132_cif.got.tgz:262701.got - 2010.06.03 18:47:42.
