data_PCOD9282825
_publ_section_title
;
Structure prediction by ZEFSAII (Michael W. Deem and Ramdas Pophale) SiO2 
 PCOD9282825
Probable space group: C 2/C
;
_chemical_formula_sum "Si O2"
_cell_formula_units_Z 60
_cell_length_a 8.872023
_cell_length_b 17.581133
_cell_length_c 18.880791
_cell_angle_alpha 90.000000
_cell_angle_beta 99.111619
_cell_angle_gamma 90.000000
_cell_volume 2907.868635
_symmetry_space_group_name_H-M "C 2/C"
_symmetry_group_IT_number 15
_symmetry_cell_setting 'monoclinic'
loop_
_space_group_symop_operation_xyz
x,y,z
-x,y,1/2-z
-x,-y,-z
x,-y,1/2+z
1/2+x,1/2+y,z
1/2-x,1/2+y,1/2-z
1/2-x,1/2-y,-z
1/2+x,1/2-y,1/2+z
loop_
_atom_site_type_symbol
_atom_site_label
_atom_site_fract_x
_atom_site_fract_y
_atom_site_fract_z
Si Si1 0.997841 0.744119 0.003878
Si Si2 0.786064 0.759480 0.123509
Si Si3 0.829858 0.469495 0.496608
Si Si4 0.226387 0.129913 0.466186
Si Si5 0.227291 0.590303 0.357570
Si Si6 0.945620 0.931507 0.673672
Si Si7 0.251092 0.419711 0.165975
Si Si8 0.000000 0.485290 0.250000
O O1 0.914583 0.757545 0.072121
O O2 0.111634 0.672205 0.015948
O O3 0.873351 0.735883 0.932331
O O4 0.102218 0.816456 0.992914
O O5 0.785882 0.678770 0.163134
O O6 0.803398 0.832727 0.174706
O O7 0.731717 0.546179 0.500136
O O8 0.812039 0.416178 0.562445
O O9 0.785077 0.430753 0.420024
O O10 0.000000 0.500000 0.500000
O O11 0.177464 0.114647 0.381244
O O12 0.400151 0.561839 0.360008
O O13 0.112360 0.538234 0.304613
O O14 0.000000 0.892632 0.750000
O O15 0.871289 0.012492 0.688383
O O16 0.105190 0.436773 0.204390
#
# Coordination Sequence:
#
# PCOD9282825 Si02
#       8
#     8   8   8   8   8   8   8   4
#     4  10  21  39  65 101 143 166 219 286 345 394
#     4  11  23  42  66 101 136 174 215 289 337 396
#     4  11  21  38  71 100 126 170 230 277 329 392
#     4  10  22  38  65 104 133 180 223 279 337 403
#     4  12  25  44  71  98 134 180 228 278 341 399
#     4  11  24  44  66  93 137 180 226 276 330 409
#     4  11  25  43  69  98 133 171 229 275 337 398
#     4  12  26  48  68  96 132 186 226 272 330 430
#
# _framework density 20.633669999999999
#
# number of rings (size 3 to 8) (size 9 to 14) (size 15 to 20)
#    0.000    1.067    4.000    3.200    3.733    1.067 
#    2.400    0.000    0.000    0.000    0.000    0.000 
#    0.000    0.000    0.000    0.000    0.000    0.000 
#
# Total GULP energy -167721.199341 kJ/mol
# GULP energy per Si atom -5590.706645 kJ/mol
# Density = 2.058671 g / cm^3
# Si number density = 20.633670 Si / 1000 Ang^3
#
#
#
# Elastic Constant Matrix: (Units=GPa)
#
#
# Indices 1 2 3 4 5 6 
#
# 1 81.6834 23.5753 9.3669 0.0000 -24.2800 0.0000
# 2 23.5753 135.8714 12.4478 0.0000 -22.0108 0.0000
# 3 9.3669 12.4478 62.9710 0.0000 -8.1459 0.0000
# 4 0.0000 0.0000 0.0000 5.0067 0.0000 -2.6525
# 5 -24.2800 -22.0108 -8.1459 0.0000 32.2502 0.0000
# 6 0.0000 0.0000 0.0000 -2.6525 0.0000 23.1294
#
#
#
# Elastic Compliance Matrix: (Units=1/GPa)
#
#
# Indices 1 2 3 4 5 6 
#
# 1 0.015907 -0.000879 -0.000745 0.000000 0.011187 0.000000
# 2 -0.000879 0.008377 -0.000901 0.000000 0.004828 0.000000
# 3 -0.000745 -0.000901 0.016558 0.000000 0.003007 0.000000
# 4 0.000000 0.000000 0.000000 0.212652 0.000000 0.024387
# 5 0.011187 0.004828 0.003007 0.000000 0.043485 0.000000
# 6 0.000000 0.000000 0.000000 0.024387 0.000000 0.046032
#
#
# Mechanical properties :
#
#
# Convention : Reuss Voigt Hill
#
# Bulk Modulus (GPa) = 27.93924 41.25621 34.59772
# Shear Modulus (GPa) = 13.88920 27.75298 20.82109
#
# Velocity S-wave (km/s) = 2.59729 3.67145 3.18005
# Velocity P-wave (km/s) = 4.75022 6.16528 5.50342
#
# Compressibility (1/GPa) = 0.03579195
#
# Stress axis : x y z
#
# Youngs Moduli (GPa) = 62.86512 119.37314 60.39323
#
# Poissons Ratio (x) = 0.10499 0.04500
# Poissons Ratio (y) = 0.05529 0.05439
# Poissons Ratio (z) = 0.04684 0.10751
#
# Static dielectric constant tensor:
#      x y z
#    x 1.731050 0.000000 -0.013580 
#    y 0.000000 1.770860 0.000000 
#    z -0.013580 0.000000 1.637490 
# 
# From -- ./inp_files/190979.got.cif
#   From: 2010.05.17/outbox.cif.g08.bks.cpg/sg15_96_cif.got.tgz:190979.got - 2010.06.03 18:47:42.
