data_PCOD9282254
_publ_section_title
;
Structure prediction by ZEFSAII (Michael W. Deem and Ramdas Pophale) SiO2 
 PCOD9282254
Probable space group: C 2/C
;
_chemical_formula_sum "Si O2"
_cell_formula_units_Z 40
_cell_length_a 17.505602
_cell_length_b 6.651726
_cell_length_c 14.083644
_cell_angle_alpha 90.000000
_cell_angle_beta 91.960841
_cell_angle_gamma 90.000000
_cell_volume 1638.973995
_symmetry_space_group_name_H-M "C 2/C"
_symmetry_group_IT_number 15
_symmetry_cell_setting 'monoclinic'
loop_
_space_group_symop_operation_xyz
x,y,z
-x,y,1/2-z
-x,-y,-z
x,-y,1/2+z
1/2+x,1/2+y,z
1/2-x,1/2+y,1/2-z
1/2-x,1/2-y,-z
1/2+x,1/2-y,1/2+z
loop_
_atom_site_type_symbol
_atom_site_label
_atom_site_fract_x
_atom_site_fract_y
_atom_site_fract_z
Si Si1 0.120398 0.185649 0.003818
Si Si2 0.131162 0.337314 0.255016
Si Si3 0.282210 0.517008 0.857836
Si Si4 0.038156 0.855114 0.913478
Si Si5 0.118606 0.608522 0.080241
O O1 0.133636 0.421136 0.010106
O O2 0.052516 0.132985 0.078149
O O3 0.198255 0.081495 0.039601
O O4 0.083881 0.067803 0.913959
O O5 0.197816 0.453298 0.315336
O O6 0.068011 0.263732 0.325316
O O7 0.097163 0.488672 0.174879
O O8 0.174709 0.142800 0.210117
O O9 0.317515 0.738426 0.878240
O O10 0.062909 0.739487 0.011693
#
# Coordination Sequence:
#
# PCOD9282254 Si02
#       5
#     8   8   8   8   8
#     4   9  21  41  61  92 127 161 215 275 315 394
#     4  11  22  40  63  93 128 175 214 268 325 381
#     4  10  21  39  60  87 132 165 216 269 312 388
#     4  10  22  41  65  92 129 172 214 269 329 379
#     4  10  21  39  64  91 127 164 213 267 315 390
#
# _framework density 24.405512999999999
#
# number of rings (size 3 to 8) (size 9 to 14) (size 15 to 20)
#    0.000    2.000    2.000    0.600    0.000    8.000 
#    0.000    9.000    0.000    0.000    0.000    0.000 
#    0.000    0.000    0.000    0.000    0.000    0.000 
#
# Total GULP energy -111462.999191 kJ/mol
# GULP energy per Si atom -5573.149960 kJ/mol
# Density = 2.434996 g / cm^3
# Si number density = 24.405513 Si / 1000 Ang^3
#
#
#
# Elastic Constant Matrix: (Units=GPa)
#
#
# Indices 1 2 3 4 5 6 
#
# 1 95.4922 20.5425 40.4027 0.0000 6.2392 0.0000
# 2 20.5425 126.3942 13.7391 0.0000 -4.4597 0.0000
# 3 40.4027 13.7391 66.2356 0.0000 -1.9429 0.0000
# 4 0.0000 0.0000 0.0000 48.0455 0.0000 9.5588
# 5 6.2392 -4.4597 -1.9429 0.0000 37.3611 0.0000
# 6 0.0000 0.0000 0.0000 9.5588 0.0000 25.9246
#
#
#
# Elastic Compliance Matrix: (Units=1/GPa)
#
#
# Indices 1 2 3 4 5 6 
#
# 1 0.014705 -0.001549 -0.008739 0.000000 -0.003095 0.000000
# 2 -0.001549 0.008286 -0.000738 0.000000 0.001209 0.000000
# 3 -0.008739 -0.000738 0.020653 0.000000 0.002445 0.000000
# 4 0.000000 0.000000 0.000000 0.022461 0.000000 -0.008282
# 5 -0.003095 0.001209 0.002445 0.000000 0.027554 0.000000
# 6 0.000000 0.000000 0.000000 -0.008282 0.000000 0.041627
#
#
# Mechanical properties :
#
#
# Convention : Reuss Voigt Hill
#
# Bulk Modulus (GPa) = 46.31532 48.61007 47.46269
# Shear Modulus (GPa) = 30.38796 36.49540 33.44168
#
# Velocity S-wave (km/s) = 3.53246 3.87120 3.70571
# Velocity P-wave (km/s) = 5.97129 6.32001 6.14812
#
# Compressibility (1/GPa) = 0.02159113
#
# Stress axis : x y z
#
# Youngs Moduli (GPa) = 68.00314 120.67844 48.41814
#
# Poissons Ratio (x) = 0.18696 0.42315
# Poissons Ratio (y) = 0.10535 0.03575
# Poissons Ratio (z) = 0.59431 0.08910
#
# Static dielectric constant tensor:
#      x y z
#    x 1.917340 0.000000 0.007600 
#    y 0.000000 2.028090 0.000000 
#    z 0.007600 0.000000 2.006110 
# 
# From -- ./inp_files/212677.got.cif
#   From: 2010.05.17/outbox.cif.g08.bks.cpg/sg15_107_cif.got.tgz:212677.got - 2010.06.03 18:47:42.
