data_PCOD9282782
_publ_section_title
;
Structure prediction by ZEFSAII (Michael W. Deem and Ramdas Pophale) SiO2 
 PCOD9282782
Probable space group: C 2/C
;
_chemical_formula_sum "Si O2"
_cell_formula_units_Z 48
_cell_length_a 13.370318
_cell_length_b 11.470188
_cell_length_c 17.788678
_cell_angle_alpha 90.000000
_cell_angle_beta 41.705570
_cell_angle_gamma 90.000000
_cell_volume 1814.994806
_symmetry_space_group_name_H-M "C 2/C"
_symmetry_group_IT_number 15
_symmetry_cell_setting 'monoclinic'
loop_
_space_group_symop_operation_xyz
x,y,z
-x,y,1/2-z
-x,-y,-z
x,-y,1/2+z
1/2+x,1/2+y,z
1/2-x,1/2+y,1/2-z
1/2-x,1/2-y,-z
1/2+x,1/2-y,1/2+z
loop_
_atom_site_type_symbol
_atom_site_label
_atom_site_fract_x
_atom_site_fract_y
_atom_site_fract_z
Si Si1 0.293955 0.385608 0.890929
Si Si2 0.474294 0.265211 0.912486
Si Si3 0.087698 0.447993 0.769843
Si Si4 0.209932 0.796060 0.218879
Si Si5 0.294085 0.125431 0.513771
Si Si6 0.397190 0.509933 0.171312
O O1 0.390065 0.287739 0.881036
O O2 0.357761 0.429424 0.774960
O O3 0.128580 0.325101 0.983175
O O4 0.297499 0.502231 0.942382
O O5 0.647951 0.227423 0.807534
O O6 0.499969 0.397129 0.930435
O O7 0.146577 0.319662 0.716125
O O8 0.237633 0.501737 0.718247
O O9 0.000000 0.506023 0.750000
O O10 0.960409 0.416576 0.900393
O O11 0.074954 0.873919 0.327470
O O12 0.285690 0.859505 0.107018
O O13 0.250000 0.250000 0.500000
#
# Coordination Sequence:
#
# PCOD9282782 Si02
#       6
#     8   8   8   8   8   8
#     4  10  22  41  66  93 127 170 216 256 317 387
#     4  10  21  39  64  95 125 160 217 265 304 371
#     4  11  22  38  59  91 128 159 208 266 316 364
#     4  10  22  41  65  92 127 166 216 256 315 388
#     4  11  22  39  65  92 127 170 209 260 314 380
#     4  10  22  40  67  90 122 175 212 254 313 388
#
# _framework density 26.446356999999999
#
# number of rings (size 3 to 8) (size 9 to 14) (size 15 to 20)
#    0.000    1.667    1.667    2.500    2.333    2.667 
#    0.000   17.500    0.000    0.000    0.000    0.000 
#    0.000    0.000    0.000    0.000    0.000    0.000 
#
# Total GULP energy -133783.336041 kJ/mol
# GULP energy per Si atom -5574.305668 kJ/mol
# Density = 2.638616 g / cm^3
# Si number density = 26.446357 Si / 1000 Ang^3
#
#
#
# Elastic Constant Matrix: (Units=GPa)
#
#
# Indices 1 2 3 4 5 6 
#
# 1 88.7379 21.6444 -8.5799 0.0000 -15.2720 0.0000
# 2 21.6444 98.7916 1.6312 0.0000 2.5556 0.0000
# 3 -8.5799 1.6312 51.0371 -0.0001 -6.6121 0.0000
# 4 0.0000 0.0000 -0.0001 33.8551 0.0000 -1.6590
# 5 -15.2720 2.5556 -6.6121 0.0000 28.0820 0.0000
# 6 0.0000 0.0000 0.0000 -1.6590 0.0000 10.9404
#
#
#
# Elastic Compliance Matrix: (Units=1/GPa)
#
#
# Indices 1 2 3 4 5 6 
#
# 1 0.013930 -0.003337 0.003578 0.000000 0.008722 0.000000
# 2 -0.003337 0.010956 -0.001315 0.000000 -0.003121 0.000000
# 3 0.003578 -0.001315 0.021150 0.000000 0.007046 0.000000
# 4 0.000000 0.000000 0.000000 0.029759 0.000000 0.004513
# 5 0.008722 -0.003121 0.007046 0.000000 0.042296 0.000000
# 6 0.000000 0.000000 0.000000 0.004513 0.000000 0.092089
#
#
# Mechanical properties :
#
#
# Convention : Reuss Voigt Hill
#
# Bulk Modulus (GPa) = 22.78507 29.77309 26.27908
# Shear Modulus (GPa) = 22.03063 29.50023 25.76543
#
# Velocity S-wave (km/s) = 2.88936 3.34349 3.12469
# Velocity P-wave (km/s) = 4.44584 5.11739 4.79339
#
# Compressibility (1/GPa) = 0.04388838
#
# Stress axis : x y z
#
# Youngs Moduli (GPa) = 71.78725 91.27568 47.28136
#
# Poissons Ratio (x) = 0.30456 -0.16919
# Poissons Ratio (y) = 0.23953 0.06220
# Poissons Ratio (z) = -0.25688 0.12007
#
# Static dielectric constant tensor:
#      x y z
#    x 2.147070 0.000000 -0.060440 
#    y 0.000000 2.318290 0.000000 
#    z -0.060440 0.000000 2.161500 
# 
# From -- ./inp_files/243892.got.cif
#   From: 2010.05.17/outbox.cif.g08.bks.cpg/sg15_122_cif.got.tgz:243892.got - 2010.06.03 18:47:42.
