data_PCOD9282780
_publ_section_title
;
Structure prediction by ZEFSAII (Michael W. Deem and Ramdas Pophale) SiO2 
 PCOD9282780
Probable space group: C 2/C
;
_chemical_formula_sum "Si O2"
_cell_formula_units_Z 48
_cell_length_a 9.837399
_cell_length_b 19.820946
_cell_length_c 12.705946
_cell_angle_alpha 90.000000
_cell_angle_beta 63.752286
_cell_angle_gamma 90.000000
_cell_volume 2222.035737
_symmetry_space_group_name_H-M "C 2/C"
_symmetry_group_IT_number 15
_symmetry_cell_setting 'monoclinic'
loop_
_space_group_symop_operation_xyz
x,y,z
-x,y,1/2-z
-x,-y,-z
x,-y,1/2+z
1/2+x,1/2+y,z
1/2-x,1/2+y,1/2-z
1/2-x,1/2-y,-z
1/2+x,1/2-y,1/2+z
loop_
_atom_site_type_symbol
_atom_site_label
_atom_site_fract_x
_atom_site_fract_y
_atom_site_fract_z
Si Si1 0.495005 0.833395 0.096562
Si Si2 0.169894 0.907091 0.704032
Si Si3 0.239932 0.176323 0.843165
Si Si4 0.570292 0.803605 0.842148
Si Si5 0.613551 0.032597 0.541730
Si Si6 0.345440 0.482686 0.114938
O O1 0.653484 0.806415 0.091877
O O2 0.349891 0.807661 0.206833
O O3 0.481636 0.832572 0.975240
O O4 0.510117 0.910686 0.128705
O O5 0.279368 0.850267 0.713745
O O6 0.251463 0.930221 0.568682
O O7 0.000000 0.880095 0.750000
O O8 0.155701 0.974926 0.777963
O O9 0.105221 0.228404 0.872066
O O10 0.182392 0.098306 0.864037
O O11 0.500000 0.803446 0.750000
O O12 0.701420 0.989884 0.597317
O O13 0.500000 0.000000 0.500000
O O14 0.500000 0.500000 0.000000
#
# Coordination Sequence:
#
# PCOD9282780 Si02
#       6
#     8   8   8   8   8   8
#     4   9  21  41  66  96 127 182 226 268 338 413
#     4  11  24  41  64  94 133 178 225 279 342 405
#     4  10  22  43  69  96 134 178 230 278 346 412
#     4  11  26  43  65 101 136 180 232 283 341 403
#     4  10  21  39  64  94 131 171 214 275 342 406
#     4  11  23  41  66 101 130 172 227 281 341 403
#
# _framework density 21.601813
#
# number of rings (size 3 to 8) (size 9 to 14) (size 15 to 20)
#    0.000    1.667    1.667    1.500    7.000    4.000 
#    3.000    0.000    0.000    0.000    0.000    0.000 
#    0.000    0.000    0.000    0.000    0.000    0.000 
#
# Total GULP energy -133794.689914 kJ/mol
# GULP energy per Si atom -5574.778746 kJ/mol
# Density = 2.155265 g / cm^3
# Si number density = 21.601813 Si / 1000 Ang^3
#
#
#
# Elastic Constant Matrix: (Units=GPa)
#
#
# Indices 1 2 3 4 5 6 
#
# 1 82.7147 17.6819 14.6381 0.0000 21.4526 0.0000
# 2 17.6819 79.0512 17.5585 0.0000 1.8474 0.0000
# 3 14.6381 17.5585 99.4270 0.0000 16.9645 0.0000
# 4 0.0000 0.0000 0.0000 25.5035 0.0000 7.1738
# 5 21.4526 1.8474 16.9645 0.0000 39.1686 0.0000
# 6 0.0000 0.0000 0.0000 7.1738 0.0000 25.4015
#
#
#
# Elastic Compliance Matrix: (Units=1/GPa)
#
#
# Indices 1 2 3 4 5 6 
#
# 1 0.014835 -0.003067 -0.000303 0.000000 -0.007849 0.000000
# 2 -0.003067 0.013807 -0.002335 0.000000 0.002040 0.000000
# 3 -0.000303 -0.002335 0.011303 0.000000 -0.004619 0.000000
# 4 0.000000 0.000000 0.000000 0.042594 0.000000 -0.012029
# 5 -0.007849 0.002040 -0.004619 0.000000 0.031734 0.000000
# 6 0.000000 0.000000 0.000000 -0.012029 0.000000 0.042765
#
#
# Mechanical properties :
#
#
# Convention : Reuss Voigt Hill
#
# Bulk Modulus (GPa) = 35.04596 40.10554 37.57575
# Shear Modulus (GPa) = 28.09623 32.10232 30.09928
#
# Velocity S-wave (km/s) = 3.61035 3.85917 3.73683
# Velocity P-wave (km/s) = 5.79986 6.20191 6.00425
#
# Compressibility (1/GPa) = 0.02853396
#
# Stress axis : x y z
#
# Youngs Moduli (GPa) = 67.40894 72.42673 88.47427
#
# Poissons Ratio (x) = 0.22216 0.02682
# Poissons Ratio (y) = 0.20677 0.20657
# Poissons Ratio (z) = 0.02043 0.16910
#
# Static dielectric constant tensor:
#      x y z
#    x 1.828190 0.000000 0.004990 
#    y 0.000000 1.831980 0.000000 
#    z 0.004990 0.000000 1.781880 
# 
# From -- ./inp_files/79755.got.cif
#   From: 2010.05.17/outbox.cif.g08.bks.cpg/sg15_40_cif.got.tgz:79755.got - 2010.06.03 18:47:42.
