data_PCOD9282824
_publ_section_title
;
Structure prediction by ZEFSAII (Michael W. Deem and Ramdas Pophale) SiO2 
 PCOD9282824
Probable space group: C 2/C
;
_chemical_formula_sum "Si O2"
_cell_formula_units_Z 48
_cell_length_a 20.936960
_cell_length_b 17.943639
_cell_length_c 16.560390
_cell_angle_alpha 90.000000
_cell_angle_beta 163.199225
_cell_angle_gamma 90.000000
_cell_volume 1798.290236
_symmetry_space_group_name_H-M "C 2/C"
_symmetry_group_IT_number 15
_symmetry_cell_setting 'monoclinic'
loop_
_space_group_symop_operation_xyz
x,y,z
-x,y,1/2-z
-x,-y,-z
x,-y,1/2+z
1/2+x,1/2+y,z
1/2-x,1/2+y,1/2-z
1/2-x,1/2-y,-z
1/2+x,1/2-y,1/2+z
loop_
_atom_site_type_symbol
_atom_site_label
_atom_site_fract_x
_atom_site_fract_y
_atom_site_fract_z
Si Si1 0.454135 0.983220 0.785846
Si Si2 0.956794 0.764556 0.280114
Si Si3 0.298908 0.127003 0.457826
Si Si4 0.381108 0.386435 0.923585
Si Si5 0.407228 0.460314 0.537326
Si Si6 0.414013 0.857764 0.438928
O O1 0.500000 0.958381 0.750000
O O2 0.219352 0.992808 0.546338
O O3 0.585908 0.924922 0.997803
O O4 0.566571 0.063327 0.925793
O O5 0.952591 0.846859 0.312985
O O6 0.084459 0.714180 0.502179
O O7 0.678907 0.737201 0.974345
O O8 0.130840 0.149231 0.181740
O O9 0.500000 0.169100 0.750000
O O10 0.143940 0.080430 0.331392
O O11 0.419544 0.474911 0.983435
O O12 0.145745 0.362545 0.674413
O O13 0.261176 0.387630 0.337764
#
# Coordination Sequence:
#
# PCOD9282824 Si02
#       6
#     8   8   8   8   8   8
#     4  10  21  39  65 101 139 181 240 300 353 428
#     4  12  27  44  67 108 149 199 234 289 374 443
#     4  11  24  41  67 104 135 187 243 304 360 419
#     4  11  23  47  66 101 153 189 247 308 357 439
#     4  11  23  43  72 100 142 199 238 306 374 416
#     4  11  22  44  68 100 145 190 249 290 375 432
#
# _framework density 26.692019999999999
#
# number of rings (size 3 to 8) (size 9 to 14) (size 15 to 20)
#    0.000    1.000    5.000    2.000    2.333    5.333 
#    0.000    0.000    0.000    4.000    0.000    0.000 
#    0.000    0.000    0.000    0.000    0.000    0.000 
#
# Total GULP energy -133616.967910 kJ/mol
# GULP energy per Si atom -5567.373663 kJ/mol
# Density = 2.663127 g / cm^3
# Si number density = 26.692020 Si / 1000 Ang^3
#
#
#
# Elastic Constant Matrix: (Units=GPa)
#
#
# Indices 1 2 3 4 5 6 
#
# 1 91.9868 -8.7820 24.5599 -0.0001 1.1940 -0.0002
# 2 -8.7820 54.7182 27.2824 -0.0001 -11.0069 0.0000
# 3 24.5599 27.2824 132.7337 -0.0002 3.1967 -0.0003
# 4 -0.0001 -0.0001 -0.0002 32.7633 -0.0001 -7.4340
# 5 1.1940 -11.0069 3.1967 -0.0001 52.7876 -0.0001
# 6 -0.0002 0.0000 -0.0003 -7.4340 -0.0001 35.2201
#
#
#
# Elastic Compliance Matrix: (Units=1/GPa)
#
#
# Indices 1 2 3 4 5 6 
#
# 1 0.011990 0.003529 -0.002959 0.000000 0.000644 0.000000
# 2 0.003529 0.022531 -0.005403 0.000000 0.004945 0.000000
# 3 -0.002959 -0.005403 0.009231 0.000000 -0.001619 0.000000
# 4 0.000000 0.000000 0.000000 0.032057 0.000000 0.006766
# 5 0.000644 0.004945 -0.001619 0.000000 0.020058 0.000000
# 6 0.000000 0.000000 0.000000 0.006766 0.000000 0.029821
#
#
# Mechanical properties :
#
#
# Convention : Reuss Voigt Hill
#
# Bulk Modulus (GPa) = 29.33825 40.61773 34.97799
# Shear Modulus (GPa) = 34.07931 39.91276 36.99603
#
# Velocity S-wave (km/s) = 3.57705 3.87111 3.72699
# Velocity P-wave (km/s) = 5.29865 5.93556 5.62613
#
# Compressibility (1/GPa) = 0.03408519
#
# Stress axis : x y z
#
# Youngs Moduli (GPa) = 83.40366 44.38390 108.33008
#
# Poissons Ratio (x) = -0.15665 0.32060
# Poissons Ratio (y) = -0.29437 0.58533
# Poissons Ratio (z) = 0.24683 0.23981
#
# Static dielectric constant tensor:
#      x y z
#    x 2.378990 0.000000 0.095180 
#    y 0.000000 2.054250 0.000000 
#    z 0.095180 0.000000 2.477430 
# 
# From -- ./inp_files/216594.got.cif
#   From: 2010.05.17/outbox.cif.g08.bks.cpg/sg15_109_cif.got.tgz:216594.got - 2010.06.03 18:47:42.
