data_PCOD9282014
_publ_section_title
;
Structure prediction by ZEFSAII (Michael W. Deem and Ramdas Pophale) SiO2 
 PCOD9282014
Probable space group: C 2/C
;
_chemical_formula_sum "Si O2"
_cell_formula_units_Z 40
_cell_length_a 11.084556
_cell_length_b 18.722837
_cell_length_c 18.662973
_cell_angle_alpha 90.000000
_cell_angle_beta 156.133995
_cell_angle_gamma 90.000000
_cell_volume 1567.096216
_symmetry_space_group_name_H-M "C 2/C"
_symmetry_group_IT_number 15
_symmetry_cell_setting 'monoclinic'
loop_
_space_group_symop_operation_xyz
x,y,z
-x,y,1/2-z
-x,-y,-z
x,-y,1/2+z
1/2+x,1/2+y,z
1/2-x,1/2+y,1/2-z
1/2-x,1/2-y,-z
1/2+x,1/2-y,1/2+z
loop_
_atom_site_type_symbol
_atom_site_label
_atom_site_fract_x
_atom_site_fract_y
_atom_site_fract_z
Si Si1 0.666266 0.166578 0.449532
Si Si2 0.463949 0.655519 0.474672
Si Si3 0.915441 0.454926 0.884930
Si Si4 0.227699 0.570016 0.976793
Si Si5 0.200120 0.703911 0.045349
O O1 0.750000 0.250000 0.500000
O O2 0.907885 0.134621 0.525766
O O3 0.347624 0.156524 0.237273
O O4 0.603934 0.119170 0.485483
O O5 0.694083 0.605645 0.557267
O O6 0.550794 0.738826 0.516450
O O7 0.561097 0.445426 0.688002
O O8 0.030858 0.499899 0.878542
O O9 0.000000 0.500000 0.000000
O O10 0.080348 0.630780 0.947377
O O11 0.500000 0.685211 0.250000
O O12 0.250000 0.750000 0.000000
#
# Coordination Sequence:
#
# PCOD9282014 Si02
#       5
#     8   8   8   8   8
#     4  10  23  41  66  98 136 173 222 287 339 413
#     4   9  22  42  64  96 131 180 223 280 351 407
#     4  11  23  41  64  95 132 176 217 280 345 403
#     4  10  23  42  65  95 135 174 224 286 343 411
#     4  10  21  38  67  96 133 174 226 284 341 409
#
# _framework density 25.524915
#
# number of rings (size 3 to 8) (size 9 to 14) (size 15 to 20)
#    0.000    2.000    0.000    1.800   11.200    2.400 
#    7.200    0.000    4.400    0.000    0.000    0.000 
#    0.000    0.000    0.000    0.000    0.000    0.000 
#
# Total GULP energy -111821.296442 kJ/mol
# GULP energy per Si atom -5591.064822 kJ/mol
# Density = 2.546682 g / cm^3
# Si number density = 25.524915 Si / 1000 Ang^3
#
#
#
# Elastic Constant Matrix: (Units=GPa)
#
#
# Indices 1 2 3 4 5 6 
#
# 1 114.3592 36.2073 18.2379 -0.0270 13.4420 -0.0053
# 2 36.2073 140.4396 17.6379 -0.0335 16.7166 -0.0102
# 3 18.2379 17.6379 95.2338 0.0120 10.0350 0.0060
# 4 -0.0270 -0.0335 0.0120 28.5317 0.0098 10.6260
# 5 13.4420 16.7166 10.0350 0.0098 21.9478 0.0001
# 6 -0.0053 -0.0102 0.0060 10.6260 0.0001 63.2912
#
#
#
# Elastic Compliance Matrix: (Units=1/GPa)
#
#
# Indices 1 2 3 4 5 6 
#
# 1 0.010028 -0.001951 -0.001123 0.000009 -0.004142 -0.000001
# 2 -0.001951 0.008278 -0.000652 0.000010 -0.004812 0.000000
# 3 -0.001123 -0.000652 0.011254 -0.000005 -0.003961 0.000000
# 4 0.000009 0.000010 -0.000005 0.037386 -0.000028 -0.006277
# 5 -0.004142 -0.004812 -0.003961 -0.000028 0.053575 0.000004
# 6 -0.000001 0.000000 0.000000 -0.006277 0.000004 0.016854
#
#
# Mechanical properties :
#
#
# Convention : Reuss Voigt Hill
#
# Bulk Modulus (GPa) = 45.23400 54.91099 50.07249
# Shear Modulus (GPa) = 32.85202 41.28411 37.06806
#
# Velocity S-wave (km/s) = 3.59145 4.02606 3.81495
# Velocity P-wave (km/s) = 5.91253 6.57051 6.25018
#
# Compressibility (1/GPa) = 0.02210727
#
# Stress axis : x y z
#
# Youngs Moduli (GPa) = 99.71973 120.79822 88.85987
#
# Poissons Ratio (x) = 0.23572 0.09975
# Poissons Ratio (y) = 0.19459 0.05798
# Poissons Ratio (z) = 0.11194 0.07882
#
# Static dielectric constant tensor:
#      x y z
#    x 2.095910 -0.000010 -0.018870 
#    y -0.000010 2.055900 -0.000050 
#    z -0.018870 -0.000050 1.978260 
# 
# From -- ./inp_files/239903.got.cif
#   From: 2010.05.17/outbox.cif.g08.bks.cpg/sg15_120_cif.got.tgz:239903.got - 2010.06.03 18:47:42.
