data_PCOD9282236
_publ_section_title
;
Structure prediction by ZEFSAII (Michael W. Deem and Ramdas Pophale) SiO2 
 PCOD9282236
Probable space group: C 2/C
;
_chemical_formula_sum "Si O2"
_cell_formula_units_Z 48
_cell_length_a 12.620226
_cell_length_b 11.644169
_cell_length_c 16.721277
_cell_angle_alpha 90.000000
_cell_angle_beta 111.106879
_cell_angle_gamma 90.000000
_cell_volume 2292.371311
_symmetry_space_group_name_H-M "C 2/C"
_symmetry_group_IT_number 15
_symmetry_cell_setting 'monoclinic'
loop_
_space_group_symop_operation_xyz
x,y,z
-x,y,1/2-z
-x,-y,-z
x,-y,1/2+z
1/2+x,1/2+y,z
1/2-x,1/2+y,1/2-z
1/2-x,1/2-y,-z
1/2+x,1/2-y,1/2+z
loop_
_atom_site_type_symbol
_atom_site_label
_atom_site_fract_x
_atom_site_fract_y
_atom_site_fract_z
Si Si1 0.744514 0.270909 0.593653
Si Si2 0.879892 0.444882 0.739731
Si Si3 0.687325 0.426743 0.270715
Si Si4 0.504704 0.370611 0.965379
Si Si5 0.610357 0.665263 0.322388
Si Si6 0.135854 0.746481 0.138133
O O1 0.750000 0.250000 0.500000
O O2 0.834439 0.359922 0.657485
O O3 0.764625 0.150443 0.644325
O O4 0.622860 0.325456 0.582427
O O5 0.786050 0.536507 0.736708
O O6 0.894911 0.370132 0.824712
O O7 0.000000 0.495617 0.750000
O O8 0.631309 0.543191 0.284723
O O9 0.609593 0.344335 0.196792
O O10 0.576092 0.362999 0.903558
O O11 0.500000 0.500000 0.000000
O O12 0.564631 0.283205 0.042857
O O13 0.500000 0.720021 0.250000
O O14 0.729737 0.732280 0.345760
#
# Coordination Sequence:
#
# PCOD9282236 Si02
#       6
#     8   8   8   8   8   8
#     4  11  23  40  61  90 121 158 202 249 299 358
#     4  10  21  39  60  85 118 156 196 243 299 356
#     4  10  22  39  60  85 118 155 197 242 298 357
#     4  12  23  39  62  88 118 155 199 248 299 358
#     4  11  22  39  61  88 118 155 197 243 295 354
#     4  10  22  40  59  86 118 155 196 243 296 355
#
# _framework density 20.939015000000001
#
# number of rings (size 3 to 8) (size 9 to 14) (size 15 to 20)
#    0.000    1.333    0.000    7.500    0.000    6.000 
#    0.000    9.167    0.000    0.000    0.000    0.000 
#    0.000    0.000    0.000    0.000    0.000    0.000 
#
# Total GULP energy -134143.292392 kJ/mol
# GULP energy per Si atom -5589.303850 kJ/mol
# Density = 2.089136 g / cm^3
# Si number density = 20.939015 Si / 1000 Ang^3
#
#
#
# Elastic Constant Matrix: (Units=GPa)
#
#
# Indices 1 2 3 4 5 6 
#
# 1 86.5188 4.8641 18.8894 0.0000 -2.3384 0.0000
# 2 4.8641 61.4419 6.3916 0.0000 -0.6636 0.0000
# 3 18.8894 6.3916 84.8768 0.0000 -11.6521 0.0000
# 4 0.0000 0.0000 0.0000 17.8550 0.0000 -1.6626
# 5 -2.3384 -0.6636 -11.6521 0.0000 44.9278 0.0000
# 6 0.0000 0.0000 0.0000 -1.6626 0.0000 12.8832
#
#
#
# Elastic Compliance Matrix: (Units=1/GPa)
#
#
# Indices 1 2 3 4 5 6 
#
# 1 0.012177 -0.000687 -0.002668 0.000000 -0.000068 0.000000
# 2 -0.000687 0.016443 -0.001096 0.000000 -0.000077 0.000000
# 3 -0.002668 -0.001096 0.012896 0.000000 0.003190 0.000000
# 4 0.000000 0.000000 0.000000 0.056688 0.000000 0.007316
# 5 -0.000068 -0.000077 0.003190 0.000000 0.023080 0.000000
# 6 0.000000 0.000000 0.000000 0.007316 0.000000 0.078565
#
#
# Mechanical properties :
#
#
# Convention : Reuss Voigt Hill
#
# Bulk Modulus (GPa) = 30.66101 32.56975 31.61538
# Shear Modulus (GPa) = 22.76629 28.64601 25.70615
#
# Velocity S-wave (km/s) = 3.30095 3.70275 3.50761
# Velocity P-wave (km/s) = 5.40399 5.81970 5.61569
#
# Compressibility (1/GPa) = 0.03261471
#
# Stress axis : x y z
#
# Youngs Moduli (GPa) = 82.11927 60.81574 77.54416
#
# Poissons Ratio (x) = 0.04180 0.20686
# Poissons Ratio (y) = 0.05644 0.08498
# Poissons Ratio (z) = 0.21907 0.06665
#
# Static dielectric constant tensor:
#      x y z
#    x 1.758690 0.000000 0.007010 
#    y 0.000000 1.742330 0.000000 
#    z 0.007010 0.000000 1.746290 
# 
# From -- ./inp_files/196479.got.cif
#   From: 2010.05.17/outbox.cif.g08.bks.cpg/sg15_99_cif.got.tgz:196479.got - 2010.06.03 18:47:42.
