data_PCOD9282418
_publ_section_title
;
Structure prediction by ZEFSAII (Michael W. Deem and Ramdas Pophale) SiO2 
 PCOD9282418
Probable space group: C 2/C
;
_chemical_formula_sum "Si O2"
_cell_formula_units_Z 40
_cell_length_a 17.398859
_cell_length_b 5.182138
_cell_length_c 27.199260
_cell_angle_alpha 90.000000
_cell_angle_beta 140.664771
_cell_angle_gamma 90.000000
_cell_volume 1554.453801
_symmetry_space_group_name_H-M "C 2/C"
_symmetry_group_IT_number 15
_symmetry_cell_setting 'monoclinic'
loop_
_space_group_symop_operation_xyz
x,y,z
-x,y,1/2-z
-x,-y,-z
x,-y,1/2+z
1/2+x,1/2+y,z
1/2-x,1/2+y,1/2-z
1/2-x,1/2-y,-z
1/2+x,1/2-y,1/2+z
loop_
_atom_site_type_symbol
_atom_site_label
_atom_site_fract_x
_atom_site_fract_y
_atom_site_fract_z
Si Si1 0.936323 0.900788 0.517835
Si Si2 0.138451 0.436876 0.146645
Si Si3 0.383217 0.683262 0.586776
Si Si4 0.710086 0.066837 0.794699
Si Si5 0.355835 0.831756 0.134783
O O1 0.791977 0.866952 0.442508
O O2 0.003615 0.633626 0.563544
O O3 0.957117 0.083023 0.576042
O O4 0.000000 0.000000 0.500000
O O5 0.190305 0.706851 0.155136
O O6 0.153463 0.419842 0.212650
O O7 0.226198 0.211152 0.168593
O O8 0.250000 0.750000 0.500000
O O9 0.382751 0.444421 0.624395
O O10 0.415062 0.939516 0.632352
O O11 0.623896 0.132580 0.797336
#
# Coordination Sequence:
#
# PCOD9282418 Si02
#       5
#     8   8   8   8   8
#     4  11  22  39  65  96 122 156 215 260 300 355
#     4  10  22  38  59  95 124 154 208 261 301 365
#     4  10  23  40  58  90 127 160 196 251 314 371
#     4  10  21  39  62  87 126 165 197 250 323 366
#     4  11  22  41  63  88 123 166 197 246 320 369
#
# _framework density 25.732509
#
# number of rings (size 3 to 8) (size 9 to 14) (size 15 to 20)
#    0.000    1.600    2.000    3.600    2.800    5.600 
#    0.000    1.000    0.000    4.800    0.000    0.000 
#    0.000    0.000    0.000    0.000    0.000    0.000 
#
# Total GULP energy -112180.376153 kJ/mol
# GULP energy per Si atom -5609.018808 kJ/mol
# Density = 2.567394 g / cm^3
# Si number density = 25.732509 Si / 1000 Ang^3
#
#
#
# Elastic Constant Matrix: (Units=GPa)
#
#
# Indices 1 2 3 4 5 6 
#
# 1 169.1107 48.4240 30.9830 -0.0006 -8.8067 -0.0020
# 2 48.4240 138.8248 28.4414 -0.0030 2.1240 -0.0021
# 3 30.9830 28.4414 67.8074 -0.0016 -21.8890 0.0017
# 4 -0.0006 -0.0030 -0.0016 31.7043 0.0003 -0.7237
# 5 -8.8067 2.1240 -21.8890 0.0003 39.5923 -0.0007
# 6 -0.0020 -0.0021 0.0017 -0.7237 -0.0007 25.3314
#
#
#
# Elastic Compliance Matrix: (Units=1/GPa)
#
#
# Indices 1 2 3 4 5 6 
#
# 1 0.006899 -0.001965 -0.002190 0.000000 0.000429 0.000001
# 2 -0.001965 0.008692 -0.003700 0.000001 -0.002949 0.000001
# 3 -0.002190 -0.003700 0.020945 0.000001 0.011291 -0.000002
# 4 0.000000 0.000001 0.000001 0.031562 0.000000 0.000902
# 5 0.000429 -0.002949 0.011291 0.000000 0.031753 0.000000
# 6 0.000001 0.000001 -0.000002 0.000902 0.000000 0.039502
#
#
# Mechanical properties :
#
#
# Convention : Reuss Voigt Hill
#
# Bulk Modulus (GPa) = 48.01360 65.71551 56.86456
# Shear Modulus (GPa) = 30.86317 37.18525 34.02421
#
# Velocity S-wave (km/s) = 3.46697 3.80553 3.64019
# Velocity P-wave (km/s) = 5.89286 6.70095 6.30986
#
# Compressibility (1/GPa) = 0.02082743
#
# Stress axis : x y z
#
# Youngs Moduli (GPa) = 144.94033 115.05219 47.74387
#
# Poissons Ratio (x) = 0.22602 0.10455
# Poissons Ratio (y) = 0.28474 0.17665
# Poissons Ratio (z) = 0.31741 0.42569
#
# Static dielectric constant tensor:
#      x y z
#    x 2.003150 0.000000 0.017530 
#    y 0.000000 1.975980 0.000010 
#    z 0.017530 0.000010 2.080860 
# 
# From -- ./inp_files/275455.got.cif
#   From: 2010.05.17/outbox.cif.g08.bks.cpg/sg15_138_cif.got.tgz:275455.got - 2010.06.03 18:47:42.
