data_PCOD9282094
_publ_section_title
;
Structure prediction by ZEFSAII (Michael W. Deem and Ramdas Pophale) SiO2 
 PCOD9282094
Probable space group: C 2/C
;
_chemical_formula_sum "Si O2"
_cell_formula_units_Z 48
_cell_length_a 28.136724
_cell_length_b 7.782993
_cell_length_c 12.516150
_cell_angle_alpha 90.000000
_cell_angle_beta 42.394259
_cell_angle_gamma 90.000000
_cell_volume 1847.982976
_symmetry_space_group_name_H-M "C 2/C"
_symmetry_group_IT_number 15
_symmetry_cell_setting 'monoclinic'
loop_
_space_group_symop_operation_xyz
x,y,z
-x,y,1/2-z
-x,-y,-z
x,-y,1/2+z
1/2+x,1/2+y,z
1/2-x,1/2+y,1/2-z
1/2-x,1/2-y,-z
1/2+x,1/2-y,1/2+z
loop_
_atom_site_type_symbol
_atom_site_label
_atom_site_fract_x
_atom_site_fract_y
_atom_site_fract_z
Si Si1 0.253243 0.336848 0.335849
Si Si2 0.446294 0.150020 0.059694
Si Si3 0.838451 0.593830 0.696768
Si Si4 0.029463 0.184820 0.590147
Si Si5 0.103649 0.160422 0.039414
Si Si6 0.293751 0.524821 0.482399
O O1 0.192862 0.434892 0.369443
O O2 0.321996 0.327053 0.146505
O O3 0.281006 0.447883 0.387992
O O4 0.219020 0.151510 0.424233
O O5 0.468721 0.303011 0.100791
O O6 0.442086 0.188912 0.940067
O O7 0.369963 0.068963 0.208076
O O8 0.500000 0.000000 0.000000
O O9 0.902272 0.722320 0.572529
O O10 0.771217 0.647301 0.876124
O O11 0.000000 0.265436 0.750000
O O12 0.058364 0.001452 0.576606
O O13 0.132363 0.117206 0.110270
#
# Coordination Sequence:
#
# PCOD9282094 Si02
#       6
#     8   8   8   8   8   8
#     4  10  21  38  71  97 129 178 211 281 347 397
#     4  10  23  43  65  87 133 180 218 277 327 398
#     4  10  21  41  64  98 132 169 229 273 333 401
#     4  11  25  41  69  91 129 190 227 267 332 405
#     4  11  22  41  66  99 133 166 233 279 328 400
#     4  10  21  38  71  97 129 175 219 279 335 408
#
# _framework density 25.974266
#
# number of rings (size 3 to 8) (size 9 to 14) (size 15 to 20)
#    0.000    1.667    3.333    0.500    4.667    0.000 
#    0.000    6.667    0.000    0.000    0.000    0.000 
#    0.000    0.000    0.000    0.000    0.000    0.000 
#
# Total GULP energy -133978.207046 kJ/mol
# GULP energy per Si atom -5582.425294 kJ/mol
# Density = 2.591515 g / cm^3
# Si number density = 25.974266 Si / 1000 Ang^3
#
#
#
# Elastic Constant Matrix: (Units=GPa)
#
#
# Indices 1 2 3 4 5 6 
#
# 1 191.9236 37.5642 34.8025 0.0000 -20.8382 -0.0001
# 2 37.5642 69.0381 24.7580 0.0001 -13.2521 -0.0001
# 3 34.8025 24.7580 58.3532 0.0000 1.6655 0.0000
# 4 0.0000 0.0001 0.0000 27.3976 0.0000 -3.6245
# 5 -20.8382 -13.2521 1.6655 0.0000 33.1488 0.0000
# 6 -0.0001 -0.0001 0.0000 -3.6245 0.0000 50.0677
#
#
#
# Elastic Compliance Matrix: (Units=1/GPa)
#
#
# Indices 1 2 3 4 5 6 
#
# 1 0.006525 -0.001685 -0.003279 0.000000 0.003593 0.000000
# 2 -0.001685 0.019429 -0.007441 0.000000 0.007082 0.000000
# 3 -0.003279 -0.007441 0.022426 0.000000 -0.006163 0.000000
# 4 0.000000 0.000000 0.000000 0.036852 0.000000 0.002668
# 5 0.003593 0.007082 -0.006163 0.000000 0.035567 0.000000
# 6 0.000000 0.000000 0.000000 0.002668 0.000000 0.020166
#
#
# Mechanical properties :
#
#
# Convention : Reuss Voigt Hill
#
# Bulk Modulus (GPa) = 42.42617 57.06269 49.74443
# Shear Modulus (GPa) = 28.79669 36.93552 32.86611
#
# Velocity S-wave (km/s) = 3.33327 3.77504 3.56101
# Velocity P-wave (km/s) = 5.58423 6.40452 6.00839
#
# Compressibility (1/GPa) = 0.02357036
#
# Stress axis : x y z
#
# Youngs Moduli (GPa) = 153.25929 51.46906 44.59162
#
# Poissons Ratio (x) = 0.08670 0.14623
# Poissons Ratio (y) = 0.25817 0.33180
# Poissons Ratio (z) = 0.50259 0.38297
#
# Static dielectric constant tensor:
#      x y z
#    x 2.111200 0.000000 0.016010 
#    y 0.000000 2.184330 0.000000 
#    z 0.016010 0.000000 2.080110 
# 
# From -- ./inp_files/180707.got.cif
#   From: 2010.05.17/outbox.cif.g08.bks.cpg/sg15_91_cif.got.tgz:180707.got - 2010.06.03 18:47:42.
