data_PCOD9282311
_publ_section_title
;
Structure prediction by ZEFSAII (Michael W. Deem and Ramdas Pophale) SiO2 
 PCOD9282311
Probable space group: C 2/C
;
_chemical_formula_sum "Si O2"
_cell_formula_units_Z 48
_cell_length_a 28.906325
_cell_length_b 8.940316
_cell_length_c 16.090054
_cell_angle_alpha 90.000000
_cell_angle_beta 145.400690
_cell_angle_gamma 90.000000
_cell_volume 2361.155105
_symmetry_space_group_name_H-M "C 2/C"
_symmetry_group_IT_number 15
_symmetry_cell_setting 'monoclinic'
loop_
_space_group_symop_operation_xyz
x,y,z
-x,y,1/2-z
-x,-y,-z
x,-y,1/2+z
1/2+x,1/2+y,z
1/2-x,1/2+y,1/2-z
1/2-x,1/2-y,-z
1/2+x,1/2-y,1/2+z
loop_
_atom_site_type_symbol
_atom_site_label
_atom_site_fract_x
_atom_site_fract_y
_atom_site_fract_z
Si Si1 0.917585 0.902579 0.595540
Si Si2 0.251828 0.567159 0.599252
Si Si3 0.924533 0.103597 0.912616
Si Si4 0.739787 0.577713 0.087008
Si Si5 0.583006 0.064994 0.158205
Si Si6 0.411492 0.924252 0.152138
O O1 0.929351 0.855868 0.517108
O O2 0.909095 0.754630 0.639667
O O3 0.000000 0.981737 0.750000
O O4 0.837073 0.000334 0.485239
O O5 0.337440 0.525739 0.767596
O O6 0.262821 0.544216 0.516073
O O7 0.236549 0.743350 0.590496
O O8 0.171807 0.482114 0.512604
O O9 0.924111 0.255195 0.857441
O O10 0.000000 0.000000 0.000000
O O11 0.828911 0.529010 0.252465
O O12 0.590924 0.994621 0.260525
O O13 0.500000 0.000000 0.000000
O O14 0.500000 0.971354 0.250000
#
# Coordination Sequence:
#
# PCOD9282311 Si02
#       6
#     8   8   8   8   8   8
#     4  11  23  38  59  88 120 153 201 251 294 355
#     4   9  20  38  58  84 120 155 195 243 300 357
#     4  11  24  40  60  89 122 157 199 250 300 360
#     4   9  20  38  59  85 117 156 197 245 296 354
#     4  10  21  39  61  86 121 158 198 246 300 359
#     4  10  22  38  59  87 119 156 198 248 299 357
#
# _framework density 20.329032999999999
#
# number of rings (size 3 to 8) (size 9 to 14) (size 15 to 20)
#    0.000    2.000    0.000    4.000    0.000   10.000 
#    0.000    0.000    0.000    0.000    0.000    0.000 
#    0.000    0.000    0.000    0.000    0.000    0.000 
#
# Total GULP energy -133881.527503 kJ/mol
# GULP energy per Si atom -5578.396979 kJ/mol
# Density = 2.028276 g / cm^3
# Si number density = 20.329033 Si / 1000 Ang^3
#
#
#
# Elastic Constant Matrix: (Units=GPa)
#
#
# Indices 1 2 3 4 5 6 
#
# 1 67.0701 43.7683 34.2317 0.0000 20.9114 0.0000
# 2 43.7683 55.6605 40.9145 0.0000 19.4706 0.0000
# 3 34.2317 40.9145 178.0313 0.0000 42.2770 0.0000
# 4 0.0000 0.0000 0.0000 38.1480 0.0000 8.3514
# 5 20.9114 19.4706 42.2770 0.0000 46.8648 0.0000
# 6 0.0000 0.0000 0.0000 8.3514 0.0000 24.5228
#
#
#
# Elastic Compliance Matrix: (Units=1/GPa)
#
#
# Indices 1 2 3 4 5 6 
#
# 1 0.031404 -0.023380 0.000453 0.000000 -0.004707 0.000000
# 2 -0.023380 0.040304 -0.004159 0.000000 -0.002561 0.000000
# 3 0.000453 -0.004159 0.007793 0.000000 -0.005504 0.000000
# 4 0.000000 0.000000 0.000000 0.028326 0.000000 -0.009646
# 5 -0.004707 -0.002561 -0.005504 0.000000 0.029467 0.000000
# 6 0.000000 0.000000 0.000000 -0.009646 0.000000 0.044064
#
#
# Mechanical properties :
#
#
# Convention : Reuss Voigt Hill
#
# Bulk Modulus (GPa) = 39.48282 59.84343 49.66312
# Shear Modulus (GPa) = 20.49413 34.03028 27.26221
#
# Velocity S-wave (km/s) = 3.17854 4.09586 3.66600
# Velocity P-wave (km/s) = 5.73889 7.20204 6.51169
#
# Compressibility (1/GPa) = 0.02532747
#
# Stress axis : x y z
#
# Youngs Moduli (GPa) = 31.84330 24.81153 128.32417
#
# Poissons Ratio (x) = 0.58010 -0.05810
# Poissons Ratio (y) = 0.74451 0.53369
# Poissons Ratio (z) = -0.01442 0.10319
#
# Static dielectric constant tensor:
#      x y z
#    x 1.732980 0.000000 -0.001550 
#    y 0.000000 1.700760 0.000000 
#    z -0.001550 0.000000 1.787730 
# 
# From -- ./inp_files/209266.got.cif
#   From: 2010.05.17/outbox.cif.g08.bks.cpg/sg15_105_cif.got.tgz:209266.got - 2010.06.03 18:47:42.
