data_PCOD9282907
_publ_section_title
;
Structure prediction by ZEFSAII (Michael W. Deem and Ramdas Pophale) SiO2 
 PCOD9282907
Probable space group: C 2/C
;
_chemical_formula_sum "Si O2"
_cell_formula_units_Z 56
_cell_length_a 11.356281
_cell_length_b 22.230642
_cell_length_c 15.257063
_cell_angle_alpha 90.000000
_cell_angle_beta 36.052548
_cell_angle_gamma 90.000000
_cell_volume 2266.863941
_symmetry_space_group_name_H-M "C 2/C"
_symmetry_group_IT_number 15
_symmetry_cell_setting 'monoclinic'
loop_
_space_group_symop_operation_xyz
x,y,z
-x,y,1/2-z
-x,-y,-z
x,-y,1/2+z
1/2+x,1/2+y,z
1/2-x,1/2+y,1/2-z
1/2-x,1/2-y,-z
1/2+x,1/2-y,1/2+z
loop_
_atom_site_type_symbol
_atom_site_label
_atom_site_fract_x
_atom_site_fract_y
_atom_site_fract_z
Si Si1 0.705239 0.988674 0.103752
Si Si2 0.263842 0.786511 0.401183
Si Si3 0.758697 0.068494 0.397997
Si Si4 0.896371 0.321396 0.617884
Si Si5 0.406650 0.633741 0.067991
Si Si6 0.144479 0.000905 0.314287
Si Si7 0.825141 0.183696 0.926775
O O1 0.500000 0.023664 0.250000
O O2 0.333771 0.943838 0.452264
O O3 0.763983 0.961798 0.163329
O O4 0.912829 0.016513 0.941380
O O5 0.500000 0.800279 0.250000
O O6 0.250000 0.750000 0.500000
O O7 0.167866 0.742192 0.385174
O O8 0.112644 0.842426 0.486787
O O9 0.676152 0.128633 0.406608
O O10 0.735249 0.011395 0.346225
O O11 0.000000 0.075686 0.250000
O O12 0.770925 0.326997 0.782453
O O13 0.123608 0.338845 0.501607
O O14 0.362018 0.567153 0.134404
O O15 0.392614 0.647089 0.972874
O O16 0.000000 0.185817 0.750000
O O17 0.750000 0.250000 0.000000
#
# Coordination Sequence:
#
# PCOD9282907 Si02
#       7
#     8   8   8   8   8   8   8
#     4  10  21  39  65  95 127 165 215 277 334 384
#     4  12  25  38  62 100 132 172 217 273 321 385
#     4   9  20  40  67  96 131 174 213 271 337 402
#     4  11  23  42  65  92 132 176 226 264 328 393
#     4  11  24  44  66  93 132 177 223 267 321 396
#     4   9  22  42  63  94 129 171 215 264 336 401
#     4  12  26  42  62  88 127 178 223 269 317 379
#
# _framework density 24.703731999999999
#
# number of rings (size 3 to 8) (size 9 to 14) (size 15 to 20)
#    0.000    1.429    2.857    1.714    6.000    4.571 
#    0.000    3.571    0.000    0.000    0.000    0.000 
#    0.000    0.000    0.000    0.000    0.000    0.000 
#
# Total GULP energy -156369.225781 kJ/mol
# GULP energy per Si atom -5584.615206 kJ/mol
# Density = 2.464751 g / cm^3
# Si number density = 24.703732 Si / 1000 Ang^3
#
#
#
# Elastic Constant Matrix: (Units=GPa)
#
#
# Indices 1 2 3 4 5 6 
#
# 1 129.6544 28.3467 79.0696 -0.0022 -0.1063 0.0000
# 2 28.3467 70.2293 35.0472 -0.0029 17.3939 0.0010
# 3 79.0696 35.0472 169.4905 -0.0147 -26.7145 0.0062
# 4 -0.0022 -0.0029 -0.0147 20.3037 0.0052 12.8532
# 5 -0.1063 17.3939 -26.7145 0.0052 48.4266 -0.0014
# 6 0.0000 0.0010 0.0062 12.8532 -0.0014 33.5359
#
#
#
# Elastic Compliance Matrix: (Units=1/GPa)
#
#
# Indices 1 2 3 4 5 6 
#
# 1 0.011274 -0.001234 -0.005400 -0.000004 -0.002511 0.000002
# 2 -0.001234 0.019703 -0.005054 0.000002 -0.009868 -0.000001
# 3 -0.005400 -0.005054 0.010677 0.000007 0.007693 -0.000004
# 4 -0.000004 0.000002 0.000007 0.065030 -0.000004 -0.024924
# 5 -0.002511 -0.009868 0.007693 -0.000004 0.028433 0.000002
# 6 0.000002 -0.000001 -0.000004 -0.024924 0.000002 0.039371
#
#
# Mechanical properties :
#
#
# Convention : Reuss Voigt Hill
#
# Bulk Modulus (GPa) = 54.70959 72.70014 63.70487
# Shear Modulus (GPa) = 24.51510 35.58062 30.04786
#
# Velocity S-wave (km/s) = 3.15360 3.79924 3.49137
# Velocity P-wave (km/s) = 5.95438 6.98128 6.48818
#
# Compressibility (1/GPa) = 0.01827833
#
# Stress axis : x y z
#
# Youngs Moduli (GPa) = 88.70236 50.75338 93.66032
#
# Poissons Ratio (x) = 0.06261 0.50577
# Poissons Ratio (y) = 0.10943 0.47336
# Poissons Ratio (z) = 0.47899 0.25651
#
# Static dielectric constant tensor:
#      x y z
#    x 2.265240 0.000000 -0.066050 
#    y 0.000000 2.068290 0.000000 
#    z -0.066050 0.000000 1.979270 
# 
# From -- ./inp_files/149259.got.cif
#   From: 2010.05.17/outbox.cif.g08.bks.cpg/sg15_75_cif.got.tgz:149259.got - 2010.06.03 18:47:42.
