data_PCOD9282919
_publ_section_title
;
Structure prediction by ZEFSAII (Michael W. Deem and Ramdas Pophale) SiO2 
 PCOD9282919
Probable space group: C 2/C
;
_chemical_formula_sum "Si O2"
_cell_formula_units_Z 48
_cell_length_a 8.939251
_cell_length_b 12.665560
_cell_length_c 23.605136
_cell_angle_alpha 90.000000
_cell_angle_beta 130.552930
_cell_angle_gamma 90.000000
_cell_volume 2030.647640
_symmetry_space_group_name_H-M "C 2/C"
_symmetry_group_IT_number 15
_symmetry_cell_setting 'monoclinic'
loop_
_space_group_symop_operation_xyz
x,y,z
-x,y,1/2-z
-x,-y,-z
x,-y,1/2+z
1/2+x,1/2+y,z
1/2-x,1/2+y,1/2-z
1/2-x,1/2-y,-z
1/2+x,1/2-y,1/2+z
loop_
_atom_site_type_symbol
_atom_site_label
_atom_site_fract_x
_atom_site_fract_y
_atom_site_fract_z
Si Si1 0.907397 0.265461 0.967371
Si Si2 0.453060 0.434312 0.069726
Si Si3 0.045287 0.450826 0.928946
Si Si4 0.165287 0.898691 0.333635
Si Si5 0.375239 0.992001 0.663266
Si Si6 0.505926 0.205897 0.878302
O O1 0.674892 0.281674 0.894885
O O2 0.989322 0.155982 0.961758
O O3 0.027024 0.354669 0.966038
O O4 0.942533 0.281989 0.042388
O O5 0.420063 0.385950 0.124327
O O6 0.645209 0.507686 0.119742
O O7 0.259769 0.496013 0.999935
O O8 0.066161 0.409065 0.870142
O O9 0.850395 0.521322 0.886988
O O10 0.269633 0.800376 0.325608
O O11 0.000000 0.940488 0.250000
O O12 0.500000 0.985969 0.750000
O O13 0.435092 0.099755 0.643199
#
# Coordination Sequence:
#
# PCOD9282919 Si02
#       6
#     8   8   8   8   8   8
#     4  10  21  39  65  96 118 155 210 269 313 361
#     4  11  21  38  64  94 125 164 215 262 306 377
#     4  11  22  39  63  92 124 157 215 267 306 366
#     4  11  23  40  62  90 126 171 212 253 320 385
#     4  10  22  40  63  90 128 171 207 254 317 382
#     4   9  20  39  66  86 122 160 207 253 309 387
#
# _framework density 23.637778999999998
#
# number of rings (size 3 to 8) (size 9 to 14) (size 15 to 20)
#    0.000    1.667    1.667    3.500    2.333    0.000 
#    3.000    5.833    7.333    0.000    0.000    0.000 
#    0.000    0.000    0.000    0.000    0.000    0.000 
#
# Total GULP energy -133716.113787 kJ/mol
# GULP energy per Si atom -5571.504741 kJ/mol
# Density = 2.358398 g / cm^3
# Si number density = 23.637779 Si / 1000 Ang^3
#
#
#
# Elastic Constant Matrix: (Units=GPa)
#
#
# Indices 1 2 3 4 5 6 
#
# 1 136.5111 8.9380 56.2216 0.0000 -5.9511 0.0000
# 2 8.9380 13.0230 18.0550 0.0000 5.8801 0.0000
# 3 56.2216 18.0550 149.0894 0.0000 -7.3183 0.0000
# 4 0.0000 0.0000 0.0000 12.7030 0.0000 1.8200
# 5 -5.9511 5.8801 -7.3183 0.0000 36.4291 0.0000
# 6 0.0000 0.0000 0.0000 1.8200 0.0000 24.4107
#
#
#
# Elastic Compliance Matrix: (Units=1/GPa)
#
#
# Indices 1 2 3 4 5 6 
#
# 1 0.008753 -0.002496 -0.002937 0.000000 0.001243 0.000000
# 2 -0.002496 0.105236 -0.012783 0.000000 -0.019962 0.000000
# 3 -0.002937 -0.012783 0.009535 0.000000 0.003499 0.000000
# 4 0.000000 0.000000 0.000000 0.079572 0.000000 -0.005933
# 5 0.001243 -0.019962 0.003499 0.000000 0.031579 0.000000
# 6 0.000000 0.000000 0.000000 -0.005933 0.000000 0.041408
#
#
# Mechanical properties :
#
#
# Convention : Reuss Voigt Hill
#
# Bulk Modulus (GPa) = 11.48226 51.67253 31.57740
# Shear Modulus (GPa) = 14.63938 29.06913 21.85426
#
# Velocity S-wave (km/s) = 2.49132 3.51062 3.04394
# Velocity P-wave (km/s) = 3.62542 6.19195 5.07365
#
# Compressibility (1/GPa) = 0.08709083
#
# Stress axis : x y z
#
# Youngs Moduli (GPa) = 114.24959 9.50248 104.87805
#
# Poissons Ratio (x) = 0.02372 0.30807
# Poissons Ratio (y) = 0.28515 1.34065
# Poissons Ratio (z) = 0.33560 0.12147
#
# Static dielectric constant tensor:
#      x y z
#    x 1.983240 0.000000 0.002590 
#    y 0.000000 2.042530 0.000000 
#    z 0.002590 0.000000 1.872780 
# 
# From -- ./inp_files/265350.got.cif
#   From: 2010.05.17/outbox.cif.g08.bks.cpg/sg15_133_cif.got.tgz:265350.got - 2010.06.03 18:47:42.
