data_PCOD9282870
_publ_section_title
;
Structure prediction by ZEFSAII (Michael W. Deem and Ramdas Pophale) SiO2 
 PCOD9282870
Probable space group: C 2/C
;
_chemical_formula_sum "Si O2"
_cell_formula_units_Z 48
_cell_length_a 12.997964
_cell_length_b 27.267755
_cell_length_c 8.029171
_cell_angle_alpha 90.000000
_cell_angle_beta 134.153861
_cell_angle_gamma 90.000000
_cell_volume 2041.739111
_symmetry_space_group_name_H-M "C 2/C"
_symmetry_group_IT_number 15
_symmetry_cell_setting 'monoclinic'
loop_
_space_group_symop_operation_xyz
x,y,z
-x,y,1/2-z
-x,-y,-z
x,-y,1/2+z
1/2+x,1/2+y,z
1/2-x,1/2+y,1/2-z
1/2-x,1/2-y,-z
1/2+x,1/2-y,1/2+z
loop_
_atom_site_type_symbol
_atom_site_label
_atom_site_fract_x
_atom_site_fract_y
_atom_site_fract_z
Si Si1 0.306473 0.469172 0.413046
Si Si2 0.139002 0.268466 0.615186
Si Si3 0.134328 0.398863 0.024821
Si Si4 0.155315 0.693521 0.759375
Si Si5 0.158233 0.841272 0.481097
Si Si6 0.880939 0.066165 0.350506
O O1 0.328117 0.527459 0.430091
O O2 0.453420 0.446440 0.502093
O O3 0.297889 0.448134 0.588677
O O4 0.178032 0.450147 0.154657
O O5 0.160106 0.296922 0.461736
O O6 0.197647 0.214118 0.650854
O O7 0.232628 0.297857 0.853047
O O8 0.970486 0.271638 0.454899
O O9 0.265351 0.375034 0.070478
O O10 0.000000 0.400852 0.750000
O O11 0.113665 0.360274 0.152747
O O12 0.139207 0.878519 0.615241
O O13 0.000000 0.825053 0.250000
#
# Coordination Sequence:
#
# PCOD9282870 Si02
#       6
#     8   8   8   8   8   8
#     4  10  21  39  65  92 125 164 210 260 311 366
#     4  10  23  43  65  92 126 166 212 258 312 375
#     4  12  24  42  62  93 133 166 207 258 318 373
#     4  10  23  43  66  91 126 167 210 259 313 373
#     4  12  24  40  62  94 128 168 213 255 312 376
#     4  10  21  39  65  93 123 163 213 261 305 367
#
# _framework density 23.509371000000002
#
# number of rings (size 3 to 8) (size 9 to 14) (size 15 to 20)
#    0.000    1.333    3.333    2.000    4.667    1.333 
#    0.000    3.333    0.000    0.000    0.000    0.000 
#    0.000    0.000    0.000    0.000    0.000    0.000 
#
# Total GULP energy -134332.573540 kJ/mol
# GULP energy per Si atom -5597.190564 kJ/mol
# Density = 2.345586 g / cm^3
# Si number density = 23.509371 Si / 1000 Ang^3
#
#
#
# Elastic Constant Matrix: (Units=GPa)
#
#
# Indices 1 2 3 4 5 6 
#
# 1 35.8215 -8.0900 5.1954 0.0000 -1.0558 0.0000
# 2 -8.0900 57.9991 19.8802 0.0000 -11.4479 0.0000
# 3 5.1954 19.8802 125.0707 0.0000 -3.3785 0.0000
# 4 0.0000 0.0000 0.0000 38.1416 0.0000 -4.1562
# 5 -1.0558 -11.4479 -3.3785 0.0000 34.9031 0.0000
# 6 0.0000 0.0000 0.0000 -4.1562 0.0000 27.6183
#
#
#
# Elastic Compliance Matrix: (Units=1/GPa)
#
#
# Indices 1 2 3 4 5 6 
#
# 1 0.029468 0.005274 -0.001997 0.000000 0.002428 0.000000
# 2 0.005274 0.020392 -0.003284 0.000000 0.006530 0.000000
# 3 -0.001997 -0.003284 0.008592 0.000000 -0.000306 0.000000
# 4 0.000000 0.000000 0.000000 0.026655 0.000000 0.004011
# 5 0.002428 0.006530 -0.000306 0.000000 0.030836 0.000000
# 6 0.000000 0.000000 0.000000 0.004011 0.000000 0.036811
#
#
# Mechanical properties :
#
#
# Convention : Reuss Voigt Hill
#
# Bulk Modulus (GPa) = 17.11189 28.09585 22.60387
# Shear Modulus (GPa) = 29.02779 33.59298 31.31039
#
# Velocity S-wave (km/s) = 3.51769 3.78420 3.65338
# Velocity P-wave (km/s) = 4.87785 5.57409 5.23755
#
# Compressibility (1/GPa) = 0.05843889
#
# Stress axis : x y z
#
# Youngs Moduli (GPa) = 33.93458 49.03922 116.38504
#
# Poissons Ratio (x) = -0.25864 0.23240
# Poissons Ratio (y) = -0.17897 0.38221
# Poissons Ratio (z) = 0.06776 0.16105
#
# Static dielectric constant tensor:
#      x y z
#    x 1.915420 0.000000 -0.024470 
#    y 0.000000 1.861870 0.000000 
#    z -0.024470 0.000000 1.864980 
# 
# From -- ./inp_files/33420.got.cif
#   From: 2010.05.17/outbox.cif.g08.bks.cpg/sg15_17_cif.got.tgz:33420.got - 2010.06.03 18:47:42.
