data_PCOD9282818
_publ_section_title
;
Structure prediction by ZEFSAII (Michael W. Deem and Ramdas Pophale) SiO2 
 PCOD9282818
Probable space group: C 2/C
;
_chemical_formula_sum "Si O2"
_cell_formula_units_Z 52
_cell_length_a 17.907465
_cell_length_b 21.611254
_cell_length_c 7.647696
_cell_angle_alpha 90.000000
_cell_angle_beta 136.067032
_cell_angle_gamma 90.000000
_cell_volume 2053.473985
_symmetry_space_group_name_H-M "C 2/C"
_symmetry_group_IT_number 15
_symmetry_cell_setting 'monoclinic'
loop_
_space_group_symop_operation_xyz
x,y,z
-x,y,1/2-z
-x,-y,-z
x,-y,1/2+z
1/2+x,1/2+y,z
1/2-x,1/2+y,1/2-z
1/2-x,1/2-y,-z
1/2+x,1/2-y,1/2+z
loop_
_atom_site_type_symbol
_atom_site_label
_atom_site_fract_x
_atom_site_fract_y
_atom_site_fract_z
Si Si1 0.120193 0.708534 0.161505
Si Si2 0.475536 0.430520 0.414420
Si Si3 0.622579 0.994308 0.281874
Si Si4 0.467787 0.304554 0.986225
Si Si5 0.000000 0.608321 0.750000
Si Si6 0.798487 0.718958 0.809425
Si Si7 0.247488 0.417995 0.224247
O O1 0.148673 0.703638 0.412413
O O2 0.226575 0.720159 0.230107
O O3 0.068519 0.776535 0.055502
O O4 0.043639 0.654119 0.971899
O O5 0.500000 0.428039 0.250000
O O6 0.500000 0.500000 0.500000
O O7 0.550123 0.373961 0.606693
O O8 0.357552 0.418677 0.298063
O O9 0.599770 0.936080 0.370879
O O10 0.720601 0.970566 0.324801
O O11 0.656554 0.057953 0.431815
O O12 0.500000 0.000000 0.000000
O O13 0.500000 0.305142 0.250000
O O14 0.381334 0.250610 0.817562
O O15 0.762934 0.649547 0.704558
#
# Coordination Sequence:
#
# PCOD9282818 Si02
#       7
#     8   8   8   8   4   8   8
#     4  10  21  39  64  99 131 181 225 294 352 421
#     4  11  24  44  68  99 139 180 233 293 349 429
#     4  12  25  44  67 105 144 190 234 292 360 436
#     4   9  19  40  64  96 129 171 235 282 344 422
#     4  12  24  42  66 104 148 176 238 300 362 414
#     4  10  21  39  72  96 132 185 238 286 356 429
#     4  12  24  44  71 100 143 189 240 288 366 428
#
# _framework density 25.322941
#
# number of rings (size 3 to 8) (size 9 to 14) (size 15 to 20)
#    0.000    1.231    3.077    2.769    2.154    3.692 
#    1.385    3.077    0.000    0.000    0.000    0.000 
#    0.000    0.000    0.000    0.000    0.000    0.000 
#
# Total GULP energy -144967.064289 kJ/mol
# GULP energy per Si atom -5575.656319 kJ/mol
# Density = 2.526531 g / cm^3
# Si number density = 25.322941 Si / 1000 Ang^3
#
#
#
# Elastic Constant Matrix: (Units=GPa)
#
#
# Indices 1 2 3 4 5 6 
#
# 1 101.8598 28.1133 8.6451 0.0000 10.9763 0.0000
# 2 28.1133 181.0252 23.2104 0.0000 15.4845 0.0000
# 3 8.6451 23.2104 43.5865 0.0000 1.1182 0.0000
# 4 0.0000 0.0000 0.0000 16.7350 0.0000 4.1374
# 5 10.9763 15.4845 1.1182 0.0000 23.4155 0.0000
# 6 0.0000 0.0000 0.0000 4.1374 0.0000 89.2745
#
#
#
# Elastic Compliance Matrix: (Units=1/GPa)
#
#
# Indices 1 2 3 4 5 6 
#
# 1 0.010700 -0.001120 -0.001418 0.000000 -0.004207 0.000000
# 2 -0.001120 0.006399 -0.003094 0.000000 -0.003559 0.000000
# 3 -0.001418 -0.003094 0.024833 0.000000 0.001525 0.000000
# 4 0.000000 0.000000 0.000000 0.060448 0.000000 -0.002801
# 5 -0.004207 -0.003559 0.001525 0.000000 0.046960 0.000000
# 6 0.000000 0.000000 0.000000 -0.002801 0.000000 0.011331
#
#
# Mechanical properties :
#
#
# Convention : Reuss Voigt Hill
#
# Bulk Modulus (GPa) = 32.60748 49.60101 41.10425
# Shear Modulus (GPa) = 27.44873 43.65184 35.55028
#
# Velocity S-wave (km/s) = 3.29591 4.15638 3.75090
# Velocity P-wave (km/s) = 5.23341 6.53176 5.91830
#
# Compressibility (1/GPa) = 0.03066781
#
# Stress axis : x y z
#
# Youngs Moduli (GPa) = 93.45541 156.26978 40.26943
#
# Poissons Ratio (x) = 0.17503 0.05710
# Poissons Ratio (y) = 0.10468 0.12460
# Poissons Ratio (z) = 0.13251 0.48353
#
# Static dielectric constant tensor:
#      x y z
#    x 1.859160 0.000000 0.012210 
#    y 0.000000 2.015500 0.000000 
#    z 0.012210 0.000000 2.119500 
# 
# From -- ./inp_files/50721.got.cif
#   From: 2010.05.17/outbox.cif.g08.bks.cpg/sg15_26_cif.got.tgz:50721.got - 2010.06.03 18:47:42.
