data_PCOD9282134
_publ_section_title
;
Structure prediction by ZEFSAII (Michael W. Deem and Ramdas Pophale) SiO2 
 PCOD9282134
Probable space group: C 2/C
;
_chemical_formula_sum "Si O2"
_cell_formula_units_Z 48
_cell_length_a 23.115815
_cell_length_b 9.161948
_cell_length_c 26.172915
_cell_angle_alpha 90.000000
_cell_angle_beta 160.541512
_cell_angle_gamma 90.000000
_cell_volume 1846.523333
_symmetry_space_group_name_H-M "C 2/C"
_symmetry_group_IT_number 15
_symmetry_cell_setting 'monoclinic'
loop_
_space_group_symop_operation_xyz
x,y,z
-x,y,1/2-z
-x,-y,-z
x,-y,1/2+z
1/2+x,1/2+y,z
1/2-x,1/2+y,1/2-z
1/2-x,1/2-y,-z
1/2+x,1/2-y,1/2+z
loop_
_atom_site_type_symbol
_atom_site_label
_atom_site_fract_x
_atom_site_fract_y
_atom_site_fract_z
Si Si1 0.672853 0.592220 0.869727
Si Si2 0.360888 0.502949 0.931390
Si Si3 0.990060 0.602849 0.409660
Si Si4 0.396320 0.866184 0.111617
Si Si5 0.474817 0.394679 0.842322
Si Si6 0.378215 0.826606 0.920047
O O1 0.500000 0.666969 0.750000
O O2 0.588437 0.466357 0.763473
O O3 0.796123 0.512383 0.013433
O O4 0.829519 0.654131 0.965243
O O5 0.182092 0.420947 0.767614
O O6 0.346784 0.679746 0.923843
O O7 0.500000 0.500000 0.000000
O O8 0.404394 0.487259 0.028104
O O9 0.954128 0.706260 0.427794
O O10 0.016267 0.445811 0.459956
O O11 0.500000 0.885730 0.250000
O O12 0.485991 0.774248 0.140337
O O13 0.250000 0.750000 0.000000
O O14 0.311051 0.395017 0.744299
#
# Coordination Sequence:
#
# PCOD9282134 Si02
#       6
#     8   8   8   8   8   8
#     4  11  22  36  54  81 123 164 205 246 304 372
#     4  12  23  37  62  93 121 162 209 258 313 375
#     4  10  23  38  57  86 121 163 203 250 313 368
#     4  12  21  33  53  85 121 165 201 247 314 382
#     4  11  20  36  54  83 126 158 196 248 309 374
#     4  10  21  39  57  82 124 160 199 254 313 369
#
# _framework density 25.994797999999999
#
# number of rings (size 3 to 8) (size 9 to 14) (size 15 to 20)
#    0.000    1.000    5.000    4.000    2.333    0.000 
#    0.000    0.000    0.000    0.000    0.000    4.667 
#    0.000    1.333    0.000    0.167    0.000    0.167 
#
# Total GULP energy -133790.928103 kJ/mol
# GULP energy per Si atom -5574.622004 kJ/mol
# Density = 2.593563 g / cm^3
# Si number density = 25.994798 Si / 1000 Ang^3
#
#
#
# Elastic Constant Matrix: (Units=GPa)
#
#
# Indices 1 2 3 4 5 6 
#
# 1 143.0665 3.2421 75.0766 0.0014 13.8930 -0.0021
# 2 3.2421 43.2024 11.1655 0.0279 -11.0537 -0.0010
# 3 75.0766 11.1655 160.9574 0.0447 -9.0519 0.0050
# 4 0.0014 0.0279 0.0447 7.5636 0.0030 -1.9016
# 5 13.8930 -11.0537 -9.0519 0.0030 66.0091 -0.0003
# 6 -0.0021 -0.0010 0.0050 -1.9016 -0.0003 26.5290
#
#
#
# Elastic Compliance Matrix: (Units=1/GPa)
#
#
# Indices 1 2 3 4 5 6 
#
# 1 0.009707 -0.000218 -0.004666 0.000029 -0.002719 0.000004
# 2 -0.000218 0.024534 -0.001377 -0.000085 0.003966 -0.000005
# 3 -0.004666 -0.001377 0.008593 -0.000047 0.001930 -0.000005
# 4 0.000029 -0.000085 -0.000047 0.134640 -0.000033 0.009651
# 5 -0.002719 0.003966 0.001930 -0.000033 0.016650 -0.000003
# 6 0.000004 -0.000005 -0.000005 0.009651 -0.000003 0.038386
#
#
# Mechanical properties :
#
#
# Convention : Reuss Voigt Hill
#
# Bulk Modulus (GPa) = 32.99020 58.46608 45.72814
# Shear Modulus (GPa) = 19.59732 37.20313 28.40022
#
# Velocity S-wave (km/s) = 2.74869 3.78719 3.30894
# Velocity P-wave (km/s) = 4.77414 6.45477 5.67699
#
# Compressibility (1/GPa) = 0.03031203
#
# Stress axis : x y z
#
# Youngs Moduli (GPa) = 103.01718 40.76007 116.37279
#
# Poissons Ratio (x) = 0.00891 0.54294
# Poissons Ratio (y) = 0.02251 0.16024
# Poissons Ratio (z) = 0.48063 0.05612
#
# Static dielectric constant tensor:
#      x y z
#    x 2.013960 -0.000120 -0.452330 
#    y -0.000120 2.015230 -0.000580 
#    z -0.452330 -0.000580 0.020040 
# 
# From -- ./inp_files/302229.got.cif
#   From: 2010.05.17/outbox.cif.g08.bks.cpg/sg15_152_cif.got.tgz:302229.got - 2010.06.03 18:47:42.
