data_PCOD9282004
_publ_section_title
;
Structure prediction by ZEFSAII (Michael W. Deem and Ramdas Pophale) SiO2 
 PCOD9282004
Probable space group: C 2/C
;
_chemical_formula_sum "Si O2"
_cell_formula_units_Z 40
_cell_length_a 8.217393
_cell_length_b 25.037814
_cell_length_c 8.892543
_cell_angle_alpha 90.000000
_cell_angle_beta 87.325292
_cell_angle_gamma 90.000000
_cell_volume 1827.607998
_symmetry_space_group_name_H-M "C 2/C"
_symmetry_group_IT_number 15
_symmetry_cell_setting 'monoclinic'
loop_
_space_group_symop_operation_xyz
x,y,z
-x,y,1/2-z
-x,-y,-z
x,-y,1/2+z
1/2+x,1/2+y,z
1/2-x,1/2+y,1/2-z
1/2-x,1/2-y,-z
1/2+x,1/2-y,1/2+z
loop_
_atom_site_type_symbol
_atom_site_label
_atom_site_fract_x
_atom_site_fract_y
_atom_site_fract_z
Si Si1 0.811337 0.195032 0.076140
Si Si2 0.709230 0.076801 0.036285
Si Si3 0.888092 0.397483 0.403415
Si Si4 0.299469 0.304722 0.922985
Si Si5 0.301080 0.006562 0.744326
O O1 0.747992 0.193669 0.250630
O O2 0.005986 0.193490 0.075568
O O3 0.750000 0.250000 0.000000
O O4 0.764044 0.137577 0.007275
O O5 0.514275 0.081108 0.022195
O O6 0.754688 0.032368 0.909221
O O7 0.759003 0.050193 0.192325
O O8 0.788707 0.349740 0.476777
O O9 0.767663 0.444714 0.360541
O O10 0.000000 0.383403 0.250000
O O11 0.250000 0.250000 0.000000
O O12 0.500000 0.004550 0.750000
#
# Coordination Sequence:
#
# PCOD9282004 Si02
#       5
#     8   8   8   8   8
#     4  11  27  46  66 102 131 174 226 270 343 395
#     4  10  21  38  67  94 135 168 226 269 319 399
#     4   9  20  39  66  98 132 169 218 274 323 384
#     4  11  26  44  71  91 136 174 221 279 331 400
#     4   9  19  35  62  97 130 167 219 267 317 384
#
# _framework density 21.886533
#
# number of rings (size 3 to 8) (size 9 to 14) (size 15 to 20)
#    0.000    2.400    0.000    3.600   14.000    2.400 
#    0.000    1.000    0.000    0.000    0.000    0.000 
#    0.000    0.000    0.000    0.000    0.000    0.000 
#
# Total GULP energy -111530.974968 kJ/mol
# GULP energy per Si atom -5576.548748 kJ/mol
# Density = 2.183672 g / cm^3
# Si number density = 21.886533 Si / 1000 Ang^3
#
#
#
# Elastic Constant Matrix: (Units=GPa)
#
#
# Indices 1 2 3 4 5 6 
#
# 1 21.2003 21.1180 30.6622 0.0000 1.4899 0.0000
# 2 21.1180 173.9145 89.0167 0.0000 -8.3706 0.0000
# 3 30.6622 89.0167 102.8405 0.0000 -2.5048 0.0000
# 4 0.0000 0.0000 0.0000 48.3581 0.0000 -0.2935
# 5 1.4899 -8.3706 -2.5048 0.0000 21.3011 0.0000
# 6 0.0000 0.0000 0.0000 -0.2935 0.0000 19.2085
#
#
#
# Elastic Compliance Matrix: (Units=1/GPa)
#
#
# Indices 1 2 3 4 5 6 
#
# 1 0.086330 0.004332 -0.029680 0.000000 -0.007826 0.000000
# 2 0.004332 0.010738 -0.010521 0.000000 0.002679 0.000000
# 3 -0.029680 -0.010521 0.027709 0.000000 0.001200 0.000000
# 4 0.000000 0.000000 0.000000 0.020681 0.000000 0.000316
# 5 -0.007826 0.002679 0.001200 0.000000 0.048687 0.000000
# 6 0.000000 0.000000 0.000000 0.000316 0.000000 0.052065
#
#
# Mechanical properties :
#
#
# Convention : Reuss Voigt Hill
#
# Bulk Modulus (GPa) = 18.85389 64.39434 41.62412
# Shear Modulus (GPa) = 14.89745 28.25078 21.57412
#
# Velocity S-wave (km/s) = 2.61179 3.59665 3.14303
# Velocity P-wave (km/s) = 4.21050 6.83620 5.67723
#
# Compressibility (1/GPa) = 0.05303945
#
# Stress axis : x y z
#
# Youngs Moduli (GPa) = 11.58341 93.12807 36.08966
#
# Poissons Ratio (x) = -0.40342 1.07114
# Poissons Ratio (y) = -0.05018 0.37969
# Poissons Ratio (z) = 0.34379 0.97978
#
# Static dielectric constant tensor:
#      x y z
#    x 1.599560 0.000000 -0.077930 
#    y 0.000000 1.817750 0.000000 
#    z -0.077930 0.000000 1.879020 
# 
# From -- ./inp_files/24437.got.cif
#   From: 2010.05.17/outbox.cif.g08.bks.cpg/sg15_13_cif.got.tgz:24437.got - 2010.06.03 18:47:42.
