data_PCOD9282454
_publ_section_title
;
Structure prediction by ZEFSAII (Michael W. Deem and Ramdas Pophale) SiO2 
 PCOD9282454
Probable space group: C 2/C
;
_chemical_formula_sum "Si O2"
_cell_formula_units_Z 40
_cell_length_a 18.624073
_cell_length_b 11.543323
_cell_length_c 16.578818
_cell_angle_alpha 90.000000
_cell_angle_beta 35.887735
_cell_angle_gamma 90.000000
_cell_volume 2089.315892
_symmetry_space_group_name_H-M "C 2/C"
_symmetry_group_IT_number 15
_symmetry_cell_setting 'monoclinic'
loop_
_space_group_symop_operation_xyz
x,y,z
-x,y,1/2-z
-x,-y,-z
x,-y,1/2+z
1/2+x,1/2+y,z
1/2-x,1/2+y,1/2-z
1/2-x,1/2-y,-z
1/2+x,1/2-y,1/2+z
loop_
_atom_site_type_symbol
_atom_site_label
_atom_site_fract_x
_atom_site_fract_y
_atom_site_fract_z
Si Si1 0.029401 0.146972 0.892955
Si Si2 0.500000 0.001072 0.250000
Si Si3 0.266260 0.381182 0.014555
Si Si4 0.500000 0.531048 0.750000
Si Si5 0.188076 0.015608 0.856565
Si Si6 0.546498 0.085510 0.386898
O O1 0.021555 0.280008 0.924469
O O2 0.013193 0.114715 0.814613
O O3 0.156911 0.092555 0.807655
O O4 0.920586 0.076113 0.033933
O O5 0.630034 0.934224 0.130240
O O6 0.500995 0.063457 0.336477
O O7 0.303740 0.398470 0.074133
O O8 0.250000 0.250000 0.000000
O O9 0.377478 0.450702 0.868911
O O10 0.310030 0.941878 0.743778
O O11 0.500000 0.000000 0.500000
#
# Coordination Sequence:
#
# PCOD9282454 Si02
#       6
#     8   4   8   4   8   8
#     4  10  22  42  63  88 128 158 209 262 305 384
#     4  10  24  42  56  96 126 149 219 254 300 382
#     4  10  21  39  62  90 126 163 204 257 310 370
#     4  10  22  38  66  92 118 179 205 250 334 358
#     4   9  23  41  59  94 123 158 209 254 310 373
#     4  11  25  40  66  93 120 170 207 257 323 369
#
# _framework density 19.145022000000001
#
# number of rings (size 3 to 8) (size 9 to 14) (size 15 to 20)
#    0.000    2.000    0.000    1.200    8.400    0.000 
#    7.200    6.000    0.000    0.000    0.000    0.000 
#    0.000    0.000    0.000    0.000    0.000    0.000 
#
# Total GULP energy -111427.035153 kJ/mol
# GULP energy per Si atom -5571.351758 kJ/mol
# Density = 1.910145 g / cm^3
# Si number density = 19.145022 Si / 1000 Ang^3
#
#
#
# Elastic Constant Matrix: (Units=GPa)
#
#
# Indices 1 2 3 4 5 6 
#
# 1 99.9196 77.8152 28.8188 0.0000 -1.1673 0.0000
# 2 77.8152 150.8194 39.0066 0.0000 13.8819 0.0000
# 3 28.8188 39.0066 68.8167 0.0000 0.3195 0.0000
# 4 0.0000 0.0000 0.0000 9.5542 0.0000 -5.4200
# 5 -1.1673 13.8819 0.3195 0.0000 27.6445 0.0000
# 6 0.0000 0.0000 0.0000 -5.4200 0.0000 2.9466
#
#
#
# Elastic Compliance Matrix: (Units=1/GPa)
#
#
# Indices 1 2 3 4 5 6 
#
# 1 0.017815 -0.009078 -0.002340 0.000000 0.005338 0.000000
# 2 -0.009078 0.012828 -0.003438 0.000000 -0.006785 0.000000
# 3 -0.002340 -0.003438 0.017453 0.000000 0.001426 0.000000
# 4 0.000000 0.000000 0.000000 -2.407967 0.000000 -4.429178
# 5 0.005338 -0.006785 0.001426 0.000000 0.039790 0.000000
# 6 0.000000 0.000000 0.000000 -4.429178 0.000000 -7.807591
#
#
# Mechanical properties :
#
#
# Convention : Reuss Voigt Hill
#
# Bulk Modulus (GPa) = 54.39241 67.87074 61.13157
# Shear Modulus (GPa) = -0.49545 19.62341 9.56398
#
# Velocity S-wave (km/s) = -0.50926 3.20502 2.23750
# Velocity P-wave (km/s) = 5.30345 7.01598 6.21895
#
# Compressibility (1/GPa) = 0.01838492
#
# Stress axis : x y z
#
# Youngs Moduli (GPa) = 56.13337 77.95596 57.29570
#
# Poissons Ratio (x) = 0.70766 0.13406
# Poissons Ratio (y) = 0.50956 0.19698
# Poissons Ratio (z) = 0.13134 0.26801
#
# Static dielectric constant tensor:
#      x y z
#    x 1.734250 0.000000 0.058100 
#    y 0.000000 1.642150 0.000000 
#    z 0.058100 0.000000 1.778600 
# 
# From -- ./inp_files/103221.got.cif
#   From: 2010.05.17/outbox.cif.g08.bks.cpg/sg15_52_cif.got.tgz:103221.got - 2010.06.03 18:47:42.
