data_PCOD9282245
_publ_section_title
;
Structure prediction by ZEFSAII (Michael W. Deem and Ramdas Pophale) SiO2 
 PCOD9282245
Probable space group: C 2/C
;
_chemical_formula_sum "Si O2"
_cell_formula_units_Z 52
_cell_length_a 23.556423
_cell_length_b 6.481351
_cell_length_c 19.963348
_cell_angle_alpha 90.000000
_cell_angle_beta 129.068384
_cell_angle_gamma 90.000000
_cell_volume 2366.413315
_symmetry_space_group_name_H-M "C 2/C"
_symmetry_group_IT_number 15
_symmetry_cell_setting 'monoclinic'
loop_
_space_group_symop_operation_xyz
x,y,z
-x,y,1/2-z
-x,-y,-z
x,-y,1/2+z
1/2+x,1/2+y,z
1/2-x,1/2+y,1/2-z
1/2-x,1/2-y,-z
1/2+x,1/2-y,1/2+z
loop_
_atom_site_type_symbol
_atom_site_label
_atom_site_fract_x
_atom_site_fract_y
_atom_site_fract_z
Si Si1 0.555248 0.837022 0.097496
Si Si2 0.149220 0.275110 0.658100
Si Si3 0.873220 0.970032 0.744263
Si Si4 0.367660 0.395714 0.956477
Si Si5 0.908143 0.254922 0.066228
Si Si6 0.500000 0.634919 0.250000
Si Si7 0.721469 0.999676 0.598767
O O1 0.607946 0.715809 0.189892
O O2 0.570320 0.731995 0.036856
O O3 0.474172 0.809636 0.064595
O O4 0.580495 0.071658 0.111206
O O5 0.208984 0.420588 0.666653
O O6 0.151961 0.168415 0.731851
O O7 0.147412 0.084333 0.605282
O O8 0.804024 0.935871 0.644604
O O9 0.948531 0.996331 0.760551
O O10 0.301299 0.239080 0.918611
O O11 0.391307 0.513036 0.040880
O O12 0.944041 0.274043 0.165480
O O13 0.837749 0.387448 0.993153
#
# Coordination Sequence:
#
# PCOD9282245 Si02
#       7
#     8   8   8   8   8   4   8
#     4   9  19  36  60  91 124 165 202 249 318 376
#     4   9  20  34  62  93 125 156 198 256 318 378
#     4  10  22  39  61  89 129 167 210 254 306 376
#     4   9  19  35  57  91 125 152 196 257 321 373
#     4  10  21  39  60  86 122 164 214 260 305 367
#     4  10  24  46  62  80 120 180 222 260 300 356
#     4  10  22  35  61  95 125 158 199 262 329 372
#
# _framework density 21.974181999999999
#
# number of rings (size 3 to 8) (size 9 to 14) (size 15 to 20)
#    0.000    2.462    0.000    0.462    6.462   12.308 
#    0.000    7.692    0.000    0.000    0.000    0.000 
#    0.000    0.000    0.000    0.000    0.000    0.000 
#
# Total GULP energy -144978.331361 kJ/mol
# GULP energy per Si atom -5576.089668 kJ/mol
# Density = 2.192417 g / cm^3
# Si number density = 21.974182 Si / 1000 Ang^3
#
#
#
# Elastic Constant Matrix: (Units=GPa)
#
#
# Indices 1 2 3 4 5 6 
#
# 1 61.7906 20.6979 33.3678 0.0000 22.0640 0.0000
# 2 20.6979 105.1379 51.7424 -0.0001 19.3732 0.0002
# 3 33.3678 51.7424 106.1525 0.0000 13.9755 0.0001
# 4 0.0000 -0.0001 0.0000 8.1102 0.0000 1.0591
# 5 22.0640 19.3732 13.9755 0.0000 34.4691 0.0000
# 6 0.0000 0.0002 0.0001 1.0591 0.0000 10.8325
#
#
#
# Elastic Compliance Matrix: (Units=1/GPa)
#
#
# Indices 1 2 3 4 5 6 
#
# 1 0.024006 0.000758 -0.006165 0.000000 -0.013292 0.000000
# 2 0.000758 0.013343 -0.006012 0.000000 -0.005547 0.000000
# 3 -0.006165 -0.006012 0.014076 0.000000 0.001618 0.000000
# 4 0.000000 0.000000 0.000000 0.124896 0.000000 -0.012211
# 5 -0.013292 -0.005547 0.001618 0.000000 0.039981 0.000000
# 6 0.000000 0.000000 0.000000 -0.012211 0.000000 0.093508
#
#
# Mechanical properties :
#
#
# Convention : Reuss Voigt Hill
#
# Bulk Modulus (GPa) = 34.98269 53.85525 44.41897
# Shear Modulus (GPa) = 14.61233 21.83389 18.22311
#
# Velocity S-wave (km/s) = 2.58151 3.15559 2.88287
# Velocity P-wave (km/s) = 4.98398 6.15131 5.59815
#
# Compressibility (1/GPa) = 0.02858557
#
# Stress axis : x y z
#
# Youngs Moduli (GPa) = 41.65702 74.94673 71.04508
#
# Poissons Ratio (x) = -0.05678 0.43800
# Poissons Ratio (y) = -0.03156 0.42710
# Poissons Ratio (z) = 0.25682 0.45055
#
# Static dielectric constant tensor:
#      x y z
#    x 1.830860 0.000000 0.007280 
#    y 0.000000 1.811710 0.000000 
#    z 0.007280 0.000000 1.927090 
# 
# From -- ./inp_files/256724.got.cif
#   From: 2010.05.17/outbox.cif.g08.bks.cpg/sg15_129_cif.got.tgz:256724.got - 2010.06.03 18:47:42.
