data_PCOD9282950
_publ_section_title
;
Structure prediction by ZEFSAII (Michael W. Deem and Ramdas Pophale) SiO2 
 PCOD9282950
Probable space group: C 2/C
;
_chemical_formula_sum "Si O2"
_cell_formula_units_Z 48
_cell_length_a 5.121844
_cell_length_b 25.071530
_cell_length_c 16.857433
_cell_angle_alpha 90.000000
_cell_angle_beta 85.149278
_cell_angle_gamma 90.000000
_cell_volume 2156.951410
_symmetry_space_group_name_H-M "C 2/C"
_symmetry_group_IT_number 15
_symmetry_cell_setting 'monoclinic'
loop_
_space_group_symop_operation_xyz
x,y,z
-x,y,1/2-z
-x,-y,-z
x,-y,1/2+z
1/2+x,1/2+y,z
1/2-x,1/2+y,1/2-z
1/2-x,1/2-y,-z
1/2+x,1/2-y,1/2+z
loop_
_atom_site_type_symbol
_atom_site_label
_atom_site_fract_x
_atom_site_fract_y
_atom_site_fract_z
Si Si1 0.144622 0.080723 0.825672
Si Si2 0.247097 0.143950 0.303066
Si Si3 0.276180 0.961387 0.047130
Si Si4 0.132516 0.366961 0.051609
Si Si5 0.637029 0.027414 0.130322
Si Si6 0.160552 0.809474 0.978293
O O1 0.334721 0.126340 0.854508
O O2 0.000000 0.094992 0.750000
O O3 0.932249 0.073415 0.900962
O O4 0.272419 0.021935 0.817684
O O5 0.500000 0.165698 0.250000
O O6 0.327117 0.084117 0.329831
O O7 0.187823 0.177651 0.383979
O O8 0.000000 0.141656 0.250000
O O9 0.555434 0.928950 0.034357
O O10 0.350911 0.009806 0.104784
O O11 0.203381 0.969589 0.957365
O O12 0.376436 0.333113 0.011106
O O13 0.878019 0.341368 0.021110
O O14 0.250000 0.750000 0.000000
#
# Coordination Sequence:
#
# PCOD9282950 Si02
#       6
#     8   8   8   8   8   8
#     4  11  23  38  64 102 147 183 228 278 335 402
#     4  12  27  44  71 107 145 174 226 296 357 405
#     4  10  21  39  65  99 137 190 238 265 323 428
#     4  11  22  45  72 100 130 180 232 281 339 418
#     4  10  22  36  65  95 145 187 230 266 337 410
#     4  12  26  50  78  99 130 182 239 290 359 424
#
# _framework density 22.253630000000001
#
# number of rings (size 3 to 8) (size 9 to 14) (size 15 to 20)
#    0.000    1.000    3.333    2.500    4.667    3.333 
#    0.000    2.500    0.000    0.000    0.000    0.000 
#    0.000    0.000    0.000    0.000    0.000    0.000 
#
# Total GULP energy -133800.111864 kJ/mol
# GULP energy per Si atom -5575.004661 kJ/mol
# Density = 2.220298 g / cm^3
# Si number density = 22.253630 Si / 1000 Ang^3
#
#
#
# Elastic Constant Matrix: (Units=GPa)
#
#
# Indices 1 2 3 4 5 6 
#
# 1 112.7226 17.9700 26.8220 0.0000 15.8356 0.0000
# 2 17.9700 78.2445 45.8659 0.0000 6.1629 0.0000
# 3 26.8220 45.8659 112.6997 0.0000 31.3617 0.0000
# 4 0.0000 0.0000 0.0000 8.6914 0.0000 1.5982
# 5 15.8356 6.1629 31.3617 0.0000 48.2343 0.0000
# 6 0.0000 0.0000 0.0000 1.5982 0.0000 14.5782
#
#
#
# Elastic Compliance Matrix: (Units=1/GPa)
#
#
# Indices 1 2 3 4 5 6 
#
# 1 0.009676 -0.001399 -0.001098 0.000000 -0.002284 0.000000
# 2 -0.001399 0.017303 -0.007596 0.000000 0.003187 0.000000
# 3 -0.001098 -0.007596 0.014474 0.000000 -0.008080 0.000000
# 4 0.000000 0.000000 0.000000 0.117423 0.000000 -0.012873
# 5 -0.002284 0.003187 -0.008080 0.000000 0.026328 0.000000
# 6 0.000000 0.000000 0.000000 -0.012873 0.000000 0.070007
#
#
# Mechanical properties :
#
#
# Convention : Reuss Voigt Hill
#
# Bulk Modulus (GPa) = 47.01803 53.88694 50.45248
# Shear Modulus (GPa) = 17.69988 28.50139 23.10063
#
# Velocity S-wave (km/s) = 2.82329 3.58264 3.22539
# Velocity P-wave (km/s) = 5.63933 6.43282 6.04910
#
# Compressibility (1/GPa) = 0.02126844
#
# Stress axis : x y z
#
# Youngs Moduli (GPa) = 103.34321 57.79221 69.08758
#
# Poissons Ratio (x) = 0.08084 0.07586
# Poissons Ratio (y) = 0.14455 0.52479
# Poissons Ratio (z) = 0.11348 0.43899
#
# Static dielectric constant tensor:
#      x y z
#    x 1.973210 0.000000 0.049660 
#    y 0.000000 2.148240 0.000000 
#    z 0.049660 0.000000 1.979520 
# 
# From -- ./inp_files/130029.got.cif
#   From: 2010.05.17/outbox.cif.g08.bks.cpg/sg15_66_cif.got.tgz:130029.got - 2010.06.03 18:47:42.
