data_PCOD9282156
_publ_section_title
;
Structure prediction by ZEFSAII (Michael W. Deem and Ramdas Pophale) SiO2 
 PCOD9282156
Probable space group: C 2/C
;
_chemical_formula_sum "Si O2"
_cell_formula_units_Z 56
_cell_length_a 9.165586
_cell_length_b 26.381343
_cell_length_c 12.248004
_cell_angle_alpha 90.000000
_cell_angle_beta 57.022654
_cell_angle_gamma 90.000000
_cell_volume 2484.421754
_symmetry_space_group_name_H-M "C 2/C"
_symmetry_group_IT_number 15
_symmetry_cell_setting 'monoclinic'
loop_
_space_group_symop_operation_xyz
x,y,z
-x,y,1/2-z
-x,-y,-z
x,-y,1/2+z
1/2+x,1/2+y,z
1/2-x,1/2+y,1/2-z
1/2-x,1/2-y,-z
1/2+x,1/2-y,1/2+z
loop_
_atom_site_type_symbol
_atom_site_label
_atom_site_fract_x
_atom_site_fract_y
_atom_site_fract_z
Si Si1 0.648590 0.414411 0.278313
Si Si2 0.008331 0.943946 0.943698
Si Si3 0.341874 0.301268 0.731884
Si Si4 0.218682 0.596613 0.405181
Si Si5 0.854755 0.481121 0.719647
Si Si6 0.540464 0.840556 0.356550
Si Si7 0.410596 0.253383 0.022005
O O1 0.500000 0.418536 0.250000
O O2 0.555814 0.409142 0.432756
O O3 0.762149 0.466134 0.229978
O O4 0.777890 0.368361 0.209521
O O5 0.882723 0.932357 0.892925
O O6 0.207166 0.943603 0.828360
O O7 0.000000 0.000000 0.000000
O O8 0.500000 0.291174 0.750000
O O9 0.270690 0.356038 0.804315
O O10 0.449536 0.296918 0.572640
O O11 0.189783 0.259673 0.822871
O O12 0.094724 0.553304 0.403725
O O13 0.112506 0.621078 0.547624
O O14 0.000000 0.490176 0.750000
O O15 0.500000 0.824029 0.250000
O O16 0.525884 0.795521 0.447431
O O17 0.250000 0.250000 0.000000
#
# Coordination Sequence:
#
# PCOD9282156 Si02
#       7
#     8   8   8   8   8   8   8
#     4  11  24  41  61  85 124 167 211 262 315 378
#     4  10  21  39  58  84 122 162 208 256 313 367
#     4   9  17  32  56  86 126 157 197 254 317 373
#     4  11  22  38  62  89 127 165 209 259 311 381
#     4  11  24  39  60  88 121 166 217 259 311 374
#     4  11  21  37  62  94 123 158 206 260 316 377
#     4   9  18  33  56  93 129 152 198 259 322 374
#
# _framework density 22.540457
#
# number of rings (size 3 to 8) (size 9 to 14) (size 15 to 20)
#    0.000    1.714    1.429    4.714    4.000    0.571 
#    2.571    0.000    0.000    0.857    0.000    7.000 
#    0.000    0.000    0.000    0.000    0.000    0.000 
#
# Total GULP energy -156070.686921 kJ/mol
# GULP energy per Si atom -5573.953104 kJ/mol
# Density = 2.248915 g / cm^3
# Si number density = 22.540457 Si / 1000 Ang^3
#
#
#
# Elastic Constant Matrix: (Units=GPa)
#
#
# Indices 1 2 3 4 5 6 
#
# 1 99.3585 35.4742 -13.6844 0.0000 -8.2962 0.0000
# 2 35.4742 93.8688 32.0805 0.0000 -7.0997 0.0000
# 3 -13.6844 32.0805 56.3314 0.0000 -11.4307 0.0000
# 4 0.0000 0.0000 0.0000 146.3070 0.0000 -13.3854
# 5 -8.2962 -7.0997 -11.4307 0.0000 25.1578 0.0000
# 6 0.0000 0.0000 0.0000 -13.3854 0.0000 21.0102
#
#
#
# Elastic Compliance Matrix: (Units=1/GPa)
#
#
# Indices 1 2 3 4 5 6 
#
# 1 0.015100 -0.008587 0.009999 0.000000 0.007100 0.000000
# 2 -0.008587 0.018113 -0.013151 0.000000 -0.003695 0.000000
# 3 0.009999 -0.013151 0.030389 0.000000 0.013393 0.000000
# 4 0.000000 0.000000 0.000000 0.007258 0.000000 0.004624
# 5 0.007100 -0.003695 0.013393 0.000000 0.047133 0.000000
# 6 0.000000 0.000000 0.000000 0.004624 0.000000 0.050542
#
#
# Mechanical properties :
#
#
# Convention : Reuss Voigt Hill
#
# Bulk Modulus (GPa) = 24.92278 39.69993 32.31135
# Shear Modulus (GPa) = 24.34418 51.54089 37.94253
#
# Velocity S-wave (km/s) = 3.28993 4.78702 4.10726
# Velocity P-wave (km/s) = 5.05099 6.94299 6.07114
#
# Compressibility (1/GPa) = 0.04012393
#
# Stress axis : x y z
#
# Youngs Moduli (GPa) = 66.22376 55.20783 32.90712
#
# Poissons Ratio (x) = 0.47407 -0.32904
# Poissons Ratio (y) = 0.56866 0.43277
# Poissons Ratio (z) = -0.66218 0.72606
#
# Static dielectric constant tensor:
#      x y z
#    x 1.335370 0.000000 -0.502430 
#    y 0.000000 2.019920 0.000000 
#    z -0.502430 0.000000 1.404910 
# 
# From -- ./inp_files/139457.got.cif
#   From: 2010.05.17/outbox.cif.g08.bks.cpg/sg15_70_cif.got.tgz:139457.got - 2010.06.03 18:47:42.
