data_PCOD9282358
_publ_section_title
;
Structure prediction by ZEFSAII (Michael W. Deem and Ramdas Pophale) SiO2 
 PCOD9282358
Probable space group: C 2/C
;
_chemical_formula_sum "Si O2"
_cell_formula_units_Z 32
_cell_length_a 6.784053
_cell_length_b 27.132091
_cell_length_c 6.928547
_cell_angle_alpha 90.000000
_cell_angle_beta 107.972559
_cell_angle_gamma 90.000000
_cell_volume 1213.077418
_symmetry_space_group_name_H-M "C 2/C"
_symmetry_group_IT_number 15
_symmetry_cell_setting 'monoclinic'
loop_
_space_group_symop_operation_xyz
x,y,z
-x,y,1/2-z
-x,-y,-z
x,-y,1/2+z
1/2+x,1/2+y,z
1/2-x,1/2+y,1/2-z
1/2-x,1/2-y,-z
1/2+x,1/2-y,1/2+z
loop_
_atom_site_type_symbol
_atom_site_label
_atom_site_fract_x
_atom_site_fract_y
_atom_site_fract_z
Si Si1 0.334268 0.531105 0.069200
Si Si2 0.926225 0.564623 0.000797
Si Si3 0.474605 0.258567 0.477198
Si Si4 0.307918 0.166953 0.044592
O O1 0.500000 0.560126 0.250000
O O2 0.147688 0.567267 0.959162
O O3 0.500000 0.500000 0.000000
O O4 0.200208 0.483580 0.102713
O O5 0.000000 0.558450 0.250000
O O6 0.786252 0.613177 0.947520
O O7 0.500000 0.259305 0.250000
O O8 0.250000 0.250000 0.500000
O O9 0.602523 0.209108 0.568842
O O10 0.602241 0.307980 0.570785
O O11 0.500000 0.159803 0.250000
#
# Coordination Sequence:
#
# PCOD9282358 Si02
#       4
#     8   8   8   8
#     4  11  22  38  59  87 123 168 209 266 319 374
#     4  10  21  39  61  90 125 166 220 260 320 390
#     4  10  22  42  65  94 133 172 214 272 333 397
#     4   9  21  39  62  93 125 169 216 266 326 394
#
# _framework density 26.379192
#
# number of rings (size 3 to 8) (size 9 to 14) (size 15 to 20)
#    0.000    2.000    2.500    0.000    0.000   12.000 
#    0.000    2.500    0.000    0.000    0.000    0.000 
#    0.000    0.000    0.000    0.000    0.000    0.000 
#
# Total GULP energy -89076.108100 kJ/mol
# GULP energy per Si atom -5567.256756 kJ/mol
# Density = 2.631915 g / cm^3
# Si number density = 26.379192 Si / 1000 Ang^3
#
#
#
# Elastic Constant Matrix: (Units=GPa)
#
#
# Indices 1 2 3 4 5 6 
#
# 1 262.5983 62.5014 31.5444 0.0000 -13.0061 0.0000
# 2 62.5014 166.5865 5.2230 0.0000 3.5691 0.0000
# 3 31.5444 5.2230 82.4543 0.0000 -7.5189 0.0000
# 4 0.0000 0.0000 0.0000 11.6293 0.0000 11.1235
# 5 -13.0061 3.5691 -7.5189 0.0000 43.1170 0.0000
# 6 0.0000 0.0000 0.0000 11.1235 0.0000 36.3963
#
#
#
# Elastic Compliance Matrix: (Units=1/GPa)
#
#
# Indices 1 2 3 4 5 6 
#
# 1 0.004438 -0.001645 -0.001483 0.000000 0.001216 0.000000
# 2 -0.001645 0.006638 0.000115 0.000000 -0.001026 0.000000
# 3 -0.001483 0.000115 0.012851 0.000000 0.001784 0.000000
# 4 0.000000 0.000000 0.000000 0.121511 0.000000 -0.037136
# 5 0.001216 -0.001026 0.001784 0.000000 0.023956 0.000000
# 6 0.000000 0.000000 0.000000 -0.037136 0.000000 0.038825
#
#
# Mechanical properties :
#
#
# Convention : Reuss Voigt Hill
#
# Bulk Modulus (GPa) = 55.85835 78.90850 67.38343
# Shear Modulus (GPa) = 22.70560 45.71987 34.21273
#
# Velocity S-wave (km/s) = 2.93702 4.16766 3.60524
# Velocity P-wave (km/s) = 5.72036 7.28954 6.55209
#
# Compressibility (1/GPa) = 0.01790243
#
# Stress axis : x y z
#
# Youngs Moduli (GPa) = 225.33264 150.64119 77.81758
#
# Poissons Ratio (x) = 0.24775 0.11538
# Poissons Ratio (y) = 0.37059 -0.00896
# Poissons Ratio (z) = 0.33410 -0.01735
#
# Static dielectric constant tensor:
#      x y z
#    x 2.164450 0.000000 0.067040 
#    y 0.000000 2.471650 0.000000 
#    z 0.067040 0.000000 2.449850 
# 
# From -- ./inp_files/19956.got.cif
#   From: 2010.05.17/outbox.cif.g08.bks.cpg/sg15_10_cif.got.tgz:19956.got - 2010.06.03 18:47:42.
