data_PCOD9282049
_publ_section_title
;
Structure prediction by ZEFSAII (Michael W. Deem and Ramdas Pophale) SiO2 
 PCOD9282049
Probable space group: C 2/C
;
_chemical_formula_sum "Si O2"
_cell_formula_units_Z 52
_cell_length_a 18.703120
_cell_length_b 8.931562
_cell_length_c 13.840386
_cell_angle_alpha 90.000000
_cell_angle_beta 89.809321
_cell_angle_gamma 90.000000
_cell_volume 2311.997047
_symmetry_space_group_name_H-M "C 2/C"
_symmetry_group_IT_number 15
_symmetry_cell_setting 'monoclinic'
loop_
_space_group_symop_operation_xyz
x,y,z
-x,y,1/2-z
-x,-y,-z
x,-y,1/2+z
1/2+x,1/2+y,z
1/2-x,1/2+y,1/2-z
1/2-x,1/2-y,-z
1/2+x,1/2-y,1/2+z
loop_
_atom_site_type_symbol
_atom_site_label
_atom_site_fract_x
_atom_site_fract_y
_atom_site_fract_z
Si Si1 0.622175 0.790514 0.620477
Si Si2 0.185111 0.121225 0.957939
Si Si3 0.337116 0.136473 0.894360
Si Si4 0.438488 0.593607 0.053489
Si Si5 0.500000 0.897480 0.750000
Si Si6 0.752017 0.631338 0.588566
Si Si7 0.904934 0.659354 0.689717
O O1 0.594290 0.701215 0.528384
O O2 0.557194 0.800070 0.694025
O O3 0.691472 0.701934 0.657971
O O4 0.643295 0.961613 0.595452
O O5 0.149895 0.263830 0.010553
O O6 0.223092 0.023494 0.044068
O O7 0.250905 0.149953 0.886090
O O8 0.123449 0.020584 0.914570
O O9 0.380550 0.188669 0.800300
O O10 0.449456 0.705296 0.142574
O O11 0.500000 0.500000 0.000000
O O12 0.453690 0.011496 0.684772
O O13 0.750000 0.750000 0.500000
O O14 0.829747 0.629816 0.635145
#
# Coordination Sequence:
#
# PCOD9282049 Si02
#       7
#     8   8   8   8   4   8   8
#     4  10  21  46  65  91 137 173 222 279 345 405
#     4  10  21  41  63 100 130 171 223 275 337 410
#     4  10  21  38  68  95 132 164 222 282 338 408
#     4  11  24  43  66  93 133 187 223 272 345 414
#     4  10  26  42  64 108 136 176 222 288 348 414
#     4  11  19  42  71  90 129 181 219 281 340 407
#     4  11  23  42  69  96 134 178 224 286 345 409
#
# _framework density 22.491378000000001
#
# number of rings (size 3 to 8) (size 9 to 14) (size 15 to 20)
#    0.000    1.538    4.615    0.000    4.308    4.308 
#   13.846    0.000    0.000    0.000    0.000    0.000 
#    0.000    0.000    0.000    0.000    0.000    0.000 
#
# Total GULP energy -145226.623773 kJ/mol
# GULP energy per Si atom -5585.639376 kJ/mol
# Density = 2.244019 g / cm^3
# Si number density = 22.491378 Si / 1000 Ang^3
#
#
#
# Elastic Constant Matrix: (Units=GPa)
#
#
# Indices 1 2 3 4 5 6 
#
# 1 119.7057 20.5184 33.5950 0.0000 -16.0191 0.0000
# 2 20.5184 59.5078 19.6098 0.0000 -5.8975 0.0000
# 3 33.5950 19.6098 50.1776 0.0000 -17.7693 0.0000
# 4 0.0000 0.0000 0.0000 25.2937 0.0000 -21.0339
# 5 -16.0191 -5.8975 -17.7693 0.0000 39.6609 0.0000
# 6 0.0000 0.0000 0.0000 -21.0339 0.0000 33.0286
#
#
#
# Elastic Compliance Matrix: (Units=1/GPa)
#
#
# Indices 1 2 3 4 5 6 
#
# 1 0.010459 -0.001518 -0.005935 0.000000 0.001340 0.000000
# 2 -0.001518 0.019521 -0.006896 0.000000 -0.000800 0.000000
# 3 -0.005935 -0.006896 0.030173 0.000000 0.010096 0.000000
# 4 0.000000 0.000000 0.000000 0.084044 0.000000 0.053522
# 5 0.001340 -0.000800 0.010096 0.000000 0.030159 0.000000
# 6 0.000000 0.000000 0.000000 0.053522 0.000000 0.064362
#
#
# Mechanical properties :
#
#
# Convention : Reuss Voigt Hill
#
# Bulk Modulus (GPa) = 31.79093 41.87083 36.83088
# Shear Modulus (GPa) = 17.99205 29.97451 23.98328
#
# Velocity S-wave (km/s) = 2.83141 3.65459 3.26902
# Velocity P-wave (km/s) = 4.98544 6.03861 5.53712
#
# Compressibility (1/GPa) = 0.03145551
#
# Stress axis : x y z
#
# Youngs Moduli (GPa) = 95.61277 51.22669 33.14213
#
# Poissons Ratio (x) = 0.07775 0.19669
# Poissons Ratio (y) = 0.14511 0.22855
# Poissons Ratio (z) = 0.56745 0.35327
#
# Static dielectric constant tensor:
#      x y z
#    x 1.878470 0.000000 -0.037860 
#    y 0.000000 1.842660 0.000000 
#    z -0.037860 0.000000 1.872660 
# 
# From -- ./inp_files/166213.got.cif
#   From: 2010.05.17/outbox.cif.g08.bks.cpg/sg15_84_cif.got.tgz:166213.got - 2010.06.03 18:47:42.
