data_PCOD9282518
_publ_section_title
;
Structure prediction by ZEFSAII (Michael W. Deem and Ramdas Pophale) SiO2 
 PCOD9282518
Probable space group: C 2/C
;
_chemical_formula_sum "Si O2"
_cell_formula_units_Z 64
_cell_length_a 13.069038
_cell_length_b 17.219269
_cell_length_c 31.865645
_cell_angle_alpha 90.000000
_cell_angle_beta 154.273976
_cell_angle_gamma 90.000000
_cell_volume 3112.713351
_symmetry_space_group_name_H-M "C 2/C"
_symmetry_group_IT_number 15
_symmetry_cell_setting 'monoclinic'
loop_
_space_group_symop_operation_xyz
x,y,z
-x,y,1/2-z
-x,-y,-z
x,-y,1/2+z
1/2+x,1/2+y,z
1/2-x,1/2+y,1/2-z
1/2-x,1/2-y,-z
1/2+x,1/2-y,1/2+z
loop_
_atom_site_type_symbol
_atom_site_label
_atom_site_fract_x
_atom_site_fract_y
_atom_site_fract_z
Si Si1 0.157864 0.923754 0.556790
Si Si2 0.303493 0.603356 0.741260
Si Si3 0.851083 0.724958 0.238210
Si Si4 0.007905 0.098341 0.090765
Si Si5 0.896927 0.475846 0.256054
Si Si6 0.978055 0.468108 0.059653
Si Si7 0.272141 0.275712 0.960155
Si Si8 0.640913 0.111211 0.535575
O O1 0.072519 0.879998 0.567004
O O2 0.420137 0.958917 0.658915
O O3 0.125788 0.862437 0.507716
O O4 0.000000 0.000000 0.500000
O O5 0.263157 0.686698 0.705325
O O6 0.157889 0.588796 0.729947
O O7 0.579805 0.599313 0.853276
O O8 0.208269 0.540304 0.673326
O O9 0.629894 0.667793 0.161256
O O10 0.000000 0.710068 0.250000
O O11 0.029385 0.718521 0.343525
O O12 0.158417 0.021958 0.157847
O O13 0.739415 0.074349 0.997733
O O14 0.000000 0.446909 0.250000
O O15 0.012559 0.422506 0.028843
O O16 0.926323 0.556955 0.028537
O O17 0.404306 0.202363 0.987878
O O18 0.250000 0.250000 0.000000
#
# Coordination Sequence:
#
# PCOD9282518 Si02
#       8
#     8   8   8   8   8   8   8   8
#     4  11  23  39  65  98 132 171 225 279 335 407
#     4  11  22  39  68  93 129 173 223 274 334 404
#     4  11  21  43  68  94 130 178 227 275 337 405
#     4  11  21  40  67  93 130 171 230 278 333 400
#     4  10  21  39  62  95 131 167 216 276 330 399
#     4  11  23  40  67  97 126 176 224 278 329 406
#     4  11  24  40  69  97 134 180 223 278 343 416
#     4  10  24  44  62  95 136 169 227 273 339 404
#
# _framework density 20.560839000000001
#
# number of rings (size 3 to 8) (size 9 to 14) (size 15 to 20)
#    0.000    1.250    3.750    3.000    3.500    1.500 
#    2.250    0.000    0.000    0.000    0.000    0.000 
#    0.000    0.000    0.000    0.000    0.000    0.000 
#
# Total GULP energy -178654.907604 kJ/mol
# GULP energy per Si atom -5582.965863 kJ/mol
# Density = 2.051404 g / cm^3
# Si number density = 20.560839 Si / 1000 Ang^3
#
#
#
# Elastic Constant Matrix: (Units=GPa)
#
#
# Indices 1 2 3 4 5 6 
#
# 1 75.9322 21.1609 10.4682 -0.0002 1.4127 0.0000
# 2 21.1609 90.1498 25.8418 0.0000 1.5160 0.0000
# 3 10.4682 25.8418 51.1394 0.0000 -7.2431 -0.0001
# 4 -0.0002 0.0000 0.0000 27.5336 0.0001 -1.4369
# 5 1.4127 1.5160 -7.2431 0.0001 29.9307 -0.0001
# 6 0.0000 0.0000 -0.0001 -1.4369 -0.0001 32.0635
#
#
#
# Elastic Compliance Matrix: (Units=1/GPa)
#
#
# Indices 1 2 3 4 5 6 
#
# 1 0.014204 -0.002863 -0.001590 0.000000 -0.000910 0.000000
# 2 -0.002863 0.013707 -0.006647 0.000000 -0.002168 0.000000
# 3 -0.001590 -0.006647 0.024124 0.000000 0.006250 0.000000
# 4 0.000000 0.000000 0.000000 0.036404 0.000000 0.001631
# 5 -0.000910 -0.002168 0.006250 0.000000 0.035076 0.000000
# 6 0.000000 0.000000 0.000000 0.001631 0.000000 0.031261
#
#
# Mechanical properties :
#
#
# Convention : Reuss Voigt Hill
#
# Bulk Modulus (GPa) = 33.51832 36.90702 35.21267
# Shear Modulus (GPa) = 26.74944 28.55560 27.65252
#
# Velocity S-wave (km/s) = 3.61084 3.73075 3.67128
# Velocity P-wave (km/s) = 5.80703 6.04542 5.92742
#
# Compressibility (1/GPa) = 0.02983443
#
# Stress axis : x y z
#
# Youngs Moduli (GPa) = 70.40471 72.95757 41.45267
#
# Poissons Ratio (x) = 0.20888 0.06589
# Poissons Ratio (y) = 0.20157 0.27554
# Poissons Ratio (z) = 0.11191 0.48496
#
# Static dielectric constant tensor:
#      x y z
#    x 1.764940 0.000000 -0.022060 
#    y 0.000000 1.772020 0.000000 
#    z -0.022060 0.000000 1.773920 
# 
# From -- ./inp_files/311649.got.cif
#   From: 2010.05.17/outbox.cif.g08.bks.cpg/sg15_156_cif.got.tgz:311649.got - 2010.06.03 18:47:42.
