data_PCOD9282840
_publ_section_title
;
Structure prediction by ZEFSAII (Michael W. Deem and Ramdas Pophale) SiO2 
 PCOD9282840
Probable space group: C 2/C
;
_chemical_formula_sum "Si O2"
_cell_formula_units_Z 36
_cell_length_a 14.570242
_cell_length_b 19.571374
_cell_length_c 8.540333
_cell_angle_alpha 90.000000
_cell_angle_beta 136.581843
_cell_angle_gamma 90.000000
_cell_volume 1673.865012
_symmetry_space_group_name_H-M "C 2/C"
_symmetry_group_IT_number 15
_symmetry_cell_setting 'monoclinic'
loop_
_space_group_symop_operation_xyz
x,y,z
-x,y,1/2-z
-x,-y,-z
x,-y,1/2+z
1/2+x,1/2+y,z
1/2-x,1/2+y,1/2-z
1/2-x,1/2-y,-z
1/2+x,1/2-y,1/2+z
loop_
_atom_site_type_symbol
_atom_site_label
_atom_site_fract_x
_atom_site_fract_y
_atom_site_fract_z
Si Si1 0.820096 0.059218 0.297514
Si Si2 0.594240 0.955082 0.005974
Si Si3 0.323896 0.196803 0.371029
Si Si4 0.500000 0.530560 0.250000
Si Si5 0.127388 0.313192 0.194363
O O1 0.747328 0.126706 0.268421
O O2 0.901564 0.018679 0.530496
O O3 0.710030 0.006231 0.096414
O O4 0.919919 0.074737 0.277898
O O5 0.650737 0.889865 0.165038
O O6 0.500000 0.930787 0.750000
O O7 0.500000 0.000000 0.000000
O O8 0.225297 0.260542 0.230071
O O9 0.345822 0.189400 0.586130
O O10 0.470449 0.204087 0.478766
#
# Coordination Sequence:
#
# PCOD9282840 Si02
#       5
#     8   8   8   4   8
#     4  11  22  40  63  92 125 170 207 268 315 390
#     4  12  23  40  69  97 126 164 222 269 319 378
#     4  10  21  39  65  89 133 168 219 260 327 385
#     4  10  24  38  60  94 128 162 214 258 330 376
#     4  10  22  39  61  98 124 176 213 269 315 391
#
# _framework density 21.507110000000001
#
# number of rings (size 3 to 8) (size 9 to 14) (size 15 to 20)
#    0.000    1.333    2.222    4.000    0.000    7.111 
#    2.000    1.111    0.000    0.000    0.000    0.000 
#    0.000    0.000    0.000    0.000    0.000    0.000 
#
# Total GULP energy -100707.603200 kJ/mol
# GULP energy per Si atom -5594.866844 kJ/mol
# Density = 2.145816 g / cm^3
# Si number density = 21.507110 Si / 1000 Ang^3
#
#
#
# Elastic Constant Matrix: (Units=GPa)
#
#
# Indices 1 2 3 4 5 6 
#
# 1 63.6032 15.6689 -0.3004 0.0000 15.3448 0.0000
# 2 15.6689 124.0408 15.0987 0.0000 23.9041 0.0000
# 3 -0.3004 15.0987 63.5459 0.0000 14.1425 0.0000
# 4 0.0000 0.0000 0.0000 41.1182 0.0000 9.1615
# 5 15.3448 23.9041 14.1425 0.0000 28.1495 0.0000
# 6 0.0000 0.0000 0.0000 9.1615 0.0000 30.9869
#
#
#
# Elastic Compliance Matrix: (Units=1/GPa)
#
#
# Indices 1 2 3 4 5 6 
#
# 1 0.018515 -0.000550 0.002658 0.000000 -0.010961 0.000000
# 2 -0.000550 0.009671 -0.000607 0.000000 -0.007608 0.000000
# 3 0.002658 -0.000607 0.018128 0.000000 -0.010041 0.000000
# 4 0.000000 0.000000 0.000000 0.026035 0.000000 -0.007697
# 5 -0.010961 -0.007608 -0.010041 0.000000 0.053004 0.000000
# 6 0.000000 0.000000 0.000000 -0.007697 0.000000 0.034547
#
#
# Mechanical properties :
#
#
# Convention : Reuss Voigt Hill
#
# Bulk Modulus (GPa) = 20.27784 34.68049 27.47916
# Shear Modulus (GPa) = 28.84513 34.76577 31.80545
#
# Velocity S-wave (km/s) = 3.66620 4.02491 3.84973
# Velocity P-wave (km/s) = 5.23166 6.14491 5.70658
#
# Compressibility (1/GPa) = 0.04931492
#
# Stress axis : x y z
#
# Youngs Moduli (GPa) = 54.01043 103.39782 55.16287
#
# Poissons Ratio (x) = 0.05687 -0.14660
# Poissons Ratio (y) = 0.02971 0.03351
# Poissons Ratio (z) = -0.14354 0.06280
#
# Static dielectric constant tensor:
#      x y z
#    x 1.830420 0.000000 -0.007810 
#    y 0.000000 1.727630 0.000000 
#    z -0.007810 0.000000 1.804090 
# 
# From -- ./inp_files/30088.got.cif
#   From: 2010.05.17/outbox.cif.g08.bks.cpg/sg15_16_cif.got.tgz:30088.got - 2010.06.03 18:47:42.
