data_PCOD9282776
_publ_section_title
;
Structure prediction by ZEFSAII (Michael W. Deem and Ramdas Pophale) SiO2 
 PCOD9282776
Probable space group: C 2/C
;
_chemical_formula_sum "Si O2"
_cell_formula_units_Z 40
_cell_length_a 10.247838
_cell_length_b 24.304147
_cell_length_c 11.733154
_cell_angle_alpha 90.000000
_cell_angle_beta 141.207410
_cell_angle_gamma 90.000000
_cell_volume 1830.840754
_symmetry_space_group_name_H-M "C 2/C"
_symmetry_group_IT_number 15
_symmetry_cell_setting 'monoclinic'
loop_
_space_group_symop_operation_xyz
x,y,z
-x,y,1/2-z
-x,-y,-z
x,-y,1/2+z
1/2+x,1/2+y,z
1/2-x,1/2+y,1/2-z
1/2-x,1/2-y,-z
1/2+x,1/2-y,1/2+z
loop_
_atom_site_type_symbol
_atom_site_label
_atom_site_fract_x
_atom_site_fract_y
_atom_site_fract_z
Si Si1 0.200109 0.300538 0.126746
Si Si2 0.757750 0.435446 0.697284
Si Si3 0.699938 0.544951 0.548597
Si Si4 0.164663 0.182457 0.031837
Si Si5 0.492565 0.092861 0.927039
O O1 0.181355 0.234932 0.126726
O O2 0.426328 0.318064 0.326763
O O3 0.036961 0.342023 0.072535
O O4 0.197751 0.308634 0.988206
O O5 0.760992 0.480992 0.600771
O O6 0.546670 0.448997 0.623903
O O7 0.729180 0.374536 0.630393
O O8 0.950748 0.435134 0.914768
O O9 0.824087 0.576885 0.535645
O O10 0.784893 0.569792 0.726171
#
# Coordination Sequence:
#
# PCOD9282776 Si02
#       5
#     8   8   8   8   8
#     4  10  21  39  64  94 129 161 208 274 311 383
#     4  11  22  41  64  91 127 170 208 262 311 378
#     4  10  24  41  61  94 131 165 214 258 313 385
#     4  10  21  39  64  95 124 164 214 260 326 371
#     4  11  22  41  65  92 130 167 211 260 321 375
#
# _framework density 21.847887
#
# number of rings (size 3 to 8) (size 9 to 14) (size 15 to 20)
#    0.000    1.600    2.000    2.400    0.000    7.200 
#    3.600    1.000    4.400    0.000    0.000    0.000 
#    0.000    0.000    0.000    0.000    0.000    0.000 
#
# Total GULP energy -111825.812424 kJ/mol
# GULP energy per Si atom -5591.290621 kJ/mol
# Density = 2.179816 g / cm^3
# Si number density = 21.847887 Si / 1000 Ang^3
#
#
#
# Elastic Constant Matrix: (Units=GPa)
#
#
# Indices 1 2 3 4 5 6 
#
# 1 85.6142 54.6656 4.9076 0.0000 5.4446 0.0000
# 2 54.6656 196.4943 29.9662 0.0000 -17.1696 0.0000
# 3 4.9076 29.9662 87.2333 0.0000 -9.2198 0.0000
# 4 0.0000 0.0000 0.0000 -195.6377 0.0000 109.2159
# 5 5.4446 -17.1696 -9.2198 0.0000 19.2300 0.0000
# 6 0.0000 0.0000 0.0000 109.2159 0.0000 -13.3006
#
#
#
# Elastic Compliance Matrix: (Units=1/GPa)
#
#
# Indices 1 2 3 4 5 6 
#
# 1 0.015501 -0.005085 -0.000073 0.000000 -0.008964 0.000000
# 2 -0.005085 0.007367 -0.001472 0.000000 0.007312 0.000000
# 3 -0.000073 -0.001472 0.012468 0.000000 0.004684 0.000000
# 4 0.000000 0.000000 0.000000 0.001426 0.000000 0.011711
# 5 -0.008964 0.007312 0.004684 0.000000 0.063314 0.000000
# 6 0.000000 0.000000 0.000000 0.011711 0.000000 0.020978
#
#
# Mechanical properties :
#
#
# Convention : Reuss Voigt Hill
#
# Bulk Modulus (GPa) = 45.29407 60.93563 53.11485
# Shear Modulus (GPa) = 35.29273 -19.28817 8.00228
#
# Velocity S-wave (km/s) = 4.02354 -2.97448 1.91590
# Velocity P-wave (km/s) = 6.50859 4.01929 5.40909
#
# Compressibility (1/GPa) = 0.02207794
#
# Stress axis : x y z
#
# Youngs Moduli (GPa) = 64.51165 135.73821 80.20326
#
# Poissons Ratio (x) = 0.69017 0.00584
# Poissons Ratio (y) = 0.32802 0.11805
# Poissons Ratio (z) = 0.00470 0.19979
#
# Static dielectric constant tensor:
#      x y z
#    x 1.796130 0.000000 0.010420 
#    y 0.000000 1.812760 0.000000 
#    z 0.010420 0.000000 1.808470 
# 
# From -- ./inp_files/91022.got.cif
#   From: 2010.05.17/outbox.cif.g08.bks.cpg/sg15_46_cif.got.tgz:91022.got - 2010.06.03 18:47:42.
