data_PCOD9282843
_publ_section_title
;
Structure prediction by ZEFSAII (Michael W. Deem and Ramdas Pophale) SiO2 
 PCOD9282843
Probable space group: C 2/C
;
_chemical_formula_sum "Si O2"
_cell_formula_units_Z 56
_cell_length_a 16.851669
_cell_length_b 8.776278
_cell_length_c 20.912305
_cell_angle_alpha 90.000000
_cell_angle_beta 61.191206
_cell_angle_gamma 90.000000
_cell_volume 2710.033545
_symmetry_space_group_name_H-M "C 2/C"
_symmetry_group_IT_number 15
_symmetry_cell_setting 'monoclinic'
loop_
_space_group_symop_operation_xyz
x,y,z
-x,y,1/2-z
-x,-y,-z
x,-y,1/2+z
1/2+x,1/2+y,z
1/2-x,1/2+y,1/2-z
1/2-x,1/2-y,-z
1/2+x,1/2-y,1/2+z
loop_
_atom_site_type_symbol
_atom_site_label
_atom_site_fract_x
_atom_site_fract_y
_atom_site_fract_z
Si Si1 0.026705 0.991004 0.632762
Si Si2 0.650047 0.667008 0.356800
Si Si3 0.758948 0.365992 0.269811
Si Si4 0.347930 0.713933 0.993147
Si Si5 0.424302 0.084709 0.364138
Si Si6 0.599896 0.774740 0.180718
Si Si7 0.591911 0.762568 0.763427
O O1 0.948929 0.889953 0.628519
O O2 0.090092 0.887168 0.651901
O O3 0.972011 0.115871 0.696286
O O4 0.094785 0.073438 0.557976
O O5 0.718823 0.530118 0.306473
O O6 0.675330 0.830512 0.315815
O O7 0.656641 0.688188 0.429922
O O8 0.817289 0.289300 0.303023
O O9 0.672724 0.270849 0.279532
O O10 0.405289 0.852997 0.941469
O O11 0.250000 0.750000 0.000000
O O12 0.385784 0.191769 0.319304
O O13 0.531223 0.095626 0.309173
O O14 0.387855 0.916459 0.371053
O O15 0.500000 0.796570 0.250000
#
# Coordination Sequence:
#
# PCOD9282843 Si02
#       7
#     8   8   8   8   8   8   8
#     4  10  24  40  64  92 129 168 209 265 318 371
#     4  11  24  43  63  94 123 167 211 265 315 377
#     4  11  23  37  64  92 123 157 216 261 313 370
#     4  11  23  42  65  90 129 171 215 251 312 389
#     4  10  21  39  65  90 129 170 210 254 316 380
#     4  12  22  38  61  96 129 156 202 271 318 356
#     4   9  19  38  62  91 121 171 219 253 300 379
#
# _framework density 20.663951999999998
#
# number of rings (size 3 to 8) (size 9 to 14) (size 15 to 20)
#    0.000    1.429    2.857    3.000    4.000    1.143 
#    0.000    5.000    0.000    0.000    0.000    0.000 
#    0.000    0.000    0.000    0.000    0.000    0.000 
#
# Total GULP energy -155961.581543 kJ/mol
# GULP energy per Si atom -5570.056484 kJ/mol
# Density = 2.061692 g / cm^3
# Si number density = 20.663952 Si / 1000 Ang^3
#
#
#
# Elastic Constant Matrix: (Units=GPa)
#
#
# Indices 1 2 3 4 5 6 
#
# 1 109.0167 26.5690 16.9294 0.0000 1.6895 0.0000
# 2 26.5690 75.9552 50.4617 0.0000 12.5684 0.0001
# 3 16.9294 50.4617 103.1892 0.0000 1.6143 0.0000
# 4 0.0000 0.0000 0.0000 9.4735 0.0000 -13.9684
# 5 1.6895 12.5684 1.6143 0.0000 12.3984 0.0000
# 6 0.0000 0.0001 0.0000 -13.9684 0.0000 13.6736
#
#
#
# Elastic Compliance Matrix: (Units=1/GPa)
#
#
# Indices 1 2 3 4 5 6 
#
# 1 0.010109 -0.004273 0.000386 0.000000 0.002904 0.000000
# 2 -0.004273 0.026765 -0.011997 0.000000 -0.024988 0.000000
# 3 0.000386 -0.011997 0.015336 0.000000 0.010112 0.000000
# 4 0.000000 0.000000 0.000000 -0.208506 0.000000 -0.213001
# 5 0.002904 -0.024988 0.010112 0.000000 0.104274 0.000000
# 6 0.000000 0.000000 0.000000 -0.213001 0.000000 -0.144459
#
#
# Mechanical properties :
#
#
# Convention : Reuss Voigt Hill
#
# Bulk Modulus (GPa) = 48.91756 52.89790 50.90773
# Shear Modulus (GPa) = -31.66621 20.05583 -5.80519
#
# Velocity S-wave (km/s) = -3.91888 3.11878 -1.67792
# Velocity P-wave (km/s) = 1.80206 6.21480 4.57554
#
# Compressibility (1/GPa) = 0.02044256
#
# Stress axis : x y z
#
# Youngs Moduli (GPa) = 98.91794 37.36165 65.20493
#
# Poissons Ratio (x) = 0.15964 -0.02514
# Poissons Ratio (y) = 0.42266 0.78226
# Poissons Ratio (z) = -0.03813 0.44823
#
# Static dielectric constant tensor:
#      x y z
#    x 1.848250 0.000000 -0.027830 
#    y 0.000000 1.770240 0.000000 
#    z -0.027830 0.000000 1.790770 
# 
# From -- ./inp_files/247332.got.cif
#   From: 2010.05.17/outbox.cif.g08.bks.cpg/sg15_124_cif.got.tgz:247332.got - 2010.06.03 18:47:42.
