data_PCOD9282815
_publ_section_title
;
Structure prediction by ZEFSAII (Michael W. Deem and Ramdas Pophale) SiO2 
 PCOD9282815
Probable space group: C 2/C
;
_chemical_formula_sum "Si O2"
_cell_formula_units_Z 56
_cell_length_a 24.180970
_cell_length_b 9.385011
_cell_length_c 10.196536
_cell_angle_alpha 90.000000
_cell_angle_beta 79.520501
_cell_angle_gamma 90.000000
_cell_volume 2275.391104
_symmetry_space_group_name_H-M "C 2/C"
_symmetry_group_IT_number 15
_symmetry_cell_setting 'monoclinic'
loop_
_space_group_symop_operation_xyz
x,y,z
-x,y,1/2-z
-x,-y,-z
x,-y,1/2+z
1/2+x,1/2+y,z
1/2-x,1/2+y,1/2-z
1/2-x,1/2-y,-z
1/2+x,1/2-y,1/2+z
loop_
_atom_site_type_symbol
_atom_site_label
_atom_site_fract_x
_atom_site_fract_y
_atom_site_fract_z
Si Si1 0.227484 0.402749 0.050657
Si Si2 0.909562 0.778235 0.275764
Si Si3 0.500535 0.663713 0.963366
Si Si4 0.295096 0.568727 0.854831
Si Si5 0.919005 0.334615 0.152742
Si Si6 0.797284 0.770233 0.698762
Si Si7 0.890648 0.512492 0.925660
O O1 0.203913 0.368141 0.202116
O O2 0.172035 0.449096 0.998083
O O3 0.250000 0.250000 0.000000
O O4 0.277665 0.512633 0.006407
O O5 0.956162 0.814670 0.364413
O O6 0.858489 0.887210 0.304924
O O7 0.887129 0.625759 0.332513
O O8 0.940015 0.785444 0.121726
O O9 0.500000 0.500000 0.000000
O O10 0.474935 0.747762 0.096500
O O11 0.257187 0.710802 0.854356
O O12 0.286336 0.422213 0.774245
O O13 0.863109 0.243217 0.130686
O O14 0.914285 0.374558 0.308851
O O15 0.921977 0.464595 0.045101
#
# Coordination Sequence:
#
# PCOD9282815 Si02
#       7
#     8   8   8   8   8   8   8
#     4   9  20  36  55  87 136 176 223 272 327 417
#     4  10  24  40  67  97 134 178 236 297 350 417
#     4  10  22  46  68  93 131 175 239 301 352 416
#     4  11  22  38  61  97 136 182 227 275 353 424
#     4  10  21  41  68  99 140 182 233 292 351 426
#     4  10  22  36  61  94 139 180 225 278 346 419
#     4  10  21  39  64  98 138 182 231 282 357 420
#
# _framework density 24.611153999999999
#
# number of rings (size 3 to 8) (size 9 to 14) (size 15 to 20)
#    0.000    2.000    1.429    0.857    4.000    4.571 
#    0.000    5.714    0.000    0.000    0.000    0.000 
#    0.000    0.000    0.000    0.000    0.000    0.000 
#
# Total GULP energy -156148.739286 kJ/mol
# GULP energy per Si atom -5576.740689 kJ/mol
# Density = 2.455514 g / cm^3
# Si number density = 24.611154 Si / 1000 Ang^3
#
#
#
# Elastic Constant Matrix: (Units=GPa)
#
#
# Indices 1 2 3 4 5 6 
#
# 1 89.3119 49.9174 36.7772 0.0000 -35.9834 0.0000
# 2 49.9174 116.0452 23.0270 0.0000 -23.6162 0.0000
# 3 36.7772 23.0270 110.9769 0.0000 -33.0547 0.0000
# 4 0.0000 0.0000 0.0000 35.8232 0.0000 -15.1575
# 5 -35.9834 -23.6162 -33.0547 0.0000 38.7043 0.0000
# 6 0.0000 0.0000 0.0000 -15.1575 0.0000 38.3768
#
#
#
# Elastic Compliance Matrix: (Units=1/GPa)
#
#
# Indices 1 2 3 4 5 6 
#
# 1 0.020907 -0.005714 -0.001330 0.000000 0.014814 0.000000
# 2 -0.005714 0.011411 0.000023 0.000000 0.001670 0.000000
# 3 -0.001330 0.000023 0.012181 0.000000 0.009181 0.000000
# 4 0.000000 0.000000 0.000000 0.033516 0.000000 0.013238
# 5 0.014814 0.001670 0.009181 0.000000 0.048469 0.000000
# 6 0.000000 0.000000 0.000000 0.013238 0.000000 0.031286
#
#
# Mechanical properties :
#
#
# Convention : Reuss Voigt Hill
#
# Bulk Modulus (GPa) = 32.83377 59.53080 46.18228
# Shear Modulus (GPa) = 27.47780 36.35501 31.91640
#
# Velocity S-wave (km/s) = 3.34500 3.84757 3.60505
# Velocity P-wave (km/s) = 5.31871 6.63170 6.01116
#
# Compressibility (1/GPa) = 0.03045645
#
# Stress axis : x y z
#
# Youngs Moduli (GPa) = 47.83077 87.63807 82.09234
#
# Poissons Ratio (x) = 0.50080 0.10921
# Poissons Ratio (y) = 0.27333 -0.00192
# Poissons Ratio (z) = 0.06363 -0.00205
#
# Static dielectric constant tensor:
#      x y z
#    x 2.099420 0.000000 0.037990 
#    y 0.000000 1.955900 0.000000 
#    z 0.037990 0.000000 2.206820 
# 
# From -- ./inp_files/121857.got.cif
#   From: 2010.05.17/outbox.cif.g08.bks.cpg/sg15_61_cif.got.tgz:121857.got - 2010.06.03 18:47:42.
