data_PCOD9282744
_publ_section_title
;
Structure prediction by ZEFSAII (Michael W. Deem and Ramdas Pophale) SiO2 
 PCOD9282744
Probable space group: C 2/C
;
_chemical_formula_sum "Si O2"
_cell_formula_units_Z 24
_cell_length_a 9.653903
_cell_length_b 15.394423
_cell_length_c 8.853596
_cell_angle_alpha 90.000000
_cell_angle_beta 137.140179
_cell_angle_gamma 90.000000
_cell_volume 895.008470
_symmetry_space_group_name_H-M "C 2/C"
_symmetry_group_IT_number 15
_symmetry_cell_setting 'monoclinic'
loop_
_space_group_symop_operation_xyz
x,y,z
-x,y,1/2-z
-x,-y,-z
x,-y,1/2+z
1/2+x,1/2+y,z
1/2-x,1/2+y,1/2-z
1/2-x,1/2-y,-z
1/2+x,1/2-y,1/2+z
loop_
_atom_site_type_symbol
_atom_site_label
_atom_site_fract_x
_atom_site_fract_y
_atom_site_fract_z
Si Si1 0.163270 0.741101 0.291963
Si Si2 0.739149 0.070589 0.190010
Si Si3 0.777993 0.103891 0.881388
O O1 0.399500 0.736736 0.572566
O O2 0.146345 0.640680 0.228507
O O3 0.234229 0.804329 0.211984
O O4 0.982421 0.083959 0.403077
O O5 0.700165 0.971764 0.207507
O O6 0.689145 0.095304 0.978165
#
# Coordination Sequence:
#
# PCOD9282744 Si02
#       3
#     8   8   8
#     4  12  23  40  63  94 127 161 207 254 307 364
#     4  10  21  39  64  92 122 164 209 251 303 370
#     4  10  21  39  65  90 123 164 208 250 308 368
#
# _framework density 26.815390000000001
#
# number of rings (size 3 to 8) (size 9 to 14) (size 15 to 20)
#    0.000    1.333    3.333    3.000    4.667    0.000 
#    0.000    6.667    0.000    0.000    0.000    0.000 
#    0.000    0.000    0.000    0.000    0.000    0.000 
#
# Total GULP energy -67217.701157 kJ/mol
# GULP energy per Si atom -5601.475096 kJ/mol
# Density = 2.675436 g / cm^3
# Si number density = 26.815390 Si / 1000 Ang^3
#
#
#
# Elastic Constant Matrix: (Units=GPa)
#
#
# Indices 1 2 3 4 5 6 
#
# 1 158.5020 49.8091 48.2808 0.0000 -33.0167 0.0000
# 2 49.8091 143.5604 23.5230 0.0000 -38.5007 0.0000
# 3 48.2808 23.5230 200.7416 0.0000 -11.5228 0.0000
# 4 0.0000 0.0000 0.0000 48.8691 0.0000 3.8373
# 5 -33.0167 -38.5007 -11.5228 0.0000 64.6863 0.0000
# 6 0.0000 0.0000 0.0000 3.8373 0.0000 37.1304
#
#
#
# Elastic Compliance Matrix: (Units=1/GPa)
#
#
# Indices 1 2 3 4 5 6 
#
# 1 0.007895 -0.001761 -0.001537 0.000000 0.002708 0.000000
# 2 -0.001761 0.008779 -0.000360 0.000000 0.004262 0.000000
# 3 -0.001537 -0.000360 0.005391 0.000000 -0.000039 0.000000
# 4 0.000000 0.000000 0.000000 0.020630 0.000000 -0.002132
# 5 0.002708 0.004262 -0.000039 0.000000 0.019371 0.000000
# 6 0.000000 0.000000 0.000000 -0.002132 0.000000 0.027152
#
#
# Mechanical properties :
#
#
# Convention : Reuss Voigt Hill
#
# Bulk Modulus (GPa) = 67.80825 82.89222 75.35023
# Shear Modulus (GPa) = 49.28469 55.54989 52.41729
#
# Velocity S-wave (km/s) = 4.29175 4.55639 4.42605
# Velocity P-wave (km/s) = 7.06405 7.65899 7.36753
#
# Compressibility (1/GPa) = 0.01474747
#
# Stress axis : x y z
#
# Youngs Moduli (GPa) = 126.66770 113.91077 185.48708
#
# Poissons Ratio (x) = 0.20061 0.28509
# Poissons Ratio (y) = 0.22308 0.06687
# Poissons Ratio (z) = 0.19469 0.04106
#
# Static dielectric constant tensor:
#      x y z
#    x 2.040260 0.000000 0.165190 
#    y 0.000000 1.851940 0.000000 
#    z 0.165190 0.000000 2.267790 
# 
# From -- ./inp_files/95446.got.cif
#   From: 2010.05.17/outbox.cif.g08.bks.cpg/sg15_48_cif.got.tgz:95446.got - 2010.06.03 18:47:42.
