data_PCOD9282467
_publ_section_title
;
Structure prediction by ZEFSAII (Michael W. Deem and Ramdas Pophale) SiO2 
 PCOD9282467
Probable space group: C 2/C
;
_chemical_formula_sum "Si O2"
_cell_formula_units_Z 40
_cell_length_a 5.117181
_cell_length_b 23.932716
_cell_length_c 18.797817
_cell_angle_alpha 90.000000
_cell_angle_beta 129.891219
_cell_angle_gamma 90.000000
_cell_volume 1766.341584
_symmetry_space_group_name_H-M "C 2/C"
_symmetry_group_IT_number 15
_symmetry_cell_setting 'monoclinic'
loop_
_space_group_symop_operation_xyz
x,y,z
-x,y,1/2-z
-x,-y,-z
x,-y,1/2+z
1/2+x,1/2+y,z
1/2-x,1/2+y,1/2-z
1/2-x,1/2-y,-z
1/2+x,1/2-y,1/2+z
loop_
_atom_site_type_symbol
_atom_site_label
_atom_site_fract_x
_atom_site_fract_y
_atom_site_fract_z
Si Si1 0.038357 0.402287 0.341235
Si Si2 0.370534 0.380003 0.954957
Si Si3 0.888121 0.474955 0.812127
Si Si4 0.680434 0.782341 0.149303
Si Si5 0.882364 0.694892 0.450713
O O1 0.419820 0.395656 0.437546
O O2 0.000000 0.400995 0.250000
O O3 0.900908 0.461853 0.344711
O O4 0.855129 0.347325 0.337661
O O5 0.635579 0.351561 0.945878
O O6 0.165483 0.434158 0.894376
O O7 0.089628 0.334269 0.925228
O O8 0.500000 0.454006 0.750000
O O9 0.000000 0.479034 0.750000
O O10 0.355607 0.745564 0.115040
O O11 0.000000 0.760680 0.250000
O O12 0.641652 0.782868 0.056929
#
# Coordination Sequence:
#
# PCOD9282467 Si02
#       5
#     8   8   8   8   8
#     4  10  22  40  66  94 123 162 211 256 308 365
#     4  11  23  43  65  91 127 165 203 257 309 364
#     4  11  24  42  64  93 127 163 208 255 306 369
#     4  10  21  39  62  91 126 163 204 258 307 361
#     4  10  24  40  63  93 123 162 210 249 306 374
#
# _framework density 22.645678
#
# number of rings (size 3 to 8) (size 9 to 14) (size 15 to 20)
#    0.000    1.600    0.000    3.600    0.000   16.000 
#    0.000   10.000    0.000    0.000    0.000    0.000 
#    0.000    0.000    0.000    0.000    0.000    0.000 
#
# Total GULP energy -111849.969226 kJ/mol
# GULP energy per Si atom -5592.498461 kJ/mol
# Density = 2.259414 g / cm^3
# Si number density = 22.645678 Si / 1000 Ang^3
#
#
#
# Elastic Constant Matrix: (Units=GPa)
#
#
# Indices 1 2 3 4 5 6 
#
# 1 62.0352 14.0528 25.1717 0.0000 10.8431 0.0000
# 2 14.0528 121.5493 65.2479 0.0000 9.1484 0.0000
# 3 25.1717 65.2479 140.7860 0.0000 28.1061 0.0000
# 4 0.0000 0.0000 0.0000 8.6572 0.0000 23.4899
# 5 10.8431 9.1484 28.1061 0.0000 18.2406 0.0000
# 6 0.0000 0.0000 0.0000 23.4899 0.0000 51.3970
#
#
#
# Elastic Compliance Matrix: (Units=1/GPa)
#
#
# Indices 1 2 3 4 5 6 
#
# 1 0.018294 -0.000847 -0.001144 0.000000 -0.008688 0.000000
# 2 -0.000847 0.011136 -0.005770 0.000000 0.003809 0.000000
# 3 -0.001144 -0.005770 0.013386 0.000000 -0.017052 0.000000
# 4 0.000000 0.000000 0.000000 -0.481160 0.000000 0.219904
# 5 -0.008688 0.003809 -0.017052 0.000000 0.084351 0.000000
# 6 0.000000 0.000000 0.000000 0.219904 0.000000 -0.081046
#
#
# Mechanical properties :
#
#
# Convention : Reuss Voigt Hill
#
# Bulk Modulus (GPa) = 36.63824 59.25727 47.94775
# Shear Modulus (GPa) = -12.18267 30.31884 9.06808
#
# Velocity S-wave (km/s) = -2.32193 3.66298 2.00325
# Velocity P-wave (km/s) = 3.00425 6.64183 5.15458
#
# Compressibility (1/GPa) = 0.02729389
#
# Stress axis : x y z
#
# Youngs Moduli (GPa) = 54.66132 89.80194 74.70656
#
# Poissons Ratio (x) = 0.07608 0.08546
# Poissons Ratio (y) = 0.04631 0.43104
# Poissons Ratio (z) = 0.06253 0.51814
#
# Static dielectric constant tensor:
#      x y z
#    x 1.848920 0.000000 0.002440 
#    y 0.000000 1.874620 0.000000 
#    z 0.002440 0.000000 1.825450 
# 
# From -- ./inp_files/129537.got.cif
#   From: 2010.05.17/outbox.cif.g08.bks.cpg/sg15_65_cif.got.tgz:129537.got - 2010.06.03 18:47:42.
