data_PCOD9282363
_publ_section_title
;
Structure prediction by ZEFSAII (Michael W. Deem and Ramdas Pophale) SiO2 
 PCOD9282363
Probable space group: C 2/C
;
_chemical_formula_sum "Si O2"
_cell_formula_units_Z 60
_cell_length_a 10.433219
_cell_length_b 24.826919
_cell_length_c 19.771889
_cell_angle_alpha 90.000000
_cell_angle_beta 30.332623
_cell_angle_gamma 90.000000
_cell_volume 2586.408706
_symmetry_space_group_name_H-M "C 2/C"
_symmetry_group_IT_number 15
_symmetry_cell_setting 'monoclinic'
loop_
_space_group_symop_operation_xyz
x,y,z
-x,y,1/2-z
-x,-y,-z
x,-y,1/2+z
1/2+x,1/2+y,z
1/2-x,1/2+y,1/2-z
1/2-x,1/2-y,-z
1/2+x,1/2-y,1/2+z
loop_
_atom_site_type_symbol
_atom_site_label
_atom_site_fract_x
_atom_site_fract_y
_atom_site_fract_z
Si Si1 0.764396 0.338574 0.741196
Si Si2 0.036320 0.115295 0.662200
Si Si3 0.649948 0.354749 0.465762
Si Si4 0.500000 0.058196 0.750000
Si Si5 0.527859 0.235185 0.655863
Si Si6 0.089954 0.468711 0.356429
Si Si7 0.395789 0.922539 0.575219
Si Si8 0.812908 0.804069 0.512939
O O1 0.689096 0.275752 0.769691
O O2 0.772732 0.369411 0.664817
O O3 0.046412 0.335763 0.644381
O O4 0.550783 0.367351 0.883997
O O5 0.307804 0.086974 0.543237
O O6 0.028237 0.159701 0.610069
O O7 0.000000 0.144573 0.750000
O O8 0.827104 0.070798 0.748517
O O9 0.749143 0.404366 0.376151
O O10 0.915148 0.328818 0.371286
O O11 0.492847 0.307693 0.496586
O O12 0.489871 0.025310 0.684823
O O13 0.500000 0.245228 0.750000
O O14 0.750000 0.250000 0.500000
O O15 0.175410 0.524558 0.350652
O O16 0.888853 0.439404 0.499337
O O17 0.750000 0.750000 0.500000
#
# Coordination Sequence:
#
# PCOD9282363 Si02
#       8
#     8   8   8   4   8   8   8   8
#     4  10  23  41  64  94 125 174 229 277 326 394
#     4   9  19  39  64  90 124 170 221 274 323 394
#     4  11  23  41  62  93 139 173 213 282 337 406
#     4  12  24  40  66 102 136 176 218 268 360 402
#     4  10  21  39  61  90 129 172 216 268 336 397
#     4  10  21  42  67  96 132 172 220 275 340 407
#     4   9  21  42  68  94 127 172 229 279 329 396
#     4  11  22  39  63  91 131 175 225 266 335 398
#
# _framework density 23.198191000000001
#
# number of rings (size 3 to 8) (size 9 to 14) (size 15 to 20)
#    0.000    1.867    2.000    1.200    0.000    4.267 
#    4.800   11.333    0.000    0.000    0.000    0.000 
#    0.000    0.000    0.000    0.000    0.000    0.000 
#
# Total GULP energy -167047.008828 kJ/mol
# GULP energy per Si atom -5568.233628 kJ/mol
# Density = 2.314539 g / cm^3
# Si number density = 23.198191 Si / 1000 Ang^3
#
#
#
# Elastic Constant Matrix: (Units=GPa)
#
#
# Indices 1 2 3 4 5 6 
#
# 1 71.2995 4.8722 45.0157 -0.0429 16.2994 0.0303
# 2 4.8722 62.5814 30.0534 -0.0026 0.6008 0.0039
# 3 45.0157 30.0534 130.6551 -0.0780 9.8013 0.0568
# 4 -0.0429 -0.0026 -0.0780 638.8012 0.1257 -437.4952
# 5 16.2994 0.6008 9.8013 0.1257 37.2782 -0.0891
# 6 0.0303 0.0039 0.0568 -437.4952 -0.0891 353.8465
#
#
#
# Elastic Compliance Matrix: (Units=1/GPa)
#
#
# Indices 1 2 3 4 5 6 
#
# 1 0.019689 0.001735 -0.006666 0.000002 -0.006884 0.000000
# 2 0.001735 0.018140 -0.004786 -0.000001 0.000208 0.000000
# 3 -0.006666 -0.004786 0.011045 0.000001 0.000088 0.000000
# 4 0.000002 -0.000001 0.000001 0.010216 -0.000005 0.012631
# 5 -0.006884 0.000208 0.000088 -0.000005 0.029809 0.000002
# 6 0.000000 0.000000 0.000000 0.012631 0.000002 0.018444
#
#
# Mechanical properties :
#
#
# Convention : Reuss Voigt Hill
#
# Bulk Modulus (GPa) = 33.96806 47.15761 40.56284
# Shear Modulus (GPa) = 36.60542 218.29151 127.44847
#
# Velocity S-wave (km/s) = 3.97664 9.71096 7.42012
# Velocity P-wave (km/s) = 5.97990 12.08757 9.53595
#
# Compressibility (1/GPa) = 0.02943942
#
# Stress axis : x y z
#
# Youngs Moduli (GPa) = 50.78874 55.12531 90.54036
#
# Poissons Ratio (x) = -0.09562 0.60357
# Poissons Ratio (y) = -0.08810 0.43332
# Poissons Ratio (z) = 0.33857 0.26382
#
# Static dielectric constant tensor:
#      x y z
#    x 1.948990 0.000000 0.029570 
#    y 0.000000 1.877840 0.000010 
#    z 0.029570 0.000010 1.918370 
# 
# From -- ./inp_files/240855.got.cif
#   From: 2010.05.17/outbox.cif.g08.bks.cpg/sg15_121_cif.got.tgz:240855.got - 2010.06.03 18:47:42.
