data_PCOD9282960
_publ_section_title
;
Structure prediction by ZEFSAII (Michael W. Deem and Ramdas Pophale) SiO2 
 PCOD9282960
Probable space group: C 2/C
;
_chemical_formula_sum "Si O2"
_cell_formula_units_Z 64
_cell_length_a 18.451776
_cell_length_b 14.264707
_cell_length_c 22.177379
_cell_angle_alpha 90.000000
_cell_angle_beta 152.568105
_cell_angle_gamma 90.000000
_cell_volume 2689.203969
_symmetry_space_group_name_H-M "C 2/C"
_symmetry_group_IT_number 15
_symmetry_cell_setting 'monoclinic'
loop_
_space_group_symop_operation_xyz
x,y,z
-x,y,1/2-z
-x,-y,-z
x,-y,1/2+z
1/2+x,1/2+y,z
1/2-x,1/2+y,1/2-z
1/2-x,1/2-y,-z
1/2+x,1/2-y,1/2+z
loop_
_atom_site_type_symbol
_atom_site_label
_atom_site_fract_x
_atom_site_fract_y
_atom_site_fract_z
Si Si1 0.569724 0.371865 0.358968
Si Si2 0.752245 0.930582 0.192339
Si Si3 0.826501 0.609374 0.597467
Si Si4 0.941367 0.267974 0.392574
Si Si5 0.296051 0.275037 0.660886
Si Si6 0.351966 0.435572 0.870571
Si Si7 0.813821 0.408563 0.628948
Si Si8 0.267350 0.460296 0.594400
O O1 0.500000 0.313216 0.250000
O O2 0.425893 0.403804 0.295291
O O3 0.709024 0.342773 0.507607
O O4 0.645553 0.459020 0.378314
O O5 0.672268 0.836081 0.154624
O O6 0.763010 0.001759 0.255711
O O7 0.675899 0.985037 0.079202
O O8 0.773263 0.706746 0.586621
O O9 0.751453 0.515293 0.569314
O O10 0.824626 0.595855 0.524840
O O11 0.000000 0.604420 0.750000
O O12 0.918062 0.159140 0.390501
O O13 0.115425 0.294998 0.543269
O O14 0.891338 0.273707 0.284975
O O15 0.368753 0.377175 0.700153
O O16 0.235659 0.400823 0.838141
O O17 0.500000 0.500000 0.000000
O O18 0.000000 0.403798 0.750000
#
# Coordination Sequence:
#
# PCOD9282960 Si02
#       8
#     8   8   8   8   8   8   8   8
#     4   9  20  38  67  95 133 192 241 296 373 448
#     4  11  23  44  68 103 150 190 255 308 375 462
#     4  10  21  39  67 103 145 190 241 309 387 457
#     4  12  28  45  71 111 148 201 255 317 384 452
#     4  12  25  44  67 110 152 187 257 315 388 468
#     4  12  23  46  80 101 148 211 257 306 384 468
#     4  10  21  39  66 102 136 185 250 309 364 435
#     4  10  22  40  67 103 143 197 238 312 383 447
#
# _framework density 23.798863999999998
#
# number of rings (size 3 to 8) (size 9 to 14) (size 15 to 20)
#    0.000    1.250    2.500    3.375    1.750    5.000 
#    9.000    1.875    0.000    7.500    0.000    0.000 
#    0.000    0.000    0.000    0.000    0.000    0.000 
#
# Total GULP energy -178624.632568 kJ/mol
# GULP energy per Si atom -5582.019768 kJ/mol
# Density = 2.374470 g / cm^3
# Si number density = 23.798864 Si / 1000 Ang^3
#
#
#
# Elastic Constant Matrix: (Units=GPa)
#
#
# Indices 1 2 3 4 5 6 
#
# 1 100.4707 17.0288 54.9655 -0.0106 -19.6143 0.0008
# 2 17.0288 107.2265 9.0718 -0.0186 -4.1315 0.0040
# 3 54.9655 9.0718 90.8469 -0.0165 -9.6071 0.0011
# 4 -0.0106 -0.0186 -0.0165 27.4060 -0.0010 -2.0796
# 5 -19.6143 -4.1315 -9.6071 -0.0010 34.4320 0.0011
# 6 0.0008 0.0040 0.0011 -2.0796 0.0011 27.3387
#
#
#
# Elastic Compliance Matrix: (Units=1/GPa)
#
#
# Indices 1 2 3 4 5 6 
#
# 1 0.016521 -0.001594 -0.009131 0.000000 0.006672 0.000000
# 2 -0.001594 0.009586 0.000034 0.000006 0.000252 -0.000001
# 3 -0.009131 0.000034 0.016465 0.000006 -0.000604 0.000000
# 4 0.000000 0.000006 0.000006 0.036700 0.000004 0.002792
# 5 0.006672 0.000252 -0.000604 0.000004 0.032706 -0.000001
# 6 0.000000 -0.000001 0.000000 0.002792 -0.000001 0.036791
#
#
# Mechanical properties :
#
#
# Convention : Reuss Voigt Hill
#
# Bulk Modulus (GPa) = 47.19317 51.18625 49.18971
# Shear Modulus (GPa) = 28.21429 32.33386 30.27407
#
# Velocity S-wave (km/s) = 3.44689 3.68996 3.57049
# Velocity P-wave (km/s) = 5.97616 6.30150 6.14099
#
# Compressibility (1/GPa) = 0.02118951
#
# Stress axis : x y z
#
# Youngs Moduli (GPa) = 60.52721 104.31817 60.73468
#
# Poissons Ratio (x) = 0.16630 0.55458
# Poissons Ratio (y) = 0.09649 -0.00206
# Poissons Ratio (z) = 0.55269 -0.00354
#
# Static dielectric constant tensor:
#      x y z
#    x 1.980170 0.000000 -0.028060 
#    y 0.000000 2.012260 0.000000 
#    z -0.028060 0.000000 1.984140 
# 
# From -- ./inp_files/249658.got.cif
#   From: 2010.05.17/outbox.cif.g08.bks.cpg/sg15_125_cif.got.tgz:249658.got - 2010.06.03 18:47:42.
