data_PCOD9282475
_publ_section_title
;
Structure prediction by ZEFSAII (Michael W. Deem and Ramdas Pophale) SiO2 
 PCOD9282475
Probable space group: C 2/C
;
_chemical_formula_sum "Si O2"
_cell_formula_units_Z 44
_cell_length_a 19.262941
_cell_length_b 10.388256
_cell_length_c 12.464662
_cell_angle_alpha 90.000000
_cell_angle_beta 46.621065
_cell_angle_gamma 90.000000
_cell_volume 1812.912882
_symmetry_space_group_name_H-M "C 2/C"
_symmetry_group_IT_number 15
_symmetry_cell_setting 'monoclinic'
loop_
_space_group_symop_operation_xyz
x,y,z
-x,y,1/2-z
-x,-y,-z
x,-y,1/2+z
1/2+x,1/2+y,z
1/2-x,1/2+y,1/2-z
1/2-x,1/2-y,-z
1/2+x,1/2-y,1/2+z
loop_
_atom_site_type_symbol
_atom_site_label
_atom_site_fract_x
_atom_site_fract_y
_atom_site_fract_z
Si Si1 0.500000 0.449318 0.750000
Si Si2 0.837068 0.892613 0.305650
Si Si3 0.437748 0.251345 0.428538
Si Si4 0.109816 0.491687 0.920291
Si Si5 0.759281 0.602525 0.398039
Si Si6 0.412269 0.704162 0.534030
O O1 0.567463 0.536874 0.753407
O O2 0.556103 0.360861 0.607873
O O3 0.818036 0.738215 0.344605
O O4 0.759784 0.957320 0.465066
O O5 0.840079 0.889907 0.174678
O O6 0.500000 0.237198 0.250000
O O7 0.349058 0.352773 0.519582
O O8 0.504099 0.280486 0.463121
O O9 0.386407 0.116430 0.509663
O O10 0.178722 0.486982 0.743970
O O11 0.000000 0.500000 0.000000
O O12 0.124734 0.347704 0.950126
#
# Coordination Sequence:
#
# PCOD9282475 Si02
#       6
#     4   8   8   8   8   8
#     4  12  24  38  66 100 148 174 226 300 362 408
#     4  10  21  39  62  91 132 184 227 280 345 414
#     4  11  21  40  74  99 136 191 236 289 357 423
#     4   9  22  40  65  94 135 178 226 281 355 414
#     4  10  21  39  68  98 131 176 244 292 330 431
#     4  10  22  42  62  98 137 183 230 286 356 425
#
# _framework density 24.270333000000001
#
# number of rings (size 3 to 8) (size 9 to 14) (size 15 to 20)
#    0.000    1.818    1.818    1.636    3.818    4.364 
#    0.000    0.000    0.000    7.636    0.000    0.000 
#    0.000    0.000    0.000    0.000    0.000    0.000 
#
# Total GULP energy -122576.950968 kJ/mol
# GULP energy per Si atom -5571.679589 kJ/mol
# Density = 2.421509 g / cm^3
# Si number density = 24.270333 Si / 1000 Ang^3
#
#
#
# Elastic Constant Matrix: (Units=GPa)
#
#
# Indices 1 2 3 4 5 6 
#
# 1 75.0893 14.0530 12.9360 0.0000 -14.0776 0.0000
# 2 14.0530 90.3510 68.7538 0.0000 32.6191 0.0000
# 3 12.9360 68.7538 235.9052 0.0000 34.1554 0.0000
# 4 0.0000 0.0000 0.0000 42.3857 0.0000 5.1008
# 5 -14.0776 32.6191 34.1554 0.0000 43.7548 0.0000
# 6 0.0000 0.0000 0.0000 5.1008 0.0000 33.1070
#
#
#
# Elastic Compliance Matrix: (Units=1/GPa)
#
#
# Indices 1 2 3 4 5 6 
#
# 1 0.016368 -0.005620 -0.000709 0.000000 0.010009 0.000000
# 2 -0.005620 0.019450 -0.003381 0.000000 -0.013668 0.000000
# 3 -0.000709 -0.003381 0.005560 0.000000 -0.002047 0.000000
# 4 0.000000 0.000000 0.000000 0.024039 0.000000 -0.003704
# 5 0.010009 -0.013668 -0.002047 0.000000 0.037863 0.000000
# 6 0.000000 0.000000 0.000000 -0.003704 0.000000 0.030776
#
#
# Mechanical properties :
#
#
# Convention : Reuss Voigt Hill
#
# Bulk Modulus (GPa) = 45.54355 65.87012 55.70684
# Shear Modulus (GPa) = 31.09567 44.22303 37.65935
#
# Velocity S-wave (km/s) = 3.58330 4.27324 3.94339
# Velocity P-wave (km/s) = 5.99382 7.17959 6.61334
#
# Compressibility (1/GPa) = 0.02195701
#
# Stress axis : x y z
#
# Youngs Moduli (GPa) = 61.09532 51.41411 179.86361
#
# Poissons Ratio (x) = 0.28895 0.12748
# Poissons Ratio (y) = 0.34336 0.60820
# Poissons Ratio (z) = 0.04330 0.17385
#
# Static dielectric constant tensor:
#      x y z
#    x 2.132920 0.000000 -0.058580 
#    y 0.000000 1.986940 0.000000 
#    z -0.058580 0.000000 2.036320 
# 
# From -- ./inp_files/172905.got.cif
#   From: 2010.05.17/outbox.cif.g08.bks.cpg/sg15_87_cif.got.tgz:172905.got - 2010.06.03 18:47:42.
