data_PCOD9282616
_publ_section_title
;
Structure prediction by ZEFSAII (Michael W. Deem and Ramdas Pophale) SiO2 
 PCOD9282616
Probable space group: C 2/C
;
_chemical_formula_sum "Si O2"
_cell_formula_units_Z 40
_cell_length_a 8.299759
_cell_length_b 24.498920
_cell_length_c 8.440657
_cell_angle_alpha 90.000000
_cell_angle_beta 90.808822
_cell_angle_gamma 90.000000
_cell_volume 1716.111097
_symmetry_space_group_name_H-M "C 2/C"
_symmetry_group_IT_number 15
_symmetry_cell_setting 'monoclinic'
loop_
_space_group_symop_operation_xyz
x,y,z
-x,y,1/2-z
-x,-y,-z
x,-y,1/2+z
1/2+x,1/2+y,z
1/2-x,1/2+y,1/2-z
1/2-x,1/2-y,-z
1/2+x,1/2-y,1/2+z
loop_
_atom_site_type_symbol
_atom_site_label
_atom_site_fract_x
_atom_site_fract_y
_atom_site_fract_z
Si Si1 0.995883 0.226972 0.939194
Si Si2 0.660469 0.052741 0.851164
Si Si3 0.835823 0.143852 0.350123
Si Si4 0.666865 0.165723 0.035066
Si Si5 0.336899 0.467621 0.043988
O O1 0.832336 0.195266 0.985084
O O2 0.000000 0.224538 0.750000
O O3 0.971903 0.289586 0.990553
O O4 0.136316 0.194963 0.032688
O O5 0.500000 0.043289 0.750000
O O6 0.648968 0.111456 0.933285
O O7 0.806236 0.047150 0.726203
O O8 0.697304 0.008348 0.984674
O O9 0.822242 0.088476 0.447751
O O10 0.000000 0.138764 0.250000
O O11 0.695118 0.151925 0.220510
O O12 0.500000 0.500000 0.000000
#
# Coordination Sequence:
#
# PCOD9282616 Si02
#       5
#     8   8   8   8   8
#     4  10  21  39  63  92 128 174 232 285 332 398
#     4  12  26  43  66 100 142 180 223 284 354 418
#     4  10  21  39  64  95 130 170 228 291 339 398
#     4  10  23  40  61  93 134 178 222 276 348 415
#     4  12  24  43  71  99 133 181 238 287 339 410
#
# _framework density 23.308515
#
# number of rings (size 3 to 8) (size 9 to 14) (size 15 to 20)
#    0.000    1.200    0.000    7.200    0.000    6.400 
#    0.000    1.000    0.000    0.000    0.000    0.000 
#    0.000    0.000    0.000    0.000    0.000    0.000 
#
# Total GULP energy -112023.175430 kJ/mol
# GULP energy per Si atom -5601.158772 kJ/mol
# Density = 2.325546 g / cm^3
# Si number density = 23.308515 Si / 1000 Ang^3
#
#
#
# Elastic Constant Matrix: (Units=GPa)
#
#
# Indices 1 2 3 4 5 6 
#
# 1 85.4568 39.5188 23.9365 0.0000 11.7588 0.0000
# 2 39.5188 209.3244 86.2082 0.0000 6.3258 0.0000
# 3 23.9365 86.2082 130.4895 0.0000 -8.9605 0.0000
# 4 0.0000 0.0000 0.0000 20.7042 0.0000 -34.6140
# 5 11.7588 6.3258 -8.9605 0.0000 35.1035 0.0000
# 6 0.0000 0.0000 0.0000 -34.6140 0.0000 -5.0558
#
#
#
# Elastic Compliance Matrix: (Units=1/GPa)
#
#
# Indices 1 2 3 4 5 6 
#
# 1 0.013618 -0.001743 -0.001667 0.000000 -0.004673 0.000000
# 2 -0.001743 0.006979 -0.004414 0.000000 -0.001801 0.000000
# 3 -0.001667 -0.004414 0.011175 0.000000 0.004206 0.000000
# 4 0.000000 0.000000 0.000000 0.003881 0.000000 -0.026569
# 5 -0.004673 -0.001801 0.004206 0.000000 0.031451 0.000000
# 6 0.000000 0.000000 0.000000 -0.026569 0.000000 -0.015892
#
#
# Mechanical properties :
#
#
# Convention : Reuss Voigt Hill
#
# Bulk Modulus (GPa) = 62.02872 80.51083 71.26977
# Shear Modulus (GPa) = 69.21901 28.52421 48.87161
#
# Velocity S-wave (km/s) = 5.45540 3.50203 4.58397
# Velocity P-wave (km/s) = 8.14565 7.13924 7.65899
#
# Compressibility (1/GPa) = 0.01612156
#
# Stress axis : x y z
#
# Youngs Moduli (GPa) = 73.43252 143.29076 89.48867
#
# Poissons Ratio (x) = 0.24976 0.14921
# Poissons Ratio (y) = 0.12800 0.39505
# Poissons Ratio (z) = 0.12244 0.63255
#
# Static dielectric constant tensor:
#      x y z
#    x 1.902780 0.000000 0.015630 
#    y 0.000000 1.823030 0.000000 
#    z 0.015630 0.000000 1.839480 
# 
# From -- ./inp_files/23761.got.cif
#   From: 2010.05.17/outbox.cif.g08.bks.cpg/sg15_12_cif.got.tgz:23761.got - 2010.06.03 18:47:42.
