data_PCOD9282865
_publ_section_title
;
Structure prediction by ZEFSAII (Michael W. Deem and Ramdas Pophale) SiO2 
 PCOD9282865
Probable space group: C 2/C
;
_chemical_formula_sum "Si O2"
_cell_formula_units_Z 44
_cell_length_a 21.388732
_cell_length_b 11.655567
_cell_length_c 12.386944
_cell_angle_alpha 90.000000
_cell_angle_beta 139.442120
_cell_angle_gamma 90.000000
_cell_volume 2007.891252
_symmetry_space_group_name_H-M "C 2/C"
_symmetry_group_IT_number 15
_symmetry_cell_setting 'monoclinic'
loop_
_space_group_symop_operation_xyz
x,y,z
-x,y,1/2-z
-x,-y,-z
x,-y,1/2+z
1/2+x,1/2+y,z
1/2-x,1/2+y,1/2-z
1/2-x,1/2-y,-z
1/2+x,1/2-y,1/2+z
loop_
_atom_site_type_symbol
_atom_site_label
_atom_site_fract_x
_atom_site_fract_y
_atom_site_fract_z
Si Si1 0.588884 0.660139 0.701879
Si Si2 0.342724 0.481287 0.400086
Si Si3 0.500000 0.353619 0.750000
Si Si4 0.621708 0.298884 0.471922
Si Si5 0.473147 0.838053 0.040923
Si Si6 0.871172 0.434531 0.418751
O O1 0.608660 0.554212 0.649564
O O2 0.483840 0.666020 0.619211
O O3 0.651579 0.665511 0.890896
O O4 0.594522 0.770784 0.632961
O O5 0.413176 0.433267 0.588433
O O6 0.319733 0.616499 0.375101
O O7 0.237616 0.427646 0.264929
O O8 0.485080 0.262490 0.828011
O O9 0.623700 0.163253 0.483726
O O10 0.559413 0.893774 0.086572
O O11 0.411448 0.942200 0.010022
#
# Coordination Sequence:
#
# PCOD9282865 Si02
#       6
#     8   8   4   8   8   8
#     4   9  20  40  66  86 124 165 212 257 324 375
#     4  11  23  39  63  95 129 165 214 268 314 385
#     4  10  22  40  66  88 128 172 210 260 332 372
#     4  10  21  39  65  92 122 170 212 256 324 385
#     4   9  21  43  62  88 130 168 210 269 319 380
#     4  10  23  39  62  92 129 166 215 268 317 379
#
# _framework density 21.913537999999999
#
# number of rings (size 3 to 8) (size 9 to 14) (size 15 to 20)
#    0.000    2.182    0.000    1.636    5.091    8.727 
#    3.273    0.000    0.000    0.000    0.000    0.000 
#    0.000    0.000    0.000    0.000    0.000    0.000 
#
# Total GULP energy -122494.884075 kJ/mol
# GULP energy per Si atom -5567.949276 kJ/mol
# Density = 2.186366 g / cm^3
# Si number density = 21.913538 Si / 1000 Ang^3
#
#
#
# Elastic Constant Matrix: (Units=GPa)
#
#
# Indices 1 2 3 4 5 6 
#
# 1 41.8544 28.1958 32.6703 0.0000 -12.1455 0.0000
# 2 28.1958 101.6333 21.3463 0.0000 -24.9491 0.0000
# 3 32.6703 21.3463 47.5215 0.0000 -5.9931 0.0000
# 4 0.0000 0.0000 0.0000 14.8066 0.0000 -2.9084
# 5 -12.1455 -24.9491 -5.9931 0.0000 31.1680 0.0000
# 6 0.0000 0.0000 0.0000 -2.9084 0.0000 11.9590
#
#
#
# Elastic Compliance Matrix: (Units=1/GPa)
#
#
# Indices 1 2 3 4 5 6 
#
# 1 0.060590 -0.006116 -0.037455 0.000000 0.011513 0.000000
# 2 -0.006116 0.013818 -0.000930 0.000000 0.008498 0.000000
# 3 -0.037455 -0.000930 0.046401 0.000000 -0.006418 0.000000
# 4 0.000000 0.000000 0.000000 0.070926 0.000000 0.017249
# 5 0.011513 0.008498 -0.006418 0.000000 0.042139 0.000000
# 6 0.000000 0.000000 0.000000 0.017249 0.000000 0.087814
#
#
# Mechanical properties :
#
#
# Convention : Reuss Voigt Hill
#
# Bulk Modulus (GPa) = 31.44105 39.49264 35.46685
# Shear Modulus (GPa) = 11.86822 18.83983 15.35403
#
# Velocity S-wave (km/s) = 2.32974 2.93530 2.64988
# Velocity P-wave (km/s) = 4.64928 5.43592 5.05792
#
# Compressibility (1/GPa) = 0.03180555
#
# Stress axis : x y z
#
# Youngs Moduli (GPa) = 16.50441 72.37091 21.55103
#
# Poissons Ratio (x) = 0.44264 0.80720
# Poissons Ratio (y) = 0.10095 0.02005
# Poissons Ratio (z) = 0.61818 0.06732
#
# Static dielectric constant tensor:
#      x y z
#    x 1.786450 0.000000 0.029320 
#    y 0.000000 1.903620 0.000000 
#    z 0.029320 0.000000 1.945200 
# 
# From -- ./inp_files/111287.got.cif
#   From: 2010.05.17/outbox.cif.g08.bks.cpg/sg15_56_cif.got.tgz:111287.got - 2010.06.03 18:47:42.
