data_PCOD9282994
_publ_section_title
;
Structure prediction by ZEFSAII (Michael W. Deem and Ramdas Pophale) SiO2 
 PCOD9282994
Probable space group: C 2/C
;
_chemical_formula_sum "Si O2"
_cell_formula_units_Z 64
_cell_length_a 30.625779
_cell_length_b 14.532559
_cell_length_c 8.929890
_cell_angle_alpha 90.000000
_cell_angle_beta 50.143285
_cell_angle_gamma 90.000000
_cell_volume 3050.972790
_symmetry_space_group_name_H-M "C 2/C"
_symmetry_group_IT_number 15
_symmetry_cell_setting 'monoclinic'
loop_
_space_group_symop_operation_xyz
x,y,z
-x,y,1/2-z
-x,-y,-z
x,-y,1/2+z
1/2+x,1/2+y,z
1/2-x,1/2+y,1/2-z
1/2-x,1/2-y,-z
1/2+x,1/2-y,1/2+z
loop_
_atom_site_type_symbol
_atom_site_label
_atom_site_fract_x
_atom_site_fract_y
_atom_site_fract_z
Si Si1 0.067633 0.777004 0.599691
Si Si2 0.621799 0.623990 0.488433
Si Si3 0.865537 0.935530 0.207212
Si Si4 0.413966 0.209697 0.604842
Si Si5 0.560088 0.960548 0.624263
Si Si6 0.292134 0.225134 0.776792
Si Si7 0.614979 0.106611 0.312121
Si Si8 0.256684 0.148639 0.555087
O O1 0.102827 0.868106 0.479454
O O2 0.080953 0.738628 0.735627
O O3 0.088629 0.701510 0.432468
O O4 0.000000 0.792980 0.750000
O O5 0.625392 0.539434 0.366462
O O6 0.611009 0.587797 0.678725
O O7 0.578808 0.701018 0.517867
O O8 0.681074 0.682252 0.356277
O O9 0.798333 0.912156 0.358002
O O10 0.449803 0.124298 0.468465
O O11 0.348796 0.178708 0.717608
O O12 0.500000 0.013006 0.750000
O O13 0.581725 0.923416 0.735036
O O14 0.605497 0.030141 0.458269
O O15 0.261521 0.163653 0.722155
O O16 0.250000 0.250000 0.000000
O O17 0.681678 0.114725 0.132413
O O18 0.250000 0.250000 0.500000
#
# Coordination Sequence:
#
# PCOD9282994 Si02
#       8
#     8   8   8   8   8   8   8   8
#     4  12  24  43  70  98 130 176 223 279 336 398
#     4  10  24  42  66  95 134 173 220 270 334 392
#     4  12  24  43  68  98 136 176 223 276 335 397
#     4  10  22  43  63  94 131 170 224 266 334 392
#     4  12  24  44  68  99 138 177 224 279 329 405
#     4  10  21  39  66  92 129 168 219 267 328 395
#     4  12  25  43  66 101 137 174 229 267 344 400
#     4  12  22  43  68  94 134 178 216 278 329 398
#
# _framework density 20.976915999999999
#
# number of rings (size 3 to 8) (size 9 to 14) (size 15 to 20)
#    0.750    0.000    3.750    4.500    1.750    2.000 
#    0.000    3.125    0.000    0.000    0.000    0.000 
#    0.000    0.000    0.000    0.000    0.000    0.000 
#
# Total GULP energy -178794.983283 kJ/mol
# GULP energy per Si atom -5587.343228 kJ/mol
# Density = 2.092917 g / cm^3
# Si number density = 20.976916 Si / 1000 Ang^3
#
#
#
# Elastic Constant Matrix: (Units=GPa)
#
#
# Indices 1 2 3 4 5 6 
#
# 1 68.6685 -11.8083 18.0931 0.0000 -0.0236 0.0000
# 2 -11.8083 55.4466 -11.6127 0.0000 -9.8993 0.0000
# 3 18.0931 -11.6127 65.4039 0.0000 -6.5276 0.0000
# 4 0.0000 0.0000 0.0000 38.5231 0.0000 5.7026
# 5 -0.0236 -9.8993 -6.5276 0.0000 37.1921 0.0000
# 6 0.0000 0.0000 0.0000 5.7026 0.0000 21.5334
#
#
#
# Elastic Compliance Matrix: (Units=1/GPa)
#
#
# Indices 1 2 3 4 5 6 
#
# 1 0.016057 0.002585 -0.003983 0.000000 -0.000001 0.000000
# 2 0.002585 0.020401 0.003511 0.000000 0.006048 0.000000
# 3 -0.003983 0.003511 0.017413 0.000000 0.003988 0.000000
# 4 0.000000 0.000000 0.000000 0.027018 0.000000 -0.007155
# 5 -0.000001 0.006048 0.003988 0.000000 0.029197 0.000000
# 6 0.000000 0.000000 0.000000 -0.007155 0.000000 0.048334
#
#
# Mechanical properties :
#
#
# Convention : Reuss Voigt Hill
#
# Bulk Modulus (GPa) = 17.21275 19.87371 18.54323
# Shear Modulus (GPa) = 28.80864 32.43951 30.62407
#
# Velocity S-wave (km/s) = 3.70989 3.93674 3.82500
# Velocity P-wave (km/s) = 5.15504 5.49168 5.32602
#
# Compressibility (1/GPa) = 0.05809648
#
# Stress axis : x y z
#
# Youngs Moduli (GPa) = 62.27927 49.01726 57.42905
#
# Poissons Ratio (x) = -0.12672 0.22874
# Poissons Ratio (y) = -0.16101 -0.20162
# Poissons Ratio (z) = 0.24805 -0.17208
#
# Static dielectric constant tensor:
#      x y z
#    x 1.774490 0.000000 -0.038880 
#    y 0.000000 1.758300 0.000000 
#    z -0.038880 0.000000 1.949260 
# 
# From -- ./inp_files/70122.got.cif
#   From: 2010.05.17/outbox.cif.g08.bks.cpg/sg15_36_cif.got.tgz:70122.got - 2010.06.03 18:47:42.
