data_PCOD9282121
_publ_section_title
;
Structure prediction by ZEFSAII (Michael W. Deem and Ramdas Pophale) SiO2 
 PCOD9282121
Probable space group: C 2/C
;
_chemical_formula_sum "Si O2"
_cell_formula_units_Z 64
_cell_length_a 9.848120
_cell_length_b 10.113924
_cell_length_c 29.902487
_cell_angle_alpha 90.000000
_cell_angle_beta 93.816634
_cell_angle_gamma 90.000000
_cell_volume 2971.776019
_symmetry_space_group_name_H-M "C 2/C"
_symmetry_group_IT_number 15
_symmetry_cell_setting 'monoclinic'
loop_
_space_group_symop_operation_xyz
x,y,z
-x,y,1/2-z
-x,-y,-z
x,-y,1/2+z
1/2+x,1/2+y,z
1/2-x,1/2+y,1/2-z
1/2-x,1/2-y,-z
1/2+x,1/2-y,1/2+z
loop_
_atom_site_type_symbol
_atom_site_label
_atom_site_fract_x
_atom_site_fract_y
_atom_site_fract_z
Si Si1 0.596011 0.551820 0.208843
Si Si2 0.763937 0.214440 0.420244
Si Si3 0.186013 0.743197 0.316135
Si Si4 0.615349 0.733929 0.677172
Si Si5 0.464718 0.751829 0.926678
Si Si6 0.348769 0.468592 0.479768
Si Si7 0.323218 0.989593 0.436141
Si Si8 0.826655 0.956484 0.658697
O O1 0.500000 0.552943 0.250000
O O2 0.712398 0.661695 0.212601
O O3 0.652893 0.404560 0.201080
O O4 0.485143 0.577924 0.167173
O O5 0.727695 0.199589 0.367387
O O6 0.623675 0.268962 0.439413
O O7 0.864761 0.336884 0.431256
O O8 0.809874 0.079396 0.442802
O O9 0.026690 0.715451 0.304795
O O10 0.198387 0.902613 0.317234
O O11 0.571755 0.707761 0.624484
O O12 0.732469 0.842592 0.677263
O O13 0.364528 0.673645 0.956955
O O14 0.443670 0.908269 0.930164
O O15 0.500000 0.500000 0.500000
O O16 0.243379 0.478988 0.517898
O O17 0.217473 0.021229 0.393491
#
# Coordination Sequence:
#
# PCOD9282121 Si02
#       8
#     8   8   8   8   8   8   8   8
#     4  11  23  38  61  92 119 147 185 234 291 353
#     4  10  21  39  56  80 111 155 191 236 283 332
#     4   9  20  38  62  83 116 150 194 236 282 343
#     4   9  20  41  63  84 115 155 192 234 287 341
#     4  10  21  40  58  82 114 149 196 239 278 332
#     4  12  23  34  56  84 118 154 192 237 288 329
#     4  10  21  39  57  81 114 151 196 241 282 330
#     4   9  21  40  60  84 116 154 194 239 284 341
#
# _framework density 21.535944000000001
#
# number of rings (size 3 to 8) (size 9 to 14) (size 15 to 20)
#    0.000    2.000    1.250    2.250    1.750    3.500 
#    2.250    3.125    0.000    0.000    0.000    0.000 
#    0.000    0.000    0.000    0.000    0.000    0.000 
#
# Total GULP energy -178820.063925 kJ/mol
# GULP energy per Si atom -5588.126998 kJ/mol
# Density = 2.148693 g / cm^3
# Si number density = 21.535944 Si / 1000 Ang^3
#
#
#
# Elastic Constant Matrix: (Units=GPa)
#
#
# Indices 1 2 3 4 5 6 
#
# 1 41.5254 15.3921 -2.6585 0.0000 2.0784 0.0000
# 2 15.3921 68.3805 3.4090 0.0000 3.4212 0.0000
# 3 -2.6585 3.4090 52.6396 0.0000 -3.2895 0.0000
# 4 0.0000 0.0000 0.0000 12.4330 0.0000 -14.5787
# 5 2.0784 3.4212 -3.2895 0.0000 18.9093 0.0000
# 6 0.0000 0.0000 0.0000 -14.5787 0.0000 33.5022
#
#
#
# Elastic Compliance Matrix: (Units=1/GPa)
#
#
# Indices 1 2 3 4 5 6 
#
# 1 0.026473 -0.005963 0.001626 0.000000 -0.001548 0.000000
# 2 -0.005963 0.016168 -0.001506 0.000000 -0.002532 0.000000
# 3 0.001626 -0.001506 0.019393 0.000000 0.003468 0.000000
# 4 0.000000 0.000000 0.000000 0.164230 0.000000 0.071466
# 5 -0.001548 -0.002532 0.003468 0.000000 0.054116 0.000000
# 6 0.000000 0.000000 0.000000 0.071466 0.000000 0.060948
#
#
# Mechanical properties :
#
#
# Convention : Reuss Voigt Hill
#
# Bulk Modulus (GPa) = 19.86112 21.64784 20.75448
# Shear Modulus (GPa) = 13.52093 22.72910 18.12501
#
# Velocity S-wave (km/s) = 2.50837 3.25222 2.90421
# Velocity P-wave (km/s) = 4.19900 4.91695 4.57209
#
# Compressibility (1/GPa) = 0.05034963
#
# Stress axis : x y z
#
# Youngs Moduli (GPa) = 37.77373 61.85062 51.56368
#
# Poissons Ratio (x) = 0.36879 -0.08386
# Poissons Ratio (y) = 0.22523 0.07768
# Poissons Ratio (z) = -0.06144 0.09317
#
# Static dielectric constant tensor:
#      x y z
#    x 1.758530 0.000000 0.019820 
#    y 0.000000 1.761200 0.000000 
#    z 0.019820 0.000000 1.844710 
# 
# From -- ./inp_files/310315.got.cif
#   From: 2010.05.17/outbox.cif.g08.bks.cpg/sg15_156_cif.got.tgz:310315.got - 2010.06.03 18:47:42.
