data_PCOD9282027
_publ_section_title
;
Structure prediction by ZEFSAII (Michael W. Deem and Ramdas Pophale) SiO2 
 PCOD9282027
Probable space group: C 2/C
;
_chemical_formula_sum "Si O2"
_cell_formula_units_Z 40
_cell_length_a 15.273436
_cell_length_b 15.108080
_cell_length_c 8.947858
_cell_angle_alpha 90.000000
_cell_angle_beta 68.641391
_cell_angle_gamma 90.000000
_cell_volume 1922.930766
_symmetry_space_group_name_H-M "C 2/C"
_symmetry_group_IT_number 15
_symmetry_cell_setting 'monoclinic'
loop_
_space_group_symop_operation_xyz
x,y,z
-x,y,1/2-z
-x,-y,-z
x,-y,1/2+z
1/2+x,1/2+y,z
1/2-x,1/2+y,1/2-z
1/2-x,1/2-y,-z
1/2+x,1/2-y,1/2+z
loop_
_atom_site_type_symbol
_atom_site_label
_atom_site_fract_x
_atom_site_fract_y
_atom_site_fract_z
Si Si1 0.000000 0.728783 0.250000
Si Si2 0.077457 0.434655 0.878460
Si Si3 0.378962 0.410753 0.092022
Si Si4 0.792404 0.498815 0.958481
Si Si5 0.681056 0.320461 0.113437
Si Si6 0.500000 0.530313 0.250000
O O1 0.961589 0.660829 0.146760
O O2 0.922744 0.792058 0.378005
O O3 0.119640 0.472031 0.698101
O O4 0.165947 0.439701 0.936983
O O5 0.000000 0.500000 0.000000
O O6 0.283588 0.455155 0.097682
O O7 0.344361 0.322245 0.194981
O O8 0.433152 0.468322 0.187041
O O9 0.443169 0.411577 0.905137
O O10 0.735324 0.412189 0.049529
O O11 0.750000 0.250000 0.000000
#
# Coordination Sequence:
#
# PCOD9282027 Si02
#       6
#     4   8   8   8   8   4
#     4  12  27  42  70 103 146 186 228 298 379 416
#     4  12  22  44  71 101 132 192 248 285 345 439
#     4  11  22  41  70 103 136 186 238 288 353 436
#     4  12  23  42  75  99 132 183 251 288 338 435
#     4  12  24  43  68 103 143 184 232 302 371 420
#     4  10  21  38  68 103 134 174 236 284 345 430
#
# _framework density 20.801580000000001
#
# number of rings (size 3 to 8) (size 9 to 14) (size 15 to 20)
#    0.000    0.400    8.000    0.600    2.800    0.000 
#    0.000    1.000    4.400    0.000    0.000    0.000 
#    0.000    0.000    0.000    0.000    0.000    0.000 
#
# Total GULP energy -111396.216574 kJ/mol
# GULP energy per Si atom -5569.810829 kJ/mol
# Density = 2.075423 g / cm^3
# Si number density = 20.801580 Si / 1000 Ang^3
#
#
#
# Elastic Constant Matrix: (Units=GPa)
#
#
# Indices 1 2 3 4 5 6 
#
# 1 128.5595 47.8384 42.4343 0.0000 7.3697 0.0000
# 2 47.8384 84.4895 46.1040 0.0000 0.2822 0.0000
# 3 42.4343 46.1040 161.6704 0.0000 -21.8822 0.0000
# 4 0.0000 0.0000 0.0000 33.5101 0.0000 -9.5563
# 5 7.3697 0.2822 -21.8822 0.0000 57.9138 0.0000
# 6 0.0000 0.0000 0.0000 -9.5563 0.0000 46.1636
#
#
#
# Elastic Compliance Matrix: (Units=1/GPa)
#
#
# Indices 1 2 3 4 5 6 
#
# 1 0.010232 -0.004956 -0.001523 0.000000 -0.001853 0.000000
# 2 -0.004956 0.016571 -0.003531 0.000000 -0.000784 0.000000
# 3 -0.001523 -0.003531 0.008031 0.000000 0.003246 0.000000
# 4 0.000000 0.000000 0.000000 0.031714 0.000000 0.006565
# 5 -0.001853 -0.000784 0.003246 0.000000 0.018733 0.000000
# 6 0.000000 0.000000 0.000000 0.006565 0.000000 0.023021
#
#
# Mechanical properties :
#
#
# Convention : Reuss Voigt Hill
#
# Bulk Modulus (GPa) = 67.50236 71.94140 69.72188
# Shear Modulus (GPa) = 37.52050 43.40703 40.46376
#
# Velocity S-wave (km/s) = 4.25165 4.57302 4.41526
# Velocity P-wave (km/s) = 7.52483 7.90841 7.71900
#
# Compressibility (1/GPa) = 0.01481430
#
# Stress axis : x y z
#
# Youngs Moduli (GPa) = 97.73620 60.34545 124.51050
#
# Poissons Ratio (x) = 0.29907 0.18964
# Poissons Ratio (y) = 0.48437 0.43965
# Poissons Ratio (z) = 0.14886 0.21308
#
# Static dielectric constant tensor:
#      x y z
#    x 1.853060 0.000000 -0.002910 
#    y 0.000000 1.791410 0.000000 
#    z -0.002910 0.000000 1.782540 
# 
# From -- ./inp_files/37897.got.cif
#   From: 2010.05.17/outbox.cif.g08.bks.cpg/sg15_19_cif.got.tgz:37897.got - 2010.06.03 18:47:42.
