data_PCOD9282709
_publ_section_title
;
Structure prediction by ZEFSAII (Michael W. Deem and Ramdas Pophale) SiO2 
 PCOD9282709
Probable space group: C 2/C
;
_chemical_formula_sum "Si O2"
_cell_formula_units_Z 60
_cell_length_a 18.820598
_cell_length_b 12.561984
_cell_length_c 21.949148
_cell_angle_alpha 90.000000
_cell_angle_beta 37.322021
_cell_angle_gamma 90.000000
_cell_volume 3146.245837
_symmetry_space_group_name_H-M "C 2/C"
_symmetry_group_IT_number 15
_symmetry_cell_setting 'monoclinic'
loop_
_space_group_symop_operation_xyz
x,y,z
-x,y,1/2-z
-x,-y,-z
x,-y,1/2+z
1/2+x,1/2+y,z
1/2-x,1/2+y,1/2-z
1/2-x,1/2-y,-z
1/2+x,1/2-y,1/2+z
loop_
_atom_site_type_symbol
_atom_site_label
_atom_site_fract_x
_atom_site_fract_y
_atom_site_fract_z
Si Si1 0.557874 0.796452 0.520292
Si Si2 0.855420 0.855239 0.205683
Si Si3 0.556610 0.986071 0.089061
Si Si4 0.500000 0.100018 0.250000
Si Si5 0.563149 0.575968 0.304611
Si Si6 0.184176 0.783769 0.127551
Si Si7 0.898163 0.295818 0.152907
Si Si8 0.165929 0.016423 0.102758
O O1 0.451428 0.724259 0.613886
O O2 0.677602 0.765766 0.473889
O O3 0.576476 0.780610 0.436028
O O4 0.540660 0.920412 0.549642
O O5 0.833859 0.818094 0.289921
O O6 0.732838 0.843497 0.254362
O O7 0.899933 0.976017 0.178971
O O8 0.491917 0.879770 0.113455
O O9 0.498900 0.029709 0.190347
O O10 0.696144 0.968278 0.002260
O O11 0.609680 0.179267 0.167297
O O12 0.593557 0.685900 0.316226
O O13 0.631163 0.559877 0.193729
O O14 0.425426 0.567526 0.381802
O O15 0.144425 0.888540 0.118036
#
# Coordination Sequence:
#
# PCOD9282709 Si02
#       8
#     8   8   8   4   8   8   8   8
#     4  10  22  40  66  87 122 164 206 260 317 369
#     4  10  21  39  64  88 123 158 206 266 306 365
#     4  11  25  41  64  94 125 170 205 261 317 377
#     4  12  22  36  64  96 136 150 206 276 312 364
#     4  10  22  41  64  92 122 164 209 259 307 375
#     4   9  19  37  62  99 117 158 209 260 319 358
#     4  11  26  40  61  94 123 168 214 249 311 378
#     4   9  21  41  67  87 127 171 210 246 317 384
#
# _framework density 19.070347000000002
#
# number of rings (size 3 to 8) (size 9 to 14) (size 15 to 20)
#    0.000    1.867    1.333    2.800    5.600    3.200 
#    2.400    0.000    0.000    0.000    0.000    0.000 
#    0.000    0.000    0.000    0.000    0.000    0.000 
#
# Total GULP energy -167636.466446 kJ/mol
# GULP energy per Si atom -5587.882215 kJ/mol
# Density = 1.902694 g / cm^3
# Si number density = 19.070347 Si / 1000 Ang^3
#
#
#
# Elastic Constant Matrix: (Units=GPa)
#
#
# Indices 1 2 3 4 5 6 
#
# 1 85.1835 63.3534 27.9460 0.0000 -13.1855 0.0000
# 2 63.3534 116.8188 40.0643 0.0000 -14.9889 0.0000
# 3 27.9460 40.0643 76.9014 0.0000 -17.9313 0.0000
# 4 0.0000 0.0000 0.0000 9.8611 0.0000 -20.2628
# 5 -13.1855 -14.9889 -17.9313 0.0000 33.1809 0.0000
# 6 0.0000 0.0000 0.0000 -20.2628 0.0000 0.6947
#
#
#
# Elastic Compliance Matrix: (Units=1/GPa)
#
#
# Indices 1 2 3 4 5 6 
#
# 1 0.020117 -0.010074 -0.001441 0.000000 0.002665 0.000000
# 2 -0.010074 0.015588 -0.004293 0.000000 0.000719 0.000000
# 3 -0.001441 -0.004293 0.017366 0.000000 0.006873 0.000000
# 4 0.000000 0.000000 0.000000 -0.001721 0.000000 -0.050189
# 5 0.002665 0.000719 0.006873 0.000000 0.035236 0.000000
# 6 0.000000 0.000000 0.000000 -0.050189 0.000000 -0.024425
#
#
# Mechanical properties :
#
#
# Convention : Reuss Voigt Hill
#
# Bulk Modulus (GPa) = 46.60596 60.18122 53.39359
# Shear Modulus (GPa) = 49.54076 18.58335 34.06205
#
# Velocity S-wave (km/s) = 5.10238 3.12503 4.23084
# Velocity P-wave (km/s) = 7.69444 6.68184 7.20595
#
# Compressibility (1/GPa) = 0.02145649
#
# Stress axis : x y z
#
# Youngs Moduli (GPa) = 49.71038 64.15267 57.58264
#
# Poissons Ratio (x) = 0.64625 0.08297
# Poissons Ratio (y) = 0.50076 0.24718
# Poissons Ratio (z) = 0.07163 0.27539
#
# Static dielectric constant tensor:
#      x y z
#    x 1.660330 0.000000 -0.007210 
#    y 0.000000 1.621550 0.000000 
#    z -0.007210 0.000000 1.673830 
# 
# From -- ./inp_files/248755.got.cif
#   From: 2010.05.17/outbox.cif.g08.bks.cpg/sg15_125_cif.got.tgz:248755.got - 2010.06.03 18:47:42.
