data_PCOD9282059
_publ_section_title
;
Structure prediction by ZEFSAII (Michael W. Deem and Ramdas Pophale) SiO2 
 PCOD9282059
Probable space group: C 2/C
;
_chemical_formula_sum "Si O2"
_cell_formula_units_Z 52
_cell_length_a 5.464352
_cell_length_b 21.476632
_cell_length_c 19.180439
_cell_angle_alpha 90.000000
_cell_angle_beta 94.110044
_cell_angle_gamma 90.000000
_cell_volume 2245.148357
_symmetry_space_group_name_H-M "C 2/C"
_symmetry_group_IT_number 15
_symmetry_cell_setting 'monoclinic'
loop_
_space_group_symop_operation_xyz
x,y,z
-x,y,1/2-z
-x,-y,-z
x,-y,1/2+z
1/2+x,1/2+y,z
1/2-x,1/2+y,1/2-z
1/2-x,1/2-y,-z
1/2+x,1/2-y,1/2+z
loop_
_atom_site_type_symbol
_atom_site_label
_atom_site_fract_x
_atom_site_fract_y
_atom_site_fract_z
Si Si1 0.294168 0.918758 0.510363
Si Si2 0.020628 0.615437 0.866962
Si Si3 0.795361 0.007464 0.687209
Si Si4 0.204810 0.750362 0.913552
Si Si5 0.500000 0.899750 0.750000
Si Si6 0.807884 0.318037 0.626908
Si Si7 0.379290 0.466077 0.422531
O O1 0.439825 0.901370 0.444290
O O2 0.352695 0.868624 0.568370
O O3 0.009435 0.920450 0.479431
O O4 0.304919 0.986173 0.546198
O O5 0.823485 0.577217 0.817110
O O6 0.105568 0.686184 0.875483
O O7 0.261715 0.574759 0.860240
O O8 0.000000 0.002727 0.750000
O O9 0.909156 0.996691 0.612993
O O10 0.620412 0.949163 0.699364
O O11 0.463890 0.770035 0.882163
O O12 0.967802 0.793530 0.892489
O O13 0.250000 0.750000 0.000000
O O14 0.330221 0.853561 0.701178
#
# Coordination Sequence:
#
# PCOD9282059 Si02
#       7
#     8   8   8   8   4   8   8
#     4  10  21  38  69 105 149 182 246 309 386 436
#     4  11  23  42  69 109 145 189 250 310 381 451
#     4  11  24  44  72 100 145 198 252 318 385 458
#     4  12  27  49  80 112 154 202 259 318 389 449
#     4  12  30  52  72 108 150 200 262 310 398 462
#     4  12  28  48  78 110 153 210 252 319 373 473
#     4  10  22  38  68 108 141 187 244 320 384 447
#
# _framework density 23.161054
#
# number of rings (size 3 to 8) (size 9 to 14) (size 15 to 20)
#    0.000    0.923    1.538    4.615    8.615    1.231 
#    1.385    1.538    0.000    0.000    0.000    0.000 
#    0.000    0.000    0.000    0.000    0.000    0.000 
#
# Total GULP energy -144940.262754 kJ/mol
# GULP energy per Si atom -5574.625491 kJ/mol
# Density = 2.310834 g / cm^3
# Si number density = 23.161054 Si / 1000 Ang^3
#
#
#
# Elastic Constant Matrix: (Units=GPa)
#
#
# Indices 1 2 3 4 5 6 
#
# 1 75.8378 33.4540 25.4596 0.0000 9.8817 0.0000
# 2 33.4540 73.6830 6.6856 0.0000 16.7387 0.0000
# 3 25.4596 6.6856 71.1039 0.0000 15.5016 0.0000
# 4 0.0000 0.0000 0.0000 37.6143 0.0000 19.3573
# 5 9.8817 16.7387 15.5016 0.0000 44.8591 0.0000
# 6 0.0000 0.0000 0.0000 19.3573 0.0000 22.7000
#
#
#
# Elastic Compliance Matrix: (Units=1/GPa)
#
#
# Indices 1 2 3 4 5 6 
#
# 1 0.018729 -0.008185 -0.006168 0.000000 0.001060 0.000000
# 2 -0.008185 0.018408 0.002492 0.000000 -0.005927 0.000000
# 3 -0.006168 0.002492 0.017244 0.000000 -0.005530 0.000000
# 4 0.000000 0.000000 0.000000 0.047377 0.000000 -0.040400
# 5 0.001060 -0.005927 -0.005530 0.000000 0.026181 0.000000
# 6 0.000000 0.000000 0.000000 -0.040400 0.000000 0.078504
#
#
# Mechanical properties :
#
#
# Convention : Reuss Voigt Hill
#
# Bulk Modulus (GPa) = 32.61566 39.09147 35.85356
# Shear Modulus (GPa) = 20.80021 31.36971 26.08496
#
# Velocity S-wave (km/s) = 3.00003 3.68423 3.35959
# Velocity P-wave (km/s) = 5.11008 5.91716 5.52837
#
# Compressibility (1/GPa) = 0.03066012
#
# Stress axis : x y z
#
# Youngs Moduli (GPa) = 53.39344 54.32430 57.99256
#
# Poissons Ratio (x) = 0.44462 0.35767
# Poissons Ratio (y) = 0.43700 -0.14451
# Poissons Ratio (z) = 0.32931 -0.13537
#
# Static dielectric constant tensor:
#      x y z
#    x 2.019060 0.000000 0.014420 
#    y 0.000000 1.914960 0.000000 
#    z 0.014420 0.000000 1.903810 
# 
# From -- ./inp_files/227586.got.cif
#   From: 2010.05.17/outbox.cif.g08.bks.cpg/sg15_114_cif.got.tgz:227586.got - 2010.06.03 18:47:42.
