data_PCOD9282458
_publ_section_title
;
Structure prediction by ZEFSAII (Michael W. Deem and Ramdas Pophale) SiO2 
 PCOD9282458
Probable space group: C 2/C
;
_chemical_formula_sum "Si O2"
_cell_formula_units_Z 48
_cell_length_a 19.664407
_cell_length_b 17.644440
_cell_length_c 11.459741
_cell_angle_alpha 90.000000
_cell_angle_beta 30.125260
_cell_angle_gamma 90.000000
_cell_volume 1995.601871
_symmetry_space_group_name_H-M "C 2/C"
_symmetry_group_IT_number 15
_symmetry_cell_setting 'monoclinic'
loop_
_space_group_symop_operation_xyz
x,y,z
-x,y,1/2-z
-x,-y,-z
x,-y,1/2+z
1/2+x,1/2+y,z
1/2-x,1/2+y,1/2-z
1/2-x,1/2-y,-z
1/2+x,1/2-y,1/2+z
loop_
_atom_site_type_symbol
_atom_site_label
_atom_site_fract_x
_atom_site_fract_y
_atom_site_fract_z
Si Si1 0.609586 0.789772 0.002281
Si Si2 0.250187 0.359231 0.248700
Si Si3 0.150033 0.141299 0.652477
Si Si4 0.540100 0.195312 0.348075
Si Si5 0.279488 0.504120 0.562378
Si Si6 0.344189 0.044087 0.003347
O O1 0.723017 0.729548 0.806980
O O2 0.528987 0.809210 0.004174
O O3 0.669847 0.865369 0.967782
O O4 0.500000 0.754599 0.250000
O O5 0.341269 0.382281 0.224674
O O6 0.307540 0.409093 0.057526
O O7 0.085966 0.355155 0.510553
O O8 0.307578 0.165113 0.398336
O O9 0.054765 0.216025 0.788051
O O10 0.130253 0.070511 0.595815
O O11 0.221052 0.513452 0.518493
O O12 0.198950 0.484546 0.803448
O O13 0.500000 0.027534 0.750000
#
# Coordination Sequence:
#
# PCOD9282458 Si02
#       6
#     8   8   8   8   8   8
#     4  10  22  41  63  91 130 166 216 275 322 389
#     4  11  23  39  70  95 122 177 224 262 331 400
#     4  10  22  39  60  94 135 167 215 275 327 388
#     4  10  21  39  62  90 130 173 215 264 328 395
#     4  12  23  38  63  96 133 167 217 280 332 388
#     4  11  23  37  60  92 129 168 212 275 336 380
#
# _framework density 24.052893999999998
#
# number of rings (size 3 to 8) (size 9 to 14) (size 15 to 20)
#    0.000    1.333    3.333    3.000    2.333    2.667 
#    0.000    0.000    3.667    3.000    0.000    0.000 
#    0.000    0.000    0.000    0.000    0.000    0.000 
#
# Total GULP energy -133703.381277 kJ/mol
# GULP energy per Si atom -5570.974220 kJ/mol
# Density = 2.399815 g / cm^3
# Si number density = 24.052894 Si / 1000 Ang^3
#
#
#
# Elastic Constant Matrix: (Units=GPa)
#
#
# Indices 1 2 3 4 5 6 
#
# 1 -27.9065 102.7390 -18.2495 0.0006 49.3531 0.0001
# 2 102.7390 96.8972 59.0914 -0.0001 -0.0950 -0.0001
# 3 -18.2495 59.0914 11.7284 0.0006 37.1858 0.0000
# 4 0.0006 -0.0001 0.0006 20.8287 -0.0002 49.8741
# 5 49.3531 -0.0950 37.1858 -0.0002 29.7588 0.0000
# 6 0.0001 -0.0001 0.0000 49.8741 0.0000 21.6731
#
#
#
# Elastic Compliance Matrix: (Units=1/GPa)
#
#
# Indices 1 2 3 4 5 6 
#
# 1 0.014599 0.002459 -0.029395 0.000000 0.012528 0.000000
# 2 0.002459 0.005469 0.003664 0.000000 -0.008640 0.000000
# 3 -0.029395 0.003664 0.045087 0.000000 -0.007578 0.000000
# 4 0.000000 0.000000 0.000000 -0.010645 0.000000 0.024496
# 5 0.012528 -0.008640 -0.007578 0.000000 0.022268 0.000000
# 6 0.000000 0.000000 0.000000 0.024496 0.000000 -0.010230
#
#
# Mechanical properties :
#
#
# Convention : Reuss Voigt Hill
#
# Bulk Modulus (GPa) = 53.72765 40.87565 47.30165
# Shear Modulus (GPa) = 41.91275 10.26133 26.08704
#
# Velocity S-wave (km/s) = 4.17888 2.06771 3.29685
# Velocity P-wave (km/s) = 6.75795 4.76776 5.84814
#
# Compressibility (1/GPa) = 0.01861239
#
# Stress axis : x y z
#
# Youngs Moduli (GPa) = 68.49783 182.83449 22.17939
#
# Poissons Ratio (x) = -0.44966 0.65197
# Poissons Ratio (y) = -0.16846 -0.08127
# Poissons Ratio (z) = 2.01351 -0.66997
#
# Static dielectric constant tensor:
#      x y z
#    x 2.048140 0.000000 0.058660 
#    y 0.000000 2.002760 0.000000 
#    z 0.058660 0.000000 1.940380 
# 
# From -- ./inp_files/119359.got.cif
#   From: 2010.05.17/outbox.cif.g08.bks.cpg/sg15_60_cif.got.tgz:119359.got - 2010.06.03 18:47:42.
