data_PCOD9282642
_publ_section_title
;
Structure prediction by ZEFSAII (Michael W. Deem and Ramdas Pophale) SiO2 
 PCOD9282642
Probable space group: C 2/C
;
_chemical_formula_sum "Si O2"
_cell_formula_units_Z 44
_cell_length_a 14.806034
_cell_length_b 7.385157
_cell_length_c 20.760077
_cell_angle_alpha 90.000000
_cell_angle_beta 127.200995
_cell_angle_gamma 90.000000
_cell_volume 1808.105647
_symmetry_space_group_name_H-M "C 2/C"
_symmetry_group_IT_number 15
_symmetry_cell_setting 'monoclinic'
loop_
_space_group_symop_operation_xyz
x,y,z
-x,y,1/2-z
-x,-y,-z
x,-y,1/2+z
1/2+x,1/2+y,z
1/2-x,1/2+y,1/2-z
1/2-x,1/2-y,-z
1/2+x,1/2-y,1/2+z
loop_
_atom_site_type_symbol
_atom_site_label
_atom_site_fract_x
_atom_site_fract_y
_atom_site_fract_z
Si Si1 0.372743 0.098040 0.005019
Si Si2 0.500000 0.701832 0.250000
Si Si3 0.180819 0.996526 0.024072
Si Si4 0.996716 0.712657 0.606813
Si Si5 0.269340 0.573620 0.317668
Si Si6 0.287459 0.554910 0.684236
O O1 0.481896 0.976435 0.064310
O O2 0.390345 0.313986 0.007709
O O3 0.301252 0.040238 0.911791
O O4 0.290584 0.049144 0.029752
O O5 0.508801 0.813410 0.319112
O O6 0.607904 0.571789 0.287476
O O7 0.214976 0.951073 0.112424
O O8 0.107905 0.839201 0.960750
O O9 0.109761 0.824127 0.639194
O O10 0.244146 0.489161 0.237772
O O11 0.182074 0.732037 0.298697
#
# Coordination Sequence:
#
# PCOD9282642 Si02
#       6
#     8   4   8   8   8   8
#     4  10  22  40  67  92 126 164 216 247 314 371
#     4  10  22  40  64  90 124 166 216 242 322 366
#     4  10  21  39  63  94 120 164 207 256 304 374
#     4  11  22  41  66  92 125 168 203 266 304 373
#     4  10  24  40  61  94 128 158 212 255 323 357
#     4  10  22  42  59  91 126 164 205 263 302 381
#
# _framework density 24.334859999999999
#
# number of rings (size 3 to 8) (size 9 to 14) (size 15 to 20)
#    0.000    1.818    1.818    1.091    2.545    4.364 
#    6.545    0.909    0.000    0.000    0.000    0.000 
#    0.000    0.000    0.000    0.000    0.000    0.000 
#
# Total GULP energy -123188.054993 kJ/mol
# GULP energy per Si atom -5599.457045 kJ/mol
# Density = 2.427947 g / cm^3
# Si number density = 24.334860 Si / 1000 Ang^3
#
#
#
# Elastic Constant Matrix: (Units=GPa)
#
#
# Indices 1 2 3 4 5 6 
#
# 1 57.8065 -0.3428 28.5751 0.0000 -24.0688 0.0000
# 2 -0.3428 69.8619 28.3954 0.0000 5.5886 0.0000
# 3 28.5751 28.3954 158.9449 0.0000 -51.7926 0.0000
# 4 0.0000 0.0000 0.0000 26.8727 0.0000 -12.0391
# 5 -24.0688 5.5886 -51.7926 0.0000 40.3679 0.0000
# 6 0.0000 0.0000 0.0000 -12.0391 0.0000 18.6143
#
#
#
# Elastic Compliance Matrix: (Units=1/GPa)
#
#
# Indices 1 2 3 4 5 6 
#
# 1 0.023187 -0.001622 0.001202 0.000000 0.015591 0.000000
# 2 -0.001622 0.018160 -0.007023 0.000000 -0.012492 0.000000
# 3 0.001202 -0.007023 0.013542 0.000000 0.019063 0.000000
# 4 0.000000 0.000000 0.000000 0.052394 0.000000 0.033886
# 5 0.015591 -0.012492 0.019063 0.000000 0.060256 0.000000
# 6 0.000000 0.000000 0.000000 0.033886 0.000000 0.075639
#
#
# Mechanical properties :
#
#
# Convention : Reuss Voigt Hill
#
# Bulk Modulus (GPa) = 24.99869 44.42984 34.71427
# Shear Modulus (GPa) = 18.42309 32.50334 25.46322
#
# Velocity S-wave (km/s) = 2.75447 3.65865 3.23827
# Velocity P-wave (km/s) = 4.51788 6.01207 5.31771
#
# Compressibility (1/GPa) = 0.04000210
#
# Stress axis : x y z
#
# Youngs Moduli (GPa) = 43.12729 55.06640 73.84437
#
# Poissons Ratio (x) = 0.08931 -0.08873
# Poissons Ratio (y) = 0.06994 0.51863
# Poissons Ratio (z) = -0.05182 0.38674
#
# Static dielectric constant tensor:
#      x y z
#    x 1.995150 0.000000 -0.012160 
#    y 0.000000 1.934820 0.000000 
#    z -0.012160 0.000000 1.909920 
# 
# From -- ./inp_files/246727.got.cif
#   From: 2010.05.17/outbox.cif.g08.bks.cpg/sg15_124_cif.got.tgz:246727.got - 2010.06.03 18:47:42.
