data_PCOD9282271
_publ_section_title
;
Structure prediction by ZEFSAII (Michael W. Deem and Ramdas Pophale) SiO2 
 PCOD9282271
Probable space group: C 2/C
;
_chemical_formula_sum "Si O2"
_cell_formula_units_Z 48
_cell_length_a 16.516817
_cell_length_b 7.852939
_cell_length_c 21.998945
_cell_angle_alpha 90.000000
_cell_angle_beta 37.500043
_cell_angle_gamma 90.000000
_cell_volume 1737.032673
_symmetry_space_group_name_H-M "C 2/C"
_symmetry_group_IT_number 15
_symmetry_cell_setting 'monoclinic'
loop_
_space_group_symop_operation_xyz
x,y,z
-x,y,1/2-z
-x,-y,-z
x,-y,1/2+z
1/2+x,1/2+y,z
1/2-x,1/2+y,1/2-z
1/2-x,1/2-y,-z
1/2+x,1/2-y,1/2+z
loop_
_atom_site_type_symbol
_atom_site_label
_atom_site_fract_x
_atom_site_fract_y
_atom_site_fract_z
Si Si1 0.979588 0.500998 0.832517
Si Si2 0.263352 0.511240 0.434313
Si Si3 0.492133 0.399615 0.153928
Si Si4 0.648785 0.663416 0.440860
Si Si5 0.778698 0.484636 0.745383
Si Si6 0.597521 0.835720 0.940178
O O1 0.002458 0.295020 0.824811
O O2 0.086942 0.586635 0.815147
O O3 0.000000 0.547707 0.750000
O O4 0.834473 0.523668 0.949025
O O5 0.418835 0.512450 0.353971
O O6 0.224604 0.334623 0.420781
O O7 0.211645 0.657596 0.420923
O O8 0.344922 0.454449 0.222073
O O9 0.589751 0.408745 0.037707
O O10 0.732812 0.569325 0.339965
O O11 0.511184 0.694887 0.486899
O O12 0.838875 0.341033 0.664281
O O13 0.500000 0.000000 0.000000
#
# Coordination Sequence:
#
# PCOD9282271 Si02
#       6
#     8   8   8   8   8   8
#     4  11  22  38  63  94 121 160 205 253 313 359
#     4  10  21  41  63  91 126 159 201 265 301 354
#     4  11  23  38  62  95 125 153 209 264 297 362
#     4  10  21  40  61  91 127 160 207 254 306 360
#     4  12  23  36  64  93 123 168 202 248 316 365
#     4  10  21  39  60  90 127 164 200 250 308 365
#
# _framework density 27.633330999999998
#
# number of rings (size 3 to 8) (size 9 to 14) (size 15 to 20)
#    0.000    1.333    5.000    4.500    7.000    0.000 
#    0.000    0.833    0.000    2.000    0.000    0.000 
#    0.000    0.000    0.000    0.000    0.000    0.000 
#
# Total GULP energy -134177.641258 kJ/mol
# GULP energy per Si atom -5590.735052 kJ/mol
# Density = 2.757044 g / cm^3
# Si number density = 27.633331 Si / 1000 Ang^3
#
#
#
# Elastic Constant Matrix: (Units=GPa)
#
#
# Indices 1 2 3 4 5 6 
#
# 1 192.7438 15.6763 45.1894 0.0000 -34.6035 0.0000
# 2 15.6763 28.5429 19.3506 0.0000 -3.2930 -0.0001
# 3 45.1894 19.3506 142.1962 0.0000 11.3603 0.0000
# 4 0.0000 0.0000 0.0000 21.6325 0.0000 -0.0970
# 5 -34.6035 -3.2930 11.3603 0.0000 64.1203 0.0000
# 6 0.0000 -0.0001 0.0000 -0.0970 0.0000 36.7592
#
#
#
# Elastic Compliance Matrix: (Units=1/GPa)
#
#
# Indices 1 2 3 4 5 6 
#
# 1 0.006511 -0.001683 -0.002144 0.000000 0.003808 0.000000
# 2 -0.001683 0.039591 -0.005014 0.000000 0.002013 0.000000
# 3 -0.002144 -0.005014 0.008632 0.000000 -0.002944 0.000000
# 4 0.000000 0.000000 0.000000 0.046227 0.000000 0.000122
# 5 0.003808 0.002013 -0.002944 0.000000 0.018275 0.000000
# 6 0.000000 0.000000 0.000000 0.000122 0.000000 0.027204
#
#
# Mechanical properties :
#
#
# Convention : Reuss Voigt Hill
#
# Bulk Modulus (GPa) = 26.98965 58.21284 42.60124
# Shear Modulus (GPa) = 28.33286 43.38683 35.85984
#
# Velocity S-wave (km/s) = 3.20553 3.96674 3.60627
# Velocity P-wave (km/s) = 4.84653 6.48783 5.72629
#
# Compressibility (1/GPa) = 0.03705124
#
# Stress axis : x y z
#
# Youngs Moduli (GPa) = 153.57517 25.25853 115.85453
#
# Poissons Ratio (x) = 0.04251 0.24845
# Poissons Ratio (y) = 0.25848 0.58085
# Poissons Ratio (z) = 0.32934 0.12664
#
# Static dielectric constant tensor:
#      x y z
#    x 2.204590 0.000000 0.003850 
#    y 0.000000 2.374610 0.000000 
#    z 0.003850 0.000000 2.095260 
# 
# From -- ./inp_files/243911.got.cif
#   From: 2010.05.17/outbox.cif.g08.bks.cpg/sg15_122_cif.got.tgz:243911.got - 2010.06.03 18:47:42.
