data_PCOD9282052
_publ_section_title
;
Structure prediction by ZEFSAII (Michael W. Deem and Ramdas Pophale) SiO2 
 PCOD9282052
Probable space group: C 2/C
;
_chemical_formula_sum "Si O2"
_cell_formula_units_Z 48
_cell_length_a 18.944777
_cell_length_b 23.188324
_cell_length_c 9.607957
_cell_angle_alpha 90.000000
_cell_angle_beta 148.037804
_cell_angle_gamma 90.000000
_cell_volume 2234.295981
_symmetry_space_group_name_H-M "C 2/C"
_symmetry_group_IT_number 15
_symmetry_cell_setting 'monoclinic'
loop_
_space_group_symop_operation_xyz
x,y,z
-x,y,1/2-z
-x,-y,-z
x,-y,1/2+z
1/2+x,1/2+y,z
1/2-x,1/2+y,1/2-z
1/2-x,1/2-y,-z
1/2+x,1/2-y,1/2+z
loop_
_atom_site_type_symbol
_atom_site_label
_atom_site_fract_x
_atom_site_fract_y
_atom_site_fract_z
Si Si1 0.797258 0.611929 0.413868
Si Si2 0.493853 0.561730 0.571515
Si Si3 0.429678 0.162372 0.007870
Si Si4 0.306356 0.661679 0.694797
Si Si5 0.882009 0.712047 0.370177
Si Si6 0.983680 0.565209 0.506269
O O1 0.833352 0.677120 0.424970
O O2 0.892659 0.588851 0.695613
O O3 0.850206 0.576194 0.368686
O O4 0.645976 0.595272 0.189616
O O5 0.500000 0.552757 0.750000
O O6 0.500000 0.500000 0.500000
O O7 0.607968 0.606871 0.711102
O O8 0.285461 0.148492 0.824011
O O9 0.510962 0.103370 0.121857
O O10 0.500000 0.197785 0.250000
O O11 0.470003 0.195262 0.935850
O O12 0.219092 0.686373 0.417882
O O13 0.380802 0.719515 0.869750
O O14 0.000000 0.500000 0.500000
#
# Coordination Sequence:
#
# PCOD9282052 Si02
#       6
#     8   8   8   8   8   8
#     4  10  23  42  63  96 132 173 225 287 352 403
#     4  12  28  43  67  99 151 189 228 279 356 437
#     4   9  20  35  61  94 122 161 227 281 332 397
#     4  10  21  38  68  97 128 180 222 280 341 419
#     4   9  19  39  67  96 131 168 231 289 337 406
#     4  10  23  39  67  88 126 173 228 284 335 402
#
# _framework density 21.483277999999999
#
# number of rings (size 3 to 8) (size 9 to 14) (size 15 to 20)
#    0.000    2.000    1.667    0.000    9.333    0.667 
#    0.000    0.833   14.667    0.000    0.000    0.000 
#    0.000    0.000    0.000    0.000    0.000    0.000 
#
# Total GULP energy -133644.674028 kJ/mol
# GULP energy per Si atom -5568.528084 kJ/mol
# Density = 2.143438 g / cm^3
# Si number density = 21.483278 Si / 1000 Ang^3
#
#
#
# Elastic Constant Matrix: (Units=GPa)
#
#
# Indices 1 2 3 4 5 6 
#
# 1 112.4706 63.4217 54.3329 0.0000 23.8923 0.0000
# 2 63.4217 166.4086 26.8979 0.0000 7.2903 0.0000
# 3 54.3329 26.8979 62.7440 0.0000 13.3172 0.0000
# 4 0.0000 0.0000 0.0000 23.9487 0.0000 -5.6099
# 5 23.8923 7.2903 13.3172 0.0000 40.4763 0.0000
# 6 0.0000 0.0000 0.0000 -5.6099 0.0000 17.8725
#
#
#
# Elastic Compliance Matrix: (Units=1/GPa)
#
#
# Indices 1 2 3 4 5 6 
#
# 1 0.019520 -0.004995 -0.013447 0.000000 -0.006199 0.000000
# 2 -0.004995 0.007737 0.000729 0.000000 0.001315 0.000000
# 3 -0.013447 0.000729 0.027536 0.000000 -0.001253 0.000000
# 4 0.000000 0.000000 0.000000 0.045070 0.000000 0.014147
# 5 -0.006199 0.001315 -0.001253 0.000000 0.028540 0.000000
# 6 0.000000 0.000000 0.000000 0.014147 0.000000 0.060392
#
#
# Mechanical properties :
#
#
# Convention : Reuss Voigt Hill
#
# Bulk Modulus (GPa) = 51.63005 70.10314 60.86660
# Shear Modulus (GPa) = 21.67535 29.59086 25.63311
#
# Velocity S-wave (km/s) = 3.17983 3.71535 3.45797
# Velocity P-wave (km/s) = 6.12916 7.14894 6.65860
#
# Compressibility (1/GPa) = 0.01936857
#
# Stress axis : x y z
#
# Youngs Moduli (GPa) = 51.22844 129.24239 36.31673
#
# Poissons Ratio (x) = 0.64551 0.48835
# Poissons Ratio (y) = 0.25586 -0.02648
# Poissons Ratio (z) = 0.68886 -0.09422
#
# Static dielectric constant tensor:
#      x y z
#    x 1.880670 0.000000 -0.091520 
#    y 0.000000 1.797110 0.000000 
#    z -0.091520 0.000000 1.957350 
# 
# From -- ./inp_files/114298.got.cif
#   From: 2010.05.17/outbox.cif.g08.bks.cpg/sg15_58_cif.got.tgz:114298.got - 2010.06.03 18:47:42.
