data_PCOD9282640
_publ_section_title
;
Structure prediction by ZEFSAII (Michael W. Deem and Ramdas Pophale) SiO2 
 PCOD9282640
Probable space group: C 2/C
;
_chemical_formula_sum "Si O2"
_cell_formula_units_Z 56
_cell_length_a 17.907608
_cell_length_b 23.567639
_cell_length_c 13.496708
_cell_angle_alpha 90.000000
_cell_angle_beta 152.143947
_cell_angle_gamma 90.000000
_cell_volume 2661.536960
_symmetry_space_group_name_H-M "C 2/C"
_symmetry_group_IT_number 15
_symmetry_cell_setting 'monoclinic'
loop_
_space_group_symop_operation_xyz
x,y,z
-x,y,1/2-z
-x,-y,-z
x,-y,1/2+z
1/2+x,1/2+y,z
1/2-x,1/2+y,1/2-z
1/2-x,1/2-y,-z
1/2+x,1/2-y,1/2+z
loop_
_atom_site_type_symbol
_atom_site_label
_atom_site_fract_x
_atom_site_fract_y
_atom_site_fract_z
Si Si1 0.200763 0.942927 0.671976
Si Si2 0.679167 0.281494 0.272144
Si Si3 0.227619 0.387241 0.220298
Si Si4 0.838723 0.025445 0.701828
Si Si5 0.100441 0.337621 0.573477
Si Si6 0.785323 0.469818 0.132373
Si Si7 0.500000 0.113971 0.750000
Si Si8 0.500000 0.255594 0.250000
O O1 0.253190 0.878691 0.728562
O O2 0.020237 0.954168 0.426214
O O3 0.197706 0.968693 0.778207
O O4 0.330512 0.981104 0.764311
O O5 0.668713 0.332966 0.184670
O O6 0.634748 0.223853 0.161218
O O7 0.570845 0.289890 0.241499
O O8 0.856353 0.278859 0.529254
O O9 0.227829 0.426531 0.122518
O O10 0.300700 0.425706 0.393994
O O11 0.057369 0.364046 0.058744
O O12 0.807321 0.007864 0.554257
O O13 0.076993 0.345640 0.426450
O O14 0.899742 0.430000 0.201407
#
# Coordination Sequence:
#
# PCOD9282640 Si02
#       8
#     8   8   8   8   8   8   4   4
#     4  10  22  37  62  94 128 173 213 271 330 379
#     4  11  23  47  68 101 131 172 218 284 319 407
#     4  10  24  41  68  97 131 174 224 268 325 393
#     4  10  21  40  62  93 134 166 216 268 330 391
#     4  11  23  43  69  95 133 176 223 280 322 396
#     4  10  21  39  63  93 134 171 217 267 323 395
#     4  10  22  40  69  96 128 181 222 270 334 396
#     4  10  24  42  69  88 134 167 216 262 338 376
#
# _framework density 21.040474
#
# number of rings (size 3 to 8) (size 9 to 14) (size 15 to 20)
#    0.000    1.714    2.857    0.429    4.000    4.000 
#    0.000    2.857    9.429    0.000    0.000    0.000 
#    0.000    0.000    0.000    0.000    0.000    0.000 
#
# Total GULP energy -156008.520496 kJ/mol
# GULP energy per Si atom -5571.732875 kJ/mol
# Density = 2.099259 g / cm^3
# Si number density = 21.040474 Si / 1000 Ang^3
#
#
#
# Elastic Constant Matrix: (Units=GPa)
#
#
# Indices 1 2 3 4 5 6 
#
# 1 141.3183 59.3431 32.9353 0.0000 -11.3080 0.0000
# 2 59.3431 125.3430 16.0182 0.0000 -5.7702 0.0000
# 3 32.9353 16.0182 44.0876 0.0000 -8.8646 0.0000
# 4 0.0000 0.0000 0.0000 7.7742 0.0000 2.5878
# 5 -11.3080 -5.7702 -8.8646 0.0000 24.7800 0.0000
# 6 0.0000 0.0000 0.0000 2.5878 0.0000 22.8363
#
#
#
# Elastic Compliance Matrix: (Units=1/GPa)
#
#
# Indices 1 2 3 4 5 6 
#
# 1 0.010273 -0.004037 -0.005877 0.000000 0.001646 0.000000
# 2 -0.004037 0.009973 -0.000551 0.000000 0.000283 0.000000
# 3 -0.005877 -0.000551 0.028777 0.000000 0.007485 0.000000
# 4 0.000000 0.000000 0.000000 0.133672 0.000000 -0.015147
# 5 0.001646 0.000283 0.007485 0.000000 0.043849 0.000000
# 6 0.000000 0.000000 0.000000 -0.015147 0.000000 0.045506
#
#
# Mechanical properties :
#
#
# Convention : Reuss Voigt Hill
#
# Bulk Modulus (GPa) = 35.59447 58.59360 47.09404
# Shear Modulus (GPa) = 16.53749 24.57493 20.55621
#
# Velocity S-wave (km/s) = 2.80658 3.42129 3.12907
# Velocity P-wave (km/s) = 5.23989 6.59662 5.95701
#
# Compressibility (1/GPa) = 0.02809425
#
# Stress axis : x y z
#
# Youngs Moduli (GPa) = 97.34620 100.27356 34.74978
#
# Poissons Ratio (x) = 0.40478 0.20421
# Poissons Ratio (y) = 0.39296 0.01914
# Poissons Ratio (z) = 0.57206 0.05523
#
# Static dielectric constant tensor:
#      x y z
#    x 1.797580 0.000000 0.007070 
#    y 0.000000 1.737890 0.000000 
#    z 0.007070 0.000000 1.826260 
# 
# From -- ./inp_files/163846.got.cif
#   From: 2010.05.17/outbox.cif.g08.bks.cpg/sg15_82_cif.got.tgz:163846.got - 2010.06.03 18:47:42.
