data_PCOD9282858
_publ_section_title
;
Structure prediction by ZEFSAII (Michael W. Deem and Ramdas Pophale) SiO2 
 PCOD9282858
Probable space group: C 2/C
;
_chemical_formula_sum "Si O2"
_cell_formula_units_Z 52
_cell_length_a 8.470273
_cell_length_b 16.750311
_cell_length_c 17.350003
_cell_angle_alpha 90.000000
_cell_angle_beta 125.201966
_cell_angle_gamma 90.000000
_cell_volume 2011.446094
_symmetry_space_group_name_H-M "C 2/C"
_symmetry_group_IT_number 15
_symmetry_cell_setting 'monoclinic'
loop_
_space_group_symop_operation_xyz
x,y,z
-x,y,1/2-z
-x,-y,-z
x,-y,1/2+z
1/2+x,1/2+y,z
1/2-x,1/2+y,1/2-z
1/2-x,1/2-y,-z
1/2+x,1/2-y,1/2+z
loop_
_atom_site_type_symbol
_atom_site_label
_atom_site_fract_x
_atom_site_fract_y
_atom_site_fract_z
Si Si1 0.778655 0.499528 0.712803
Si Si2 0.352437 0.375063 0.925703
Si Si3 0.500000 0.788782 0.750000
Si Si4 0.702375 0.839248 0.199632
Si Si5 0.245086 0.926219 0.445988
Si Si6 0.678585 0.080855 0.116512
Si Si7 0.916148 0.785610 0.641366
O O1 0.658041 0.465025 0.608986
O O2 0.733513 0.586272 0.731814
O O3 0.763916 0.436759 0.779233
O O4 0.000000 0.503474 0.750000
O O5 0.140744 0.338198 0.845222
O O6 0.379680 0.381918 0.024155
O O7 0.494770 0.325014 0.911125
O O8 0.649845 0.733142 0.746021
O O9 0.485437 0.806196 0.153148
O O10 0.726254 0.868962 0.119082
O O11 0.453991 0.939163 0.544508
O O12 0.201741 0.014078 0.398729
O O13 0.712931 0.169514 0.093376
O O14 0.000000 0.807788 0.750000
#
# Coordination Sequence:
#
# PCOD9282858 Si02
#       7
#     8   8   4   8   8   8   8
#     4  11  19  38  64  93 119 173 217 265 303 390
#     4  11  21  39  70  89 125 173 223 252 325 382
#     4  10  22  42  62  92 124 178 206 264 320 392
#     4  10  25  40  64  95 135 161 220 267 332 373
#     4  10  22  41  63  93 127 173 207 272 321 384
#     4  10  21  39  65  91 133 165 214 260 326 377
#     4  11  23  39  61  99 124 166 215 269 310 386
#
# _framework density 25.852046999999999
#
# number of rings (size 3 to 8) (size 9 to 14) (size 15 to 20)
#    0.000    1.538    3.846    0.462    2.154    6.154 
#    0.000    1.538    3.385    0.000    0.000    0.000 
#    0.000    0.000    0.000    0.000    0.000    0.000 
#
# Total GULP energy -145368.283835 kJ/mol
# GULP energy per Si atom -5591.087840 kJ/mol
# Density = 2.579321 g / cm^3
# Si number density = 25.852047 Si / 1000 Ang^3
#
#
#
# Elastic Constant Matrix: (Units=GPa)
#
#
# Indices 1 2 3 4 5 6 
#
# 1 56.1603 23.2076 28.6693 0.0000 -25.8015 0.0000
# 2 23.2076 115.5705 27.8314 0.0000 -21.3991 0.0000
# 3 28.6693 27.8314 105.1780 0.0000 -33.4006 0.0000
# 4 0.0000 0.0000 0.0000 22.4751 0.0000 -10.2931
# 5 -25.8015 -21.3991 -33.4006 0.0000 39.9672 0.0000
# 6 0.0000 0.0000 0.0000 -10.2931 0.0000 49.1798
#
#
#
# Elastic Compliance Matrix: (Units=1/GPa)
#
#
# Indices 1 2 3 4 5 6 
#
# 1 0.026212 -0.002161 -0.002133 0.000000 0.013982 0.000000
# 2 -0.002161 0.009903 -0.001076 0.000000 0.003008 0.000000
# 3 -0.002133 -0.001076 0.013277 0.000000 0.009143 0.000000
# 4 0.000000 0.000000 0.000000 0.049211 0.000000 0.010300
# 5 0.013982 0.003008 0.009143 0.000000 0.043298 0.000000
# 6 0.000000 0.000000 0.000000 0.010300 0.000000 0.022489
#
#
# Mechanical properties :
#
#
# Convention : Reuss Voigt Hill
#
# Bulk Modulus (GPa) = 25.87217 48.48058 37.17637
# Shear Modulus (GPa) = 26.59390 35.47113 31.03251
#
# Velocity S-wave (km/s) = 3.21081 3.70818 3.46842
# Velocity P-wave (km/s) = 4.87599 6.09327 5.51830
#
# Compressibility (1/GPa) = 0.03865157
#
# Stress axis : x y z
#
# Youngs Moduli (GPa) = 38.15108 100.98216 75.31701
#
# Poissons Ratio (x) = 0.21822 0.16063
# Poissons Ratio (y) = 0.08244 0.08106
# Poissons Ratio (z) = 0.08137 0.10868
#
# Static dielectric constant tensor:
#      x y z
#    x 2.135810 0.000000 0.020400 
#    y 0.000000 2.048570 0.000000 
#    z 0.020400 0.000000 1.981170 
# 
# From -- ./inp_files/190566.got.cif
#   From: 2010.05.17/outbox.cif.g08.bks.cpg/sg15_96_cif.got.tgz:190566.got - 2010.06.03 18:47:42.
