data_PCOD9282602
_publ_section_title
;
Structure prediction by ZEFSAII (Michael W. Deem and Ramdas Pophale) SiO2 
 PCOD9282602
Probable space group: C 2/C
;
_chemical_formula_sum "Si O2"
_cell_formula_units_Z 32
_cell_length_a 15.672181
_cell_length_b 7.182631
_cell_length_c 26.624031
_cell_angle_alpha 90.000000
_cell_angle_beta 150.783526
_cell_angle_gamma 90.000000
_cell_volume 1462.867755
_symmetry_space_group_name_H-M "C 2/C"
_symmetry_group_IT_number 15
_symmetry_cell_setting 'monoclinic'
loop_
_space_group_symop_operation_xyz
x,y,z
-x,y,1/2-z
-x,-y,-z
x,-y,1/2+z
1/2+x,1/2+y,z
1/2-x,1/2+y,1/2-z
1/2-x,1/2-y,-z
1/2+x,1/2-y,1/2+z
loop_
_atom_site_type_symbol
_atom_site_label
_atom_site_fract_x
_atom_site_fract_y
_atom_site_fract_z
Si Si1 0.872171 0.289835 0.610586
Si Si2 0.843003 0.021590 0.252786
Si Si3 0.517852 0.874861 0.386309
Si Si4 0.190116 0.487806 0.573502
O O1 0.750000 0.250000 0.500000
O O2 0.916480 0.506257 0.627786
O O3 0.767163 0.194115 0.601942
O O4 0.046558 0.167318 0.694572
O O5 0.956139 0.169804 0.341267
O O6 0.807902 0.095759 0.178235
O O7 0.657090 0.979559 0.183091
O O8 0.659378 0.886639 0.504348
O O9 0.000000 0.500000 0.500000
#
# Coordination Sequence:
#
# PCOD9282602 Si02
#       4
#     8   8   8   8
#     4  10  21  39  63  91 125 166 211 260 315 375
#     4  11  20  40  65  92 128 168 210 265 318 377
#     4  10  21  39  66  92 124 169 212 260 322 378
#     4   9  21  39  61  90 127 166 209 261 313 373
#
# _framework density 21.874841
#
# number of rings (size 3 to 8) (size 9 to 14) (size 15 to 20)
#    0.000    2.000    2.500    0.750    0.000    4.000 
#    0.000   13.750    0.000    0.000    0.000    0.000 
#    0.000    0.000    0.000    0.000    0.000    0.000 
#
# Total GULP energy -89266.144632 kJ/mol
# GULP energy per Si atom -5579.134039 kJ/mol
# Density = 2.182505 g / cm^3
# Si number density = 21.874841 Si / 1000 Ang^3
#
#
#
# Elastic Constant Matrix: (Units=GPa)
#
#
# Indices 1 2 3 4 5 6 
#
# 1 82.4739 15.7112 17.2930 0.0000 11.2402 0.0000
# 2 15.7112 56.4225 10.3700 0.0000 -7.4082 0.0001
# 3 17.2930 10.3700 95.8203 0.0001 -17.2012 0.0000
# 4 0.0000 0.0000 0.0001 38.2927 0.0000 5.5936
# 5 11.2402 -7.4082 -17.2012 0.0000 47.2299 0.0000
# 6 0.0000 0.0001 0.0000 5.5936 0.0000 22.7177
#
#
#
# Elastic Compliance Matrix: (Units=1/GPa)
#
#
# Indices 1 2 3 4 5 6 
#
# 1 0.014243 -0.004080 -0.003052 0.000000 -0.005141 0.000000
# 2 -0.004080 0.019483 -0.000695 0.000000 0.003774 0.000000
# 3 -0.003052 -0.000695 0.011955 0.000000 0.004971 0.000000
# 4 0.000000 0.000000 0.000000 0.027089 0.000000 -0.006670
# 5 -0.005141 0.003774 0.004971 0.000000 0.024799 0.000000
# 6 0.000000 0.000000 0.000000 -0.006670 0.000000 0.045661
#
#
# Mechanical properties :
#
#
# Convention : Reuss Voigt Hill
#
# Bulk Modulus (GPa) = 33.30336 35.71835 34.51085
# Shear Modulus (GPa) = 29.60487 34.40423 32.00455
#
# Velocity S-wave (km/s) = 3.68282 3.97013 3.82917
# Velocity P-wave (km/s) = 5.77423 6.11390 5.94649
#
# Compressibility (1/GPa) = 0.03002700
#
# Stress axis : x y z
#
# Youngs Moduli (GPa) = 70.21055 51.32745 83.65020
#
# Poissons Ratio (x) = 0.20942 0.25528
# Poissons Ratio (y) = 0.28647 0.05811
# Poissons Ratio (z) = 0.21427 0.03565
#
# Static dielectric constant tensor:
#      x y z
#    x 1.843660 0.000000 -0.007480 
#    y 0.000000 1.768880 0.000000 
#    z -0.007480 0.000000 1.800200 
# 
# From -- ./inp_files/149779.got.cif
#   From: 2010.05.17/outbox.cif.g08.bks.cpg/sg15_75_cif.got.tgz:149779.got - 2010.06.03 18:47:42.
