data_PCOD9282833
_publ_section_title
;
Structure prediction by ZEFSAII (Michael W. Deem and Ramdas Pophale) SiO2 
 PCOD9282833
Probable space group: C 2/C
;
_chemical_formula_sum "Si O2"
_cell_formula_units_Z 48
_cell_length_a 12.124209
_cell_length_b 20.244417
_cell_length_c 12.776520
_cell_angle_alpha 90.000000
_cell_angle_beta 133.123857
_cell_angle_gamma 90.000000
_cell_volume 2288.871272
_symmetry_space_group_name_H-M "C 2/C"
_symmetry_group_IT_number 15
_symmetry_cell_setting 'monoclinic'
loop_
_space_group_symop_operation_xyz
x,y,z
-x,y,1/2-z
-x,-y,-z
x,-y,1/2+z
1/2+x,1/2+y,z
1/2-x,1/2+y,1/2-z
1/2-x,1/2-y,-z
1/2+x,1/2-y,1/2+z
loop_
_atom_site_type_symbol
_atom_site_label
_atom_site_fract_x
_atom_site_fract_y
_atom_site_fract_z
Si Si1 0.346898 0.084788 0.765162
Si Si2 0.020787 0.892920 0.140214
Si Si3 0.646949 0.763272 0.283036
Si Si4 0.014661 0.248287 0.527542
Si Si5 0.714419 0.952212 0.876312
Si Si6 0.006629 0.604437 0.424789
O O1 0.359093 0.156964 0.721991
O O2 0.185271 0.081521 0.717317
O O3 0.336294 0.027658 0.672814
O O4 0.466494 0.080240 0.938482
O O5 0.000000 0.894456 0.250000
O O6 0.014550 0.817200 0.096469
O O7 0.889803 0.936444 0.002712
O O8 0.500000 0.738040 0.250000
O O9 0.819377 0.743920 0.420052
O O10 0.614540 0.741774 0.143151
O O11 0.984058 0.316335 0.567198
O O12 0.649394 0.917331 0.729665
O O13 0.631253 0.923417 0.924986
#
# Coordination Sequence:
#
# PCOD9282833 Si02
#       6
#     8   8   8   8   8   8
#     4  10  22  41  59  89 124 162 209 253 302 364
#     4  11  22  39  63  88 126 166 201 257 308 364
#     4  10  21  39  65  87 122 164 198 255 306 367
#     4  10  22  39  60  93 126 154 207 255 312 364
#     4  11  22  37  62  86 125 164 207 248 306 362
#     4  10  22  38  60  94 118 161 203 263 304 361
#
# _framework density 20.971035000000001
#
# number of rings (size 3 to 8) (size 9 to 14) (size 15 to 20)
#    0.000    1.667    1.667    2.500    4.667    0.667 
#    0.000    0.000    3.667    1.000    0.000    0.000 
#    0.000    0.000    0.000    0.000    0.000    0.000 
#
# Total GULP energy -134052.022220 kJ/mol
# GULP energy per Si atom -5585.500926 kJ/mol
# Density = 2.092330 g / cm^3
# Si number density = 20.971035 Si / 1000 Ang^3
#
#
#
# Elastic Constant Matrix: (Units=GPa)
#
#
# Indices 1 2 3 4 5 6 
#
# 1 78.0689 15.1609 -1.0795 0.0000 5.5980 0.0000
# 2 15.1609 68.8597 22.6704 0.0000 -15.6972 0.0000
# 3 -1.0795 22.6704 89.7364 0.0000 16.9613 0.0000
# 4 0.0000 0.0000 0.0000 9.8185 0.0000 0.9353
# 5 5.5980 -15.6972 16.9613 0.0000 21.3765 0.0000
# 6 0.0000 0.0000 0.0000 0.9353 0.0000 7.8745
#
#
#
# Elastic Compliance Matrix: (Units=1/GPa)
#
#
# Indices 1 2 3 4 5 6 
#
# 1 0.015470 -0.008199 0.004895 0.000000 -0.013956 0.000000
# 2 -0.008199 0.028642 -0.013783 0.000000 0.034116 0.000000
# 3 0.004895 -0.013783 0.019811 0.000000 -0.027122 0.000000
# 4 0.000000 0.000000 0.000000 0.103014 0.000000 -0.012235
# 5 -0.013956 0.034116 -0.027122 0.000000 0.097007 0.000000
# 6 0.000000 0.000000 0.000000 -0.012235 0.000000 0.128445
#
#
# Mechanical properties :
#
#
# Convention : Reuss Voigt Hill
#
# Bulk Modulus (GPa) = 33.61366 34.46318 34.03842
# Shear Modulus (GPa) = 11.45534 21.14147 16.29840
#
# Velocity S-wave (km/s) = 2.33973 3.17855 2.79083
# Velocity P-wave (km/s) = 4.83348 5.47177 5.16250
#
# Compressibility (1/GPa) = 0.02974981
#
# Stress axis : x y z
#
# Youngs Moduli (GPa) = 64.64180 34.91370 50.47688
#
# Poissons Ratio (x) = 0.28626 -0.24710
# Poissons Ratio (y) = 0.53000 0.69571
# Poissons Ratio (z) = -0.31644 0.48121
#
# Static dielectric constant tensor:
#      x y z
#    x 1.768250 0.000000 0.005230 
#    y 0.000000 1.761770 0.000000 
#    z 0.005230 0.000000 1.738300 
# 
# From -- ./inp_files/89777.got.cif
#   From: 2010.05.17/outbox.cif.g08.bks.cpg/sg15_45_cif.got.tgz:89777.got - 2010.06.03 18:47:42.
