data_PCOD9282187
_publ_section_title
;
Structure prediction by ZEFSAII (Michael W. Deem and Ramdas Pophale) SiO2 
 PCOD9282187
Probable space group: C 2/C
;
_chemical_formula_sum "Si O2"
_cell_formula_units_Z 56
_cell_length_a 22.617098
_cell_length_b 26.574385
_cell_length_c 5.137638
_cell_angle_alpha 90.000000
_cell_angle_beta 65.438188
_cell_angle_gamma 90.000000
_cell_volume 2808.488735
_symmetry_space_group_name_H-M "C 2/C"
_symmetry_group_IT_number 15
_symmetry_cell_setting 'monoclinic'
loop_
_space_group_symop_operation_xyz
x,y,z
-x,y,1/2-z
-x,-y,-z
x,-y,1/2+z
1/2+x,1/2+y,z
1/2-x,1/2+y,1/2-z
1/2-x,1/2-y,-z
1/2+x,1/2-y,1/2+z
loop_
_atom_site_type_symbol
_atom_site_label
_atom_site_fract_x
_atom_site_fract_y
_atom_site_fract_z
Si Si1 0.286274 0.137891 0.567417
Si Si2 0.553177 0.701022 0.853353
Si Si3 0.072694 0.965092 0.330578
Si Si4 0.142388 0.681088 0.571524
Si Si5 0.500000 0.206650 0.750000
Si Si6 0.722462 0.533827 0.583190
Si Si7 0.000000 0.879910 0.750000
Si Si8 0.311703 0.278707 0.265119
O O1 0.320599 0.156025 0.239222
O O2 0.268984 0.079784 0.567186
O O3 0.219550 0.168208 0.749767
O O4 0.332503 0.155134 0.715453
O O5 0.500000 0.678804 0.750000
O O6 0.627876 0.711494 0.650485
O O7 0.522600 0.754442 0.986242
O O8 0.555660 0.662836 0.097058
O O9 0.147393 0.947462 0.224949
O O10 0.024081 0.919974 0.489572
O O11 0.066342 0.008299 0.563416
O O12 0.064711 0.676756 0.699238
O O13 0.160668 0.740698 0.505644
O O14 0.731268 0.509425 0.283587
O O15 0.250000 0.250000 0.500000
#
# Coordination Sequence:
#
# PCOD9282187 Si02
#       8
#     8   8   8   8   4   8   4   8
#     4  11  21  38  59  92 115 153 200 242 298 349
#     4  10  22  37  56  80 118 162 197 237 295 344
#     4  10  22  37  57  79 108 151 197 247 298 335
#     4  10  22  36  61  89 120 156 192 240 292 355
#     4   9  22  38  56  84 120 154 192 230 286 355
#     4  10  21  39  59  84 116 151 194 249 299 348
#     4  11  22  36  50  82 110 152 204 244 288 345
#     4   9  20  38  56  88 119 158 199 245 293 347
#
# _framework density 19.939549
#
# number of rings (size 3 to 8) (size 9 to 14) (size 15 to 20)
#    0.000    2.000    0.000    2.571    8.000    0.000 
#   15.429    0.000    0.000    0.000    0.000   10.000 
#    0.000    0.000    0.000    0.000    0.000    0.000 
#
# Total GULP energy -155973.248023 kJ/mol
# GULP energy per Si atom -5570.473144 kJ/mol
# Density = 1.989417 g / cm^3
# Si number density = 19.939549 Si / 1000 Ang^3
#
#
#
# Elastic Constant Matrix: (Units=GPa)
#
#
# Indices 1 2 3 4 5 6 
#
# 1 -744.6464 -65.4212 -694.1467 0.0000 110.4145 0.0000
# 2 -65.4212 63.5469 -74.3340 0.0000 10.3907 0.0000
# 3 -694.1467 -74.3340 -556.8712 0.0000 106.1449 0.0000
# 4 0.0000 0.0000 0.0000 55.2608 0.0000 -88.4281
# 5 110.4145 10.3907 106.1449 0.0000 21.2556 0.0000
# 6 0.0000 0.0000 0.0000 -88.4281 0.0000 266.8301
#
#
#
# Elastic Compliance Matrix: (Units=1/GPa)
#
#
# Indices 1 2 3 4 5 6 
#
# 1 0.009966 -0.003440 -0.011020 0.000000 0.004946 0.000000
# 2 -0.003440 0.014863 0.002216 0.000000 -0.000462 0.000000
# 3 -0.011020 0.002216 0.011451 0.000000 -0.001020 0.000000
# 4 0.000000 0.000000 0.000000 0.038527 0.000000 0.012768
# 5 0.004946 -0.000462 -0.001020 0.000000 0.026672 0.000000
# 6 0.000000 0.000000 0.000000 0.012768 0.000000 0.007979
#
#
# Mechanical properties :
#
#
# Convention : Reuss Voigt Hill
#
# Bulk Modulus (GPa) = 84.81266 -322.86381 -119.02558
# Shear Modulus (GPa) = 36.26447 41.73139 38.99793
#
# Velocity S-wave (km/s) = 4.26927 4.57978 4.42725
# Velocity P-wave (km/s) = 8.18104 11.58909 5.80420
#
# Compressibility (1/GPa) = 0.01179069
#
# Stress axis : x y z
#
# Youngs Moduli (GPa) = 100.34552 67.28253 87.33023
#
# Poissons Ratio (x) = 0.23146 0.96239
# Poissons Ratio (y) = 0.34520 -0.19354
# Poissons Ratio (z) = 1.10583 -0.14911
#
# Static dielectric constant tensor:
#      x y z
#    x 1.767750 0.000000 0.031970 
#    y 0.000000 1.763700 0.000000 
#    z 0.031970 0.000000 1.755740 
# 
# From -- ./inp_files/14237.got.cif
#   From: 2010.05.17/outbox.cif.g08.bks.cpg/sg15_8_cif.got.tgz:14237.got - 2010.06.03 18:47:42.
