data_PCOD9282419
_publ_section_title
;
Structure prediction by ZEFSAII (Michael W. Deem and Ramdas Pophale) SiO2 
 PCOD9282419
Probable space group: C 2/C
;
_chemical_formula_sum "Si O2"
_cell_formula_units_Z 64
_cell_length_a 12.550886
_cell_length_b 13.962224
_cell_length_c 22.243415
_cell_angle_alpha 90.000000
_cell_angle_beta 41.049604
_cell_angle_gamma 90.000000
_cell_volume 2559.796959
_symmetry_space_group_name_H-M "C 2/C"
_symmetry_group_IT_number 15
_symmetry_cell_setting 'monoclinic'
loop_
_space_group_symop_operation_xyz
x,y,z
-x,y,1/2-z
-x,-y,-z
x,-y,1/2+z
1/2+x,1/2+y,z
1/2-x,1/2+y,1/2-z
1/2-x,1/2-y,-z
1/2+x,1/2-y,1/2+z
loop_
_atom_site_type_symbol
_atom_site_label
_atom_site_fract_x
_atom_site_fract_y
_atom_site_fract_z
Si Si1 0.072051 0.877191 0.155491
Si Si2 0.841274 0.412848 0.123298
Si Si3 0.894866 0.315495 0.910771
Si Si4 0.300327 0.862802 0.541243
Si Si5 0.749759 0.157215 0.598166
Si Si6 0.160398 0.008363 0.507525
Si Si7 0.761613 0.385668 0.689317
Si Si8 0.384421 0.207863 0.714993
O O1 0.258883 0.896911 0.094146
O O2 0.043197 0.763784 0.163119
O O3 0.000000 0.912715 0.250000
O O4 0.045807 0.931242 0.102882
O O5 0.783955 0.502471 0.187515
O O6 0.816921 0.327359 0.180533
O O7 0.029923 0.416691 0.029847
O O8 0.058056 0.341419 0.877700
O O9 0.750000 0.250000 0.000000
O O10 0.803677 0.414208 0.932496
O O11 0.333029 0.749057 0.530483
O O12 0.207980 0.916951 0.528578
O O13 0.210004 0.878861 0.642002
O O14 0.849123 0.058010 0.548581
O O15 0.564730 0.165090 0.649411
O O16 0.718758 0.177314 0.682271
O O17 0.631890 0.322737 0.779707
#
# Coordination Sequence:
#
# PCOD9282419 Si02
#       8
#     8   8   8   8   8   8   8   8
#     4  11  25  42  64  98 134 168 221 280 332 389
#     4  12  22  41  66  95 122 171 225 266 329 404
#     4  10  21  39  62  87 126 169 211 265 321 391
#     4  11  20  36  66  93 122 162 221 267 315 396
#     4  10  22  41  60  98 130 168 213 273 334 384
#     4  11  20  40  67  92 125 172 219 261 326 401
#     4  11  21  39  65  90 126 171 215 268 328 390
#     4  10  23  39  62  91 137 163 213 279 327 384
#
# _framework density 25.001984
#
# number of rings (size 3 to 8) (size 9 to 14) (size 15 to 20)
#    0.000    1.250    3.750    3.000    0.000    1.000 
#    6.750    0.000    0.000    7.500    0.000    0.000 
#    0.000    0.000    0.000    0.000    0.000    0.000 
#
# Total GULP energy -178323.876509 kJ/mol
# GULP energy per Si atom -5572.621141 kJ/mol
# Density = 2.494508 g / cm^3
# Si number density = 25.001984 Si / 1000 Ang^3
#
#
#
# Elastic Constant Matrix: (Units=GPa)
#
#
# Indices 1 2 3 4 5 6 
#
# 1 27.1134 4.9774 5.2901 0.0000 -1.7568 0.0000
# 2 4.9774 159.7855 45.7334 0.0000 4.5282 0.0000
# 3 5.2901 45.7334 80.9201 -0.0001 1.4383 0.0000
# 4 0.0000 0.0000 -0.0001 36.6032 0.0000 4.8689
# 5 -1.7568 4.5282 1.4383 0.0000 28.1693 0.0000
# 6 0.0000 0.0000 0.0000 4.8689 0.0000 37.5046
#
#
#
# Elastic Compliance Matrix: (Units=1/GPa)
#
#
# Indices 1 2 3 4 5 6 
#
# 1 0.037582 -0.000629 -0.002147 0.000000 0.002555 0.000000
# 2 -0.000629 0.007504 -0.004182 0.000000 -0.001032 0.000000
# 3 -0.002147 -0.004182 0.014865 0.000000 -0.000221 0.000000
# 4 0.000000 0.000000 0.000000 0.027800 0.000000 -0.003609
# 5 0.002555 -0.001032 -0.000221 0.000000 0.035836 0.000000
# 6 0.000000 0.000000 0.000000 -0.003609 0.000000 0.027132
#
#
# Mechanical properties :
#
#
# Convention : Reuss Voigt Hill
#
# Bulk Modulus (GPa) = 21.72164 42.20231 31.96197
# Shear Modulus (GPa) = 27.78088 34.57662 31.17875
#
# Velocity S-wave (km/s) = 3.33700 3.72284 3.53519
# Velocity P-wave (km/s) = 4.85328 5.94942 5.42909
#
# Compressibility (1/GPa) = 0.04603705
#
# Stress axis : x y z
#
# Youngs Moduli (GPa) = 26.60849 133.26107 67.26998
#
# Poissons Ratio (x) = 0.08376 0.14443
# Poissons Ratio (y) = 0.01672 0.28130
# Poissons Ratio (z) = 0.05713 0.55725
#
# Static dielectric constant tensor:
#      x y z
#    x 2.061720 0.000000 -0.047960 
#    y 0.000000 2.062380 0.000000 
#    z -0.047960 0.000000 2.164070 
# 
# From -- ./inp_files/296111.got.cif
#   From: 2010.05.17/outbox.cif.g08.bks.cpg/sg15_149_cif.got.tgz:296111.got - 2010.06.03 18:47:42.
