data_PCOD9282286
_publ_section_title
;
Structure prediction by ZEFSAII (Michael W. Deem and Ramdas Pophale) SiO2 
 PCOD9282286
Probable space group: C 2/C
;
_chemical_formula_sum "Si O2"
_cell_formula_units_Z 60
_cell_length_a 18.137710
_cell_length_b 16.072346
_cell_length_c 12.593330
_cell_angle_alpha 90.000000
_cell_angle_beta 113.234541
_cell_angle_gamma 90.000000
_cell_volume 3373.412635
_symmetry_space_group_name_H-M "C 2/C"
_symmetry_group_IT_number 15
_symmetry_cell_setting 'monoclinic'
loop_
_space_group_symop_operation_xyz
x,y,z
-x,y,1/2-z
-x,-y,-z
x,-y,1/2+z
1/2+x,1/2+y,z
1/2-x,1/2+y,1/2-z
1/2-x,1/2-y,-z
1/2+x,1/2-y,1/2+z
loop_
_atom_site_type_symbol
_atom_site_label
_atom_site_fract_x
_atom_site_fract_y
_atom_site_fract_z
Si Si1 0.086784 0.971561 0.755609
Si Si2 0.217362 0.194344 0.078534
Si Si3 0.435555 0.320658 0.890303
Si Si4 0.590057 0.393596 0.091518
Si Si5 0.213538 0.254741 0.654598
Si Si6 0.500000 0.193418 0.750000
Si Si7 0.169146 0.642675 0.922279
Si Si8 0.293161 0.502153 0.486648
O O1 0.112516 0.892271 0.700562
O O2 0.000000 0.943955 0.750000
O O3 0.068378 0.056526 0.683941
O O4 0.157623 0.991101 0.876676
O O5 0.124084 0.213233 0.053783
O O6 0.261389 0.211255 0.216194
O O7 0.222790 0.097701 0.048588
O O8 0.250000 0.250000 0.000000
O O9 0.467247 0.252115 0.826351
O O10 0.510840 0.367965 0.984070
O O11 0.643324 0.311948 0.134485
O O12 0.645254 0.459422 0.060398
O O13 0.183699 0.320051 0.548554
O O14 0.285565 0.204750 0.635442
O O15 0.575950 0.142946 0.838040
O O16 0.213749 0.554426 0.941351
#
# Coordination Sequence:
#
# PCOD9282286 Si02
#       8
#     8   8   8   8   8   4   8   8
#     4  12  21  33  58  94 130 161 197 254 320 386
#     4  12  25  42  61  90 134 173 203 251 321 395
#     4  12  21  37  61  93 128 160 206 259 317 373
#     4  11  21  36  58  92 126 163 198 252 317 379
#     4  10  21  39  60  94 124 162 213 256 316 373
#     4  12  20  40  68  92 118 158 218 282 312 342
#     4  10  22  38  67  92 119 160 220 273 304 354
#     4  11  23  39  60  92 123 164 206 254 311 374
#
# _framework density 17.786144
#
# number of rings (size 3 to 8) (size 9 to 14) (size 15 to 20)
#    0.000    0.800    6.000    2.800    1.867    0.000 
#    0.000    0.000    2.933    1.600    0.000    0.000 
#    0.000    0.000    0.000    0.000    0.000    0.000 
#
# Total GULP energy -167477.660280 kJ/mol
# GULP energy per Si atom -5582.588676 kJ/mol
# Density = 1.774566 g / cm^3
# Si number density = 17.786144 Si / 1000 Ang^3
#
#
#
# Elastic Constant Matrix: (Units=GPa)
#
#
# Indices 1 2 3 4 5 6 
#
# 1 103.0532 61.2719 56.9426 0.0000 -3.2645 0.0000
# 2 61.2719 94.6355 60.3815 0.0000 6.5948 0.0000
# 3 56.9426 60.3815 124.8803 0.0000 19.0162 0.0000
# 4 0.0000 0.0000 0.0000********** 0.0000**********
# 5 -3.2645 6.5948 19.0162 0.0000 25.0897 0.0000
# 6 0.0000 0.0000 0.0000********** 0.0000**********
#
#
#
# Elastic Compliance Matrix: (Units=1/GPa)
#
#
# Indices 1 2 3 4 5 6 
#
# 1 0.018311 -0.009092 -0.005291 0.000000 0.008782 0.000000
# 2 -0.009092 0.019867 -0.005070 0.000000 -0.002562 0.000000
# 3 -0.005291 -0.005070 0.014440 0.000000 -0.010300 0.000000
# 4 0.000000 0.000000 0.000000 0.006937 0.000000 -0.013780
# 5 0.008782 -0.002562 -0.010300 0.000000 0.049480 0.000000
# 6 0.000000 0.000000 0.000000 -0.013780 0.000000 0.027294
#
#
# Mechanical properties :
#
#
# Convention : Reuss Voigt Hill
#
# Bulk Modulus (GPa) = 72.92514 75.52899 74.22706
# Shear Modulus (GPa) = 27.80790 -12243.91624 -6108.05417
#
# Velocity S-wave (km/s) = 3.95835 -83.05966 -58.66532
# Velocity P-wave (km/s) = 7.87283 95.68692 67.43147
#
# Compressibility (1/GPa) = 0.01371269
#
# Stress axis : x y z
#
# Youngs Moduli (GPa) = 54.61199 50.33506 69.25181
#
# Poissons Ratio (x) = 0.45764 0.36639
# Poissons Ratio (y) = 0.49652 0.35111
# Poissons Ratio (z) = 0.28894 0.25520
#
# Static dielectric constant tensor:
#      x y z
#    x 1.636540 0.000000 -0.043900 
#    y 0.000000 1.582510 0.000000 
#    z -0.043900 0.000000 1.669790 
# 
# From -- ./inp_files/105381.got.cif
#   From: 2010.05.17/outbox.cif.g08.bks.cpg/sg15_53_cif.got.tgz:105381.got - 2010.06.03 18:47:42.
