data_PCOD9282005
_publ_section_title
;
Structure prediction by ZEFSAII (Michael W. Deem and Ramdas Pophale) SiO2 
 PCOD9282005
Probable space group: C 2/C
;
_chemical_formula_sum "Si O2"
_cell_formula_units_Z 44
_cell_length_a 10.782366
_cell_length_b 26.876907
_cell_length_c 9.063803
_cell_angle_alpha 90.000000
_cell_angle_beta 122.847906
_cell_angle_gamma 90.000000
_cell_volume 2206.691978
_symmetry_space_group_name_H-M "C 2/C"
_symmetry_group_IT_number 15
_symmetry_cell_setting 'monoclinic'
loop_
_space_group_symop_operation_xyz
x,y,z
-x,y,1/2-z
-x,-y,-z
x,-y,1/2+z
1/2+x,1/2+y,z
1/2-x,1/2+y,1/2-z
1/2-x,1/2-y,-z
1/2+x,1/2-y,1/2+z
loop_
_atom_site_type_symbol
_atom_site_label
_atom_site_fract_x
_atom_site_fract_y
_atom_site_fract_z
Si Si1 0.963918 0.853075 0.562559
Si Si2 0.160706 0.211476 0.770543
Si Si3 0.269306 0.177624 0.140097
Si Si4 0.154452 0.524590 0.546733
Si Si5 0.639143 0.535198 0.543101
Si Si6 0.000000 0.395085 0.750000
O O1 0.857799 0.819592 0.391083
O O2 0.912997 0.910028 0.536018
O O3 0.000000 0.834157 0.750000
O O4 0.118984 0.849798 0.579302
O O5 0.216432 0.267565 0.782621
O O6 0.000000 0.215192 0.750000
O O7 0.267190 0.186558 0.961522
O O8 0.398765 0.142117 0.277321
O O9 0.251763 0.540414 0.747953
O O10 0.261337 0.489121 0.520609
O O11 0.106100 0.570274 0.413389
O O12 0.000000 0.500000 0.500000
O O13 0.500000 0.500000 0.500000
#
# Coordination Sequence:
#
# PCOD9282005 Si02
#       6
#     8   8   8   8   8   4
#     4  11  24  39  64  94 133 170 217 264 338 401
#     4   9  19  41  64  93 126 166 223 276 316 385
#     4  10  21  38  67  95 122 170 224 271 319 386
#     4  12  25  44  66  97 136 169 222 279 335 396
#     4  12  25  45  67  96 132 178 223 273 331 406
#     4  12  22  38  70  94 128 170 218 274 336 382
#
# _framework density 19.939347999999999
#
# number of rings (size 3 to 8) (size 9 to 14) (size 15 to 20)
#    0.000    1.091    2.727    3.818    2.545    3.636 
#    0.000    0.000    0.000    0.000    0.000    0.000 
#    0.000    0.000    0.000    0.000    0.000    0.000 
#
# Total GULP energy -122846.447722 kJ/mol
# GULP energy per Si atom -5583.929442 kJ/mol
# Density = 1.989397 g / cm^3
# Si number density = 19.939348 Si / 1000 Ang^3
#
#
#
# Elastic Constant Matrix: (Units=GPa)
#
#
# Indices 1 2 3 4 5 6 
#
# 1 85.1698 45.2846 12.3634 0.0000 8.2801 0.0000
# 2 45.2846 124.5101 45.4051 0.0000 0.5418 0.0000
# 3 12.3634 45.4051 116.2084 0.0000 -1.0874 0.0000
# 4 0.0000 0.0000 0.0000 55.6212 0.0000 37.6426
# 5 8.2801 0.5418 -1.0874 0.0000 31.6988 0.0000
# 6 0.0000 0.0000 0.0000 37.6426 0.0000 46.7499
#
#
#
# Elastic Compliance Matrix: (Units=1/GPa)
#
#
# Indices 1 2 3 4 5 6 
#
# 1 0.015039 -0.005664 0.000577 0.000000 -0.003812 0.000000
# 2 -0.005664 0.011502 -0.003881 0.000000 0.001150 0.000000
# 3 0.000577 -0.003881 0.010062 0.000000 0.000261 0.000000
# 4 0.000000 0.000000 0.000000 0.039507 0.000000 -0.031811
# 5 -0.003812 0.001150 0.000261 0.000000 0.032532 0.000000
# 6 0.000000 0.000000 0.000000 -0.031811 0.000000 0.047004
#
#
# Mechanical properties :
#
#
# Convention : Reuss Voigt Hill
#
# Bulk Modulus (GPa) = 53.56401 59.11049 56.33725
# Shear Modulus (GPa) = 27.80798 41.66966 34.73882
#
# Velocity S-wave (km/s) = 3.73852 4.57641 4.17852
# Velocity P-wave (km/s) = 6.74961 7.59172 7.18302
#
# Compressibility (1/GPa) = 0.01866925
#
# Stress axis : x y z
#
# Youngs Moduli (GPa) = 66.49170 86.94495 99.37911
#
# Poissons Ratio (x) = 0.49244 -0.05737
# Poissons Ratio (y) = 0.37660 0.38565
# Poissons Ratio (z) = -0.03838 0.33740
#
# Static dielectric constant tensor:
#      x y z
#    x 1.200790 0.000000 0.224820 
#    y 0.000000 1.700280 0.000000 
#    z 0.224820 0.000000 1.625390 
# 
# From -- ./inp_files/32742.got.cif
#   From: 2010.05.17/outbox.cif.g08.bks.cpg/sg15_17_cif.got.tgz:32742.got - 2010.06.03 18:47:42.
