data_PCOD9282981
_publ_section_title
;
Structure prediction by ZEFSAII (Michael W. Deem and Ramdas Pophale) SiO2 
 PCOD9282981
Probable space group: C 2/C
;
_chemical_formula_sum "Si O2"
_cell_formula_units_Z 36
_cell_length_a 7.257339
_cell_length_b 25.261224
_cell_length_c 9.793400
_cell_angle_alpha 90.000000
_cell_angle_beta 46.289348
_cell_angle_gamma 90.000000
_cell_volume 1297.796752
_symmetry_space_group_name_H-M "C 2/C"
_symmetry_group_IT_number 15
_symmetry_cell_setting 'monoclinic'
loop_
_space_group_symop_operation_xyz
x,y,z
-x,y,1/2-z
-x,-y,-z
x,-y,1/2+z
1/2+x,1/2+y,z
1/2-x,1/2+y,1/2-z
1/2-x,1/2-y,-z
1/2+x,1/2-y,1/2+z
loop_
_atom_site_type_symbol
_atom_site_label
_atom_site_fract_x
_atom_site_fract_y
_atom_site_fract_z
Si Si1 0.286382 0.961612 0.740061
Si Si2 0.126351 0.202973 0.376631
Si Si3 0.000000 0.872423 0.750000
Si Si4 0.646711 0.926585 0.312698
Si Si5 0.348542 0.817576 0.048678
O O1 0.500000 0.956600 0.750000
O O2 0.437416 0.949675 0.523516
O O3 0.085610 0.914615 0.825218
O O4 0.176323 0.021540 0.798087
O O5 0.904555 0.172373 0.411066
O O6 0.379238 0.179283 0.171348
O O7 0.154864 0.192797 0.522778
O O8 0.134146 0.266219 0.364028
O O9 0.500000 0.915378 0.250000
O O10 0.720641 0.871999 0.343654
#
# Coordination Sequence:
#
# PCOD9282981 Si02
#       5
#     8   8   4   8   8
#     4  10  22  43  65  94 132 174 217 271 330 389
#     4  10  23  38  67  95 132 175 221 274 334 397
#     4  12  22  38  70 100 122 176 224 256 336 410
#     4  10  21  39  66  90 129 175 214 272 330 386
#     4  10  21  44  62  94 135 176 217 280 334 392
#
# _framework density 27.739318999999998
#
# number of rings (size 3 to 8) (size 9 to 14) (size 15 to 20)
#    0.000    1.778    2.222    1.333    1.556    2.667 
#    0.000   22.222    0.000    0.000    0.000    0.000 
#    0.000    0.000    0.000    0.000    0.000    0.000 
#
# Total GULP energy -100468.112013 kJ/mol
# GULP energy per Si atom -5581.561779 kJ/mol
# Density = 2.767618 g / cm^3
# Si number density = 27.739319 Si / 1000 Ang^3
#
#
#
# Elastic Constant Matrix: (Units=GPa)
#
#
# Indices 1 2 3 4 5 6 
#
# 1 96.1470 79.3227 38.7721 0.0000 35.6233 0.0000
# 2 79.3227 328.0392 63.8994 0.0000 40.4521 0.0000
# 3 38.7721 63.8994 92.8685 0.0000 29.9485 0.0000
# 4 0.0000 0.0000 0.0000 56.1773 0.0000 20.0076
# 5 35.6233 40.4521 29.9485 0.0000 60.0522 0.0000
# 6 0.0000 0.0000 0.0000 20.0076 0.0000 54.6291
#
#
#
# Elastic Compliance Matrix: (Units=1/GPa)
#
#
# Indices 1 2 3 4 5 6 
#
# 1 0.016002 -0.002522 -0.002898 0.000000 -0.006348 0.000000
# 2 -0.002522 0.004017 -0.001574 0.000000 -0.000425 0.000000
# 3 -0.002898 -0.001574 0.014496 0.000000 -0.004450 0.000000
# 4 0.000000 0.000000 0.000000 0.020471 0.000000 -0.007497
# 5 -0.006348 -0.000425 -0.004450 0.000000 0.022923 0.000000
# 6 0.000000 0.000000 0.000000 -0.007497 0.000000 0.021051
#
#
# Mechanical properties :
#
#
# Convention : Reuss Voigt Hill
#
# Bulk Modulus (GPa) = 48.71737 97.89370 73.30554
# Shear Modulus (GPa) = 41.73881 56.50907 49.12394
#
# Velocity S-wave (km/s) = 3.88323 4.51837 4.21279
# Velocity P-wave (km/s) = 6.14057 7.91127 7.08148
#
# Compressibility (1/GPa) = 0.02052656
#
# Stress axis : x y z
#
# Youngs Moduli (GPa) = 62.49055 248.92211 68.98460
#
# Poissons Ratio (x) = 0.62781 0.19994
# Poissons Ratio (y) = 0.15761 0.10859
# Poissons Ratio (z) = 0.18112 0.39185
#
# Static dielectric constant tensor:
#      x y z
#    x 3.045990 0.000000 -0.211710 
#    y 0.000000 2.256030 0.000000 
#    z -0.211710 0.000000 2.205260 
# 
# From -- ./inp_files/23104.got.cif
#   From: 2010.05.17/outbox.cif.g08.bks.cpg/sg15_12_cif.got.tgz:23104.got - 2010.06.03 18:47:42.
