data_PCOD9282948
_publ_section_title
;
Structure prediction by ZEFSAII (Michael W. Deem and Ramdas Pophale) SiO2 
 PCOD9282948
Probable space group: C 2/C
;
_chemical_formula_sum "Si O2"
_cell_formula_units_Z 56
_cell_length_a 11.024052
_cell_length_b 14.664967
_cell_length_c 14.646776
_cell_angle_alpha 90.000000
_cell_angle_beta 81.790719
_cell_angle_gamma 90.000000
_cell_volume 2343.641933
_symmetry_space_group_name_H-M "C 2/C"
_symmetry_group_IT_number 15
_symmetry_cell_setting 'monoclinic'
loop_
_space_group_symop_operation_xyz
x,y,z
-x,y,1/2-z
-x,-y,-z
x,-y,1/2+z
1/2+x,1/2+y,z
1/2-x,1/2+y,1/2-z
1/2-x,1/2-y,-z
1/2+x,1/2-y,1/2+z
loop_
_atom_site_type_symbol
_atom_site_label
_atom_site_fract_x
_atom_site_fract_y
_atom_site_fract_z
Si Si1 0.853628 0.136107 0.768343
Si Si2 0.851385 0.040782 0.940985
Si Si3 0.583778 0.222187 0.570046
Si Si4 0.042320 0.892936 0.885257
Si Si5 0.602364 0.984317 0.065594
Si Si6 0.328644 0.801228 0.633766
Si Si7 0.788856 0.458043 0.770704
O O1 0.842498 0.229921 0.714973
O O2 0.000000 0.113812 0.750000
O O3 0.819123 0.123844 0.877733
O O4 0.760580 0.061254 0.736316
O O5 0.928943 0.962355 0.879345
O O6 0.733882 0.996013 0.001527
O O7 0.932550 0.083687 0.011886
O O8 0.480572 0.286421 0.620555
O O9 0.585046 0.118882 0.600689
O O10 0.577970 0.216246 0.459891
O O11 0.703360 0.275306 0.594581
O O12 0.162767 0.912176 0.816074
O O13 0.615027 0.044304 0.155973
O O14 0.500000 0.000000 0.000000
O O15 0.331437 0.901868 0.677502
#
# Coordination Sequence:
#
# PCOD9282948 Si02
#       7
#     8   8   8   8   8   8   8
#     4  12  22  40  68 104 135 175 231 297 352 411
#     4  10  21  39  65  99 132 174 231 290 356 406
#     4  11  22  43  65  98 135 188 233 272 359 436
#     4  10  21  39  71  99 132 178 231 298 348 406
#     4  11  25  45  67  92 144 197 230 282 364 438
#     4  11  25  40  68 100 141 178 229 295 351 424
#     4  11  24  44  67 107 140 178 242 300 345 412
#
# _framework density 23.894435000000001
#
# number of rings (size 3 to 8) (size 9 to 14) (size 15 to 20)
#    0.000    1.143    2.857    4.286    2.000    3.429 
#    0.000    5.000    0.000    0.000    0.000    0.000 
#    0.000    0.000    0.000    0.000    0.000    0.000 
#
# Total GULP energy -156434.942709 kJ/mol
# GULP energy per Si atom -5586.962240 kJ/mol
# Density = 2.384005 g / cm^3
# Si number density = 23.894435 Si / 1000 Ang^3
#
#
#
# Elastic Constant Matrix: (Units=GPa)
#
#
# Indices 1 2 3 4 5 6 
#
# 1 49.5984 14.9741 16.5042 0.0000 19.0238 0.0000
# 2 14.9741 87.8019 26.4953 0.0000 6.8455 0.0000
# 3 16.5042 26.4953 103.4146 0.0000 23.9713 0.0000
# 4 0.0000 0.0000 0.0000 28.5585 0.0000 -9.5457
# 5 19.0238 6.8455 23.9713 0.0000 30.1077 0.0000
# 6 0.0000 0.0000 0.0000 -9.5457 0.0000 8.4143
#
#
#
# Elastic Compliance Matrix: (Units=1/GPa)
#
#
# Indices 1 2 3 4 5 6 
#
# 1 0.027591 -0.003512 0.000432 0.000000 -0.016979 0.000000
# 2 -0.003512 0.012794 -0.003136 0.000000 0.001807 0.000000
# 3 0.000432 -0.003136 0.012634 0.000000 -0.009619 0.000000
# 4 0.000000 0.000000 0.000000 0.056404 0.000000 0.063988
# 5 -0.016979 0.001807 -0.009619 0.000000 0.051190 0.000000
# 6 0.000000 0.000000 0.000000 0.063988 0.000000 0.191437
#
#
# Mechanical properties :
#
#
# Convention : Reuss Voigt Hill
#
# Bulk Modulus (GPa) = 24.63874 39.64021 32.13948
# Shear Modulus (GPa) = 13.22716 25.60554 19.41635
#
# Velocity S-wave (km/s) = 2.35535 3.27710 2.85369
# Velocity P-wave (km/s) = 4.21079 5.56281 4.93334
#
# Compressibility (1/GPa) = 0.04058649
#
# Stress axis : x y z
#
# Youngs Moduli (GPa) = 36.24385 78.16326 79.15133
#
# Poissons Ratio (x) = 0.27452 -0.03421
# Poissons Ratio (y) = 0.12729 0.24824
# Poissons Ratio (z) = -0.01567 0.24514
#
# Static dielectric constant tensor:
#      x y z
#    x 1.979720 0.000000 0.013340 
#    y 0.000000 1.928170 0.000000 
#    z 0.013340 0.000000 1.947260 
# 
# From -- ./inp_files/144245.got.cif
#   From: 2010.05.17/outbox.cif.g08.bks.cpg/sg15_73_cif.got.tgz:144245.got - 2010.06.03 18:47:42.
