data_PCOD9282135
_publ_section_title
;
Structure prediction by ZEFSAII (Michael W. Deem and Ramdas Pophale) SiO2 
 PCOD9282135
Probable space group: C 2/C
;
_chemical_formula_sum "Si O2"
_cell_formula_units_Z 56
_cell_length_a 11.410384
_cell_length_b 8.267251
_cell_length_c 29.194836
_cell_angle_alpha 90.000000
_cell_angle_beta 119.703406
_cell_angle_gamma 90.000000
_cell_volume 2392.149283
_symmetry_space_group_name_H-M "C 2/C"
_symmetry_group_IT_number 15
_symmetry_cell_setting 'monoclinic'
loop_
_space_group_symop_operation_xyz
x,y,z
-x,y,1/2-z
-x,-y,-z
x,-y,1/2+z
1/2+x,1/2+y,z
1/2-x,1/2+y,1/2-z
1/2-x,1/2-y,-z
1/2+x,1/2-y,1/2+z
loop_
_atom_site_type_symbol
_atom_site_label
_atom_site_fract_x
_atom_site_fract_y
_atom_site_fract_z
Si Si1 0.267052 0.501344 0.471781
Si Si2 0.037560 0.510936 0.587077
Si Si3 0.731851 0.635020 0.931443
Si Si4 0.707298 0.546958 0.193260
Si Si5 0.408479 0.570115 0.164656
Si Si6 0.167416 0.814579 0.099780
Si Si7 0.746795 0.898042 0.204498
O O1 0.310631 0.533660 0.532001
O O2 0.250519 0.678655 0.446409
O O3 0.351689 0.392073 0.453774
O O4 0.114893 0.432954 0.444400
O O5 0.125269 0.574495 0.561389
O O6 0.051367 0.315825 0.587923
O O7 0.115166 0.566140 0.647998
O O8 0.626843 0.590095 0.871814
O O9 0.561895 0.605557 0.184050
O O10 0.684449 0.450592 0.141905
O O11 0.788932 0.712975 0.204350
O O12 0.768541 0.434396 0.244878
O O13 0.305809 0.709418 0.128181
O O14 0.357412 0.520613 0.204937
#
# Coordination Sequence:
#
# PCOD9282135 Si02
#       7
#     8   8   8   8   8   8   8
#     4  11  20  38  59  82 116 150 183 234 279 326
#     4  10  21  39  57  83 115 147 185 235 278 325
#     4   9  21  37  58  85 113 147 192 227 277 338
#     4  12  22  40  60  82 116 149 182 235 280 327
#     4  10  22  41  58  83 116 147 184 236 278 325
#     4  10  22  36  59  86 110 147 194 223 275 343
#     4  10  22  38  61  86 111 147 192 226 279 341
#
# _framework density 23.40991
#
# number of rings (size 3 to 8) (size 9 to 14) (size 15 to 20)
#    0.000    2.000    0.000    6.000    0.000    2.286 
#    0.000   15.714    0.000    0.000    0.000    0.000 
#    0.000    0.000    0.000    0.000    0.000    0.000 
#
# Total GULP energy -156604.965525 kJ/mol
# GULP energy per Si atom -5593.034483 kJ/mol
# Density = 2.335663 g / cm^3
# Si number density = 23.409910 Si / 1000 Ang^3
#
#
#
# Elastic Constant Matrix: (Units=GPa)
#
#
# Indices 1 2 3 4 5 6 
#
# 1 33.2137 10.5711 8.2502 0.0000 -12.1528 0.0000
# 2 10.5711 71.1876 -5.4193 0.0000 -17.4258 0.0000
# 3 8.2502 -5.4193 54.2434 0.0000 -24.3595 0.0000
# 4 0.0000 0.0000 0.0000 18.2512 0.0000 -9.6858
# 5 -12.1528 -17.4258 -24.3595 0.0000 30.1761 0.0000
# 6 0.0000 0.0000 0.0000 -9.6858 0.0000 26.1887
#
#
#
# Elastic Compliance Matrix: (Units=1/GPa)
#
#
# Indices 1 2 3 4 5 6 
#
# 1 0.035579 -0.001897 0.000536 0.000000 0.013666 0.000000
# 2 -0.001897 0.020044 0.011209 0.000000 0.019859 0.000000
# 3 0.000536 0.011209 0.035260 0.000000 0.035152 0.000000
# 4 0.000000 0.000000 0.000000 0.068171 0.000000 0.025213
# 5 0.013666 0.019859 0.035152 0.000000 0.078487 0.000000
# 6 0.000000 0.000000 0.000000 0.025213 0.000000 0.047509
#
#
# Mechanical properties :
#
#
# Convention : Reuss Voigt Hill
#
# Bulk Modulus (GPa) = 9.04334 20.60542 14.82438
# Shear Modulus (GPa) = 16.54459 24.60605 20.57532
#
# Velocity S-wave (km/s) = 2.66133 3.24558 2.96787
# Velocity P-wave (km/s) = 3.64897 4.78186 4.25330
#
# Compressibility (1/GPa) = 0.11057859
#
# Stress axis : x y z
#
# Youngs Moduli (GPa) = 28.10638 49.89081 28.36083
#
# Poissons Ratio (x) = 0.09466 -0.01520
# Poissons Ratio (y) = 0.05333 -0.31791
# Poissons Ratio (z) = -0.01506 -0.55925
#
# Static dielectric constant tensor:
#      x y z
#    x 1.911460 0.000000 -0.005020 
#    y 0.000000 1.877520 0.000000 
#    z -0.005020 0.000000 1.866430 
# 
# From -- ./inp_files/310057.got.cif
#   From: 2010.05.17/outbox.cif.g08.bks.cpg/sg15_156_cif.got.tgz:310057.got - 2010.06.03 18:47:42.
