data_PCOD9282417
_publ_section_title
;
Structure prediction by ZEFSAII (Michael W. Deem and Ramdas Pophale) SiO2 
 PCOD9282417
Probable space group: C 2/C
;
_chemical_formula_sum "Si O2"
_cell_formula_units_Z 48
_cell_length_a 25.426956
_cell_length_b 6.880523
_cell_length_c 12.433433
_cell_angle_alpha 90.000000
_cell_angle_beta 88.832484
_cell_angle_gamma 90.000000
_cell_volume 2174.786910
_symmetry_space_group_name_H-M "C 2/C"
_symmetry_group_IT_number 15
_symmetry_cell_setting 'monoclinic'
loop_
_space_group_symop_operation_xyz
x,y,z
-x,y,1/2-z
-x,-y,-z
x,-y,1/2+z
1/2+x,1/2+y,z
1/2-x,1/2+y,1/2-z
1/2-x,1/2-y,-z
1/2+x,1/2-y,1/2+z
loop_
_atom_site_type_symbol
_atom_site_label
_atom_site_fract_x
_atom_site_fract_y
_atom_site_fract_z
Si Si1 0.287544 0.297731 0.631580
Si Si2 0.805382 0.387950 0.353099
Si Si3 0.524095 0.711437 0.511507
Si Si4 0.615641 0.210583 0.173887
Si Si5 0.456338 0.017286 0.156661
Si Si6 0.694422 0.526680 0.575125
O O1 0.246022 0.474384 0.653799
O O2 0.312896 0.215847 0.737575
O O3 0.324376 0.378371 0.536099
O O4 0.252190 0.117822 0.589894
O O5 0.853096 0.529195 0.378740
O O6 0.802574 0.203415 0.430474
O O7 0.500000 0.500000 0.500000
O O8 0.568296 0.719353 0.601578
O O9 0.546967 0.808763 0.401775
O O10 0.477342 0.844133 0.561225
O O11 0.657848 0.385264 0.170896
O O12 0.593077 0.123167 0.285524
O O13 0.500000 0.001747 0.250000
#
# Coordination Sequence:
#
# PCOD9282417 Si02
#       6
#     8   8   8   8   8   8
#     4  10  21  39  62  87 123 174 212 262 322 376
#     4  11  21  40  61  89 128 166 216 262 320 376
#     4  10  22  42  67  92 126 169 203 254 324 388
#     4  10  24  40  61  99 123 162 214 263 317 378
#     4   9  21  42  65  92 126 160 204 259 319 382
#     4  10  22  39  60  91 127 165 219 262 316 386
#
# _framework density 22.071128000000002
#
# number of rings (size 3 to 8) (size 9 to 14) (size 15 to 20)
#    0.000    2.000    1.667    0.500    2.333    7.333 
#    3.000    0.000    0.000    0.000    0.000    0.000 
#    0.000    0.000    0.000    0.000    0.000    0.000 
#
# Total GULP energy -133944.891451 kJ/mol
# GULP energy per Si atom -5581.037144 kJ/mol
# Density = 2.202089 g / cm^3
# Si number density = 22.071128 Si / 1000 Ang^3
#
#
#
# Elastic Constant Matrix: (Units=GPa)
#
#
# Indices 1 2 3 4 5 6 
#
# 1 53.5069 41.5729 9.3207 0.0000 -10.3994 0.0000
# 2 41.5729 171.8070 31.6183 0.0000 0.1283 0.0000
# 3 9.3207 31.6183 78.6593 0.0000 -10.4175 0.0000
# 4 0.0000 0.0000 0.0000 30.3105 0.0000 3.6476
# 5 -10.3994 0.1283 -10.4175 0.0000 25.2256 0.0000
# 6 0.0000 0.0000 0.0000 3.6476 0.0000 25.4230
#
#
#
# Elastic Compliance Matrix: (Units=1/GPa)
#
#
# Indices 1 2 3 4 5 6 
#
# 1 0.025620 -0.006390 0.000990 0.000000 0.011003 0.000000
# 2 -0.006390 0.007910 -0.002937 0.000000 -0.003887 0.000000
# 3 0.000990 -0.002937 0.014633 0.000000 0.006466 0.000000
# 4 0.000000 0.000000 0.000000 0.033572 0.000000 -0.004817
# 5 0.011003 -0.003887 0.006466 0.000000 0.046868 0.000000
# 6 0.000000 0.000000 0.000000 -0.004817 0.000000 0.040026
#
#
# Mechanical properties :
#
#
# Convention : Reuss Voigt Hill
#
# Bulk Modulus (GPa) = 31.75761 52.11078 41.93419
# Shear Modulus (GPa) = 25.53642 30.95591 28.24616
#
# Velocity S-wave (km/s) = 3.40517 3.74913 3.58128
# Velocity P-wave (km/s) = 5.46628 6.51175 6.01179
#
# Compressibility (1/GPa) = 0.03148852
#
# Stress axis : x y z
#
# Youngs Moduli (GPa) = 39.03211 126.42060 68.33964
#
# Poissons Ratio (x) = 0.80780 -0.06765
# Poissons Ratio (y) = 0.24941 0.20073
# Poissons Ratio (z) = -0.03864 0.37133
#
# Static dielectric constant tensor:
#      x y z
#    x 1.826680 0.000000 -0.036200 
#    y 0.000000 1.812770 0.000000 
#    z -0.036200 0.000000 1.884970 
# 
# From -- ./inp_files/175696.got.cif
#   From: 2010.05.17/outbox.cif.g08.bks.cpg/sg15_88_cif.got.tgz:175696.got - 2010.06.03 18:47:42.
