data_PCOD9282697
_publ_section_title
;
Structure prediction by ZEFSAII (Michael W. Deem and Ramdas Pophale) SiO2 
 PCOD9282697
Probable space group: C 2/C
;
_chemical_formula_sum "Si O2"
_cell_formula_units_Z 40
_cell_length_a 6.048088
_cell_length_b 13.343074
_cell_length_c 22.026552
_cell_angle_alpha 90.000000
_cell_angle_beta 74.062861
_cell_angle_gamma 90.000000
_cell_volume 1709.222090
_symmetry_space_group_name_H-M "C 2/C"
_symmetry_group_IT_number 15
_symmetry_cell_setting 'monoclinic'
loop_
_space_group_symop_operation_xyz
x,y,z
-x,y,1/2-z
-x,-y,-z
x,-y,1/2+z
1/2+x,1/2+y,z
1/2-x,1/2+y,1/2-z
1/2-x,1/2-y,-z
1/2+x,1/2-y,1/2+z
loop_
_atom_site_type_symbol
_atom_site_label
_atom_site_fract_x
_atom_site_fract_y
_atom_site_fract_z
Si Si1 0.034267 0.390866 0.070408
Si Si2 0.175085 0.609133 0.429592
Si Si3 0.055105 0.858879 0.810655
Si Si4 0.610047 0.750001 0.639952
Si Si5 0.176413 0.641122 0.689345
O O1 0.933244 0.499999 0.066754
O O2 0.828922 0.310510 0.096967
O O3 0.172870 0.402663 0.122430
O O4 0.179644 0.362487 1.000000
O O5 0.417731 0.597336 0.377570
O O6 0.022857 0.689488 0.403033
O O7 0.306001 0.830937 0.816230
O O8 0.000000 0.910844 0.750000
O O9 0.939245 0.750000 0.810757
O O10 0.438458 0.669065 0.683770
O O11 0.000000 0.589157 0.750000
#
# Coordination Sequence:
#
# PCOD9282697 Si02
#       5
#     8   8   8   8   8
#     4  10  22  39  58  89 126 161 206 255 307 376
#     4  10  22  39  58  89 126 161 206 255 307 376
#     4   9  20  38  60  89 118 156 202 255 307 370
#     4  10  21  39  64  86 119 165 206 256 319 371
#     4   9  20  38  60  89 118 156 202 255 307 370
#
# _framework density 23.402460000000001
#
# number of rings (size 3 to 8) (size 9 to 14) (size 15 to 20)
#    0.000    2.400    0.000    0.600    0.000   23.200 
#    7.200    4.000    0.000    0.000    0.000    0.000 
#    0.000    0.000    0.000    0.000    0.000    0.000 
#
# Total GULP energy -111499.297339 kJ/mol
# GULP energy per Si atom -5574.964867 kJ/mol
# Density = 2.334920 g / cm^3
# Si number density = 23.402460 Si / 1000 Ang^3
#
#
#
# Elastic Constant Matrix: (Units=GPa)
#
#
# Indices 1 2 3 4 5 6 
#
# 1 78.5310 0.4246 87.2741 0.0000 -1.9705 0.0000
# 2 0.4246 63.7073 20.8583 0.0000 -1.1569 0.0000
# 3 87.2741 20.8583 236.4518 0.0000 -6.9714 0.0000
# 4 0.0000 0.0000 0.0000 27.1028 0.0000 -0.0781
# 5 -1.9705 -1.1569 -6.9714 0.0000 13.3161 0.0000
# 6 0.0000 0.0000 0.0000 -0.0781 0.0000 25.7208
#
#
#
# Elastic Compliance Matrix: (Units=1/GPa)
#
#
# Indices 1 2 3 4 5 6 
#
# 1 0.022007 0.002580 -0.008377 0.000000 -0.000905 0.000000
# 2 0.002580 0.016472 -0.002389 0.000000 0.000562 0.000000
# 3 -0.008377 -0.002389 0.007607 0.000000 0.002535 0.000000
# 4 0.000000 0.000000 0.000000 0.036897 0.000000 0.000112
# 5 -0.000905 0.000562 0.002535 0.000000 0.076339 0.000000
# 6 0.000000 0.000000 0.000000 0.000112 0.000000 0.038879
#
#
# Mechanical properties :
#
#
# Convention : Reuss Voigt Hill
#
# Bulk Modulus (GPa) = 33.65500 66.20045 49.92773
# Shear Modulus (GPa) = 22.27404 31.23683 26.75544
#
# Velocity S-wave (km/s) = 3.08844 3.65741 3.38490
# Velocity P-wave (km/s) = 5.20866 6.79594 6.05454
#
# Compressibility (1/GPa) = 0.02971327
#
# Stress axis : x y z
#
# Youngs Moduli (GPa) = 45.44083 60.70965 131.46606
#
# Poissons Ratio (x) = -0.15660 1.10127
# Poissons Ratio (y) = -0.11722 0.31402
# Poissons Ratio (z) = 0.38065 0.14501
#
# Static dielectric constant tensor:
#      x y z
#    x 1.982880 0.000000 -0.002010 
#    y 0.000000 1.943750 0.000000 
#    z -0.002010 0.000000 2.018330 
# 
# From -- ./inp_files/226775.got.cif
#   From: 2010.05.17/outbox.cif.g08.bks.cpg/sg15_114_cif.got.tgz:226775.got - 2010.06.03 18:47:42.
