data_PCOD9282159
_publ_section_title
;
Structure prediction by ZEFSAII (Michael W. Deem and Ramdas Pophale) SiO2 
 PCOD9282159
Probable space group: C 2/C
;
_chemical_formula_sum "Si O2"
_cell_formula_units_Z 52
_cell_length_a 8.101992
_cell_length_b 28.783807
_cell_length_c 12.982053
_cell_angle_alpha 90.000000
_cell_angle_beta 62.060186
_cell_angle_gamma 90.000000
_cell_volume 2674.610889
_symmetry_space_group_name_H-M "C 2/C"
_symmetry_group_IT_number 15
_symmetry_cell_setting 'monoclinic'
loop_
_space_group_symop_operation_xyz
x,y,z
-x,y,1/2-z
-x,-y,-z
x,-y,1/2+z
1/2+x,1/2+y,z
1/2-x,1/2+y,1/2-z
1/2-x,1/2-y,-z
1/2+x,1/2-y,1/2+z
loop_
_atom_site_type_symbol
_atom_site_label
_atom_site_fract_x
_atom_site_fract_y
_atom_site_fract_z
Si Si1 0.368923 0.187096 0.135263
Si Si2 0.366629 0.184325 0.633581
Si Si3 0.874770 0.418961 0.154103
Si Si4 0.000000 0.233588 0.750000
Si Si5 0.275333 0.451023 0.090428
Si Si6 0.296680 0.558026 0.019214
Si Si7 0.500000 0.110348 0.250000
Si Si8 0.000000 0.763135 0.750000
O O1 0.443137 0.232181 0.174847
O O2 0.383834 0.143976 0.207918
O O3 0.163437 0.203061 0.164740
O O4 0.498597 0.176773 0.001288
O O5 0.347912 0.134827 0.694233
O O6 0.162927 0.201030 0.660881
O O7 0.441432 0.227435 0.677920
O O8 0.787018 0.450047 0.271036
O O9 0.772126 0.428988 0.076038
O O10 0.098556 0.427369 0.084835
O O11 0.484372 0.429284 0.025116
O O12 0.286755 0.502772 0.041355
O O13 0.149365 0.581330 0.140415
#
# Coordination Sequence:
#
# PCOD9282159 Si02
#       8
#     8   8   8   4   8   8   4   4
#     4  10  21  39  58  86 122 160 203 249 306 365
#     4  11  21  38  60  89 119 160 199 255 306 360
#     4  11  22  41  66  95 126 157 215 260 310 369
#     4   9  22  36  60  86 114 158 204 240 302 369
#     4  10  24  41  64  95 123 164 207 257 319 386
#     4  11  23  43  65  89 128 167 204 261 319 368
#     4  11  22  40  61  90 122 162 217 254 308 381
#     4  10  22  38  59  88 126 160 203 252 310 374
#
# _framework density 19.442080000000001
#
# number of rings (size 3 to 8) (size 9 to 14) (size 15 to 20)
#    0.000    1.538    1.538    3.692    2.154    1.231 
#    0.000    1.538    0.000    0.000    0.000    0.000 
#    0.000    0.000    0.000    0.000    0.000    0.000 
#
# Total GULP energy -145043.842753 kJ/mol
# GULP energy per Si atom -5578.609337 kJ/mol
# Density = 1.939783 g / cm^3
# Si number density = 19.442080 Si / 1000 Ang^3
#
#
#
# Elastic Constant Matrix: (Units=GPa)
#
#
# Indices 1 2 3 4 5 6 
#
# 1 98.4309 29.6403 30.0731 0.0000 -24.1782 0.0000
# 2 29.6403 58.3062 4.2715 0.0000 -12.8367 0.0000
# 3 30.0731 4.2715 69.2409 0.0000 -7.1495 0.0000
# 4 0.0000 0.0000 0.0000 26.0943 0.0000 -2.5711
# 5 -24.1782 -12.8367 -7.1495 0.0000 32.6134 0.0000
# 6 0.0000 0.0000 0.0000 -2.5711 0.0000 -7.2228
#
#
#
# Elastic Compliance Matrix: (Units=1/GPa)
#
#
# Indices 1 2 3 4 5 6 
#
# 1 0.015570 -0.005731 -0.005576 0.000000 0.008065 0.000000
# 2 -0.005731 0.020899 0.001648 0.000000 0.004338 0.000000
# 3 -0.005576 0.001648 0.016783 0.000000 0.000194 0.000000
# 4 0.000000 0.000000 0.000000 0.037024 0.000000 -0.013179
# 5 0.008065 0.004338 0.000194 0.000000 0.038391 0.000000
# 6 0.000000 0.000000 0.000000 -0.013179 0.000000 -0.133759
#
#
# Mechanical properties :
#
#
# Convention : Reuss Voigt Hill
#
# Bulk Modulus (GPa) = 29.47037 39.32753 34.39895
# Shear Modulus (GPa) = 195.79900 21.09653 108.44777
#
# Velocity S-wave (km/s) = 10.04627 3.29765 7.47670
# Velocity P-wave (km/s) = 12.23769 5.89672 9.60553
#
# Compressibility (1/GPa) = 0.03393239
#
# Stress axis : x y z
#
# Youngs Moduli (GPa) = 64.22709 47.85016 59.58582
#
# Poissons Ratio (x) = 0.27423 0.33226
# Poissons Ratio (y) = 0.36808 -0.09819
# Poissons Ratio (z) = 0.35814 -0.07885
#
# Static dielectric constant tensor:
#      x y z
#    x 1.723500 0.000000 -0.002250 
#    y 0.000000 1.643000 0.000000 
#    z -0.002250 0.000000 1.660630 
# 
# From -- ./inp_files/138475.got.cif
#   From: 2010.05.17/outbox.cif.g08.bks.cpg/sg15_70_cif.got.tgz:138475.got - 2010.06.03 18:47:42.
