data_PCOD9282660
_publ_section_title
;
Structure prediction by ZEFSAII (Michael W. Deem and Ramdas Pophale) SiO2 
 PCOD9282660
Probable space group: C 2/C
;
_chemical_formula_sum "Si O2"
_cell_formula_units_Z 64
_cell_length_a 13.598937
_cell_length_b 14.704286
_cell_length_c 17.985272
_cell_angle_alpha 90.000000
_cell_angle_beta 58.026781
_cell_angle_gamma 90.000000
_cell_volume 3050.796062
_symmetry_space_group_name_H-M "C 2/C"
_symmetry_group_IT_number 15
_symmetry_cell_setting 'monoclinic'
loop_
_space_group_symop_operation_xyz
x,y,z
-x,y,1/2-z
-x,-y,-z
x,-y,1/2+z
1/2+x,1/2+y,z
1/2-x,1/2+y,1/2-z
1/2-x,1/2-y,-z
1/2+x,1/2-y,1/2+z
loop_
_atom_site_type_symbol
_atom_site_label
_atom_site_fract_x
_atom_site_fract_y
_atom_site_fract_z
Si Si1 0.764602 0.188834 0.361077
Si Si2 0.122162 0.518198 0.413476
Si Si3 0.142396 0.756009 0.828905
Si Si4 0.449563 0.598865 0.385908
Si Si5 0.893958 0.562407 0.736530
Si Si6 0.683680 0.385436 0.418031
Si Si7 0.698873 0.355231 0.143746
Si Si8 0.476709 0.604006 0.652268
O O1 0.664933 0.117564 0.417967
O O2 0.776828 0.202226 0.267978
O O3 0.882507 0.145887 0.345088
O O4 0.739378 0.286147 0.406841
O O5 0.109786 0.507977 0.329476
O O6 0.220371 0.444369 0.396890
O O7 0.000000 0.500000 0.500000
O O8 0.099807 0.661128 0.807543
O O9 0.214537 0.727387 0.872636
O O10 0.039815 0.827237 0.881091
O O11 0.356280 0.576604 0.487550
O O12 0.508586 0.504173 0.342006
O O13 0.777715 0.559421 0.832542
O O14 0.000000 0.552174 0.750000
O O15 0.572376 0.377204 0.409317
O O16 0.620934 0.365376 0.249799
O O17 0.600820 0.350834 0.120111
#
# Coordination Sequence:
#
# PCOD9282660 Si02
#       8
#     8   8   8   8   8   8   8   8
#     4  11  22  41  61  98 124 163 219 269 326 386
#     4  11  23  38  65  93 126 168 222 268 314 403
#     4  10  21  39  63  95 124 161 212 275 322 377
#     4  12  24  35  71  96 124 164 223 276 314 393
#     4  10  22  41  60  85 133 173 201 262 345 379
#     4  11  24  41  61  96 134 160 212 277 336 378
#     4  10  21  41  65  88 126 173 212 261 327 385
#     4  11  21  43  65  92 125 175 218 258 323 393
#
# _framework density 20.978131999999999
#
# number of rings (size 3 to 8) (size 9 to 14) (size 15 to 20)
#    0.000    1.250    5.000    3.375    7.000    0.000 
#    0.000    1.875    0.000    0.000    0.000    0.000 
#    0.000    0.000    0.000    0.000    0.000    0.000 
#
# Total GULP energy -178867.416277 kJ/mol
# GULP energy per Si atom -5589.606759 kJ/mol
# Density = 2.093038 g / cm^3
# Si number density = 20.978132 Si / 1000 Ang^3
#
#
#
# Elastic Constant Matrix: (Units=GPa)
#
#
# Indices 1 2 3 4 5 6 
#
# 1 108.1064 11.5799 9.2519 0.0000 -0.9710 0.0000
# 2 11.5799 39.4189 -1.0800 0.0000 -2.9375 0.0000
# 3 9.2519 -1.0800 58.9268 0.0000 -7.9023 0.0000
# 4 0.0000 0.0000 0.0000 9.7196 0.0000 -7.8423
# 5 -0.9710 -2.9375 -7.9023 0.0000 23.3038 0.0000
# 6 0.0000 0.0000 0.0000 -7.8423 0.0000 28.5920
#
#
#
# Elastic Compliance Matrix: (Units=1/GPa)
#
#
# Indices 1 2 3 4 5 6 
#
# 1 0.009701 -0.002934 -0.001647 0.000000 -0.000524 0.000000
# 2 -0.002934 0.026547 0.001445 0.000000 0.003714 0.000000
# 3 -0.001647 0.001445 0.018093 0.000000 0.006249 0.000000
# 4 0.000000 0.000000 0.000000 0.132125 0.000000 0.036240
# 5 -0.000524 0.003714 0.006249 0.000000 0.045477 0.000000
# 6 0.000000 0.000000 0.000000 0.036240 0.000000 0.044915
#
#
# Mechanical properties :
#
#
# Convention : Reuss Voigt Hill
#
# Bulk Modulus (GPa) = 20.80336 27.32843 24.06589
# Shear Modulus (GPa) = 16.71388 24.76975 20.74181
#
# Velocity S-wave (km/s) = 2.82570 3.43992 3.14783
# Velocity P-wave (km/s) = 4.53699 5.36962 4.97077
#
# Compressibility (1/GPa) = 0.04806917
#
# Stress axis : x y z
#
# Youngs Moduli (GPa) = 103.08564 37.66935 55.26905
#
# Poissons Ratio (x) = 0.11052 0.09104
# Poissons Ratio (y) = 0.30244 -0.07988
# Poissons Ratio (z) = 0.16980 -0.05444
#
# Static dielectric constant tensor:
#      x y z
#    x 1.776320 0.000000 -0.001400 
#    y 0.000000 1.760000 0.000000 
#    z -0.001400 0.000000 1.741950 
# 
# From -- ./inp_files/205403.got.cif
#   From: 2010.05.17/outbox.cif.g08.bks.cpg/sg15_103_cif.got.tgz:205403.got - 2010.06.03 18:47:42.
