data_PCOD9282688
_publ_section_title
;
Structure prediction by ZEFSAII (Michael W. Deem and Ramdas Pophale) SiO2 
 PCOD9282688
Probable space group: C 2/C
;
_chemical_formula_sum "Si O2"
_cell_formula_units_Z 32
_cell_length_a 9.713477
_cell_length_b 27.468460
_cell_length_c 5.263769
_cell_angle_alpha 90.000000
_cell_angle_beta 119.778486
_cell_angle_gamma 90.000000
_cell_volume 1218.993974
_symmetry_space_group_name_H-M "C 2/C"
_symmetry_group_IT_number 15
_symmetry_cell_setting 'monoclinic'
loop_
_space_group_symop_operation_xyz
x,y,z
-x,y,1/2-z
-x,-y,-z
x,-y,1/2+z
1/2+x,1/2+y,z
1/2-x,1/2+y,1/2-z
1/2-x,1/2-y,-z
1/2+x,1/2-y,1/2+z
loop_
_atom_site_type_symbol
_atom_site_label
_atom_site_fract_x
_atom_site_fract_y
_atom_site_fract_z
Si Si1 0.249103 0.680663 0.703110
Si Si2 0.823316 0.916460 0.965447
Si Si3 0.500000 0.064165 0.250000
Si Si4 0.000000 0.756284 0.250000
Si Si5 0.500000 0.534448 0.250000
Si Si6 0.000000 0.371457 0.250000
O O1 0.267963 0.635957 0.521970
O O2 0.127902 0.720585 0.486239
O O3 0.415234 0.708110 0.874070
O O4 0.157730 0.660586 0.863399
O O5 0.683416 0.954686 0.927286
O O6 0.857714 0.929049 0.700876
O O7 0.000000 0.918349 0.250000
O O8 0.487648 0.095068 0.494223
O O9 0.500000 0.500000 0.500000
#
# Coordination Sequence:
#
# PCOD9282688 Si02
#       6
#     8   8   4   4   4   4
#     4  10  21  40  64 103 142 203 248 302 364 418
#     4  11  24  47  79 109 149 204 241 300 376 455
#     4  10  25  42  74 113 141 186 257 302 352 451
#     4  10  21  39  64 100 153 190 259 311 342 422
#     4  12  28  51  81 120 149 182 245 313 379 464
#     4  10  22  42  65  99 145 190 259 310 349 429
#
# _framework density 26.251154
#
# number of rings (size 3 to 8) (size 9 to 14) (size 15 to 20)
#    0.000    1.500    2.500    3.000    7.000    1.000 
#    0.000    6.250    0.000    0.000    0.000    0.000 
#    0.000    0.000    0.000    0.000    0.000    0.000 
#
# Total GULP energy -89163.640853 kJ/mol
# GULP energy per Si atom -5572.727553 kJ/mol
# Density = 2.619141 g / cm^3
# Si number density = 26.251154 Si / 1000 Ang^3
#
#
#
# Elastic Constant Matrix: (Units=GPa)
#
#
# Indices 1 2 3 4 5 6 
#
# 1 250.9988 57.1676 50.5238 0.0000 -11.1784 0.0000
# 2 57.1676 95.3068 25.9726 0.0000 -25.2302 0.0000
# 3 50.5238 25.9726 97.0004 0.0000 -13.1271 0.0000
# 4 0.0000 0.0000 0.0000 14.0207 0.0000 -14.7556
# 5 -11.1784 -25.2302 -13.1271 0.0000 57.0856 0.0000
# 6 0.0000 0.0000 0.0000 -14.7556 0.0000 -16.5495
#
#
#
# Elastic Compliance Matrix: (Units=1/GPa)
#
#
# Indices 1 2 3 4 5 6 
#
# 1 0.004943 -0.002597 -0.001965 0.000000 -0.000632 0.000000
# 2 -0.002597 0.013891 -0.001656 0.000000 0.005250 0.000000
# 3 -0.001965 -0.001656 0.011998 0.000000 0.001642 0.000000
# 4 0.000000 0.000000 0.000000 0.036796 0.000000 -0.032808
# 5 -0.000632 0.005250 0.001642 0.000000 0.020092 0.000000
# 6 0.000000 0.000000 0.000000 -0.032808 0.000000 -0.031173
#
#
# Mechanical properties :
#
#
# Convention : Reuss Voigt Hill
#
# Bulk Modulus (GPa) = 54.35747 78.95932 66.65839
# Shear Modulus (GPa) = 66.56460 31.55414 49.05937
#
# Velocity S-wave (km/s) = 5.04102 3.47076 4.32771
# Velocity P-wave (km/s) = 7.39149 6.79745 7.10068
#
# Compressibility (1/GPa) = 0.01839674
#
# Stress axis : x y z
#
# Youngs Moduli (GPa) = 202.31244 71.98789 83.34459
#
# Poissons Ratio (x) = 0.18693 0.16375
# Poissons Ratio (y) = 0.52533 0.13806
# Poissons Ratio (z) = 0.39749 0.11925
#
# Static dielectric constant tensor:
#      x y z
#    x 2.298120 0.000000 0.150200 
#    y 0.000000 2.153460 0.000000 
#    z 0.150200 0.000000 2.215220 
# 
# From -- ./inp_files/2753.got.cif
#   From: 2010.05.17/outbox.cif.g08.bks.cpg/sg15_2_cif.got.tgz:2753.got - 2010.06.03 18:47:42.
