data_PCOD9282771
_publ_section_title
;
Structure prediction by ZEFSAII (Michael W. Deem and Ramdas Pophale) SiO2 
 PCOD9282771
Probable space group: C 2/C
;
_chemical_formula_sum "Si O2"
_cell_formula_units_Z 60
_cell_length_a 18.980286
_cell_length_b 11.425861
_cell_length_c 14.207981
_cell_angle_alpha 90.000000
_cell_angle_beta 108.593610
_cell_angle_gamma 90.000000
_cell_volume 2920.401634
_symmetry_space_group_name_H-M "C 2/C"
_symmetry_group_IT_number 15
_symmetry_cell_setting 'monoclinic'
loop_
_space_group_symop_operation_xyz
x,y,z
-x,y,1/2-z
-x,-y,-z
x,-y,1/2+z
1/2+x,1/2+y,z
1/2-x,1/2+y,1/2-z
1/2-x,1/2-y,-z
1/2+x,1/2-y,1/2+z
loop_
_atom_site_type_symbol
_atom_site_label
_atom_site_fract_x
_atom_site_fract_y
_atom_site_fract_z
Si Si1 0.213622 0.983123 0.070630
Si Si2 0.281954 0.997375 0.408582
Si Si3 0.000000 0.436463 0.750000
Si Si4 0.844388 0.408472 0.743945
Si Si5 0.673090 0.357154 0.238162
Si Si6 0.557747 0.091250 0.476359
Si Si7 0.526158 0.500056 0.664162
Si Si8 0.566680 0.356326 0.507898
O O1 0.283495 0.053607 0.142372
O O2 0.144590 0.073882 0.039192
O O3 0.199436 0.879028 0.140671
O O4 0.232599 0.948648 0.971449
O O5 0.305404 0.072494 0.328205
O O6 0.236878 0.890540 0.340396
O O7 0.360659 0.963149 0.486640
O O8 0.920072 0.482660 0.758188
O O9 0.968673 0.382552 0.640858
O O10 0.858951 0.269736 0.750667
O O11 0.608262 0.452511 0.217648
O O12 0.567245 0.218764 0.525079
O O13 0.500000 0.000000 0.500000
O O14 0.500000 0.447201 0.750000
O O15 0.523101 0.409905 0.577864
O O16 0.476121 0.607583 0.605662
#
# Coordination Sequence:
#
# PCOD9282771 Si02
#       8
#     8   8   4   8   8   8   8   8
#     4  10  22  41  61  89 126 165 206 258 314 365
#     4  11  23  40  62  89 126 163 205 252 313 377
#     4  12  24  40  64  90 122 164 206 266 308 364
#     4  11  23  39  61  93 123 163 210 257 310 371
#     4  10  23  38  62  93 124 159 209 258 305 374
#     4  12  25  42  63  92 126 166 212 258 312 377
#     4  10  21  39  64  94 125 165 209 262 316 365
#     4  10  23  40  63  95 127 162 216 262 310 376
#
# _framework density 20.545119
#
# number of rings (size 3 to 8) (size 9 to 14) (size 15 to 20)
#    0.000    1.333    2.667    2.400    5.600    1.600 
#    1.200    0.000    5.867    0.000    0.000    0.000 
#    0.000    0.000    0.000    0.000    0.000    0.000 
#
# Total GULP energy -167086.451362 kJ/mol
# GULP energy per Si atom -5569.548379 kJ/mol
# Density = 2.049836 g / cm^3
# Si number density = 20.545119 Si / 1000 Ang^3
#
#
#
# Elastic Constant Matrix: (Units=GPa)
#
#
# Indices 1 2 3 4 5 6 
#
# 1 93.3129 2.9307 42.4681 0.0000 -7.1125 0.0000
# 2 2.9307 26.5360 -3.8565 0.0000 -3.6514 0.0000
# 3 42.4681 -3.8565 105.7715 0.0000 -12.6579 0.0000
# 4 0.0000 0.0000 0.0000 6.2655 0.0000 3.6125
# 5 -7.1125 -3.6514 -12.6579 0.0000 50.2726 0.0000
# 6 0.0000 0.0000 0.0000 3.6125 0.0000 8.0472
#
#
#
# Elastic Compliance Matrix: (Units=1/GPa)
#
#
# Indices 1 2 3 4 5 6 
#
# 1 0.013251 -0.002191 -0.005356 0.000000 0.000367 0.000000
# 2 -0.002191 0.038752 0.002673 0.000000 0.003178 0.000000
# 3 -0.005356 0.002673 0.011996 0.000000 0.002457 0.000000
# 4 0.000000 0.000000 0.000000 0.215340 0.000000 -0.096669
# 5 0.000367 0.003178 0.002457 0.000000 0.020793 0.000000
# 6 0.000000 0.000000 0.000000 -0.096669 0.000000 0.167662
#
#
# Mechanical properties :
#
#
# Convention : Reuss Voigt Hill
#
# Bulk Modulus (GPa) = 18.43302 34.30056 26.36679
# Shear Modulus (GPa) = 10.08819 25.18895 17.63857
#
# Velocity S-wave (km/s) = 2.21832 3.50527 2.93324
# Velocity P-wave (km/s) = 3.94369 5.75448 4.93289
#
# Compressibility (1/GPa) = 0.05425048
#
# Stress axis : x y z
#
# Youngs Moduli (GPa) = 75.46469 25.80484 83.35773
#
# Poissons Ratio (x) = 0.05655 0.44650
# Poissons Ratio (y) = 0.16538 -0.22283
# Poissons Ratio (z) = 0.40422 -0.06898
#
# Static dielectric constant tensor:
#      x y z
#    x 1.799590 0.000000 -0.050390 
#    y 0.000000 1.704550 0.000000 
#    z -0.050390 0.000000 1.917580 
# 
# From -- ./inp_files/161373.got.cif
#   From: 2010.05.17/outbox.cif.g08.bks.cpg/sg15_81_cif.got.tgz:161373.got - 2010.06.03 18:47:42.
