data_PCOD9282826
_publ_section_title
;
Structure prediction by ZEFSAII (Michael W. Deem and Ramdas Pophale) SiO2 
 PCOD9282826
Probable space group: C 2/C
;
_chemical_formula_sum "Si O2"
_cell_formula_units_Z 56
_cell_length_a 8.139628
_cell_length_b 21.544504
_cell_length_c 19.765341
_cell_angle_alpha 90.000000
_cell_angle_beta 47.532146
_cell_angle_gamma 90.000000
_cell_volume 2556.815572
_symmetry_space_group_name_H-M "C 2/C"
_symmetry_group_IT_number 15
_symmetry_cell_setting 'monoclinic'
loop_
_space_group_symop_operation_xyz
x,y,z
-x,y,1/2-z
-x,-y,-z
x,-y,1/2+z
1/2+x,1/2+y,z
1/2-x,1/2+y,1/2-z
1/2-x,1/2-y,-z
1/2+x,1/2-y,1/2+z
loop_
_atom_site_type_symbol
_atom_site_label
_atom_site_fract_x
_atom_site_fract_y
_atom_site_fract_z
Si Si1 0.847980 0.110303 0.358809
Si Si2 0.243224 0.486597 0.346544
Si Si3 0.930230 0.282050 0.496966
Si Si4 0.384360 0.067658 0.843588
Si Si5 0.112035 0.047978 0.413794
Si Si6 0.159565 0.863138 0.139944
Si Si7 0.527952 0.651702 0.526042
O O1 0.708996 0.170445 0.418098
O O2 0.000000 0.123286 0.250000
O O3 0.984577 0.080110 0.385283
O O4 0.680228 0.054720 0.386222
O O5 0.500000 0.493610 0.250000
O O6 0.268791 0.434014 0.395211
O O7 0.066384 0.456311 0.345550
O O8 0.750000 0.250000 0.500000
O O9 0.042244 0.222315 0.499809
O O10 0.124212 0.321511 0.407848
O O11 0.500000 0.102924 0.750000
O O12 0.204417 0.114994 0.924810
O O13 0.279224 0.004699 0.840048
O O14 0.191592 0.106155 0.437879
O O15 0.000000 0.000000 0.500000
O O16 0.000000 0.861537 0.250000
O O17 0.047550 0.845431 0.101005
#
# Coordination Sequence:
#
# PCOD9282826 Si02
#       7
#     8   8   8   8   8   8   8
#     4  11  24  44  69 103 146 183 237 302 361 429
#     4  10  21  39  65 102 134 168 230 289 350 416
#     4  12  26  46  72 103 142 190 245 292 356 428
#     4  11  21  38  71 101 134 182 226 286 355 425
#     4  10  22  42  66  98 139 178 226 291 353 420
#     4  11  25  46  72 100 142 186 240 298 354 430
#     4  11  24  46  65  99 143 181 236 287 353 431
#
# _framework density 21.902244
#
# number of rings (size 3 to 8) (size 9 to 14) (size 15 to 20)
#    0.000    1.143    1.429    6.429    4.000    2.286 
#    0.000    0.714    0.000    0.000    0.000    0.000 
#    0.000    0.000    0.000    0.000    0.000    0.000 
#
# Total GULP energy -156018.862527 kJ/mol
# GULP energy per Si atom -5572.102233 kJ/mol
# Density = 2.185239 g / cm^3
# Si number density = 21.902244 Si / 1000 Ang^3
#
#
#
# Elastic Constant Matrix: (Units=GPa)
#
#
# Indices 1 2 3 4 5 6 
#
# 1 60.0426 1.9522 6.7570 0.0000 5.0301 0.0000
# 2 1.9522 162.1996 40.2707 0.0000 -7.6061 0.0000
# 3 6.7570 40.2707 107.4228 0.0000 2.8787 -0.0001
# 4 0.0000 0.0000 0.0000 34.4642 0.0000 -2.0190
# 5 5.0301 -7.6061 2.8787 0.0000 31.5091 0.0000
# 6 0.0000 0.0000 -0.0001 -2.0190 0.0000 16.7795
#
#
#
# Elastic Compliance Matrix: (Units=1/GPa)
#
#
# Indices 1 2 3 4 5 6 
#
# 1 0.016988 -0.000089 -0.000964 0.000000 -0.002645 0.000000
# 2 -0.000089 0.006911 -0.002637 0.000000 0.001923 0.000000
# 3 -0.000964 -0.002637 0.010397 0.000000 -0.001432 0.000000
# 4 0.000000 0.000000 0.000000 0.029222 0.000000 0.003516
# 5 -0.002645 0.001923 -0.001432 0.000000 0.032754 0.000000
# 6 0.000000 0.000000 0.000000 0.003516 0.000000 0.060020
#
#
# Mechanical properties :
#
#
# Convention : Reuss Voigt Hill
#
# Bulk Modulus (GPa) = 37.15370 47.51388 42.33379
# Shear Modulus (GPa) = 28.96144 35.26289 32.11217
#
# Velocity S-wave (km/s) = 3.64030 4.01685 3.83320
# Velocity P-wave (km/s) = 5.88806 6.57679 6.24193
#
# Compressibility (1/GPa) = 0.02691522
#
# Stress axis : x y z
#
# Youngs Moduli (GPa) = 58.86557 144.69319 96.18584
#
# Poissons Ratio (x) = 0.01289 0.09275
# Poissons Ratio (y) = 0.00525 0.25362
# Poissons Ratio (z) = 0.05676 0.38153
#
# Static dielectric constant tensor:
#      x y z
#    x 1.878440 0.000000 -0.090330 
#    y 0.000000 1.829840 0.000000 
#    z -0.090330 0.000000 1.351760 
# 
# From -- ./inp_files/233772.got.cif
#   From: 2010.05.17/outbox.cif.g08.bks.cpg/sg15_117_cif.got.tgz:233772.got - 2010.06.03 18:47:42.
