data_PCOD9282466
_publ_section_title
;
Structure prediction by ZEFSAII (Michael W. Deem and Ramdas Pophale) SiO2 
 PCOD9282466
Probable space group: C 2/C
;
_chemical_formula_sum "Si O2"
_cell_formula_units_Z 48
_cell_length_a 9.281801
_cell_length_b 14.591984
_cell_length_c 28.427729
_cell_angle_alpha 90.000000
_cell_angle_beta 138.909104
_cell_angle_gamma 90.000000
_cell_volume 2530.597028
_symmetry_space_group_name_H-M "C 2/C"
_symmetry_group_IT_number 15
_symmetry_cell_setting 'monoclinic'
loop_
_space_group_symop_operation_xyz
x,y,z
-x,y,1/2-z
-x,-y,-z
x,-y,1/2+z
1/2+x,1/2+y,z
1/2-x,1/2+y,1/2-z
1/2-x,1/2-y,-z
1/2+x,1/2-y,1/2+z
loop_
_atom_site_type_symbol
_atom_site_label
_atom_site_fract_x
_atom_site_fract_y
_atom_site_fract_z
Si Si1 0.237992 0.505010 0.944508
Si Si2 0.569657 0.295052 0.821446
Si Si3 0.570934 0.174188 0.462098
Si Si4 0.993022 0.002745 0.192976
Si Si5 0.460382 0.080319 0.952563
Si Si6 0.049531 0.593976 0.706670
O O1 0.147516 0.413080 0.948810
O O2 0.152646 0.580734 0.961460
O O3 0.108993 0.530334 0.864615
O O4 0.500000 0.500000 0.000000
O O5 0.500000 0.295381 0.750000
O O6 0.504623 0.393883 0.827860
O O7 0.476609 0.199027 0.817912
O O8 0.831976 0.294951 0.887165
O O9 0.750000 0.250000 0.500000
O O10 0.555997 0.162184 0.515015
O O11 0.204925 0.943528 0.234574
O O12 0.000000 0.017652 0.250000
O O13 0.771182 0.947974 0.126998
O O14 0.500000 0.000000 0.000000
O O15 0.000000 0.592477 0.750000
#
# Coordination Sequence:
#
# PCOD9282466 Si02
#       6
#     8   8   8   8   8   8
#     4  11  22  41  63  97 132 164 218 275 326 382
#     4  10  21  39  62  91 125 168 217 251 318 398
#     4  11  23  41  68  94 128 176 221 263 328 408
#     4  11  20  43  67  86 129 166 218 265 324 394
#     4  10  21  39  66  92 122 173 215 259 327 389
#     4  11  25  39  64  96 128 171 212 270 328 386
#
# _framework density 18.967856000000001
#
# number of rings (size 3 to 8) (size 9 to 14) (size 15 to 20)
#    0.000    1.333    5.000    2.000    9.333    0.000 
#    0.000    5.833    0.000    0.000    0.000    0.000 
#    0.000    0.000    0.000    0.000    0.000    0.000 
#
# Total GULP energy -133625.642038 kJ/mol
# GULP energy per Si atom -5567.735085 kJ/mol
# Density = 1.892468 g / cm^3
# Si number density = 18.967856 Si / 1000 Ang^3
#
#
#
# Elastic Constant Matrix: (Units=GPa)
#
#
# Indices 1 2 3 4 5 6 
#
# 1 117.9141 44.3017 52.8652 0.0000 17.5170 0.0000
# 2 44.3017 87.2748 40.3687 0.0000 21.5026 0.0000
# 3 52.8652 40.3687 155.0661 0.0000 21.2111 0.0000
# 4 0.0000 0.0000 0.0000 13.6849 0.0000 21.3989
# 5 17.5170 21.5026 21.2111 0.0000 46.8753 0.0000
# 6 0.0000 0.0000 0.0000 21.3989 0.0000 14.1117
#
#
#
# Elastic Compliance Matrix: (Units=1/GPa)
#
#
# Indices 1 2 3 4 5 6 
#
# 1 0.011447 -0.004323 -0.002626 0.000000 -0.001106 0.000000
# 2 -0.004323 0.015726 -0.001977 0.000000 -0.004704 0.000000
# 3 -0.002626 -0.001977 0.008102 0.000000 -0.001778 0.000000
# 4 0.000000 0.000000 0.000000 -0.053292 0.000000 0.080813
# 5 -0.001106 -0.004704 -0.001778 0.000000 0.024709 0.000000
# 6 0.000000 0.000000 0.000000 0.080813 0.000000 -0.051681
#
#
# Mechanical properties :
#
#
# Convention : Reuss Voigt Hill
#
# Bulk Modulus (GPa) = 57.39515 70.59181 63.99348
# Shear Modulus (GPa) = -234.39680 29.78234 -102.30723
#
# Velocity S-wave (km/s) = -11.12853 3.96681 -7.35216
# Velocity P-wave (km/s) = 11.61037 7.63401 6.18557
#
# Compressibility (1/GPa) = 0.01742308
#
# Stress axis : x y z
#
# Youngs Moduli (GPa) = 87.36247 63.58965 123.42988
#
# Poissons Ratio (x) = 0.27492 0.32407
# Poissons Ratio (y) = 0.37770 0.24397
# Poissons Ratio (z) = 0.22937 0.12569
#
# Static dielectric constant tensor:
#      x y z
#    x 1.587740 0.000000 -0.012760 
#    y 0.000000 1.796340 0.000000 
#    z -0.012760 0.000000 1.622100 
# 
# From -- ./inp_files/289011.got.cif
#   From: 2010.05.17/outbox.cif.g08.bks.cpg/sg15_145_cif.got.tgz:289011.got - 2010.06.03 18:47:42.
