data_PCOD9282868
_publ_section_title
;
Structure prediction by ZEFSAII (Michael W. Deem and Ramdas Pophale) SiO2 
 PCOD9282868
Probable space group: C 2/C
;
_chemical_formula_sum "Si O2"
_cell_formula_units_Z 28
_cell_length_a 18.045434
_cell_length_b 14.243389
_cell_length_c 5.045031
_cell_angle_alpha 90.000000
_cell_angle_beta 57.895207
_cell_angle_gamma 90.000000
_cell_volume 1098.417983
_symmetry_space_group_name_H-M "C 2/C"
_symmetry_group_IT_number 15
_symmetry_cell_setting 'monoclinic'
loop_
_space_group_symop_operation_xyz
x,y,z
-x,y,1/2-z
-x,-y,-z
x,-y,1/2+z
1/2+x,1/2+y,z
1/2-x,1/2+y,1/2-z
1/2-x,1/2-y,-z
1/2+x,1/2-y,1/2+z
loop_
_atom_site_type_symbol
_atom_site_label
_atom_site_fract_x
_atom_site_fract_y
_atom_site_fract_z
Si Si1 0.327646 0.241484 0.560871
Si Si2 0.845110 0.438896 0.327809
Si Si3 0.500000 0.858952 0.750000
Si Si4 0.105333 0.056666 0.550540
O O1 0.250000 0.250000 0.500000
O O2 0.305452 0.161718 0.820341
O O3 0.420833 0.200565 0.269625
O O4 0.356138 0.343848 0.600096
O O5 0.824023 0.520399 0.153753
O O6 0.946954 0.416475 0.071022
O O7 0.000000 0.063887 0.750000
O O8 0.131540 0.977165 0.291520
#
# Coordination Sequence:
#
# PCOD9282868 Si02
#       4
#     8   8   4   8
#     4  10  22  40  62  93 126 162 206 255 308 369
#     4  10  21  39  65  92 124 162 203 254 313 368
#     4   8  20  40  64  86 132 150 216 242 322 352
#     4  10  21  41  64  88 121 165 209 254 304 361
#
# _framework density 25.491209000000001
#
# number of rings (size 3 to 8) (size 9 to 14) (size 15 to 20)
#    1.714    0.571    1.429    0.857    0.000    4.571 
#    0.000    2.857    0.000    0.000    0.000    0.000 
#    0.000    0.000    0.000    0.000    0.000    0.000 
#
# Total GULP energy -78296.573255 kJ/mol
# GULP energy per Si atom -5592.612375 kJ/mol
# Density = 2.543319 g / cm^3
# Si number density = 25.491209 Si / 1000 Ang^3
#
#
#
# Elastic Constant Matrix: (Units=GPa)
#
#
# Indices 1 2 3 4 5 6 
#
# 1 147.5447 34.5753 32.5039 0.0000 -20.3800 0.0000
# 2 34.5753 164.2032 15.3080 0.0000 -7.8448 0.0000
# 3 32.5039 15.3080 88.6647 0.0000 -22.4993 0.0000
# 4 0.0000 0.0000 0.0000 2.4298 0.0000 24.1772
# 5 -20.3800 -7.8448 -22.4993 0.0000 37.7839 0.0000
# 6 0.0000 0.0000 0.0000 24.1772 0.0000 37.5873
#
#
#
# Elastic Compliance Matrix: (Units=1/GPa)
#
#
# Indices 1 2 3 4 5 6 
#
# 1 0.007914 -0.001349 -0.001951 0.000000 0.002827 0.000000
# 2 -0.001349 0.006439 -0.000545 0.000000 0.000285 0.000000
# 3 -0.001951 -0.000545 0.013891 0.000000 0.007106 0.000000
# 4 0.000000 0.000000 0.000000 -0.076210 0.000000 0.049020
# 5 0.002827 0.000285 0.007106 0.000000 0.032282 0.000000
# 6 0.000000 0.000000 0.000000 0.049020 0.000000 -0.004927
#
#
# Mechanical properties :
#
#
# Convention : Reuss Voigt Hill
#
# Bulk Modulus (GPa) = 48.65388 62.79856 55.72622
# Shear Modulus (GPa) = -823.72446 36.76188 -393.48129
#
# Velocity S-wave (km/s) = -17.99561 3.80167 -12.43763
# Velocity P-wave (km/s) = 20.31407 6.63017 13.57760
#
# Compressibility (1/GPa) = 0.02055335
#
# Stress axis : x y z
#
# Youngs Moduli (GPa) = 126.35678 155.31465 71.98918
#
# Poissons Ratio (x) = 0.20960 0.14045
# Poissons Ratio (y) = 0.17052 0.03921
# Poissons Ratio (z) = 0.24652 0.08460
#
# Static dielectric constant tensor:
#      x y z
#    x 2.054860 0.000000 -0.057850 
#    y 0.000000 1.994960 0.000000 
#    z -0.057850 0.000000 1.971650 
# 
# From -- ./inp_files/9376.got.cif
#   From: 2010.05.17/outbox.cif.g08.bks.cpg/sg15_5_cif.got.tgz:9376.got - 2010.06.03 18:47:42.
