data_PCOD9282173
_publ_section_title
;
Structure prediction by ZEFSAII (Michael W. Deem and Ramdas Pophale) SiO2 
 PCOD9282173
Probable space group: C 2/C
;
_chemical_formula_sum "Si O2"
_cell_formula_units_Z 60
_cell_length_a 12.572831
_cell_length_b 13.711465
_cell_length_c 15.799203
_cell_angle_alpha 90.000000
_cell_angle_beta 85.963690
_cell_angle_gamma 90.000000
_cell_volume 2716.899496
_symmetry_space_group_name_H-M "C 2/C"
_symmetry_group_IT_number 15
_symmetry_cell_setting 'monoclinic'
loop_
_space_group_symop_operation_xyz
x,y,z
-x,y,1/2-z
-x,-y,-z
x,-y,1/2+z
1/2+x,1/2+y,z
1/2-x,1/2+y,1/2-z
1/2-x,1/2-y,-z
1/2+x,1/2-y,1/2+z
loop_
_atom_site_type_symbol
_atom_site_label
_atom_site_fract_x
_atom_site_fract_y
_atom_site_fract_z
Si Si1 0.321951 0.206722 0.124356
Si Si2 0.837174 0.863689 0.978149
Si Si3 0.936037 0.659751 0.664422
Si Si4 0.501524 0.049403 0.147277
Si Si5 0.000000 0.003575 0.750000
Si Si6 0.790525 0.883925 0.247934
Si Si7 0.556126 0.627427 0.407232
Si Si8 0.267738 0.021963 0.408733
O O1 0.204048 0.163409 0.113188
O O2 0.409745 0.124044 0.127548
O O3 0.321047 0.282080 0.201361
O O4 0.341259 0.271426 0.039961
O O5 0.957202 0.901208 0.971730
O O6 0.751803 0.940055 0.019122
O O7 0.980653 0.561698 0.619709
O O8 0.811606 0.637760 0.689068
O O9 0.951093 0.758008 0.611555
O O10 0.000000 0.671838 0.750000
O O11 0.500000 0.047708 0.250000
O O12 0.618468 0.072543 0.105675
O O13 0.036169 0.934927 0.823901
O O14 0.102247 0.069821 0.719681
O O15 0.750811 0.960084 0.177377
O O16 0.673701 0.598627 0.428756
#
# Coordination Sequence:
#
# PCOD9282173 Si02
#       8
#     8   8   8   8   4   8   8   8
#     4  10  24  39  68  89 129 166 211 258 318 379
#     4  10  23  44  64  90 125 176 217 249 312 388
#     4  11  21  36  60  91 127 156 208 254 314 379
#     4  11  24  40  65  95 129 162 207 269 324 368
#     4  10  24  36  64  96 126 160 212 262 328 364
#     4  10  21  39  58  93 125 159 202 262 316 375
#     4  11  23  39  66  90 127 168 212 264 314 371
#     4  10  22  42  61  90 124 167 210 260 310 378
#
# _framework density 22.083998000000001
#
# number of rings (size 3 to 8) (size 9 to 14) (size 15 to 20)
#    0.000    1.600    3.333    1.200    8.400    0.533 
#    0.000    0.667    0.000    0.000    0.000    0.000 
#    0.000    0.000    0.000    0.000    0.000    0.000 
#
# Total GULP energy -167683.790044 kJ/mol
# GULP energy per Si atom -5589.459668 kJ/mol
# Density = 2.203373 g / cm^3
# Si number density = 22.083998 Si / 1000 Ang^3
#
#
#
# Elastic Constant Matrix: (Units=GPa)
#
#
# Indices 1 2 3 4 5 6 
#
# 1 148.7422 44.0849 9.3125 0.0000 -14.5284 0.0000
# 2 44.0849 66.4784 3.1604 0.0000 13.1945 0.0000
# 3 9.3125 3.1604 11.0469 0.0000 -3.6473 0.0000
# 4 0.0000 0.0000 0.0000 -19.9669 0.0000 -3.8258
# 5 -14.5284 13.1945 -3.6473 0.0000 24.1937 0.0000
# 6 0.0000 0.0000 0.0000 -3.8258 0.0000 40.3425
#
#
#
# Elastic Compliance Matrix: (Units=1/GPa)
#
#
# Indices 1 2 3 4 5 6 
#
# 1 0.010670 -0.009121 -0.002766 0.000000 0.010965 0.000000
# 2 -0.009121 0.025416 -0.006280 0.000000 -0.020285 0.000000
# 3 -0.002766 -0.006280 0.100222 0.000000 0.016873 0.000000
# 4 0.000000 0.000000 0.000000 -0.049189 0.000000 -0.004665
# 5 0.010965 -0.020285 0.016873 0.000000 0.061524 0.000000
# 6 0.000000 0.000000 0.000000 -0.004665 0.000000 0.024345
#
#
# Mechanical properties :
#
#
# Convention : Reuss Voigt Hill
#
# Bulk Modulus (GPa) = 10.00241 37.70923 23.85582
# Shear Modulus (GPa) = 20.60619 20.22783 20.41701
#
# Velocity S-wave (km/s) = 3.05795 3.02975 3.04388
# Velocity P-wave (km/s) = 4.12398 5.41771 4.81450
#
# Compressibility (1/GPa) = 0.09997594
#
# Stress axis : x y z
#
# Youngs Moduli (GPa) = 93.71633 39.34590 9.97787
#
# Poissons Ratio (x) = 0.35887 0.02759
# Poissons Ratio (y) = 0.85478 0.06266
# Poissons Ratio (z) = 0.25917 0.24707
#
# Static dielectric constant tensor:
#      x y z
#    x 1.840260 0.000000 0.003030 
#    y 0.000000 1.807020 0.000000 
#    z 0.003030 0.000000 1.805000 
# 
# From -- ./inp_files/197884.got.cif
#   From: 2010.05.17/outbox.cif.g08.bks.cpg/sg15_99_cif.got.tgz:197884.got - 2010.06.03 18:47:42.
