data_PCOD9282715
_publ_section_title
;
Structure prediction by ZEFSAII (Michael W. Deem and Ramdas Pophale) SiO2 
 PCOD9282715
Probable space group: C 2/C
;
_chemical_formula_sum "Si O2"
_cell_formula_units_Z 60
_cell_length_a 12.110460
_cell_length_b 12.309777
_cell_length_c 23.469519
_cell_angle_alpha 90.000000
_cell_angle_beta 117.699716
_cell_angle_gamma 90.000000
_cell_volume 3097.794007
_symmetry_space_group_name_H-M "C 2/C"
_symmetry_group_IT_number 15
_symmetry_cell_setting 'monoclinic'
loop_
_space_group_symop_operation_xyz
x,y,z
-x,y,1/2-z
-x,-y,-z
x,-y,1/2+z
1/2+x,1/2+y,z
1/2-x,1/2+y,1/2-z
1/2-x,1/2-y,-z
1/2+x,1/2-y,1/2+z
loop_
_atom_site_type_symbol
_atom_site_label
_atom_site_fract_x
_atom_site_fract_y
_atom_site_fract_z
Si Si1 0.228297 0.594926 0.666309
Si Si2 0.306884 0.708182 0.415420
Si Si3 0.500000 0.376812 0.250000
Si Si4 0.251422 0.471289 0.435177
Si Si5 0.853231 0.471369 0.966719
Si Si6 0.965977 0.267448 0.630077
Si Si7 0.924743 0.767032 0.464757
Si Si8 0.501337 0.012909 0.818321
O O1 0.214636 0.723284 0.647665
O O2 0.366879 0.564645 0.719570
O O3 0.204232 0.531031 0.601487
O O4 0.122431 0.565037 0.685648
O O5 0.300740 0.577420 0.413435
O O6 0.181391 0.741594 0.419522
O O7 0.440332 0.739897 0.472545
O O8 0.505822 0.305340 0.308531
O O9 0.209239 0.505120 0.488796
O O10 0.352610 0.376570 0.462808
O O11 0.126375 0.431407 0.373024
O O12 0.847418 0.340829 0.961427
O O13 0.000000 0.500000 0.000000
O O14 0.990601 0.391061 0.654521
O O15 0.046851 0.235699 0.595531
O O16 0.500000 0.010882 0.750000
#
# Coordination Sequence:
#
# PCOD9282715 Si02
#       8
#     8   8   4   8   8   8   8   8
#     4  11  23  42  68  92 124 166 215 262 314 374
#     4  10  22  39  63  92 124 162 209 256 313 376
#     4  10  24  40  62  92 122 166 210 270 306 366
#     4  11  25  38  60 100 125 167 209 264 323 368
#     4  12  21  41  67  90 126 166 212 255 320 390
#     4  10  21  39  64  89 118 166 219 251 307 376
#     4  12  22  38  62  95 130 160 201 268 322 373
#     4  11  22  42  66  90 125 173 215 251 312 394
#
# _framework density 19.36862
#
# number of rings (size 3 to 8) (size 9 to 14) (size 15 to 20)
#    0.000    1.067    4.667    2.000    5.600    0.000 
#    0.000    0.000    4.400    0.000    0.000    0.000 
#    0.000    0.000    0.000    0.000    0.000    0.000 
#
# Total GULP energy -167530.712301 kJ/mol
# GULP energy per Si atom -5584.357077 kJ/mol
# Density = 1.932454 g / cm^3
# Si number density = 19.368620 Si / 1000 Ang^3
#
#
#
# Elastic Constant Matrix: (Units=GPa)
#
#
# Indices 1 2 3 4 5 6 
#
# 1 107.4816 38.6363 57.6227 0.0000 1.9774 0.0000
# 2 38.6363 77.3772 9.7059 0.0000 5.1283 0.0000
# 3 57.6227 9.7059 94.4701 0.0000 10.5634 0.0000
# 4 0.0000 0.0000 0.0000 23.0688 0.0000 -1.0248
# 5 1.9774 5.1283 10.5634 0.0000 40.4543 0.0000
# 6 0.0000 0.0000 0.0000 -1.0248 0.0000 30.8997
#
#
#
# Elastic Compliance Matrix: (Units=1/GPa)
#
#
# Indices 1 2 3 4 5 6 
#
# 1 0.017441 -0.007617 -0.010165 0.000000 0.002767 0.000000
# 2 -0.007617 0.016491 0.003238 0.000000 -0.002564 0.000000
# 3 -0.010165 0.003238 0.016938 0.000000 -0.004336 0.000000
# 4 0.000000 0.000000 0.000000 0.043413 0.000000 0.001440
# 5 0.002767 -0.002564 -0.004336 0.000000 0.026041 0.000000
# 6 0.000000 0.000000 0.000000 0.001440 0.000000 0.032411
#
#
# Mechanical properties :
#
#
# Convention : Reuss Voigt Hill
#
# Bulk Modulus (GPa) = 45.90899 54.58429 50.24664
# Shear Modulus (GPa) = 26.44369 30.44215 28.44292
#
# Velocity S-wave (km/s) = 3.69899 3.96880 3.83627
# Velocity P-wave (km/s) = 6.48055 7.01747 6.75435
#
# Compressibility (1/GPa) = 0.02178222
#
# Stress axis : x y z
#
# Youngs Moduli (GPa) = 57.33745 60.64017 59.03996
#
# Poissons Ratio (x) = 0.46189 0.60013
# Poissons Ratio (y) = 0.43673 -0.19119
# Poissons Ratio (z) = 0.58283 -0.19638
#
# Static dielectric constant tensor:
#      x y z
#    x 1.675630 0.000000 0.018470 
#    y 0.000000 1.694670 0.000000 
#    z 0.018470 0.000000 1.667570 
# 
# From -- ./inp_files/268941.got.cif
#   From: 2010.05.17/outbox.cif.g08.bks.cpg/sg15_135_cif.got.tgz:268941.got - 2010.06.03 18:47:42.
