data_PCOD9282018
_publ_section_title
;
Structure prediction by ZEFSAII (Michael W. Deem and Ramdas Pophale) SiO2 
 PCOD9282018
Probable space group: C 2/C
;
_chemical_formula_sum "Si O2"
_cell_formula_units_Z 32
_cell_length_a 5.671451
_cell_length_b 21.738368
_cell_length_c 12.316293
_cell_angle_alpha 90.000000
_cell_angle_beta 122.493312
_cell_angle_gamma 90.000000
_cell_volume 1280.744844
_symmetry_space_group_name_H-M "C 2/C"
_symmetry_group_IT_number 15
_symmetry_cell_setting 'monoclinic'
loop_
_space_group_symop_operation_xyz
x,y,z
-x,y,1/2-z
-x,-y,-z
x,-y,1/2+z
1/2+x,1/2+y,z
1/2-x,1/2+y,1/2-z
1/2-x,1/2-y,-z
1/2+x,1/2-y,1/2+z
loop_
_atom_site_type_symbol
_atom_site_label
_atom_site_fract_x
_atom_site_fract_y
_atom_site_fract_z
Si Si1 0.634929 0.555058 0.464876
Si Si2 0.214697 0.556274 0.627221
Si Si3 0.735945 0.348502 0.544928
Si Si4 0.199543 0.249798 0.618455
O O1 0.500000 0.500000 0.500000
O O2 0.737833 0.516282 0.385572
O O3 0.435903 0.614404 0.403339
O O4 0.913744 0.569680 0.603803
O O5 0.500000 0.577716 0.750000
O O6 0.182247 0.595844 0.511057
O O7 0.508265 0.307908 0.424114
O O8 0.011163 0.305744 0.621213
O O9 0.500000 0.245623 0.750000
O O10 0.250000 0.250000 0.500000
#
# Coordination Sequence:
#
# PCOD9282018 Si02
#       4
#     8   8   8   8
#     4   9  20  40  58  95 132 169 222 278 344 411
#     4  10  21  38  67  97 132 180 230 283 354 424
#     4  10  23  40  68  98 139 180 234 289 347 421
#     4  11  26  46  69 102 139 185 237 290 354 417
#
# _framework density 24.98546
#
# number of rings (size 3 to 8) (size 9 to 14) (size 15 to 20)
#    0.000    2.000    0.000    1.500    7.000    6.000 
#    0.000   30.000    0.000    0.000    0.000    0.000 
#    0.000    0.000    0.000    0.000    0.000    0.000 
#
# Total GULP energy -89106.890558 kJ/mol
# GULP energy per Si atom -5569.180660 kJ/mol
# Density = 2.492859 g / cm^3
# Si number density = 24.985460 Si / 1000 Ang^3
#
#
#
# Elastic Constant Matrix: (Units=GPa)
#
#
# Indices 1 2 3 4 5 6 
#
# 1 105.9085 41.8464 46.0795 0.0000 44.6499 0.0000
# 2 41.8464 133.3042 14.0489 0.0000 13.5622 0.0000
# 3 46.0795 14.0489 106.8640 0.0000 33.1507 0.0000
# 4 0.0000 0.0000 0.0000 19.7116 0.0000 17.2894
# 5 44.6499 13.5622 33.1507 0.0000 44.1651 0.0000
# 6 0.0000 0.0000 0.0000 17.2894 0.0000 62.8515
#
#
#
# Elastic Compliance Matrix: (Units=1/GPa)
#
#
# Indices 1 2 3 4 5 6 
#
# 1 0.018882 -0.004033 -0.002704 0.000000 -0.015822 0.000000
# 2 -0.004033 0.008616 0.000211 0.000000 0.001273 0.000000
# 3 -0.002704 0.000211 0.012602 0.000000 -0.006791 0.000000
# 4 0.000000 0.000000 0.000000 0.066865 0.000000 -0.018393
# 5 -0.015822 0.001273 -0.006791 0.000000 0.043344 0.000000
# 6 0.000000 0.000000 0.000000 -0.018393 0.000000 0.020970
#
#
# Mechanical properties :
#
#
# Convention : Reuss Voigt Hill
#
# Bulk Modulus (GPa) = 36.96808 61.11401 49.04104
# Shear Modulus (GPa) = 25.86035 41.61910 33.73973
#
# Velocity S-wave (km/s) = 3.22066 4.08577 3.67873
# Velocity P-wave (km/s) = 5.35333 6.83893 6.14122
#
# Compressibility (1/GPa) = 0.02705036
#
# Stress axis : x y z
#
# Youngs Moduli (GPa) = 52.96024 116.06529 79.35014
#
# Poissons Ratio (x) = 0.46807 0.21454
# Poissons Ratio (y) = 0.21358 -0.01678
# Poissons Ratio (z) = 0.14319 -0.02454
#
# Static dielectric constant tensor:
#      x y z
#    x 2.477230 0.000000 0.037890 
#    y 0.000000 1.978590 0.000000 
#    z 0.037890 0.000000 2.086830 
# 
# From -- ./inp_files/71892.got.cif
#   From: 2010.05.17/outbox.cif.g08.bks.cpg/sg15_36_cif.got.tgz:71892.got - 2010.06.03 18:47:42.
