data_PCOD9282063
_publ_section_title
;
Structure prediction by ZEFSAII (Michael W. Deem and Ramdas Pophale) SiO2 
 PCOD9282063
Probable space group: C 2/C
;
_chemical_formula_sum "Si O2"
_cell_formula_units_Z 48
_cell_length_a 10.221490
_cell_length_b 10.665836
_cell_length_c 16.720646
_cell_angle_alpha 90.000000
_cell_angle_beta 88.797273
_cell_angle_gamma 90.000000
_cell_volume 1822.495523
_symmetry_space_group_name_H-M "C 2/C"
_symmetry_group_IT_number 15
_symmetry_cell_setting 'monoclinic'
loop_
_space_group_symop_operation_xyz
x,y,z
-x,y,1/2-z
-x,-y,-z
x,-y,1/2+z
1/2+x,1/2+y,z
1/2-x,1/2+y,1/2-z
1/2-x,1/2-y,-z
1/2+x,1/2-y,1/2+z
loop_
_atom_site_type_symbol
_atom_site_label
_atom_site_fract_x
_atom_site_fract_y
_atom_site_fract_z
Si Si1 0.915680 0.647103 0.331375
Si Si2 0.041841 0.292069 0.000101
Si Si3 0.571416 0.153435 0.669290
Si Si4 0.355906 0.401483 0.338546
Si Si5 0.701040 0.539282 0.999604
Si Si6 0.331579 0.563622 0.668499
O O1 0.810041 0.758892 0.324964
O O2 0.000000 0.673660 0.250000
O O3 0.912493 0.497145 0.327573
O O4 0.014673 0.904137 0.335892
O O5 0.991483 0.313164 0.090879
O O6 0.093050 0.149586 0.000522
O O7 0.162392 0.388996 0.994925
O O8 0.500000 0.198498 0.750000
O O9 0.537103 0.176754 0.078300
O O10 0.728464 0.180607 0.657532
O O11 0.313101 0.453337 0.423794
O O12 0.311443 0.479463 0.260767
O O13 0.688636 0.480116 0.911165
#
# Coordination Sequence:
#
# PCOD9282063 Si02
#       6
#     8   8   8   8   8   8
#     4  11  21  39  65  90 123 169 208 250 316 369
#     4  10  21  41  63  94 124 172 204 249 318 379
#     4  10  24  42  63  89 128 168 208 258 307 381
#     4  11  21  39  69  94 119 164 210 264 297 372
#     4  10  21  38  69  90 129 163 206 258 313 374
#     4  10  21  42  60  94 123 162 212 248 319 363
#
# _framework density 26.337513000000001
#
# number of rings (size 3 to 8) (size 9 to 14) (size 15 to 20)
#    0.000    1.667    3.333    1.000    4.667    0.000 
#    3.000    3.333    0.000    0.000    0.000    0.000 
#    0.000    0.000    0.000    0.000    0.000    0.000 
#
# Total GULP energy -133864.582158 kJ/mol
# GULP energy per Si atom -5577.690923 kJ/mol
# Density = 2.627757 g / cm^3
# Si number density = 26.337513 Si / 1000 Ang^3
#
#
#
# Elastic Constant Matrix: (Units=GPa)
#
#
# Indices 1 2 3 4 5 6 
#
# 1 59.6762 -8.7310 36.7447 0.0000 8.9838 0.0000
# 2 -8.7310 71.4271 30.9500 0.0000 -2.5347 0.0000
# 3 36.7447 30.9500 272.3783 0.0000 15.3059 0.0000
# 4 0.0000 0.0000 0.0000 37.4244 0.0000 -3.9113
# 5 8.9838 -2.5347 15.3059 0.0000 42.7036 0.0000
# 6 0.0000 0.0000 0.0000 -3.9113 0.0000 16.0613
#
#
#
# Elastic Compliance Matrix: (Units=1/GPa)
#
#
# Indices 1 2 3 4 5 6 
#
# 1 0.019467 0.003520 -0.002865 0.000000 -0.002859 0.000000
# 2 0.003520 0.015457 -0.002287 0.000000 0.000997 0.000000
# 3 -0.002865 -0.002287 0.004380 0.000000 -0.001103 0.000000
# 4 0.000000 0.000000 0.000000 0.027418 0.000000 0.006677
# 5 -0.002859 0.000997 -0.001103 0.000000 0.024473 0.000000
# 6 0.000000 0.000000 0.000000 0.006677 0.000000 0.063888
#
#
# Mechanical properties :
#
#
# Convention : Reuss Voigt Hill
#
# Bulk Modulus (GPa) = 27.74868 57.93434 42.84151
# Shear Modulus (GPa) = 29.34943 42.20572 35.77757
#
# Velocity S-wave (km/s) = 3.34182 4.00746 3.68968
# Velocity P-wave (km/s) = 5.04470 6.59224 5.86970
#
# Compressibility (1/GPa) = 0.03603774
#
# Stress axis : x y z
#
# Youngs Moduli (GPa) = 51.36945 64.69582 228.32234
#
# Poissons Ratio (x) = -0.22771 0.65423
# Poissons Ratio (y) = -0.18080 0.52221
# Poissons Ratio (z) = 0.14719 0.14797
#
# Static dielectric constant tensor:
#      x y z
#    x 2.294400 0.000000 -0.044670 
#    y 0.000000 2.125150 0.000000 
#    z -0.044670 0.000000 2.101620 
# 
# From -- ./inp_files/143538.got.cif
#   From: 2010.05.17/outbox.cif.g08.bks.cpg/sg15_72_cif.got.tgz:143538.got - 2010.06.03 18:47:42.
