data_PCOD9282926
_publ_section_title
;
Structure prediction by ZEFSAII (Michael W. Deem and Ramdas Pophale) SiO2 
 PCOD9282926
Probable space group: C 2/C
;
_chemical_formula_sum "Si O2"
_cell_formula_units_Z 48
_cell_length_a 5.165905
_cell_length_b 26.475295
_cell_length_c 15.468828
_cell_angle_alpha 90.000000
_cell_angle_beta 92.128184
_cell_angle_gamma 90.000000
_cell_volume 2114.194676
_symmetry_space_group_name_H-M "C 2/C"
_symmetry_group_IT_number 15
_symmetry_cell_setting 'monoclinic'
loop_
_space_group_symop_operation_xyz
x,y,z
-x,y,1/2-z
-x,-y,-z
x,-y,1/2+z
1/2+x,1/2+y,z
1/2-x,1/2+y,1/2-z
1/2-x,1/2-y,-z
1/2+x,1/2-y,1/2+z
loop_
_atom_site_type_symbol
_atom_site_label
_atom_site_fract_x
_atom_site_fract_y
_atom_site_fract_z
Si Si1 0.595780 0.992254 0.652696
Si Si2 0.956358 0.794758 0.426247
Si Si3 0.500000 0.261614 0.250000
Si Si4 0.697611 0.454246 0.500666
Si Si5 0.014814 0.318948 0.979244
Si Si6 0.000000 0.811061 0.750000
Si Si7 0.851806 0.107664 0.110222
O O1 0.500000 0.002352 0.750000
O O2 0.393097 0.968287 0.580901
O O3 0.799055 0.945108 0.659523
O O4 0.688419 0.040838 0.595689
O O5 0.037203 0.799152 0.329847
O O6 0.190443 0.811176 0.490607
O O7 0.931630 0.733764 0.434317
O O8 0.681828 0.819658 0.442276
O O9 0.250374 0.224774 0.250002
O O10 0.500000 0.500000 0.500000
O O11 0.523425 0.407678 0.529485
O O12 0.918637 0.365961 0.921796
O O13 0.987813 0.849491 0.669150
#
# Coordination Sequence:
#
# PCOD9282926 Si02
#       7
#     8   8   4   8   8   4   8
#     4  10  21  39  65  96 131 174 217 276 335 408
#     4  10  22  39  58  85 126 169 213 261 322 396
#     4  12  24  42  60  94 129 170 219 274 332 398
#     4   9  21  39  60  94 131 172 214 264 339 411
#     4  10  22  37  59  89 122 170 214 258 325 390
#     4  12  26  34  62 104 133 162 213 284 338 384
#     4  11  23  36  60  95 134 168 217 281 336 395
#
# _framework density 22.703681
#
# number of rings (size 3 to 8) (size 9 to 14) (size 15 to 20)
#    0.000    1.667    1.667    2.000   10.500    2.000 
#    0.000    0.000    0.000    6.000    4.333    0.000 
#    0.000    0.000    0.000    0.000    0.000    0.000 
#
# Total GULP energy -133812.082390 kJ/mol
# GULP energy per Si atom -5575.503433 kJ/mol
# Density = 2.265201 g / cm^3
# Si number density = 22.703681 Si / 1000 Ang^3
#
#
#
# Elastic Constant Matrix: (Units=GPa)
#
#
# Indices 1 2 3 4 5 6 
#
# 1 73.1941 19.0105 7.6956 0.0000 -5.2489 0.0000
# 2 19.0105 46.9635 23.2178 0.0000 -4.7342 0.0000
# 3 7.6956 23.2178 136.4612 0.0000 -19.5541 0.0000
# 4 0.0000 0.0000 0.0000 28.9573 0.0000 -11.6560
# 5 -5.2489 -4.7342 -19.5541 0.0000 30.8384 0.0000
# 6 0.0000 0.0000 0.0000 -11.6560 0.0000 34.8479
#
#
#
# Elastic Compliance Matrix: (Units=1/GPa)
#
#
# Indices 1 2 3 4 5 6 
#
# 1 0.015380 -0.006265 0.000479 0.000000 0.001960 0.000000
# 2 -0.006265 0.025839 -0.003990 0.000000 0.000370 0.000000
# 3 0.000479 -0.003990 0.008694 0.000000 0.004982 0.000000
# 4 0.000000 0.000000 0.000000 0.039907 0.000000 0.013348
# 5 0.001960 0.000370 0.004982 0.000000 0.035976 0.000000
# 6 0.000000 0.000000 0.000000 0.013348 0.000000 0.033161
#
#
# Mechanical properties :
#
#
# Convention : Reuss Voigt Hill
#
# Bulk Modulus (GPa) = 32.93649 39.60740 36.27194
# Shear Modulus (GPa) = 26.50724 32.70836 29.60780
#
# Velocity S-wave (km/s) = 3.42062 3.79972 3.61515
# Velocity P-wave (km/s) = 5.48994 6.06084 5.78244
#
# Compressibility (1/GPa) = 0.03036147
#
# Stress axis : x y z
#
# Youngs Moduli (GPa) = 65.02096 38.70110 115.02520
#
# Poissons Ratio (x) = 0.24246 -0.05515
# Poissons Ratio (y) = 0.40736 0.45894
# Poissons Ratio (z) = -0.03118 0.15441
#
# Static dielectric constant tensor:
#      x y z
#    x 1.831430 0.000000 -0.330170 
#    y 0.000000 1.869220 0.000000 
#    z -0.330170 0.000000 1.196580 
# 
# From -- ./inp_files/130079.got.cif
#   From: 2010.05.17/outbox.cif.g08.bks.cpg/sg15_66_cif.got.tgz:130079.got - 2010.06.03 18:47:42.
