data_PCOD9282638
_publ_section_title
;
Structure prediction by ZEFSAII (Michael W. Deem and Ramdas Pophale) SiO2 
 PCOD9282638
Probable space group: C 2/C
;
_chemical_formula_sum "Si O2"
_cell_formula_units_Z 60
_cell_length_a 7.444933
_cell_length_b 22.274187
_cell_length_c 21.908748
_cell_angle_alpha 90.000000
_cell_angle_beta 48.232613
_cell_angle_gamma 90.000000
_cell_volume 2709.784654
_symmetry_space_group_name_H-M "C 2/C"
_symmetry_group_IT_number 15
_symmetry_cell_setting 'monoclinic'
loop_
_space_group_symop_operation_xyz
x,y,z
-x,y,1/2-z
-x,-y,-z
x,-y,1/2+z
1/2+x,1/2+y,z
1/2-x,1/2+y,1/2-z
1/2-x,1/2-y,-z
1/2+x,1/2-y,1/2+z
loop_
_atom_site_type_symbol
_atom_site_label
_atom_site_fract_x
_atom_site_fract_y
_atom_site_fract_z
Si Si1 0.025424 0.076991 0.916569
Si Si2 0.373525 0.942631 0.678281
Si Si3 0.306348 0.455273 0.915149
Si Si4 0.745587 0.742922 0.426585
Si Si5 0.452702 0.855990 0.004085
Si Si6 0.398445 0.609120 0.067051
Si Si7 0.729181 0.812218 0.818043
Si Si8 0.500000 0.960830 0.250000
O O1 0.823985 0.127458 0.949577
O O2 0.278231 0.077683 0.825139
O O3 0.891460 0.015744 0.927992
O O4 0.080479 0.083326 0.975615
O O5 0.653019 0.924956 0.604953
O O6 0.274011 0.876216 0.716253
O O7 0.755206 0.963060 0.855049
O O8 0.384237 0.994637 0.725515
O O9 0.520476 0.410167 0.884891
O O10 0.076279 0.418890 0.993587
O O11 0.750000 0.750000 0.500000
O O12 0.587303 0.799914 0.441880
O O13 0.628418 0.680001 0.433803
O O14 0.023243 0.734293 0.343300
O O15 0.624554 0.832878 0.908936
O O16 0.000000 0.788980 0.750000
#
# Coordination Sequence:
#
# PCOD9282638 Si02
#       8
#     8   8   8   8   8   8   8   4
#     4  12  23  42  61  97 134 181 222 274 341 399
#     4  10  23  43  57  96 130 169 217 281 330 396
#     4  11  23  38  69  96 126 172 225 276 337 405
#     4   9  17  39  62  90 131 171 212 281 324 386
#     4  10  21  39  63  93 133 173 220 276 330 398
#     4  11  21  41  69  91 134 173 228 275 333 401
#     4   9  18  33  63  93 119 165 221 272 327 375
#     4  12  28  38  62  94 142 180 220 282 344 416
#
# _framework density 22.141981000000001
#
# number of rings (size 3 to 8) (size 9 to 14) (size 15 to 20)
#    0.000    1.600    6.667    0.800    3.733    0.533 
#    1.200    0.000    0.000    0.000    0.000   14.933 
#    0.000    0.000    0.000    0.000    0.000    0.000 
#
# Total GULP energy -167160.209761 kJ/mol
# GULP energy per Si atom -5572.006992 kJ/mol
# Density = 2.209159 g / cm^3
# Si number density = 22.141981 Si / 1000 Ang^3
#
#
#
# Elastic Constant Matrix: (Units=GPa)
#
#
# Indices 1 2 3 4 5 6 
#
# 1 109.8308 23.6542 44.0681 0.0000 0.6382 0.0000
# 2 23.6542 67.8652 54.9266 0.0000 -12.9940 0.0000
# 3 44.0681 54.9266 130.4336 0.0000 -27.8325 0.0000
# 4 0.0000 0.0000 0.0000 23.3789 0.0000 -9.4319
# 5 0.6382 -12.9940 -27.8325 0.0000 28.9788 0.0000
# 6 0.0000 0.0000 0.0000 -9.4319 0.0000 20.4828
#
#
#
# Elastic Compliance Matrix: (Units=1/GPa)
#
#
# Indices 1 2 3 4 5 6 
#
# 1 0.011130 -0.001408 -0.004219 0.000000 -0.004929 0.000000
# 2 -0.001408 0.022567 -0.008630 0.000000 0.001861 0.000000
# 3 -0.004219 -0.008630 0.014993 0.000000 0.010623 0.000000
# 4 0.000000 0.000000 0.000000 0.052533 0.000000 0.024190
# 5 -0.004929 0.001861 0.010623 0.000000 0.045654 0.000000
# 6 0.000000 0.000000 0.000000 0.024190 0.000000 0.059961
#
#
# Mechanical properties :
#
#
# Convention : Reuss Voigt Hill
#
# Bulk Modulus (GPa) = 49.56591 61.49194 55.52892
# Shear Modulus (GPa) = 20.65454 26.93350 23.79402
#
# Velocity S-wave (km/s) = 3.05753 3.49148 3.28168
# Velocity P-wave (km/s) = 5.90751 6.63971 6.28429
#
# Compressibility (1/GPa) = 0.02017516
#
# Stress axis : x y z
#
# Youngs Moduli (GPa) = 89.85036 44.31212 66.69688
#
# Poissons Ratio (x) = 0.06241 0.28138
# Poissons Ratio (y) = 0.12654 0.57561
# Poissons Ratio (z) = 0.37907 0.38242
#
# Static dielectric constant tensor:
#      x y z
#    x 1.911890 0.000000 -0.017900 
#    y 0.000000 1.852430 0.000000 
#    z -0.017900 0.000000 1.880310 
# 
# From -- ./inp_files/266505.got.cif
#   From: 2010.05.17/outbox.cif.g08.bks.cpg/sg15_134_cif.got.tgz:266505.got - 2010.06.03 18:47:42.
