data_PCOD9282842
_publ_section_title
;
Structure prediction by ZEFSAII (Michael W. Deem and Ramdas Pophale) SiO2 
 PCOD9282842
Probable space group: C 2/C
;
_chemical_formula_sum "Si O2"
_cell_formula_units_Z 52
_cell_length_a 16.402669
_cell_length_b 10.096891
_cell_length_c 16.785025
_cell_angle_alpha 90.000000
_cell_angle_beta 114.965847
_cell_angle_gamma 90.000000
_cell_volume 2520.115900
_symmetry_space_group_name_H-M "C 2/C"
_symmetry_group_IT_number 15
_symmetry_cell_setting 'monoclinic'
loop_
_space_group_symop_operation_xyz
x,y,z
-x,y,1/2-z
-x,-y,-z
x,-y,1/2+z
1/2+x,1/2+y,z
1/2-x,1/2+y,1/2-z
1/2-x,1/2-y,-z
1/2+x,1/2-y,1/2+z
loop_
_atom_site_type_symbol
_atom_site_label
_atom_site_fract_x
_atom_site_fract_y
_atom_site_fract_z
Si Si1 0.795625 0.106245 0.008078
Si Si2 0.159474 0.027282 0.639963
Si Si3 0.830078 0.256890 0.420656
Si Si4 0.348532 0.135690 0.765728
Si Si5 0.500000 0.017200 0.250000
Si Si6 0.843258 0.367701 0.585224
Si Si7 0.107043 0.077340 0.283197
O O1 0.849705 0.062048 0.110283
O O2 0.750000 0.250000 0.000000
O O3 0.854241 0.108928 0.949164
O O4 0.716792 0.996327 0.963087
O O5 0.266178 0.051837 0.696838
O O6 0.135262 0.880719 0.599993
O O7 0.121924 0.028759 0.716015
O O8 0.835442 0.362241 0.354091
O O9 0.878760 0.301207 0.519780
O O10 0.726969 0.230594 0.402123
O O11 0.444364 0.074867 0.786162
O O12 0.348762 0.284338 0.730224
O O13 0.574374 0.100005 0.325513
O O14 0.000000 0.092413 0.250000
#
# Coordination Sequence:
#
# PCOD9282842 Si02
#       7
#     8   8   8   8   4   8   8
#     4  11  20  39  65  94 129 176 214 259 329 392
#     4  10  21  40  66  91 128 176 208 256 337 393
#     4   9  20  38  62  84 126 170 194 252 335 382
#     4  11  20  38  63  95 126 164 214 264 311 377
#     4  12  20  36  66  98 120 154 228 272 290 364
#     4  10  21  39  65  90 126 165 208 263 322 379
#     4  11  23  38  67  96 129 167 218 277 314 377
#
# _framework density 20.633972
#
# number of rings (size 3 to 8) (size 9 to 14) (size 15 to 20)
#    0.000    1.538    5.385    0.923    0.000    1.231 
#    0.000    0.000   33.846    0.000    0.000    0.000 
#    0.000    0.000    0.000    0.000    0.000    0.000 
#
# Total GULP energy -144818.869207 kJ/mol
# GULP energy per Si atom -5569.956508 kJ/mol
# Density = 2.058701 g / cm^3
# Si number density = 20.633972 Si / 1000 Ang^3
#
#
#
# Elastic Constant Matrix: (Units=GPa)
#
#
# Indices 1 2 3 4 5 6 
#
# 1 67.2923 21.7670 60.8643 0.0000 -18.6380 0.0000
# 2 21.7670 42.9096 26.9631 0.0000 -6.9364 0.0000
# 3 60.8643 26.9631 163.3238 0.0000 -21.9955 0.0000
# 4 0.0000 0.0000 0.0000 21.3725 0.0000 -11.5577
# 5 -18.6380 -6.9364 -21.9955 0.0000 40.5384 0.0000
# 6 0.0000 0.0000 0.0000 -11.5577 0.0000 15.7130
#
#
#
# Elastic Compliance Matrix: (Units=1/GPa)
#
#
# Indices 1 2 3 4 5 6 
#
# 1 0.025871 -0.007321 -0.007551 0.000000 0.006545 0.000000
# 2 -0.007321 0.028272 -0.001878 0.000000 0.000453 0.000000
# 3 -0.007551 -0.001878 0.009425 0.000000 0.001321 0.000000
# 4 0.000000 0.000000 0.000000 0.077693 0.000000 0.057147
# 5 0.006545 0.000453 0.001321 0.000000 0.028471 0.000000
# 6 0.000000 0.000000 0.000000 0.057147 0.000000 0.105677
#
#
# Mechanical properties :
#
#
# Convention : Reuss Voigt Hill
#
# Bulk Modulus (GPa) = 33.25883 54.74608 44.00245
# Shear Modulus (GPa) = 15.67735 26.45352 21.06544
#
# Velocity S-wave (km/s) = 2.75941 3.58444 3.19864
# Velocity P-wave (km/s) = 5.12893 6.61215 5.91720
#
# Compressibility (1/GPa) = 0.03006721
#
# Stress axis : x y z
#
# Youngs Moduli (GPa) = 38.65305 35.37081 106.10355
#
# Poissons Ratio (x) = 0.25895 0.80120
# Poissons Ratio (y) = 0.28298 0.19929
# Poissons Ratio (z) = 0.29187 0.06644
#
# Static dielectric constant tensor:
#      x y z
#    x 1.742140 0.000000 -0.071420 
#    y 0.000000 1.780540 0.000000 
#    z -0.071420 0.000000 1.781510 
# 
# From -- ./inp_files/204187.got.cif
#   From: 2010.05.17/outbox.cif.g08.bks.cpg/sg15_103_cif.got.tgz:204187.got - 2010.06.03 18:47:42.
