data_PCOD9282067
_publ_section_title
;
Structure prediction by ZEFSAII (Michael W. Deem and Ramdas Pophale) SiO2 
 PCOD9282067
Probable space group: C 2/C
;
_chemical_formula_sum "Si O2"
_cell_formula_units_Z 56
_cell_length_a 7.591643
_cell_length_b 29.741071
_cell_length_c 19.144941
_cell_angle_alpha 90.000000
_cell_angle_beta 144.730778
_cell_angle_gamma 90.000000
_cell_volume 2495.959772
_symmetry_space_group_name_H-M "C 2/C"
_symmetry_group_IT_number 15
_symmetry_cell_setting 'monoclinic'
loop_
_space_group_symop_operation_xyz
x,y,z
-x,y,1/2-z
-x,-y,-z
x,-y,1/2+z
1/2+x,1/2+y,z
1/2-x,1/2+y,1/2-z
1/2-x,1/2-y,-z
1/2+x,1/2-y,1/2+z
loop_
_atom_site_type_symbol
_atom_site_label
_atom_site_fract_x
_atom_site_fract_y
_atom_site_fract_z
Si Si1 0.199663 0.091598 0.701491
Si Si2 0.058782 0.352546 0.421740
Si Si3 0.763627 0.173365 0.537902
Si Si4 0.225534 0.774800 0.262458
Si Si5 0.773144 0.184001 0.233735
Si Si6 0.869789 0.997817 0.877263
Si Si7 0.641168 0.398250 0.653402
O O1 0.500000 0.092811 0.750000
O O2 0.326237 0.109121 0.817319
O O3 0.961956 0.128467 0.599310
O O4 0.052596 0.042437 0.641879
O O5 0.395086 0.373094 0.525252
O O6 0.967331 0.336369 0.470682
O O7 0.007308 0.308605 0.357195
O O8 0.561669 0.181313 0.405367
O O9 0.006417 0.213743 0.626830
O O10 0.291814 0.722843 0.297402
O O11 0.000000 0.791739 0.250000
O O12 0.871139 0.134037 0.284152
O O13 0.000000 0.203491 0.250000
O O14 0.500000 0.996509 0.750000
O O15 0.965668 0.949682 0.877026
O O16 0.000000 0.000000 0.000000
O O17 0.000000 0.397136 0.750000
#
# Coordination Sequence:
#
# PCOD9282067 Si02
#       7
#     8   8   8   8   8   8   8
#     4  10  21  38  69  95 117 162 216 258 305 374
#     4  10  21  44  64  90 126 166 210 259 316 375
#     4  10  22  42  64  88 132 161 206 262 318 373
#     4   9  21  42  64  87 117 167 213 260 307 373
#     4  12  24  41  58  94 130 165 202 261 322 376
#     4  10  22  40  63  96 131 163 211 269 318 368
#     4  11  24  40  64  90 128 167 209 263 316 372
#
# _framework density 22.436260000000001
#
# number of rings (size 3 to 8) (size 9 to 14) (size 15 to 20)
#    0.000    1.714    1.429    3.857    6.000    2.857 
#    2.571    2.143    0.000    0.000    0.000    0.000 
#    0.000    0.000    0.000    0.000    0.000    0.000 
#
# Total GULP energy -156015.494545 kJ/mol
# GULP energy per Si atom -5571.981948 kJ/mol
# Density = 2.238519 g / cm^3
# Si number density = 22.436260 Si / 1000 Ang^3
#
#
#
# Elastic Constant Matrix: (Units=GPa)
#
#
# Indices 1 2 3 4 5 6 
#
# 1 27.8340 0.2886 -3.0008 0.0000 8.2576 0.0001
# 2 0.2886 151.6476 56.6905 -0.0001 -3.9709 -0.0002
# 3 -3.0008 56.6905 114.3442 0.0000 4.1832 0.0005
# 4 0.0000 -0.0001 0.0000 15.6806 0.0000 -6.7025
# 5 8.2576 -3.9709 4.1832 0.0000 29.2460 0.0002
# 6 0.0001 -0.0002 0.0005 -6.7025 0.0002 14.8672
#
#
#
# Elastic Compliance Matrix: (Units=1/GPa)
#
#
# Indices 1 2 3 4 5 6 
#
# 1 0.039608 -0.001138 0.002029 0.000000 -0.011628 0.000000
# 2 -0.001138 0.008210 -0.004175 0.000000 0.002033 0.000000
# 3 0.002029 -0.004175 0.010968 0.000000 -0.002709 -0.000001
# 4 0.000000 0.000000 0.000000 0.078995 0.000000 0.035613
# 5 -0.011628 0.002033 -0.002709 0.000000 0.038139 0.000000
# 6 0.000000 0.000000 -0.000001 0.035613 0.000000 0.083317
#
#
# Mechanical properties :
#
#
# Convention : Reuss Voigt Hill
#
# Bulk Modulus (GPa) = 19.15066 44.64248 31.89657
# Shear Modulus (GPa) = 17.65467 27.94860 22.80164
#
# Velocity S-wave (km/s) = 2.80818 3.53326 3.19138
# Velocity P-wave (km/s) = 4.36677 6.04863 5.27516
#
# Compressibility (1/GPa) = 0.05221752
#
# Stress axis : x y z
#
# Youngs Moduli (GPa) = 25.24772 121.79774 91.17669
#
# Poissons Ratio (x) = 0.13866 -0.18502
# Poissons Ratio (y) = 0.02874 0.38065
# Poissons Ratio (z) = -0.05123 0.50849
#
# Static dielectric constant tensor:
#      x y z
#    x 1.879340 0.000000 -0.013750 
#    y 0.000000 1.834580 0.000000 
#    z -0.013750 0.000000 1.913130 
# 
# From -- ./inp_files/234961.got.cif
#   From: 2010.05.17/outbox.cif.g08.bks.cpg/sg15_118_cif.got.tgz:234961.got - 2010.06.03 18:47:42.
