data_PCOD9282293
_publ_section_title
;
Structure prediction by ZEFSAII (Michael W. Deem and Ramdas Pophale) SiO2 
 PCOD9282293
Probable space group: C 2/C
;
_chemical_formula_sum "Si O2"
_cell_formula_units_Z 56
_cell_length_a 9.134400
_cell_length_b 17.081377
_cell_length_c 20.307415
_cell_angle_alpha 90.000000
_cell_angle_beta 122.268541
_cell_angle_gamma 90.000000
_cell_volume 2679.164997
_symmetry_space_group_name_H-M "C 2/C"
_symmetry_group_IT_number 15
_symmetry_cell_setting 'monoclinic'
loop_
_space_group_symop_operation_xyz
x,y,z
-x,y,1/2-z
-x,-y,-z
x,-y,1/2+z
1/2+x,1/2+y,z
1/2-x,1/2+y,1/2-z
1/2-x,1/2-y,-z
1/2+x,1/2-y,1/2+z
loop_
_atom_site_type_symbol
_atom_site_label
_atom_site_fract_x
_atom_site_fract_y
_atom_site_fract_z
Si Si1 0.240774 0.507552 0.878625
Si Si2 0.146012 0.994111 0.450123
Si Si3 0.143747 0.652822 0.650687
Si Si4 0.965303 0.376330 0.838183
Si Si5 0.000000 0.237740 0.750000
Si Si6 0.301672 0.486714 0.683336
Si Si7 0.000000 0.369875 0.250000
Si Si8 0.667093 0.170581 0.510496
O O1 0.440114 0.493990 0.907277
O O2 0.115466 0.432215 0.844198
O O3 0.156833 0.574679 0.813369
O O4 0.257432 0.525533 0.961326
O O5 0.192216 0.900933 0.454831
O O6 0.202923 0.031555 0.395297
O O7 0.335873 0.685705 0.698634
O O8 0.169673 0.559265 0.660552
O O9 0.049798 0.676492 0.695626
O O10 0.086350 0.678613 0.564114
O O11 0.965196 0.294642 0.802072
O O12 0.781186 0.418595 0.793205
O O13 0.022533 0.360295 0.926242
O O14 0.500000 0.504489 0.750000
O O15 0.750000 0.250000 0.500000
#
# Coordination Sequence:
#
# PCOD9282293 Si02
#       8
#     8   8   8   8   4   8   4   8
#     4  10  21  39  60  98 125 166 213 282 321 385
#     4   9  22  37  63  92 134 164 217 272 335 384
#     4  11  24  41  66  94 134 175 217 270 330 402
#     4  11  24  39  70  94 129 170 227 272 328 399
#     4  12  25  44  64  97 130 178 216 264 341 408
#     4  11  22  39  66 100 129 171 224 280 329 388
#     4  12  23  36  66  91 130 168 226 266 331 388
#     4  10  21  42  67  94 127 181 223 265 333 407
#
# _framework density 20.902035999999999
#
# number of rings (size 3 to 8) (size 9 to 14) (size 15 to 20)
#    0.000    1.429    3.571    1.286    6.000    1.714 
#    1.286    0.000    0.000    1.714    0.000    0.000 
#    0.000    0.000    0.000    0.000    0.000    0.000 
#
# Total GULP energy -156327.795766 kJ/mol
# GULP energy per Si atom -5583.135563 kJ/mol
# Density = 2.085446 g / cm^3
# Si number density = 20.902036 Si / 1000 Ang^3
#
#
#
# Elastic Constant Matrix: (Units=GPa)
#
#
# Indices 1 2 3 4 5 6 
#
# 1 61.8545 17.3584 27.8139 0.0000 -25.4060 0.0000
# 2 17.3584 34.6645 6.2970 0.0000 -5.4323 0.0000
# 3 27.8139 6.2970 96.7453 0.0000 -24.1371 0.0000
# 4 0.0000 0.0000 0.0000 27.5003 0.0000 7.4835
# 5 -25.4060 -5.4323 -24.1371 0.0000 48.8979 0.0000
# 6 0.0000 0.0000 0.0000 7.4835 0.0000 34.0688
#
#
#
# Elastic Compliance Matrix: (Units=1/GPa)
#
#
# Indices 1 2 3 4 5 6 
#
# 1 0.024864 -0.010182 -0.004043 0.000000 0.009792 0.000000
# 2 -0.010182 0.033662 0.000398 0.000000 -0.001354 0.000000
# 3 -0.004043 0.000398 0.012499 0.000000 0.004114 0.000000
# 4 0.000000 0.000000 0.000000 0.038675 0.000000 -0.008495
# 5 0.009792 -0.001354 0.004114 0.000000 0.027419 0.000000
# 6 0.000000 0.000000 0.000000 -0.008495 0.000000 0.031218
#
#
# Mechanical properties :
#
#
# Convention : Reuss Voigt Hill
#
# Bulk Modulus (GPa) = 23.05578 32.91143 27.98360
# Shear Modulus (GPa) = 23.75895 31.54641 27.65268
#
# Velocity S-wave (km/s) = 3.37513 3.88912 3.64121
# Velocity P-wave (km/s) = 5.12279 5.99556 5.57628
#
# Compressibility (1/GPa) = 0.04337308
#
# Stress axis : x y z
#
# Youngs Moduli (GPa) = 40.21858 29.70707 80.00621
#
# Poissons Ratio (x) = 0.30248 0.32343
# Poissons Ratio (y) = 0.40950 -0.03188
# Poissons Ratio (z) = 0.16259 -0.01184
#
# Static dielectric constant tensor:
#      x y z
#    x 1.750710 0.000000 -0.054000 
#    y 0.000000 1.724460 0.000000 
#    z -0.054000 0.000000 1.808740 
# 
# From -- ./inp_files/232820.got.cif
#   From: 2010.05.17/outbox.cif.g08.bks.cpg/sg15_117_cif.got.tgz:232820.got - 2010.06.03 18:47:42.
