data_PCOD9282319
_publ_section_title
;
Structure prediction by ZEFSAII (Michael W. Deem and Ramdas Pophale) SiO2 
 PCOD9282319
Probable space group: C 2/C
;
_chemical_formula_sum "Si O2"
_cell_formula_units_Z 56
_cell_length_a 13.511870
_cell_length_b 7.911925
_cell_length_c 26.324839
_cell_angle_alpha 90.000000
_cell_angle_beta 125.419471
_cell_angle_gamma 90.000000
_cell_volume 2293.422789
_symmetry_space_group_name_H-M "C 2/C"
_symmetry_group_IT_number 15
_symmetry_cell_setting 'monoclinic'
loop_
_space_group_symop_operation_xyz
x,y,z
-x,y,1/2-z
-x,-y,-z
x,-y,1/2+z
1/2+x,1/2+y,z
1/2-x,1/2+y,1/2-z
1/2-x,1/2-y,-z
1/2+x,1/2-y,1/2+z
loop_
_atom_site_type_symbol
_atom_site_label
_atom_site_fract_x
_atom_site_fract_y
_atom_site_fract_z
Si Si1 0.306037 0.015318 0.878827
Si Si2 0.234732 0.661656 0.728477
Si Si3 0.764750 0.990551 0.334458
Si Si4 0.933764 0.299854 0.063843
Si Si5 0.414729 0.679140 0.953121
Si Si6 0.465465 0.189561 0.686500
Si Si7 0.671958 0.861752 0.011714
O O1 0.232129 0.026622 0.805123
O O2 0.432470 0.114800 0.904472
O O3 0.260316 0.111256 0.914688
O O4 0.329071 0.827370 0.904928
O O5 0.306191 0.640222 0.802012
O O6 0.098160 0.623136 0.708425
O O7 0.243386 0.836501 0.700169
O O8 0.868718 0.982158 0.408323
O O9 0.638732 0.941389 0.325606
O O10 0.921634 0.239543 0.118478
O O11 0.903897 0.166804 0.010552
O O12 0.852922 0.460612 0.023479
O O13 0.545334 0.762882 0.982375
O O14 0.500000 0.284117 0.750000
O O15 0.750000 0.750000 0.000000
#
# Coordination Sequence:
#
# PCOD9282319 Si02
#       7
#     8   8   8   8   8   8   8
#     4   8  16  34  56  76 112 155 195 249 308 359
#     4  10  21  39  61  87 119 164 210 254 313 381
#     4  11  22  37  63  84 123 165 202 260 321 368
#     4   8  16  33  55  78 114 153 199 246 308 365
#     4   9  18  35  54  85 115 158 201 249 323 370
#     4   9  20  38  59  84 117 162 201 250 309 371
#     4   9  17  30  55  81 114 153 195 259 300 371
#
# _framework density 24.417652
#
# number of rings (size 3 to 8) (size 9 to 14) (size 15 to 20)
#    0.000    2.857    0.000    2.571    2.000    1.714 
#    5.143    6.429    0.000    0.000    0.000    0.000 
#    0.000    0.000    0.000    0.000    0.000    0.000 
#
# Total GULP energy -156055.661336 kJ/mol
# GULP energy per Si atom -5573.416476 kJ/mol
# Density = 2.436208 g / cm^3
# Si number density = 24.417652 Si / 1000 Ang^3
#
#
#
# Elastic Constant Matrix: (Units=GPa)
#
#
# Indices 1 2 3 4 5 6 
#
# 1 97.7642 22.5755 47.2485 0.0000 -19.6450 0.0000
# 2 22.5755 67.8925 31.7934 0.0000 -6.4281 0.0000
# 3 47.2485 31.7934 195.2972 0.0000 -62.0817 0.0000
# 4 0.0000 0.0000 0.0000 33.7387 0.0000 7.2430
# 5 -19.6450 -6.4281 -62.0817 0.0000 44.8374 0.0000
# 6 0.0000 0.0000 0.0000 7.2430 0.0000 18.5468
#
#
#
# Elastic Compliance Matrix: (Units=1/GPa)
#
#
# Indices 1 2 3 4 5 6 
#
# 1 0.012257 -0.003068 -0.001605 0.000000 0.002708 0.000000
# 2 -0.003068 0.016851 -0.002966 0.000000 -0.003034 0.000000
# 3 -0.001605 -0.002966 0.010061 0.000000 0.012802 0.000000
# 4 0.000000 0.000000 0.000000 0.032352 0.000000 -0.012634
# 5 0.002708 -0.003034 0.012802 0.000000 0.040780 0.000000
# 6 0.000000 0.000000 0.000000 -0.012634 0.000000 0.058852
#
#
# Mechanical properties :
#
#
# Convention : Reuss Voigt Hill
#
# Bulk Modulus (GPa) = 41.85508 62.68762 52.27135
# Shear Modulus (GPa) = 25.72109 36.71369 31.21739
#
# Velocity S-wave (km/s) = 3.24910 3.88180 3.57946
# Velocity P-wave (km/s) = 5.59054 6.76904 6.20782
#
# Compressibility (1/GPa) = 0.02389196
#
# Stress axis : x y z
#
# Youngs Moduli (GPa) = 81.58636 59.34475 99.39277
#
# Poissons Ratio (x) = 0.18205 0.15954
# Poissons Ratio (y) = 0.25027 0.29477
# Poissons Ratio (z) = 0.13096 0.17600
#
# Static dielectric constant tensor:
#      x y z
#    x 1.961120 0.000000 0.041110 
#    y 0.000000 2.106790 0.000000 
#    z 0.041110 0.000000 2.062150 
# 
# From -- ./inp_files/295240.got.cif
#   From: 2010.05.17/outbox.cif.g08.bks.cpg/sg15_148_cif.got.tgz:295240.got - 2010.06.03 18:47:42.
