data_PCOD9282725
_publ_section_title
;
Structure prediction by ZEFSAII (Michael W. Deem and Ramdas Pophale) SiO2 
 PCOD9282725
Probable space group: C 2/C
;
_chemical_formula_sum "Si O2"
_cell_formula_units_Z 44
_cell_length_a 9.100731
_cell_length_b 7.094817
_cell_length_c 31.151508
_cell_angle_alpha 90.000000
_cell_angle_beta 119.672532
_cell_angle_gamma 90.000000
_cell_volume 1747.635362
_symmetry_space_group_name_H-M "C 2/C"
_symmetry_group_IT_number 15
_symmetry_cell_setting 'monoclinic'
loop_
_space_group_symop_operation_xyz
x,y,z
-x,y,1/2-z
-x,-y,-z
x,-y,1/2+z
1/2+x,1/2+y,z
1/2-x,1/2+y,1/2-z
1/2-x,1/2-y,-z
1/2+x,1/2-y,1/2+z
loop_
_atom_site_type_symbol
_atom_site_label
_atom_site_fract_x
_atom_site_fract_y
_atom_site_fract_z
Si Si1 0.559863 0.322911 0.878741
Si Si2 0.840921 0.169382 0.432826
Si Si3 0.128870 0.099629 0.299278
Si Si4 0.999893 0.614318 0.153859
Si Si5 0.000000 0.744467 0.250000
Si Si6 0.137834 0.250872 0.526591
O O1 0.434476 0.345357 0.900417
O O2 0.536580 0.433450 0.831093
O O3 0.535949 0.104131 0.861992
O O4 0.751198 0.362682 0.922855
O O5 0.948480 0.292859 0.482649
O O6 0.647791 0.217815 0.394300
O O7 0.854196 0.961075 0.454380
O O8 0.313629 0.179065 0.333304
O O9 0.000000 0.210187 0.250000
O O10 0.150832 0.899302 0.277697
O O11 0.997666 0.638142 0.204932
O O12 0.250000 0.250000 0.500000
#
# Coordination Sequence:
#
# PCOD9282725 Si02
#       6
#     8   8   8   8   4   8
#     4  10  21  39  64  90 120 161 200 248 307 365
#     4   9  18  35  63  92 120 155 203 250 302 366
#     4  10  26  39  56  86 125 157 203 256 303 357
#     4  11  23  39  62  85 116 163 206 249 303 362
#     4  10  26  38  58  82 122 158 204 256 300 352
#     4   8  16  34  62  94 123 156 196 247 309 368
#
# _framework density 25.176874999999999
#
# number of rings (size 3 to 8) (size 9 to 14) (size 15 to 20)
#    0.545    1.818    0.000    1.091    6.364    2.909 
#    0.000    0.909    0.000   44.727    0.000    0.000 
#    0.000    0.000    0.000    0.000    0.000    0.000 
#
# Total GULP energy -122818.392880 kJ/mol
# GULP energy per Si atom -5582.654222 kJ/mol
# Density = 2.511957 g / cm^3
# Si number density = 25.176875 Si / 1000 Ang^3
#
#
#
# Elastic Constant Matrix: (Units=GPa)
#
#
# Indices 1 2 3 4 5 6 
#
# 1 82.1565 6.3040 74.9428 0.0000 32.2979 0.0000
# 2 6.3040 67.8311 32.0669 0.0000 -0.5368 0.0000
# 3 74.9428 32.0669 195.3508 0.0000 12.0275 0.0000
# 4 0.0000 0.0000 0.0000 50.0320 0.0000 -7.7481
# 5 32.2979 -0.5368 12.0275 0.0000 55.6914 0.0000
# 6 0.0000 0.0000 0.0000 -7.7481 0.0000 16.0266
#
#
#
# Elastic Compliance Matrix: (Units=1/GPa)
#
#
# Indices 1 2 3 4 5 6 
#
# 1 0.025575 0.001938 -0.009342 0.000000 -0.012796 0.000000
# 2 0.001938 0.016159 -0.003381 0.000000 -0.000238 0.000000
# 3 -0.009342 -0.003381 0.009047 0.000000 0.003431 0.000000
# 4 0.000000 0.000000 0.000000 0.021605 0.000000 0.010445
# 5 -0.012796 -0.000238 0.003431 0.000000 0.024634 0.000000
# 6 0.000000 0.000000 0.000000 0.010445 0.000000 0.067446
#
#
# Mechanical properties :
#
#
# Convention : Reuss Voigt Hill
#
# Bulk Modulus (GPa) = 34.23402 63.55176 48.89289
# Shear Modulus (GPa) = 25.53993 39.81830 32.67911
#
# Velocity S-wave (km/s) = 3.18845 3.98118 3.60666
# Velocity P-wave (km/s) = 5.21363 6.81395 6.06679
#
# Compressibility (1/GPa) = 0.02921071
#
# Stress axis : x y z
#
# Youngs Moduli (GPa) = 39.10060 61.88485 110.53909
#
# Poissons Ratio (x) = -0.11994 1.03263
# Poissons Ratio (y) = -0.07578 0.37378
# Poissons Ratio (z) = 0.36527 0.20926
#
# Static dielectric constant tensor:
#      x y z
#    x 1.990410 0.000000 0.088980 
#    y 0.000000 2.046900 0.000000 
#    z 0.088980 0.000000 2.015030 
# 
# From -- ./inp_files/306752.got.cif
#   From: 2010.05.17/outbox.cif.g08.bks.cpg/sg15_154_cif.got.tgz:306752.got - 2010.06.03 18:47:42.
