data_PCOD9282262
_publ_section_title
;
Structure prediction by ZEFSAII (Michael W. Deem and Ramdas Pophale) SiO2 
 PCOD9282262
Probable space group: C 2/C
;
_chemical_formula_sum "Si O2"
_cell_formula_units_Z 60
_cell_length_a 18.133260
_cell_length_b 29.178196
_cell_length_c 7.944854
_cell_angle_alpha 90.000000
_cell_angle_beta 134.874356
_cell_angle_gamma 90.000000
_cell_volume 2978.897284
_symmetry_space_group_name_H-M "C 2/C"
_symmetry_group_IT_number 15
_symmetry_cell_setting 'monoclinic'
loop_
_space_group_symop_operation_xyz
x,y,z
-x,y,1/2-z
-x,-y,-z
x,-y,1/2+z
1/2+x,1/2+y,z
1/2-x,1/2+y,1/2-z
1/2-x,1/2-y,-z
1/2+x,1/2-y,1/2+z
loop_
_atom_site_type_symbol
_atom_site_label
_atom_site_fract_x
_atom_site_fract_y
_atom_site_fract_z
Si Si1 0.277522 0.882584 0.927990
Si Si2 0.500000 0.337316 0.750000
Si Si3 0.917025 0.178656 0.481793
Si Si4 0.118018 0.292512 0.415934
Si Si5 0.613838 0.067015 0.393452
Si Si6 0.297354 0.232271 0.820188
Si Si7 0.110631 0.530847 0.016960
Si Si8 0.274260 0.634672 0.769168
O O1 0.174071 0.859006 0.684935
O O2 0.365530 0.845955 0.015418
O O3 0.305238 0.934060 0.924184
O O4 0.268677 0.878337 0.114850
O O5 0.546283 0.313684 0.654317
O O6 0.398804 0.362872 0.503663
O O7 0.877083 0.227271 0.493074
O O8 0.000000 0.161312 0.750000
O O9 0.189160 0.259579 0.641381
O O10 0.163557 0.283477 0.302561
O O11 0.000000 0.280487 0.250000
O O12 0.500000 0.089179 0.250000
O O13 0.715125 0.098821 0.556739
O O14 0.634284 0.023042 0.544209
O O15 0.599462 0.044984 0.189776
O O16 0.269672 0.184243 0.860633
O O17 0.000000 0.538448 0.750000
#
# Coordination Sequence:
#
# PCOD9282262 Si02
#       8
#     8   4   8   8   8   8   8   8
#     4   9  19  36  57  86 118 153 198 253 298 364
#     4  10  22  38  68  84 120 178 208 256 310 366
#     4  10  22  39  59  85 126 164 212 257 303 360
#     4   9  16  29  53  80 110 152 195 239 297 354
#     4  11  23  38  63  90 124 155 197 254 304 378
#     4   9  20  32  52  85 116 155 205 251 293 355
#     4  11  21  38  64  91 119 157 196 242 319 369
#     4  10  21  39  60  89 124 159 209 253 308 362
#
# _framework density 20.141681999999999
#
# number of rings (size 3 to 8) (size 9 to 14) (size 15 to 20)
#    0.000    2.133    0.000    6.000    5.600    1.600 
#    0.000    0.667    1.467    2.400    0.000    0.000 
#    0.000    0.000    0.000    0.000    0.000    0.000 
#
# Total GULP energy -167163.140092 kJ/mol
# GULP energy per Si atom -5572.104670 kJ/mol
# Density = 2.009584 g / cm^3
# Si number density = 20.141682 Si / 1000 Ang^3
#
#
#
# Elastic Constant Matrix: (Units=GPa)
#
#
# Indices 1 2 3 4 5 6 
#
# 1 57.9850 12.1704 19.5640 0.0000 22.7530 0.0000
# 2 12.1704 81.5594 28.1643 0.0000 23.2017 0.0000
# 3 19.5640 28.1643 88.4881 0.0000 15.7838 0.0000
# 4 0.0000 0.0000 0.0000 3.4989 0.0000 -7.2385
# 5 22.7530 23.2017 15.7838 0.0000 29.5131 0.0000
# 6 0.0000 0.0000 0.0000 -7.2385 0.0000 22.7613
#
#
#
# Elastic Compliance Matrix: (Units=1/GPa)
#
#
# Indices 1 2 3 4 5 6 
#
# 1 0.025703 0.003061 -0.002977 0.000000 -0.020630 0.000000
# 2 0.003061 0.016971 -0.003623 0.000000 -0.013764 0.000000
# 3 -0.002977 -0.003623 0.013481 0.000000 -0.002066 0.000000
# 4 0.000000 0.000000 0.000000 0.835454 0.000000 0.265688
# 5 -0.020630 -0.013764 -0.002066 0.000000 0.061714 0.000000
# 6 0.000000 0.000000 0.000000 0.265688 0.000000 0.128427
#
#
# Mechanical properties :
#
#
# Convention : Reuss Voigt Hill
#
# Bulk Modulus (GPa) = 20.37629 38.64777 29.51203
# Shear Modulus (GPa) = 4.52412 22.36358 13.44385
#
# Velocity S-wave (km/s) = 1.50034 3.33575 2.58634
# Velocity P-wave (km/s) = 3.62489 5.83660 4.85828
#
# Compressibility (1/GPa) = 0.04907664
#
# Stress axis : x y z
#
# Youngs Moduli (GPa) = 38.90603 58.92408 74.17880
#
# Poissons Ratio (x) = -0.18040 0.22085
# Poissons Ratio (y) = -0.11911 0.26877
# Poissons Ratio (z) = 0.11584 0.21350
#
# Static dielectric constant tensor:
#      x y z
#    x 1.759230 0.000000 -0.018240 
#    y 0.000000 1.744580 0.000000 
#    z -0.018240 0.000000 1.728660 
# 
# From -- ./inp_files/59143.got.cif
#   From: 2010.05.17/outbox.cif.g08.bks.cpg/sg15_30_cif.got.tgz:59143.got - 2010.06.03 18:47:42.
