data_PCOD9282140
_publ_section_title
;
Structure prediction by ZEFSAII (Michael W. Deem and Ramdas Pophale) SiO2 
 PCOD9282140
Probable space group: C 2/C
;
_chemical_formula_sum "Si O2"
_cell_formula_units_Z 56
_cell_length_a 25.391641
_cell_length_b 9.803944
_cell_length_c 10.893299
_cell_angle_alpha 90.000000
_cell_angle_beta 108.681621
_cell_angle_gamma 90.000000
_cell_volume 2568.884310
_symmetry_space_group_name_H-M "C 2/C"
_symmetry_group_IT_number 15
_symmetry_cell_setting 'monoclinic'
loop_
_space_group_symop_operation_xyz
x,y,z
-x,y,1/2-z
-x,-y,-z
x,-y,1/2+z
1/2+x,1/2+y,z
1/2-x,1/2+y,1/2-z
1/2-x,1/2-y,-z
1/2+x,1/2-y,1/2+z
loop_
_atom_site_type_symbol
_atom_site_label
_atom_site_fract_x
_atom_site_fract_y
_atom_site_fract_z
Si Si1 0.820471 0.739487 0.756090
Si Si2 0.705506 0.596833 0.038460
Si Si3 0.565174 0.383949 0.656004
Si Si4 0.666436 0.038588 0.147970
Si Si5 0.674494 0.716087 0.514723
Si Si6 0.835796 0.374739 0.588070
Si Si7 0.562291 0.604929 0.436532
O O1 0.797344 0.857229 0.823086
O O2 0.887606 0.767273 0.816422
O O3 0.799215 0.595732 0.790055
O O4 0.808088 0.736501 0.605300
O O5 0.768951 0.599432 0.040881
O O6 0.685767 0.443076 0.021154
O O7 0.666272 0.711153 0.941928
O O8 0.572537 0.492190 0.550433
O O9 0.500684 0.342081 0.597662
O O10 0.569894 0.443547 0.799445
O O11 0.640340 0.081614 0.260924
O O12 0.696235 0.176218 0.127586
O O13 0.639794 0.970045 0.003477
O O14 0.607915 0.721996 0.486015
#
# Coordination Sequence:
#
# PCOD9282140 Si02
#       7
#     8   8   8   8   8   8   8
#     4  10  21  39  57  85 117 154 192 237 289 348
#     4  10  23  38  60  87 114 150 197 246 285 348
#     4   9  17  34  56  83 119 146 182 238 289 337
#     4  11  23  42  57  82 117 159 189 243 290 350
#     4  11  22  36  62  88 110 154 197 236 288 349
#     4  10  24  41  58  83 121 151 194 242 298 335
#     4   9  18  32  56  88 113 145 188 236 287 339
#
# _framework density 21.799347999999998
#
# number of rings (size 3 to 8) (size 9 to 14) (size 15 to 20)
#    0.000    2.000    2.857    0.000    4.000    2.857 
#    0.000    0.714    0.000    0.000    0.000    0.000 
#    0.000    0.000    0.000    0.000    0.000    0.000 
#
# Total GULP energy -155893.740657 kJ/mol
# GULP energy per Si atom -5567.633595 kJ/mol
# Density = 2.174973 g / cm^3
# Si number density = 21.799348 Si / 1000 Ang^3
#
#
#
# Elastic Constant Matrix: (Units=GPa)
#
#
# Indices 1 2 3 4 5 6 
#
# 1 79.3280 23.3581 34.2206 0.0000 -3.7496 0.0000
# 2 23.3581 136.5737 45.3044 0.0000 -9.7939 0.0000
# 3 34.2206 45.3044 126.0070 0.0000 -29.4568 0.0000
# 4 0.0000 0.0000 0.0000 20.1346 0.0000 -3.4389
# 5 -3.7496 -9.7939 -29.4568 0.0000 37.9251 0.0000
# 6 0.0000 0.0000 0.0000 -3.4389 0.0000 15.6877
#
#
#
# Elastic Compliance Matrix: (Units=1/GPa)
#
#
# Indices 1 2 3 4 5 6 
#
# 1 0.014608 -0.001329 -0.003949 0.000000 -0.001966 0.000000
# 2 -0.001329 0.008436 -0.002680 0.000000 -0.000035 0.000000
# 3 -0.003949 -0.002680 0.011875 0.000000 0.008141 0.000000
# 4 0.000000 0.000000 0.000000 0.051598 0.000000 0.011311
# 5 -0.001966 -0.000035 0.008141 0.000000 0.032488 0.000000
# 6 0.000000 0.000000 0.000000 0.011311 0.000000 0.066224
#
#
# Mechanical properties :
#
#
# Convention : Reuss Voigt Hill
#
# Bulk Modulus (GPa) = 52.62506 60.85276 56.73891
# Shear Modulus (GPa) = 24.09886 30.68452 27.39169
#
# Velocity S-wave (km/s) = 3.32849 3.75586 3.54861
# Velocity P-wave (km/s) = 6.24218 6.83989 6.54786
#
# Compressibility (1/GPa) = 0.01900235
#
# Stress axis : x y z
#
# Youngs Moduli (GPa) = 68.45635 118.53965 84.20901
#
# Poissons Ratio (x) = 0.15759 0.33252
# Poissons Ratio (y) = 0.09101 0.22569
# Poissons Ratio (z) = 0.27032 0.31770
#
# Static dielectric constant tensor:
#      x y z
#    x 1.846000 0.000000 0.029650 
#    y 0.000000 1.804020 0.000000 
#    z 0.029650 0.000000 1.912940 
# 
# From -- ./inp_files/122007.got.cif
#   From: 2010.05.17/outbox.cif.g08.bks.cpg/sg15_62_cif.got.tgz:122007.got - 2010.06.03 18:47:42.
