data_PCOD9282733
_publ_section_title
;
Structure prediction by ZEFSAII (Michael W. Deem and Ramdas Pophale) SiO2 
 PCOD9282733
Probable space group: C 2/C
;
_chemical_formula_sum "Si O2"
_cell_formula_units_Z 48
_cell_length_a 8.432034
_cell_length_b 23.347953
_cell_length_c 13.179636
_cell_angle_alpha 90.000000
_cell_angle_beta 48.058888
_cell_angle_gamma 90.000000
_cell_volume 1930.009851
_symmetry_space_group_name_H-M "C 2/C"
_symmetry_group_IT_number 15
_symmetry_cell_setting 'monoclinic'
loop_
_space_group_symop_operation_xyz
x,y,z
-x,y,1/2-z
-x,-y,-z
x,-y,1/2+z
1/2+x,1/2+y,z
1/2-x,1/2+y,1/2-z
1/2-x,1/2-y,-z
1/2+x,1/2-y,1/2+z
loop_
_atom_site_type_symbol
_atom_site_label
_atom_site_fract_x
_atom_site_fract_y
_atom_site_fract_z
Si Si1 0.940152 0.739961 0.167175
Si Si2 0.516380 0.900842 0.068515
Si Si3 0.992472 0.736391 0.924905
Si Si4 0.500476 0.423803 0.920474
Si Si5 0.933364 0.608628 0.172797
Si Si6 0.912659 0.944861 0.175571
O O1 0.683384 0.742528 0.272720
O O2 0.012762 0.673843 0.139652
O O3 0.000000 0.767759 0.250000
O O4 0.027667 0.762250 0.023115
O O5 0.486619 0.832404 0.082430
O O6 0.336650 0.929643 0.213272
O O7 0.757079 0.912390 0.997953
O O8 0.493316 0.921076 0.961336
O O9 0.750000 0.750000 0.000000
O O10 0.676786 0.388037 0.785594
O O11 0.552846 0.488600 0.864509
O O12 0.520870 0.414305 0.032906
O O13 0.000000 0.579750 0.250000
O O14 0.000000 0.930642 0.250000
#
# Coordination Sequence:
#
# PCOD9282733 Si02
#       6
#     8   8   8   8   8   8
#     4  10  22  39  60  90 125 162 203 249 303 363
#     4  11  24  42  63  91 124 161 205 253 305 362
#     4  11  23  39  64  92 123 162 204 252 305 361
#     4  11  24  41  64  90 121 160 204 254 305 360
#     4  10  21  39  64  91 122 161 204 250 303 363
#     4  11  25  42  62  90 123 161 204 252 306 362
#
# _framework density 24.870339000000001
#
# number of rings (size 3 to 8) (size 9 to 14) (size 15 to 20)
#    0.000    1.333    0.000    5.000    0.000   12.667 
#    0.000    0.000    0.000    0.000    0.000    0.000 
#    0.000    0.000    0.000    0.000    0.000    0.000 
#
# Total GULP energy -134337.114479 kJ/mol
# GULP energy per Si atom -5597.379770 kJ/mol
# Density = 2.481373 g / cm^3
# Si number density = 24.870339 Si / 1000 Ang^3
#
#
#
# Elastic Constant Matrix: (Units=GPa)
#
#
# Indices 1 2 3 4 5 6 
#
# 1 83.6801 1.7013 12.3353 0.0000 5.3964 0.0000
# 2 1.7013 64.9244 12.7711 0.0000 -4.4066 0.0000
# 3 12.3353 12.7711 138.0933 0.0000 3.9926 0.0000
# 4 0.0000 0.0000 0.0000 38.6265 0.0000 -5.7579
# 5 5.3964 -4.4066 3.9926 0.0000 54.2576 0.0000
# 6 0.0000 0.0000 0.0000 -5.7579 0.0000 24.8260
#
#
#
# Elastic Compliance Matrix: (Units=1/GPa)
#
#
# Indices 1 2 3 4 5 6 
#
# 1 0.012181 -0.000193 -0.001037 0.000000 -0.001151 0.000000
# 2 -0.000193 0.015795 -0.001484 0.000000 0.001411 0.000000
# 3 -0.001037 -0.001484 0.007488 0.000000 -0.000568 0.000000
# 4 0.000000 0.000000 0.000000 0.026816 0.000000 0.006219
# 5 -0.001151 0.001411 -0.000568 0.000000 0.018702 0.000000
# 6 0.000000 0.000000 0.000000 0.006219 0.000000 0.041723
#
#
# Mechanical properties :
#
#
# Convention : Reuss Voigt Hill
#
# Bulk Modulus (GPa) = 33.29421 37.81256 35.55338
# Shear Modulus (GPa) = 36.19366 40.86805 38.53085
#
# Velocity S-wave (km/s) = 3.81897 4.05809 3.94035
# Velocity P-wave (km/s) = 5.73256 6.09872 5.91847
#
# Compressibility (1/GPa) = 0.03003526
#
# Stress axis : x y z
#
# Youngs Moduli (GPa) = 82.09320 63.30976 133.55036
#
# Poissons Ratio (x) = 0.01224 0.13848
# Poissons Ratio (y) = 0.01587 0.19823
# Poissons Ratio (z) = 0.08513 0.09397
#
# Static dielectric constant tensor:
#      x y z
#    x 2.138140 0.000000 0.046620 
#    y 0.000000 1.928850 0.000000 
#    z 0.046620 0.000000 1.930870 
# 
# From -- ./inp_files/139390.got.cif
#   From: 2010.05.17/outbox.cif.g08.bks.cpg/sg15_70_cif.got.tgz:139390.got - 2010.06.03 18:47:42.
