data_PCOD9282370
_publ_section_title
;
Structure prediction by ZEFSAII (Michael W. Deem and Ramdas Pophale) SiO2 
 PCOD9282370
Probable space group: C 2/C
;
_chemical_formula_sum "Si O2"
_cell_formula_units_Z 48
_cell_length_a 26.550373
_cell_length_b 6.349626
_cell_length_c 26.718936
_cell_angle_alpha 90.000000
_cell_angle_beta 150.993689
_cell_angle_gamma 90.000000
_cell_volume 2184.215322
_symmetry_space_group_name_H-M "C 2/C"
_symmetry_group_IT_number 15
_symmetry_cell_setting 'monoclinic'
loop_
_space_group_symop_operation_xyz
x,y,z
-x,y,1/2-z
-x,-y,-z
x,-y,1/2+z
1/2+x,1/2+y,z
1/2-x,1/2+y,1/2-z
1/2-x,1/2-y,-z
1/2+x,1/2-y,1/2+z
loop_
_atom_site_type_symbol
_atom_site_label
_atom_site_fract_x
_atom_site_fract_y
_atom_site_fract_z
Si Si1 0.292272 0.254288 0.705430
Si Si2 0.582240 0.232145 0.857449
Si Si3 0.016794 0.841608 0.905813
Si Si4 0.206376 0.849837 0.595991
Si Si5 0.398946 0.971514 0.945118
Si Si6 0.734506 0.508241 0.424352
O O1 0.396966 0.355577 0.817732
O O2 0.190224 0.307980 0.649201
O O3 0.274214 0.352718 0.634116
O O4 0.291522 0.005549 0.693778
O O5 0.500000 0.120273 0.750000
O O6 0.518657 0.326358 0.848153
O O7 0.638635 0.419345 0.875665
O O8 0.667879 0.081472 0.956996
O O9 0.056944 0.624971 0.964985
O O10 0.102688 0.014746 0.994044
O O11 0.165331 0.680516 0.599871
O O12 0.249236 0.725588 0.584293
O O13 0.500000 0.000000 0.000000
#
# Coordination Sequence:
#
# PCOD9282370 Si02
#       6
#     8   8   8   8   8   8
#     4  10  21  41  63  92 130 162 208 269 310 375
#     4  11  20  38  63  89 136 170 209 261 302 377
#     4  11  22  41  62  93 129 167 211 266 313 382
#     4  10  21  42  67  86 130 166 207 266 322 375
#     4  10  23  45  64  91 124 163 213 266 331 382
#     4  10  21  39  61  91 129 170 211 253 306 374
#
# _framework density 21.975856
#
# number of rings (size 3 to 8) (size 9 to 14) (size 15 to 20)
#    0.000    1.667    6.667    0.000    0.000    6.000 
#    6.000    0.833    0.000    0.000    0.000    0.000 
#    0.000    0.000    0.000    0.000    0.000    0.000 
#
# Total GULP energy -133790.718427 kJ/mol
# GULP energy per Si atom -5574.613268 kJ/mol
# Density = 2.192584 g / cm^3
# Si number density = 21.975856 Si / 1000 Ang^3
#
#
#
# Elastic Constant Matrix: (Units=GPa)
#
#
# Indices 1 2 3 4 5 6 
#
# 1 82.0383 18.9611 2.0147 -0.0002 33.5349 -0.0001
# 2 18.9611 84.4166 0.1485 -0.0023 1.0323 -0.0002
# 3 2.0147 0.1485 75.1699 -0.0014 18.6920 -0.0002
# 4 -0.0002 -0.0023 -0.0014 9.8506 -0.0008 9.4780
# 5 33.5349 1.0323 18.6920 -0.0008 30.9033 -0.0002
# 6 -0.0001 -0.0002 -0.0002 9.4780 -0.0002 17.6215
#
#
#
# Elastic Compliance Matrix: (Units=1/GPa)
#
#
# Indices 1 2 3 4 5 6 
#
# 1 0.027243 -0.005716 0.007751 -0.000005 -0.034060 0.000002
# 2 -0.005716 0.013051 -0.001538 0.000006 0.006697 -0.000003
# 3 0.007751 -0.001538 0.017864 0.000002 -0.019164 -0.000001
# 4 -0.000005 0.000006 0.000002 0.210408 0.000008 -0.113172
# 5 -0.034060 0.006697 -0.019164 0.000008 0.080687 -0.000004
# 6 0.000002 -0.000003 -0.000001 -0.113172 -0.000004 0.117620
#
#
# Mechanical properties :
#
#
# Convention : Reuss Voigt Hill
#
# Bulk Modulus (GPa) = 16.90600 31.54149 24.22375
# Shear Modulus (GPa) = 10.29660 26.37512 18.33586
#
# Velocity S-wave (km/s) = 2.16693 3.46813 2.89167
# Velocity P-wave (km/s) = 3.73771 5.51554 4.71124
#
# Compressibility (1/GPa) = 0.05915058
#
# Stress axis : x y z
#
# Youngs Moduli (GPa) = 36.70664 76.62385 55.97853
#
# Poissons Ratio (x) = 0.43800 -0.43387
# Poissons Ratio (y) = 0.20982 0.08609
# Poissons Ratio (z) = -0.28450 0.11784
#
# Static dielectric constant tensor:
#      x y z
#    x 1.843330 0.000000 0.027660 
#    y 0.000000 1.840330 0.000000 
#    z 0.027660 0.000000 1.845000 
# 
# From -- ./inp_files/319343.got.cif
#   From: 2010.05.17/outbox.cif.g08.bks.cpg/sg15_160_cif.got.tgz:319343.got - 2010.06.03 18:47:42.
