data_PCOD9282273
_publ_section_title
;
Structure prediction by ZEFSAII (Michael W. Deem and Ramdas Pophale) SiO2 
 PCOD9282273
Probable space group: C 2/C
;
_chemical_formula_sum "Si O2"
_cell_formula_units_Z 52
_cell_length_a 20.791882
_cell_length_b 8.747518
_cell_length_c 27.336276
_cell_angle_alpha 90.000000
_cell_angle_beta 28.122965
_cell_angle_gamma 90.000000
_cell_volume 2343.558019
_symmetry_space_group_name_H-M "C 2/C"
_symmetry_group_IT_number 15
_symmetry_cell_setting 'monoclinic'
loop_
_space_group_symop_operation_xyz
x,y,z
-x,y,1/2-z
-x,-y,-z
x,-y,1/2+z
1/2+x,1/2+y,z
1/2-x,1/2+y,1/2-z
1/2-x,1/2-y,-z
1/2+x,1/2-y,1/2+z
loop_
_atom_site_type_symbol
_atom_site_label
_atom_site_fract_x
_atom_site_fract_y
_atom_site_fract_z
Si Si1 0.543886 0.041947 0.032405
Si Si2 0.214152 0.167149 0.168426
Si Si3 0.500000 0.491513 0.750000
Si Si4 0.879365 0.251788 0.164960
Si Si5 0.673029 0.415110 0.479271
Si Si6 0.748073 0.915624 0.478943
Si Si7 0.901381 0.861134 0.549524
O O1 0.610990 0.060748 0.040626
O O2 0.526517 0.206859 0.018699
O O3 0.662420 0.953232 0.922021
O O4 0.420069 0.925432 0.124325
O O5 0.206651 0.232100 0.228225
O O6 0.240928 0.295217 0.109595
O O7 0.069832 0.098153 0.248132
O O8 0.626211 0.579994 0.642792
O O9 0.821928 0.182987 0.152562
O O10 0.021023 0.158878 0.080668
O O11 0.727905 0.456099 0.495806
O O12 0.675618 0.569577 0.445164
O O13 0.750000 0.750000 0.500000
O O14 0.000000 0.000000 0.500000
#
# Coordination Sequence:
#
# PCOD9282273 Si02
#       7
#     8   8   4   8   8   8   8
#     4  10  22  38  62  91 119 163 206 256 315 369
#     4  10  22  37  61  92 122 162 209 252 316 379
#     4  10  22  38  62  88 124 166 196 248 320 382
#     4  10  21  39  62  85 120 163 203 257 307 377
#     4  10  21  39  60  91 120 159 206 259 312 360
#     4  11  21  40  64  87 129 158 202 262 311 376
#     4  10  21  40  62  86 124 164 208 256 311 371
#
# _framework density 22.188483999999999
#
# number of rings (size 3 to 8) (size 9 to 14) (size 15 to 20)
#    0.000    1.846    3.077    0.462    2.154    3.077 
#    2.769    3.077    0.000    0.000    0.000    0.000 
#    0.000    0.000    0.000    0.000    0.000    0.000 
#
# Total GULP energy -145197.631510 kJ/mol
# GULP energy per Si atom -5584.524289 kJ/mol
# Density = 2.213798 g / cm^3
# Si number density = 22.188484 Si / 1000 Ang^3
#
#
#
# Elastic Constant Matrix: (Units=GPa)
#
#
# Indices 1 2 3 4 5 6 
#
# 1 85.3860 28.0715 13.1120 0.0002 29.5305 -0.0001
# 2 28.0715 125.9646 26.9710 0.0002 13.9522 -0.0003
# 3 13.1120 26.9710 68.6272 0.0008 25.4148 -0.0003
# 4 0.0002 0.0002 0.0008 19.8688 -0.0001 17.3327
# 5 29.5305 13.9522 25.4148 -0.0001 37.9698 -0.0001
# 6 -0.0001 -0.0003 -0.0003 17.3327 -0.0001 34.1413
#
#
#
# Elastic Compliance Matrix: (Units=1/GPa)
#
#
# Indices 1 2 3 4 5 6 
#
# 1 0.017167 -0.002915 0.003209 -0.000001 -0.014428 0.000000
# 2 -0.002915 0.009205 -0.003520 0.000000 0.001241 0.000000
# 3 0.003209 -0.003520 0.020990 -0.000002 -0.015251 0.000001
# 4 -0.000001 0.000000 -0.000002 0.090339 0.000002 -0.045863
# 5 -0.014428 0.001241 -0.015251 0.000002 0.047310 -0.000001
# 6 0.000000 0.000000 0.000001 -0.045863 -0.000001 0.052573
#
#
# Mechanical properties :
#
#
# Convention : Reuss Voigt Hill
#
# Bulk Modulus (GPa) = 24.44428 46.25410 35.34919
# Shear Modulus (GPa) = 19.40449 32.51755 25.96102
#
# Velocity S-wave (km/s) = 2.96045 3.83236 3.42427
# Velocity P-wave (km/s) = 4.76721 6.36191 5.62139
#
# Compressibility (1/GPa) = 0.04090937
#
# Stress axis : x y z
#
# Youngs Moduli (GPa) = 58.25169 108.64198 47.64197
#
# Poissons Ratio (x) = 0.31665 -0.15287
# Poissons Ratio (y) = 0.16978 0.16770
# Poissons Ratio (z) = -0.18691 0.38242
#
# Static dielectric constant tensor:
#      x y z
#    x 1.897800 0.000000 0.003830 
#    y 0.000000 1.838990 0.000000 
#    z 0.003830 0.000000 1.826940 
# 
# From -- ./inp_files/171402.got.cif
#   From: 2010.05.17/outbox.cif.g08.bks.cpg/sg15_86_cif.got.tgz:171402.got - 2010.06.03 18:47:42.
