data_PCOD9282829
_publ_section_title
;
Structure prediction by ZEFSAII (Michael W. Deem and Ramdas Pophale) SiO2 
 PCOD9282829
Probable space group: C 2/C
;
_chemical_formula_sum "Si O2"
_cell_formula_units_Z 56
_cell_length_a 7.153428
_cell_length_b 26.921868
_cell_length_c 15.379278
_cell_angle_alpha 90.000000
_cell_angle_beta 129.390064
_cell_angle_gamma 90.000000
_cell_volume 2289.006270
_symmetry_space_group_name_H-M "C 2/C"
_symmetry_group_IT_number 15
_symmetry_cell_setting 'monoclinic'
loop_
_space_group_symop_operation_xyz
x,y,z
-x,y,1/2-z
-x,-y,-z
x,-y,1/2+z
1/2+x,1/2+y,z
1/2-x,1/2+y,1/2-z
1/2-x,1/2-y,-z
1/2+x,1/2-y,1/2+z
loop_
_atom_site_type_symbol
_atom_site_label
_atom_site_fract_x
_atom_site_fract_y
_atom_site_fract_z
Si Si1 0.500000 0.416215 0.750000
Si Si2 0.144235 0.667524 0.161183
Si Si3 0.390775 0.361329 0.991731
Si Si4 0.746707 0.046149 0.873031
Si Si5 0.745495 0.397900 0.371750
Si Si6 0.500000 0.753769 0.250000
Si Si7 0.641999 0.173663 0.948573
Si Si8 0.809802 0.002187 0.071912
O O1 0.681945 0.377617 0.758217
O O2 0.667419 0.450792 0.858796
O O3 0.120236 0.652486 0.382318
O O4 0.278943 0.719058 0.218192
O O5 0.137985 0.673021 0.052611
O O6 0.551544 0.412514 0.038191
O O7 0.346268 0.358773 0.082447
O O8 0.578719 0.327772 0.996791
O O9 0.500000 0.059091 0.750000
O O10 0.906454 0.011511 0.857516
O O11 0.702255 0.015371 0.946843
O O12 0.500000 0.408640 0.250000
O O13 0.811460 0.450943 0.432691
O O14 0.963620 0.373952 0.382383
O O15 0.449664 0.786421 0.148892
#
# Coordination Sequence:
#
# PCOD9282829 Si02
#       8
#     4   8   8   8   8   4   8   8
#     4  11  22  44  70  96 144 200 232 303 364 426
#     4  10  25  48  70 105 146 183 249 301 369 451
#     4  10  23  42  67  99 145 187 238 302 359 441
#     4  10  23  40  64 101 149 198 250 300 353 437
#     4  10  21  39  65 104 145 183 243 297 356 431
#     4  11  24  46  78 106 140 190 236 313 386 450
#     4  11  23  43  73 102 141 186 237 302 378 439
#     4  10  22  40  65 102 143 198 254 300 354 425
#
# _framework density 24.464766999999998
#
# number of rings (size 3 to 8) (size 9 to 14) (size 15 to 20)
#    0.000    1.714    0.714    2.143    5.000    5.143 
#    0.000   19.286    0.000    0.000    0.000    0.000 
#    0.000    0.000    0.000    0.000    0.000    0.000 
#
# Total GULP energy -156054.369186 kJ/mol
# GULP energy per Si atom -5573.370328 kJ/mol
# Density = 2.440908 g / cm^3
# Si number density = 24.464767 Si / 1000 Ang^3
#
#
#
# Elastic Constant Matrix: (Units=GPa)
#
#
# Indices 1 2 3 4 5 6 
#
# 1 188.1877 51.2987 51.3656 0.0000 44.3614 0.0000
# 2 51.2987 102.5503 62.6726 0.0000 21.4324 0.0000
# 3 51.3656 62.6726 111.9542 0.0000 27.6592 0.0000
# 4 0.0000 0.0000 0.0000 -64.2697 0.0000 -3.1074
# 5 44.3614 21.4324 27.6592 0.0000 37.1836 0.0000
# 6 0.0000 0.0000 0.0000 -3.1074 0.0000 -27.6299
#
#
#
# Elastic Compliance Matrix: (Units=1/GPa)
#
#
# Indices 1 2 3 4 5 6 
#
# 1 0.007840 -0.001932 -0.000588 0.000000 -0.007803 0.000000
# 2 -0.001932 0.015559 -0.007568 0.000000 -0.001034 0.000000
# 3 -0.000588 -0.007568 0.014932 0.000000 -0.006043 0.000000
# 4 0.000000 0.000000 0.000000 -0.015644 0.000000 0.001759
# 5 -0.007803 -0.001034 -0.006043 0.000000 0.041294 0.000000
# 6 0.000000 0.000000 0.000000 0.001759 0.000000 -0.036391
#
#
# Mechanical properties :
#
#
# Convention : Reuss Voigt Hill
#
# Bulk Modulus (GPa) = 55.08164 81.48512 68.28338
# Shear Modulus (GPa) = 92.90623 4.88050 48.89336
#
# Velocity S-wave (km/s) = 6.16911 1.41394 4.47533
# Velocity P-wave (km/s) = 8.56198 6.00376 7.39434
#
# Compressibility (1/GPa) = 0.01815487
#
# Stress axis : x y z
#
# Youngs Moduli (GPa) = 127.54597 64.27149 66.97116
#
# Poissons Ratio (x) = 0.12416 0.03938
# Poissons Ratio (y) = 0.24640 0.50686
# Poissons Ratio (z) = 0.07499 0.48643
#
# Static dielectric constant tensor:
#      x y z
#    x 2.050090 0.000000 0.019080 
#    y 0.000000 2.034290 0.000000 
#    z 0.019080 0.000000 2.008810 
# 
# From -- ./inp_files/139599.got.cif
#   From: 2010.05.17/outbox.cif.g08.bks.cpg/sg15_70_cif.got.tgz:139599.got - 2010.06.03 18:47:42.
