data_PCOD9282772
_publ_section_title
;
Structure prediction by ZEFSAII (Michael W. Deem and Ramdas Pophale) SiO2 
 PCOD9282772
Probable space group: C 2/C
;
_chemical_formula_sum "Si O2"
_cell_formula_units_Z 32
_cell_length_a 6.857884
_cell_length_b 23.669098
_cell_length_c 12.100263
_cell_angle_alpha 90.000000
_cell_angle_beta 143.210960
_cell_angle_gamma 90.000000
_cell_volume 1176.249666
_symmetry_space_group_name_H-M "C 2/C"
_symmetry_group_IT_number 15
_symmetry_cell_setting 'monoclinic'
loop_
_space_group_symop_operation_xyz
x,y,z
-x,y,1/2-z
-x,-y,-z
x,-y,1/2+z
1/2+x,1/2+y,z
1/2-x,1/2+y,1/2-z
1/2-x,1/2-y,-z
1/2+x,1/2-y,1/2+z
loop_
_atom_site_type_symbol
_atom_site_label
_atom_site_fract_x
_atom_site_fract_y
_atom_site_fract_z
Si Si1 0.852617 0.704395 0.417156
Si Si2 0.456295 0.320596 0.932769
Si Si3 0.548021 0.425901 0.443779
Si Si4 0.263880 0.971280 0.778634
O O1 0.500000 0.736507 0.250000
O O2 0.770345 0.670666 0.492464
O O3 0.832861 0.671178 0.291734
O O4 0.087895 0.755955 0.546537
O O5 0.494739 0.359813 0.057225
O O6 0.626673 0.443909 0.604753
O O7 0.256047 0.462015 0.260646
O O8 0.877848 0.448166 0.534484
O O9 0.000000 0.957584 0.750000
#
# Coordination Sequence:
#
# PCOD9282772 Si02
#       4
#     8   8   8   8
#     4   7  14  29  54  95 124 163 207 261 310 380
#     4   8  15  31  58  91 125 161 210 259 322 368
#     4  10  21  39  64  94 125 167 209 266 318 381
#     4  10  22  40  62  92 126 167 216 264 310 386
#
# _framework density 27.205107999999999
#
# number of rings (size 3 to 8) (size 9 to 14) (size 15 to 20)
#    1.500    1.500    0.000    0.750    3.500    0.000 
#    9.000    0.000   16.500    6.000    0.000    0.000 
#    0.000    0.000    0.000    0.000    0.000    0.000 
#
# Total GULP energy -89129.517357 kJ/mol
# GULP energy per Si atom -5570.594835 kJ/mol
# Density = 2.714319 g / cm^3
# Si number density = 27.205108 Si / 1000 Ang^3
#
#
#
# Elastic Constant Matrix: (Units=GPa)
#
#
# Indices 1 2 3 4 5 6 
#
# 1 122.0905 21.5611 23.7922 0.0000 -4.6697 0.0000
# 2 21.5611 120.2211 21.7705 0.0000 9.2832 0.0000
# 3 23.7922 21.7705 56.7815 0.0000 -9.1296 0.0000
# 4 0.0000 0.0000 0.0000 11.8275 0.0000 17.8877
# 5 -4.6697 9.2832 -9.1296 0.0000 35.0345 0.0000
# 6 0.0000 0.0000 0.0000 17.8877 0.0000 7.7098
#
#
#
# Elastic Compliance Matrix: (Units=1/GPa)
#
#
# Indices 1 2 3 4 5 6 
#
# 1 0.009043 -0.001078 -0.003273 0.000000 0.000638 0.000000
# 2 -0.001078 0.009474 -0.003765 0.000000 -0.003635 0.000000
# 3 -0.003273 -0.003765 0.021414 0.000000 0.006142 0.000000
# 4 0.000000 0.000000 0.000000 -0.033699 0.000000 0.078187
# 5 0.000638 -0.003635 0.006142 0.000000 0.031192 0.000000
# 6 0.000000 0.000000 0.000000 0.078187 0.000000 -0.051698
#
#
# Mechanical properties :
#
#
# Convention : Reuss Voigt Hill
#
# Bulk Modulus (GPa) = 42.19779 48.14897 45.17338
# Shear Modulus (GPa) = 507.17835 26.37899 266.77867
#
# Velocity S-wave (km/s) = 13.66866 3.11727 9.91337
# Velocity P-wave (km/s) = 16.26820 5.54017 12.15212
#
# Compressibility (1/GPa) = 0.02369792
#
# Stress axis : x y z
#
# Youngs Moduli (GPa) = 110.57832 105.55306 46.69871
#
# Poissons Ratio (x) = 0.11383 0.15285
# Poissons Ratio (y) = 0.11925 0.17582
# Poissons Ratio (z) = 0.36194 0.39741
#
# Static dielectric constant tensor:
#      x y z
#    x 2.280050 0.000000 -0.002350 
#    y 0.000000 2.316270 0.000000 
#    z -0.002350 0.000000 2.109050 
# 
# From -- ./inp_files/73755.got.cif
#   From: 2010.05.17/outbox.cif.g08.bks.cpg/sg15_37_cif.got.tgz:73755.got - 2010.06.03 18:47:42.
