data_PCOD9282731
_publ_section_title
;
Structure prediction by ZEFSAII (Michael W. Deem and Ramdas Pophale) SiO2 
 PCOD9282731
Probable space group: C 2/C
;
_chemical_formula_sum "Si O2"
_cell_formula_units_Z 44
_cell_length_a 14.967373
_cell_length_b 9.620754
_cell_length_c 13.694253
_cell_angle_alpha 90.000000
_cell_angle_beta 62.664031
_cell_angle_gamma 90.000000
_cell_volume 1751.729088
_symmetry_space_group_name_H-M "C 2/C"
_symmetry_group_IT_number 15
_symmetry_cell_setting 'monoclinic'
loop_
_space_group_symop_operation_xyz
x,y,z
-x,y,1/2-z
-x,-y,-z
x,-y,1/2+z
1/2+x,1/2+y,z
1/2-x,1/2+y,1/2-z
1/2-x,1/2-y,-z
1/2+x,1/2-y,1/2+z
loop_
_atom_site_type_symbol
_atom_site_label
_atom_site_fract_x
_atom_site_fract_y
_atom_site_fract_z
Si Si1 0.750000 0.750000 0.500000
Si Si2 0.101612 0.506875 0.012652
Si Si3 0.377214 0.632885 0.709284
Si Si4 0.089166 0.051837 0.580206
Si Si5 0.254903 0.618337 0.277466
Si Si6 0.859785 0.247573 0.394163
O O1 0.852213 0.651566 0.472881
O O2 0.810016 0.884890 0.513752
O O3 0.186601 0.450575 0.895713
O O4 0.091309 0.393913 0.104606
O O5 0.000000 0.500000 0.000000
O O6 0.483987 0.620359 0.603434
O O7 0.393158 0.595639 0.814642
O O8 0.307191 0.512537 0.701910
O O9 0.318413 0.776900 0.740462
O O10 0.084340 0.885237 0.586520
O O11 0.339281 0.710492 0.291428
O O12 0.750000 0.250000 0.500000
#
# Coordination Sequence:
#
# PCOD9282731 Si02
#       6
#     4   8   8   8   8   8
#     4  12  20  40  68  94 126 168 214 276 318 374
#     4  11  23  40  63  96 127 160 222 267 325 384
#     4  10  21  40  62  89 129 168 214 258 328 393
#     4  10  21  39  64  90 124 172 212 261 325 391
#     4  10  21  41  58  88 126 166 207 265 315 392
#     4   9  18  41  58  83 127 157 199 262 315 369
#
# _framework density 25.118037000000001
#
# number of rings (size 3 to 8) (size 9 to 14) (size 15 to 20)
#    0.000    1.818    5.455    1.091    0.000    2.909 
#    3.273    2.727    0.000    2.182    0.000    0.000 
#    0.000    0.000    0.000    0.000    0.000    0.000 
#
# Total GULP energy -122485.396666 kJ/mol
# GULP energy per Si atom -5567.518030 kJ/mol
# Density = 2.506087 g / cm^3
# Si number density = 25.118037 Si / 1000 Ang^3
#
#
#
# Elastic Constant Matrix: (Units=GPa)
#
#
# Indices 1 2 3 4 5 6 
#
# 1 125.9688 65.8642 16.8334 0.0000 -31.6852 0.0000
# 2 65.8642 131.3840 10.0443 0.0000 -0.4666 0.0000
# 3 16.8334 10.0443 29.8267 0.0000 -2.7568 0.0000
# 4 0.0000 0.0000 0.0000 15.1627 0.0000 -24.8540
# 5 -31.6852 -0.4666 -2.7568 0.0000 29.5499 0.0000
# 6 0.0000 0.0000 0.0000 -24.8540 0.0000 -11.7889
#
#
#
# Elastic Compliance Matrix: (Units=1/GPa)
#
#
# Indices 1 2 3 4 5 6 
#
# 1 0.017630 -0.008357 -0.005448 0.000000 0.018263 0.000000
# 2 -0.008357 0.011774 -0.000060 0.000000 -0.008780 0.000000
# 3 -0.005448 -0.000060 0.036396 0.000000 -0.002447 0.000000
# 4 0.000000 0.000000 0.000000 0.014801 0.000000 -0.031205
# 5 0.018263 -0.008780 -0.002447 0.000000 0.053057 0.000000
# 6 0.000000 0.000000 0.000000 -0.031205 0.000000 -0.019037
#
#
# Mechanical properties :
#
#
# Convention : Reuss Voigt Hill
#
# Bulk Modulus (GPa) = 26.26709 52.51816 39.39262
# Shear Modulus (GPa) = 32.24993 19.54727 25.89860
#
# Velocity S-wave (km/s) = 3.58709 2.79268 3.21452
# Velocity P-wave (km/s) = 5.25704 5.59935 5.43089
#
# Compressibility (1/GPa) = 0.03807045
#
# Stress axis : x y z
#
# Youngs Moduli (GPa) = 56.72282 84.93335 27.47588
#
# Poissons Ratio (x) = 0.70975 0.14968
# Poissons Ratio (y) = 0.47401 0.00165
# Poissons Ratio (z) = 0.30900 0.00512
#
# Static dielectric constant tensor:
#      x y z
#    x 2.226770 0.000000 -0.020930 
#    y 0.000000 2.001150 0.000000 
#    z -0.020930 0.000000 2.043930 
# 
# From -- ./inp_files/202543.got.cif
#   From: 2010.05.17/outbox.cif.g08.bks.cpg/sg15_102_cif.got.tgz:202543.got - 2010.06.03 18:47:42.
