data_PCOD9282413
_publ_section_title
;
Structure prediction by ZEFSAII (Michael W. Deem and Ramdas Pophale) SiO2 
 PCOD9282413
Probable space group: C 2/C
;
_chemical_formula_sum "Si O2"
_cell_formula_units_Z 56
_cell_length_a 12.703267
_cell_length_b 27.242342
_cell_length_c 8.673181
_cell_angle_alpha 90.000000
_cell_angle_beta 86.137186
_cell_angle_gamma 90.000000
_cell_volume 2994.680739
_symmetry_space_group_name_H-M "C 2/C"
_symmetry_group_IT_number 15
_symmetry_cell_setting 'monoclinic'
loop_
_space_group_symop_operation_xyz
x,y,z
-x,y,1/2-z
-x,-y,-z
x,-y,1/2+z
1/2+x,1/2+y,z
1/2-x,1/2+y,1/2-z
1/2-x,1/2-y,-z
1/2+x,1/2-y,1/2+z
loop_
_atom_site_type_symbol
_atom_site_label
_atom_site_fract_x
_atom_site_fract_y
_atom_site_fract_z
Si Si1 0.229084 0.404667 0.917541
Si Si2 0.957485 0.950073 0.925340
Si Si3 0.980612 0.446894 0.432417
Si Si4 0.513688 0.653809 0.566076
Si Si5 0.207946 0.198432 0.936202
Si Si6 0.398207 0.127498 0.362180
Si Si7 0.741682 0.304480 0.063334
O O1 0.332380 0.438476 0.925870
O O2 0.183602 0.397507 0.749429
O O3 0.247496 0.349647 0.981024
O O4 0.137551 0.429736 0.023917
O O5 0.000000 0.952077 0.750000
O O6 0.000658 0.900350 0.998909
O O7 0.000000 0.000000 0.000000
O O8 0.055259 0.411043 0.521897
O O9 0.000000 0.445925 0.250000
O O10 0.000000 0.500000 0.500000
O O11 0.500000 0.648840 0.750000
O O12 0.418638 0.690768 0.529509
O O13 0.629524 0.673611 0.520117
O O14 0.238255 0.194809 0.751160
O O15 0.250000 0.250000 0.000000
O O16 0.500000 0.145323 0.250000
O O17 0.336364 0.166742 0.471062
O O18 0.750000 0.250000 0.000000
#
# Coordination Sequence:
#
# PCOD9282413 Si02
#       7
#     8   8   8   8   8   8   8
#     4  10  22  40  60  87 119 154 197 246 294 349
#     4  11  23  38  60  87 116 153 194 238 291 349
#     4  11  23  40  62  89 118 155 198 243 297 354
#     4   9  21  40  59  83 116 150 194 243 289 345
#     4  10  21  39  62  87 118 154 195 247 299 353
#     4  10  22  40  60  85 121 158 199 247 292 351
#     4  11  22  37  60  88 117 158 198 242 300 353
#
# _framework density 18.699824
#
# number of rings (size 3 to 8) (size 9 to 14) (size 15 to 20)
#    0.000    1.714    0.000    4.286    0.000    8.571 
#    0.000    2.857    0.000    0.000    0.000    0.000 
#    0.000    0.000    0.000    0.000    0.000    0.000 
#
# Total GULP energy -156257.843383 kJ/mol
# GULP energy per Si atom -5580.637264 kJ/mol
# Density = 1.865726 g / cm^3
# Si number density = 18.699824 Si / 1000 Ang^3
#
#
#
# Elastic Constant Matrix: (Units=GPa)
#
#
# Indices 1 2 3 4 5 6 
#
# 1 158.6481 114.9831 83.3758 0.0000 0.7213 0.0000
# 2 114.9831 155.4283 77.5985 0.0000 -20.3467 0.0000
# 3 83.3758 77.5985 119.7069 0.0000 -7.1990 0.0000
# 4 0.0000 0.0000 0.0000 30.2211 0.0000 5.1866
# 5 0.7213 -20.3467 -7.1990 0.0000 19.4324 0.0000
# 6 0.0000 0.0000 0.0000 5.1866 0.0000 21.2763
#
#
#
# Elastic Compliance Matrix: (Units=1/GPa)
#
#
# Indices 1 2 3 4 5 6 
#
# 1 0.019207 -0.013682 -0.005536 0.000000 -0.017089 0.000000
# 2 -0.013682 0.020594 -0.002550 0.000000 0.021126 0.000000
# 3 -0.005536 -0.002550 0.014027 0.000000 0.002732 0.000000
# 4 0.000000 0.000000 0.000000 0.034534 0.000000 -0.008418
# 5 -0.017089 0.021126 0.002732 0.000000 0.075227 0.000000
# 6 0.000000 0.000000 0.000000 -0.008418 0.000000 0.049053
#
#
# Mechanical properties :
#
#
# Convention : Reuss Voigt Hill
#
# Bulk Modulus (GPa) = 97.16425 109.52198 103.34311
# Shear Modulus (GPa) = 19.25984 24.70769 21.98377
#
# Velocity S-wave (km/s) = 3.21276 3.63888 3.43244
# Velocity P-wave (km/s) = 8.11389 8.73790 8.43167
#
# Compressibility (1/GPa) = 0.01029185
#
# Stress axis : x y z
#
# Youngs Moduli (GPa) = 52.06570 48.55767 71.29228
#
# Poissons Ratio (x) = 0.66436 0.39467
# Poissons Ratio (y) = 0.71236 0.18179
# Poissons Ratio (z) = 0.28823 0.12382
#
# Static dielectric constant tensor:
#      x y z
#    x 1.653830 0.000000 0.015370 
#    y 0.000000 1.559460 0.000000 
#    z 0.015370 0.000000 1.625380 
# 
# From -- ./inp_files/34171.got.cif
#   From: 2010.05.17/outbox.cif.g08.bks.cpg/sg15_18_cif.got.tgz:34171.got - 2010.06.03 18:47:42.
