data_PCOD9282719
_publ_section_title
;
Structure prediction by ZEFSAII (Michael W. Deem and Ramdas Pophale) SiO2 
 PCOD9282719
Probable space group: C 2/C
;
_chemical_formula_sum "Si O2"
_cell_formula_units_Z 48
_cell_length_a 30.212118
_cell_length_b 8.447821
_cell_length_c 8.978388
_cell_angle_alpha 90.000000
_cell_angle_beta 95.288269
_cell_angle_gamma 90.000000
_cell_volume 2281.769465
_symmetry_space_group_name_H-M "C 2/C"
_symmetry_group_IT_number 15
_symmetry_cell_setting 'monoclinic'
loop_
_space_group_symop_operation_xyz
x,y,z
-x,y,1/2-z
-x,-y,-z
x,-y,1/2+z
1/2+x,1/2+y,z
1/2-x,1/2+y,1/2-z
1/2-x,1/2-y,-z
1/2+x,1/2-y,1/2+z
loop_
_atom_site_type_symbol
_atom_site_label
_atom_site_fract_x
_atom_site_fract_y
_atom_site_fract_z
Si Si1 0.648107 0.382546 0.469622
Si Si2 0.541517 0.796124 0.477858
Si Si3 0.286692 0.174228 0.118129
Si Si4 0.500000 0.031537 0.250000
Si Si5 0.092200 0.936077 0.161142
Si Si6 0.227932 0.881235 0.098757
Si Si7 0.500000 0.449749 0.750000
O O1 0.668716 0.207065 0.461926
O O2 0.626123 0.413495 0.304436
O O3 0.609682 0.411555 0.577607
O O4 0.687415 0.511563 0.519212
O O5 0.521103 0.871459 0.620762
O O6 0.586819 0.709169 0.542720
O O7 0.511680 0.657765 0.396399
O O8 0.537946 0.925455 0.344470
O O9 0.288570 0.284141 0.263942
O O10 0.267922 0.002609 0.151235
O O11 0.250000 0.250000 0.000000
O O12 0.044068 0.957209 0.220109
O O13 0.250000 0.750000 0.000000
#
# Coordination Sequence:
#
# PCOD9282719 Si02
#       7
#     8   8   8   4   8   8   4
#     4  11  24  41  66  98 143 175 228 291 340 415
#     4  10  21  39  64  89 125 176 230 279 347 413
#     4  10  21  40  67 100 130 181 215 271 340 412
#     4   9  21  40  62  86 123 175 244 276 344 428
#     4  12  23  41  65 100 137 172 232 296 347 409
#     4  11  23  43  72 100 136 178 223 273 348 427
#     4  11  23  38  66 102 123 185 232 282 354 402
#
# _framework density 21.036307999999998
#
# number of rings (size 3 to 8) (size 9 to 14) (size 15 to 20)
#    0.000    1.333    3.333    3.000    4.667    0.000 
#    0.000    1.667    3.667    0.000    0.000    0.000 
#    0.000    0.000    0.000    0.000    0.000    0.000 
#
# Total GULP energy -133774.925144 kJ/mol
# GULP energy per Si atom -5573.955214 kJ/mol
# Density = 2.098843 g / cm^3
# Si number density = 21.036308 Si / 1000 Ang^3
#
#
#
# Elastic Constant Matrix: (Units=GPa)
#
#
# Indices 1 2 3 4 5 6 
#
# 1 92.2140 39.7218 41.4530 0.0000 -6.1976 0.0000
# 2 39.7218 89.8942 25.4958 0.0000 2.1309 0.0000
# 3 41.4530 25.4958 106.3289 0.0000 20.3854 0.0000
# 4 0.0000 0.0000 0.0000 38.0608 0.0000 2.3958
# 5 -6.1976 2.1309 20.3854 0.0000 39.3161 0.0000
# 6 0.0000 0.0000 0.0000 2.3958 0.0000 27.1400
#
#
#
# Elastic Compliance Matrix: (Units=1/GPa)
#
#
# Indices 1 2 3 4 5 6 
#
# 1 0.016513 -0.005667 -0.006259 0.000000 0.006155 0.000000
# 2 -0.005667 0.013912 -0.000900 0.000000 -0.001181 0.000000
# 3 -0.006259 -0.000900 0.013591 0.000000 -0.007985 0.000000
# 4 0.000000 0.000000 0.000000 0.026421 0.000000 -0.002332
# 5 0.006155 -0.001181 -0.007985 0.000000 0.030609 0.000000
# 6 0.000000 0.000000 0.000000 -0.002332 0.000000 0.037052
#
#
# Mechanical properties :
#
#
# Convention : Reuss Voigt Hill
#
# Bulk Modulus (GPa) = 54.45502 55.75314 55.10408
# Shear Modulus (GPa) = 29.43406 33.02116 31.22761
#
# Velocity S-wave (km/s) = 3.74465 3.96627 3.85705
# Velocity P-wave (km/s) = 6.68124 6.89463 6.78877
#
# Compressibility (1/GPa) = 0.01836378
#
# Stress axis : x y z
#
# Youngs Moduli (GPa) = 60.55904 71.88209 73.57544
#
# Poissons Ratio (x) = 0.40738 0.46049
# Poissons Ratio (y) = 0.34321 0.06621
# Poissons Ratio (z) = 0.37903 0.06469
#
# Static dielectric constant tensor:
#      x y z
#    x 1.811920 0.000000 -0.031000 
#    y 0.000000 1.804050 0.000000 
#    z -0.031000 0.000000 1.805380 
# 
# From -- ./inp_files/68627.got.cif
#   From: 2010.05.17/outbox.cif.g08.bks.cpg/sg15_35_cif.got.tgz:68627.got - 2010.06.03 18:47:42.
