data_PCOD9282434
_publ_section_title
;
Structure prediction by ZEFSAII (Michael W. Deem and Ramdas Pophale) SiO2 
 PCOD9282434
Probable space group: C 2/C
;
_chemical_formula_sum "Si O2"
_cell_formula_units_Z 44
_cell_length_a 13.744008
_cell_length_b 33.518120
_cell_length_c 14.668299
_cell_angle_alpha 90.000000
_cell_angle_beta 159.584220
_cell_angle_gamma 90.000000
_cell_volume 2357.147985
_symmetry_space_group_name_H-M "C 2/C"
_symmetry_group_IT_number 15
_symmetry_cell_setting 'monoclinic'
loop_
_space_group_symop_operation_xyz
x,y,z
-x,y,1/2-z
-x,-y,-z
x,-y,1/2+z
1/2+x,1/2+y,z
1/2-x,1/2+y,1/2-z
1/2-x,1/2-y,-z
1/2+x,1/2-y,1/2+z
loop_
_atom_site_type_symbol
_atom_site_label
_atom_site_fract_x
_atom_site_fract_y
_atom_site_fract_z
Si Si1 0.676446 0.103515 0.262810
Si Si2 0.876146 0.155414 0.744092
Si Si3 0.500000 0.778896 0.250000
Si Si4 0.000000 0.456390 0.750000
Si Si5 0.682642 0.778717 0.216511
Si Si6 0.000000 0.008160 0.250000
Si Si7 0.211898 0.026154 0.247974
O O1 0.684542 0.072476 0.352497
O O2 0.732313 0.071891 0.232140
O O3 0.894251 0.136894 0.485470
O O4 0.375037 0.123840 0.989118
O O5 0.755310 0.192492 0.695905
O O6 0.000000 0.163545 0.750000
O O7 0.750000 0.750000 0.500000
O O8 0.588946 0.799366 0.231482
O O9 0.781218 0.482377 0.503403
O O10 0.942771 0.751190 0.472337
O O11 0.050085 0.030595 0.200989
O O12 0.500000 0.000000 0.500000
O O13 0.000000 0.000000 0.000000
#
# Coordination Sequence:
#
# PCOD9282434 Si02
#       7
#     8   8   4   4   8   4   8
#     4  12  23  38  56  86 114 155 197 237 287 346
#     4  12  24  38  59  86 120 155 189 238 296 350
#     4   8  16  34  60  84 108 140 186 234 266 322
#     4  12  20  36  64  79 112 155 202 245 284 346
#     4  10  21  39  62  89 116 149 194 235 282 345
#     4  12  22  38  58  91 110 149 204 251 302 338
#     4  12  23  37  60  84 113 150 194 248 293 342
#
# _framework density 18.666626000000001
#
# number of rings (size 3 to 8) (size 9 to 14) (size 15 to 20)
#    0.000    0.727    5.455    3.273    0.000    0.727 
#    0.000    1.818    0.000    0.000    0.000    0.000 
#    0.000    0.000    0.000    0.000    0.000    0.000 
#
# Total GULP energy -122471.519523 kJ/mol
# GULP energy per Si atom -5566.887251 kJ/mol
# Density = 1.862414 g / cm^3
# Si number density = 18.666626 Si / 1000 Ang^3
#
#
#
# Elastic Constant Matrix: (Units=GPa)
#
#
# Indices 1 2 3 4 5 6 
#
# 1 168.5704 63.0659 7.8227 0.0015 -8.1202 -0.0008
# 2 63.0659 54.7620 6.9175 -0.0003 -0.1617 -0.0001
# 3 7.8227 6.9175 106.0899 0.0020 8.9229 -0.0003
# 4 0.0015 -0.0003 0.0020 24.5763 0.0013 3.6722
# 5 -8.1202 -0.1617 8.9229 0.0013 22.3067 -0.0003
# 6 -0.0008 -0.0001 -0.0003 3.6722 -0.0003 46.0000
#
#
#
# Elastic Compliance Matrix: (Units=1/GPa)
#
#
# Indices 1 2 3 4 5 6 
#
# 1 0.010749 -0.012327 -0.000321 -0.000001 0.003952 0.000000
# 2 -0.012327 0.032558 -0.000886 0.000001 -0.003897 0.000000
# 3 -0.000321 -0.000886 0.009849 -0.000001 -0.004063 0.000000
# 4 -0.000001 0.000001 -0.000001 0.041181 -0.000003 -0.003288
# 5 0.003952 -0.003897 -0.004063 -0.000003 0.047865 0.000001
# 6 0.000000 0.000000 0.000000 -0.003288 0.000001 0.022002
#
#
# Mechanical properties :
#
#
# Convention : Reuss Voigt Hill
#
# Bulk Modulus (GPa) = 38.33310 53.89270 46.11290
# Shear Modulus (GPa) = 25.00391 35.35103 30.17747
#
# Velocity S-wave (km/s) = 3.66389 4.35651 4.02513
# Velocity P-wave (km/s) = 6.20314 7.36474 6.80876
#
# Compressibility (1/GPa) = 0.02608712
#
# Stress axis : x y z
#
# Youngs Moduli (GPa) = 93.02855 30.71471 101.53137
#
# Poissons Ratio (x) = 0.37862 0.03262
# Poissons Ratio (y) = 1.14678 0.08997
# Poissons Ratio (z) = 0.02989 0.02722
#
# Static dielectric constant tensor:
#      x y z
#    x 1.870560 -0.000320 -0.009650 
#    y -0.000320 0.620950 -0.000100 
#    z -0.009650 -0.000100 1.622200 
# 
# From -- ./inp_files/8032.got.cif
#   From: 2010.05.17/outbox.cif.g08.bks.cpg/sg15_5_cif.got.tgz:8032.got - 2010.06.03 18:47:42.
