data_PCOD9282168
_publ_section_title
;
Structure prediction by ZEFSAII (Michael W. Deem and Ramdas Pophale) SiO2 
 PCOD9282168
Probable space group: C 2/C
;
_chemical_formula_sum "Si O2"
_cell_formula_units_Z 60
_cell_length_a 15.153455
_cell_length_b 17.351267
_cell_length_c 11.970025
_cell_angle_alpha 90.000000
_cell_angle_beta 77.892827
_cell_angle_gamma 90.000000
_cell_volume 3077.292948
_symmetry_space_group_name_H-M "C 2/C"
_symmetry_group_IT_number 15
_symmetry_cell_setting 'monoclinic'
loop_
_space_group_symop_operation_xyz
x,y,z
-x,y,1/2-z
-x,-y,-z
x,-y,1/2+z
1/2+x,1/2+y,z
1/2-x,1/2+y,1/2-z
1/2-x,1/2-y,-z
1/2+x,1/2-y,1/2+z
loop_
_atom_site_type_symbol
_atom_site_label
_atom_site_fract_x
_atom_site_fract_y
_atom_site_fract_z
Si Si1 0.255675 0.927791 0.426343
Si Si2 0.094995 0.710119 0.174774
Si Si3 0.389055 0.179976 0.576976
Si Si4 0.893688 0.500339 0.055120
Si Si5 0.500000 0.761333 0.250000
Si Si6 0.279567 0.928438 0.784734
Si Si7 0.269930 0.708092 0.728947
Si Si8 0.326457 0.662723 0.359139
O O1 0.259595 0.871622 0.319284
O O2 0.184717 0.884683 0.524723
O O3 0.344563 0.943918 0.477891
O O4 0.238698 0.012239 0.383402
O O5 0.168143 0.642681 0.174190
O O6 0.133478 0.780612 0.239265
O O7 0.000000 0.684846 0.250000
O O8 0.084778 0.721037 0.045377
O O9 0.369599 0.090285 0.556817
O O10 0.462887 0.188898 0.655876
O O11 0.300824 0.219823 0.651902
O O12 0.854524 0.530914 0.183926
O O13 0.000000 0.500000 0.000000
O O14 0.418994 0.707614 0.316150
O O15 0.198288 0.897457 0.730881
O O16 0.251815 0.772578 0.638777
#
# Coordination Sequence:
#
# PCOD9282168 Si02
#       8
#     8   8   8   8   4   8   8   8
#     4  11  21  38  63  87 126 166 209 258 315 383
#     4  11  23  40  62  93 128 163 211 266 312 366
#     4  11  22  39  60  92 123 170 204 261 310 378
#     4  11  23  34  58  91 130 161 202 252 317 380
#     4  10  24  42  66  90 128 162 224 254 316 372
#     4  10  21  39  58  90 124 164 201 253 320 378
#     4  10  22  40  63  86 127 167 216 248 319 384
#     4   9  22  40  61  89 122 168 205 264 309 375
#
# _framework density 19.497655999999999
#
# number of rings (size 3 to 8) (size 9 to 14) (size 15 to 20)
#    0.000    1.600    2.667    1.600    5.600    0.000 
#    0.000    0.667    1.467    0.000    0.000    0.000 
#    0.000    0.000    0.000    0.000    0.000    0.000 
#
# Total GULP energy -167227.169967 kJ/mol
# GULP energy per Si atom -5574.238999 kJ/mol
# Density = 1.945328 g / cm^3
# Si number density = 19.497656 Si / 1000 Ang^3
#
#
#
# Elastic Constant Matrix: (Units=GPa)
#
#
# Indices 1 2 3 4 5 6 
#
# 1 45.1809 28.2530 25.0431 0.0000 14.1975 0.0000
# 2 28.2530 69.7853 26.1600 0.0000 -0.6192 0.0000
# 3 25.0431 26.1600 94.7152 0.0000 14.7261 0.0000
# 4 0.0000 0.0000 0.0000 36.7681 0.0000 4.3346
# 5 14.1975 -0.6192 14.7261 0.0000 16.2974 0.0000
# 6 0.0000 0.0000 0.0000 4.3346 0.0000 25.1320
#
#
#
# Elastic Compliance Matrix: (Units=1/GPa)
#
#
# Indices 1 2 3 4 5 6 
#
# 1 0.047825 -0.019433 -0.000797 0.000000 -0.041681 0.000000
# 2 -0.019433 0.024292 -0.005057 0.000000 0.022422 0.000000
# 3 -0.000797 -0.005057 0.014063 0.000000 -0.012205 0.000000
# 4 0.000000 0.000000 0.000000 0.027762 0.000000 -0.004788
# 5 -0.041681 0.022422 -0.012205 0.000000 0.109550 0.000000
# 6 0.000000 0.000000 0.000000 -0.004788 0.000000 0.040616
#
#
# Mechanical properties :
#
#
# Convention : Reuss Voigt Hill
#
# Bulk Modulus (GPa) = 28.08623 40.95484 34.52053
# Shear Modulus (GPa) = 15.31153 24.32120 19.81636
#
# Velocity S-wave (km/s) = 2.80536 3.53567 3.19148
# Velocity P-wave (km/s) = 4.99296 6.14155 5.59679
#
# Compressibility (1/GPa) = 0.03560464
#
# Stress axis : x y z
#
# Youngs Moduli (GPa) = 20.90958 41.16570 71.10779
#
# Poissons Ratio (x) = 0.79998 0.05669
# Poissons Ratio (y) = 0.40634 0.35961
# Poissons Ratio (z) = 0.01667 0.20819
#
# Static dielectric constant tensor:
#      x y z
#    x 1.667690 0.000000 0.024870 
#    y 0.000000 1.720380 0.000000 
#    z 0.024870 0.000000 1.744810 
# 
# From -- ./inp_files/98296.got.cif
#   From: 2010.05.17/outbox.cif.g08.bks.cpg/sg15_50_cif.got.tgz:98296.got - 2010.06.03 18:47:42.
