data_PCOD9282583
_publ_section_title
;
Structure prediction by ZEFSAII (Michael W. Deem and Ramdas Pophale) SiO2 
 PCOD9282583
Probable space group: C 2/C
;
_chemical_formula_sum "Si O2"
_cell_formula_units_Z 48
_cell_length_a 12.270365
_cell_length_b 12.901915
_cell_length_c 21.164929
_cell_angle_alpha 90.000000
_cell_angle_beta 139.711132
_cell_angle_gamma 90.000000
_cell_volume 2166.666690
_symmetry_space_group_name_H-M "C 2/C"
_symmetry_group_IT_number 15
_symmetry_cell_setting 'monoclinic'
loop_
_space_group_symop_operation_xyz
x,y,z
-x,y,1/2-z
-x,-y,-z
x,-y,1/2+z
1/2+x,1/2+y,z
1/2-x,1/2+y,1/2-z
1/2-x,1/2-y,-z
1/2+x,1/2-y,1/2+z
loop_
_atom_site_type_symbol
_atom_site_label
_atom_site_fract_x
_atom_site_fract_y
_atom_site_fract_z
Si Si1 0.301701 0.729067 0.333894
Si Si2 0.215701 0.880828 0.540701
Si Si3 0.412597 0.427598 0.566868
Si Si4 0.149688 0.417457 0.557520
Si Si5 0.018312 0.703594 0.104997
Si Si6 0.365091 0.441051 0.237676
O O1 0.249947 0.679740 0.378833
O O2 0.481047 0.675045 0.400165
O O3 0.169679 0.697657 0.221042
O O4 0.280556 0.854024 0.319886
O O5 0.380222 0.877672 0.569092
O O6 0.080012 0.811640 0.442304
O O7 0.151145 0.998249 0.518142
O O8 0.246290 0.404054 0.534832
O O9 0.539953 0.503922 0.662390
O O10 0.079968 0.316679 0.561450
O O11 0.292211 0.463908 0.666115
O O12 0.000000 0.500000 0.500000
O O13 0.500000 0.387835 0.250000
#
# Coordination Sequence:
#
# PCOD9282583 Si02
#       6
#     8   8   8   8   8   8
#     4  12  23  39  65  95 130 164 208 264 322 372
#     4  11  23  40  63  97 128 167 208 266 313 377
#     4  11  23  40  65  92 129 161 209 265 317 373
#     4  11  21  40  66  90 118 164 216 263 307 371
#     4  11  22  39  68  93 124 168 219 256 309 377
#     4  10  21  39  63  90 120 164 212 255 304 377
#
# _framework density 22.153845
#
# number of rings (size 3 to 8) (size 9 to 14) (size 15 to 20)
#    0.000    1.000    5.000    3.000    4.667    0.000 
#    0.000    3.333    0.000    0.000    0.000    0.000 
#    0.000    0.000    0.000    0.000    0.000    0.000 
#
# Total GULP energy -133880.663102 kJ/mol
# GULP energy per Si atom -5578.360963 kJ/mol
# Density = 2.210342 g / cm^3
# Si number density = 22.153845 Si / 1000 Ang^3
#
#
#
# Elastic Constant Matrix: (Units=GPa)
#
#
# Indices 1 2 3 4 5 6 
#
# 1 108.1098 30.0379 13.3605 0.0000 5.8636 0.0000
# 2 30.0379 65.1304 10.4615 0.0000 7.0465 0.0000
# 3 13.3605 10.4615 63.5879 0.0000 -2.6579 0.0000
# 4 0.0000 0.0000 0.0000 38.7269 0.0000 6.0271
# 5 5.8636 7.0465 -2.6579 0.0000 29.8976 0.0000
# 6 0.0000 0.0000 0.0000 6.0271 0.0000 23.8423
#
#
#
# Elastic Compliance Matrix: (Units=1/GPa)
#
#
# Indices 1 2 3 4 5 6 
#
# 1 0.010783 -0.004596 -0.001558 0.000000 -0.001170 0.000000
# 2 -0.004596 0.018212 -0.002180 0.000000 -0.003585 0.000000
# 3 -0.001558 -0.002180 0.016508 0.000000 0.002287 0.000000
# 4 0.000000 0.000000 0.000000 0.026879 0.000000 -0.006795
# 5 -0.001170 -0.003585 0.002287 0.000000 0.034725 0.000000
# 6 0.000000 0.000000 0.000000 -0.006795 0.000000 0.043660
#
#
# Mechanical properties :
#
#
# Convention : Reuss Voigt Hill
#
# Bulk Modulus (GPa) = 34.68262 38.28309 36.48285
# Shear Modulus (GPa) = 28.24100 30.69123 29.46611
#
# Velocity S-wave (km/s) = 3.57426 3.72609 3.65097
# Velocity P-wave (km/s) = 5.72041 5.98580 5.85461
#
# Compressibility (1/GPa) = 0.02883288
#
# Stress axis : x y z
#
# Youngs Moduli (GPa) = 92.73932 54.91020 60.57669
#
# Poissons Ratio (x) = 0.25237 0.09440
# Poissons Ratio (y) = 0.42624 0.13208
# Poissons Ratio (z) = 0.14452 0.11972
#
# Static dielectric constant tensor:
#      x y z
#    x 1.850770 0.000000 0.014910 
#    y 0.000000 1.871940 0.000000 
#    z 0.014910 0.000000 1.840490 
# 
# From -- ./inp_files/144052.got.cif
#   From: 2010.05.17/outbox.cif.g08.bks.cpg/sg15_73_cif.got.tgz:144052.got - 2010.06.03 18:47:42.
