data_PCOD9282665
_publ_section_title
;
Structure prediction by ZEFSAII (Michael W. Deem and Ramdas Pophale) SiO2 
 PCOD9282665
Probable space group: C 2/C
;
_chemical_formula_sum "Si O2"
_cell_formula_units_Z 52
_cell_length_a 10.834673
_cell_length_b 15.257840
_cell_length_c 21.805451
_cell_angle_alpha 90.000000
_cell_angle_beta 41.645289
_cell_angle_gamma 90.000000
_cell_volume 2395.411318
_symmetry_space_group_name_H-M "C 2/C"
_symmetry_group_IT_number 15
_symmetry_cell_setting 'monoclinic'
loop_
_space_group_symop_operation_xyz
x,y,z
-x,y,1/2-z
-x,-y,-z
x,-y,1/2+z
1/2+x,1/2+y,z
1/2-x,1/2+y,1/2-z
1/2-x,1/2-y,-z
1/2+x,1/2-y,1/2+z
loop_
_atom_site_type_symbol
_atom_site_label
_atom_site_fract_x
_atom_site_fract_y
_atom_site_fract_z
Si Si1 0.782692 0.790052 0.320183
Si Si2 0.149124 0.573188 0.388232
Si Si3 0.254242 0.586319 0.933365
Si Si4 0.500000 0.798716 0.250000
Si Si5 0.675271 0.311460 0.580868
Si Si6 0.682632 0.404312 0.311922
Si Si7 0.326483 0.397244 0.691625
O O1 0.710036 0.824792 0.412112
O O2 0.747284 0.859846 0.278252
O O3 0.737379 0.690276 0.319424
O O4 0.000000 0.794021 0.250000
O O5 0.247824 0.488306 0.382111
O O6 0.174702 0.646849 0.430450
O O7 0.254415 0.603358 0.288505
O O8 0.928505 0.561719 0.459121
O O9 0.455796 0.597683 0.890773
O O10 0.464196 0.741422 0.323446
O O11 0.306737 0.851132 0.314208
O O12 0.750000 0.250000 0.500000
O O13 0.549260 0.390696 0.603024
O O14 0.732945 0.505559 0.305219
#
# Coordination Sequence:
#
# PCOD9282665 Si02
#       7
#     8   8   8   4   8   8   8
#     4  10  21  39  63  95 132 170 221 283 340 402
#     4  11  21  39  70 101 130 178 234 282 342 414
#     4  10  22  39  67 100 133 173 229 289 336 413
#     4  12  26  46  70  98 144 180 224 296 352 400
#     4  12  24  42  71 102 134 182 235 285 342 421
#     4  11  23  42  68  96 136 179 226 280 344 414
#     4  12  22  41  67 100 137 183 226 279 349 412
#
# _framework density 21.708172000000001
#
# number of rings (size 3 to 8) (size 9 to 14) (size 15 to 20)
#    0.000    0.923    6.154    0.923    1.077    0.000 
#    0.000    9.231    0.000    0.000    0.000    0.000 
#    0.000    0.000    0.000    0.000    0.000    0.000 
#
# Total GULP energy -144863.835381 kJ/mol
# GULP energy per Si atom -5571.685976 kJ/mol
# Density = 2.165876 g / cm^3
# Si number density = 21.708172 Si / 1000 Ang^3
#
#
#
# Elastic Constant Matrix: (Units=GPa)
#
#
# Indices 1 2 3 4 5 6 
#
# 1 45.0946 13.1653 1.3639 0.0000 -14.9582 0.0000
# 2 13.1653 110.7010 -0.7563 0.0001 6.0907 -0.0001
# 3 1.3639 -0.7563 47.9923 0.0001 -9.4812 0.0001
# 4 0.0000 0.0001 0.0001 23.2073 0.0000 -1.1456
# 5 -14.9582 6.0907 -9.4812 0.0000 26.2669 0.0000
# 6 0.0000 -0.0001 0.0001 -1.1456 0.0000 42.5049
#
#
#
# Elastic Compliance Matrix: (Units=1/GPa)
#
#
# Indices 1 2 3 4 5 6 
#
# 1 0.029728 -0.004562 0.002839 0.000000 0.019012 0.000000
# 2 -0.004562 0.009854 -0.000732 0.000000 -0.005147 0.000000
# 3 0.002839 -0.000732 0.022717 0.000000 0.009986 0.000000
# 4 0.000000 0.000000 0.000000 0.043147 0.000000 0.001163
# 5 0.019012 -0.005147 0.009986 0.000000 0.053696 0.000000
# 6 0.000000 0.000000 0.000000 0.001163 0.000000 0.023558
#
#
# Mechanical properties :
#
#
# Convention : Reuss Voigt Hill
#
# Bulk Modulus (GPa) = 17.42467 25.70373 21.56420
# Shear Modulus (GPa) = 24.18500 31.06351 27.62425
#
# Velocity S-wave (km/s) = 3.34143 3.78691 3.57112
# Velocity P-wave (km/s) = 4.78864 5.56661 5.19222
#
# Compressibility (1/GPa) = 0.05738989
#
# Stress axis : x y z
#
# Youngs Moduli (GPa) = 33.63833 101.48083 44.01921
#
# Poissons Ratio (x) = 0.46296 -0.12498
# Poissons Ratio (y) = 0.15346 0.03222
# Poissons Ratio (z) = -0.09551 0.07427
#
# Static dielectric constant tensor:
#      x y z
#    x 1.804160 0.000000 0.165220 
#    y 0.000000 1.845310 0.000000 
#    z 0.165220 0.000000 0.692160 
# 
# From -- ./inp_files/144155.got.cif
#   From: 2010.05.17/outbox.cif.g08.bks.cpg/sg15_73_cif.got.tgz:144155.got - 2010.06.03 18:47:42.
