data_PCOD9282913
_publ_section_title
;
Structure prediction by ZEFSAII (Michael W. Deem and Ramdas Pophale) SiO2 
 PCOD9282913
Probable space group: C 2/C
;
_chemical_formula_sum "Si O2"
_cell_formula_units_Z 44
_cell_length_a 10.348659
_cell_length_b 20.172211
_cell_length_c 8.681157
_cell_angle_alpha 90.000000
_cell_angle_beta 114.054557
_cell_angle_gamma 90.000000
_cell_volume 1654.859008
_symmetry_space_group_name_H-M "C 2/C"
_symmetry_group_IT_number 15
_symmetry_cell_setting 'monoclinic'
loop_
_space_group_symop_operation_xyz
x,y,z
-x,y,1/2-z
-x,-y,-z
x,-y,1/2+z
1/2+x,1/2+y,z
1/2-x,1/2+y,1/2-z
1/2-x,1/2-y,-z
1/2+x,1/2-y,1/2+z
loop_
_atom_site_type_symbol
_atom_site_label
_atom_site_fract_x
_atom_site_fract_y
_atom_site_fract_z
Si Si1 0.890350 0.517539 0.818256
Si Si2 0.008308 0.096966 0.420144
Si Si3 0.700450 0.849095 0.109849
Si Si4 0.697185 0.177015 0.941789
Si Si5 0.800893 0.630887 0.231225
Si Si6 0.000000 0.885351 0.250000
O O1 0.794051 0.572163 0.847803
O O2 0.819353 0.449500 0.729100
O O3 0.000000 0.548605 0.750000
O O4 0.000000 0.500000 0.000000
O O5 0.868468 0.144215 0.340493
O O6 0.000000 0.061148 0.250000
O O7 0.163920 0.129387 0.501110
O O8 0.990427 0.072473 0.586913
O O9 0.636180 0.820441 0.236736
O O10 0.867034 0.834989 0.188651
O O11 0.648467 0.840822 0.908956
O O12 0.630132 0.152435 0.072423
O O13 0.750000 0.250000 0.000000
#
# Coordination Sequence:
#
# PCOD9282913 Si02
#       6
#     8   8   8   8   8   4
#     4  12  23  40  63  90 135 174 219 277 326 403
#     4   8  16  34  58  83 119 156 196 257 313 373
#     4  10  21  40  63  95 130 168 217 265 339 392
#     4  10  21  39  65  95 129 165 217 274 329 396
#     4  10  21  40  63  87 128 172 213 264 333 389
#     4   8  16  34  58  86 120 156 204 252 310 388
#
# _framework density 26.588367999999999
#
# number of rings (size 3 to 8) (size 9 to 14) (size 15 to 20)
#    0.000    2.182    1.818    1.091    0.000    0.727 
#    4.909   10.909   12.000    0.000    0.000    0.000 
#    0.000    0.000    0.000    0.000    0.000    0.000 
#
# Total GULP energy -122529.526109 kJ/mol
# GULP energy per Si atom -5569.523914 kJ/mol
# Density = 2.652785 g / cm^3
# Si number density = 26.588368 Si / 1000 Ang^3
#
#
#
# Elastic Constant Matrix: (Units=GPa)
#
#
# Indices 1 2 3 4 5 6 
#
# 1 91.0254 -21.3357 33.9645 0.0000 -29.1536 0.0000
# 2 -21.3357 52.1240 30.5777 0.0000 -16.6203 0.0000
# 3 33.9645 30.5777 330.0400 0.0000 -56.1980 0.0000
# 4 0.0000 0.0000 0.0000 27.2726 0.0000 -3.7972
# 5 -29.1536 -16.6203 -56.1980 0.0000 63.1009 0.0000
# 6 0.0000 0.0000 0.0000 -3.7972 0.0000 6.2294
#
#
#
# Elastic Compliance Matrix: (Units=1/GPa)
#
#
# Indices 1 2 3 4 5 6 
#
# 1 0.017007 0.010695 -0.001089 0.000000 0.009705 0.000000
# 2 0.010695 0.028066 -0.001887 0.000000 0.010653 0.000000
# 3 -0.001089 -0.001887 0.003709 0.000000 0.002303 0.000000
# 4 0.000000 0.000000 0.000000 0.040067 0.000000 0.024424
# 5 0.009705 0.010653 0.002303 0.000000 0.025189 0.000000
# 6 0.000000 0.000000 0.000000 0.024424 0.000000 0.175417
#
#
# Mechanical properties :
#
#
# Convention : Reuss Voigt Hill
#
# Bulk Modulus (GPa) = 15.57131 62.17806 38.87468
# Shear Modulus (GPa) = 16.92478 47.98610 32.45544
#
# Velocity S-wave (km/s) = 2.52573 4.25288 3.49759
# Velocity P-wave (km/s) = 3.79142 6.89581 5.56449
#
# Compressibility (1/GPa) = 0.06422069
#
# Stress axis : x y z
#
# Youngs Moduli (GPa) = 58.79881 35.62986 269.61600
#
# Poissons Ratio (x) = -0.38105 0.29348
# Poissons Ratio (y) = -0.62883 0.50875
# Poissons Ratio (z) = 0.06400 0.06723
#
# Static dielectric constant tensor:
#      x y z
#    x 2.215580 0.000000 0.040520 
#    y 0.000000 2.021020 0.000000 
#    z 0.040520 0.000000 2.134980 
# 
# From -- ./inp_files/30965.got.cif
#   From: 2010.05.17/outbox.cif.g08.bks.cpg/sg15_16_cif.got.tgz:30965.got - 2010.06.03 18:47:42.
