data_PCOD9282462
_publ_section_title
;
Structure prediction by ZEFSAII (Michael W. Deem and Ramdas Pophale) SiO2 
 PCOD9282462
Probable space group: C 2/C
;
_chemical_formula_sum "Si O2"
_cell_formula_units_Z 40
_cell_length_a 9.227894
_cell_length_b 8.625126
_cell_length_c 24.022686
_cell_angle_alpha 90.000000
_cell_angle_beta 78.198276
_cell_angle_gamma 90.000000
_cell_volume 1871.590103
_symmetry_space_group_name_H-M "C 2/C"
_symmetry_group_IT_number 15
_symmetry_cell_setting 'monoclinic'
loop_
_space_group_symop_operation_xyz
x,y,z
-x,y,1/2-z
-x,-y,-z
x,-y,1/2+z
1/2+x,1/2+y,z
1/2-x,1/2+y,1/2-z
1/2-x,1/2-y,-z
1/2+x,1/2-y,1/2+z
loop_
_atom_site_type_symbol
_atom_site_label
_atom_site_fract_x
_atom_site_fract_y
_atom_site_fract_z
Si Si1 0.100576 0.348043 0.867749
Si Si2 0.030703 0.854139 0.035846
Si Si3 0.297993 0.815984 0.824518
Si Si4 0.152862 0.652102 0.931812
Si Si5 0.673043 0.477387 0.731958
O O1 0.090537 0.502112 0.906248
O O2 0.246520 0.368108 0.819528
O O3 0.089097 0.200913 0.909523
O O4 0.958672 0.344298 0.838384
O O5 0.183341 0.882535 0.057050
O O6 0.057913 0.714053 0.990393
O O7 0.000000 0.000000 0.000000
O O8 0.181960 0.786061 0.883592
O O9 0.305398 0.652834 0.790754
O O10 0.247987 0.945954 0.785427
O O11 0.500000 0.443827 0.750000
#
# Coordination Sequence:
#
# PCOD9282462 Si02
#       5
#     8   8   8   8   8
#     4  10  21  41  63  87 124 164 199 246 304 360
#     4  10  21  39  62  91 123 155 199 252 300 356
#     4  10  23  41  62  87 122 160 201 250 299 358
#     4   9  21  39  60  89 121 157 200 247 299 358
#     4  11  23  40  61  89 122 158 203 252 299 355
#
# _framework density 21.372201
#
# number of rings (size 3 to 8) (size 9 to 14) (size 15 to 20)
#    0.000    2.000    0.000    2.400    0.000   10.400 
#    0.000   10.000    0.000    0.000    0.000    0.000 
#    0.000    0.000    0.000    0.000    0.000    0.000 
#
# Total GULP energy -111834.096768 kJ/mol
# GULP energy per Si atom -5591.704838 kJ/mol
# Density = 2.132356 g / cm^3
# Si number density = 21.372201 Si / 1000 Ang^3
#
#
#
# Elastic Constant Matrix: (Units=GPa)
#
#
# Indices 1 2 3 4 5 6 
#
# 1 46.5390 32.0764 55.8545 0.0000 -0.0221 0.0000
# 2 32.0764 66.5502 37.3991 0.0000 20.9084 0.0000
# 3 55.8545 37.3991 108.6638 0.0000 18.7891 0.0000
# 4 0.0000 0.0000 0.0000 52.8819 0.0000 20.3306
# 5 -0.0221 20.9084 18.7891 0.0000 35.8290 0.0000
# 6 0.0000 0.0000 0.0000 20.3306 0.0000 21.8912
#
#
#
# Elastic Compliance Matrix: (Units=1/GPa)
#
#
# Indices 1 2 3 4 5 6 
#
# 1 0.114463 -0.041507 -0.053611 0.000000 0.052407 0.000000
# 2 -0.041507 0.036203 0.013782 0.000000 -0.028380 0.000000
# 3 -0.053611 0.013782 0.036744 0.000000 -0.027345 0.000000
# 4 0.000000 0.000000 0.000000 0.029411 0.000000 -0.027314
# 5 0.052407 -0.028380 -0.027345 0.000000 0.058844 0.000000
# 6 0.000000 0.000000 0.000000 -0.027314 0.000000 0.071048
#
#
# Mechanical properties :
#
#
# Convention : Reuss Voigt Hill
#
# Bulk Modulus (GPa) = 40.42351 52.49034 46.45692
# Shear Modulus (GPa) = 9.65939 28.54862 19.10401
#
# Velocity S-wave (km/s) = 2.12824 3.65880 2.99301
# Velocity P-wave (km/s) = 4.99943 6.51633 5.80762
#
# Compressibility (1/GPa) = 0.02473808
#
# Stress axis : x y z
#
# Youngs Moduli (GPa) = 8.73648 27.62194 27.21505
#
# Poissons Ratio (x) = 1.14649 1.45903
# Poissons Ratio (y) = 0.36262 -0.37507
# Poissons Ratio (z) = 0.46837 -0.38068
#
# Static dielectric constant tensor:
#      x y z
#    x 1.727580 0.000000 -0.020130 
#    y 0.000000 1.773460 0.000000 
#    z -0.020130 0.000000 1.794070 
# 
# From -- ./inp_files/262440.got.cif
#   From: 2010.05.17/outbox.cif.g08.bks.cpg/sg15_132_cif.got.tgz:262440.got - 2010.06.03 18:47:42.
