data_PCOD9282117
_publ_section_title
;
Structure prediction by ZEFSAII (Michael W. Deem and Ramdas Pophale) SiO2 
 PCOD9282117
Probable space group: C 2/C
;
_chemical_formula_sum "Si O2"
_cell_formula_units_Z 60
_cell_length_a 25.744451
_cell_length_b 10.774822
_cell_length_c 12.247889
_cell_angle_alpha 90.000000
_cell_angle_beta 121.898322
_cell_angle_gamma 90.000000
_cell_volume 2884.404105
_symmetry_space_group_name_H-M "C 2/C"
_symmetry_group_IT_number 15
_symmetry_cell_setting 'monoclinic'
loop_
_space_group_symop_operation_xyz
x,y,z
-x,y,1/2-z
-x,-y,-z
x,-y,1/2+z
1/2+x,1/2+y,z
1/2-x,1/2+y,1/2-z
1/2-x,1/2-y,-z
1/2+x,1/2-y,1/2+z
loop_
_atom_site_type_symbol
_atom_site_label
_atom_site_fract_x
_atom_site_fract_y
_atom_site_fract_z
Si Si1 0.376926 0.309654 0.348635
Si Si2 0.000000 0.973976 0.250000
Si Si3 0.841596 0.208806 0.043068
Si Si4 0.140568 0.265726 0.089711
Si Si5 0.933587 0.271752 0.694197
Si Si6 0.583471 0.419011 0.680857
Si Si7 0.707517 0.094484 0.854615
Si Si8 0.239245 0.313850 0.872700
O O1 0.383710 0.280884 0.483393
O O2 0.414276 0.232109 0.298648
O O3 0.392107 0.453089 0.342848
O O4 0.307179 0.274334 0.243107
O O5 0.944427 0.875394 0.175394
O O6 0.981983 0.053004 0.335758
O O7 0.776810 0.147058 0.938266
O O8 0.873256 0.125417 0.171372
O O9 0.826504 0.340692 0.081462
O O10 0.088892 0.189341 0.097855
O O11 0.171604 0.362078 0.206607
O O12 0.196480 0.175381 0.118666
O O13 0.114029 0.319216 0.947660
O O14 0.000000 0.330340 0.750000
O O15 0.710816 0.947800 0.859232
O O16 0.250000 0.250000 0.000000
#
# Coordination Sequence:
#
# PCOD9282117 Si02
#       8
#     8   4   8   8   8   8   8   8
#     4  11  21  35  58  90 118 162 203 251 311 380
#     4   8  20  36  56  94 118 164 204 258 324 366
#     4  10  21  39  55  85 127 166 196 249 320 371
#     4  11  22  38  60  93 127 165 201 260 323 382
#     4   9  21  38  56  90 120 158 210 264 316 360
#     4  10  22  36  62  90 130 161 204 261 322 379
#     4  10  23  38  56  87 128 161 204 255 309 383
#     4  12  23  37  62  94 126 164 210 253 311 383
#
# _framework density 20.801523
#
# number of rings (size 3 to 8) (size 9 to 14) (size 15 to 20)
#    0.400    1.333    2.667    1.600    5.600    2.667 
#    0.000    0.000    0.000    0.800    6.933    0.000 
#    0.000    0.000    0.000    0.000    0.000    0.000 
#
# Total GULP energy -167431.807434 kJ/mol
# GULP energy per Si atom -5581.060248 kJ/mol
# Density = 2.075418 g / cm^3
# Si number density = 20.801523 Si / 1000 Ang^3
#
#
#
# Elastic Constant Matrix: (Units=GPa)
#
#
# Indices 1 2 3 4 5 6 
#
# 1 98.8751 14.8558 27.0303 0.0000 -29.8586 0.0000
# 2 14.8558 83.5941 30.2930 0.0000 -17.1887 0.0000
# 3 27.0303 30.2930 100.6689 0.0000 -28.1114 0.0000
# 4 0.0000 0.0000 0.0000 8.9819 0.0000 0.2335
# 5 -29.8586 -17.1887 -28.1114 0.0000 38.3751 0.0000
# 6 0.0000 0.0000 0.0000 0.2335 0.0000 12.1923
#
#
#
# Elastic Compliance Matrix: (Units=1/GPa)
#
#
# Indices 1 2 3 4 5 6 
#
# 1 0.013279 -0.000063 -0.000841 0.000000 0.009687 0.000000
# 2 -0.000063 0.013893 -0.003067 0.000000 0.003927 0.000000
# 3 -0.000841 -0.003067 0.013220 0.000000 0.007656 0.000000
# 4 0.000000 0.000000 0.000000 0.111390 0.000000 -0.002133
# 5 0.009687 0.003927 0.007656 0.000000 0.040963 0.000000
# 6 0.000000 0.000000 0.000000 -0.002133 0.000000 0.082060
#
#
# Mechanical properties :
#
#
# Convention : Reuss Voigt Hill
#
# Bulk Modulus (GPa) = 30.81781 47.49959 39.15870
# Shear Modulus (GPa) = 17.03205 25.97380 21.50293
#
# Velocity S-wave (km/s) = 2.86455 3.53746 3.21864
# Velocity P-wave (km/s) = 5.07821 6.29039 5.71652
#
# Compressibility (1/GPa) = 0.03244877
#
# Stress axis : x y z
#
# Youngs Moduli (GPa) = 75.30924 71.98044 75.64115
#
# Poissons Ratio (x) = 0.00454 0.06364
# Poissons Ratio (y) = 0.00475 0.23199
# Poissons Ratio (z) = 0.06336 0.22077
#
# Static dielectric constant tensor:
#      x y z
#    x 1.807030 0.000000 -0.009270 
#    y 0.000000 1.719180 0.000000 
#    z -0.009270 0.000000 1.793680 
# 
# From -- ./inp_files/117644.got.cif
#   From: 2010.05.17/outbox.cif.g08.bks.cpg/sg15_59_cif.got.tgz:117644.got - 2010.06.03 18:47:42.
