data_PCOD9282769
_publ_section_title
;
Structure prediction by ZEFSAII (Michael W. Deem and Ramdas Pophale) SiO2 
 PCOD9282769
Probable space group: C 2/C
;
_chemical_formula_sum "Si O2"
_cell_formula_units_Z 60
_cell_length_a 12.049401
_cell_length_b 23.672051
_cell_length_c 14.108629
_cell_angle_alpha 90.000000
_cell_angle_beta 46.696308
_cell_angle_gamma 90.000000
_cell_volume 2928.569807
_symmetry_space_group_name_H-M "C 2/C"
_symmetry_group_IT_number 15
_symmetry_cell_setting 'monoclinic'
loop_
_space_group_symop_operation_xyz
x,y,z
-x,y,1/2-z
-x,-y,-z
x,-y,1/2+z
1/2+x,1/2+y,z
1/2-x,1/2+y,1/2-z
1/2-x,1/2-y,-z
1/2+x,1/2-y,1/2+z
loop_
_atom_site_type_symbol
_atom_site_label
_atom_site_fract_x
_atom_site_fract_y
_atom_site_fract_z
Si Si1 0.567755 0.900810 0.615813
Si Si2 0.500000 0.416978 0.250000
Si Si3 0.845001 0.799875 0.076371
Si Si4 0.633130 0.642493 0.487469
Si Si5 0.761654 0.678137 0.069683
Si Si6 0.802192 0.529057 0.628817
Si Si7 0.255963 0.903531 0.727340
Si Si8 0.568787 0.876904 0.309952
O O1 0.500000 0.928564 0.750000
O O2 0.691690 0.854318 0.576612
O O3 0.636198 0.949635 0.509297
O O4 0.419970 0.874364 0.653185
O O5 0.441878 0.380802 0.372614
O O6 0.373038 0.455283 0.277256
O O7 0.834449 0.813883 0.970206
O O8 0.721151 0.839866 0.201793
O O9 0.014878 0.810499 0.017917
O O10 0.782575 0.736173 0.114782
O O11 0.657137 0.601113 0.381454
O O12 0.931322 0.658689 0.937197
O O13 0.688998 0.631307 0.179822
O O14 0.803394 0.465190 0.662979
O O15 0.886659 0.570020 0.652593
O O16 0.500000 0.895675 0.250000
#
# Coordination Sequence:
#
# PCOD9282769 Si02
#       8
#     8   4   8   8   8   8   8   8
#     4   9  20  39  60  89 124 164 206 252 308 373
#     4  10  22  42  60  92 126 170 210 258 310 384
#     4  10  22  43  64  91 125 168 208 267 314 370
#     4  10  22  40  66  86 125 167 207 256 315 371
#     4  10  23  40  65  93 127 159 214 263 317 371
#     4  11  21  39  65  90 131 163 206 262 316 381
#     4  11  23  39  63  96 124 164 208 262 317 376
#     4  10  21  39  64  94 119 165 213 253 317 381
#
# _framework density 20.487817
#
# number of rings (size 3 to 8) (size 9 to 14) (size 15 to 20)
#    0.000    1.867    2.667    0.400    1.867    3.733 
#    9.600    0.667    4.400    0.000    0.000    0.000 
#    0.000    0.000    0.000    0.000    0.000    0.000 
#
# Total GULP energy -167068.966020 kJ/mol
# GULP energy per Si atom -5568.965534 kJ/mol
# Density = 2.044119 g / cm^3
# Si number density = 20.487817 Si / 1000 Ang^3
#
#
#
# Elastic Constant Matrix: (Units=GPa)
#
#
# Indices 1 2 3 4 5 6 
#
# 1 89.5872 34.3701 20.1136 0.0000 2.6397 0.0000
# 2 34.3701 77.6664 11.9941 0.0000 9.9344 0.0000
# 3 20.1136 11.9941 72.0617 0.0000 11.7777 0.0000
# 4 0.0000 0.0000 0.0000 45.6290 0.0000 -23.9438
# 5 2.6397 9.9344 11.7777 0.0000 28.8740 0.0000
# 6 0.0000 0.0000 0.0000 -23.9438 0.0000 25.2575
#
#
#
# Elastic Compliance Matrix: (Units=1/GPa)
#
#
# Indices 1 2 3 4 5 6 
#
# 1 0.014151 -0.006025 -0.003294 0.000000 0.002123 0.000000
# 2 -0.006025 0.016206 -0.000208 0.000000 -0.004940 0.000000
# 3 -0.003294 -0.000208 0.015825 0.000000 -0.006082 0.000000
# 4 0.000000 0.000000 0.000000 0.043610 0.000000 0.041342
# 5 0.002123 -0.004940 -0.006082 0.000000 0.038620 0.000000
# 6 0.000000 0.000000 0.000000 0.041342 0.000000 0.078784
#
#
# Mechanical properties :
#
#
# Convention : Reuss Voigt Hill
#
# Bulk Modulus (GPa) = 36.86303 41.36345 39.11324
# Shear Modulus (GPa) = 21.25014 31.47460 26.36237
#
# Velocity S-wave (km/s) = 3.22407 3.92377 3.59100
# Velocity P-wave (km/s) = 5.64723 6.38444 6.02711
#
# Compressibility (1/GPa) = 0.02712745
#
# Stress axis : x y z
#
# Youngs Moduli (GPa) = 70.66736 61.70570 63.19075
#
# Poissons Ratio (x) = 0.37178 0.20814
# Poissons Ratio (y) = 0.42578 0.01316
# Poissons Ratio (z) = 0.23277 0.01285
#
# Static dielectric constant tensor:
#      x y z
#    x 1.744520 0.000000 0.006890 
#    y 0.000000 1.709460 0.000000 
#    z 0.006890 0.000000 1.783360 
# 
# From -- ./inp_files/148087.got.cif
#   From: 2010.05.17/outbox.cif.g08.bks.cpg/sg15_75_cif.got.tgz:148087.got - 2010.06.03 18:47:42.
