data_PCOD9282098
_publ_section_title
;
Structure prediction by ZEFSAII (Michael W. Deem and Ramdas Pophale) SiO2 
 PCOD9282098
Probable space group: C 2/C
;
_chemical_formula_sum "Si O2"
_cell_formula_units_Z 52
_cell_length_a 32.280818
_cell_length_b 16.903894
_cell_length_c 29.395233
_cell_angle_alpha 90.000000
_cell_angle_beta 171.104946
_cell_angle_gamma 90.000000
_cell_volume 2480.208523
_symmetry_space_group_name_H-M "C 2/C"
_symmetry_group_IT_number 15
_symmetry_cell_setting 'monoclinic'
loop_
_space_group_symop_operation_xyz
x,y,z
-x,y,1/2-z
-x,-y,-z
x,-y,1/2+z
1/2+x,1/2+y,z
1/2-x,1/2+y,1/2-z
1/2-x,1/2-y,-z
1/2+x,1/2-y,1/2+z
loop_
_atom_site_type_symbol
_atom_site_label
_atom_site_fract_x
_atom_site_fract_y
_atom_site_fract_z
Si Si1 0.391718 0.701792 0.312131
Si Si2 0.331348 0.537704 0.651140
Si Si3 0.492686 0.088258 0.651031
Si Si4 0.500000 0.426921 0.750000
Si Si5 0.356455 0.720519 0.664171
Si Si6 0.349558 0.002527 0.266829
Si Si7 0.316490 0.571561 0.818642
O O1 0.642242 0.747943 0.561565
O O2 0.511321 0.648677 0.483165
O O3 0.257734 0.646156 0.127714
O O4 0.087683 0.491881 0.409971
O O5 0.412200 0.484046 0.695972
O O6 0.290565 0.627875 0.594509
O O7 0.572276 0.537272 0.948658
O O8 0.560981 0.059326 0.674495
O O9 0.748395 0.120655 0.956060
O O10 0.250000 0.750000 0.500000
O O11 0.175103 0.762128 0.506411
O O12 0.568718 0.069927 0.514928
O O13 0.299935 0.953992 0.258846
O O14 0.500000 0.500000 0.000000
#
# Coordination Sequence:
#
# PCOD9282098 Si02
#       7
#     8   8   8   4   8   8   8
#     4  12  27  46  72 106 146 183 228 294 368 420
#     4  11  22  40  68  99 133 188 238 288 339 425
#     4  11  23  43  67 105 133 190 239 293 340 429
#     4  10  24  36  70  96 136 172 262 286 340 396
#     4  10  23  38  59  90 136 177 221 276 347 394
#     4  10  21  38  72 100 137 169 248 278 337 402
#     4  11  21  42  73 103 132 182 230 281 341 427
#
# _framework density 20.965979000000001
#
# number of rings (size 3 to 8) (size 9 to 14) (size 15 to 20)
#    0.000    1.231    3.077    2.308   12.923    0.000 
#    0.000    2.308    0.000    0.000    0.000    0.000 
#    0.000    0.000    0.000    0.000    0.000    0.000 
#
# Total GULP energy -145120.461357 kJ/mol
# GULP energy per Si atom -5581.556206 kJ/mol
# Density = 2.091826 g / cm^3
# Si number density = 20.965979 Si / 1000 Ang^3
#
#
#
# Elastic Constant Matrix: (Units=GPa)
#
#
# Indices 1 2 3 4 5 6 
#
# 1 65.1539 -4.6133 21.2351 0.0007 13.9507 -0.0105
# 2 -4.6133 62.6974 26.8784 0.0024 3.8651 0.0043
# 3 21.2351 26.8784 148.7174 0.0063 -17.9649 0.1710
# 4 0.0007 0.0024 0.0063 32.3338 -0.1845 2.3487
# 5 13.9507 3.8651 -17.9649 -0.1845 53.0036 -0.0369
# 6 -0.0105 0.0043 0.1710 2.3487 -0.0369 26.3920
#
#
#
# Elastic Compliance Matrix: (Units=1/GPa)
#
#
# Indices 1 2 3 4 5 6 
#
# 1 0.018275 0.003460 -0.004011 -0.000039 -0.006422 0.000027
# 2 0.003460 0.018247 -0.004236 -0.000023 -0.003677 0.000023
# 3 -0.004011 -0.004236 0.008579 0.000027 0.004272 -0.000053
# 4 -0.000039 -0.000023 0.000027 0.031129 0.000127 -0.002770
# 5 -0.006422 -0.003677 0.004272 0.000127 0.022273 -0.000010
# 6 0.000027 0.000023 -0.000053 -0.002770 -0.000010 0.038137
#
#
# Mechanical properties :
#
#
# Convention : Reuss Voigt Hill
#
# Bulk Modulus (GPa) = 28.14727 40.39657 34.27192
# Shear Modulus (GPa) = 31.63415 37.88378 34.75897
#
# Velocity S-wave (km/s) = 3.88858 4.25540 4.07612
# Velocity P-wave (km/s) = 5.79791 6.59197 6.20765
#
# Compressibility (1/GPa) = 0.03552743
#
# Stress axis : x y z
#
# Youngs Moduli (GPa) = 54.71808 54.80381 116.56937
#
# Poissons Ratio (x) = -0.18962 0.46752
# Poissons Ratio (y) = -0.18932 0.49380
# Poissons Ratio (z) = 0.21946 0.23215
#
# Static dielectric constant tensor:
#      x y z
#    x 1.769950 -0.000540 0.020170 
#    y -0.000540 1.779720 0.000180 
#    z 0.020170 0.000180 1.857420 
# 
# From -- ./inp_files/304478.got.cif
#   From: 2010.05.17/outbox.cif.g08.bks.cpg/sg15_153_cif.got.tgz:304478.got - 2010.06.03 18:47:42.
