data_PCOD9282329
_publ_section_title
;
Structure prediction by ZEFSAII (Michael W. Deem and Ramdas Pophale) SiO2 
 PCOD9282329
Probable space group: C 2/C
;
_chemical_formula_sum "Si O2"
_cell_formula_units_Z 56
_cell_length_a 25.067431
_cell_length_b 18.705288
_cell_length_c 18.500475
_cell_angle_alpha 90.000000
_cell_angle_beta 161.170820
_cell_angle_gamma 90.000000
_cell_volume 2799.757111
_symmetry_space_group_name_H-M "C 2/C"
_symmetry_group_IT_number 15
_symmetry_cell_setting 'monoclinic'
loop_
_space_group_symop_operation_xyz
x,y,z
-x,y,1/2-z
-x,-y,-z
x,-y,1/2+z
1/2+x,1/2+y,z
1/2-x,1/2+y,1/2-z
1/2-x,1/2-y,-z
1/2+x,1/2-y,1/2+z
loop_
_atom_site_type_symbol
_atom_site_label
_atom_site_fract_x
_atom_site_fract_y
_atom_site_fract_z
Si Si1 0.996551 0.942107 0.658548
Si Si2 0.573113 0.714710 0.263654
Si Si3 0.385031 0.933815 0.374837
Si Si4 0.070312 0.704625 0.052553
Si Si5 0.876891 0.090082 0.659598
Si Si6 0.541836 0.282589 0.450074
Si Si7 0.010844 0.626100 0.178901
O O1 0.000000 0.941354 0.750000
O O2 0.073727 0.866440 0.734306
O O3 0.805586 0.945496 0.390047
O O4 0.095260 0.014035 0.765656
O O5 0.500000 0.712056 0.250000
O O6 0.750000 0.750000 0.500000
O O7 0.466891 0.763086 0.073397
O O8 0.463393 0.865859 0.433032
O O9 0.396381 0.915061 0.474763
O O10 0.500000 0.000000 0.500000
O O11 0.267099 0.694144 0.311970
O O12 0.007891 0.760658 0.032784
O O13 0.695464 0.101912 0.395869
O O14 0.000000 0.093869 0.750000
O O15 0.922859 0.155159 0.770475
O O16 0.515297 0.210341 0.369222
O O17 0.000000 0.610627 0.250000
#
# Coordination Sequence:
#
# PCOD9282329 Si02
#       7
#     8   8   8   8   8   8   8
#     4  10  21  39  61  88 120 159 204 251 299 354
#     4  11  22  40  62  85 116 159 204 258 307 349
#     4  11  22  41  65  90 123 164 202 249 305 362
#     4  11  22  38  61  90 118 157 207 249 299 368
#     4  11  21  38  62  89 119 161 204 243 298 368
#     4  11  21  37  60  89 122 158 198 248 301 364
#     4  11  23  39  60  91 127 160 197 250 306 363
#
# _framework density 20.001735
#
# number of rings (size 3 to 8) (size 9 to 14) (size 15 to 20)
#    0.000    1.143    0.000   10.286    0.000    0.000 
#    0.000    7.143    0.000    0.000    0.000    0.000 
#    0.000    0.000    0.000    0.000    0.000    0.000 
#
# Total GULP energy -156476.900904 kJ/mol
# GULP energy per Si atom -5588.460747 kJ/mol
# Density = 1.995621 g / cm^3
# Si number density = 20.001735 Si / 1000 Ang^3
#
#
#
# Elastic Constant Matrix: (Units=GPa)
#
#
# Indices 1 2 3 4 5 6 
#
# 1 69.0305 3.0109 -11.5942 0.0000 -24.0309 0.0000
# 2 3.0109 115.5528 18.8766 0.0000 -23.8609 0.0000
# 3 -11.5942 18.8766 114.5668 0.0000 -17.9226 0.0000
# 4 0.0000 0.0000 0.0000 24.8014 0.0000 5.4510
# 5 -24.0309 -23.8609 -17.9226 0.0000 34.5653 0.0000
# 6 0.0000 0.0000 0.0000 5.4510 0.0000 14.1342
#
#
#
# Elastic Compliance Matrix: (Units=1/GPa)
#
#
# Indices 1 2 3 4 5 6 
#
# 1 0.022053 0.002702 0.004872 0.000000 0.019723 0.000000
# 2 0.002702 0.010465 -0.000029 0.000000 0.009088 0.000000
# 3 0.004872 -0.000029 0.010614 0.000000 0.008871 0.000000
# 4 0.000000 0.000000 0.000000 0.044054 0.000000 -0.016990
# 5 0.019723 0.009088 0.008871 0.000000 0.053516 0.000000
# 6 0.000000 0.000000 0.000000 -0.016990 0.000000 0.077303
#
#
# Mechanical properties :
#
#
# Convention : Reuss Voigt Hill
#
# Bulk Modulus (GPa) = 17.17556 35.52627 26.35091
# Shear Modulus (GPa) = 22.48988 33.95730 28.22359
#
# Velocity S-wave (km/s) = 3.35684 4.12481 3.76048
# Velocity P-wave (km/s) = 4.86109 6.36282 5.66197
#
# Compressibility (1/GPa) = 0.05822228
#
# Stress axis : x y z
#
# Youngs Moduli (GPa) = 45.34550 95.55710 94.21441
#
# Poissons Ratio (x) = -0.25822 -0.45902
# Poissons Ratio (y) = -0.12254 0.00274
# Poissons Ratio (z) = -0.22092 0.00278
#
# Static dielectric constant tensor:
#      x y z
#    x 1.685030 0.000000 0.072190 
#    y 0.000000 1.751100 0.000000 
#    z 0.072190 0.000000 1.495520 
# 
# From -- ./inp_files/220209.got.cif
#   From: 2010.05.17/outbox.cif.g08.bks.cpg/sg15_111_cif.got.tgz:220209.got - 2010.06.03 18:47:42.
