data_PCOD9282048
_publ_section_title
;
Structure prediction by ZEFSAII (Michael W. Deem and Ramdas Pophale) SiO2 
 PCOD9282048
Probable space group: C 2/C
;
_chemical_formula_sum "Si O2"
_cell_formula_units_Z 56
_cell_length_a 22.623231
_cell_length_b 11.779559
_cell_length_c 11.514976
_cell_angle_alpha 90.000000
_cell_angle_beta 127.826554
_cell_angle_gamma 90.000000
_cell_volume 2423.833581
_symmetry_space_group_name_H-M "C 2/C"
_symmetry_group_IT_number 15
_symmetry_cell_setting 'monoclinic'
loop_
_space_group_symop_operation_xyz
x,y,z
-x,y,1/2-z
-x,-y,-z
x,-y,1/2+z
1/2+x,1/2+y,z
1/2-x,1/2+y,1/2-z
1/2-x,1/2-y,-z
1/2+x,1/2-y,1/2+z
loop_
_atom_site_type_symbol
_atom_site_label
_atom_site_fract_x
_atom_site_fract_y
_atom_site_fract_z
Si Si1 0.829351 0.428680 0.399995
Si Si2 0.435864 0.519307 0.574909
Si Si3 0.470481 0.311434 0.449893
Si Si4 0.924930 0.643177 0.230097
Si Si5 0.164805 0.352595 0.475781
Si Si6 0.949061 0.395572 0.349980
Si Si7 0.789081 0.902751 0.431191
O O1 0.857583 0.386394 0.560690
O O2 0.834729 0.564918 0.414622
O O3 0.889169 0.381826 0.380959
O O4 0.750755 0.407179 0.242608
O O5 0.500000 0.505118 0.750000
O O6 0.442275 0.415832 0.491369
O O7 0.458478 0.634185 0.534267
O O8 0.351911 0.500165 0.521195
O O9 0.411948 0.255431 0.290042
O O10 0.492490 0.203038 0.553164
O O11 0.953717 0.532535 0.339131
O O12 0.000000 0.669830 0.250000
O O13 0.087552 0.364564 0.316312
O O14 0.177271 0.222555 0.517200
O O15 0.227585 0.401428 0.460983
#
# Coordination Sequence:
#
# PCOD9282048 Si02
#       7
#     8   8   8   8   8   8   8
#     4  10  22  39  64  98 125 169 214 270 338 383
#     4  11  26  43  65  93 133 179 226 264 319 402
#     4  11  24  42  64  99 131 174 222 265 334 387
#     4  11  22  39  65  98 135 164 214 277 333 385
#     4   9  21  40  65  94 127 165 227 270 327 391
#     4  10  21  38  68  95 128 165 213 277 336 384
#     4  10  22  42  65  90 129 180 217 270 325 385
#
# _framework density 23.103895999999999
#
# number of rings (size 3 to 8) (size 9 to 14) (size 15 to 20)
#    0.000    1.714    1.429    1.714    2.000    7.429 
#    0.000    0.714    0.000    0.000    0.000    0.000 
#    0.000    0.000    0.000    0.000    0.000    0.000 
#
# Total GULP energy -156269.307446 kJ/mol
# GULP energy per Si atom -5581.046694 kJ/mol
# Density = 2.305131 g / cm^3
# Si number density = 23.103896 Si / 1000 Ang^3
#
#
#
# Elastic Constant Matrix: (Units=GPa)
#
#
# Indices 1 2 3 4 5 6 
#
# 1 61.1096 22.2476 14.0268 0.0000 3.9499 0.0000
# 2 22.2476 112.3997 50.6469 0.0000 -10.5726 0.0000
# 3 14.0268 50.6469 55.1057 0.0000 4.1830 0.0000
# 4 0.0000 0.0000 0.0000 33.2361 0.0000 -11.9650
# 5 3.9499 -10.5726 4.1830 0.0000 24.8920 0.0000
# 6 0.0000 0.0000 0.0000 -11.9650 0.0000 37.1136
#
#
#
# Elastic Compliance Matrix: (Units=1/GPa)
#
#
# Indices 1 2 3 4 5 6 
#
# 1 0.018158 -0.003495 -0.001092 0.000000 -0.004182 0.000000
# 2 -0.003495 0.018097 -0.016580 0.000000 0.011027 0.000000
# 3 -0.001092 -0.016580 0.034626 0.000000 -0.012688 0.000000
# 4 0.000000 0.000000 0.000000 0.034038 0.000000 0.010974
# 5 -0.004182 0.011027 -0.012688 0.000000 0.047653 0.000000
# 6 0.000000 0.000000 0.000000 0.010974 0.000000 0.030482
#
#
# Mechanical properties :
#
#
# Convention : Reuss Voigt Hill
#
# Bulk Modulus (GPa) = 35.03062 44.71750 39.87406
# Shear Modulus (GPa) = 21.28536 28.49459 24.88998
#
# Velocity S-wave (km/s) = 3.03857 3.51568 3.28580
# Velocity P-wave (km/s) = 5.24458 5.98974 5.62950
#
# Compressibility (1/GPa) = 0.02854645
#
# Stress axis : x y z
#
# Youngs Moduli (GPa) = 55.07359 55.25867 28.87984
#
# Poissons Ratio (x) = 0.19315 0.03153
# Poissons Ratio (y) = 0.19250 0.47882
# Poissons Ratio (z) = 0.06013 0.91618
#
# Static dielectric constant tensor:
#      x y z
#    x 1.944680 0.000000 -0.018860 
#    y 0.000000 1.832710 0.000000 
#    z -0.018860 0.000000 1.897470 
# 
# From -- ./inp_files/117682.got.cif
#   From: 2010.05.17/outbox.cif.g08.bks.cpg/sg15_59_cif.got.tgz:117682.got - 2010.06.03 18:47:42.
