data_PCOD9282569
_publ_section_title
;
Structure prediction by ZEFSAII (Michael W. Deem and Ramdas Pophale) SiO2 
 PCOD9282569
Probable space group: C 2/C
;
_chemical_formula_sum "Si O2"
_cell_formula_units_Z 36
_cell_length_a 7.620093
_cell_length_b 19.736434
_cell_length_c 12.908375
_cell_angle_alpha 90.000000
_cell_angle_beta 123.620424
_cell_angle_gamma 90.000000
_cell_volume 1616.596273
_symmetry_space_group_name_H-M "C 2/C"
_symmetry_group_IT_number 15
_symmetry_cell_setting 'monoclinic'
loop_
_space_group_symop_operation_xyz
x,y,z
-x,y,1/2-z
-x,-y,-z
x,-y,1/2+z
1/2+x,1/2+y,z
1/2-x,1/2+y,1/2-z
1/2-x,1/2-y,-z
1/2+x,1/2-y,1/2+z
loop_
_atom_site_type_symbol
_atom_site_label
_atom_site_fract_x
_atom_site_fract_y
_atom_site_fract_z
Si Si1 0.670029 0.701287 0.622267
Si Si2 0.431606 0.210549 0.897277
Si Si3 0.586792 0.544562 0.623292
Si Si4 0.000000 0.460360 0.750000
Si Si5 0.127636 0.432276 0.015408
O O1 0.473493 0.738566 0.505383
O O2 0.727951 0.721421 0.758627
O O3 0.643657 0.620774 0.610718
O O4 0.871901 0.718260 0.617076
O O5 0.434208 0.134146 0.941380
O O6 0.500000 0.500000 0.500000
O O7 0.372549 0.552725 0.618349
O O8 0.803576 0.507023 0.723226
O O9 0.082622 0.420301 0.877821
O O10 0.000000 0.500000 0.000000
#
# Coordination Sequence:
#
# PCOD9282569 Si02
#       5
#     8   8   8   4   8
#     4  10  21  40  62  90 124 163 207 255 310 370
#     4  10  22  40  63  89 124 164 206 255 311 371
#     4  10  21  39  63  89 123 162 204 255 307 369
#     4  10  22  40  62  90 124 158 210 264 310 368
#     4  11  23  39  62  92 124 164 208 256 313 372
#
# _framework density 22.269009
#
# number of rings (size 3 to 8) (size 9 to 14) (size 15 to 20)
#    0.000    1.778    0.000    5.333    0.000    8.000 
#    0.000    4.444    0.000    0.000    0.000    0.000 
#    0.000    0.000    0.000    0.000    0.000    0.000 
#
# Total GULP energy -100515.126494 kJ/mol
# GULP energy per Si atom -5584.173694 kJ/mol
# Density = 2.221832 g / cm^3
# Si number density = 22.269009 Si / 1000 Ang^3
#
#
#
# Elastic Constant Matrix: (Units=GPa)
#
#
# Indices 1 2 3 4 5 6 
#
# 1 47.3437 -21.5850 29.3935 0.0000 10.0201 0.0000
# 2 -21.5850 53.1281 70.9448 0.0000 -8.8024 0.0000
# 3 29.3935 70.9448 226.8469 0.0000 -4.4922 0.0000
# 4 0.0000 0.0000 0.0000 30.0385 0.0000 0.3574
# 5 10.0201 -8.8024 -4.4922 0.0000 29.3470 0.0000
# 6 0.0000 0.0000 0.0000 0.3574 0.0000 27.2481
#
#
#
# Elastic Compliance Matrix: (Units=1/GPa)
#
#
# Indices 1 2 3 4 5 6 
#
# 1 0.079766 0.077096 -0.034633 0.000000 -0.009412 0.000000
# 2 0.077096 0.108915 -0.044060 0.000000 -0.000399 0.000000
# 3 -0.034633 -0.044060 0.022717 0.000000 0.002087 0.000000
# 4 0.000000 0.000000 0.000000 0.033296 0.000000 -0.000437
# 5 -0.009412 -0.000399 0.002087 0.000000 0.037488 0.000000
# 6 0.000000 0.000000 0.000000 -0.000437 0.000000 0.036706
#
#
# Mechanical properties :
#
#
# Convention : Reuss Voigt Hill
#
# Bulk Modulus (GPa) = 4.80301 53.86948 29.33624
# Shear Modulus (GPa) = 12.77197 33.89773 23.33485
#
# Velocity S-wave (km/s) = 2.39745 3.90576 3.24058
# Velocity P-wave (km/s) = 3.13451 6.67704 5.21575
#
# Compressibility (1/GPa) = 0.20820290
#
# Stress axis : x y z
#
# Youngs Moduli (GPa) = 12.53665 9.18150 44.02066
#
# Poissons Ratio (x) = -0.70786 1.52458
# Poissons Ratio (y) = -0.96652 1.93955
# Poissons Ratio (z) = 0.43419 0.40454
#
# Static dielectric constant tensor:
#      x y z
#    x 1.873340 0.000000 -0.026390 
#    y 0.000000 1.810910 0.000000 
#    z -0.026390 0.000000 1.902560 
# 
# From -- ./inp_files/76342.got.cif
#   From: 2010.05.17/outbox.cif.g08.bks.cpg/sg15_39_cif.got.tgz:76342.got - 2010.06.03 18:47:42.
