data_PCOD9282594
_publ_section_title
;
Structure prediction by ZEFSAII (Michael W. Deem and Ramdas Pophale) SiO2 
 PCOD9282594
Probable space group: C 2/C
;
_chemical_formula_sum "Si O2"
_cell_formula_units_Z 48
_cell_length_a 14.169935
_cell_length_b 31.371585
_cell_length_c 15.034080
_cell_angle_alpha 90.000000
_cell_angle_beta 160.249610
_cell_angle_gamma 90.000000
_cell_volume 2258.390760
_symmetry_space_group_name_H-M "C 2/C"
_symmetry_group_IT_number 15
_symmetry_cell_setting 'monoclinic'
loop_
_space_group_symop_operation_xyz
x,y,z
-x,y,1/2-z
-x,-y,-z
x,-y,1/2+z
1/2+x,1/2+y,z
1/2-x,1/2+y,1/2-z
1/2-x,1/2-y,-z
1/2+x,1/2-y,1/2+z
loop_
_atom_site_type_symbol
_atom_site_label
_atom_site_fract_x
_atom_site_fract_y
_atom_site_fract_z
Si Si1 0.884293 0.936320 0.468309
Si Si2 0.464812 0.107341 0.115509
Si Si3 0.500000 0.390813 0.750000
Si Si4 0.423797 0.636549 0.878094
Si Si5 0.287458 0.778212 0.228457
Si Si6 0.000000 0.669772 0.750000
Si Si7 0.628135 0.017938 0.204298
O O1 0.773304 0.895308 0.315802
O O2 0.019740 0.919274 0.678673
O O3 0.092907 0.957935 0.581882
O O4 0.681449 0.975799 0.309362
O O5 0.500000 0.117414 0.250000
O O6 0.456789 0.055988 0.096573
O O7 0.746802 0.126853 0.321825
O O8 0.199093 0.124947 0.827188
O O9 0.232782 0.360562 0.500223
O O10 0.350695 0.684684 0.835984
O O11 0.570443 0.759955 0.521037
O O12 0.357813 0.800230 0.196980
O O13 0.500000 0.000000 0.000000
#
# Coordination Sequence:
#
# PCOD9282594 Si02
#       7
#     8   8   4   8   8   4   8
#     4  10  23  40  59  93 130 182 220 270 317 384
#     4  11  24  42  69  97 130 173 227 276 335 389
#     4  12  26  39  66  96 138 184 222 258 322 395
#     4  11  23  44  69  92 134 172 219 271 335 397
#     4  12  25  44  71 101 134 173 216 267 332 406
#     4  12  26  43  66 102 142 174 220 264 326 389
#     4  10  21  39  63  90 132 174 224 278 322 371
#
# _framework density 21.254072000000001
#
# number of rings (size 3 to 8) (size 9 to 14) (size 15 to 20)
#    0.000    1.000    3.333    3.000    7.000    1.333 
#    0.000    0.000    0.000   10.000    0.000    0.000 
#    0.000    0.000    0.000    0.000    0.000    0.000 
#
# Total GULP energy -134146.802244 kJ/mol
# GULP energy per Si atom -5589.450093 kJ/mol
# Density = 2.120570 g / cm^3
# Si number density = 21.254072 Si / 1000 Ang^3
#
#
#
# Elastic Constant Matrix: (Units=GPa)
#
#
# Indices 1 2 3 4 5 6 
#
# 1 44.5156 14.9740 -4.3473 0.0036 -17.7073 0.0028
# 2 14.9740 90.1778 6.8558 0.0024 -4.4563 0.0005
# 3 -4.3473 6.8558 78.7662 0.0046 -9.2678 0.0063
# 4 0.0036 0.0024 0.0046 35.5705 -0.0016 -10.4869
# 5 -17.7073 -4.4563 -9.2678 -0.0016 35.2767 0.0028
# 6 0.0028 0.0005 0.0063 -10.4869 0.0028 16.5228
#
#
#
# Elastic Compliance Matrix: (Units=1/GPa)
#
#
# Indices 1 2 3 4 5 6 
#
# 1 0.030721 -0.004618 0.003966 -0.000007 0.015879 -0.000013
# 2 -0.004618 0.011906 -0.001431 0.000000 -0.001190 0.000001
# 3 0.003966 -0.001431 0.013675 -0.000005 0.005403 -0.000010
# 4 -0.000007 0.000000 -0.000005 0.034585 -0.000005 0.021951
# 5 0.015879 -0.001190 0.005403 -0.000005 0.037587 -0.000014
# 6 -0.000013 0.000001 -0.000010 0.021951 -0.000014 0.074454
#
#
# Mechanical properties :
#
#
# Convention : Reuss Voigt Hill
#
# Bulk Modulus (GPa) = 19.18079 27.60272 23.39175
# Shear Modulus (GPa) = 22.27439 30.53914 26.40676
#
# Velocity S-wave (km/s) = 3.24080 3.79471 3.52864
# Velocity P-wave (km/s) = 4.80082 5.67582 5.25656
#
# Compressibility (1/GPa) = 0.05213550
#
# Stress axis : x y z
#
# Youngs Moduli (GPa) = 32.55086 83.99107 73.12642
#
# Poissons Ratio (x) = 0.38787 -0.29001
# Poissons Ratio (y) = 0.15032 0.10466
# Poissons Ratio (z) = -0.12909 0.12021
#
# Static dielectric constant tensor:
#      x y z
#    x -0.360100 0.000980 -3.265140 
#    y 0.000980 1.792270 0.001500 
#    z -3.265140 0.001500 -3.293640 
# 
# From -- ./inp_files/157761.got.cif
#   From: 2010.05.17/outbox.cif.g08.bks.cpg/sg15_79_cif.got.tgz:157761.got - 2010.06.03 18:47:42.
