data_PCOD9282471
_publ_section_title
;
Structure prediction by ZEFSAII (Michael W. Deem and Ramdas Pophale) SiO2 
 PCOD9282471
Probable space group: C 2/C
;
_chemical_formula_sum "Si O2"
_cell_formula_units_Z 56
_cell_length_a 18.057139
_cell_length_b 8.509478
_cell_length_c 25.889905
_cell_angle_alpha 90.000000
_cell_angle_beta 135.230066
_cell_angle_gamma 90.000000
_cell_volume 2801.666445
_symmetry_space_group_name_H-M "C 2/C"
_symmetry_group_IT_number 15
_symmetry_cell_setting 'monoclinic'
loop_
_space_group_symop_operation_xyz
x,y,z
-x,y,1/2-z
-x,-y,-z
x,-y,1/2+z
1/2+x,1/2+y,z
1/2-x,1/2+y,1/2-z
1/2-x,1/2-y,-z
1/2+x,1/2-y,1/2+z
loop_
_atom_site_type_symbol
_atom_site_label
_atom_site_fract_x
_atom_site_fract_y
_atom_site_fract_z
Si Si1 0.193105 0.712192 0.843246
Si Si2 0.622736 0.485344 0.551442
Si Si3 0.394139 0.136067 0.590378
Si Si4 0.669521 0.492196 0.960466
Si Si5 0.370053 0.946440 0.295239
Si Si6 0.758062 0.267769 0.691641
Si Si7 0.880325 0.942791 0.175117
O O1 0.310843 0.646697 0.909076
O O2 0.125979 0.640707 0.857695
O O3 0.149357 0.651412 0.767354
O O4 0.183747 0.898166 0.844229
O O5 0.500000 0.500000 0.500000
O O6 0.644416 0.433086 0.503236
O O7 0.673541 0.370648 0.618633
O O8 0.385375 0.318922 0.568702
O O9 0.293805 0.044510 0.518008
O O10 0.506183 0.063979 0.632402
O O11 0.630626 0.585674 0.891364
O O12 0.301642 0.863880 0.305415
O O13 0.325058 0.118971 0.261978
O O14 0.834932 0.194863 0.687267
O O15 0.000000 0.973731 0.250000
#
# Coordination Sequence:
#
# PCOD9282471 Si02
#       7
#     8   8   8   8   8   8   8
#     4   9  19  35  62  91 119 158 205 239 293 371
#     4  10  21  39  62  91 127 164 199 248 304 361
#     4   9  17  34  63  90 112 153 198 243 295 357
#     4   9  19  36  60  89 119 153 200 244 295 363
#     4  11  21  39  60  85 122 157 199 256 306 354
#     4  11  26  39  58  88 119 160 209 251 303 372
#     4  11  23  40  60  88 123 159 204 256 303 355
#
# _framework density 19.988102999999999
#
# number of rings (size 3 to 8) (size 9 to 14) (size 15 to 20)
#    0.000    2.000    0.000    4.714    0.000    6.286 
#    0.000    5.714    0.000    0.000    0.000    0.000 
#    0.000    0.000    0.000    0.000    0.000    0.000 
#
# Total GULP energy -156482.336864 kJ/mol
# GULP energy per Si atom -5588.654888 kJ/mol
# Density = 1.994261 g / cm^3
# Si number density = 19.988103 Si / 1000 Ang^3
#
#
#
# Elastic Constant Matrix: (Units=GPa)
#
#
# Indices 1 2 3 4 5 6 
#
# 1 68.6613 31.7764 55.2226 0.0000 18.3969 0.0000
# 2 31.7764 57.0803 35.3499 0.0000 20.3675 0.0000
# 3 55.2226 35.3499 113.4298 0.0000 10.3931 0.0000
# 4 0.0000 0.0000 0.0000 11.3482 0.0000 -6.9452
# 5 18.3969 20.3675 10.3931 0.0000 35.9290 0.0000
# 6 0.0000 0.0000 0.0000 -6.9452 0.0000 28.2219
#
#
#
# Elastic Compliance Matrix: (Units=1/GPa)
#
#
# Indices 1 2 3 4 5 6 
#
# 1 0.028590 -0.006097 -0.011293 0.000000 -0.007916 0.000000
# 2 -0.006097 0.027843 -0.004672 0.000000 -0.011310 0.000000
# 3 -0.011293 -0.004672 0.015406 0.000000 0.003975 0.000000
# 4 0.000000 0.000000 0.000000 0.103745 0.000000 0.025531
# 5 -0.007916 -0.011310 0.003975 0.000000 0.037147 0.000000
# 6 0.000000 0.000000 0.000000 0.025531 0.000000 0.041716
#
#
# Mechanical properties :
#
#
# Convention : Reuss Voigt Hill
#
# Bulk Modulus (GPa) = 36.08463 53.76324 44.92393
# Shear Modulus (GPa) = 16.24372 22.88800 19.56586
#
# Velocity S-wave (km/s) = 2.85383 3.38758 3.13209
# Velocity P-wave (km/s) = 5.38065 6.50053 5.96692
#
# Compressibility (1/GPa) = 0.02771263
#
# Stress axis : x y z
#
# Youngs Moduli (GPa) = 34.97730 35.91596 64.90965
#
# Poissons Ratio (x) = 0.21900 0.73305
# Poissons Ratio (y) = 0.21327 0.30328
# Poissons Ratio (z) = 0.39501 0.16781
#
# Static dielectric constant tensor:
#      x y z
#    x 1.684010 0.000000 -0.027580 
#    y 0.000000 1.714490 0.000000 
#    z -0.027580 0.000000 1.705270 
# 
# From -- ./inp_files/298554.got.cif
#   From: 2010.05.17/outbox.cif.g08.bks.cpg/sg15_150_cif.got.tgz:298554.got - 2010.06.03 18:47:42.
