data_PCOD9282225
_publ_section_title
;
Structure prediction by ZEFSAII (Michael W. Deem and Ramdas Pophale) SiO2 
 PCOD9282225
Probable space group: C 2/C
;
_chemical_formula_sum "Si O2"
_cell_formula_units_Z 48
_cell_length_a 14.118603
_cell_length_b 7.471493
_cell_length_c 22.014774
_cell_angle_alpha 90.000000
_cell_angle_beta 99.302772
_cell_angle_gamma 90.000000
_cell_volume 2291.730642
_symmetry_space_group_name_H-M "C 2/C"
_symmetry_group_IT_number 15
_symmetry_cell_setting 'monoclinic'
loop_
_space_group_symop_operation_xyz
x,y,z
-x,y,1/2-z
-x,-y,-z
x,-y,1/2+z
1/2+x,1/2+y,z
1/2-x,1/2+y,1/2-z
1/2-x,1/2-y,-z
1/2+x,1/2-y,1/2+z
loop_
_atom_site_type_symbol
_atom_site_label
_atom_site_fract_x
_atom_site_fract_y
_atom_site_fract_z
Si Si1 0.219943 0.951665 0.386847
Si Si2 0.609529 0.544322 0.993004
Si Si3 0.724385 0.531003 0.119063
Si Si4 0.933719 0.781146 0.832827
Si Si5 0.854537 0.241650 0.197868
Si Si6 0.412005 0.918974 0.455499
O O1 0.136090 0.991881 0.426583
O O2 0.235607 0.737316 0.379946
O O3 0.316582 0.025938 0.429020
O O4 0.202031 0.058983 0.323352
O O5 0.500000 0.500000 0.000000
O O6 0.686615 0.468455 0.049154
O O7 0.620947 0.755582 0.005635
O O8 0.626010 0.548640 0.148382
O O9 0.800877 0.399871 0.156690
O O10 0.868591 0.713392 0.770006
O O11 0.942880 0.656912 0.893041
O O12 0.039252 0.796904 0.816936
O O13 0.500000 0.000000 0.500000
#
# Coordination Sequence:
#
# PCOD9282225 Si02
#       6
#     8   8   8   8   8   8
#     4  10  22  40  62  97 123 171 215 261 335 394
#     4  10  21  39  59  93 130 159 214 273 320 388
#     4  10  23  40  64  91 128 171 212 275 316 399
#     4   9  23  43  60  99 128 163 228 271 315 411
#     4  11  23  42  68  88 133 173 212 272 333 389
#     4  10  22  38  64  94 129 164 215 280 323 392
#
# _framework density 20.944870999999999
#
# number of rings (size 3 to 8) (size 9 to 14) (size 15 to 20)
#    0.000    2.333    0.000    4.000   11.667    0.667 
#    0.000    3.333    0.000    0.000    0.000    0.000 
#    0.000    0.000    0.000    0.000    0.000    0.000 
#
# Total GULP energy -133753.247399 kJ/mol
# GULP energy per Si atom -5573.051975 kJ/mol
# Density = 2.089720 g / cm^3
# Si number density = 20.944871 Si / 1000 Ang^3
#
#
#
# Elastic Constant Matrix: (Units=GPa)
#
#
# Indices 1 2 3 4 5 6 
#
# 1 84.8383 10.0231 19.4516 0.0000 6.6389 0.0000
# 2 10.0231 65.1534 32.4876 0.0000 19.2977 0.0000
# 3 19.4516 32.4876 139.2612 0.0000 24.5155 0.0000
# 4 0.0000 0.0000 0.0000 15.7795 0.0000 2.8667
# 5 6.6389 19.2977 24.5155 0.0000 41.0096 0.0000
# 6 0.0000 0.0000 0.0000 2.8667 0.0000 15.4245
#
#
#
# Elastic Compliance Matrix: (Units=1/GPa)
#
#
# Indices 1 2 3 4 5 6 
#
# 1 0.012272 -0.001003 -0.001356 0.000000 -0.000704 0.000000
# 2 -0.001003 0.019112 -0.003089 0.000000 -0.006984 0.000000
# 3 -0.001356 -0.003089 0.008713 0.000000 -0.003536 0.000000
# 4 0.000000 0.000000 0.000000 0.065588 0.000000 -0.012190
# 5 -0.000704 -0.006984 -0.003536 0.000000 0.029899 0.000000
# 6 0.000000 0.000000 0.000000 -0.012190 0.000000 0.067097
#
#
# Mechanical properties :
#
#
# Convention : Reuss Voigt Hill
#
# Bulk Modulus (GPa) = 34.24635 45.90862 40.07748
# Shear Modulus (GPa) = 22.39039 29.59543 25.99291
#
# Velocity S-wave (km/s) = 3.27313 3.76309 3.52663
# Velocity P-wave (km/s) = 5.53811 6.39120 5.97989
#
# Compressibility (1/GPa) = 0.02920019
#
# Stress axis : x y z
#
# Youngs Moduli (GPa) = 81.48860 52.32430 114.76881
#
# Poissons Ratio (x) = 0.05249 0.15564
# Poissons Ratio (y) = 0.08175 0.35450
# Poissons Ratio (z) = 0.11051 0.16162
#
# Static dielectric constant tensor:
#      x y z
#    x 1.815250 0.000000 0.001000 
#    y 0.000000 1.782420 0.000000 
#    z 0.001000 0.000000 1.785730 
# 
# From -- ./inp_files/242597.got.cif
#   From: 2010.05.17/outbox.cif.g08.bks.cpg/sg15_122_cif.got.tgz:242597.got - 2010.06.03 18:47:42.
