data_PCOD9282786
_publ_section_title
;
Structure prediction by ZEFSAII (Michael W. Deem and Ramdas Pophale) SiO2 
 PCOD9282786
Probable space group: C 2/C
;
_chemical_formula_sum "Si O2"
_cell_formula_units_Z 40
_cell_length_a 24.445545
_cell_length_b 12.368404
_cell_length_c 10.070836
_cell_angle_alpha 90.000000
_cell_angle_beta 143.634830
_cell_angle_gamma 90.000000
_cell_volume 1805.435412
_symmetry_space_group_name_H-M "C 2/C"
_symmetry_group_IT_number 15
_symmetry_cell_setting 'monoclinic'
loop_
_space_group_symop_operation_xyz
x,y,z
-x,y,1/2-z
-x,-y,-z
x,-y,1/2+z
1/2+x,1/2+y,z
1/2-x,1/2+y,1/2-z
1/2-x,1/2-y,-z
1/2+x,1/2-y,1/2+z
loop_
_atom_site_type_symbol
_atom_site_label
_atom_site_fract_x
_atom_site_fract_y
_atom_site_fract_z
Si Si1 0.253236 0.379732 0.104781
Si Si2 0.033208 0.596669 0.467139
Si Si3 0.939856 0.979839 0.751697
Si Si4 0.398101 0.711084 0.719540
Si Si5 0.261716 0.041553 0.648958
O O1 0.353265 0.330736 0.270058
O O2 0.247666 0.466353 0.210383
O O3 0.182108 0.285524 0.997996
O O4 0.224327 0.433844 0.909680
O O5 0.143909 0.605550 0.691804
O O6 0.000000 0.571712 0.250000
O O7 0.000000 0.500000 0.500000
O O8 0.984581 0.710603 0.405587
O O9 0.913276 0.104147 0.663167
O O10 0.000000 0.933283 0.750000
O O11 0.842527 0.921196 0.592331
O O12 0.000000 0.000000 0.000000
#
# Coordination Sequence:
#
# PCOD9282786 Si02
#       5
#     8   8   8   8   8
#     4  10  21  39  70  94 137 171 222 268 336 404
#     4  12  22  39  64  99 135 172 217 275 336 398
#     4  11  24  42  68  89 130 182 229 275 331 398
#     4  10  21  39  64  95 129 180 220 260 334 404
#     4  11  21  41  68  98 127 175 223 271 334 397
#
# _framework density 22.155321000000001
#
# number of rings (size 3 to 8) (size 9 to 14) (size 15 to 20)
#    0.000    1.200    4.000    3.000    0.000    0.000 
#    0.000    4.000    8.800    0.000    0.000    0.000 
#    0.000    0.000    0.000    0.000    0.000    0.000 
#
# Total GULP energy -111454.302357 kJ/mol
# GULP energy per Si atom -5572.715118 kJ/mol
# Density = 2.210489 g / cm^3
# Si number density = 22.155321 Si / 1000 Ang^3
#
#
#
# Elastic Constant Matrix: (Units=GPa)
#
#
# Indices 1 2 3 4 5 6 
#
# 1 133.4959 28.1938 62.9927 0.0000 29.4322 0.0000
# 2 28.1938 62.6061 23.4552 0.0000 -2.0411 0.0000
# 3 62.9927 23.4552 115.1742 0.0000 27.2456 0.0000
# 4 0.0000 0.0000 0.0000 27.6572 0.0000 15.3336
# 5 29.4322 -2.0411 27.2456 0.0000 60.1797 0.0000
# 6 0.0000 0.0000 0.0000 15.3336 0.0000 29.3217
#
#
#
# Elastic Compliance Matrix: (Units=1/GPa)
#
#
# Indices 1 2 3 4 5 6 
#
# 1 0.011140 -0.003419 -0.004570 0.000000 -0.003495 0.000000
# 2 -0.003419 0.018668 -0.002774 0.000000 0.003561 0.000000
# 3 -0.004570 -0.002774 0.012589 0.000000 -0.003559 0.000000
# 4 0.000000 0.000000 0.000000 0.050920 0.000000 -0.026628
# 5 -0.003495 0.003561 -0.003559 0.000000 0.020058 0.000000
# 6 0.000000 0.000000 0.000000 -0.026628 0.000000 0.048030
#
#
# Mechanical properties :
#
#
# Convention : Reuss Voigt Hill
#
# Bulk Modulus (GPa) = 47.91346 60.06216 53.98781
# Shear Modulus (GPa) = 26.33149 36.54069 31.43609
#
# Velocity S-wave (km/s) = 3.45120 4.06556 3.77091
# Velocity P-wave (km/s) = 6.12814 7.01476 6.58638
#
# Compressibility (1/GPa) = 0.02087096
#
# Stress axis : x y z
#
# Youngs Moduli (GPa) = 89.76866 53.56789 79.43672
#
# Poissons Ratio (x) = 0.18313 0.36300
# Poissons Ratio (y) = 0.30688 0.22039
# Poissons Ratio (z) = 0.41021 0.14862
#
# Static dielectric constant tensor:
#      x y z
#    x 1.871750 0.000000 0.059440 
#    y 0.000000 1.830910 0.000000 
#    z 0.059440 0.000000 1.879350 
# 
# From -- ./inp_files/61738.got.cif
#   From: 2010.05.17/outbox.cif.g08.bks.cpg/sg15_31_cif.got.tgz:61738.got - 2010.06.03 18:47:42.
