data_PCOD9282971
_publ_section_title
;
Structure prediction by ZEFSAII (Michael W. Deem and Ramdas Pophale) SiO2 
 PCOD9282971
Probable space group: C 2/C
;
_chemical_formula_sum "Si O2"
_cell_formula_units_Z 36
_cell_length_a 5.134872
_cell_length_b 26.065907
_cell_length_c 12.018874
_cell_angle_alpha 90.000000
_cell_angle_beta 78.757116
_cell_angle_gamma 90.000000
_cell_volume 1577.796218
_symmetry_space_group_name_H-M "C 2/C"
_symmetry_group_IT_number 15
_symmetry_cell_setting 'monoclinic'
loop_
_space_group_symop_operation_xyz
x,y,z
-x,y,1/2-z
-x,-y,-z
x,-y,1/2+z
1/2+x,1/2+y,z
1/2-x,1/2+y,1/2-z
1/2-x,1/2-y,-z
1/2+x,1/2-y,1/2+z
loop_
_atom_site_type_symbol
_atom_site_label
_atom_site_fract_x
_atom_site_fract_y
_atom_site_fract_z
Si Si1 0.500000 0.248102 0.250000
Si Si2 0.329591 0.988189 0.856720
Si Si3 0.262256 0.302524 0.929637
Si Si4 0.313070 0.555205 0.902379
Si Si5 0.797199 0.832461 0.443236
O O1 0.298802 0.213601 0.192771
O O2 0.355244 0.285156 0.353163
O O3 0.500000 0.958679 0.750000
O O4 0.547810 0.030603 0.874287
O O5 0.066409 0.020433 0.853186
O O6 0.240002 0.950996 0.961662
O O7 0.250000 0.250000 0.000000
O O8 0.526631 0.327469 0.959022
O O9 0.007908 0.333698 0.994544
O O10 0.359262 0.614496 0.876538
#
# Coordination Sequence:
#
# PCOD9282971 Si02
#       5
#     4   8   8   8   8
#     4  10  22  38  64  86 120 168 204 252 314 358
#     4  10  21  39  66  87 134 162 198 249 326 370
#     4  10  22  40  59  85 126 161 198 259 312 357
#     4  10  22  40  61  98 124 162 204 264 298 373
#     4  11  23  39  62  92 124 156 216 255 296 381
#
# _framework density 22.816634000000001
#
# number of rings (size 3 to 8) (size 9 to 14) (size 15 to 20)
#    0.000    1.778    0.000    4.667    3.111    8.000 
#    2.000    0.000    9.778    0.000    0.000    0.000 
#    0.000    0.000    0.000    0.000    0.000    0.000 
#
# Total GULP energy -100466.061950 kJ/mol
# GULP energy per Si atom -5581.447886 kJ/mol
# Density = 2.276470 g / cm^3
# Si number density = 22.816634 Si / 1000 Ang^3
#
#
#
# Elastic Constant Matrix: (Units=GPa)
#
#
# Indices 1 2 3 4 5 6 
#
# 1 113.1189 9.3326 31.5613 0.0000 2.8117 0.0000
# 2 9.3326 47.0532 10.1196 0.0000 4.0695 0.0000
# 3 31.5613 10.1196 121.2166 0.0000 -11.0157 0.0000
# 4 0.0000 0.0000 0.0000 -39.5510 0.0000 -13.1488
# 5 2.8117 4.0695 -11.0157 0.0000 39.1924 0.0000
# 6 0.0000 0.0000 0.0000 -13.1488 0.0000 45.0312
#
#
#
# Elastic Compliance Matrix: (Units=1/GPa)
#
#
# Indices 1 2 3 4 5 6 
#
# 1 0.009683 -0.001266 -0.002531 0.000000 -0.001275 0.000000
# 2 -0.001266 0.022116 -0.001762 0.000000 -0.002701 0.000000
# 3 -0.002531 -0.001762 0.009327 0.000000 0.002986 0.000000
# 4 0.000000 0.000000 0.000000 -0.023047 0.000000 -0.006729
# 5 -0.001275 -0.002701 0.002986 0.000000 0.026726 0.000000
# 6 0.000000 0.000000 0.000000 -0.006729 0.000000 0.020242
#
#
# Mechanical properties :
#
#
# Convention : Reuss Voigt Hill
#
# Bulk Modulus (GPa) = 33.32500 42.60175 37.96337
# Shear Modulus (GPa) = 58.02570 24.29287 41.15928
#
# Velocity S-wave (km/s) = 5.04842 3.26651 4.25186
# Velocity P-wave (km/s) = 6.97275 5.73923 6.38584
#
# Compressibility (1/GPa) = 0.03000750
#
# Stress axis : x y z
#
# Youngs Moduli (GPa) = 103.27795 45.21574 107.21284
#
# Poissons Ratio (x) = 0.05724 0.27138
# Poissons Ratio (y) = 0.13073 0.18893
# Poissons Ratio (z) = 0.26142 0.07968
#
# Static dielectric constant tensor:
#      x y z
#    x 2.319050 0.000000 -1.291530 
#    y 0.000000 1.818210 0.000000 
#    z -1.291530 0.000000 5.768910 
# 
# From -- ./inp_files/73003.got.cif
#   From: 2010.05.17/outbox.cif.g08.bks.cpg/sg15_37_cif.got.tgz:73003.got - 2010.06.03 18:47:42.
