data_PCOD9282353
_publ_section_title
;
Structure prediction by ZEFSAII (Michael W. Deem and Ramdas Pophale) SiO2 
 PCOD9282353
Probable space group: C 2/C
;
_chemical_formula_sum "Si O2"
_cell_formula_units_Z 48
_cell_length_a 25.709702
_cell_length_b 11.118254
_cell_length_c 8.668090
_cell_angle_alpha 90.000000
_cell_angle_beta 95.160029
_cell_angle_gamma 90.000000
_cell_volume 2467.706138
_symmetry_space_group_name_H-M "C 2/C"
_symmetry_group_IT_number 15
_symmetry_cell_setting 'monoclinic'
loop_
_space_group_symop_operation_xyz
x,y,z
-x,y,1/2-z
-x,-y,-z
x,-y,1/2+z
1/2+x,1/2+y,z
1/2-x,1/2+y,1/2-z
1/2-x,1/2-y,-z
1/2+x,1/2-y,1/2+z
loop_
_atom_site_type_symbol
_atom_site_label
_atom_site_fract_x
_atom_site_fract_y
_atom_site_fract_z
Si Si1 0.059361 0.750300 0.251097
Si Si2 0.319677 0.385574 0.730755
Si Si3 0.627887 0.186569 0.541923
Si Si4 0.539445 0.022748 0.649014
Si Si5 0.782134 0.315598 0.645187
Si Si6 0.652680 0.636578 0.620328
O O1 0.091295 0.765688 0.418540
O O2 0.055354 0.606405 0.222313
O O3 0.094865 0.808065 0.127503
O O4 0.000000 0.794795 0.250000
O O5 0.343831 0.271336 0.826906
O O6 0.258949 0.392571 0.767906
O O7 0.346147 0.505898 0.801495
O O8 0.328485 0.372138 0.550904
O O9 0.590535 0.092604 0.614219
O O10 0.670324 0.125656 0.438271
O O11 0.500000 0.094021 0.750000
O O12 0.500000 0.000000 0.500000
O O13 0.750000 0.250000 0.500000
O O14 0.808602 0.221052 0.769150
#
# Coordination Sequence:
#
# PCOD9282353 Si02
#       6
#     8   8   8   8   8   8
#     4  10  21  40  61  88 126 161 202 255 305 360
#     4  11  23  42  64  89 124 161 203 257 302 364
#     4  10  21  39  61  90 123 162 203 253 306 361
#     4  11  21  38  62  90 127 162 199 257 305 356
#     4   9  20  42  62  89 121 157 200 250 299 361
#     4  11  23  42  64  91 121 162 204 249 309 362
#
# _framework density 19.451263999999998
#
# number of rings (size 3 to 8) (size 9 to 14) (size 15 to 20)
#    0.000    1.667    3.333    3.500    2.333    0.000 
#   21.000    4.167    0.000    0.000    0.000    0.000 
#    0.000    0.000    0.000    0.000    0.000    0.000 
#
# Total GULP energy -133837.303181 kJ/mol
# GULP energy per Si atom -5576.554299 kJ/mol
# Density = 1.940699 g / cm^3
# Si number density = 19.451264 Si / 1000 Ang^3
#
#
#
# Elastic Constant Matrix: (Units=GPa)
#
#
# Indices 1 2 3 4 5 6 
#
# 1 152.9787 33.8693 49.5190 0.0000 -38.7591 0.0000
# 2 33.8693 56.0850 17.9827 0.0000 -22.7115 0.0000
# 3 49.5190 17.9827 128.7033 0.0000 -24.1767 0.0000
# 4 0.0000 0.0000 0.0000 15.9842 0.0000 -2.1020
# 5 -38.7591 -22.7115 -24.1767 0.0000 45.5440 0.0000
# 6 0.0000 0.0000 0.0000 -2.1020 0.0000 30.4267
#
#
#
# Elastic Compliance Matrix: (Units=1/GPa)
#
#
# Indices 1 2 3 4 5 6 
#
# 1 0.009181 -0.002697 -0.002155 0.000000 0.005324 0.000000
# 2 -0.002697 0.023286 -0.000517 0.000000 0.009042 0.000000
# 3 -0.002155 -0.000517 0.009195 0.000000 0.002789 0.000000
# 4 0.000000 0.000000 0.000000 0.063136 0.000000 0.004362
# 5 0.005324 0.009042 0.002789 0.000000 0.032477 0.000000
# 6 0.000000 0.000000 0.000000 0.004362 0.000000 0.033167
#
#
# Mechanical properties :
#
#
# Convention : Reuss Voigt Hill
#
# Bulk Modulus (GPa) = 32.33884 60.05657 46.19770
# Shear Modulus (GPa) = 26.11116 34.15071 30.13093
#
# Velocity S-wave (km/s) = 3.66784 4.19466 3.94006
# Velocity P-wave (km/s) = 5.88209 7.37582 6.67090
#
# Compressibility (1/GPa) = 0.03092257
#
# Stress axis : x y z
#
# Youngs Moduli (GPa) = 108.92640 42.94357 108.75156
#
# Poissons Ratio (x) = 0.11583 0.23440
# Poissons Ratio (y) = 0.29379 0.05626
# Poissons Ratio (z) = 0.23477 0.02222
#
# Static dielectric constant tensor:
#      x y z
#    x 1.722260 0.000000 -0.020250 
#    y 0.000000 1.669270 0.000000 
#    z -0.020250 0.000000 1.744650 
# 
# From -- ./inp_files/60614.got.cif
#   From: 2010.05.17/outbox.cif.g08.bks.cpg/sg15_31_cif.got.tgz:60614.got - 2010.06.03 18:47:42.
