data_PCOD9282373
_publ_section_title
;
Structure prediction by ZEFSAII (Michael W. Deem and Ramdas Pophale) SiO2 
 PCOD9282373
Probable space group: C 2/C
;
_chemical_formula_sum "Si O2"
_cell_formula_units_Z 44
_cell_length_a 10.350788
_cell_length_b 9.852086
_cell_length_c 19.825156
_cell_angle_alpha 90.000000
_cell_angle_beta 119.620427
_cell_angle_gamma 90.000000
_cell_volume 1757.507878
_symmetry_space_group_name_H-M "C 2/C"
_symmetry_group_IT_number 15
_symmetry_cell_setting 'monoclinic'
loop_
_space_group_symop_operation_xyz
x,y,z
-x,y,1/2-z
-x,-y,-z
x,-y,1/2+z
1/2+x,1/2+y,z
1/2-x,1/2+y,1/2-z
1/2-x,1/2-y,-z
1/2+x,1/2-y,1/2+z
loop_
_atom_site_type_symbol
_atom_site_label
_atom_site_fract_x
_atom_site_fract_y
_atom_site_fract_z
Si Si1 0.826127 0.992220 0.785529
Si Si2 0.353222 0.862823 0.467511
Si Si3 0.617739 0.820931 0.829498
Si Si4 0.000000 0.781609 0.750000
Si Si5 0.040838 0.423696 0.148821
Si Si6 0.065414 0.083885 0.953652
O O1 0.731145 0.911604 0.816194
O O2 0.709045 0.092201 0.720719
O O3 0.964685 0.051334 0.862568
O O4 0.873337 0.884039 0.741529
O O5 0.220321 0.778327 0.396992
O O6 0.448919 0.917827 0.429402
O O7 0.240857 0.951688 0.485132
O O8 0.442429 0.742844 0.527618
O O9 0.500000 0.749342 0.750000
O O10 0.521261 0.930753 0.845702
O O11 0.958919 0.689280 0.674045
O O12 0.000000 0.000000 0.000000
#
# Coordination Sequence:
#
# PCOD9282373 Si02
#       6
#     8   8   8   4   8   8
#     4  11  22  38  62  92 125 162 209 260 314 372
#     4  11  24  42  67  87 128 173 204 262 324 364
#     4  10  21  39  61  92 125 155 207 260 303 373
#     4  12  20  36  64  92 126 162 204 268 316 364
#     4  11  23  41  63  97 127 157 217 266 307 377
#     4  11  23  43  64  91 130 170 213 257 310 387
#
# _framework density 25.035447999999999
#
# number of rings (size 3 to 8) (size 9 to 14) (size 15 to 20)
#    0.000    1.091    6.364    1.091    2.545    0.000 
#    0.000    6.364    0.000    0.000    0.000    0.000 
#    0.000    0.000    0.000    0.000    0.000    0.000 
#
# Total GULP energy -123042.302822 kJ/mol
# GULP energy per Si atom -5592.831946 kJ/mol
# Density = 2.497847 g / cm^3
# Si number density = 25.035448 Si / 1000 Ang^3
#
#
#
# Elastic Constant Matrix: (Units=GPa)
#
#
# Indices 1 2 3 4 5 6 
#
# 1 151.0129 43.4013 30.7008 0.0000 -39.0651 0.0000
# 2 43.4013 49.9912 23.7132 0.0000 -11.3259 0.0000
# 3 30.7008 23.7132 101.0327 0.0000 -6.4767 0.0000
# 4 0.0000 0.0000 0.0000 46.4844 0.0000 -19.5453
# 5 -39.0651 -11.3259 -6.4767 0.0000 59.5949 0.0000
# 6 0.0000 0.0000 0.0000 -19.5453 0.0000 57.4439
#
#
#
# Elastic Compliance Matrix: (Units=1/GPa)
#
#
# Indices 1 2 3 4 5 6 
#
# 1 0.010274 -0.007213 -0.001093 0.000000 0.005245 0.000000
# 2 -0.007213 0.028428 -0.004468 0.000000 0.000189 0.000000
# 3 -0.001093 -0.004468 0.011257 0.000000 -0.000342 0.000000
# 4 0.000000 0.000000 0.000000 0.025104 0.000000 0.008542
# 5 0.005245 0.000189 -0.000342 0.000000 0.020217 0.000000
# 6 0.000000 0.000000 0.000000 0.008542 0.000000 0.020315
#
#
# Mechanical properties :
#
#
# Convention : Reuss Voigt Hill
#
# Bulk Modulus (GPa) = 40.96606 55.29638 48.13122
# Shear Modulus (GPa) = 33.49423 46.31941 39.90682
#
# Velocity S-wave (km/s) = 3.66166 4.30601 3.99684
# Velocity P-wave (km/s) = 5.85455 6.84525 6.36919
#
# Compressibility (1/GPa) = 0.02441045
#
# Stress axis : x y z
#
# Youngs Moduli (GPa) = 97.33341 35.17650 88.83609
#
# Poissons Ratio (x) = 0.25373 0.09708
# Poissons Ratio (y) = 0.70206 0.39696
# Poissons Ratio (z) = 0.10636 0.15718
#
# Static dielectric constant tensor:
#      x y z
#    x 2.064500 0.000000 -0.102330 
#    y 0.000000 2.000780 0.000000 
#    z -0.102330 0.000000 2.076830 
# 
# From -- ./inp_files/263311.got.cif
#   From: 2010.05.17/outbox.cif.g08.bks.cpg/sg15_132_cif.got.tgz:263311.got - 2010.06.03 18:47:42.
