data_PCOD9282884
_publ_section_title
;
Structure prediction by ZEFSAII (Michael W. Deem and Ramdas Pophale) SiO2 
 PCOD9282884
Probable space group: C 2/C
;
_chemical_formula_sum "Si O2"
_cell_formula_units_Z 32
_cell_length_a 31.936659
_cell_length_b 6.396066
_cell_length_c 14.496968
_cell_angle_alpha 90.000000
_cell_angle_beta 149.295857
_cell_angle_gamma 90.000000
_cell_volume 1512.045079
_symmetry_space_group_name_H-M "C 2/C"
_symmetry_group_IT_number 15
_symmetry_cell_setting 'monoclinic'
loop_
_space_group_symop_operation_xyz
x,y,z
-x,y,1/2-z
-x,-y,-z
x,-y,1/2+z
1/2+x,1/2+y,z
1/2-x,1/2+y,1/2-z
1/2-x,1/2-y,-z
1/2+x,1/2-y,1/2+z
loop_
_atom_site_type_symbol
_atom_site_label
_atom_site_fract_x
_atom_site_fract_y
_atom_site_fract_z
Si Si1 0.908493 0.178171 0.669260
Si Si2 0.469307 0.900238 0.345649
Si Si3 0.173358 0.095751 0.355925
Si Si4 0.076674 0.968315 0.000074
O O1 0.926039 0.424153 0.700642
O O2 0.832624 0.107173 0.588878
O O3 0.901827 0.060431 0.559134
O O4 0.995413 0.097759 0.875905
O O5 0.398877 0.739103 0.239923
O O6 0.543929 0.769970 0.440985
O O7 0.500000 0.000000 0.500000
O O8 0.250000 0.250000 0.500000
O O9 0.147797 0.014903 0.206862
#
# Coordination Sequence:
#
# PCOD9282884 Si02
#       4
#     8   8   8   8
#     4  10  21  39  65  93 121 168 224 263 315 383
#     4  11  19  41  69  85 119 174 220 265 315 377
#     4  11  23  41  58  93 137 163 200 267 329 388
#     4  10  21  39  65  95 124 159 225 271 308 386
#
# _framework density 21.16339
#
# number of rings (size 3 to 8) (size 9 to 14) (size 15 to 20)
#    0.000    1.500    5.000    1.500    0.000    9.000 
#    4.500    0.000    0.000    0.000    0.000    0.000 
#    0.000    0.000    0.000    0.000    0.000    0.000 
#
# Total GULP energy -89233.164312 kJ/mol
# GULP energy per Si atom -5577.072770 kJ/mol
# Density = 2.111522 g / cm^3
# Si number density = 21.163390 Si / 1000 Ang^3
#
#
#
# Elastic Constant Matrix: (Units=GPa)
#
#
# Indices 1 2 3 4 5 6 
#
# 1 87.8664 45.8534 66.8564 0.0000 -25.2651 0.0000
# 2 45.8534 120.1369 49.4233 0.0000 -31.4155 0.0000
# 3 66.8564 49.4233 91.0719 0.0000 -15.8040 0.0000
# 4 0.0000 0.0000 0.0000 35.4337 0.0000 1.4299
# 5 -25.2651 -31.4155 -15.8040 0.0000 27.1748 0.0000
# 6 0.0000 0.0000 0.0000 1.4299 0.0000 35.0141
#
#
#
# Elastic Compliance Matrix: (Units=1/GPa)
#
#
# Indices 1 2 3 4 5 6 
#
# 1 0.032255 0.001435 -0.021094 0.000000 0.019379 0.000000
# 2 0.001435 0.013959 -0.006225 0.000000 0.013851 0.000000
# 3 -0.021094 -0.006225 0.028019 0.000000 -0.010513 0.000000
# 4 0.000000 0.000000 0.000000 0.028268 0.000000 -0.001154
# 5 0.019379 0.013851 -0.010513 0.000000 0.064715 0.000000
# 6 0.000000 0.000000 0.000000 -0.001154 0.000000 0.028607
#
#
# Mechanical properties :
#
#
# Convention : Reuss Voigt Hill
#
# Bulk Modulus (GPa) = 44.51457 69.26014 56.88735
# Shear Modulus (GPa) = 19.60172 28.65399 24.12785
#
# Velocity S-wave (km/s) = 3.04667 3.68359 3.38016
# Velocity P-wave (km/s) = 5.78409 7.13367 6.49403
#
# Compressibility (1/GPa) = 0.02246455
#
# Stress axis : x y z
#
# Youngs Moduli (GPa) = 31.00340 71.63732 35.68964
#
# Poissons Ratio (x) = -0.10277 0.75283
# Poissons Ratio (y) = -0.04448 0.22217
# Poissons Ratio (z) = 0.65398 0.44594
#
# Static dielectric constant tensor:
#      x y z
#    x 1.813360 0.000000 -0.030180 
#    y 0.000000 1.890780 0.000000 
#    z -0.030180 0.000000 1.765020 
# 
# From -- ./inp_files/125759.got.cif
#   From: 2010.05.17/outbox.cif.g08.bks.cpg/sg15_63_cif.got.tgz:125759.got - 2010.06.03 18:47:42.
