data_PCOD9282341
_publ_section_title
;
Structure prediction by ZEFSAII (Michael W. Deem and Ramdas Pophale) SiO2 
 PCOD9282341
Probable space group: C 2/C
;
_chemical_formula_sum "Si O2"
_cell_formula_units_Z 40
_cell_length_a 11.918512
_cell_length_b 30.191257
_cell_length_c 7.755392
_cell_angle_alpha 90.000000
_cell_angle_beta 45.146902
_cell_angle_gamma 90.000000
_cell_volume 1978.347768
_symmetry_space_group_name_H-M "C 2/C"
_symmetry_group_IT_number 15
_symmetry_cell_setting 'monoclinic'
loop_
_space_group_symop_operation_xyz
x,y,z
-x,y,1/2-z
-x,-y,-z
x,-y,1/2+z
1/2+x,1/2+y,z
1/2-x,1/2+y,1/2-z
1/2-x,1/2-y,-z
1/2+x,1/2-y,1/2+z
loop_
_atom_site_type_symbol
_atom_site_label
_atom_site_fract_x
_atom_site_fract_y
_atom_site_fract_z
Si Si1 0.171686 0.793732 0.866872
Si Si2 0.378999 0.973011 0.010950
Si Si3 0.314630 0.143769 0.928382
Si Si4 0.814112 0.051015 0.465583
Si Si5 0.294865 0.694730 0.780132
O O1 0.258915 0.817604 0.616481
O O2 0.212411 0.741789 0.829724
O O3 0.225641 0.813657 0.993375
O O4 0.983650 0.799996 0.050114
O O5 0.259647 0.946497 0.261924
O O6 0.500000 0.948294 0.750000
O O7 0.500000 0.000000 0.000000
O O8 0.275404 0.010038 0.025844
O O9 0.500000 0.136175 0.750000
O O10 0.226631 0.098310 0.072331
O O11 0.271478 0.159220 0.781970
O O12 0.000000 0.043336 0.250000
#
# Coordination Sequence:
#
# PCOD9282341 Si02
#       5
#     8   8   8   8   8
#     4  10  21  39  62  86 123 158 206 253 305 368
#     4   9  19  39  63  87 118 157 196 242 302 367
#     4  12  24  39  60  89 124 162 204 255 308 363
#     4  11  22  40  63  91 123 157 205 251 307 369
#     4  10  21  39  61  89 119 162 205 252 308 365
#
# _framework density 20.218893000000001
#
# number of rings (size 3 to 8) (size 9 to 14) (size 15 to 20)
#    0.000    1.600    0.000    6.000    0.000    2.400 
#   10.800    0.000    0.000    0.000    0.000    0.000 
#    0.000    0.000    0.000    0.000    0.000    0.000 
#
# Total GULP energy -111701.835668 kJ/mol
# GULP energy per Si atom -5585.091783 kJ/mol
# Density = 2.017287 g / cm^3
# Si number density = 20.218893 Si / 1000 Ang^3
#
#
#
# Elastic Constant Matrix: (Units=GPa)
#
#
# Indices 1 2 3 4 5 6 
#
# 1 102.5213 30.2459 42.3580 0.0000 -22.9457 0.0000
# 2 30.2459 45.8910 3.4927 0.0000 -4.5415 0.0000
# 3 42.3580 3.4927 103.2667 0.0000 -11.8993 0.0000
# 4 0.0000 0.0000 0.0000 22.1099 0.0000 0.9676
# 5 -22.9457 -4.5415 -11.8993 0.0000 31.4112 0.0000
# 6 0.0000 0.0000 0.0000 0.9676 0.0000 -12.7359
#
#
#
# Elastic Compliance Matrix: (Units=1/GPa)
#
#
# Indices 1 2 3 4 5 6 
#
# 1 0.016963 -0.009878 -0.005605 0.000000 0.008840 0.000000
# 2 -0.009878 0.027875 0.002867 0.000000 -0.002100 0.000000
# 3 -0.005605 0.002867 0.011985 0.000000 0.000860 0.000000
# 4 0.000000 0.000000 0.000000 0.045079 0.000000 0.003425
# 5 0.008840 -0.002100 0.000860 0.000000 0.038315 0.000000
# 6 0.000000 0.000000 0.000000 0.003425 0.000000 -0.078258
#
#
# Mechanical properties :
#
#
# Convention : Reuss Voigt Hill
#
# Bulk Modulus (GPa) = 31.65521 44.87470 38.26495
# Shear Modulus (GPa) = 51.16583 19.86254 35.51418
#
# Velocity S-wave (km/s) = 5.03596 3.13769 4.19559
# Velocity P-wave (km/s) = 7.03596 5.94722 6.51437
#
# Compressibility (1/GPa) = 0.03159037
#
# Stress axis : x y z
#
# Youngs Moduli (GPa) = 58.95324 35.87392 83.43837
#
# Poissons Ratio (x) = 0.35438 0.46768
# Poissons Ratio (y) = 0.58236 -0.23923
# Poissons Ratio (z) = 0.33044 -0.10286
#
# Static dielectric constant tensor:
#      x y z
#    x 1.719340 0.000000 0.043060 
#    y 0.000000 1.726680 0.000000 
#    z 0.043060 0.000000 1.732110 
# 
# From -- ./inp_files/33899.got.cif
#   From: 2010.05.17/outbox.cif.g08.bks.cpg/sg15_17_cif.got.tgz:33899.got - 2010.06.03 18:47:42.
