data_PCOD9282943
_publ_section_title
;
Structure prediction by ZEFSAII (Michael W. Deem and Ramdas Pophale) SiO2 
 PCOD9282943
Probable space group: C 2/C
;
_chemical_formula_sum "Si O2"
_cell_formula_units_Z 60
_cell_length_a 26.004122
_cell_length_b 11.521302
_cell_length_c 19.278361
_cell_angle_alpha 90.000000
_cell_angle_beta 153.067591
_cell_angle_gamma 90.000000
_cell_volume 2616.095865
_symmetry_space_group_name_H-M "C 2/C"
_symmetry_group_IT_number 15
_symmetry_cell_setting 'monoclinic'
loop_
_space_group_symop_operation_xyz
x,y,z
-x,y,1/2-z
-x,-y,-z
x,-y,1/2+z
1/2+x,1/2+y,z
1/2-x,1/2+y,1/2-z
1/2-x,1/2-y,-z
1/2+x,1/2-y,1/2+z
loop_
_atom_site_type_symbol
_atom_site_label
_atom_site_fract_x
_atom_site_fract_y
_atom_site_fract_z
Si Si1 0.680178 0.357533 0.215930
Si Si2 0.372667 0.009908 0.108347
Si Si3 0.157152 0.645621 0.704644
Si Si4 0.294547 0.250050 0.975278
Si Si5 0.000000 0.181244 0.250000
Si Si6 0.770190 0.101254 0.175575
Si Si7 0.957239 0.299993 0.047038
Si Si8 0.298033 0.494509 0.475263
O O1 0.804922 0.346701 0.329103
O O2 0.693478 0.277995 0.300011
O O3 0.662654 0.490577 0.216127
O O4 0.585979 0.308277 0.051195
O O5 0.500000 0.967551 0.250000
O O6 0.316763 0.012864 0.116864
O O7 0.370729 0.134619 0.067564
O O8 0.280185 0.930094 0.959292
O O9 0.169976 0.775935 0.751032
O O10 0.252231 0.561353 0.850036
O O11 0.038106 0.620204 0.596752
O O12 0.346947 0.376026 0.024005
O O13 0.250000 0.250000 0.000000
O O14 0.995649 0.252285 0.170267
O O15 0.110390 0.096344 0.384378
O O16 0.655859 0.123447 0.080880
#
# Coordination Sequence:
#
# PCOD9282943 Si02
#       8
#     8   8   8   8   4   8   8   8
#     4  10  23  46  63  93 135 171 217 275 339 392
#     4  10  21  39  65  98 128 176 221 286 330 383
#     4  11  24  40  65  99 126 180 214 276 337 395
#     4   9  22  45  67  93 133 178 227 279 326 401
#     4  12  24  40  66 100 138 182 220 276 338 402
#     4  10  22  41  63  88 136 166 216 275 330 397
#     4  11  25  41  65 101 129 175 225 268 339 399
#     4  11  23  40  67  96 136 173 228 272 335 404
#
# _framework density 22.934937999999999
#
# number of rings (size 3 to 8) (size 9 to 14) (size 15 to 20)
#    0.000    1.600    2.667    1.600    7.467    2.133 
#    9.600    1.333    0.000    0.000    0.000    0.000 
#    0.000    0.000    0.000    0.000    0.000    0.000 
#
# Total GULP energy -167241.205618 kJ/mol
# GULP energy per Si atom -5574.706854 kJ/mol
# Density = 2.288274 g / cm^3
# Si number density = 22.934938 Si / 1000 Ang^3
#
#
#
# Elastic Constant Matrix: (Units=GPa)
#
#
# Indices 1 2 3 4 5 6 
#
# 1 72.3801 -2.6638 25.2285 0.0000 -4.1880 0.0000
# 2 -2.6638 86.5493 5.8556 0.0000 -21.8767 0.0000
# 3 25.2285 5.8556 55.7305 0.0000 -17.3069 0.0000
# 4 0.0000 0.0000 0.0000 -2.4967 0.0000 5.2547
# 5 -4.1880 -21.8767 -17.3069 0.0000 39.0846 0.0000
# 6 0.0000 0.0000 0.0000 5.2547 0.0000 5.9104
#
#
#
# Elastic Compliance Matrix: (Units=1/GPa)
#
#
# Indices 1 2 3 4 5 6 
#
# 1 0.016548 0.000703 -0.007991 0.000000 -0.001372 0.000000
# 2 0.000703 0.013544 0.000738 0.000000 0.007983 0.000000
# 3 -0.007991 0.000738 0.024749 0.000000 0.010516 0.000000
# 4 0.000000 0.000000 0.000000 -0.139499 0.000000 0.124024
# 5 -0.001372 0.007983 0.010516 0.000000 0.034563 0.000000
# 6 0.000000 0.000000 0.000000 0.124024 0.000000 0.058928
#
#
# Mechanical properties :
#
#
# Convention : Reuss Voigt Hill
#
# Bulk Modulus (GPa) = 23.95765 30.16673 27.06219
# Shear Modulus (GPa) = 139.49059 20.91563 80.20311
#
# Velocity S-wave (km/s) = 7.80719 3.02314 5.91995
# Velocity P-wave (km/s) = 9.57800 5.03662 7.65198
#
# Compressibility (1/GPa) = 0.04174032
#
# Stress axis : x y z
#
# Youngs Moduli (GPa) = 60.43135 73.83565 40.40591
#
# Poissons Ratio (x) = -0.05192 0.32287
# Poissons Ratio (y) = -0.04250 -0.02980
# Poissons Ratio (z) = 0.48289 -0.05446
#
# Static dielectric constant tensor:
#      x y z
#    x 1.925880 0.000000 0.008760 
#    y 0.000000 1.918380 0.000000 
#    z 0.008760 0.000000 1.874610 
# 
# From -- ./inp_files/222569.got.cif
#   From: 2010.05.17/outbox.cif.g08.bks.cpg/sg15_112_cif.got.tgz:222569.got - 2010.06.03 18:47:42.
