data_PCOD9282750
_publ_section_title
;
Structure prediction by ZEFSAII (Michael W. Deem and Ramdas Pophale) SiO2 
 PCOD9282750
Probable space group: C 2/C
;
_chemical_formula_sum "Si O2"
_cell_formula_units_Z 56
_cell_length_a 11.502486
_cell_length_b 35.748072
_cell_length_c 8.432039
_cell_angle_alpha 90.000000
_cell_angle_beta 121.703864
_cell_angle_gamma 90.000000
_cell_volume 2949.796158
_symmetry_space_group_name_H-M "C 2/C"
_symmetry_group_IT_number 15
_symmetry_cell_setting 'monoclinic'
loop_
_space_group_symop_operation_xyz
x,y,z
-x,y,1/2-z
-x,-y,-z
x,-y,1/2+z
1/2+x,1/2+y,z
1/2-x,1/2+y,1/2-z
1/2-x,1/2-y,-z
1/2+x,1/2-y,1/2+z
loop_
_atom_site_type_symbol
_atom_site_label
_atom_site_fract_x
_atom_site_fract_y
_atom_site_fract_z
Si Si1 0.178311 0.035278 0.235734
Si Si2 0.865973 0.955514 0.422579
Si Si3 0.216485 0.686218 0.798335
Si Si4 0.092204 0.324319 0.549971
Si Si5 0.153214 0.118641 0.791223
Si Si6 0.644753 0.100957 0.279492
Si Si7 0.355421 0.248884 0.218234
O O1 0.172271 0.042153 0.419707
O O2 0.285750 0.064257 0.242917
O O3 0.196687 0.991471 0.211238
O O4 0.031580 0.043209 0.047168
O O5 0.827095 0.918260 0.301907
O O6 0.309691 0.653695 0.791796
O O7 0.292776 0.724549 0.808754
O O8 0.066554 0.682424 0.609734
O O9 0.184880 0.681744 0.961019
O O10 0.117684 0.365673 0.635471
O O11 0.127826 0.292911 0.704243
O O12 0.000000 0.120159 0.750000
O O13 0.256119 0.116671 0.012759
O O14 0.500000 0.090886 0.250000
O O15 0.500000 0.262039 0.250000
O O16 0.250000 0.250000 0.000000
#
# Coordination Sequence:
#
# PCOD9282750 Si02
#       7
#     8   8   8   8   8   8   8
#     4  10  21  39  64  92 127 166 209 261 319 376
#     4  10  21  39  64  93 126 163 211 264 318 369
#     4  11  24  43  66  94 131 170 210 262 317 380
#     4  11  24  44  65  93 133 172 206 258 329 375
#     4  12  23  41  65  96 127 165 219 263 313 377
#     4  12  23  42  66  93 130 170 213 259 317 382
#     4  12  23  43  68  97 129 165 216 262 314 377
#
# _framework density 18.984362999999998
#
# number of rings (size 3 to 8) (size 9 to 14) (size 15 to 20)
#    0.000    0.857    4.286    3.857    2.000    0.000 
#    0.000    4.286    0.000    0.000    0.000    0.000 
#    0.000    0.000    0.000    0.000    0.000    0.000 
#
# Total GULP energy -156518.029347 kJ/mol
# GULP energy per Si atom -5589.929620 kJ/mol
# Density = 1.894115 g / cm^3
# Si number density = 18.984363 Si / 1000 Ang^3
#
#
#
# Elastic Constant Matrix: (Units=GPa)
#
#
# Indices 1 2 3 4 5 6 
#
# 1 147.4309 61.1048 38.3653 0.0000 -4.9802 0.0000
# 2 61.1048 106.7896 8.4898 0.0000 -8.5119 0.0000
# 3 38.3653 8.4898 62.8869 0.0000 2.5802 0.0000
# 4 0.0000 0.0000 0.0000 7.2024 0.0000 -1.9641
# 5 -4.9802 -8.5119 2.5802 0.0000 21.1949 0.0000
# 6 0.0000 0.0000 0.0000 -1.9641 0.0000 32.4430
#
#
#
# Elastic Compliance Matrix: (Units=1/GPa)
#
#
# Indices 1 2 3 4 5 6 
#
# 1 0.010610 -0.005535 -0.005766 0.000000 0.000972 0.000000
# 2 -0.005535 0.012699 0.001514 0.000000 0.003615 0.000000
# 3 -0.005766 0.001514 0.019342 0.000000 -0.003101 0.000000
# 4 0.000000 0.000000 0.000000 0.141173 0.000000 0.008547
# 5 0.000972 0.003615 -0.003101 0.000000 0.049239 0.000000
# 6 0.000000 0.000000 0.000000 0.008547 0.000000 0.031341
#
#
# Mechanical properties :
#
#
# Convention : Reuss Voigt Hill
#
# Bulk Modulus (GPa) = 43.33155 59.22525 51.27840
# Shear Modulus (GPa) = 17.14265 26.11121 21.62693
#
# Velocity S-wave (km/s) = 3.00824 3.71267 3.37886
# Velocity P-wave (km/s) = 5.91104 7.04579 6.50321
#
# Compressibility (1/GPa) = 0.02307788
#
# Stress axis : x y z
#
# Youngs Moduli (GPa) = 94.24895 78.74472 51.70151
#
# Poissons Ratio (x) = 0.43588 0.29809
# Poissons Ratio (y) = 0.52170 -0.07828
# Poissons Ratio (z) = 0.54340 -0.11923
#
# Static dielectric constant tensor:
#      x y z
#    x 1.647450 0.000000 -0.006160 
#    y 0.000000 1.642270 0.000000 
#    z -0.006160 0.000000 1.639160 
# 
# From -- ./inp_files/35798.got.cif
#   From: 2010.05.17/outbox.cif.g08.bks.cpg/sg15_18_cif.got.tgz:35798.got - 2010.06.03 18:47:42.
