data_PCOD9282213
_publ_section_title
;
Structure prediction by ZEFSAII (Michael W. Deem and Ramdas Pophale) SiO2 
 PCOD9282213
Probable space group: C 2/C
;
_chemical_formula_sum "Si O2"
_cell_formula_units_Z 56
_cell_length_a 21.426262
_cell_length_b 8.546821
_cell_length_c 12.467376
_cell_angle_alpha 90.000000
_cell_angle_beta 85.326382
_cell_angle_gamma 90.000000
_cell_volume 2275.514704
_symmetry_space_group_name_H-M "C 2/C"
_symmetry_group_IT_number 15
_symmetry_cell_setting 'monoclinic'
loop_
_space_group_symop_operation_xyz
x,y,z
-x,y,1/2-z
-x,-y,-z
x,-y,1/2+z
1/2+x,1/2+y,z
1/2-x,1/2+y,1/2-z
1/2-x,1/2-y,-z
1/2+x,1/2-y,1/2+z
loop_
_atom_site_type_symbol
_atom_site_label
_atom_site_fract_x
_atom_site_fract_y
_atom_site_fract_z
Si Si1 0.104745 0.862029 0.550114
Si Si2 0.968061 0.636053 0.357282
Si Si3 0.516704 0.210860 0.899248
Si Si4 0.638311 0.368368 0.897435
Si Si5 0.200027 0.381759 0.977741
Si Si6 0.289850 0.505972 0.806282
Si Si7 0.323837 0.182020 0.396387
O O1 0.132668 0.700275 0.497009
O O2 0.039774 0.828180 0.617602
O O3 0.100759 0.987733 0.456090
O O4 0.156777 0.933539 0.622383
O O5 0.979324 0.712875 0.471258
O O6 0.893967 0.641470 0.349539
O O7 0.000000 0.713255 0.250000
O O8 0.996175 0.461544 0.366088
O O9 0.585839 0.257713 0.851549
O O10 0.688064 0.440758 0.809724
O O11 0.670153 0.273642 0.990127
O O12 0.205093 0.517865 0.064790
O O13 0.250000 0.250000 0.000000
O O14 0.222736 0.451124 0.861098
O O15 0.294117 0.692791 0.819855
#
# Coordination Sequence:
#
# PCOD9282213 Si02
#       7
#     8   8   8   8   8   8   8
#     4  10  21  40  59  87 125 158 207 265 313 374
#     4  10  22  36  63  93 120 168 212 254 327 386
#     4  10  21  39  59  90 128 160 205 266 315 379
#     4  10  23  38  60  92 123 165 208 262 322 380
#     4  10  21  40  66  89 124 169 213 263 321 375
#     4  10  23  39  62  91 118 171 214 254 323 377
#     4  10  21  43  61  90 134 161 214 274 314 383
#
# _framework density 24.609815000000001
#
# number of rings (size 3 to 8) (size 9 to 14) (size 15 to 20)
#    0.000    2.000    1.429    0.857    4.000    1.143 
#    0.000    2.857    0.000    0.000    0.000    0.000 
#    0.000    0.000    0.000    0.000    0.000    0.000 
#
# Total GULP energy -156729.003730 kJ/mol
# GULP energy per Si atom -5597.464419 kJ/mol
# Density = 2.455380 g / cm^3
# Si number density = 24.609815 Si / 1000 Ang^3
#
#
#
# Elastic Constant Matrix: (Units=GPa)
#
#
# Indices 1 2 3 4 5 6 
#
# 1 64.8636 35.4258 20.1513 0.0000 -11.8790 0.0000
# 2 35.4258 133.4535 27.8812 0.0000 -12.4813 0.0000
# 3 20.1513 27.8812 105.8702 0.0000 -14.6639 0.0000
# 4 0.0000 0.0000 0.0000 29.1080 0.0000 -10.1880
# 5 -11.8790 -12.4813 -14.6639 0.0000 21.7366 0.0000
# 6 0.0000 0.0000 0.0000 -10.1880 0.0000 35.6115
#
#
#
# Elastic Compliance Matrix: (Units=1/GPa)
#
#
# Indices 1 2 3 4 5 6 
#
# 1 0.019512 -0.004170 -0.001622 0.000000 0.007175 0.000000
# 2 -0.004170 0.009065 -0.001311 0.000000 0.002042 0.000000
# 3 -0.001622 -0.001311 0.010890 0.000000 0.005708 0.000000
# 4 0.000000 0.000000 0.000000 0.038178 0.000000 0.010922
# 5 0.007175 0.002042 0.005708 0.000000 0.054949 0.000000
# 6 0.000000 0.000000 0.000000 0.010922 0.000000 0.031205
#
#
# Mechanical properties :
#
#
# Convention : Reuss Voigt Hill
#
# Bulk Modulus (GPa) = 39.58501 52.34489 45.96495
# Shear Modulus (GPa) = 26.82038 32.00648 29.41343
#
# Velocity S-wave (km/s) = 3.30483 3.61024 3.46090
# Velocity P-wave (km/s) = 5.53918 6.22049 5.88970
#
# Compressibility (1/GPa) = 0.02526209
#
# Stress axis : x y z
#
# Youngs Moduli (GPa) = 51.24996 110.31497 91.82729
#
# Poissons Ratio (x) = 0.45998 0.14895
# Poissons Ratio (y) = 0.21370 0.12036
# Poissons Ratio (z) = 0.08313 0.14460
#
# Static dielectric constant tensor:
#      x y z
#    x 1.978030 0.000000 0.021130 
#    y 0.000000 1.955280 0.000000 
#    z 0.021130 0.000000 1.963910 
# 
# From -- ./inp_files/172275.got.cif
#   From: 2010.05.17/outbox.cif.g08.bks.cpg/sg15_87_cif.got.tgz:172275.got - 2010.06.03 18:47:42.
