data_PCOD9282956
_publ_section_title
;
Structure prediction by ZEFSAII (Michael W. Deem and Ramdas Pophale) SiO2 
 PCOD9282956
Probable space group: C 2/C
;
_chemical_formula_sum "Si O2"
_cell_formula_units_Z 48
_cell_length_a 15.166270
_cell_length_b 11.967258
_cell_length_c 14.276513
_cell_angle_alpha 90.000000
_cell_angle_beta 51.828960
_cell_angle_gamma 90.000000
_cell_volume 2037.096954
_symmetry_space_group_name_H-M "C 2/C"
_symmetry_group_IT_number 15
_symmetry_cell_setting 'monoclinic'
loop_
_space_group_symop_operation_xyz
x,y,z
-x,y,1/2-z
-x,-y,-z
x,-y,1/2+z
1/2+x,1/2+y,z
1/2-x,1/2+y,1/2-z
1/2-x,1/2-y,-z
1/2+x,1/2-y,1/2+z
loop_
_atom_site_type_symbol
_atom_site_label
_atom_site_fract_x
_atom_site_fract_y
_atom_site_fract_z
Si Si1 0.418482 0.444226 0.677957
Si Si2 0.682816 0.655774 0.648701
Si Si3 0.500000 0.259227 0.750000
Si Si4 0.000000 0.342970 0.750000
Si Si5 0.902030 0.550770 0.502353
Si Si6 0.184246 0.635563 0.544815
Si Si7 0.836118 0.031358 0.032836
O O1 0.380249 0.559054 0.751281
O O2 0.416352 0.341413 0.750615
O O3 0.549908 0.462875 0.565688
O O4 0.351704 0.423348 0.626436
O O5 0.606346 0.765292 0.709573
O O6 0.814656 0.648137 0.590297
O O7 0.678393 0.620981 0.540987
O O8 0.558930 0.177406 0.639649
O O9 0.957405 0.412061 0.867534
O O10 0.816955 0.446616 0.541957
O O11 0.000000 0.500000 0.500000
O O12 0.250000 0.750000 0.500000
O O13 0.235046 0.557228 0.592496
#
# Coordination Sequence:
#
# PCOD9282956 Si02
#       7
#     8   8   4   4   8   8   8
#     4  11  20  38  70 100 135 175 241 288 343 414
#     4  11  22  46  75 101 140 190 242 291 353 428
#     4  12  20  38  66 100 132 182 222 292 340 420
#     4  12  24  48  76 102 144 192 236 296 358 426
#     4  11  28  48  70 107 149 185 235 302 357 423
#     4  11  23  43  66  94 139 179 226 281 355 413
#     4  10  21  39  66 101 134 180 231 297 341 418
#
# _framework density 23.562943000000001
#
# number of rings (size 3 to 8) (size 9 to 14) (size 15 to 20)
#    0.000    1.000    5.000    2.000    0.000    6.667 
#    0.000    5.000    0.000    0.000    0.000    0.000 
#    0.000    0.000    0.000    0.000    0.000    0.000 
#
# Total GULP energy -134125.102848 kJ/mol
# GULP energy per Si atom -5588.545952 kJ/mol
# Density = 2.350931 g / cm^3
# Si number density = 23.562943 Si / 1000 Ang^3
#
#
#
# Elastic Constant Matrix: (Units=GPa)
#
#
# Indices 1 2 3 4 5 6 
#
# 1 142.6897 41.7238 26.2937 0.0000 -0.0111 0.0000
# 2 41.7238 105.7515 34.3295 0.0000 -3.0657 0.0000
# 3 26.2937 34.3295 72.1373 0.0000 -2.3128 0.0000
# 4 0.0000 0.0000 0.0000 39.6932 0.0000 -13.4203
# 5 -0.0111 -3.0657 -2.3128 0.0000 38.2166 0.0000
# 6 0.0000 0.0000 0.0000 -13.4203 0.0000 18.8283
#
#
#
# Elastic Compliance Matrix: (Units=1/GPa)
#
#
# Indices 1 2 3 4 5 6 
#
# 1 0.008097 -0.002652 -0.001699 0.000000 -0.000313 0.000000
# 2 -0.002652 0.012065 -0.004753 0.000000 0.000679 0.000000
# 3 -0.001699 -0.004753 0.016764 0.000000 0.000633 0.000000
# 4 0.000000 0.000000 0.000000 0.033192 0.000000 0.023659
# 5 -0.000313 0.000679 0.000633 0.000000 0.026259 0.000000
# 6 0.000000 0.000000 0.000000 0.023659 0.000000 0.069975
#
#
# Mechanical properties :
#
#
# Convention : Reuss Voigt Hill
#
# Bulk Modulus (GPa) = 53.42714 58.36363 55.89538
# Shear Modulus (GPa) = 26.20539 33.89639 30.05089
#
# Velocity S-wave (km/s) = 3.33850 3.79693 3.57507
# Velocity P-wave (km/s) = 6.13060 6.63666 6.38864
#
# Compressibility (1/GPa) = 0.01871708
#
# Stress axis : x y z
#
# Youngs Moduli (GPa) = 123.50580 82.88299 59.65116
#
# Poissons Ratio (x) = 0.21981 0.10136
# Poissons Ratio (y) = 0.32754 0.28354
# Poissons Ratio (z) = 0.20986 0.39397
#
# Static dielectric constant tensor:
#      x y z
#    x 1.891050 0.000000 -0.058370 
#    y 0.000000 1.902340 0.000000 
#    z -0.058370 0.000000 1.923340 
# 
# From -- ./inp_files/152517.got.cif
#   From: 2010.05.17/outbox.cif.g08.bks.cpg/sg15_77_cif.got.tgz:152517.got - 2010.06.03 18:47:42.
