data_PCOD9282973
_publ_section_title
;
Structure prediction by ZEFSAII (Michael W. Deem and Ramdas Pophale) SiO2 
 PCOD9282973
Probable space group: C 2/C
;
_chemical_formula_sum "Si O2"
_cell_formula_units_Z 40
_cell_length_a 22.012622
_cell_length_b 8.309045
_cell_length_c 16.422047
_cell_angle_alpha 90.000000
_cell_angle_beta 143.744592
_cell_angle_gamma 90.000000
_cell_volume 1776.319337
_symmetry_space_group_name_H-M "C 2/C"
_symmetry_group_IT_number 15
_symmetry_cell_setting 'monoclinic'
loop_
_space_group_symop_operation_xyz
x,y,z
-x,y,1/2-z
-x,-y,-z
x,-y,1/2+z
1/2+x,1/2+y,z
1/2-x,1/2+y,1/2-z
1/2-x,1/2-y,-z
1/2+x,1/2-y,1/2+z
loop_
_atom_site_type_symbol
_atom_site_label
_atom_site_fract_x
_atom_site_fract_y
_atom_site_fract_z
Si Si1 0.978437 0.673451 0.938226
Si Si2 0.422555 0.676078 0.104605
Si Si3 0.532743 0.680771 0.905060
Si Si4 0.830176 0.695683 0.639207
Si Si5 0.357099 0.833113 0.607652
O O1 0.867769 0.685383 0.774543
O O2 0.982525 0.799820 0.016314
O O3 0.000000 0.500000 0.000000
O O4 0.060596 0.711141 0.956200
O O5 0.295771 0.718771 0.992085
O O6 0.425514 0.491383 0.078319
O O7 0.566913 0.694599 0.281115
O O8 0.430247 0.728540 0.745378
O O9 0.608208 0.814193 0.948035
O O10 0.856232 0.517060 0.633415
O O11 0.250000 0.750000 0.500000
#
# Coordination Sequence:
#
# PCOD9282973 Si02
#       5
#     8   8   8   8   8
#     4  11  22  40  66  96 127 169 223 269 329 392
#     4  10  21  39  66  89 128 172 215 257 335 394
#     4  11  22  43  67  96 128 174 218 277 329 401
#     4  11  24  42  65  96 131 174 221 276 333 402
#     4  11  23  41  68  93 134 169 221 269 339 397
#
# _framework density 22.518474000000001
#
# number of rings (size 3 to 8) (size 9 to 14) (size 15 to 20)
#    0.000    1.200    4.000    3.000    8.400    0.000 
#    3.600    0.000    0.000    0.000    0.000    0.000 
#    0.000    0.000    0.000    0.000    0.000    0.000 
#
# Total GULP energy -111483.335319 kJ/mol
# GULP energy per Si atom -5574.166766 kJ/mol
# Density = 2.246722 g / cm^3
# Si number density = 22.518474 Si / 1000 Ang^3
#
#
#
# Elastic Constant Matrix: (Units=GPa)
#
#
# Indices 1 2 3 4 5 6 
#
# 1 186.0789 64.3801 72.2929 0.0000 -6.8845 0.0000
# 2 64.3801 153.6545 32.7404 0.0000 -11.0945 0.0000
# 3 72.2929 32.7404 77.5706 0.0000 12.2065 0.0000
# 4 0.0000 0.0000 0.0000 22.7699 0.0000 -1.3345
# 5 -6.8845 -11.0945 12.2065 0.0000 36.5219 0.0000
# 6 0.0000 0.0000 0.0000 -1.3345 0.0000 50.7648
#
#
#
# Elastic Compliance Matrix: (Units=1/GPa)
#
#
# Indices 1 2 3 4 5 6 
#
# 1 0.009594 -0.001836 -0.008828 0.000000 0.004201 0.000000
# 2 -0.001836 0.007915 -0.002062 0.000000 0.002748 0.000000
# 3 -0.008828 -0.002062 0.023590 0.000000 -0.010175 0.000000
# 4 0.000000 0.000000 0.000000 0.043985 0.000000 0.001156
# 5 0.004201 0.002748 -0.010175 0.000000 0.032408 0.000000
# 6 0.000000 0.000000 0.000000 0.001156 0.000000 0.019729
#
#
# Mechanical properties :
#
#
# Convention : Reuss Voigt Hill
#
# Bulk Modulus (GPa) = 63.90620 84.01454 73.96037
# Shear Modulus (GPa) = 29.78135 38.53736 34.15936
#
# Velocity S-wave (km/s) = 3.64061 4.14135 3.89903
# Velocity P-wave (km/s) = 6.79066 7.76260 7.29284
#
# Compressibility (1/GPa) = 0.01564793
#
# Stress axis : x y z
#
# Youngs Moduli (GPa) = 104.22869 126.34180 42.39006
#
# Poissons Ratio (x) = 0.23190 0.37422
# Poissons Ratio (y) = 0.19132 0.08743
# Poissons Ratio (z) = 0.92012 0.26057
#
# Static dielectric constant tensor:
#      x y z
#    x 1.915400 0.000000 -0.008440 
#    y 0.000000 1.814720 0.000000 
#    z -0.008440 0.000000 2.051260 
# 
# From -- ./inp_files/257058.got.cif
#   From: 2010.05.17/outbox.cif.g08.bks.cpg/sg15_129_cif.got.tgz:257058.got - 2010.06.03 18:47:42.
