data_PCOD9282923
_publ_section_title
;
Structure prediction by ZEFSAII (Michael W. Deem and Ramdas Pophale) SiO2 
 PCOD9282923
Probable space group: C 2/C
;
_chemical_formula_sum "Si O2"
_cell_formula_units_Z 64
_cell_length_a 15.403299
_cell_length_b 17.991837
_cell_length_c 18.425484
_cell_angle_alpha 90.000000
_cell_angle_beta 35.844021
_cell_angle_gamma 90.000000
_cell_volume 2990.163096
_symmetry_space_group_name_H-M "C 2/C"
_symmetry_group_IT_number 15
_symmetry_cell_setting 'monoclinic'
loop_
_space_group_symop_operation_xyz
x,y,z
-x,y,1/2-z
-x,-y,-z
x,-y,1/2+z
1/2+x,1/2+y,z
1/2-x,1/2+y,1/2-z
1/2-x,1/2-y,-z
1/2+x,1/2-y,1/2+z
loop_
_atom_site_type_symbol
_atom_site_label
_atom_site_fract_x
_atom_site_fract_y
_atom_site_fract_z
Si Si1 0.784108 0.656597 0.317180
Si Si2 0.270346 0.089162 0.466244
Si Si3 0.135242 0.949034 0.608427
Si Si4 0.431586 0.456160 0.613886
Si Si5 0.392940 0.246899 0.105231
Si Si6 0.175052 0.783674 0.623112
Si Si7 0.810194 0.692237 0.569103
Si Si8 0.083171 0.891434 0.322420
O O1 0.837992 0.596160 0.339697
O O2 0.666522 0.610295 0.349114
O O3 0.863131 0.704145 0.201234
O O4 0.739443 0.722312 0.404183
O O5 0.338152 0.148276 0.476021
O O6 0.090882 0.101158 0.578585
O O7 0.265419 0.007464 0.505246
O O8 0.185339 0.873023 0.610857
O O9 0.000000 0.979883 0.750000
O O10 0.057271 0.929560 0.584393
O O11 0.500000 0.500000 0.500000
O O12 0.352509 0.526268 0.706752
O O13 0.266242 0.239999 0.132075
O O14 0.410122 0.333363 0.115228
O O15 0.545404 0.206116 0.978266
O O16 0.250000 0.750000 0.500000
O O17 0.000000 0.765223 0.750000
O O18 0.680107 0.646419 0.694895
#
# Coordination Sequence:
#
# PCOD9282923 Si02
#       8
#     8   8   8   8   8   8   8   8
#     4  11  22  36  61  93 128 162 217 264 316 381
#     4  11  20  39  65  99 127 174 218 266 323 382
#     4  10  21  39  65  96 130 167 224 279 323 389
#     4  11  19  37  65  95 121 159 221 274 311 371
#     4  11  25  41  63  94 133 170 213 266 336 390
#     4  11  27  45  73  98 132 176 227 284 334 400
#     4  11  23  39  61  94 136 168 209 259 329 403
#     4  10  22  37  66  95 124 166 216 273 315 386
#
# _framework density 21.403516
#
# number of rings (size 3 to 8) (size 9 to 14) (size 15 to 20)
#    0.000    1.250    3.750    3.750    7.000    0.500 
#    0.000    2.500    2.750    0.000    0.000    0.000 
#    0.000    0.000    0.000    0.000    0.000    0.000 
#
# Total GULP energy -178391.656098 kJ/mol
# GULP energy per Si atom -5574.739253 kJ/mol
# Density = 2.135480 g / cm^3
# Si number density = 21.403516 Si / 1000 Ang^3
#
#
#
# Elastic Constant Matrix: (Units=GPa)
#
#
# Indices 1 2 3 4 5 6 
#
# 1 114.7666 19.6018 9.6386 -0.0002 -4.5690 0.0002
# 2 19.6018 101.8256 4.0917 0.0001 -4.6106 0.0002
# 3 9.6386 4.0917 50.9523 -0.0002 5.7195 0.0005
# 4 -0.0002 0.0001 -0.0002 29.6781 0.0003 3.6595
# 5 -4.5690 -4.6106 5.7195 0.0003 28.8620 -0.0004
# 6 0.0002 0.0002 0.0005 3.6595 -0.0004 37.9469
#
#
#
# Elastic Compliance Matrix: (Units=1/GPa)
#
#
# Indices 1 2 3 4 5 6 
#
# 1 0.009203 -0.001630 -0.001784 0.000000 0.001550 0.000000
# 2 -0.001630 0.010230 -0.000683 0.000000 0.001512 0.000000
# 3 -0.001784 -0.000683 0.020519 0.000000 -0.004458 0.000000
# 4 0.000000 0.000000 0.000000 0.034100 0.000000 -0.003289
# 5 0.001550 0.001512 -0.004458 0.000000 0.036018 0.000000
# 6 0.000000 0.000000 0.000000 -0.003289 0.000000 0.026670
#
#
# Mechanical properties :
#
#
# Convention : Reuss Voigt Hill
#
# Bulk Modulus (GPa) = 31.48719 37.13429 34.31074
# Shear Modulus (GPa) = 32.15014 34.91157 33.53086
#
# Velocity S-wave (km/s) = 3.87989 4.04309 3.96233
# Velocity P-wave (km/s) = 5.90039 6.25961 6.08265
#
# Compressibility (1/GPa) = 0.03175894
#
# Stress axis : x y z
#
# Youngs Moduli (GPa) = 108.65736 97.74850 48.73546
#
# Poissons Ratio (x) = 0.15931 0.08695
# Poissons Ratio (y) = 0.17709 0.03328
# Poissons Ratio (z) = 0.19386 0.06675
#
# Static dielectric constant tensor:
#      x y z
#    x 1.792340 0.000000 0.039140 
#    y 0.000000 1.811740 0.000000 
#    z 0.039140 0.000000 1.903520 
# 
# From -- ./inp_files/206448.got.cif
#   From: 2010.05.17/outbox.cif.g08.bks.cpg/sg15_104_cif.got.tgz:206448.got - 2010.06.03 18:47:42.
