data_PCOD9282338
_publ_section_title
;
Structure prediction by ZEFSAII (Michael W. Deem and Ramdas Pophale) SiO2 
 PCOD9282338
Probable space group: C 2/C
;
_chemical_formula_sum "Si O2"
_cell_formula_units_Z 48
_cell_length_a 20.856399
_cell_length_b 18.748843
_cell_length_c 5.088834
_cell_angle_alpha 90.000000
_cell_angle_beta 100.447282
_cell_angle_gamma 90.000000
_cell_volume 1956.915515
_symmetry_space_group_name_H-M "C 2/C"
_symmetry_group_IT_number 15
_symmetry_cell_setting 'monoclinic'
loop_
_space_group_symop_operation_xyz
x,y,z
-x,y,1/2-z
-x,-y,-z
x,-y,1/2+z
1/2+x,1/2+y,z
1/2-x,1/2+y,1/2-z
1/2-x,1/2-y,-z
1/2+x,1/2-y,1/2+z
loop_
_atom_site_type_symbol
_atom_site_label
_atom_site_fract_x
_atom_site_fract_y
_atom_site_fract_z
Si Si1 0.072512 0.470962 0.255102
Si Si2 0.191668 0.849016 0.539646
Si Si3 0.552782 0.340199 0.574530
Si Si4 0.092275 0.685721 0.599796
Si Si5 0.325306 0.207137 0.325279
Si Si6 0.606294 0.452698 0.261379
O O1 0.107189 0.485193 0.553850
O O2 0.065085 0.389140 0.174141
O O3 0.000000 0.502667 0.250000
O O4 0.130496 0.848586 0.700808
O O5 0.258134 0.835147 0.738987
O O6 0.184398 0.785015 0.319715
O O7 0.178663 0.921887 0.370284
O O8 0.500000 0.363670 0.750000
O O9 0.545879 0.254789 0.542356
O O10 0.562123 0.384334 0.309089
O O11 0.121759 0.674472 0.333937
O O12 0.147942 0.704267 0.859408
O O13 0.593414 0.488039 0.974731
#
# Coordination Sequence:
#
# PCOD9282338 Si02
#       6
#     8   8   8   8   8   8
#     4  10  21  39  61  88 128 168 202 247 317 385
#     4   8  21  40  61  89 119 159 208 249 311 374
#     4   9  21  40  64  92 122 161 214 263 303 369
#     4  11  22  38  65  94 124 158 211 262 306 363
#     4  10  21  39  64  90 118 161 203 261 305 372
#     4  10  23  40  61  87 124 162 202 256 311 363
#
# _framework density 24.528396999999998
#
# number of rings (size 3 to 8) (size 9 to 14) (size 15 to 20)
#    1.000    1.333    0.000    1.500    2.333    8.000 
#    0.000   15.000    0.000    0.000    0.000    0.000 
#    0.000    0.000    0.000    0.000    0.000    0.000 
#
# Total GULP energy -133800.080676 kJ/mol
# GULP energy per Si atom -5575.003361 kJ/mol
# Density = 2.447257 g / cm^3
# Si number density = 24.528397 Si / 1000 Ang^3
#
#
#
# Elastic Constant Matrix: (Units=GPa)
#
#
# Indices 1 2 3 4 5 6 
#
# 1 56.4672 -1.8218 -3.1273 0.0000 -10.0410 0.0000
# 2 -1.8218 132.2676 28.7779 0.0000 -5.9724 0.0000
# 3 -3.1273 28.7779 86.6054 0.0000 -7.1633 0.0000
# 4 0.0000 0.0000 0.0000 5.0804 0.0000 -34.2194
# 5 -10.0410 -5.9724 -7.1633 0.0000 32.0503 0.0000
# 6 0.0000 0.0000 0.0000 -34.2194 0.0000 -1.3040
#
#
#
# Elastic Compliance Matrix: (Units=1/GPa)
#
#
# Indices 1 2 3 4 5 6 
#
# 1 0.018885 0.000302 0.001096 0.000000 0.006218 0.000000
# 2 0.000302 0.008182 -0.002622 0.000000 0.001033 0.000000
# 3 0.001096 -0.002622 0.012680 0.000000 0.002689 0.000000
# 4 0.000000 0.000000 0.000000 0.001107 0.000000 -0.029059
# 5 0.006218 0.001033 0.002689 0.000000 0.033942 0.000000
# 6 0.000000 0.000000 0.000000 -0.029059 0.000000 -0.004314
#
#
# Mechanical properties :
#
#
# Convention : Reuss Voigt Hill
#
# Bulk Modulus (GPa) = 26.81036 35.88866 31.34951
# Shear Modulus (GPa) = 58.57274 23.93277 41.25276
#
# Velocity S-wave (km/s) = 4.89197 3.12704 4.10547
# Velocity P-wave (km/s) = 6.54695 5.26318 5.93985
#
# Compressibility (1/GPa) = 0.03729901
#
# Stress axis : x y z
#
# Youngs Moduli (GPa) = 52.95068 122.22250 78.86473
#
# Poissons Ratio (x) = -0.03697 -0.08641
# Poissons Ratio (y) = -0.01602 0.20681
# Poissons Ratio (z) = -0.05802 0.32051
#
# Static dielectric constant tensor:
#      x y z
#    x 2.017400 0.000000 0.076210 
#    y 0.000000 1.982390 0.000000 
#    z 0.076210 0.000000 2.117830 
# 
# From -- ./inp_files/15346.got.cif
#   From: 2010.05.17/outbox.cif.g08.bks.cpg/sg15_8_cif.got.tgz:15346.got - 2010.06.03 18:47:42.
