data_PCOD9282545
_publ_section_title
;
Structure prediction by ZEFSAII (Michael W. Deem and Ramdas Pophale) SiO2 
 PCOD9282545
Probable space group: C 2/C
;
_chemical_formula_sum "Si O2"
_cell_formula_units_Z 56
_cell_length_a 16.074705
_cell_length_b 22.721038
_cell_length_c 13.350747
_cell_angle_alpha 90.000000
_cell_angle_beta 36.492525
_cell_angle_gamma 90.000000
_cell_volume 2899.931648
_symmetry_space_group_name_H-M "C 2/C"
_symmetry_group_IT_number 15
_symmetry_cell_setting 'monoclinic'
loop_
_space_group_symop_operation_xyz
x,y,z
-x,y,1/2-z
-x,-y,-z
x,-y,1/2+z
1/2+x,1/2+y,z
1/2-x,1/2+y,1/2-z
1/2-x,1/2-y,-z
1/2+x,1/2-y,1/2+z
loop_
_atom_site_type_symbol
_atom_site_label
_atom_site_fract_x
_atom_site_fract_y
_atom_site_fract_z
Si Si1 0.084936 0.340950 0.269550
Si Si2 0.652647 0.274161 0.813166
Si Si3 0.748853 0.420114 0.915987
Si Si4 0.500000 0.155980 0.250000
Si Si5 0.000000 0.148324 0.750000
Si Si6 0.088636 0.754678 0.310714
Si Si7 0.667848 0.955388 0.091316
Si Si8 0.307748 0.888648 0.630313
O O1 0.160735 0.283603 0.236935
O O2 0.179616 0.396834 0.148453
O O3 0.000000 0.326206 0.250000
O O4 0.964929 0.363140 0.462552
O O5 0.702788 0.334095 0.713796
O O6 0.759814 0.266430 0.802086
O O7 0.498456 0.275428 0.008640
O O8 0.755889 0.488105 0.939842
O O9 0.785646 0.411863 0.763538
O O10 0.865217 0.385227 0.868509
O O11 0.600855 0.390810 0.084466
O O12 0.508168 0.200351 0.336326
O O13 0.908304 0.192043 0.770214
O O14 0.500000 0.967569 0.250000
O O15 0.711183 0.937284 0.937253
#
# Coordination Sequence:
#
# PCOD9282545 Si02
#       8
#     8   8   8   4   4   8   8   8
#     4   9  21  39  62  94 122 153 203 261 299 354
#     4  12  19  38  62  91 122 159 197 246 309 362
#     4  12  21  41  63  88 121 166 200 252 309 356
#     4  11  20  36  62  92 116 161 212 246 296 355
#     4  11  24  38  58  88 132 159 192 254 310 363
#     4  11  22  36  57  93 127 155 199 251 300 368
#     4   9  22  41  60  89 117 154 214 258 291 353
#     4  10  21  39  63  87 119 158 208 248 299 365
#
# _framework density 19.3108
#
# number of rings (size 3 to 8) (size 9 to 14) (size 15 to 20)
#    0.000    1.714    5.000    0.857    0.000    6.857 
#    5.143    2.143    0.000    0.000    0.000    0.000 
#    0.000    0.000    0.000    0.000    0.000    0.000 
#
# Total GULP energy -156333.554154 kJ/mol
# GULP energy per Si atom -5583.341220 kJ/mol
# Density = 1.926685 g / cm^3
# Si number density = 19.310800 Si / 1000 Ang^3
#
#
#
# Elastic Constant Matrix: (Units=GPa)
#
#
# Indices 1 2 3 4 5 6 
#
# 1 55.1278 51.6943 27.4847 -0.0018 21.9351 0.0012
# 2 51.6943 129.0030 18.3350 0.0003 22.2706 0.0005
# 3 27.4847 18.3350 58.3796 0.0008 19.7766 0.0014
# 4 -0.0018 0.0003 0.0008 12.5532 0.0010 4.5133
# 5 21.9351 22.2706 19.7766 0.0010 22.6795 -0.0012
# 6 0.0012 0.0005 0.0014 4.5133 -0.0012 34.6229
#
#
#
# Elastic Compliance Matrix: (Units=1/GPa)
#
#
# Indices 1 2 3 4 5 6 
#
# 1 0.042372 -0.012017 -0.008926 0.000010 -0.021398 -0.000003
# 2 -0.012017 0.012745 0.002778 -0.000002 -0.003314 0.000000
# 3 -0.008926 0.002778 0.026197 -0.000001 -0.016939 -0.000001
# 4 0.000010 -0.000002 -0.000001 0.083578 -0.000011 -0.010895
# 5 -0.021398 -0.003314 -0.016939 -0.000011 0.082814 0.000006
# 6 -0.000003 0.000000 -0.000001 -0.010895 0.000006 0.030303
#
#
# Mechanical properties :
#
#
# Convention : Reuss Voigt Hill
#
# Bulk Modulus (GPa) = 22.22998 48.61538 35.42268
# Shear Modulus (GPa) = 15.18220 23.63757 19.40988
#
# Velocity S-wave (km/s) = 2.80697 3.50245 3.17382
# Velocity P-wave (km/s) = 4.69490 6.44873 5.64040
#
# Compressibility (1/GPa) = 0.04498430
#
# Stress axis : x y z
#
# Youngs Moduli (GPa) = 23.60027 78.46475 38.17198
#
# Poissons Ratio (x) = 0.94290 0.34071
# Poissons Ratio (y) = 0.28360 -0.10603
# Poissons Ratio (z) = 0.21065 -0.21794
#
# Static dielectric constant tensor:
#      x y z
#    x 1.671570 0.000000 0.017140 
#    y 0.000000 1.680480 0.000000 
#    z 0.017140 0.000000 1.680240 
# 
# From -- ./inp_files/163786.got.cif
#   From: 2010.05.17/outbox.cif.g08.bks.cpg/sg15_82_cif.got.tgz:163786.got - 2010.06.03 18:47:42.
