data_PCOD9282508
_publ_section_title
;
Structure prediction by ZEFSAII (Michael W. Deem and Ramdas Pophale) SiO2 
 PCOD9282508
Probable space group: C 2/C
;
_chemical_formula_sum "Si O2"
_cell_formula_units_Z 56
_cell_length_a 7.249035
_cell_length_b 13.713799
_cell_length_c 25.650688
_cell_angle_alpha 90.000000
_cell_angle_beta 64.705210
_cell_angle_gamma 90.000000
_cell_volume 2305.492674
_symmetry_space_group_name_H-M "C 2/C"
_symmetry_group_IT_number 15
_symmetry_cell_setting 'monoclinic'
loop_
_space_group_symop_operation_xyz
x,y,z
-x,y,1/2-z
-x,-y,-z
x,-y,1/2+z
1/2+x,1/2+y,z
1/2-x,1/2+y,1/2-z
1/2-x,1/2-y,-z
1/2+x,1/2-y,1/2+z
loop_
_atom_site_type_symbol
_atom_site_label
_atom_site_fract_x
_atom_site_fract_y
_atom_site_fract_z
Si Si1 0.208268 0.692432 0.790912
Si Si2 0.082715 0.206559 0.399829
Si Si3 0.650467 0.484925 0.685601
Si Si4 0.861689 0.660280 0.093924
Si Si5 0.765081 0.824681 0.166770
Si Si6 0.447174 0.505533 0.597085
Si Si7 0.194308 0.349564 0.476193
O O1 0.255616 0.588337 0.810873
O O2 0.318801 0.683301 0.721486
O O3 0.229467 0.776283 0.831936
O O4 0.969153 0.706532 0.807310
O O5 0.845192 0.194059 0.411135
O O6 0.111002 0.301841 0.432322
O O7 0.116669 0.098035 0.419410
O O8 0.500000 0.452884 0.750000
O O9 0.819280 0.407812 0.648569
O O10 0.526938 0.489142 0.646618
O O11 0.924843 0.759627 0.115221
O O12 0.007186 0.612490 0.034240
O O13 0.762677 0.923699 0.133549
O O14 0.631152 0.567783 0.549039
O O15 0.250000 0.250000 0.500000
#
# Coordination Sequence:
#
# PCOD9282508 Si02
#       7
#     8   8   8   8   8   8   8
#     4  10  21  39  65  91 133 166 213 266 329 397
#     4  10  24  42  65  95 125 174 216 270 331 396
#     4  11  22  39  67  96 124 170 220 268 323 399
#     4  10  24  41  64  93 132 172 218 270 330 396
#     4  10  21  39  62  94 130 170 204 272 332 383
#     4  11  23  42  66  94 131 169 221 270 330 393
#     4  12  24  44  65  94 130 174 224 276 330 395
#
# _framework density 24.289819000000001
#
# number of rings (size 3 to 8) (size 9 to 14) (size 15 to 20)
#    0.000    1.429    4.286    0.429    6.000    4.000 
#    5.143    0.000    3.143    0.000    0.000    0.000 
#    0.000    0.000    0.000    0.000    0.000    0.000 
#
# Total GULP energy -156050.409143 kJ/mol
# GULP energy per Si atom -5573.228898 kJ/mol
# Density = 2.423453 g / cm^3
# Si number density = 24.289819 Si / 1000 Ang^3
#
#
#
# Elastic Constant Matrix: (Units=GPa)
#
#
# Indices 1 2 3 4 5 6 
#
# 1 39.2905 -0.4853 7.7241 0.0002 1.3667 0.0000
# 2 -0.4853 108.9997 43.2017 0.0003 -9.3847 0.0000
# 3 7.7241 43.2017 121.4951 0.0034 -5.4304 0.0004
# 4 0.0002 0.0003 0.0034 2187.4910 -0.0021 278.1838
# 5 1.3667 -9.3847 -5.4304 -0.0021 21.8537 -0.0003
# 6 0.0000 0.0000 0.0004 278.1838 -0.0003 61.7931
#
#
#
# Elastic Compliance Matrix: (Units=1/GPa)
#
#
# Indices 1 2 3 4 5 6 
#
# 1 0.025915 0.000752 -0.001995 0.000000 -0.001794 0.000000
# 2 0.000752 0.011003 -0.003793 0.000000 0.003735 0.000000
# 3 -0.001995 -0.003793 0.009747 0.000000 0.000918 0.000000
# 4 0.000000 0.000000 0.000000 0.001069 0.000000 -0.004814
# 5 -0.001794 0.003735 0.000918 0.000000 0.047703 0.000000
# 6 0.000000 0.000000 0.000000 -0.004814 0.000000 0.037855
#
#
# Mechanical properties :
#
#
# Convention : Reuss Voigt Hill
#
# Bulk Modulus (GPa) = 27.32811 41.18514 34.25662
# Shear Modulus (GPa) = 32.14112 468.85055 250.49584
#
# Velocity S-wave (km/s) = 3.64157 13.90836 10.16621
# Velocity P-wave (km/s) = 5.38114 16.58059 12.32624
#
# Compressibility (1/GPa) = 0.03659236
#
# Stress axis : x y z
#
# Youngs Moduli (GPa) = 38.58721 90.88662 102.59089
#
# Poissons Ratio (x) = -0.06832 0.20467
# Poissons Ratio (y) = -0.02901 0.38915
# Poissons Ratio (z) = 0.07698 0.34475
#
# Static dielectric constant tensor:
#      x y z
#    x 2.094010 0.000000 -0.034090 
#    y 0.000000 2.187940 0.000000 
#    z -0.034090 0.000000 2.040510 
# 
# From -- ./inp_files/264565.got.cif
#   From: 2010.05.17/outbox.cif.g08.bks.cpg/sg15_133_cif.got.tgz:264565.got - 2010.06.03 18:47:42.
