data_PCOD9282310
_publ_section_title
;
Structure prediction by ZEFSAII (Michael W. Deem and Ramdas Pophale) SiO2 
 PCOD9282310
Probable space group: C 2/C
;
_chemical_formula_sum "Si O2"
_cell_formula_units_Z 64
_cell_length_a 28.407522
_cell_length_b 8.387252
_cell_length_c 12.657461
_cell_angle_alpha 90.000000
_cell_angle_beta 108.961756
_cell_angle_gamma 90.000000
_cell_volume 2852.130638
_symmetry_space_group_name_H-M "C 2/C"
_symmetry_group_IT_number 15
_symmetry_cell_setting 'monoclinic'
loop_
_space_group_symop_operation_xyz
x,y,z
-x,y,1/2-z
-x,-y,-z
x,-y,1/2+z
1/2+x,1/2+y,z
1/2-x,1/2+y,1/2-z
1/2-x,1/2-y,-z
1/2+x,1/2-y,1/2+z
loop_
_atom_site_type_symbol
_atom_site_label
_atom_site_fract_x
_atom_site_fract_y
_atom_site_fract_z
Si Si1 0.377605 0.782831 0.796478
Si Si2 0.204912 0.445590 0.632178
Si Si3 0.960109 0.624397 0.518365
Si Si4 0.969969 0.896654 0.892427
Si Si5 0.112903 0.049579 0.312241
Si Si6 0.374807 0.383979 0.971600
Si Si7 0.127056 0.544309 0.416475
Si Si8 0.806481 0.217379 0.253045
O O1 0.428549 0.793174 0.900487
O O2 0.369516 0.613321 0.734136
O O3 0.378399 0.924670 0.710988
O O4 0.332151 0.821590 0.839274
O O5 0.179513 0.481213 0.500286
O O6 0.203273 0.607359 0.703789
O O7 0.258652 0.366176 0.668208
O O8 0.918819 0.549481 0.565044
O O9 0.000000 0.500000 0.500000
O O10 0.994484 0.749698 0.602097
O O11 0.944852 0.949457 0.764569
O O12 0.919741 0.864727 0.922695
O O13 0.000000 0.000000 0.000000
O O14 0.118300 0.026225 0.441155
O O15 0.147585 0.193962 0.295998
O O16 0.375917 0.221691 0.037642
O O17 0.324507 0.385509 0.867983
#
# Coordination Sequence:
#
# PCOD9282310 Si02
#       8
#     8   8   8   8   8   8   8   8
#     4  10  21  39  61  86 118 156 201 246 300 352
#     4  10  21  39  63  88 119 156 196 246 299 364
#     4  11  21  38  62  83 122 160 202 247 296 352
#     4  11  21  38  58  89 119 158 200 246 303 349
#     4  10  21  39  61  86 119 156 198 250 295 357
#     4   9  20  39  61  83 118 157 200 242 296 358
#     4   9  20  39  61  86 113 159 203 243 288 359
#     4  10  21  39  63  87 118 156 196 244 304 359
#
# _framework density 22.439367000000001
#
# number of rings (size 3 to 8) (size 9 to 14) (size 15 to 20)
#    0.000    2.000    2.500    0.750    1.750    2.000 
#    2.250    6.250    0.000    0.000    0.000    0.000 
#    0.000    0.000    0.000    0.000    0.000    0.000 
#
# Total GULP energy -178665.204939 kJ/mol
# GULP energy per Si atom -5583.287654 kJ/mol
# Density = 2.238829 g / cm^3
# Si number density = 22.439367 Si / 1000 Ang^3
#
#
#
# Elastic Constant Matrix: (Units=GPa)
#
#
# Indices 1 2 3 4 5 6 
#
# 1 64.0503 9.2589 20.8190 0.0000 28.2762 0.0000
# 2 9.2589 65.6186 13.4813 0.0000 13.1566 0.0000
# 3 20.8190 13.4813 59.0218 0.0000 14.0014 0.0000
# 4 0.0000 0.0000 0.0000 31.3905 0.0000 6.4356
# 5 28.2762 13.1566 14.0014 0.0000 35.4505 0.0000
# 6 0.0000 0.0000 0.0000 6.4356 0.0000 28.3097
#
#
#
# Elastic Compliance Matrix: (Units=1/GPa)
#
#
# Indices 1 2 3 4 5 6 
#
# 1 0.025234 0.001159 -0.004732 0.000000 -0.018688 0.000000
# 2 0.001159 0.016873 -0.002822 0.000000 -0.006072 0.000000
# 3 -0.004732 -0.002822 0.019985 0.000000 -0.003071 0.000000
# 4 0.000000 0.000000 0.000000 0.033414 0.000000 -0.007596
# 5 -0.018688 -0.006072 -0.003071 0.000000 0.046581 0.000000
# 6 0.000000 0.000000 0.000000 -0.007596 0.000000 0.037050
#
#
# Mechanical properties :
#
#
# Convention : Reuss Voigt Hill
#
# Bulk Modulus (GPa) = 20.28383 30.64545 25.46464
# Shear Modulus (GPa) = 23.99664 28.70559 26.35112
#
# Velocity S-wave (km/s) = 3.27371 3.58054 3.43056
# Velocity P-wave (km/s) = 4.83204 5.54801 5.20235
#
# Compressibility (1/GPa) = 0.04930036
#
# Stress axis : x y z
#
# Youngs Moduli (GPa) = 39.62980 59.26519 50.03660
#
# Poissons Ratio (x) = -0.06867 0.23678
# Poissons Ratio (y) = -0.04592 0.14123
# Poissons Ratio (z) = 0.18753 0.16727
#
# Static dielectric constant tensor:
#      x y z
#    x 1.797950 0.000000 -0.013140 
#    y 0.000000 1.928940 0.000000 
#    z -0.013140 0.000000 1.880910 
# 
# From -- ./inp_files/180836.got.cif
#   From: 2010.05.17/outbox.cif.g08.bks.cpg/sg15_91_cif.got.tgz:180836.got - 2010.06.03 18:47:42.
