data_PCOD9282548
_publ_section_title
;
Structure prediction by ZEFSAII (Michael W. Deem and Ramdas Pophale) SiO2 
 PCOD9282548
Probable space group: C 2/C
;
_chemical_formula_sum "Si O2"
_cell_formula_units_Z 36
_cell_length_a 9.462461
_cell_length_b 37.015338
_cell_length_c 5.280380
_cell_angle_alpha 90.000000
_cell_angle_beta 116.455681
_cell_angle_gamma 90.000000
_cell_volume 1655.806222
_symmetry_space_group_name_H-M "C 2/C"
_symmetry_group_IT_number 15
_symmetry_cell_setting 'monoclinic'
loop_
_space_group_symop_operation_xyz
x,y,z
-x,y,1/2-z
-x,-y,-z
x,-y,1/2+z
1/2+x,1/2+y,z
1/2-x,1/2+y,1/2-z
1/2-x,1/2-y,-z
1/2+x,1/2-y,1/2+z
loop_
_atom_site_type_symbol
_atom_site_label
_atom_site_fract_x
_atom_site_fract_y
_atom_site_fract_z
Si Si1 0.500000 0.744745 0.250000
Si Si2 0.710119 0.783225 0.789394
Si Si3 0.189379 0.899463 0.894590
Si Si4 0.308661 0.643544 0.604036
Si Si5 0.190454 0.479483 0.403546
O O1 0.554894 0.771546 0.515801
O O2 0.645732 0.718837 0.297854
O O3 0.750000 0.750000 0.000000
O O4 0.722137 0.819966 0.952032
O O5 0.231351 0.885164 0.649108
O O6 0.000000 0.902088 0.750000
O O7 0.235012 0.871589 0.154912
O O8 0.258405 0.938550 0.009798
O O9 0.500000 0.649697 0.750000
O O10 0.246696 0.504353 0.681591
O O11 0.000000 0.480575 0.250000
#
# Coordination Sequence:
#
# PCOD9282548 Si02
#       5
#     4   8   8   8   8
#     4  10  24  38  64  88 120 158 224 262 318 370
#     4  11  23  41  62  89 122 166 215 266 315 376
#     4  10  22  39  60  93 118 157 204 247 305 363
#     4  10  22  38  63  85 126 162 200 258 314 364
#     4  10  21  39  63  87 122 160 195 240 301 366
#
# _framework density 21.741672999999999
#
# number of rings (size 3 to 8) (size 9 to 14) (size 15 to 20)
#    0.000    1.778    0.000    3.333   10.889    0.889 
#    2.000    0.000    0.000    0.000    0.000    0.000 
#    0.000    0.000    0.000    0.000    0.000    0.000 
#
# Total GULP energy -100680.096276 kJ/mol
# GULP energy per Si atom -5593.338682 kJ/mol
# Density = 2.169219 g / cm^3
# Si number density = 21.741673 Si / 1000 Ang^3
#
#
#
# Elastic Constant Matrix: (Units=GPa)
#
#
# Indices 1 2 3 4 5 6 
#
# 1 28.6427 -2.9280 7.9801 0.0000 -1.8775 0.0000
# 2 -2.9280 124.3658 63.5765 0.0000 13.5579 0.0000
# 3 7.9801 63.5765 169.1198 0.0000 -1.8014 0.0000
# 4 0.0000 0.0000 0.0000 54.9621 0.0000 2.0288
# 5 -1.8775 13.5579 -1.8014 0.0000 15.9311 0.0000
# 6 0.0000 0.0000 0.0000 2.0288 0.0000 25.0380
#
#
#
# Elastic Compliance Matrix: (Units=1/GPa)
#
#
# Indices 1 2 3 4 5 6 
#
# 1 0.035905 0.001770 -0.002333 0.000000 0.002462 0.000000
# 2 0.001770 0.011486 -0.004509 0.000000 -0.010076 0.000000
# 3 -0.002333 -0.004509 0.007765 0.000000 0.004440 0.000000
# 4 0.000000 0.000000 0.000000 0.018249 0.000000 -0.001479
# 5 0.002462 -0.010076 0.004440 0.000000 0.072137 0.000000
# 6 0.000000 0.000000 0.000000 -0.001479 0.000000 0.040059
#
#
# Mechanical properties :
#
#
# Convention : Reuss Voigt Hill
#
# Bulk Modulus (GPa) = 22.21630 51.04282 36.62956
# Shear Modulus (GPa) = 23.72481 36.08624 29.90553
#
# Velocity S-wave (km/s) = 3.30694 4.07845 3.71279
# Velocity P-wave (km/s) = 4.98213 6.76064 5.93834
#
# Compressibility (1/GPa) = 0.04501200
#
# Stress axis : x y z
#
# Youngs Moduli (GPa) = 27.85106 87.06449 128.77854
#
# Poissons Ratio (x) = -0.15409 0.30048
# Poissons Ratio (y) = -0.04929 0.58061
# Poissons Ratio (z) = 0.06499 0.39254
#
# Static dielectric constant tensor:
#      x y z
#    x 1.785530 0.000000 0.044520 
#    y 0.000000 1.725780 0.000000 
#    z 0.044520 0.000000 1.722770 
# 
# From -- ./inp_files/5643.got.cif
#   From: 2010.05.17/outbox.cif.g08.bks.cpg/sg15_3_cif.got.tgz:5643.got - 2010.06.03 18:47:42.
