data_PCOD9282896
_publ_section_title
;
Structure prediction by ZEFSAII (Michael W. Deem and Ramdas Pophale) SiO2 
 PCOD9282896
Probable space group: C 2/C
;
_chemical_formula_sum "Si O2"
_cell_formula_units_Z 28
_cell_length_a 7.663906
_cell_length_b 22.042559
_cell_length_c 7.049491
_cell_angle_alpha 90.000000
_cell_angle_beta 94.023693
_cell_angle_gamma 90.000000
_cell_volume 1187.949929
_symmetry_space_group_name_H-M "C 2/C"
_symmetry_group_IT_number 15
_symmetry_cell_setting 'monoclinic'
loop_
_space_group_symop_operation_xyz
x,y,z
-x,y,1/2-z
-x,-y,-z
x,-y,1/2+z
1/2+x,1/2+y,z
1/2-x,1/2+y,1/2-z
1/2-x,1/2-y,-z
1/2+x,1/2-y,1/2+z
loop_
_atom_site_type_symbol
_atom_site_label
_atom_site_fract_x
_atom_site_fract_y
_atom_site_fract_z
Si Si1 0.710524 0.416846 0.244713
Si Si2 0.180651 0.454849 0.662393
Si Si3 0.500000 0.375833 0.750000
Si Si4 0.132247 0.795175 0.110572
O O1 0.500000 0.426391 0.250000
O O2 0.795345 0.472895 0.360518
O O3 0.732293 0.344179 0.254082
O O4 0.792267 0.429281 0.044405
O O5 0.338990 0.420776 0.781911
O O6 0.000000 0.441037 0.750000
O O7 0.462076 0.334748 0.562729
O O8 0.000000 0.764393 0.250000
O O9 0.250000 0.750000 0.000000
#
# Coordination Sequence:
#
# PCOD9282896 Si02
#       4
#     8   8   4   8
#     4  10  21  39  65  93 137 168 207 274 332 387
#     4  11  22  38  65 103 134 164 216 267 337 397
#     4  10  24  44  72  96 140 174 206 288 340 380
#     4  10  24  44  67  95 130 180 227 267 323 395
#
# _framework density 23.570015999999999
#
# number of rings (size 3 to 8) (size 9 to 14) (size 15 to 20)
#    0.000    1.714    1.429    1.714    8.000    5.714 
#    2.571    0.000    0.000    0.000    0.000    0.000 
#    0.000    0.000    0.000    0.000    0.000    0.000 
#
# Total GULP energy -78094.015823 kJ/mol
# GULP energy per Si atom -5578.143987 kJ/mol
# Density = 2.351637 g / cm^3
# Si number density = 23.570016 Si / 1000 Ang^3
#
#
#
# Elastic Constant Matrix: (Units=GPa)
#
#
# Indices 1 2 3 4 5 6 
#
# 1 137.9003 55.6830 62.2455 0.0000 -55.7716 0.0000
# 2 55.6830 101.3373 44.4603 0.0000 -29.9904 0.0000
# 3 62.2455 44.4603 128.2848 0.0000 -58.2663 0.0000
# 4 0.0000 0.0000 0.0000 5.5651 0.0000 -21.9879
# 5 -55.7716 -29.9904 -58.2663 0.0000 61.7866 0.0000
# 6 0.0000 0.0000 0.0000 -21.9879 0.0000 15.4241
#
#
#
# Elastic Compliance Matrix: (Units=1/GPa)
#
#
# Indices 1 2 3 4 5 6 
#
# 1 0.012844 -0.004088 -0.000789 0.000000 0.008866 0.000000
# 2 -0.004088 0.013319 -0.002400 0.000000 0.000512 0.000000
# 3 -0.000789 -0.002400 0.014269 0.000000 0.011579 0.000000
# 4 0.000000 0.000000 0.000000 -0.038790 0.000000 -0.055297
# 5 0.008866 0.000512 0.011579 0.000000 0.035355 0.000000
# 6 0.000000 0.000000 0.000000 -0.055297 0.000000 -0.013996
#
#
# Mechanical properties :
#
#
# Convention : Reuss Voigt Hill
#
# Bulk Modulus (GPa) = 38.64248 76.92222 57.78235
# Shear Modulus (GPa) = 108.27474 30.23073 69.25273
#
# Velocity S-wave (km/s) = 6.78507 3.58522 5.42637
# Velocity P-wave (km/s) = 8.82119 7.06009 7.98931
#
# Compressibility (1/GPa) = 0.02587826
#
# Stress axis : x y z
#
# Youngs Moduli (GPa) = 77.85946 75.08333 70.08337
#
# Poissons Ratio (x) = 0.30691 0.05526
# Poissons Ratio (y) = 0.31826 0.16821
# Poissons Ratio (z) = 0.06139 0.18021
#
# Static dielectric constant tensor:
#      x y z
#    x 2.003390 0.000000 0.150960 
#    y 0.000000 1.956940 0.000000 
#    z 0.150960 0.000000 2.000230 
# 
# From -- ./inp_files/21886.got.cif
#   From: 2010.05.17/outbox.cif.g08.bks.cpg/sg15_11_cif.got.tgz:21886.got - 2010.06.03 18:47:42.
