data_PCOD9282043
_publ_section_title
;
Structure prediction by ZEFSAII (Michael W. Deem and Ramdas Pophale) SiO2 
 PCOD9282043
Probable space group: C 2/C
;
_chemical_formula_sum "Si O2"
_cell_formula_units_Z 56
_cell_length_a 16.986943
_cell_length_b 11.164241
_cell_length_c 17.912925
_cell_angle_alpha 90.000000
_cell_angle_beta 52.902138
_cell_angle_gamma 90.000000
_cell_volume 2709.565103
_symmetry_space_group_name_H-M "C 2/C"
_symmetry_group_IT_number 15
_symmetry_cell_setting 'monoclinic'
loop_
_space_group_symop_operation_xyz
x,y,z
-x,y,1/2-z
-x,-y,-z
x,-y,1/2+z
1/2+x,1/2+y,z
1/2-x,1/2+y,1/2-z
1/2-x,1/2-y,-z
1/2+x,1/2-y,1/2+z
loop_
_atom_site_type_symbol
_atom_site_label
_atom_site_fract_x
_atom_site_fract_y
_atom_site_fract_z
Si Si1 0.417479 0.829084 0.354771
Si Si2 0.003804 0.363795 0.023372
Si Si3 0.681142 0.707039 0.351511
Si Si4 0.353896 0.572565 0.387919
Si Si5 0.655389 0.308794 0.354634
Si Si6 0.423773 0.483611 0.690711
Si Si7 0.742843 0.000012 0.092534
O O1 0.500000 0.786539 0.250000
O O2 0.465309 0.853144 0.407398
O O3 0.342908 0.716222 0.400044
O O4 0.366682 0.946509 0.349632
O O5 0.895657 0.304833 0.074096
O O6 0.088795 0.292413 0.930311
O O7 0.000000 0.500000 0.000000
O O8 0.755159 0.759770 0.247103
O O9 0.610827 0.612506 0.349733
O O10 0.740014 0.628243 0.379001
O O11 0.464333 0.543151 0.352303
O O12 0.352960 0.531212 0.302998
O O13 0.281371 0.506994 0.485783
O O14 0.587423 0.386792 0.338499
O O15 0.696593 0.401631 0.393124
#
# Coordination Sequence:
#
# PCOD9282043 Si02
#       7
#     8   8   8   8   8   8   8
#     4  12  23  41  65 100 134 166 224 284 331 390
#     4  12  27  44  69  98 138 181 224 274 340 412
#     4  11  24  45  64  96 138 176 222 276 339 412
#     4  11  19  39  66  98 124 165 226 282 329 395
#     4  11  24  41  67  96 134 178 222 273 345 402
#     4  10  21  38  68  94 128 166 220 279 336 389
#     4  11  24  39  71  97 128 169 231 279 332 393
#
# _framework density 20.667524
#
# number of rings (size 3 to 8) (size 9 to 14) (size 15 to 20)
#    0.000    0.857    4.286    3.000    8.000    2.286 
#    0.000    5.714    0.000    0.000    0.000    0.000 
#    0.000    0.000    0.000    0.000    0.000    0.000 
#
# Total GULP energy -156579.113011 kJ/mol
# GULP energy per Si atom -5592.111179 kJ/mol
# Density = 2.062048 g / cm^3
# Si number density = 20.667524 Si / 1000 Ang^3
#
#
#
# Elastic Constant Matrix: (Units=GPa)
#
#
# Indices 1 2 3 4 5 6 
#
# 1 44.0207 26.8757 -4.9853 0.0000 2.3223 0.0000
# 2 26.8757 111.5279 34.9555 0.0000 2.8049 0.0000
# 3 -4.9853 34.9555 89.3599 0.0000 -7.8124 0.0000
# 4 0.0000 0.0000 0.0000 5.5280 0.0000 -11.0719
# 5 2.3223 2.8049 -7.8124 0.0000 35.3710 0.0000
# 6 0.0000 0.0000 0.0000 -11.0719 0.0000 22.3595
#
#
#
# Elastic Compliance Matrix: (Units=1/GPa)
#
#
# Indices 1 2 3 4 5 6 
#
# 1 0.028368 -0.008349 0.004837 0.000000 -0.000132 0.000000
# 2 -0.008349 0.012781 -0.005614 0.000000 -0.001705 0.000000
# 3 0.004837 -0.005614 0.013937 0.000000 0.003206 0.000000
# 4 0.000000 0.000000 0.000000 21.988502 0.000000 10.888179
# 5 -0.000132 -0.001705 0.003206 0.000000 0.029124 0.000000
# 6 0.000000 0.000000 0.000000 10.888179 0.000000 5.436289
#
#
# Mechanical properties :
#
#
# Convention : Reuss Voigt Hill
#
# Bulk Modulus (GPa) = 27.14901 39.84447 33.49674
# Shear Modulus (GPa) = 0.18156 25.18920 12.68538
#
# Velocity S-wave (km/s) = 0.29671 3.49489 2.48015
# Velocity P-wave (km/s) = 3.64444 5.96710 4.94410
#
# Compressibility (1/GPa) = 0.03683376
#
# Stress axis : x y z
#
# Youngs Moduli (GPa) = 35.25038 78.24216 71.75110
#
# Poissons Ratio (x) = 0.65323 -0.34706
# Poissons Ratio (y) = 0.29430 0.40284
# Poissons Ratio (z) = -0.17050 0.43929
#
# Static dielectric constant tensor:
#      x y z
#    x 1.747080 0.000000 -0.014330 
#    y 0.000000 1.730350 0.000000 
#    z -0.014330 0.000000 1.756350 
# 
# From -- ./inp_files/210556.got.cif
#   From: 2010.05.17/outbox.cif.g08.bks.cpg/sg15_106_cif.got.tgz:210556.got - 2010.06.03 18:47:42.
