data_PCOD9282192
_publ_section_title
;
Structure prediction by ZEFSAII (Michael W. Deem and Ramdas Pophale) SiO2 
 PCOD9282192
Probable space group: C 2/C
;
_chemical_formula_sum "Si O2"
_cell_formula_units_Z 40
_cell_length_a 7.626979
_cell_length_b 13.045326
_cell_length_c 14.166806
_cell_angle_alpha 90.000000
_cell_angle_beta 85.661753
_cell_angle_gamma 90.000000
_cell_volume 1405.508038
_symmetry_space_group_name_H-M "C 2/C"
_symmetry_group_IT_number 15
_symmetry_cell_setting 'monoclinic'
loop_
_space_group_symop_operation_xyz
x,y,z
-x,y,1/2-z
-x,-y,-z
x,-y,1/2+z
1/2+x,1/2+y,z
1/2-x,1/2+y,1/2-z
1/2-x,1/2-y,-z
1/2+x,1/2-y,1/2+z
loop_
_atom_site_type_symbol
_atom_site_label
_atom_site_fract_x
_atom_site_fract_y
_atom_site_fract_z
Si Si1 0.599396 0.635724 0.078606
Si Si2 0.831072 0.521068 0.823025
Si Si3 0.458806 0.413786 0.376707
Si Si4 0.030217 0.656578 0.526314
Si Si5 0.646792 0.799513 0.658673
O O1 0.610235 0.528804 0.133435
O O2 0.798408 0.666224 0.047896
O O3 0.502608 0.605938 0.984909
O O4 0.518570 0.748341 0.102224
O O5 0.654973 0.589397 0.824106
O O6 0.753889 0.404953 0.819595
O O7 0.000000 0.531847 0.750000
O O8 0.923055 0.554810 0.918014
O O9 0.329913 0.322623 0.352816
O O10 0.889924 0.669456 0.449809
O O11 0.500000 0.802121 0.750000
#
# Coordination Sequence:
#
# PCOD9282192 Si02
#       5
#     8   8   8   8   8
#     4   8  16  34  65  91 111 154 203 252 308 371
#     4  10  21  39  59  87 123 161 205 257 304 370
#     4   9  18  38  60  85 121 154 199 254 311 363
#     4   9  17  36  64  89 121 158 201 255 310 359
#     4  10  21  39  59  84 126 160 200 258 301 364
#
# _framework density 28.459461999999998
#
# number of rings (size 3 to 8) (size 9 to 14) (size 15 to 20)
#    0.000    2.800    0.000    1.800    0.000    0.000 
#   14.400   17.000    0.000    0.000    0.000    0.000 
#    0.000    0.000    0.000    0.000    0.000    0.000 
#
# Total GULP energy -111438.769789 kJ/mol
# GULP energy per Si atom -5571.938489 kJ/mol
# Density = 2.839469 g / cm^3
# Si number density = 28.459462 Si / 1000 Ang^3
#
#
#
# Elastic Constant Matrix: (Units=GPa)
#
#
# Indices 1 2 3 4 5 6 
#
# 1 111.8136 50.5838 15.9930 0.0000 -23.0662 0.0000
# 2 50.5838 221.4932 45.5688 0.0000 -2.2195 0.0000
# 3 15.9930 45.5688 72.5113 0.0000 2.2819 0.0000
# 4 0.0000 0.0000 0.0000 28.3601 0.0000 9.6235
# 5 -23.0662 -2.2195 2.2819 0.0000 25.6019 0.0000
# 6 0.0000 0.0000 0.0000 9.6235 0.0000 0.8766
#
#
#
# Elastic Compliance Matrix: (Units=1/GPa)
#
#
# Indices 1 2 3 4 5 6 
#
# 1 0.012603 -0.002435 -0.001605 0.000000 0.011287 0.000000
# 2 -0.002435 0.005670 -0.002981 0.000000 -0.001437 0.000000
# 3 -0.001605 -0.002981 0.016117 0.000000 -0.003141 0.000000
# 4 0.000000 0.000000 0.000000 -0.012939 0.000000 0.142044
# 5 0.011287 -0.001437 -0.003141 0.000000 0.049384 0.000000
# 6 0.000000 0.000000 0.000000 0.142044 0.000000 -0.418599
#
#
# Mechanical properties :
#
#
# Convention : Reuss Voigt Hill
#
# Bulk Modulus (GPa) = 49.14310 70.01213 59.57762
# Shear Modulus (GPa) = -15.29327 30.54591 7.62632
#
# Velocity S-wave (km/s) = -2.32064 3.27970 1.63876
# Velocity P-wave (km/s) = 3.18194 6.24467 4.95584
#
# Compressibility (1/GPa) = 0.02034874
#
# Stress axis : x y z
#
# Youngs Moduli (GPa) = 79.34704 176.37426 62.04647
#
# Poissons Ratio (x) = 0.42947 0.09956
# Poissons Ratio (y) = 0.19321 0.18495
# Poissons Ratio (z) = 0.12732 0.52574
#
# Static dielectric constant tensor:
#      x y z
#    x 2.307250 0.000000 -0.049000 
#    y 0.000000 2.237300 0.000000 
#    z -0.049000 0.000000 2.256220 
# 
# From -- ./inp_files/141710.got.cif
#   From: 2010.05.17/outbox.cif.g08.bks.cpg/sg15_71_cif.got.tgz:141710.got - 2010.06.03 18:47:42.
