data_PCOD9282705
_publ_section_title
;
Structure prediction by ZEFSAII (Michael W. Deem and Ramdas Pophale) SiO2 
 PCOD9282705
Probable space group: C 2/C
;
_chemical_formula_sum "Si O2"
_cell_formula_units_Z 48
_cell_length_a 16.761152
_cell_length_b 8.727015
_cell_length_c 23.312617
_cell_angle_alpha 90.000000
_cell_angle_beta 39.555463
_cell_angle_gamma 90.000000
_cell_volume 2171.603972
_symmetry_space_group_name_H-M "C 2/C"
_symmetry_group_IT_number 15
_symmetry_cell_setting 'monoclinic'
loop_
_space_group_symop_operation_xyz
x,y,z
-x,y,1/2-z
-x,-y,-z
x,-y,1/2+z
1/2+x,1/2+y,z
1/2-x,1/2+y,1/2-z
1/2-x,1/2-y,-z
1/2+x,1/2-y,1/2+z
loop_
_atom_site_type_symbol
_atom_site_label
_atom_site_fract_x
_atom_site_fract_y
_atom_site_fract_z
Si Si1 0.646552 0.460538 0.683067
Si Si2 0.056012 0.185204 0.078145
Si Si3 0.201388 0.525887 0.500554
Si Si4 0.884616 0.085131 0.676659
Si Si5 0.001484 0.648057 0.185257
Si Si6 0.848187 0.659144 0.772608
O O1 0.500000 0.474013 0.750000
O O2 0.732113 0.552363 0.590741
O O3 0.674744 0.512872 0.732182
O O4 0.674510 0.276628 0.662836
O O5 0.106826 0.346601 0.026054
O O6 0.959695 0.252352 0.178313
O O7 0.179418 0.104070 0.034725
O O8 0.973234 0.045199 0.098676
O O9 0.125950 0.427337 0.588910
O O10 0.777254 0.142470 0.694331
O O11 0.959916 0.227962 0.661255
O O12 0.000000 0.716980 0.250000
O O13 0.902117 0.509917 0.250382
#
# Coordination Sequence:
#
# PCOD9282705 Si02
#       6
#     8   8   8   8   8   8
#     4  11  20  41  70  89 116 174 220 248 296 379
#     4   9  20  38  63  86 122 158 212 246 301 365
#     4  10  21  40  67  92 119 160 227 259 290 372
#     4  11  22  41  60  93 133 163 194 262 330 370
#     4  11  24  38  63  96 125 158 207 269 320 359
#     4  10  21  39  64  87 125 168 206 247 310 376
#
# _framework density 22.103477000000002
#
# number of rings (size 3 to 8) (size 9 to 14) (size 15 to 20)
#    0.000    1.667    3.333    3.000    4.667    0.667 
#    0.000    8.333    0.000    0.000    0.000    0.000 
#    0.000    0.000    0.000    0.000    0.000    0.000 
#
# Total GULP energy -133676.426252 kJ/mol
# GULP energy per Si atom -5569.851094 kJ/mol
# Density = 2.205317 g / cm^3
# Si number density = 22.103477 Si / 1000 Ang^3
#
#
#
# Elastic Constant Matrix: (Units=GPa)
#
#
# Indices 1 2 3 4 5 6 
#
# 1 81.0241 27.6001 39.6555 0.0000 -20.4576 0.0000
# 2 27.6001 93.5049 21.4056 0.0000 -7.8579 0.0001
# 3 39.6555 21.4056 129.6773 0.0000 7.3292 0.0000
# 4 0.0000 0.0000 0.0000 8.6802 0.0000 31.2891
# 5 -20.4576 -7.8579 7.3292 0.0000 20.0561 0.0000
# 6 0.0000 0.0001 0.0000 31.2891 0.0000 -66.2161
#
#
#
# Elastic Compliance Matrix: (Units=1/GPa)
#
#
# Indices 1 2 3 4 5 6 
#
# 1 0.024177 -0.002980 -0.008403 0.000000 0.026564 0.000000
# 2 -0.002980 0.012024 -0.001193 0.000000 0.002107 0.000000
# 3 -0.008403 -0.001193 0.011220 0.000000 -0.013138 0.000000
# 4 0.000000 0.000000 0.000000 0.042616 0.000000 0.020137
# 5 0.026564 0.002107 -0.013138 0.000000 0.082582 0.000000
# 6 0.000000 0.000000 0.000000 0.020137 0.000000 -0.005587
#
#
# Mechanical properties :
#
#
# Convention : Reuss Voigt Hill
#
# Bulk Modulus (GPa) = 44.90262 53.50319 49.20290
# Shear Modulus (GPa) = 25.04909 6.87372 15.96141
#
# Velocity S-wave (km/s) = 3.37005 1.76537 2.69015
# Velocity P-wave (km/s) = 5.95834 5.33045 5.65312
#
# Compressibility (1/GPa) = 0.02227042
#
# Stress axis : x y z
#
# Youngs Moduli (GPa) = 41.36211 83.16420 89.12333
#
# Poissons Ratio (x) = 0.24786 0.74887
# Poissons Ratio (y) = 0.12328 0.10628
# Poissons Ratio (z) = 0.34755 0.09917
#
# Static dielectric constant tensor:
#      x y z
#    x 1.805470 0.000000 0.042680 
#    y 0.000000 1.937170 0.000000 
#    z 0.042680 0.000000 1.872590 
# 
# From -- ./inp_files/315636.got.cif
#   From: 2010.05.17/outbox.cif.g08.bks.cpg/sg15_158_cif.got.tgz:315636.got - 2010.06.03 18:47:42.
