data_PCOD9282944
_publ_section_title
;
Structure prediction by ZEFSAII (Michael W. Deem and Ramdas Pophale) SiO2 
 PCOD9282944
Probable space group: C 2/C
;
_chemical_formula_sum "Si O2"
_cell_formula_units_Z 44
_cell_length_a 19.720811
_cell_length_b 4.936997
_cell_length_c 17.723986
_cell_angle_alpha 90.000000
_cell_angle_beta 91.836924
_cell_angle_gamma 90.000000
_cell_volume 1724.748579
_symmetry_space_group_name_H-M "C 2/C"
_symmetry_group_IT_number 15
_symmetry_cell_setting 'monoclinic'
loop_
_space_group_symop_operation_xyz
x,y,z
-x,y,1/2-z
-x,-y,-z
x,-y,1/2+z
1/2+x,1/2+y,z
1/2-x,1/2+y,1/2-z
1/2-x,1/2-y,-z
1/2+x,1/2-y,1/2+z
loop_
_atom_site_type_symbol
_atom_site_label
_atom_site_fract_x
_atom_site_fract_y
_atom_site_fract_z
Si Si1 0.050086 0.807032 0.046694
Si Si2 0.500000 0.861491 0.250000
Si Si3 0.876949 0.288996 0.818772
Si Si4 0.817991 0.254310 0.657298
Si Si5 0.753767 0.735141 0.410276
Si Si6 0.560952 0.898121 0.398478
O O1 0.086436 0.922595 0.122501
O O2 0.006495 0.554800 0.075793
O O3 0.093660 0.718990 0.975947
O O4 0.000000 0.000000 0.000000
O O5 0.562192 0.036998 0.216577
O O6 0.537154 0.724861 0.323942
O O7 0.829487 0.215822 0.746826
O O8 0.823044 0.397150 0.878745
O O9 0.761308 0.472404 0.628555
O O10 0.887238 0.378470 0.628453
O O11 0.803318 0.965807 0.622031
O O12 0.750000 0.750000 0.500000
#
# Coordination Sequence:
#
# PCOD9282944 Si02
#       6
#     8   4   8   8   8   8
#     4  10  21  39  65  98 132 182 233 294 348 411
#     4   8  18  42  64  94 130 186 228 292 350 408
#     4  10  22  44  69  98 144 179 242 288 359 421
#     4  11  25  46  70 103 141 186 234 290 355 429
#     4  12  26  45  72 106 140 187 235 292 357 426
#     4   9  20  39  62  93 138 172 238 279 352 410
#
# _framework density 25.510966
#
# number of rings (size 3 to 8) (size 9 to 14) (size 15 to 20)
#    0.000    1.818    0.000    2.727    5.091    0.000 
#   19.636    0.909    0.000    0.000    0.000    0.000 
#    0.000    0.000    0.000    0.000    0.000    0.000 
#
# Total GULP energy -122623.904706 kJ/mol
# GULP energy per Si atom -5573.813850 kJ/mol
# Density = 2.545290 g / cm^3
# Si number density = 25.510966 Si / 1000 Ang^3
#
#
#
# Elastic Constant Matrix: (Units=GPa)
#
#
# Indices 1 2 3 4 5 6 
#
# 1 107.9844 4.2178 53.3259 0.0000 -24.2146 0.0000
# 2 4.2178 61.2360 37.2921 0.0000 3.1005 0.0000
# 3 53.3259 37.2921 259.3878 0.0000 12.0520 0.0000
# 4 0.0000 0.0000 0.0000 8.0281 0.0000 -0.8358
# 5 -24.2146 3.1005 12.0520 0.0000 53.2980 0.0000
# 6 0.0000 0.0000 0.0000 -0.8358 0.0000 36.1000
#
#
#
# Elastic Compliance Matrix: (Units=1/GPa)
#
#
# Indices 1 2 3 4 5 6 
#
# 1 0.011994 0.000592 -0.002832 0.000000 0.006055 0.000000
# 2 0.000592 0.017938 -0.002693 0.000000 -0.000166 0.000000
# 3 -0.002832 -0.002693 0.004929 0.000000 -0.002245 0.000000
# 4 0.000000 0.000000 0.000000 0.124864 0.000000 0.002891
# 5 0.006055 -0.000166 -0.002245 0.000000 0.022031 0.000000
# 6 0.000000 0.000000 0.000000 0.002891 0.000000 0.027768
#
#
# Mechanical properties :
#
#
# Convention : Reuss Voigt Hill
#
# Bulk Modulus (GPa) = 40.00872 68.69776 54.35324
# Shear Modulus (GPa) = 21.95670 41.73671 31.84670
#
# Velocity S-wave (km/s) = 2.93691 4.04918 3.53704
# Velocity P-wave (km/s) = 5.21705 6.98915 6.16708
#
# Compressibility (1/GPa) = 0.02499455
#
# Stress axis : x y z
#
# Youngs Moduli (GPa) = 83.37559 55.74808 202.88306
#
# Poissons Ratio (x) = -0.03301 0.57461
# Poissons Ratio (y) = -0.04937 0.54635
# Poissons Ratio (z) = 0.23614 0.15013
#
# Static dielectric constant tensor:
#      x y z
#    x 2.261060 0.000000 -0.010810 
#    y 0.000000 2.120980 0.000000 
#    z -0.010810 0.000000 2.200970 
# 
# From -- ./inp_files/212912.got.cif
#   From: 2010.05.17/outbox.cif.g08.bks.cpg/sg15_107_cif.got.tgz:212912.got - 2010.06.03 18:47:42.
