data_PCOD9282359
_publ_section_title
;
Structure prediction by ZEFSAII (Michael W. Deem and Ramdas Pophale) SiO2 
 PCOD9282359
Probable space group: C 2/C
;
_chemical_formula_sum "Si O2"
_cell_formula_units_Z 36
_cell_length_a 7.838831
_cell_length_b 18.170568
_cell_length_c 15.132718
_cell_angle_alpha 90.000000
_cell_angle_beta 44.146279
_cell_angle_gamma 90.000000
_cell_volume 1501.250827
_symmetry_space_group_name_H-M "C 2/C"
_symmetry_group_IT_number 15
_symmetry_cell_setting 'monoclinic'
loop_
_space_group_symop_operation_xyz
x,y,z
-x,y,1/2-z
-x,-y,-z
x,-y,1/2+z
1/2+x,1/2+y,z
1/2-x,1/2+y,1/2-z
1/2-x,1/2-y,-z
1/2+x,1/2-y,1/2+z
loop_
_atom_site_type_symbol
_atom_site_label
_atom_site_fract_x
_atom_site_fract_y
_atom_site_fract_z
Si Si1 0.019165 0.087294 0.011848
Si Si2 0.842023 0.705205 0.603413
Si Si3 0.114092 0.777494 0.355493
Si Si4 0.497078 0.051752 0.584374
Si Si5 0.500000 0.055039 0.250000
O O1 0.740768 0.103979 0.143314
O O2 0.100368 0.140389 0.902273
O O3 0.239014 0.090219 0.999263
O O4 0.000000 0.000000 0.000000
O O5 0.615214 0.729236 0.626375
O O6 0.837875 0.736107 0.705156
O O7 0.069924 0.725985 0.456403
O O8 0.817654 0.618442 0.630432
O O9 0.500000 0.000000 0.500000
O O10 0.448768 0.999912 0.686880
#
# Coordination Sequence:
#
# PCOD9282359 Si02
#       5
#     8   8   8   8   4
#     4  10  21  39  62  89 120 160 205 258 313 369
#     4  10  21  39  61  90 125 167 212 259 313 374
#     4  10  22  39  62  89 126 169 211 258 313 373
#     4  11  23  39  62  92 126 165 210 258 317 380
#     4  10  22  40  64  90 124 160 210 268 314 372
#
# _framework density 23.980004999999998
#
# number of rings (size 3 to 8) (size 9 to 14) (size 15 to 20)
#    0.000    1.778    0.000    5.333    0.000    8.889 
#    0.000    0.000    0.000    0.000    0.000    0.000 
#    0.000    0.000    0.000    0.000    0.000    0.000 
#
# Total GULP energy -100502.645339 kJ/mol
# GULP energy per Si atom -5583.480297 kJ/mol
# Density = 2.392543 g / cm^3
# Si number density = 23.980005 Si / 1000 Ang^3
#
#
#
# Elastic Constant Matrix: (Units=GPa)
#
#
# Indices 1 2 3 4 5 6 
#
# 1 70.1915 21.0999 61.0456 0.0000 8.3816 0.0000
# 2 21.0999 92.1298 43.2087 0.0000 34.7044 0.0000
# 3 61.0456 43.2087 186.6214 0.0000 52.6985 0.0000
# 4 0.0000 0.0000 0.0000 40.7269 0.0000 19.4125
# 5 8.3816 34.7044 52.6985 0.0000 50.7898 0.0000
# 6 0.0000 0.0000 0.0000 19.4125 0.0000 32.3620
#
#
#
# Elastic Compliance Matrix: (Units=1/GPa)
#
#
# Indices 1 2 3 4 5 6 
#
# 1 0.021865 -0.004023 -0.008455 0.000000 0.007914 0.000000
# 2 -0.004023 0.015441 0.000754 0.000000 -0.010669 0.000000
# 3 -0.008455 0.000754 0.010893 0.000000 -0.010422 0.000000
# 4 0.000000 0.000000 0.000000 0.034385 0.000000 -0.020626
# 5 0.007914 -0.010669 -0.010422 0.000000 0.036486 0.000000
# 6 0.000000 0.000000 0.000000 -0.020626 0.000000 0.043273
#
#
# Mechanical properties :
#
#
# Convention : Reuss Voigt Hill
#
# Bulk Modulus (GPa) = 40.40630 66.62788 53.51709
# Shear Modulus (GPa) = 25.76754 39.68163 32.72458
#
# Velocity S-wave (km/s) = 3.28158 4.07231 3.69814
# Velocity P-wave (km/s) = 5.58971 7.06801 6.37188
#
# Compressibility (1/GPa) = 0.02474862
#
# Stress axis : x y z
#
# Youngs Moduli (GPa) = 45.73558 64.76251 91.80453
#
# Poissons Ratio (x) = 0.26054 0.77625
# Poissons Ratio (y) = 0.18400 -0.06918
# Poissons Ratio (z) = 0.38672 -0.04880
#
# Static dielectric constant tensor:
#      x y z
#    x 1.940350 0.000000 -0.120430 
#    y 0.000000 1.942430 0.000000 
#    z -0.120430 0.000000 2.043440 
# 
# From -- ./inp_files/134147.got.cif
#   From: 2010.05.17/outbox.cif.g08.bks.cpg/sg15_68_cif.got.tgz:134147.got - 2010.06.03 18:47:42.
