data_PCOD9282575
_publ_section_title
;
Structure prediction by ZEFSAII (Michael W. Deem and Ramdas Pophale) SiO2 
 PCOD9282575
Probable space group: C 2/C
;
_chemical_formula_sum "Si O2"
_cell_formula_units_Z 48
_cell_length_a 25.463465
_cell_length_b 6.211457
_cell_length_c 28.733657
_cell_angle_alpha 90.000000
_cell_angle_beta 29.798470
_cell_angle_gamma 90.000000
_cell_volume 2258.474915
_symmetry_space_group_name_H-M "C 2/C"
_symmetry_group_IT_number 15
_symmetry_cell_setting 'monoclinic'
loop_
_space_group_symop_operation_xyz
x,y,z
-x,y,1/2-z
-x,-y,-z
x,-y,1/2+z
1/2+x,1/2+y,z
1/2-x,1/2+y,1/2-z
1/2-x,1/2-y,-z
1/2+x,1/2-y,1/2+z
loop_
_atom_site_type_symbol
_atom_site_label
_atom_site_fract_x
_atom_site_fract_y
_atom_site_fract_z
Si Si1 0.123018 0.392961 0.472772
Si Si2 0.205890 0.465219 0.665963
Si Si3 0.751782 0.862429 0.799248
Si Si4 0.386096 0.807812 0.851612
Si Si5 0.107871 0.227209 0.825307
Si Si6 0.290046 0.942221 0.503252
O O1 0.190538 0.173629 0.426031
O O2 0.166022 0.484040 0.390803
O O3 0.158109 0.568938 0.485178
O O4 0.002342 0.318345 0.571011
O O5 0.230840 0.669917 0.677955
O O6 0.149199 0.483058 0.660064
O O7 0.131280 0.323437 0.756681
O O8 0.699313 0.794722 0.791279
O O9 0.864862 0.975064 0.702378
O O10 0.500000 0.728560 0.750000
O O11 0.307648 0.605632 0.914260
O O12 0.377810 0.927370 0.906692
O O13 0.250000 0.750000 0.500000
#
# Coordination Sequence:
#
# PCOD9282575 Si02
#       6
#     8   8   8   8   8   8
#     4  10  23  39  62  92 125 166 212 260 319 381
#     4  10  22  40  60  92 126 163 213 261 315 380
#     4  11  22  40  62  88 124 167 212 268 317 379
#     4  10  21  39  63  89 128 166 203 260 315 373
#     4  11  22  40  61  89 127 164 213 267 317 374
#     4  10  21  40  63  93 127 162 209 259 310 377
#
# _framework density 21.253278999999999
#
# number of rings (size 3 to 8) (size 9 to 14) (size 15 to 20)
#    0.000    1.667    1.667    2.500    0.000    2.667 
#    0.000   10.000    0.000    0.000    0.000    0.000 
#    0.000    0.000    0.000    0.000    0.000    0.000 
#
# Total GULP energy -133777.411558 kJ/mol
# GULP energy per Si atom -5574.058815 kJ/mol
# Density = 2.120491 g / cm^3
# Si number density = 21.253279 Si / 1000 Ang^3
#
#
#
# Elastic Constant Matrix: (Units=GPa)
#
#
# Indices 1 2 3 4 5 6 
#
# 1 71.7921 12.2680 6.2937 0.0011 22.4688 -0.1107
# 2 12.2680 54.7889 9.2772 0.0045 -7.5962 0.0147
# 3 6.2937 9.2772 78.9386 0.0703 1.4489 -0.0005
# 4 0.0011 0.0045 0.0703 21.5242 0.0119 20.4549
# 5 22.4688 -7.5962 1.4489 0.0119 27.0198 0.0012
# 6 -0.1107 0.0147 -0.0005 20.4549 0.0012 32.2700
#
#
#
# Elastic Compliance Matrix: (Units=1/GPa)
#
#
# Indices 1 2 3 4 5 6 
#
# 1 0.021500 -0.007503 -0.000466 -0.000153 -0.019963 0.000175
# 2 -0.007503 0.022050 -0.002224 0.000077 0.012558 -0.000085
# 3 -0.000466 -0.002224 0.012984 -0.000103 -0.000934 0.000065
# 4 -0.000153 0.000077 -0.000103 0.116846 0.000106 -0.074065
# 5 -0.019963 0.012558 -0.000934 0.000106 0.057191 -0.000144
# 6 0.000175 -0.000085 0.000065 -0.074065 -0.000144 0.077937
#
#
# Mechanical properties :
#
#
# Convention : Reuss Voigt Hill
#
# Bulk Modulus (GPa) = 27.66390 29.02194 28.34292
# Shear Modulus (GPa) = 14.66523 28.00816 21.33670
#
# Velocity S-wave (km/s) = 2.62968 3.63413 3.17191
# Velocity P-wave (km/s) = 4.71856 5.59411 5.17489
#
# Compressibility (1/GPa) = 0.03614819
#
# Stress axis : x y z
#
# Youngs Moduli (GPa) = 46.51089 45.35244 77.01911
#
# Poissons Ratio (x) = 0.34029 0.03588
# Poissons Ratio (y) = 0.34898 0.17127
# Poissons Ratio (z) = 0.02167 0.10085
#
# Static dielectric constant tensor:
#      x y z
#    x 1.765440 -0.000090 -0.019210 
#    y -0.000090 1.817080 0.000060 
#    z -0.019210 0.000060 1.727800 
# 
# From -- ./inp_files/319252.got.cif
#   From: 2010.05.17/outbox.cif.g08.bks.cpg/sg15_160_cif.got.tgz:319252.got - 2010.06.03 18:47:42.
