data_PCOD9282686
_publ_section_title
;
Structure prediction by ZEFSAII (Michael W. Deem and Ramdas Pophale) SiO2 
 PCOD9282686
Probable space group: C 2/C
;
_chemical_formula_sum "Si O2"
_cell_formula_units_Z 52
_cell_length_a 16.436937
_cell_length_b 13.835435
_cell_length_c 10.937752
_cell_angle_alpha 90.000000
_cell_angle_beta 105.704502
_cell_angle_gamma 90.000000
_cell_volume 2394.525333
_symmetry_space_group_name_H-M "C 2/C"
_symmetry_group_IT_number 15
_symmetry_cell_setting 'monoclinic'
loop_
_space_group_symop_operation_xyz
x,y,z
-x,y,1/2-z
-x,-y,-z
x,-y,1/2+z
1/2+x,1/2+y,z
1/2-x,1/2+y,1/2-z
1/2-x,1/2-y,-z
1/2+x,1/2-y,1/2+z
loop_
_atom_site_type_symbol
_atom_site_label
_atom_site_fract_x
_atom_site_fract_y
_atom_site_fract_z
Si Si1 0.788753 0.913400 0.540554
Si Si2 0.331553 0.859754 0.312007
Si Si3 0.374146 0.219764 0.584680
Si Si4 0.812003 0.247363 0.642434
Si Si5 0.489290 0.113571 0.007513
Si Si6 0.000000 0.724651 0.250000
Si Si7 0.242844 0.457079 0.795006
O O1 0.701416 0.850570 0.494233
O O2 0.858343 0.830584 0.541354
O O3 0.790989 0.949873 0.682689
O O4 0.787048 0.997091 0.435431
O O5 0.366802 0.785832 0.227581
O O6 0.235008 0.831838 0.293431
O O7 0.390271 0.862048 0.453630
O O8 0.332691 0.966983 0.258722
O O9 0.459314 0.170905 0.574245
O O10 0.750000 0.250000 0.500000
O O11 0.911677 0.223907 0.677851
O O12 0.794368 0.352387 0.692449
O O13 0.521781 0.156476 0.145868
O O14 0.500000 0.000000 0.000000
#
# Coordination Sequence:
#
# PCOD9282686 Si02
#       7
#     8   8   8   8   8   4   8
#     4  10  21  39  64 100 134 188 235 293 355 434
#     4  11  23  43  72  99 142 187 232 296 365 437
#     4  10  22  40  65  94 142 186 229 282 365 437
#     4  12  24  46  68 105 146 191 243 298 370 434
#     4  12  26  41  67 109 143 177 231 296 366 436
#     4  12  28  40  68 102 146 182 234 304 362 424
#     4  11  23  41  70 104 139 188 241 297 363 440
#
# _framework density 21.716204000000001
#
# number of rings (size 3 to 8) (size 9 to 14) (size 15 to 20)
#    0.000    0.923    3.077    4.154   10.769    0.000 
#    0.000    0.000    0.000    5.538    0.000    0.000 
#    0.000    0.000    0.000    0.000    0.000    0.000 
#
# Total GULP energy -145070.480261 kJ/mol
# GULP energy per Si atom -5579.633856 kJ/mol
# Density = 2.166678 g / cm^3
# Si number density = 21.716204 Si / 1000 Ang^3
#
#
#
# Elastic Constant Matrix: (Units=GPa)
#
#
# Indices 1 2 3 4 5 6 
#
# 1 110.0373 32.2987 32.6988 0.0000 17.7237 0.0000
# 2 32.2987 91.4569 17.3580 0.0000 9.9401 0.0000
# 3 32.6988 17.3580 106.9861 0.0000 -0.0786 0.0000
# 4 0.0000 0.0000 0.0000 72.5025 0.0000 -23.7068
# 5 17.7237 9.9401 -0.0786 0.0000 31.3731 0.0000
# 6 0.0000 0.0000 0.0000 -23.7068 0.0000 35.8280
#
#
#
# Elastic Compliance Matrix: (Units=1/GPa)
#
#
# Indices 1 2 3 4 5 6 
#
# 1 0.011811 -0.002952 -0.003135 0.000000 -0.005745 0.000000
# 2 -0.002952 0.012436 -0.001117 0.000000 -0.002275 0.000000
# 3 -0.003135 -0.001117 0.010488 0.000000 0.002151 0.000000
# 4 0.000000 0.000000 0.000000 0.017601 0.000000 0.011646
# 5 -0.005745 -0.002275 0.002151 0.000000 0.035846 0.000000
# 6 0.000000 0.000000 0.000000 0.011646 0.000000 0.035617
#
#
# Mechanical properties :
#
#
# Convention : Reuss Voigt Hill
#
# Bulk Modulus (GPa) = 49.19597 52.57681 50.88639
# Shear Modulus (GPa) = 34.48669 43.01572 38.75120
#
# Velocity S-wave (km/s) = 3.98937 4.45546 4.22884
# Velocity P-wave (km/s) = 6.62747 7.12261 6.87950
#
# Compressibility (1/GPa) = 0.02032687
#
# Stress axis : x y z
#
# Youngs Moduli (GPa) = 84.66464 80.41251 95.34624
#
# Poissons Ratio (x) = 0.23736 0.29894
# Poissons Ratio (y) = 0.24991 0.10652
# Poissons Ratio (z) = 0.26545 0.08983
#
# Static dielectric constant tensor:
#      x y z
#    x 1.822140 0.000000 0.008650 
#    y 0.000000 1.768680 0.000000 
#    z 0.008650 0.000000 1.878550 
# 
# From -- ./inp_files/97115.got.cif
#   From: 2010.05.17/outbox.cif.g08.bks.cpg/sg15_49_cif.got.tgz:97115.got - 2010.06.03 18:47:42.
