data_PCOD9282404
_publ_section_title
;
Structure prediction by ZEFSAII (Michael W. Deem and Ramdas Pophale) SiO2 
 PCOD9282404
Probable space group: C 2/C
;
_chemical_formula_sum "Si O2"
_cell_formula_units_Z 60
_cell_length_a 12.012185
_cell_length_b 9.501817
_cell_length_c 20.397314
_cell_angle_alpha 90.000000
_cell_angle_beta 88.285096
_cell_angle_gamma 90.000000
_cell_volume 2327.057399
_symmetry_space_group_name_H-M "C 2/C"
_symmetry_group_IT_number 15
_symmetry_cell_setting 'monoclinic'
loop_
_space_group_symop_operation_xyz
x,y,z
-x,y,1/2-z
-x,-y,-z
x,-y,1/2+z
1/2+x,1/2+y,z
1/2-x,1/2+y,1/2-z
1/2-x,1/2-y,-z
1/2+x,1/2-y,1/2+z
loop_
_atom_site_type_symbol
_atom_site_label
_atom_site_fract_x
_atom_site_fract_y
_atom_site_fract_z
Si Si1 0.562985 0.148420 0.496201
Si Si2 0.135718 0.155308 0.498252
Si Si3 0.500000 0.654259 0.750000
Si Si4 0.150263 0.439508 0.299539
Si Si5 0.763392 0.542541 0.908721
Si Si6 0.358532 0.527246 0.861618
Si Si7 0.016938 0.612517 0.138446
Si Si8 0.275262 0.272493 0.807731
O O1 0.471893 0.258453 0.521795
O O2 0.673350 0.131673 0.535911
O O3 0.568035 0.157928 0.417670
O O4 0.500000 0.000000 0.500000
O O5 0.250000 0.250000 0.500000
O O6 0.163318 0.034764 0.445997
O O7 0.103759 0.091233 0.570411
O O8 0.410620 0.554459 0.787770
O O9 0.495932 0.763934 0.810082
O O10 0.233996 0.408716 0.357498
O O11 0.028241 0.470438 0.327517
O O12 0.197900 0.599268 0.279893
O O13 0.162087 0.311042 0.250345
O O14 0.726400 0.640035 0.849207
O O15 0.857845 0.427117 0.885102
O O16 0.347439 0.359179 0.859271
#
# Coordination Sequence:
#
# PCOD9282404 Si02
#       8
#     8   8   4   8   8   8   8   8
#     4  10  21  39  62 110 143 192 245 298 366 446
#     4  12  21  43  72 105 151 196 246 307 377 449
#     4  12  20  40  68 100 142 180 234 302 364 446
#     4  10  23  45  72  98 143 183 245 299 378 437
#     4  11  24  43  71 107 147 194 254 307 373 462
#     4  10  25  41  68  99 139 186 236 300 372 439
#     4  11  21  38  71 103 141 185 242 295 368 435
#     4  10  25  48  68 107 140 194 238 315 374 449
#
# _framework density 25.783633999999999
#
# number of rings (size 3 to 8) (size 9 to 14) (size 15 to 20)
#    0.800    0.533    4.000    2.400    1.867    2.667 
#    0.000    2.000    0.000    0.000    0.000    0.000 
#    0.000    0.000    0.000    0.000    0.000    0.000 
#
# Total GULP energy -167307.247039 kJ/mol
# GULP energy per Si atom -5576.908235 kJ/mol
# Density = 2.572495 g / cm^3
# Si number density = 25.783634 Si / 1000 Ang^3
#
#
#
# Elastic Constant Matrix: (Units=GPa)
#
#
# Indices 1 2 3 4 5 6 
#
# 1 42.1553 34.2495 9.8195 0.0000 -25.8755 0.0000
# 2 34.2495 109.3576 46.1115 0.0000 -10.8349 0.0000
# 3 9.8195 46.1115 113.9854 0.0000 -18.5589 0.0000
# 4 0.0000 0.0000 0.0000 49.5195 0.0000 -8.5907
# 5 -25.8755 -10.8349 -18.5589 0.0000 26.4876 0.0000
# 6 0.0000 0.0000 0.0000 -8.5907 0.0000 40.5116
#
#
#
# Elastic Compliance Matrix: (Units=1/GPa)
#
#
# Indices 1 2 3 4 5 6 
#
# 1 0.121756 -0.036210 0.023833 0.000000 0.120828 0.000000
# 2 -0.036210 0.021852 -0.011315 0.000000 -0.034363 0.000000
# 3 0.023833 -0.011315 0.016180 0.000000 0.029990 0.000000
# 4 0.000000 0.000000 0.000000 0.020965 0.000000 0.004446
# 5 0.120828 -0.034363 0.029990 0.000000 0.162746 0.000000
# 6 0.000000 0.000000 0.000000 0.004446 0.000000 0.025627
#
#
# Mechanical properties :
#
#
# Convention : Reuss Voigt Hill
#
# Bulk Modulus (GPa) = 8.89667 49.53992 29.21830
# Shear Modulus (GPa) = 11.01372 34.99158 23.00265
#
# Velocity S-wave (km/s) = 2.06903 3.68791 2.99011
# Velocity P-wave (km/s) = 3.02751 6.11471 4.82470
#
# Compressibility (1/GPa) = 0.11240161
#
# Stress axis : x y z
#
# Youngs Moduli (GPa) = 8.21317 45.76344 61.80333
#
# Poissons Ratio (x) = 1.65711 -1.47293
# Poissons Ratio (y) = 0.29740 0.69932
# Poissons Ratio (z) = -0.19574 0.51783
#
# Static dielectric constant tensor:
#      x y z
#    x 2.297280 0.000000 -0.060450 
#    y 0.000000 2.078850 0.000000 
#    z -0.060450 0.000000 2.437550 
# 
# From -- ./inp_files/273129.got.cif
#   From: 2010.05.17/outbox.cif.g08.bks.cpg/sg15_137_cif.got.tgz:273129.got - 2010.06.03 18:47:42.
