data_PCOD9282706
_publ_section_title
;
Structure prediction by ZEFSAII (Michael W. Deem and Ramdas Pophale) SiO2 
 PCOD9282706
Probable space group: C 2/C
;
_chemical_formula_sum "Si O2"
_cell_formula_units_Z 64
_cell_length_a 24.264559
_cell_length_b 14.683519
_cell_length_c 19.537683
_cell_angle_alpha 90.000000
_cell_angle_beta 152.748207
_cell_angle_gamma 90.000000
_cell_volume 3187.483172
_symmetry_space_group_name_H-M "C 2/C"
_symmetry_group_IT_number 15
_symmetry_cell_setting 'monoclinic'
loop_
_space_group_symop_operation_xyz
x,y,z
-x,y,1/2-z
-x,-y,-z
x,-y,1/2+z
1/2+x,1/2+y,z
1/2-x,1/2+y,1/2-z
1/2-x,1/2-y,-z
1/2+x,1/2-y,1/2+z
loop_
_atom_site_type_symbol
_atom_site_label
_atom_site_fract_x
_atom_site_fract_y
_atom_site_fract_z
Si Si1 0.960326 0.709944 0.282065
Si Si2 0.398820 0.013567 0.235049
Si Si3 0.140636 0.881438 0.278251
Si Si4 0.664379 0.962978 0.480286
Si Si5 0.315630 0.798999 0.367161
Si Si6 0.785532 0.469961 0.252745
Si Si7 0.213363 0.137641 0.273743
Si Si8 0.484489 0.462434 0.558941
O O1 0.881631 0.622824 0.216229
O O2 0.886289 0.803268 0.197880
O O3 0.000000 0.686665 0.250000
O O4 0.076135 0.723643 0.460242
O O5 0.537063 0.995387 0.368870
O O6 0.335076 0.960473 0.101669
O O7 0.361136 0.984782 0.268462
O O8 0.189828 0.823092 0.267346
O O9 0.244850 0.954349 0.404241
O O10 0.025503 0.948148 0.146090
O O11 0.700489 0.874710 0.564948
O O12 0.348973 0.893474 0.367743
O O13 0.296367 0.724332 0.286526
O O14 0.756740 0.556728 0.269506
O O15 0.652676 0.436206 0.082098
O O16 0.083764 0.116648 0.166277
O O17 0.500000 0.500000 0.500000
#
# Coordination Sequence:
#
# PCOD9282706 Si02
#       8
#     8   8   8   8   8   8   8   8
#     4  12  24  37  59  96 133 168 208 256 327 401
#     4  11  22  41  63  87 132 167 212 263 318 393
#     4  11  21  37  62  86 129 164 210 259 319 388
#     4  10  21  44  59  85 127 181 198 257 338 372
#     4  12  23  38  61  98 121 165 218 268 316 378
#     4  11  22  38  63  95 119 164 222 263 318 389
#     4  10  21  39  64  87 129 166 209 269 327 372
#     4   9  17  38  58  81 124 163 198 258 318 366
#
# _framework density 20.078537000000001
#
# number of rings (size 3 to 8) (size 9 to 14) (size 15 to 20)
#    0.000    1.250    6.250    2.250    0.000    7.000 
#    0.000    2.500    0.000    0.000    0.000    0.000 
#    0.000    0.000    0.000    0.000    0.000    0.000 
#
# Total GULP energy -178275.495747 kJ/mol
# GULP energy per Si atom -5571.109242 kJ/mol
# Density = 2.003284 g / cm^3
# Si number density = 20.078537 Si / 1000 Ang^3
#
#
#
# Elastic Constant Matrix: (Units=GPa)
#
#
# Indices 1 2 3 4 5 6 
#
# 1 45.3199 12.5169 7.8288 0.0000 -5.6845 0.0000
# 2 12.5169 53.4231 10.4354 0.0000 -14.5798 0.0000
# 3 7.8288 10.4354 59.4580 0.0000 -15.6670 0.0000
# 4 0.0000 0.0000 0.0000 17.4027 0.0000 -11.7641
# 5 -5.6845 -14.5798 -15.6670 0.0000 21.5291 0.0000
# 6 0.0000 0.0000 0.0000 -11.7641 0.0000 32.7247
#
#
#
# Elastic Compliance Matrix: (Units=1/GPa)
#
#
# Indices 1 2 3 4 5 6 
#
# 1 0.023921 -0.004768 -0.001855 0.000000 0.001737 0.000000
# 2 -0.004768 0.023913 0.000453 0.000000 0.015265 0.000000
# 3 -0.001855 0.000453 0.020953 0.000000 0.015065 0.000000
# 4 0.000000 0.000000 0.000000 0.075909 0.000000 0.027288
# 5 0.001737 0.015265 0.015065 0.000000 0.068208 0.000000
# 6 0.000000 0.000000 0.000000 0.027288 0.000000 0.040368
#
#
# Mechanical properties :
#
#
# Convention : Reuss Voigt Hill
#
# Bulk Modulus (GPa) = 17.71590 24.41813 21.06702
# Shear Modulus (GPa) = 17.57918 22.82596 20.20257
#
# Velocity S-wave (km/s) = 2.96213 3.37535 3.17547
# Velocity P-wave (km/s) = 4.53226 5.23244 4.89489
#
# Compressibility (1/GPa) = 0.05644645
#
# Stress axis : x y z
#
# Youngs Moduli (GPa) = 41.80503 41.81791 47.72625
#
# Poissons Ratio (x) = 0.19939 0.08854
# Poissons Ratio (y) = 0.19933 -0.02163
# Poissons Ratio (z) = 0.07755 -0.01895
#
# Static dielectric constant tensor:
#      x y z
#    x 1.690210 0.000000 0.021420 
#    y 0.000000 1.715380 0.000000 
#    z 0.021420 0.000000 1.778160 
# 
# From -- ./inp_files/219744.got.cif
#   From: 2010.05.17/outbox.cif.g08.bks.cpg/sg15_110_cif.got.tgz:219744.got - 2010.06.03 18:47:42.
