data_PCOD9282368
_publ_section_title
;
Structure prediction by ZEFSAII (Michael W. Deem and Ramdas Pophale) SiO2 
 PCOD9282368
Probable space group: C 2/C
;
_chemical_formula_sum "Si O2"
_cell_formula_units_Z 36
_cell_length_a 21.225639
_cell_length_b 6.762183
_cell_length_c 11.929912
_cell_angle_alpha 90.000000
_cell_angle_beta 67.557579
_cell_angle_gamma 90.000000
_cell_volume 1582.635132
_symmetry_space_group_name_H-M "C 2/C"
_symmetry_group_IT_number 15
_symmetry_cell_setting 'monoclinic'
loop_
_space_group_symop_operation_xyz
x,y,z
-x,y,1/2-z
-x,-y,-z
x,-y,1/2+z
1/2+x,1/2+y,z
1/2-x,1/2+y,1/2-z
1/2-x,1/2-y,-z
1/2+x,1/2-y,1/2+z
loop_
_atom_site_type_symbol
_atom_site_label
_atom_site_fract_x
_atom_site_fract_y
_atom_site_fract_z
Si Si1 0.106327 0.816731 0.817234
Si Si2 0.616546 0.063248 0.020743
Si Si3 0.842598 0.216032 0.652709
Si Si4 0.500000 0.914437 0.250000
Si Si5 0.283705 0.026111 0.864020
O O1 0.116447 0.050256 0.807886
O O2 0.166530 0.705048 0.708734
O O3 0.037906 0.727315 0.812258
O O4 0.111430 0.747311 0.942499
O O5 0.557312 0.047273 0.152046
O O6 0.689150 0.044935 0.034313
O O7 0.611033 0.870377 0.945142
O O8 0.797535 0.348193 0.767725
O O9 0.791942 0.106213 0.600653
#
# Coordination Sequence:
#
# PCOD9282368 Si02
#       5
#     8   8   8   4   8
#     4  10  22  40  63  91 121 162 203 246 302 361
#     4  10  23  39  63  91 120 163 204 248 299 357
#     4  11  21  39  62  93 123 158 203 245 309 361
#     4  10  22  44  62  84 128 164 202 252 296 352
#     4  10  21  39  61  91 129 157 193 254 306 362
#
# _framework density 22.746870999999999
#
# number of rings (size 3 to 8) (size 9 to 14) (size 15 to 20)
#    0.000    1.778    2.222    1.333    0.000    5.333 
#    0.000   11.111    0.000    0.000    0.000    0.000 
#    0.000    0.000    0.000    0.000    0.000    0.000 
#
# Total GULP energy -100728.016929 kJ/mol
# GULP energy per Si atom -5596.000941 kJ/mol
# Density = 2.269510 g / cm^3
# Si number density = 22.746871 Si / 1000 Ang^3
#
#
#
# Elastic Constant Matrix: (Units=GPa)
#
#
# Indices 1 2 3 4 5 6 
#
# 1 46.5230 8.0093 -4.6444 0.0000 9.3760 0.0000
# 2 8.0093 86.4913 17.0805 0.0000 -2.1341 0.0000
# 3 -4.6444 17.0805 45.6188 0.0000 2.3234 0.0000
# 4 0.0000 0.0000 0.0000 3.6879 0.0000 1.1402
# 5 9.3760 -2.1341 2.3234 0.0000 32.8294 0.0000
# 6 0.0000 0.0000 0.0000 1.1402 0.0000 16.4065
#
#
#
# Elastic Compliance Matrix: (Units=1/GPa)
#
#
# Indices 1 2 3 4 5 6 
#
# 1 0.023918 -0.003186 0.004001 0.000000 -0.007321 0.000000
# 2 -0.003186 0.012952 -0.005282 0.000000 0.002126 0.000000
# 3 0.004001 -0.005282 0.024470 0.000000 -0.003218 0.000000
# 4 0.000000 0.000000 0.000000 0.277113 0.000000 -0.019258
# 5 -0.007321 0.002126 -0.003218 0.000000 0.032917 0.000000
# 6 0.000000 0.000000 0.000000 -0.019258 0.000000 0.062290
#
#
# Mechanical properties :
#
#
# Convention : Reuss Voigt Hill
#
# Bulk Modulus (GPa) = 19.08178 24.39155 21.73667
# Shear Modulus (GPa) = 10.86808 21.13061 15.99935
#
# Velocity S-wave (km/s) = 2.18820 3.05117 2.65498
# Velocity P-wave (km/s) = 3.84594 4.81240 4.35605
#
# Compressibility (1/GPa) = 0.05240601
#
# Stress axis : x y z
#
# Youngs Moduli (GPa) = 41.80945 77.20550 40.86683
#
# Poissons Ratio (x) = 0.24594 -0.16350
# Poissons Ratio (y) = 0.13319 0.21587
# Poissons Ratio (z) = -0.16727 0.40782
#
# Static dielectric constant tensor:
#      x y z
#    x 1.857910 0.000000 0.020070 
#    y 0.000000 1.801030 0.000000 
#    z 0.020070 0.000000 1.849650 
# 
# From -- ./inp_files/102630.got.cif
#   From: 2010.05.17/outbox.cif.g08.bks.cpg/sg15_52_cif.got.tgz:102630.got - 2010.06.03 18:47:42.
