data_PCOD9282651
_publ_section_title
;
Structure prediction by ZEFSAII (Michael W. Deem and Ramdas Pophale) SiO2 
 PCOD9282651
Probable space group: C 2/C
;
_chemical_formula_sum "Si O2"
_cell_formula_units_Z 48
_cell_length_a 8.280808
_cell_length_b 7.126098
_cell_length_c 30.186742
_cell_angle_alpha 90.000000
_cell_angle_beta 100.716573
_cell_angle_gamma 90.000000
_cell_volume 1750.247271
_symmetry_space_group_name_H-M "C 2/C"
_symmetry_group_IT_number 15
_symmetry_cell_setting 'monoclinic'
loop_
_space_group_symop_operation_xyz
x,y,z
-x,y,1/2-z
-x,-y,-z
x,-y,1/2+z
1/2+x,1/2+y,z
1/2-x,1/2+y,1/2-z
1/2-x,1/2-y,-z
1/2+x,1/2-y,1/2+z
loop_
_atom_site_type_symbol
_atom_site_label
_atom_site_fract_x
_atom_site_fract_y
_atom_site_fract_z
Si Si1 0.125549 0.951011 0.723080
Si Si2 0.628175 0.056748 0.443702
Si Si3 0.354889 0.494523 0.028182
Si Si4 0.757880 0.454310 0.889321
Si Si5 0.111880 0.634821 0.194878
Si Si6 0.274522 0.125262 0.141665
O O1 0.289698 0.963820 0.761050
O O2 0.147207 0.870723 0.675218
O O3 0.000000 0.852820 0.750000
O O4 0.069692 0.161198 0.710789
O O5 0.648449 0.277293 0.456526
O O6 0.693379 0.955902 0.490890
O O7 0.440870 0.024174 0.419765
O O8 0.745050 0.023227 0.406549
O O9 0.355162 0.606320 0.074838
O O10 0.500000 0.500000 0.000000
O O11 0.781811 0.342134 0.844898
O O12 0.699353 0.657846 0.869831
O O13 0.941853 0.544505 0.171215
#
# Coordination Sequence:
#
# PCOD9282651 Si02
#       6
#     8   8   8   8   8   8
#     4  12  25  41  65  93 124 161 209 260 314 376
#     4   9  21  39  62  92 128 166 208 255 307 368
#     4  10  21  39  63  94 130 165 207 260 308 363
#     4  10  21  42  67  91 127 169 208 257 314 371
#     4  11  24  43  63  90 126 163 206 259 312 373
#     4  10  23  44  64  89 127 164 205 259 313 371
#
# _framework density 27.424699
#
# number of rings (size 3 to 8) (size 9 to 14) (size 15 to 20)
#    0.000    1.667    0.000    4.000    0.000   10.000 
#    0.000    9.167    0.000    0.000    0.000    0.000 
#    0.000    0.000    0.000    0.000    0.000    0.000 
#
# Total GULP energy -134386.734008 kJ/mol
# GULP energy per Si atom -5599.447250 kJ/mol
# Density = 2.736228 g / cm^3
# Si number density = 27.424699 Si / 1000 Ang^3
#
#
#
# Elastic Constant Matrix: (Units=GPa)
#
#
# Indices 1 2 3 4 5 6 
#
# 1 84.4489 1.8228 64.2766 0.0000 -12.9166 0.0000
# 2 1.8228 44.6003 39.5047 0.0000 -1.7315 0.0000
# 3 64.2766 39.5047 267.3983 0.0000 -51.9742 0.0000
# 4 0.0000 0.0000 0.0000 43.4276 0.0000 -2.3582
# 5 -12.9166 -1.7315 -51.9742 0.0000 80.7864 0.0000
# 6 0.0000 0.0000 0.0000 -2.3582 0.0000 25.5787
#
#
#
# Elastic Compliance Matrix: (Units=1/GPa)
#
#
# Indices 1 2 3 4 5 6 
#
# 1 0.014821 0.002958 -0.004031 0.000000 -0.000160 0.000000
# 2 0.002958 0.026725 -0.005093 0.000000 -0.002231 0.000000
# 3 -0.004031 -0.005093 0.006074 0.000000 0.003154 0.000000
# 4 0.000000 0.000000 0.000000 0.023143 0.000000 0.002134
# 5 -0.000160 -0.002231 0.003154 0.000000 0.014334 0.000000
# 6 0.000000 0.000000 0.000000 0.002134 0.000000 0.039292
#
#
# Mechanical properties :
#
#
# Convention : Reuss Voigt Hill
#
# Bulk Modulus (GPa) = 28.33717 67.51730 47.92723
# Shear Modulus (GPa) = 33.67389 49.34810 41.51100
#
# Velocity S-wave (km/s) = 3.50790 4.24654 3.89477
# Velocity P-wave (km/s) = 5.17323 6.97974 6.14325
#
# Compressibility (1/GPa) = 0.03528934
#
# Stress axis : x y z
#
# Youngs Moduli (GPa) = 67.47113 37.41818 164.63117
#
# Poissons Ratio (x) = -0.11070 0.66361
# Poissons Ratio (y) = -0.19961 0.83847
# Poissons Ratio (z) = 0.27197 0.19057
#
# Static dielectric constant tensor:
#      x y z
#    x 2.231390 0.000000 -0.053410 
#    y 0.000000 2.143200 0.000000 
#    z -0.053410 0.000000 2.113990 
# 
# From -- ./inp_files/306643.got.cif
#   From: 2010.05.17/outbox.cif.g08.bks.cpg/sg15_154_cif.got.tgz:306643.got - 2010.06.03 18:47:42.
