data_PCOD9282643
_publ_section_title
;
Structure prediction by ZEFSAII (Michael W. Deem and Ramdas Pophale) SiO2 
 PCOD9282643
Probable space group: C 2/C
;
_chemical_formula_sum "Si O2"
_cell_formula_units_Z 44
_cell_length_a 11.140289
_cell_length_b 15.271044
_cell_length_c 15.022559
_cell_angle_alpha 90.000000
_cell_angle_beta 115.843737
_cell_angle_gamma 90.000000
_cell_volume 2300.090848
_symmetry_space_group_name_H-M "C 2/C"
_symmetry_group_IT_number 15
_symmetry_cell_setting 'monoclinic'
loop_
_space_group_symop_operation_xyz
x,y,z
-x,y,1/2-z
-x,-y,-z
x,-y,1/2+z
1/2+x,1/2+y,z
1/2-x,1/2+y,1/2-z
1/2-x,1/2-y,-z
1/2+x,1/2-y,1/2+z
loop_
_atom_site_type_symbol
_atom_site_label
_atom_site_fract_x
_atom_site_fract_y
_atom_site_fract_z
Si Si1 0.289585 0.967750 0.908478
Si Si2 0.480352 0.447571 0.138946
Si Si3 0.500000 0.934917 0.250000
Si Si4 0.354797 0.697127 0.474356
Si Si5 0.752117 0.049648 0.312611
Si Si6 0.973365 0.633046 0.931664
O O1 0.279369 0.937374 0.802370
O O2 0.143465 0.984352 0.900727
O O3 0.365458 0.062087 0.933719
O O4 0.383034 0.900788 0.990217
O O5 0.500000 0.424180 0.250000
O O6 0.613942 0.491470 0.145022
O O7 0.439094 0.365652 0.066078
O O8 0.534885 0.876971 0.176623
O O9 0.626424 0.996999 0.311201
O O10 0.250000 0.750000 0.500000
O O11 0.280972 0.636188 0.378166
O O12 0.442496 0.770567 0.454608
#
# Coordination Sequence:
#
# PCOD9282643 Si02
#       6
#     8   8   4   8   8   8
#     4   9  19  41  66  87 122 169 204 238 314 375
#     4  10  21  42  64  90 125 167 204 249 308 375
#     4  10  22  44  66  82 124 176 208 240 314 388
#     4  12  24  38  63  99 126 151 211 267 302 355
#     4  10  23  40  64  89 124 168 204 249 308 376
#     4  10  21  39  63  94 122 160 205 257 301 369
#
# _framework density 19.129678999999999
#
# number of rings (size 3 to 8) (size 9 to 14) (size 15 to 20)
#    0.000    1.818    1.818    1.636    5.091    1.455 
#    4.909    1.818    0.000    0.000    0.000    0.000 
#    0.000    0.000    0.000    0.000    0.000    0.000 
#
# Total GULP energy -122941.334139 kJ/mol
# GULP energy per Si atom -5588.242461 kJ/mol
# Density = 1.908614 g / cm^3
# Si number density = 19.129679 Si / 1000 Ang^3
#
#
#
# Elastic Constant Matrix: (Units=GPa)
#
#
# Indices 1 2 3 4 5 6 
#
# 1 99.2232 45.9464 25.4067 0.0000 12.9059 0.0000
# 2 45.9464 116.1590 73.3196 0.0000 -9.5575 0.0000
# 3 25.4067 73.3196 91.9190 0.0000 12.5322 0.0000
# 4 0.0000 0.0000 0.0000 19.5744 0.0000 -11.1021
# 5 12.9059 -9.5575 12.5322 0.0000 26.2370 0.0000
# 6 0.0000 0.0000 0.0000 -11.1021 0.0000 16.2439
#
#
#
# Elastic Compliance Matrix: (Units=1/GPa)
#
#
# Indices 1 2 3 4 5 6 
#
# 1 0.016035 -0.012652 0.007876 0.000000 -0.016258 0.000000
# 2 -0.012652 0.033743 -0.027750 0.000000 0.031770 0.000000
# 3 0.007876 -0.027750 0.035024 0.000000 -0.030712 0.000000
# 4 0.000000 0.000000 0.000000 0.083427 0.000000 0.057020
# 5 -0.016258 0.031770 -0.030712 0.000000 0.072355 0.000000
# 6 0.000000 0.000000 0.000000 0.057020 0.000000 0.100532
#
#
# Mechanical properties :
#
#
# Convention : Reuss Voigt Hill
#
# Bulk Modulus (GPa) = 50.62907 66.29408 58.46157
# Shear Modulus (GPa) = 12.11387 23.25296 17.68342
#
# Velocity S-wave (km/s) = 2.51918 3.49025 3.04369
# Velocity P-wave (km/s) = 5.91484 7.13952 6.55584
#
# Compressibility (1/GPa) = 0.01975150
#
# Stress axis : x y z
#
# Youngs Moduli (GPa) = 62.36445 29.63587 28.55182
#
# Poissons Ratio (x) = 0.37495 -0.22489
# Poissons Ratio (y) = 0.78902 0.79230
# Poissons Ratio (z) = -0.49121 0.82239
#
# Static dielectric constant tensor:
#      x y z
#    x 1.684530 0.000000 -0.006230 
#    y 0.000000 1.617100 0.000000 
#    z -0.006230 0.000000 1.686900 
# 
# From -- ./inp_files/196646.got.cif
#   From: 2010.05.17/outbox.cif.g08.bks.cpg/sg15_99_cif.got.tgz:196646.got - 2010.06.03 18:47:42.
