data_PCOD9282681
_publ_section_title
;
Structure prediction by ZEFSAII (Michael W. Deem and Ramdas Pophale) SiO2 
 PCOD9282681
Probable space group: C 2/C
;
_chemical_formula_sum "Si O2"
_cell_formula_units_Z 56
_cell_length_a 20.922781
_cell_length_b 21.925940
_cell_length_c 10.247053
_cell_angle_alpha 90.000000
_cell_angle_beta 148.059254
_cell_angle_gamma 90.000000
_cell_volume 2486.948103
_symmetry_space_group_name_H-M "C 2/C"
_symmetry_group_IT_number 15
_symmetry_cell_setting 'monoclinic'
loop_
_space_group_symop_operation_xyz
x,y,z
-x,y,1/2-z
-x,-y,-z
x,-y,1/2+z
1/2+x,1/2+y,z
1/2-x,1/2+y,1/2-z
1/2-x,1/2-y,-z
1/2+x,1/2-y,1/2+z
loop_
_atom_site_type_symbol
_atom_site_label
_atom_site_fract_x
_atom_site_fract_y
_atom_site_fract_z
Si Si1 0.693612 0.288610 0.677353
Si Si2 0.619052 0.858506 0.650813
Si Si3 0.770964 0.968100 0.022594
Si Si4 0.554076 0.960232 0.209938
Si Si5 0.632883 0.456260 0.037283
Si Si6 0.065221 0.773417 0.174052
Si Si7 0.360051 0.677499 0.961878
O O1 0.792191 0.340702 0.815828
O O2 0.632599 0.278618 0.428617
O O3 0.574004 0.295612 0.557518
O O4 0.770801 0.230084 0.856305
O O5 0.498571 0.893197 0.397771
O O6 0.579662 0.796409 0.652942
O O7 0.691876 0.906864 0.866834
O O8 0.866114 0.959715 0.304079
O O9 0.693469 0.024815 0.943982
O O10 0.808815 0.988778 0.943486
O O11 0.500000 0.985242 0.250000
O O12 0.500000 0.000000 0.000000
O O13 0.500000 0.453571 0.750000
O O14 0.688240 0.390275 0.096033
O O15 0.131765 0.812474 0.179603
O O16 0.500000 0.685103 0.250000
#
# Coordination Sequence:
#
# PCOD9282681 Si02
#       7
#     8   8   8   8   8   8   8
#     4  10  21  40  66  97 125 169 215 256 318 381
#     4  10  21  39  63  99 131 166 211 268 314 387
#     4  11  22  42  66  93 132 168 214 273 323 382
#     4  10  22  41  63  97 129 167 209 265 326 384
#     4  11  24  43  64  93 127 173 219 266 324 390
#     4  10  21  40  66  96 126 171 213 256 319 384
#     4  10  22  41  62  89 131 164 211 268 315 380
#
# _framework density 22.51756
#
# number of rings (size 3 to 8) (size 9 to 14) (size 15 to 20)
#    0.000    1.714    0.000    5.571    2.000    2.857 
#   25.714    0.000    0.000    0.000    0.000    0.000 
#    0.000    0.000    0.000    0.000    0.000    0.000 
#
# Total GULP energy -156263.704757 kJ/mol
# GULP energy per Si atom -5580.846598 kJ/mol
# Density = 2.246631 g / cm^3
# Si number density = 22.517560 Si / 1000 Ang^3
#
#
#
# Elastic Constant Matrix: (Units=GPa)
#
#
# Indices 1 2 3 4 5 6 
#
# 1 56.5745 11.6560 -13.0934 0.0000 -6.6184 0.0000
# 2 11.6560 94.9534 24.7374 0.0000 4.0257 0.0000
# 3 -13.0934 24.7374 60.5102 0.0000 -8.9397 0.0000
# 4 0.0000 0.0000 0.0000 46.9315 0.0000 -6.2995
# 5 -6.6184 4.0257 -8.9397 0.0000 41.0017 0.0000
# 6 0.0000 0.0000 0.0000 -6.2995 0.0000 33.1675
#
#
#
# Elastic Compliance Matrix: (Units=1/GPa)
#
#
# Indices 1 2 3 4 5 6 
#
# 1 0.020956 -0.004692 0.007254 0.000000 0.005425 0.000000
# 2 -0.004692 0.013048 -0.006872 0.000000 -0.003537 0.000000
# 3 0.007254 -0.006872 0.021883 0.000000 0.006617 0.000000
# 4 0.000000 0.000000 0.000000 0.021865 0.000000 0.004153
# 5 0.005425 -0.003537 0.006617 0.000000 0.027055 0.000000
# 6 0.000000 0.000000 0.000000 0.004153 0.000000 0.030939
#
#
# Mechanical properties :
#
#
# Convention : Reuss Voigt Hill
#
# Bulk Modulus (GPa) = 21.15652 28.73755 24.94704
# Shear Modulus (GPa) = 31.22636 36.80266 34.01451
#
# Velocity S-wave (km/s) = 3.72796 4.04715 3.89083
# Velocity P-wave (km/s) = 5.28641 5.88466 5.59354
#
# Compressibility (1/GPa) = 0.04726675
#
# Stress axis : x y z
#
# Youngs Moduli (GPa) = 47.71860 76.64154 45.69798
#
# Poissons Ratio (x) = 0.35963 -0.33151
# Poissons Ratio (y) = 0.22392 0.31404
# Poissons Ratio (z) = -0.34617 0.52668
#
# Static dielectric constant tensor:
#      x y z
#    x 1.855480 0.000000 0.007160 
#    y 0.000000 1.881040 0.000000 
#    z 0.007160 0.000000 1.880930 
# 
# From -- ./inp_files/119867.got.cif
#   From: 2010.05.17/outbox.cif.g08.bks.cpg/sg15_60_cif.got.tgz:119867.got - 2010.06.03 18:47:42.
