data_PCOD9282654
_publ_section_title
;
Structure prediction by ZEFSAII (Michael W. Deem and Ramdas Pophale) SiO2 
 PCOD9282654
Probable space group: C 2/C
;
_chemical_formula_sum "Si O2"
_cell_formula_units_Z 44
_cell_length_a 17.373025
_cell_length_b 18.929753
_cell_length_c 5.145843
_cell_angle_alpha 90.000000
_cell_angle_beta 85.935779
_cell_angle_gamma 90.000000
_cell_volume 1688.042590
_symmetry_space_group_name_H-M "C 2/C"
_symmetry_group_IT_number 15
_symmetry_cell_setting 'monoclinic'
loop_
_space_group_symop_operation_xyz
x,y,z
-x,y,1/2-z
-x,-y,-z
x,-y,1/2+z
1/2+x,1/2+y,z
1/2-x,1/2+y,1/2-z
1/2-x,1/2-y,-z
1/2+x,1/2-y,1/2+z
loop_
_atom_site_type_symbol
_atom_site_label
_atom_site_fract_x
_atom_site_fract_y
_atom_site_fract_z
Si Si1 0.698460 0.794467 0.711203
Si Si2 0.947727 0.737583 0.515341
Si Si3 0.661256 0.451931 0.279614
Si Si4 0.500000 0.050771 0.750000
Si Si5 0.834373 0.450426 0.267312
Si Si6 0.847264 0.171459 0.386685
O O1 0.750000 0.750000 0.500000
O O2 0.620603 0.813363 0.579470
O O3 0.762176 0.849470 0.795633
O O4 0.669967 0.743804 0.951008
O O5 0.902864 0.806514 0.638072
O O6 0.000000 0.716646 0.750000
O O7 0.000000 0.750572 0.250000
O O8 0.649705 0.485326 0.997414
O O9 0.748790 0.420246 0.255647
O O10 0.618224 0.386030 0.425037
O O11 0.500000 0.000000 0.500000
O O12 0.583268 0.088207 0.727628
O O13 0.835381 0.497287 0.524347
#
# Coordination Sequence:
#
# PCOD9282654 Si02
#       6
#     8   8   8   4   8   8
#     4   9  20  37  64  95 122 164 202 264 327 388
#     4  11  21  37  63  97 127 162 208 260 327 396
#     4  10  22  35  56  86 122 165 215 262 302 366
#     4   8  12  20  40  60  84 120 168 220 268 322
#     4   8  14  26  41  67  93 130 180 231 278 328
#     4  10  21  39  63  94 131 167 210 264 324 380
#
# _framework density 26.065693
#
# number of rings (size 3 to 8) (size 9 to 14) (size 15 to 20)
#    0.000    2.545    1.818    0.000    5.091    0.000 
#    0.000    0.000    0.000    9.818    9.455    0.000 
#    0.000    0.182    0.000    0.000    0.000    0.000 
#
# Total GULP energy -122726.261918 kJ/mol
# GULP energy per Si atom -5578.466451 kJ/mol
# Density = 2.600637 g / cm^3
# Si number density = 26.065693 Si / 1000 Ang^3
#
#
#
# Elastic Constant Matrix: (Units=GPa)
#
#
# Indices 1 2 3 4 5 6 
#
# 1 89.5158 13.9364 41.9938 0.0000 7.4913 0.0000
# 2 13.9364 54.5414 32.8104 0.0000 0.3271 0.0000
# 3 41.9938 32.8104 208.8834 0.0000 -1.1282 0.0000
# 4 0.0000 0.0000 0.0000 44.1045 0.0000 15.5453
# 5 7.4913 0.3271 -1.1282 0.0000 52.6408 0.0000
# 6 0.0000 0.0000 0.0000 15.5453 0.0000 9.4340
#
#
#
# Elastic Compliance Matrix: (Units=1/GPa)
#
#
# Indices 1 2 3 4 5 6 
#
# 1 0.012679 -0.001866 -0.002266 0.000000 -0.001841 0.000000
# 2 -0.001866 0.020524 -0.002848 0.000000 0.000077 0.000000
# 3 -0.002266 -0.002848 0.005693 0.000000 0.000462 0.000000
# 4 0.000000 0.000000 0.000000 0.054086 0.000000 -0.089122
# 5 -0.001841 0.000077 0.000462 0.000000 0.019268 0.000000
# 6 0.000000 0.000000 0.000000 -0.089122 0.000000 0.252854
#
#
# Mechanical properties :
#
#
# Convention : Reuss Voigt Hill
#
# Bulk Modulus (GPa) = 40.10217 58.93577 49.51897
# Shear Modulus (GPa) = 12.90737 38.84921 25.87829
#
# Velocity S-wave (km/s) = 2.22769 3.86480 3.15431
# Velocity P-wave (km/s) = 4.69417 6.52496 5.68377
#
# Compressibility (1/GPa) = 0.02493631
#
# Stress axis : x y z
#
# Youngs Moduli (GPa) = 78.87248 48.72243 175.66077
#
# Poissons Ratio (x) = 0.09089 0.39802
# Poissons Ratio (y) = 0.14714 0.50035
# Poissons Ratio (z) = 0.17871 0.13878
#
# Static dielectric constant tensor:
#      x y z
#    x 2.164510 0.000000 0.024750 
#    y 0.000000 2.060280 0.000000 
#    z 0.024750 0.000000 2.081600 
# 
# From -- ./inp_files/10344.got.cif
#   From: 2010.05.17/outbox.cif.g08.bks.cpg/sg15_6_cif.got.tgz:10344.got - 2010.06.03 18:47:42.
