data_PCOD9282493
_publ_section_title
;
Structure prediction by ZEFSAII (Michael W. Deem and Ramdas Pophale) SiO2 
 PCOD9282493
Probable space group: C 2/C
;
_chemical_formula_sum "Si O2"
_cell_formula_units_Z 56
_cell_length_a 10.334309
_cell_length_b 20.441218
_cell_length_c 14.037108
_cell_angle_alpha 90.000000
_cell_angle_beta 67.797038
_cell_angle_gamma 90.000000
_cell_volume 2745.408525
_symmetry_space_group_name_H-M "C 2/C"
_symmetry_group_IT_number 15
_symmetry_cell_setting 'monoclinic'
loop_
_space_group_symop_operation_xyz
x,y,z
-x,y,1/2-z
-x,-y,-z
x,-y,1/2+z
1/2+x,1/2+y,z
1/2-x,1/2+y,1/2-z
1/2-x,1/2-y,-z
1/2+x,1/2-y,1/2+z
loop_
_atom_site_type_symbol
_atom_site_label
_atom_site_fract_x
_atom_site_fract_y
_atom_site_fract_z
Si Si1 0.154962 0.408108 0.749886
Si Si2 0.561617 0.928526 0.989868
Si Si3 0.840640 0.550051 0.830288
Si Si4 0.546195 0.703612 0.525218
Si Si5 0.201164 0.666022 0.954982
Si Si6 0.728745 0.317360 0.277079
Si Si7 0.899278 0.806831 0.701351
O O1 0.137375 0.416204 0.868754
O O2 0.076334 0.383297 0.465861
O O3 0.264435 0.349519 0.711155
O O4 0.000000 0.393858 0.750000
O O5 0.705132 0.976055 0.685024
O O6 0.654991 0.929855 0.059370
O O7 0.500000 0.000000 0.000000
O O8 0.767257 0.608996 0.795768
O O9 0.000000 0.550508 0.750000
O O10 0.666044 0.649826 0.516146
O O11 0.618843 0.773351 0.523840
O O12 0.411333 0.698169 0.627337
O O13 0.518424 0.704088 0.420148
O O14 0.276461 0.685229 0.835502
O O15 0.844366 0.261051 0.263556
O O16 0.000000 0.840110 0.750000
#
# Coordination Sequence:
#
# PCOD9282493 Si02
#       7
#     8   8   8   8   8   8   8
#     4  11  23  43  67  94 128 169 215 262 317 383
#     4  12  21  37  67  94 120 168 212 261 313 369
#     4  11  22  40  64  94 124 161 220 262 307 374
#     4  10  23  39  62  92 125 168 205 260 323 372
#     4  10  21  39  62  93 126 157 214 265 310 378
#     4  11  22  41  66  91 127 164 210 260 317 379
#     4  11  26  42  63  95 133 166 211 266 321 381
#
# _framework density 20.397691999999999
#
# number of rings (size 3 to 8) (size 9 to 14) (size 15 to 20)
#    0.000    1.143    4.286    2.571    4.000    2.857 
#    0.000    3.571    0.000    0.000    0.000    0.000 
#    0.000    0.000    0.000    0.000    0.000    0.000 
#
# Total GULP energy -156161.417325 kJ/mol
# GULP energy per Si atom -5577.193476 kJ/mol
# Density = 2.035127 g / cm^3
# Si number density = 20.397692 Si / 1000 Ang^3
#
#
#
# Elastic Constant Matrix: (Units=GPa)
#
#
# Indices 1 2 3 4 5 6 
#
# 1 67.6577 32.6675 27.0170 0.0000 6.3655 0.0000
# 2 32.6675 76.2433 10.0191 0.0000 -11.4548 0.0000
# 3 27.0170 10.0191 113.0248 0.0000 0.4569 0.0000
# 4 0.0000 0.0000 0.0000 22.5447 0.0000 5.0607
# 5 6.3655 -11.4548 0.4569 0.0000 32.7388 0.0000
# 6 0.0000 0.0000 0.0000 5.0607 0.0000 16.0742
#
#
#
# Elastic Compliance Matrix: (Units=1/GPa)
#
#
# Indices 1 2 3 4 5 6 
#
# 1 0.022113 -0.010068 -0.004362 0.000000 -0.007761 0.000000
# 2 -0.010068 0.018605 0.000723 0.000000 0.008457 0.000000
# 3 -0.004362 0.000723 0.009822 0.000000 0.000964 0.000000
# 4 0.000000 0.000000 0.000000 0.047729 0.000000 -0.015027
# 5 -0.007761 0.008457 0.000964 0.000000 0.034999 0.000000
# 6 0.000000 0.000000 0.000000 -0.015027 0.000000 0.066942
#
#
# Mechanical properties :
#
#
# Convention : Reuss Voigt Hill
#
# Bulk Modulus (GPa) = 43.23844 44.03699 43.63772
# Shear Modulus (GPa) = 21.24642 26.75304 23.99973
#
# Velocity S-wave (km/s) = 3.23090 3.62549 3.43387
# Velocity P-wave (km/s) = 5.92976 6.25793 6.09605
#
# Compressibility (1/GPa) = 0.02312757
#
# Stress axis : x y z
#
# Youngs Moduli (GPa) = 45.22168 53.74887 101.80910
#
# Poissons Ratio (x) = 0.54112 0.44410
# Poissons Ratio (y) = 0.45527 -0.07362
# Poissons Ratio (z) = 0.19726 -0.03886
#
# Static dielectric constant tensor:
#      x y z
#    x 1.704350 0.000000 0.001080 
#    y 0.000000 1.092150 0.000000 
#    z 0.001080 0.000000 1.655120 
# 
# From -- ./inp_files/90714.got.cif
#   From: 2010.05.17/outbox.cif.g08.bks.cpg/sg15_46_cif.got.tgz:90714.got - 2010.06.03 18:47:42.
