data_PCOD9282017
_publ_section_title
;
Structure prediction by ZEFSAII (Michael W. Deem and Ramdas Pophale) SiO2 
 PCOD9282017
Probable space group: C 2/C
;
_chemical_formula_sum "Si O2"
_cell_formula_units_Z 40
_cell_length_a 15.951164
_cell_length_b 8.640569
_cell_length_c 15.150706
_cell_angle_alpha 90.000000
_cell_angle_beta 69.121280
_cell_angle_gamma 90.000000
_cell_volume 1951.062118
_symmetry_space_group_name_H-M "C 2/C"
_symmetry_group_IT_number 15
_symmetry_cell_setting 'monoclinic'
loop_
_space_group_symop_operation_xyz
x,y,z
-x,y,1/2-z
-x,-y,-z
x,-y,1/2+z
1/2+x,1/2+y,z
1/2-x,1/2+y,1/2-z
1/2-x,1/2-y,-z
1/2+x,1/2-y,1/2+z
loop_
_atom_site_type_symbol
_atom_site_label
_atom_site_fract_x
_atom_site_fract_y
_atom_site_fract_z
Si Si1 0.292344 0.317673 0.846526
Si Si2 0.157460 0.698268 0.081088
Si Si3 0.010852 0.161550 0.946569
Si Si4 0.117779 0.351284 0.037251
Si Si5 0.180693 0.148513 0.753588
O O1 0.369756 0.259684 0.882805
O O2 0.266114 0.193785 0.781306
O O3 0.310168 0.482001 0.795224
O O4 0.204180 0.331447 0.941190
O O5 0.126107 0.525657 0.068649
O O6 0.169857 0.725958 0.180147
O O7 0.078949 0.805333 0.073066
O O8 0.250000 0.750000 0.000000
O O9 0.093896 0.151840 0.848309
O O10 0.034203 0.295211 0.009735
O O11 0.000000 0.000000 0.000000
#
# Coordination Sequence:
#
# PCOD9282017 Si02
#       5
#     8   8   8   8   8
#     4  10  21  38  67  97 126 172 215 275 322 400
#     4  12  24  42  68  96 132 177 221 273 339 392
#     4  11  26  43  67  96 137 175 221 277 331 397
#     4  10  22  42  65  94 133 168 220 270 336 391
#     4  11  23  40  66  98 134 170 227 267 335 397
#
# _framework density 20.501653999999998
#
# number of rings (size 3 to 8) (size 9 to 14) (size 15 to 20)
#    0.000    1.200    2.000    3.600    8.400    0.000 
#    0.000    4.000    0.000    0.000    0.000    0.000 
#    0.000    0.000    0.000    0.000    0.000    0.000 
#
# Total GULP energy -111816.644029 kJ/mol
# GULP energy per Si atom -5590.832201 kJ/mol
# Density = 2.045499 g / cm^3
# Si number density = 20.501654 Si / 1000 Ang^3
#
#
#
# Elastic Constant Matrix: (Units=GPa)
#
#
# Indices 1 2 3 4 5 6 
#
# 1 70.2233 -10.3369 29.1172 0.0000 13.3615 0.0000
# 2 -10.3369 96.9392 39.7864 0.0000 8.5163 0.0000
# 3 29.1172 39.7864 110.5557 0.0000 24.8532 0.0000
# 4 0.0000 0.0000 0.0000 45.4907 0.0000 12.1125
# 5 13.3615 8.5163 24.8532 0.0000 24.7737 0.0000
# 6 0.0000 0.0000 0.0000 12.1125 0.0000 31.4170
#
#
#
# Elastic Compliance Matrix: (Units=1/GPa)
#
#
# Indices 1 2 3 4 5 6 
#
# 1 0.018193 0.004551 -0.004999 0.000000 -0.006362 0.000000
# 2 0.004551 0.013243 -0.005667 0.000000 -0.001321 0.000000
# 3 -0.004999 -0.005667 0.014665 0.000000 -0.010067 0.000000
# 4 0.000000 0.000000 0.000000 0.024497 0.000000 -0.009445
# 5 -0.006362 -0.001321 -0.010067 0.000000 0.054350 0.000000
# 6 0.000000 0.000000 0.000000 -0.009445 0.000000 0.035471
#
#
# Mechanical properties :
#
#
# Convention : Reuss Voigt Hill
#
# Bulk Modulus (GPa) = 29.52523 43.87240 36.69882
# Shear Modulus (GPa) = 27.18257 34.94638 31.06447
#
# Velocity S-wave (km/s) = 3.64520 4.13312 3.89680
# Velocity P-wave (km/s) = 5.67004 6.65002 6.17949
#
# Compressibility (1/GPa) = 0.03386934
#
# Stress axis : x y z
#
# Youngs Moduli (GPa) = 54.96482 75.51080 68.19171
#
# Poissons Ratio (x) = -0.34363 0.34091
# Poissons Ratio (y) = -0.25013 0.38647
# Poissons Ratio (z) = 0.27478 0.42795
#
# Static dielectric constant tensor:
#      x y z
#    x 1.693700 0.000000 0.017490 
#    y 0.000000 1.734580 0.000000 
#    z 0.017490 0.000000 1.706190 
# 
# From -- ./inp_files/150581.got.cif
#   From: 2010.05.17/outbox.cif.g08.bks.cpg/sg15_76_cif.got.tgz:150581.got - 2010.06.03 18:47:42.
