data_PCOD9282936
_publ_section_title
;
Structure prediction by ZEFSAII (Michael W. Deem and Ramdas Pophale) SiO2 
 PCOD9282936
Probable space group: C 2/C
;
_chemical_formula_sum "Si O2"
_cell_formula_units_Z 56
_cell_length_a 13.082590
_cell_length_b 7.109640
_cell_length_c 27.766916
_cell_angle_alpha 90.000000
_cell_angle_beta 60.062535
_cell_angle_gamma 90.000000
_cell_volume 2238.066276
_symmetry_space_group_name_H-M "C 2/C"
_symmetry_group_IT_number 15
_symmetry_cell_setting 'monoclinic'
loop_
_space_group_symop_operation_xyz
x,y,z
-x,y,1/2-z
-x,-y,-z
x,-y,1/2+z
1/2+x,1/2+y,z
1/2-x,1/2+y,1/2-z
1/2-x,1/2-y,-z
1/2+x,1/2-y,1/2+z
loop_
_atom_site_type_symbol
_atom_site_label
_atom_site_fract_x
_atom_site_fract_y
_atom_site_fract_z
Si Si1 0.614235 0.102682 0.952139
Si Si2 0.737373 0.501058 0.311275
Si Si3 0.375873 0.636047 0.885549
Si Si4 0.394271 0.538884 0.988079
Si Si5 0.950049 0.679822 0.640114
Si Si6 0.402256 0.201027 0.209127
Si Si7 0.799113 0.427552 0.403886
O O1 0.747912 0.036934 0.906305
O O2 0.641457 0.251179 0.987612
O O3 0.562881 0.177404 0.914220
O O4 0.500000 0.000000 0.000000
O O5 0.637974 0.656450 0.324928
O O6 0.704936 0.327279 0.285334
O O7 0.860557 0.602699 0.268500
O O8 0.736980 0.432315 0.366546
O O9 0.482897 0.662808 0.822221
O O10 0.344928 0.857996 0.898935
O O11 0.421538 0.553765 0.925628
O O12 0.291123 0.400285 0.030822
O O13 0.500000 0.500000 0.000000
O O14 0.914712 0.476964 0.670153
O O15 0.085899 0.701148 0.623423
#
# Coordination Sequence:
#
# PCOD9282936 Si02
#       7
#     8   8   8   8   8   8   8
#     4  11  21  41  66  96 136 180 229 274 344 419
#     4  12  23  47  70 100 138 179 233 292 350 415
#     4  10  21  39  65  97 135 183 224 280 352 412
#     4  11  21  39  64  98 138 176 223 290 337 412
#     4  11  23  45  68 100 135 184 226 284 352 411
#     4  11  25  44  71  97 137 179 234 291 345 427
#     4  10  22  42  69  95 138 176 227 282 350 413
#
# _framework density 25.021598000000001
#
# number of rings (size 3 to 8) (size 9 to 14) (size 15 to 20)
#    0.000    1.143    4.286    5.143    0.000    2.286 
#    5.143    1.429    0.000    0.000    0.000    0.000 
#    0.000    0.000    0.000    0.000    0.000    0.000 
#
# Total GULP energy -156329.566763 kJ/mol
# GULP energy per Si atom -5583.198813 kJ/mol
# Density = 2.496465 g / cm^3
# Si number density = 25.021598 Si / 1000 Ang^3
#
#
#
# Elastic Constant Matrix: (Units=GPa)
#
#
# Indices 1 2 3 4 5 6 
#
# 1 125.4310 25.5986 13.4098 0.0000 -24.1191 0.0000
# 2 25.5986 59.9698 33.1477 0.0000 -5.8539 0.0000
# 3 13.4098 33.1477 78.8906 0.0000 -19.3901 0.0000
# 4 0.0000 0.0000 0.0000 32.2149 0.0000 1.3196
# 5 -24.1191 -5.8539 -19.3901 0.0000 47.6912 0.0000
# 6 0.0000 0.0000 0.0000 1.3196 0.0000 42.9838
#
#
#
# Elastic Compliance Matrix: (Units=1/GPa)
#
#
# Indices 1 2 3 4 5 6 
#
# 1 0.009673 -0.004440 0.001433 0.000000 0.004930 0.000000
# 2 -0.004440 0.023815 -0.010094 0.000000 -0.003426 0.000000
# 3 0.001433 -0.010094 0.018384 0.000000 0.006960 0.000000
# 4 0.000000 0.000000 0.000000 0.031081 0.000000 -0.000954
# 5 0.004930 -0.003426 0.006960 0.000000 0.025871 0.000000
# 6 0.000000 0.000000 0.000000 -0.000954 0.000000 0.023294
#
#
# Mechanical properties :
#
#
# Convention : Reuss Voigt Hill
#
# Bulk Modulus (GPa) = 38.95477 45.40041 42.17759
# Shear Modulus (GPa) = 29.96224 37.38698 33.67461
#
# Velocity S-wave (km/s) = 3.46418 3.86967 3.67252
# Velocity P-wave (km/s) = 5.62165 6.17654 5.90562
#
# Compressibility (1/GPa) = 0.02567079
#
# Stress axis : x y z
#
# Youngs Moduli (GPa) = 103.37623 41.99008 54.39483
#
# Poissons Ratio (x) = 0.18644 -0.07795
# Poissons Ratio (y) = 0.45899 0.54906
# Poissons Ratio (z) = -0.14813 0.42384
#
# Static dielectric constant tensor:
#      x y z
#    x 2.042100 0.000000 -0.138260 
#    y 0.000000 2.070330 0.000000 
#    z -0.138260 0.000000 2.046330 
# 
# From -- ./inp_files/291510.got.cif
#   From: 2010.05.17/outbox.cif.g08.bks.cpg/sg15_146_cif.got.tgz:291510.got - 2010.06.03 18:47:42.
