data_PCOD9283359
_publ_section_title
;
Structure prediction by ZEFSAII (Michael W. Deem and Ramdas Pophale) SiO2 
 PCOD9283359
Probable space group: C 2/C
;
_chemical_formula_sum "Si O2"
_cell_formula_units_Z 64
_cell_length_a 22.421174
_cell_length_b 9.291945
_cell_length_c 14.018717
_cell_angle_alpha 90.000000
_cell_angle_beta 103.935245
_cell_angle_gamma 90.000000
_cell_volume 2834.650049
_symmetry_space_group_name_H-M "C 2/C"
_symmetry_group_IT_number 15
_symmetry_cell_setting 'monoclinic'
loop_
_space_group_symop_operation_xyz
x,y,z
-x,y,1/2-z
-x,-y,-z
x,-y,1/2+z
1/2+x,1/2+y,z
1/2-x,1/2+y,1/2-z
1/2-x,1/2-y,-z
1/2+x,1/2-y,1/2+z
loop_
_atom_site_type_symbol
_atom_site_label
_atom_site_fract_x
_atom_site_fract_y
_atom_site_fract_z
Si Si1 0.223900 0.154613 0.803132
Si Si2 0.564442 0.953825 0.242951
Si Si3 0.048332 0.129709 0.188373
Si Si4 0.912055 0.955778 0.461752
Si Si5 0.727472 0.449063 0.636313
Si Si6 0.630236 0.172349 0.130420
Si Si7 0.647243 0.434817 0.871312
Si Si8 0.829526 0.618405 0.565278
O O1 0.270202 0.277059 0.854919
O O2 0.176900 0.245275 0.718806
O O3 0.247261 0.027619 0.743140
O O4 0.188986 0.074625 0.875310
O O5 0.500000 0.022186 0.250000
O O6 0.546965 0.801566 0.188329
O O7 0.609174 0.922775 0.350453
O O8 0.598844 0.050109 0.179835
O O9 0.045630 0.061369 0.082979
O O10 0.114754 0.086668 0.256967
O O11 0.000000 0.081077 0.250000
O O12 0.840681 0.001151 0.415406
O O13 0.917581 0.794803 0.423310
O O14 0.907687 0.951822 0.573671
O O15 0.776010 0.514063 0.580195
O O16 0.660325 0.115490 0.044086
O O17 0.682028 0.286550 0.911037
#
# Coordination Sequence:
#
# PCOD9283359 Si02
#       8
#     8   8   8   8   8   8   8   8
#     4  11  22  37  61  89 120 165 198 243 297 362
#     4  10  22  41  63  87 119 159 202 254 301 354
#     4  10  21  41  62  84 119 158 201 251 302 353
#     4  10  23  39  59  92 119 158 203 248 300 360
#     4  11  22  36  60  91 120 159 201 242 299 362
#     4  10  21  40  60  90 123 153 204 243 301 358
#     4  10  21  41  60  86 125 155 202 246 301 362
#     4  10  22  39  62  90 123 162 195 247 307 356
#
# _framework density 22.577743000000002
#
# number of rings (size 3 to 8) (size 9 to 14) (size 15 to 20)
#    0.000    1.750    3.750    0.750    1.750    8.500 
#    0.000    0.000    0.000    0.000    0.000    0.000 
#    0.000    0.000    0.000    0.000    0.000    0.000 
#
# Total GULP energy -178926.406974 kJ/mol
# GULP energy per Si atom -5591.450218 kJ/mol
# Density = 2.252636 g / cm^3
# Si number density = 22.577743 Si / 1000 Ang^3
#
#
#
# Elastic Constant Matrix: (Units=GPa)
#
#
# Indices 1 2 3 4 5 6 
#
# 1 59.5157 22.9334 21.8623 0.0000 -11.1990 0.0000
# 2 22.9334 77.8966 26.1516 0.0000 -10.2064 0.0000
# 3 21.8623 26.1516 114.7528 0.0000 -9.4109 0.0000
# 4 0.0000 0.0000 0.0000 37.9201 0.0000 -13.9940
# 5 -11.1990 -10.2064 -9.4109 0.0000 30.5922 0.0000
# 6 0.0000 0.0000 0.0000 -13.9940 0.0000 29.4773
#
#
#
# Elastic Compliance Matrix: (Units=1/GPa)
#
#
# Indices 1 2 3 4 5 6 
#
# 1 0.020416 -0.004510 -0.002434 0.000000 0.005221 0.000000
# 2 -0.004510 0.015332 -0.002412 0.000000 0.002722 0.000000
# 3 -0.002434 -0.002412 0.009837 0.000000 0.001331 0.000000
# 4 0.000000 0.000000 0.000000 0.031973 0.000000 0.015179
# 5 0.005221 0.002722 0.001331 0.000000 0.035917 0.000000
# 6 0.000000 0.000000 0.000000 0.015179 0.000000 0.041130
#
#
# Mechanical properties :
#
#
# Convention : Reuss Voigt Hill
#
# Bulk Modulus (GPa) = 37.20972 43.78440 40.49706
# Shear Modulus (GPa) = 27.43139 31.67908 29.55524
#
# Velocity S-wave (km/s) = 3.48943 3.74988 3.62200
# Velocity P-wave (km/s) = 5.72288 6.17929 5.95546
#
# Compressibility (1/GPa) = 0.02687470
#
# Stress axis : x y z
#
# Youngs Moduli (GPa) = 48.98027 65.22509 101.65950
#
# Poissons Ratio (x) = 0.29414 0.24742
# Poissons Ratio (y) = 0.22088 0.24516
# Poissons Ratio (z) = 0.11921 0.15729
#
# Static dielectric constant tensor:
#      x y z
#    x 1.867200 0.000000 0.024640 
#    y 0.000000 1.806760 0.000000 
#    z 0.024640 0.000000 1.873710 
# 
# From -- ./inp_files/172380.got.cif
#   From: 2010.05.17/outbox.cif.g08.bks.cpg/sg15_87_cif.got.tgz:172380.got - 2010.06.03 18:47:42.
