data_PCOD9283824
_publ_section_title
;
Structure prediction by ZEFSAII (Michael W. Deem and Ramdas Pophale) SiO2 
 PCOD9283824
Probable space group: C 2/C
;
_chemical_formula_sum "Si O2"
_cell_formula_units_Z 24
_cell_length_a 15.205153
_cell_length_b 7.052794
_cell_length_c 13.635002
_cell_angle_alpha 90.000000
_cell_angle_beta 141.455659
_cell_angle_gamma 90.000000
_cell_volume 911.127103
_symmetry_space_group_name_H-M "C 2/C"
_symmetry_group_IT_number 15
_symmetry_cell_setting 'monoclinic'
loop_
_space_group_symop_operation_xyz
x,y,z
-x,y,1/2-z
-x,-y,-z
x,-y,1/2+z
1/2+x,1/2+y,z
1/2-x,1/2+y,1/2-z
1/2-x,1/2-y,-z
1/2+x,1/2-y,1/2+z
loop_
_atom_site_type_symbol
_atom_site_label
_atom_site_fract_x
_atom_site_fract_y
_atom_site_fract_z
Si Si1 0.850834 0.154724 0.166697
Si Si2 0.101604 0.178245 0.074163
Si Si3 0.892710 0.295699 0.741033
O O1 0.842119 0.234469 0.269872
O O2 0.000000 0.196990 0.250000
O O3 0.851011 0.925419 0.180639
O O4 0.750000 0.250000 0.000000
O O5 0.237015 0.125932 0.126088
O O6 0.994500 0.315480 0.924174
O O7 0.000000 0.000000 0.000000
O O8 0.000000 0.360330 0.750000
#
# Coordination Sequence:
#
# PCOD9283824 Si02
#       3
#     8   8   8
#     4  10  21  40  64  96 137 180 224 277 340 410
#     4  10  21  40  67 102 139 178 229 287 345 411
#     4  10  21  40  67 100 136 180 228 282 344 411
#
# _framework density 26.340999
#
# number of rings (size 3 to 8) (size 9 to 14) (size 15 to 20)
#    0.000    2.000    0.000    3.000    0.000    2.667 
#    0.000   26.667    0.000    0.000    0.000    0.000 
#    0.000    0.000    0.000    0.000    0.000    0.000 
#
# Total GULP energy -67145.470544 kJ/mol
# GULP energy per Si atom -5595.455879 kJ/mol
# Density = 2.628105 g / cm^3
# Si number density = 26.340999 Si / 1000 Ang^3
#
#
#
# Elastic Constant Matrix: (Units=GPa)
#
#
# Indices 1 2 3 4 5 6 
#
# 1 150.8051 37.7306 106.5014 0.0000 24.6423 0.0000
# 2 37.7306 115.8186 53.8587 0.0000 0.4197 0.0000
# 3 106.5014 53.8587 211.8068 0.0000 3.4787 0.0000
# 4 0.0000 0.0000 0.0000 27.6843 0.0000 -11.5041
# 5 24.6423 0.4197 3.4787 0.0000 87.9548 0.0000
# 6 0.0000 0.0000 0.0000 -11.5041 0.0000 8.2351
#
#
#
# Elastic Compliance Matrix: (Units=1/GPa)
#
#
# Indices 1 2 3 4 5 6 
#
# 1 0.011092 -0.001170 -0.005232 0.000000 -0.002895 0.000000
# 2 -0.001170 0.009916 -0.001939 0.000000 0.000357 0.000000
# 3 -0.005232 -0.001939 0.007826 0.000000 0.001166 0.000000
# 4 0.000000 0.000000 0.000000 0.086106 0.000000 0.120286
# 5 -0.002895 0.000357 0.001166 0.000000 0.012133 0.000000
# 6 0.000000 0.000000 0.000000 0.120286 0.000000 0.289465
#
#
# Mechanical properties :
#
#
# Convention : Reuss Voigt Hill
#
# Bulk Modulus (GPa) = 82.29442 97.17909 89.73675
# Shear Modulus (GPa) = 11.43458 43.46418 27.44938
#
# Velocity S-wave (km/s) = 2.08576 4.06650 3.23163
# Velocity P-wave (km/s) = 6.09182 7.68253 6.93295
#
# Compressibility (1/GPa) = 0.01215149
#
# Stress axis : x y z
#
# Youngs Moduli (GPa) = 90.15535 100.85021 127.77734
#
# Poissons Ratio (x) = 0.11798 0.66857
# Poissons Ratio (y) = 0.10547 0.24777
# Poissons Ratio (z) = 0.47172 0.19555
#
# Static dielectric constant tensor:
#      x y z
#    x 2.028430 0.000000 -0.098010 
#    y 0.000000 2.194410 0.000000 
#    z -0.098010 0.000000 2.048250 
# 
# From -- ./inp_files/36065.got.cif
#   From: 2010.05.17/outbox.cif.g08.bks.cpg/sg15_19_cif.got.tgz:36065.got - 2010.06.03 18:47:42.
