data_PCOD9283609
_publ_section_title
;
Structure prediction by ZEFSAII (Michael W. Deem and Ramdas Pophale) SiO2 
 PCOD9283609
Probable space group: C 2/C
;
_chemical_formula_sum "Si O2"
_cell_formula_units_Z 36
_cell_length_a 5.757132
_cell_length_b 15.141819
_cell_length_c 24.278978
_cell_angle_alpha 90.000000
_cell_angle_beta 134.896436
_cell_angle_gamma 90.000000
_cell_volume 1499.281650
_symmetry_space_group_name_H-M "C 2/C"
_symmetry_group_IT_number 15
_symmetry_cell_setting 'monoclinic'
loop_
_space_group_symop_operation_xyz
x,y,z
-x,y,1/2-z
-x,-y,-z
x,-y,1/2+z
1/2+x,1/2+y,z
1/2-x,1/2+y,1/2-z
1/2-x,1/2-y,-z
1/2+x,1/2-y,1/2+z
loop_
_atom_site_type_symbol
_atom_site_label
_atom_site_fract_x
_atom_site_fract_y
_atom_site_fract_z
Si Si1 0.267703 0.915842 0.107931
Si Si2 0.347125 0.195508 0.280073
Si Si3 0.500000 0.980279 0.750000
Si Si4 0.457747 0.042908 0.051550
Si Si5 0.055812 0.729611 0.089258
O O1 0.288055 0.959716 0.172401
O O2 0.301490 0.810991 0.121045
O O3 0.504557 0.971738 0.107677
O O4 0.921700 0.926319 0.017696
O O5 0.500000 0.235529 0.250000
O O6 0.573444 0.219775 0.369799
O O7 0.000000 0.220000 0.250000
O O8 0.332216 0.091372 0.262824
O O9 0.675337 0.131013 0.094552
O O10 0.500000 0.000000 0.000000
O O11 0.750000 0.750000 0.000000
#
# Coordination Sequence:
#
# PCOD9283609 Si02
#       5
#     8   8   4   8   8
#     4  10  22  40  61  91 131 172 230 282 351 423
#     4  10  23  44  71  95 141 189 233 294 370 422
#     4  10  22  40  66  92 132 180 232 284 368 424
#     4  10  21  40  63  89 126 175 225 284 351 416
#     4  10  22  44  64  98 137 181 241 296 355 433
#
# _framework density 24.011499000000001
#
# number of rings (size 3 to 8) (size 9 to 14) (size 15 to 20)
#    0.667    1.333    2.222    0.000    4.667    0.889 
#    8.000    1.111    0.000    0.000    0.000    0.000 
#    0.000    0.000    0.000    0.000    0.000    0.000 
#
# Total GULP energy -100207.740427 kJ/mol
# GULP energy per Si atom -5567.096690 kJ/mol
# Density = 2.395685 g / cm^3
# Si number density = 24.011499 Si / 1000 Ang^3
#
#
#
# Elastic Constant Matrix: (Units=GPa)
#
#
# Indices 1 2 3 4 5 6 
#
# 1 84.4043 58.6470 44.6739 -0.0001 -32.5336 -0.0001
# 2 58.6470 204.8479 57.6113 -0.0001 -33.6402 -0.0001
# 3 44.6739 57.6113 154.7186 -0.0008 -43.4218 -0.0005
# 4 -0.0001 -0.0001 -0.0008 49.0068 -0.0004 -13.3600
# 5 -32.5336 -33.6402 -43.4218 -0.0004 52.9319 -0.0002
# 6 -0.0001 -0.0001 -0.0005 -13.3600 -0.0002 13.6191
#
#
#
# Elastic Compliance Matrix: (Units=1/GPa)
#
#
# Indices 1 2 3 4 5 6 
#
# 1 0.018071 -0.003435 -0.001863 0.000000 0.007396 0.000000
# 2 -0.003435 0.006338 -0.001079 0.000000 0.001032 0.000000
# 3 -0.001863 -0.001079 0.008950 0.000000 0.005511 0.000001
# 4 0.000000 0.000000 0.000000 0.027854 0.000001 0.027324
# 5 0.007396 0.001032 0.005511 0.000001 0.028614 0.000001
# 6 0.000000 0.000000 0.000001 0.027324 0.000001 0.100231
#
#
# Mechanical properties :
#
#
# Convention : Reuss Voigt Hill
#
# Bulk Modulus (GPa) = 48.53205 85.09278 66.81241
# Shear Modulus (GPa) = 23.84571 41.98079 32.91325
#
# Velocity S-wave (km/s) = 3.15476 4.18588 3.70635
# Velocity P-wave (km/s) = 5.79016 7.67316 6.79718
#
# Compressibility (1/GPa) = 0.02060494
#
# Stress axis : x y z
#
# Youngs Moduli (GPa) = 55.33576 157.78006 111.73666
#
# Poissons Ratio (x) = 0.54201 0.20820
# Poissons Ratio (y) = 0.19009 0.12051
# Poissons Ratio (z) = 0.10311 0.17017
#
# Static dielectric constant tensor:
#      x y z
#    x 1.955460 0.000000 0.076360 
#    y 0.000000 2.016120 0.000000 
#    z 0.076360 0.000000 2.103990 
# 
# From -- ./inp_files/226531.got.cif
#   From: 2010.05.17/outbox.cif.g08.bks.cpg/sg15_114_cif.got.tgz:226531.got - 2010.06.03 18:47:42.
