data_PCOD9283970
_publ_section_title
;
Structure prediction by ZEFSAII (Michael W. Deem and Ramdas Pophale) SiO2 
 PCOD9283970
Probable space group: C 2/C
;
_chemical_formula_sum "Si O2"
_cell_formula_units_Z 48
_cell_length_a 8.497967
_cell_length_b 12.553859
_cell_length_c 20.918446
_cell_angle_alpha 90.000000
_cell_angle_beta 108.269585
_cell_angle_gamma 90.000000
_cell_volume 2119.135678
_symmetry_space_group_name_H-M "C 2/C"
_symmetry_group_IT_number 15
_symmetry_cell_setting 'monoclinic'
loop_
_space_group_symop_operation_xyz
x,y,z
-x,y,1/2-z
-x,-y,-z
x,-y,1/2+z
1/2+x,1/2+y,z
1/2-x,1/2+y,1/2-z
1/2-x,1/2-y,-z
1/2+x,1/2-y,1/2+z
loop_
_atom_site_type_symbol
_atom_site_label
_atom_site_fract_x
_atom_site_fract_y
_atom_site_fract_z
Si Si1 0.000000 0.637798 0.750000
Si Si2 0.930436 0.157360 0.003581
Si Si3 0.442768 0.810904 0.884173
Si Si4 0.077265 0.832270 0.848744
Si Si5 0.258427 0.026176 0.058812
Si Si6 0.229039 0.971610 0.702163
Si Si7 0.500000 0.209292 0.250000
O O1 0.042579 0.719562 0.811325
O O2 0.158033 0.563693 0.751767
O O3 0.945625 0.189862 0.079044
O O4 0.102666 0.094348 0.014185
O O5 0.925475 0.237925 0.944332
O O6 0.764898 0.083730 0.981560
O O7 0.263235 0.864294 0.854207
O O8 0.580159 0.900382 0.917326
O O9 0.480792 0.748122 0.821317
O O10 0.954155 0.926272 0.810621
O O11 0.226201 0.994015 0.127845
O O12 0.340712 0.865922 0.722136
#
# Coordination Sequence:
#
# PCOD9283970 Si02
#       7
#     4   8   8   8   8   8   4
#     4  11  22  42  70  91 134 183 206 268 344 379
#     4  10  21  40  65  97 131 169 220 267 321 393
#     4  11  21  38  66  95 131 172 214 270 327 385
#     4  11  23  39  68 104 130 167 226 274 322 397
#     4   9  20  39  65  92 132 177 210 265 330 381
#     4   9  20  40  64  92 128 172 218 266 323 389
#     4   9  20  38  64  89 122 171 214 262 320 379
#
# _framework density 22.650744
#
# number of rings (size 3 to 8) (size 9 to 14) (size 15 to 20)
#    0.000    2.000    0.000    3.000    0.000    0.667 
#    0.000    5.000    0.000  132.000    0.000    0.000 
#    0.000    0.000    0.000    0.000    0.000    0.000 
#
# Total GULP energy -133752.968710 kJ/mol
# GULP energy per Si atom -5573.040363 kJ/mol
# Density = 2.259919 g / cm^3
# Si number density = 22.650744 Si / 1000 Ang^3
#
#
#
# Elastic Constant Matrix: (Units=GPa)
#
#
# Indices 1 2 3 4 5 6 
#
# 1 136.2626 62.2616 46.5273 0.0000 26.6915 0.0000
# 2 62.2616 84.5966 42.5490 0.0000 5.7992 0.0000
# 3 46.5273 42.5490 125.7540 0.0000 -13.3526 0.0000
# 4 0.0000 0.0000 0.0000 35.2366 0.0000 15.9989
# 5 26.6915 5.7992 -13.3526 0.0000 51.6588 0.0000
# 6 0.0000 0.0000 0.0000 15.9989 0.0000 41.1189
#
#
#
# Elastic Compliance Matrix: (Units=1/GPa)
#
#
# Indices 1 2 3 4 5 6 
#
# 1 0.013227 -0.007776 -0.002978 0.000000 -0.006731 0.000000
# 2 -0.007776 0.019259 -0.003540 0.000000 0.000941 0.000000
# 3 -0.002978 -0.003540 0.010752 0.000000 0.004715 0.000000
# 4 0.000000 0.000000 0.000000 0.034469 0.000000 -0.013411
# 5 -0.006731 0.000941 0.004715 0.000000 0.023949 0.000000
# 6 0.000000 0.000000 0.000000 -0.013411 0.000000 0.029538
#
#
# Mechanical properties :
#
#
# Convention : Reuss Voigt Hill
#
# Bulk Modulus (GPa) = 68.24805 72.14322 70.19563
# Shear Modulus (GPa) = 30.36494 38.62121 34.49307
#
# Velocity S-wave (km/s) = 3.66535 4.13373 3.90657
# Velocity P-wave (km/s) = 6.93607 7.39615 7.16980
#
# Compressibility (1/GPa) = 0.01465243
#
# Stress axis : x y z
#
# Youngs Moduli (GPa) = 75.60401 51.92265 93.00632
#
# Poissons Ratio (x) = 0.40374 0.27693
# Poissons Ratio (y) = 0.58787 0.32921
# Poissons Ratio (z) = 0.22511 0.18379
#
# Static dielectric constant tensor:
#      x y z
#    x 1.910430 0.000000 0.025140 
#    y 0.000000 1.870610 0.000000 
#    z 0.025140 0.000000 1.904000 
# 
# From -- ./inp_files/263580.got.cif
#   From: 2010.05.17/outbox.cif.g08.bks.cpg/sg15_132_cif.got.tgz:263580.got - 2010.06.03 18:47:42.
