data_PCOD9283948
_publ_section_title
;
Structure prediction by ZEFSAII (Michael W. Deem and Ramdas Pophale) SiO2 
 PCOD9283948
Probable space group: C 2/C
;
_chemical_formula_sum "Si O2"
_cell_formula_units_Z 60
_cell_length_a 9.093574
_cell_length_b 10.751597
_cell_length_c 29.918973
_cell_angle_alpha 90.000000
_cell_angle_beta 72.268261
_cell_angle_gamma 90.000000
_cell_volume 2786.223936
_symmetry_space_group_name_H-M "C 2/C"
_symmetry_group_IT_number 15
_symmetry_cell_setting 'monoclinic'
loop_
_space_group_symop_operation_xyz
x,y,z
-x,y,1/2-z
-x,-y,-z
x,-y,1/2+z
1/2+x,1/2+y,z
1/2-x,1/2+y,1/2-z
1/2-x,1/2-y,-z
1/2+x,1/2-y,1/2+z
loop_
_atom_site_type_symbol
_atom_site_label
_atom_site_fract_x
_atom_site_fract_y
_atom_site_fract_z
Si Si1 0.215292 0.973793 0.074723
Si Si2 0.910266 0.617767 0.175372
Si Si3 0.372784 0.390415 0.507631
Si Si4 0.895822 0.233348 0.453162
Si Si5 0.000000 0.551509 0.750000
Si Si6 0.668690 0.632974 0.772704
Si Si7 0.551813 0.005132 0.074152
Si Si8 0.123808 0.036475 0.682183
O O1 0.398440 0.003863 0.057267
O O2 0.172474 0.926470 0.127903
O O3 0.133162 0.107149 0.072130
O O4 0.155911 0.878080 0.042608
O O5 0.971313 0.532739 0.209630
O O6 0.911848 0.756039 0.193484
O O7 0.732490 0.580152 0.182674
O O8 0.002910 0.580547 0.122650
O O9 0.500000 0.500000 0.500000
O O10 0.452969 0.284169 0.529536
O O11 0.207852 0.436165 0.540639
O O12 0.750000 0.250000 0.500000
O O13 0.913198 0.357930 0.422417
O O14 0.156132 0.626611 0.729118
O O15 0.662963 0.632278 0.719173
O O16 0.559736 0.516480 0.796507
#
# Coordination Sequence:
#
# PCOD9283948 Si02
#       8
#     8   8   8   8   4   8   8   8
#     4  10  22  42  64  97 135 167 226 269 323 394
#     4  10  23  41  65  95 129 166 218 265 321 390
#     4  10  21  40  65  95 131 176 220 265 329 382
#     4  11  23  42  64  90 134 177 214 273 328 382
#     4  10  22  38  64  96 118 164 210 262 320 388
#     4  10  21  42  65  90 131 168 206 264 337 375
#     4  11  23  42  63  97 133 172 221 273 318 400
#     4   9  21  42  64  95 130 164 211 270 317 387
#
# _framework density 21.534521999999999
#
# number of rings (size 3 to 8) (size 9 to 14) (size 15 to 20)
#    0.000    1.867    2.667    1.200    0.000    9.067 
#    4.800    8.000    0.000    0.000    0.000    0.000 
#    0.000    0.000    0.000    0.000    0.000    0.000 
#
# Total GULP energy -167383.943459 kJ/mol
# GULP energy per Si atom -5579.464782 kJ/mol
# Density = 2.148551 g / cm^3
# Si number density = 21.534522 Si / 1000 Ang^3
#
#
#
# Elastic Constant Matrix: (Units=GPa)
#
#
# Indices 1 2 3 4 5 6 
#
# 1 144.6065 21.0535 53.9657 0.0000 -17.3929 0.0000
# 2 21.0535 60.8602 27.3097 0.0000 -4.0979 0.0000
# 3 53.9657 27.3097 118.6514 0.0000 -7.6843 0.0000
# 4 0.0000 0.0000 0.0000 50.4059 0.0000 -0.8030
# 5 -17.3929 -4.0979 -7.6843 0.0000 25.4313 0.0000
# 6 0.0000 0.0000 0.0000 -0.8030 0.0000 28.4232
#
#
#
# Elastic Compliance Matrix: (Units=1/GPa)
#
#
# Indices 1 2 3 4 5 6 
#
# 1 0.008983 -0.001212 -0.003490 0.000000 0.004894 0.000000
# 2 -0.001212 0.018560 -0.003652 0.000000 0.001058 0.000000
# 3 -0.003490 -0.003652 0.010876 0.000000 0.000311 0.000000
# 4 0.000000 0.000000 0.000000 0.019848 0.000000 0.000561
# 5 0.004894 0.001058 0.000311 0.000000 0.042933 0.000000
# 6 0.000000 0.000000 0.000000 0.000561 0.000000 0.035198
#
#
# Mechanical properties :
#
#
# Convention : Reuss Voigt Hill
#
# Bulk Modulus (GPa) = 46.05874 58.75290 52.40582
# Shear Modulus (GPa) = 31.18308 35.63803 33.41056
#
# Velocity S-wave (km/s) = 3.80945 4.07249 3.94317
# Velocity P-wave (km/s) = 6.38624 7.03249 6.71714
#
# Compressibility (1/GPa) = 0.02171140
#
# Stress axis : x y z
#
# Youngs Moduli (GPa) = 111.32536 53.87791 91.94547
#
# Poissons Ratio (x) = 0.06530 0.32086
# Poissons Ratio (y) = 0.13492 0.33581
# Poissons Ratio (z) = 0.38849 0.19677
#
# Static dielectric constant tensor:
#      x y z
#    x 1.851770 0.000000 0.053050 
#    y 0.000000 1.817850 0.000000 
#    z 0.053050 0.000000 1.851920 
# 
# From -- ./inp_files/307474.got.cif
#   From: 2010.05.17/outbox.cif.g08.bks.cpg/sg15_154_cif.got.tgz:307474.got - 2010.06.03 18:47:42.
