data_PCOD9283798
_publ_section_title
;
Structure prediction by ZEFSAII (Michael W. Deem and Ramdas Pophale) SiO2 
 PCOD9283798
Probable space group: C 2/C
;
_chemical_formula_sum "Si O2"
_cell_formula_units_Z 24
_cell_length_a 9.544002
_cell_length_b 23.421861
_cell_length_c 5.394942
_cell_angle_alpha 90.000000
_cell_angle_beta 44.150218
_cell_angle_gamma 90.000000
_cell_volume 840.012938
_symmetry_space_group_name_H-M "C 2/C"
_symmetry_group_IT_number 15
_symmetry_cell_setting 'monoclinic'
loop_
_space_group_symop_operation_xyz
x,y,z
-x,y,1/2-z
-x,-y,-z
x,-y,1/2+z
1/2+x,1/2+y,z
1/2-x,1/2+y,1/2-z
1/2-x,1/2-y,-z
1/2+x,1/2-y,1/2+z
loop_
_atom_site_type_symbol
_atom_site_label
_atom_site_fract_x
_atom_site_fract_y
_atom_site_fract_z
Si Si1 0.228411 0.354043 0.179649
Si Si2 0.270574 0.810552 0.831612
Si Si3 0.269291 0.519088 0.737040
O O1 0.318627 0.349359 0.339558
O O2 0.244902 0.421269 0.118589
O O3 0.000921 0.330837 0.500845
O O4 0.311319 0.317633 0.842712
O O5 0.250000 0.750000 0.000000
O O6 0.500000 0.500000 0.500000
O O7 0.186879 0.477052 0.625224
#
# Coordination Sequence:
#
# PCOD9283798 Si02
#       3
#     8   8   8
#     4  10  21  40  64  96 131 173 221 273 333 401
#     4  10  21  40  64  94 131 174 219 276 336 397
#     4  10  21  40  64  94 130 175 221 273 332 397
#
# _framework density 28.570988
#
# number of rings (size 3 to 8) (size 9 to 14) (size 15 to 20)
#    0.000    2.000    0.000    3.000    0.000    0.000 
#    0.000   46.667    0.000    0.000    0.000    0.000 
#    0.000    0.000    0.000    0.000    0.000    0.000 
#
# Total GULP energy -66965.819825 kJ/mol
# GULP energy per Si atom -5580.484985 kJ/mol
# Density = 2.850596 g / cm^3
# Si number density = 28.570988 Si / 1000 Ang^3
#
#
#
# Elastic Constant Matrix: (Units=GPa)
#
#
# Indices 1 2 3 4 5 6 
#
# 1 218.3983 19.7348 89.3142 0.0000 41.1415 0.0000
# 2 19.7348 167.6521 28.2743 0.0000 16.0300 0.0000
# 3 89.3142 28.2743 225.0281 0.0000 51.3276 0.0000
# 4 0.0000 0.0000 0.0000 50.3219 0.0000 5.4392
# 5 41.1415 16.0300 51.3276 0.0000 101.0418 0.0000
# 6 0.0000 0.0000 0.0000 5.4392 0.0000 398.8816
#
#
#
# Elastic Compliance Matrix: (Units=1/GPa)
#
#
# Indices 1 2 3 4 5 6 
#
# 1 0.005622 -0.000217 -0.001911 0.000000 -0.001284 0.000000
# 2 -0.000217 0.006141 -0.000547 0.000000 -0.000608 0.000000
# 3 -0.001911 -0.000547 0.005739 0.000000 -0.002050 0.000000
# 4 0.000000 0.000000 0.000000 0.019901 0.000000 -0.000271
# 5 -0.001284 -0.000608 -0.002050 0.000000 0.011558 0.000000
# 6 0.000000 0.000000 0.000000 -0.000271 0.000000 0.002511
#
#
# Mechanical properties :
#
#
# Convention : Reuss Voigt Hill
#
# Bulk Modulus (GPa) = 82.29286 98.41389 90.35338
# Shear Modulus (GPa) = 82.14077 141.63275 111.88676
#
# Velocity S-wave (km/s) = 5.36769 7.04839 6.26466
# Velocity P-wave (km/s) = 8.20254 10.03793 9.16629
#
# Compressibility (1/GPa) = 0.01215172
#
# Stress axis : x y z
#
# Youngs Moduli (GPa) = 177.87824 162.85025 174.25137
#
# Poissons Ratio (x) = 0.03529 0.33304
# Poissons Ratio (y) = 0.03854 0.09529
# Poissons Ratio (z) = 0.33997 0.08905
#
# Static dielectric constant tensor:
#      x y z
#    x 3.046450 0.000000 0.034360 
#    y 0.000000 2.418730 0.000000 
#    z 0.034360 0.000000 2.502930 
# 
# From -- ./inp_files/3813.got.cif
#   From: 2010.05.17/outbox.cif.g08.bks.cpg/sg15_2_cif.got.tgz:3813.got - 2010.06.03 18:47:42.
