data_PCOD9283277
_publ_section_title
;
Structure prediction by ZEFSAII (Michael W. Deem and Ramdas Pophale) SiO2 
 PCOD9283277
Probable space group: C 2/C
;
_chemical_formula_sum "Si O2"
_cell_formula_units_Z 44
_cell_length_a 23.557856
_cell_length_b 9.873630
_cell_length_c 18.758124
_cell_angle_alpha 90.000000
_cell_angle_beta 156.273440
_cell_angle_gamma 90.000000
_cell_volume 1755.617813
_symmetry_space_group_name_H-M "C 2/C"
_symmetry_group_IT_number 15
_symmetry_cell_setting 'monoclinic'
loop_
_space_group_symop_operation_xyz
x,y,z
-x,y,1/2-z
-x,-y,-z
x,-y,1/2+z
1/2+x,1/2+y,z
1/2-x,1/2+y,1/2-z
1/2-x,1/2-y,-z
1/2+x,1/2-y,1/2+z
loop_
_atom_site_type_symbol
_atom_site_label
_atom_site_fract_x
_atom_site_fract_y
_atom_site_fract_z
Si Si1 0.244586 0.793585 0.576050
Si Si2 0.936213 0.329146 0.979741
Si Si3 0.967352 0.431738 0.627180
Si Si4 0.500000 0.511362 0.750000
Si Si5 0.536518 0.555400 0.143439
Si Si6 0.863108 0.824724 0.871563
O O1 0.250000 0.750000 0.500000
O O2 0.288778 0.840462 0.768170
O O3 0.171582 0.665873 0.532752
O O4 0.121291 0.906433 0.430694
O O5 0.958264 0.435114 0.067906
O O6 0.926445 0.177334 0.002189
O O7 0.068783 0.315234 0.077991
O O8 0.902566 0.350995 0.759500
O O9 0.000000 0.456301 0.750000
O O10 0.424865 0.439702 0.729801
O O11 0.658399 0.599818 0.229597
O O12 0.476956 0.415026 0.044021
#
# Coordination Sequence:
#
# PCOD9283277 Si02
#       6
#     8   8   8   4   8   8
#     4  10  21  40  55  98 139 183 218 285 349 402
#     4  10  22  42  74 101 133 187 238 284 345 422
#     4  10  22  38  65  99 141 179 239 281 346 415
#     4  12  22  40  70 100 142 184 232 286 358 404
#     4   9  24  44  70  99 143 185 229 290 351 415
#     4   9  22  48  66 100 146 179 233 278 361 417
#
# _framework density 25.062403
#
# number of rings (size 3 to 8) (size 9 to 14) (size 15 to 20)
#    1.091    1.091    2.727    0.000    8.909    0.000 
#    6.545    3.636    0.000    0.000    0.000    0.000 
#    0.000    0.000    0.000    0.000    0.000    0.000 
#
# Total GULP energy -122600.025761 kJ/mol
# GULP energy per Si atom -5572.728444 kJ/mol
# Density = 2.500536 g / cm^3
# Si number density = 25.062403 Si / 1000 Ang^3
#
#
#
# Elastic Constant Matrix: (Units=GPa)
#
#
# Indices 1 2 3 4 5 6 
#
# 1 185.4851 25.5764 35.0724 0.0000 5.9121 0.0000
# 2 25.5764 86.2781 48.3935 0.0000 7.9518 0.0000
# 3 35.0724 48.3935 72.6209 0.0000 10.6813 0.0000
# 4 0.0000 0.0000 0.0000 34.0513 0.0000 -17.0446
# 5 5.9121 7.9518 10.6813 0.0000 51.3854 0.0000
# 6 0.0000 0.0000 0.0000 -17.0446 0.0000 44.8551
#
#
#
# Elastic Compliance Matrix: (Units=1/GPa)
#
#
# Indices 1 2 3 4 5 6 
#
# 1 0.005937 -0.000241 -0.002694 0.000000 -0.000086 0.000000
# 2 -0.000241 0.018523 -0.012182 0.000000 -0.000306 0.000000
# 3 -0.002694 -0.012182 0.023587 0.000000 -0.002708 0.000000
# 4 0.000000 0.000000 0.000000 0.036265 0.000000 0.013781
# 5 -0.000086 -0.000306 -0.002708 0.000000 0.020081 0.000000
# 6 0.000000 0.000000 0.000000 0.013781 0.000000 0.027530
#
#
# Mechanical properties :
#
#
# Convention : Reuss Voigt Hill
#
# Bulk Modulus (GPa) = 56.13800 62.49650 59.31725
# Shear Modulus (GPa) = 29.74502 41.74782 35.74642
#
# Velocity S-wave (km/s) = 3.44879 4.08579 3.78073
# Velocity P-wave (km/s) = 6.18925 6.87377 6.54047
#
# Compressibility (1/GPa) = 0.01781325
#
# Stress axis : x y z
#
# Youngs Moduli (GPa) = 168.44644 53.98695 42.39552
#
# Poissons Ratio (x) = 0.01301 0.11421
# Poissons Ratio (y) = 0.04058 0.51646
# Poissons Ratio (z) = 0.45378 0.65767
#
# Static dielectric constant tensor:
#      x y z
#    x 2.100150 0.000000 0.054620 
#    y 0.000000 2.009690 0.000000 
#    z 0.054620 0.000000 2.116640 
# 
# From -- ./inp_files/214471.got.cif
#   From: 2010.05.17/outbox.cif.g08.bks.cpg/sg15_108_cif.got.tgz:214471.got - 2010.06.03 18:47:42.
