data_PCOD9283926
_publ_section_title
;
Structure prediction by ZEFSAII (Michael W. Deem and Ramdas Pophale) SiO2 
 PCOD9283926
Probable space group: C 2/C
;
_chemical_formula_sum "Si O2"
_cell_formula_units_Z 60
_cell_length_a 9.061068
_cell_length_b 22.791541
_cell_length_c 14.876983
_cell_angle_alpha 90.000000
_cell_angle_beta 78.922245
_cell_angle_gamma 90.000000
_cell_volume 3015.084898
_symmetry_space_group_name_H-M "C 2/C"
_symmetry_group_IT_number 15
_symmetry_cell_setting 'monoclinic'
loop_
_space_group_symop_operation_xyz
x,y,z
-x,y,1/2-z
-x,-y,-z
x,-y,1/2+z
1/2+x,1/2+y,z
1/2-x,1/2+y,1/2-z
1/2-x,1/2-y,-z
1/2+x,1/2-y,1/2+z
loop_
_atom_site_type_symbol
_atom_site_label
_atom_site_fract_x
_atom_site_fract_y
_atom_site_fract_z
Si Si1 0.745712 0.656732 0.741571
Si Si2 0.721229 0.452810 0.005686
Si Si3 0.790274 0.587450 0.016379
Si Si4 0.026690 0.432283 0.648892
Si Si5 0.036111 0.848757 0.095388
Si Si6 0.500000 0.750098 0.250000
Si Si7 0.957253 0.433015 0.138789
Si Si8 0.612150 0.293941 0.544945
O O1 0.617634 0.647430 0.830192
O O2 0.663633 0.665300 0.654734
O O3 0.852990 0.710600 0.749740
O O4 0.855840 0.600919 0.721161
O O5 0.712093 0.523840 0.007732
O O6 0.581948 0.412032 0.048485
O O7 0.845953 0.442403 0.067727
O O8 0.803920 0.426473 0.908171
O O9 0.679171 0.640679 0.041323
O O10 0.900341 0.585327 0.090725
O O11 0.900604 0.600430 0.919370
O O12 0.000000 0.405556 0.750000
O O13 0.008056 0.502390 0.657559
O O14 0.009656 0.800073 0.021524
O O15 0.460869 0.719244 0.349624
O O16 0.750000 0.250000 0.500000
#
# Coordination Sequence:
#
# PCOD9283926 Si02
#       8
#     8   8   8   8   8   4   8   8
#     4  10  21  40  65  94 119 158 218 268 308 364
#     4   8  17  36  58  88 122 158 195 251 325 379
#     4   9  19  37  57  85 129 162 199 259 316 377
#     4   9  17  30  56  90 124 160 204 245 309 390
#     4  10  22  41  66  93 127 155 206 272 324 375
#     4  12  26  42  64  90 122 168 222 254 306 384
#     4   8  16  32  59  88 115 156 205 250 301 373
#     4  12  25  43  61  87 124 172 214 260 314 370
#
# _framework density 19.899937000000001
#
# number of rings (size 3 to 8) (size 9 to 14) (size 15 to 20)
#    0.000    2.400    1.333    2.400    0.933    3.200 
#    0.000    5.333    0.000    0.000    0.000    0.000 
#    0.000    0.000    0.000    0.000    0.000    0.000 
#
# Total GULP energy -167237.852934 kJ/mol
# GULP energy per Si atom -5574.595098 kJ/mol
# Density = 1.985464 g / cm^3
# Si number density = 19.899937 Si / 1000 Ang^3
#
#
#
# Elastic Constant Matrix: (Units=GPa)
#
#
# Indices 1 2 3 4 5 6 
#
# 1 101.1992 43.7990 53.0190 0.0000 -4.9185 0.0000
# 2 43.7990 68.5117 36.8328 0.0000 -14.2558 0.0000
# 3 53.0190 36.8328 151.0538 0.0000 -12.3401 0.0000
# 4 0.0000 0.0000 0.0000 26.0401 0.0000 -2.6723
# 5 -4.9185 -14.2558 -12.3401 0.0000 30.3770 0.0000
# 6 0.0000 0.0000 0.0000 -2.6723 0.0000 33.4041
#
#
#
# Elastic Compliance Matrix: (Units=1/GPa)
#
#
# Indices 1 2 3 4 5 6 
#
# 1 0.015251 -0.008463 -0.003529 0.000000 -0.002936 0.000000
# 2 -0.008463 0.022805 -0.001891 0.000000 0.008564 0.000000
# 3 -0.003529 -0.001891 0.008482 0.000000 0.001987 0.000000
# 4 0.000000 0.000000 0.000000 0.038720 0.000000 0.003098
# 5 -0.002936 0.008564 0.001987 0.000000 0.037270 0.000000
# 6 0.000000 0.000000 0.000000 0.003098 0.000000 0.030184
#
#
# Mechanical properties :
#
#
# Convention : Reuss Voigt Hill
#
# Bulk Modulus (GPa) = 53.27104 65.34068 59.30586
# Shear Modulus (GPa) = 26.77582 30.43850 28.60716
#
# Velocity S-wave (km/s) = 3.67212 3.91522 3.79562
# Velocity P-wave (km/s) = 6.69379 7.30373 7.00540
#
# Compressibility (1/GPa) = 0.01877193
#
# Stress axis : x y z
#
# Youngs Moduli (GPa) = 65.57120 43.85024 117.89450
#
# Poissons Ratio (x) = 0.37112 0.41606
# Poissons Ratio (y) = 0.55495 0.22288
# Poissons Ratio (z) = 0.23140 0.08290
#
# Static dielectric constant tensor:
#      x y z
#    x 1.720170 0.000000 0.023770 
#    y 0.000000 1.678650 0.000000 
#    z 0.023770 0.000000 1.806770 
# 
# From -- ./inp_files/137330.got.cif
#   From: 2010.05.17/outbox.cif.g08.bks.cpg/sg15_69_cif.got.tgz:137330.got - 2010.06.03 18:47:42.
