data_PCOD9283917
_publ_section_title
;
Structure prediction by ZEFSAII (Michael W. Deem and Ramdas Pophale) SiO2 
 PCOD9283917
Probable space group: C 2/C
;
_chemical_formula_sum "Si O2"
_cell_formula_units_Z 40
_cell_length_a 5.114564
_cell_length_b 17.793561
_cell_length_c 19.640626
_cell_angle_alpha 90.000000
_cell_angle_beta 75.419759
_cell_angle_gamma 90.000000
_cell_volume 1729.858804
_symmetry_space_group_name_H-M "C 2/C"
_symmetry_group_IT_number 15
_symmetry_cell_setting 'monoclinic'
loop_
_space_group_symop_operation_xyz
x,y,z
-x,y,1/2-z
-x,-y,-z
x,-y,1/2+z
1/2+x,1/2+y,z
1/2-x,1/2+y,1/2-z
1/2-x,1/2-y,-z
1/2+x,1/2-y,1/2+z
loop_
_atom_site_type_symbol
_atom_site_label
_atom_site_fract_x
_atom_site_fract_y
_atom_site_fract_z
Si Si1 0.110733 0.219844 0.578800
Si Si2 0.192824 0.333705 0.298569
Si Si3 0.941343 0.626898 0.084511
Si Si4 0.301851 0.993511 0.703200
Si Si5 0.471566 0.589432 0.498855
O O1 0.250000 0.250000 0.500000
O O2 0.303067 0.210447 0.630781
O O3 0.993206 0.138084 0.566756
O O4 0.902323 0.286775 0.608508
O O5 0.500000 0.331526 0.250000
O O6 0.119570 0.420775 0.319554
O O7 0.000000 0.308153 0.250000
O O8 0.818969 0.564176 0.140805
O O9 0.802048 0.613349 0.020821
O O10 0.262749 0.612967 0.061317
O O11 0.500000 0.967486 0.750000
O O12 0.000000 0.995770 0.750000
O O13 0.500000 0.500000 0.500000
#
# Coordination Sequence:
#
# PCOD9283917 Si02
#       5
#     8   8   8   8   8
#     4  10  24  44  66  98 136 173 217 274 335 398
#     4  10  23  42  67  94 126 171 222 271 326 395
#     4  11  23  40  62  94 128 166 212 271 330 385
#     4  10  21  40  65  93 126 171 224 274 327 399
#     4  11  23  40  65  93 127 171 217 266 322 391
#
# _framework density 23.123273999999999
#
# number of rings (size 3 to 8) (size 9 to 14) (size 15 to 20)
#    0.000    1.600    0.000    3.600    0.000   12.000 
#    0.000    2.000    0.000    0.000    0.000    0.000 
#    0.000    0.000    0.000    0.000    0.000    0.000 
#
# Total GULP energy -111835.390438 kJ/mol
# GULP energy per Si atom -5591.769522 kJ/mol
# Density = 2.307064 g / cm^3
# Si number density = 23.123274 Si / 1000 Ang^3
#
#
#
# Elastic Constant Matrix: (Units=GPa)
#
#
# Indices 1 2 3 4 5 6 
#
# 1 72.0084 15.6189 36.5156 0.0000 24.3023 0.0000
# 2 15.6189 139.7586 51.7522 0.0000 19.3798 0.0000
# 3 36.5156 51.7522 120.7790 0.0000 39.0924 0.0000
# 4 0.0000 0.0000 0.0000 50.5358 0.0000 2.5183
# 5 24.3023 19.3798 39.0924 0.0000 49.7867 0.0000
# 6 0.0000 0.0000 0.0000 2.5183 0.0000 31.7219
#
#
#
# Elastic Compliance Matrix: (Units=1/GPa)
#
#
# Indices 1 2 3 4 5 6 
#
# 1 0.017617 0.000137 -0.003465 0.000000 -0.005932 0.000000
# 2 0.000137 0.008519 -0.003482 0.000000 -0.000649 0.000000
# 3 -0.003465 -0.003482 0.013183 0.000000 -0.007305 0.000000
# 4 0.000000 0.000000 0.000000 0.019867 0.000000 -0.001577
# 5 -0.005932 -0.000649 -0.007305 0.000000 0.028970 0.000000
# 6 0.000000 0.000000 0.000000 -0.001577 0.000000 0.031649
#
#
# Mechanical properties :
#
#
# Convention : Reuss Voigt Hill
#
# Bulk Modulus (GPa) = 38.91056 60.03550 49.47303
# Shear Modulus (GPa) = 35.21367 41.65281 38.43324
#
# Velocity S-wave (km/s) = 3.90663 4.24882 4.08131
# Velocity P-wave (km/s) = 6.10024 7.07740 6.60691
#
# Compressibility (1/GPa) = 0.02569997
#
# Stress axis : x y z
#
# Youngs Moduli (GPa) = 56.76483 117.38262 75.85339
#
# Poissons Ratio (x) = -0.01605 0.26281
# Poissons Ratio (y) = -0.00776 0.26409
# Poissons Ratio (z) = 0.19667 0.40868
#
# Static dielectric constant tensor:
#      x y z
#    x 1.867460 0.000000 -0.031540 
#    y 0.000000 1.944390 0.000000 
#    z -0.031540 0.000000 1.895140 
# 
# From -- ./inp_files/184334.got.cif
#   From: 2010.05.17/outbox.cif.g08.bks.cpg/sg15_93_cif.got.tgz:184334.got - 2010.06.03 18:47:42.
