data_PCOD9283378
_publ_section_title
;
Structure prediction by ZEFSAII (Michael W. Deem and Ramdas Pophale) SiO2 
 PCOD9283378
Probable space group: C 2/C
;
_chemical_formula_sum "Si O2"
_cell_formula_units_Z 48
_cell_length_a 15.540529
_cell_length_b 9.359623
_cell_length_c 16.074353
_cell_angle_alpha 90.000000
_cell_angle_beta 78.333819
_cell_angle_gamma 90.000000
_cell_volume 2289.771705
_symmetry_space_group_name_H-M "C 2/C"
_symmetry_group_IT_number 15
_symmetry_cell_setting 'monoclinic'
loop_
_space_group_symop_operation_xyz
x,y,z
-x,y,1/2-z
-x,-y,-z
x,-y,1/2+z
1/2+x,1/2+y,z
1/2-x,1/2+y,1/2-z
1/2-x,1/2-y,-z
1/2+x,1/2-y,1/2+z
loop_
_atom_site_type_symbol
_atom_site_label
_atom_site_fract_x
_atom_site_fract_y
_atom_site_fract_z
Si Si1 0.468911 0.614556 0.073726
Si Si2 0.244409 0.194041 0.249648
Si Si3 0.216592 0.410534 0.027026
Si Si4 0.323965 0.561530 0.662432
Si Si5 0.308242 0.186168 0.563150
Si Si6 0.419497 0.200358 0.827424
O O1 0.413989 0.521358 0.150978
O O2 0.404853 0.739165 0.049288
O O3 0.544687 0.688278 0.111685
O O4 0.500000 0.500000 0.000000
O O5 0.322593 0.273965 0.187015
O O6 0.234798 0.266444 0.341751
O O7 0.158624 0.233399 0.212385
O O8 0.244829 0.026212 0.267109
O O9 0.293992 0.461945 0.073397
O O10 0.130862 0.412743 0.103893
O O11 0.250000 0.250000 0.000000
O O12 0.196948 0.516267 0.954668
O O13 0.250000 0.250000 0.500000
O O14 0.500000 0.158405 0.750000
#
# Coordination Sequence:
#
# PCOD9283378 Si02
#       6
#     8   8   8   8   8   8
#     4  11  23  42  65  95 131 169 213 266 330 386
#     4  10  22  38  66  91 127 166 212 259 326 385
#     4  11  24  40  65  96 126 170 221 267 325 395
#     4  10  21  40  60  96 119 166 214 257 319 389
#     4  11  22  41  65  93 127 163 216 275 314 385
#     4  11  22  42  61  92 133 170 204 268 335 381
#
# _framework density 20.962788
#
# number of rings (size 3 to 8) (size 9 to 14) (size 15 to 20)
#    0.000    1.333    6.667    1.000    4.667    0.667 
#    0.000    1.667    0.000    0.000    0.000    0.000 
#    0.000    0.000    0.000    0.000    0.000    0.000 
#
# Total GULP energy -133736.126531 kJ/mol
# GULP energy per Si atom -5572.338605 kJ/mol
# Density = 2.091508 g / cm^3
# Si number density = 20.962788 Si / 1000 Ang^3
#
#
#
# Elastic Constant Matrix: (Units=GPa)
#
#
# Indices 1 2 3 4 5 6 
#
# 1 52.5755 5.8305 9.4452 0.0000 13.9548 0.0000
# 2 5.8305 85.5505 14.5395 0.0000 1.3349 0.0000
# 3 9.4452 14.5395 81.0786 0.0000 16.6896 0.0000
# 4 0.0000 0.0000 0.0000 54.5467 0.0000 -5.9341
# 5 13.9548 1.3349 16.6896 0.0000 40.5308 0.0000
# 6 0.0000 0.0000 0.0000 -5.9341 0.0000 26.4096
#
#
#
# Elastic Compliance Matrix: (Units=1/GPa)
#
#
# Indices 1 2 3 4 5 6 
#
# 1 0.021131 -0.001192 -0.000829 0.000000 -0.006895 0.000000
# 2 -0.001192 0.012134 -0.002228 0.000000 0.000928 0.000000
# 3 -0.000829 -0.002228 0.013937 0.000000 -0.005380 0.000000
# 4 0.000000 0.000000 0.000000 0.018792 0.000000 0.004223
# 5 -0.006895 0.000928 -0.005380 0.000000 0.029231 0.000000
# 6 0.000000 0.000000 0.000000 0.004223 0.000000 0.038814
#
#
# Mechanical properties :
#
#
# Convention : Reuss Voigt Hill
#
# Bulk Modulus (GPa) = 25.83587 30.98167 28.40877
# Shear Modulus (GPa) = 32.16675 36.92340 34.54507
#
# Velocity S-wave (km/s) = 3.92148 4.20143 4.06387
# Velocity P-wave (km/s) = 5.73196 6.19253 5.96669
#
# Compressibility (1/GPa) = 0.03870587
#
# Stress axis : x y z
#
# Youngs Moduli (GPa) = 47.32291 82.41008 71.74969
#
# Poissons Ratio (x) = 0.09821 0.05946
# Poissons Ratio (y) = 0.05640 0.15988
# Poissons Ratio (z) = 0.03921 0.18363
#
# Static dielectric constant tensor:
#      x y z
#    x 1.761520 0.000000 -0.052230 
#    y 0.000000 1.805900 0.000000 
#    z -0.052230 0.000000 1.801530 
# 
# From -- ./inp_files/203015.got.cif
#   From: 2010.05.17/outbox.cif.g08.bks.cpg/sg15_102_cif.got.tgz:203015.got - 2010.06.03 18:47:42.
