data_PCOD9283139
_publ_section_title
;
Structure prediction by ZEFSAII (Michael W. Deem and Ramdas Pophale) SiO2 
 PCOD9283139
Probable space group: C 2/C
;
_chemical_formula_sum "Si O2"
_cell_formula_units_Z 48
_cell_length_a 8.676025
_cell_length_b 17.611766
_cell_length_c 15.059028
_cell_angle_alpha 90.000000
_cell_angle_beta 92.127294
_cell_angle_gamma 90.000000
_cell_volume 2299.435510
_symmetry_space_group_name_H-M "C 2/C"
_symmetry_group_IT_number 15
_symmetry_cell_setting 'monoclinic'
loop_
_space_group_symop_operation_xyz
x,y,z
-x,y,1/2-z
-x,-y,-z
x,-y,1/2+z
1/2+x,1/2+y,z
1/2-x,1/2+y,1/2-z
1/2-x,1/2-y,-z
1/2+x,1/2-y,1/2+z
loop_
_atom_site_type_symbol
_atom_site_label
_atom_site_fract_x
_atom_site_fract_y
_atom_site_fract_z
Si Si1 0.500000 0.890334 0.250000
Si Si2 0.148615 0.036662 0.078009
Si Si3 0.340401 0.317295 0.296016
Si Si4 0.000000 0.942677 0.750000
Si Si5 0.397355 0.624108 0.994455
Si Si6 0.726511 0.149804 0.163045
Si Si7 0.990157 0.519631 0.104109
O O1 0.668307 0.847650 0.262340
O O2 0.513043 0.944772 0.164150
O O3 0.318360 0.049799 0.115791
O O4 0.044044 0.014102 0.160955
O O5 0.156375 0.964287 0.013302
O O6 0.073240 0.109341 0.029018
O O7 0.500000 0.341715 0.250000
O O8 0.365919 0.341287 0.398755
O O9 0.332257 0.226153 0.294268
O O10 0.142834 0.889356 0.775495
O O11 0.308257 0.667106 0.070036
O O12 0.602492 0.085582 0.138454
O O13 0.000000 0.500000 0.000000
#
# Coordination Sequence:
#
# PCOD9283139 Si02
#       7
#     4   8   8   4   8   8   8
#     4  12  27  48  72 105 146 184 242 296 349 418
#     4  10  21  39  68 102 127 172 232 283 346 407
#     4  12  28  44  70 100 141 189 235 286 357 421
#     4  10  23  38  70  93 136 176 222 288 347 410
#     4  10  22  43  67  96 137 178 226 288 351 415
#     4  11  24  45  67  98 142 181 227 288 360 418
#     4  12  24  43  72 105 136 179 236 299 349 421
#
# _framework density 20.874687999999999
#
# number of rings (size 3 to 8) (size 9 to 14) (size 15 to 20)
#    0.000    1.000    3.333    2.000    7.000    0.000 
#    0.000    0.833    0.000    0.000    0.000    0.000 
#    0.000    0.000    0.000    0.000    0.000    0.000 
#
# Total GULP energy -133951.624814 kJ/mol
# GULP energy per Si atom -5581.317701 kJ/mol
# Density = 2.082718 g / cm^3
# Si number density = 20.874688 Si / 1000 Ang^3
#
#
#
# Elastic Constant Matrix: (Units=GPa)
#
#
# Indices 1 2 3 4 5 6 
#
# 1 146.3807 62.7222 48.2507 0.0000 20.6985 0.0000
# 2 62.7222 87.6072 26.1678 0.0000 11.1330 0.0000
# 3 48.2507 26.1678 114.1040 0.0000 5.3653 0.0000
# 4 0.0000 0.0000 0.0000 18.0444 0.0000 -0.9399
# 5 20.6985 11.1330 5.3653 0.0000 34.7934 0.0000
# 6 0.0000 0.0000 0.0000 -0.9399 0.0000 21.6461
#
#
#
# Elastic Compliance Matrix: (Units=1/GPa)
#
#
# Indices 1 2 3 4 5 6 
#
# 1 0.011256 -0.006627 -0.003047 0.000000 -0.004106 0.000000
# 2 -0.006627 0.016597 -0.000947 0.000000 -0.001222 0.000000
# 3 -0.003047 -0.000947 0.010244 0.000000 0.000536 0.000000
# 4 0.000000 0.000000 0.000000 0.055544 0.000000 0.002412
# 5 -0.004106 -0.001222 0.000536 0.000000 0.031492 0.000000
# 6 0.000000 0.000000 0.000000 0.002412 0.000000 0.046303
#
#
# Mechanical properties :
#
#
# Convention : Reuss Voigt Hill
#
# Bulk Modulus (GPa) = 59.32341 69.15256 64.23799
# Shear Modulus (GPa) = 25.21486 28.96019 27.08753
#
# Velocity S-wave (km/s) = 3.47928 3.72874 3.60616
# Velocity P-wave (km/s) = 6.67990 7.19287 6.94112
#
# Compressibility (1/GPa) = 0.01685675
#
# Stress axis : x y z
#
# Youngs Moduli (GPa) = 88.84229 60.25156 97.61562
#
# Poissons Ratio (x) = 0.39927 0.29743
# Poissons Ratio (y) = 0.58874 0.09240
# Poissons Ratio (z) = 0.27070 0.05703
#
# Static dielectric constant tensor:
#      x y z
#    x 1.857500 0.000000 -0.050310 
#    y 0.000000 1.750610 0.000000 
#    z -0.050310 0.000000 1.821520 
# 
# From -- ./inp_files/134917.got.cif
#   From: 2010.05.17/outbox.cif.g08.bks.cpg/sg15_68_cif.got.tgz:134917.got - 2010.06.03 18:47:42.
