data_PCOD9283916
_publ_section_title
;
Structure prediction by ZEFSAII (Michael W. Deem and Ramdas Pophale) SiO2 
 PCOD9283916
Probable space group: C 2/C
;
_chemical_formula_sum "Si O2"
_cell_formula_units_Z 44
_cell_length_a 25.280143
_cell_length_b 15.435024
_cell_length_c 11.832590
_cell_angle_alpha 90.000000
_cell_angle_beta 27.612412
_cell_angle_gamma 90.000000
_cell_volume 2139.957503
_symmetry_space_group_name_H-M "C 2/C"
_symmetry_group_IT_number 15
_symmetry_cell_setting 'monoclinic'
loop_
_space_group_symop_operation_xyz
x,y,z
-x,y,1/2-z
-x,-y,-z
x,-y,1/2+z
1/2+x,1/2+y,z
1/2-x,1/2+y,1/2-z
1/2-x,1/2-y,-z
1/2+x,1/2-y,1/2+z
loop_
_atom_site_type_symbol
_atom_site_label
_atom_site_fract_x
_atom_site_fract_y
_atom_site_fract_z
Si Si1 0.902864 0.429279 0.651990
Si Si2 0.874077 0.223900 0.300927
Si Si3 0.443474 0.226547 0.234091
Si Si4 0.649420 0.408283 0.144395
Si Si5 0.000000 0.670674 0.750000
Si Si6 0.504221 0.564342 0.369016
O O1 0.893258 0.360841 0.774729
O O2 0.941178 0.385497 0.460848
O O3 0.000000 0.500000 0.500000
O O4 0.769558 0.453383 0.890317
O O5 0.750000 0.250000 0.500000
O O6 0.911612 0.270373 0.346253
O O7 0.895560 0.121730 0.266900
O O8 0.958035 0.253687 0.042906
O O9 0.500000 0.216802 0.250000
O O10 0.359460 0.310053 0.385092
O O11 0.543806 0.465240 0.297172
O O12 0.612935 0.412519 0.345428
O O13 0.500000 0.592512 0.250000
#
# Coordination Sequence:
#
# PCOD9283916 Si02
#       6
#     8   8   8   8   4   8
#     4  11  26  43  64  96 131 175 220 275 339 401
#     4  10  22  39  66  96 127 173 220 270 336 394
#     4  10  23  42  64  94 126 168 222 265 332 399
#     4  10  23  41  63  94 128 167 218 268 330 393
#     4  10  24  44  62  92 136 170 222 272 332 404
#     4  10  21  40  65  93 126 166 218 271 324 392
#
# _framework density 20.561154999999999
#
# number of rings (size 3 to 8) (size 9 to 14) (size 15 to 20)
#    0.000    1.818    0.909    1.091    8.909    2.909 
#    0.000    0.000    0.000    0.000    0.000    0.000 
#    0.000    0.000    0.000    0.000    0.000    0.000 
#
# Total GULP energy -122588.940139 kJ/mol
# GULP energy per Si atom -5572.224552 kJ/mol
# Density = 2.051436 g / cm^3
# Si number density = 20.561155 Si / 1000 Ang^3
#
#
#
# Elastic Constant Matrix: (Units=GPa)
#
#
# Indices 1 2 3 4 5 6 
#
# 1 117.4975 25.8901 33.9836 0.0000 16.0510 0.0000
# 2 25.8901 83.5948 29.0554 0.0000 -1.4305 0.0000
# 3 33.9836 29.0554 91.0621 0.0000 -9.3138 0.0000
# 4 0.0000 0.0000 0.0000 23.0089 0.0000 -6.8567
# 5 16.0510 -1.4305 -9.3138 0.0000 32.3174 0.0000
# 6 0.0000 0.0000 0.0000 -6.8567 0.0000 6.0110
#
#
#
# Elastic Compliance Matrix: (Units=1/GPa)
#
#
# Indices 1 2 3 4 5 6 
#
# 1 0.011113 -0.002108 -0.004172 0.000000 -0.006815 0.000000
# 2 -0.002108 0.013868 -0.003574 0.000000 0.000631 0.000000
# 3 -0.004172 -0.003574 0.014296 0.000000 0.006034 0.000000
# 4 0.000000 0.000000 0.000000 0.065844 0.000000 0.075109
# 5 -0.006815 0.000631 0.006034 0.000000 0.036095 0.000000
# 6 0.000000 0.000000 0.000000 0.075109 0.000000 0.252039
#
#
# Mechanical properties :
#
#
# Convention : Reuss Voigt Hill
#
# Bulk Modulus (GPa) = 51.09929 52.22363 51.66146
# Shear Modulus (GPa) = 11.91938 25.81581 18.86759
#
# Velocity S-wave (km/s) = 2.41032 3.54724 3.03253
# Velocity P-wave (km/s) = 5.71423 6.49858 6.11898
#
# Compressibility (1/GPa) = 0.01956974
#
# Stress axis : x y z
#
# Youngs Moduli (GPa) = 89.98545 72.10652 69.95131
#
# Poissons Ratio (x) = 0.15203 0.29180
# Poissons Ratio (y) = 0.18973 0.24998
# Poissons Ratio (z) = 0.37538 0.25768
#
# Static dielectric constant tensor:
#      x y z
#    x 1.795710 0.000000 -0.033860 
#    y 0.000000 1.843720 0.000000 
#    z -0.033860 0.000000 1.759830 
# 
# From -- ./inp_files/119154.got.cif
#   From: 2010.05.17/outbox.cif.g08.bks.cpg/sg15_60_cif.got.tgz:119154.got - 2010.06.03 18:47:42.
