data_PCOD9283237
_publ_section_title
;
Structure prediction by ZEFSAII (Michael W. Deem and Ramdas Pophale) SiO2 
 PCOD9283237
Probable space group: C 2/C
;
_chemical_formula_sum "Si O2"
_cell_formula_units_Z 56
_cell_length_a 7.948924
_cell_length_b 16.895048
_cell_length_c 17.686326
_cell_angle_alpha 90.000000
_cell_angle_beta 109.022444
_cell_angle_gamma 90.000000
_cell_volume 2245.519603
_symmetry_space_group_name_H-M "C 2/C"
_symmetry_group_IT_number 15
_symmetry_cell_setting 'monoclinic'
loop_
_space_group_symop_operation_xyz
x,y,z
-x,y,1/2-z
-x,-y,-z
x,-y,1/2+z
1/2+x,1/2+y,z
1/2-x,1/2+y,1/2-z
1/2-x,1/2-y,-z
1/2+x,1/2-y,1/2+z
loop_
_atom_site_type_symbol
_atom_site_label
_atom_site_fract_x
_atom_site_fract_y
_atom_site_fract_z
Si Si1 0.165236 0.584947 0.622569
Si Si2 0.841745 0.190660 0.907683
Si Si3 0.770712 0.351510 0.948676
Si Si4 0.500000 0.000000 0.500000
Si Si5 0.724236 0.655488 0.008303
Si Si6 0.289053 0.717826 0.737382
Si Si7 0.629359 0.628853 0.161147
Si Si8 0.000000 0.004142 0.750000
O O1 0.996122 0.529476 0.594510
O O2 0.160396 0.596169 0.528066
O O3 0.172285 0.672537 0.657518
O O4 0.345926 0.552123 0.684697
O O5 0.881045 0.285542 0.918931
O O6 0.763463 0.176367 0.814230
O O7 0.024197 0.143834 0.947306
O O8 0.722636 0.173589 0.962578
O O9 0.569391 0.343850 0.890547
O O10 0.831302 0.440799 0.952474
O O11 0.750000 0.750000 0.000000
O O12 0.732116 0.631306 0.096342
O O13 0.500000 0.716442 0.750000
O O14 0.220964 0.806917 0.728019
O O15 0.601677 0.549036 0.203042
#
# Coordination Sequence:
#
# PCOD9283237 Si02
#       8
#     8   8   8   4   8   8   8   4
#     4  12  25  45  71  99 144 190 241 299 371 425
#     4  10  21  39  70 101 132 170 247 285 355 417
#     4  10  23  43  67 100 135 192 228 297 344 448
#     4  12  26  46  66  96 146 194 236 284 370 436
#     4  11  20  42  70  99 127 183 241 294 343 440
#     4  12  23  43  74 107 138 188 243 316 360 439
#     4  11  24  42  71 102 143 186 238 295 373 427
#     4  12  24  48  66 106 150 188 226 314 378 424
#
# _framework density 24.938549999999999
#
# number of rings (size 3 to 8) (size 9 to 14) (size 15 to 20)
#    0.000    0.857    5.000    1.714    4.000    0.571 
#    2.571    0.000    0.000    0.000    0.000    0.000 
#    0.000    0.000    0.000    0.000    0.000    0.000 
#
# Total GULP energy -156224.999669 kJ/mol
# GULP energy per Si atom -5579.464274 kJ/mol
# Density = 2.488179 g / cm^3
# Si number density = 24.938550 Si / 1000 Ang^3
#
#
#
# Elastic Constant Matrix: (Units=GPa)
#
#
# Indices 1 2 3 4 5 6 
#
# 1 57.6855 9.1981 25.8888 0.0000 8.5585 0.0000
# 2 9.1981 87.4277 5.1599 0.0000 -2.4868 0.0000
# 3 25.8888 5.1599 113.7351 0.0000 -0.1585 0.0000
# 4 0.0000 0.0000 0.0000 48.3984 0.0000 10.1499
# 5 8.5585 -2.4868 -0.1585 0.0000 49.3390 0.0000
# 6 0.0000 0.0000 0.0000 10.1499 0.0000 30.0569
#
#
#
# Elastic Compliance Matrix: (Units=1/GPa)
#
#
# Indices 1 2 3 4 5 6 
#
# 1 0.020212 -0.001963 -0.004517 0.000000 -0.003620 0.000000
# 2 -0.001963 0.011676 -0.000082 0.000000 0.000929 0.000000
# 3 -0.004517 -0.000082 0.009825 0.000000 0.000811 0.000000
# 4 0.000000 0.000000 0.000000 0.022237 0.000000 -0.007509
# 5 -0.003620 0.000929 0.000811 0.000000 0.020945 0.000000
# 6 0.000000 0.000000 0.000000 -0.007509 0.000000 0.035806
#
#
# Mechanical properties :
#
#
# Convention : Reuss Voigt Hill
#
# Bulk Modulus (GPa) = 34.97611 37.70464 36.34038
# Shear Modulus (GPa) = 34.87859 40.13229 37.50544
#
# Velocity S-wave (km/s) = 3.74382 4.01589 3.88224
# Velocity P-wave (km/s) = 5.72220 6.05434 5.89061
#
# Compressibility (1/GPa) = 0.02859094
#
# Stress axis : x y z
#
# Youngs Moduli (GPa) = 49.47435 85.64745 101.77775
#
# Poissons Ratio (x) = 0.16812 0.45971
# Poissons Ratio (y) = 0.09711 0.00831
# Poissons Ratio (z) = 0.22347 0.00699
#
# Static dielectric constant tensor:
#      x y z
#    x 3.050960 0.000000 0.321720 
#    y 0.000000 3.920960 0.000000 
#    z 0.321720 0.000000 2.111360 
# 
# From -- ./inp_files/191100.got.cif
#   From: 2010.05.17/outbox.cif.g08.bks.cpg/sg15_96_cif.got.tgz:191100.got - 2010.06.03 18:47:42.
