data_PCOD9283380
_publ_section_title
;
Structure prediction by ZEFSAII (Michael W. Deem and Ramdas Pophale) SiO2 
 PCOD9283380
Probable space group: C 2/C
;
_chemical_formula_sum "Si O2"
_cell_formula_units_Z 40
_cell_length_a 26.858186
_cell_length_b 8.058508
_cell_length_c 9.954936
_cell_angle_alpha 90.000000
_cell_angle_beta 120.635128
_cell_angle_gamma 90.000000
_cell_volume 1853.895371
_symmetry_space_group_name_H-M "C 2/C"
_symmetry_group_IT_number 15
_symmetry_cell_setting 'monoclinic'
loop_
_space_group_symop_operation_xyz
x,y,z
-x,y,1/2-z
-x,-y,-z
x,-y,1/2+z
1/2+x,1/2+y,z
1/2-x,1/2+y,1/2-z
1/2-x,1/2-y,-z
1/2+x,1/2-y,1/2+z
loop_
_atom_site_type_symbol
_atom_site_label
_atom_site_fract_x
_atom_site_fract_y
_atom_site_fract_z
Si Si1 0.177699 0.981910 0.379857
Si Si2 0.041066 0.478930 0.430948
Si Si3 0.138681 0.656827 0.441615
Si Si4 0.266465 0.645250 0.297551
Si Si5 0.145479 0.698605 0.988973
O O1 0.199316 0.036771 0.265190
O O2 0.144542 0.135498 0.401814
O O3 0.142237 0.811109 0.345800
O O4 0.231865 0.944884 0.555330
O O5 0.079578 0.641159 0.445434
O O6 0.089702 0.335543 0.504523
O O7 0.000000 0.440849 0.250000
O O8 0.000000 0.500000 0.500000
O O9 0.192449 0.696080 0.615253
O O10 0.144682 0.469345 0.396086
O O11 0.204661 0.690269 0.154369
#
# Coordination Sequence:
#
# PCOD9283380 Si02
#       5
#     8   8   8   8   8
#     4  10  22  38  61  97 128 159 206 259 329 378
#     4  10  24  43  65  89 123 174 216 252 306 373
#     4   8  23  39  63  94 128 161 213 261 307 390
#     4  10  21  40  61 102 130 159 206 265 329 376
#     4  10  21  40  67  90 129 170 207 264 318 375
#
# _framework density 21.576191000000001
#
# number of rings (size 3 to 8) (size 9 to 14) (size 15 to 20)
#    2.400    0.000    0.000    1.800    2.800    4.000 
#    3.600    2.000    0.000    0.000    0.000    0.000 
#    0.000    0.000    0.000    0.000    0.000    0.000 
#
# Total GULP energy -111459.908940 kJ/mol
# GULP energy per Si atom -5572.995447 kJ/mol
# Density = 2.152708 g / cm^3
# Si number density = 21.576191 Si / 1000 Ang^3
#
#
#
# Elastic Constant Matrix: (Units=GPa)
#
#
# Indices 1 2 3 4 5 6 
#
# 1 132.5324 35.5946 30.8992 0.0000 9.0002 0.0000
# 2 35.5946 138.5376 23.9406 0.0000 -1.2639 0.0000
# 3 30.8992 23.9406 61.9254 0.0000 -3.2994 0.0000
# 4 0.0000 0.0000 0.0000 19.2875 0.0000 -0.7120
# 5 9.0002 -1.2639 -3.2994 0.0000 34.3464 0.0000
# 6 0.0000 0.0000 0.0000 -0.7120 0.0000 34.3847
#
#
#
# Elastic Compliance Matrix: (Units=1/GPa)
#
#
# Indices 1 2 3 4 5 6 
#
# 1 0.009135 -0.001671 -0.004064 0.000000 -0.002846 0.000000
# 2 -0.001671 0.008041 -0.002247 0.000000 0.000518 0.000000
# 3 -0.004064 -0.002247 0.019196 0.000000 0.002826 0.000000
# 4 0.000000 0.000000 0.000000 0.051887 0.000000 0.001074
# 5 -0.002846 0.000518 0.002826 0.000000 0.030151 0.000000
# 6 0.000000 0.000000 0.000000 0.001074 0.000000 0.029105
#
#
# Mechanical properties :
#
#
# Convention : Reuss Voigt Hill
#
# Bulk Modulus (GPa) = 49.00173 57.09602 53.04888
# Shear Modulus (GPa) = 29.36348 33.77447 31.56898
#
# Velocity S-wave (km/s) = 3.69307 3.96075 3.82925
# Velocity P-wave (km/s) = 6.39885 6.88743 6.64763
#
# Compressibility (1/GPa) = 0.02040744
#
# Stress axis : x y z
#
# Youngs Moduli (GPa) = 109.47278 124.36899 52.09544
#
# Poissons Ratio (x) = 0.20778 0.21170
# Poissons Ratio (y) = 0.18290 0.11707
# Poissons Ratio (z) = 0.44486 0.27949
#
# Static dielectric constant tensor:
#      x y z
#    x 1.772300 0.000000 -0.006720 
#    y 0.000000 1.846780 0.000000 
#    z -0.006720 0.000000 1.792830 
# 
# From -- ./inp_files/125179.got.cif
#   From: 2010.05.17/outbox.cif.g08.bks.cpg/sg15_63_cif.got.tgz:125179.got - 2010.06.03 18:47:42.
