data_PCOD9283101
_publ_section_title
;
Structure prediction by ZEFSAII (Michael W. Deem and Ramdas Pophale) SiO2 
 PCOD9283101
Probable space group: C 2/C
;
_chemical_formula_sum "Si O2"
_cell_formula_units_Z 44
_cell_length_a 18.690383
_cell_length_b 12.494871
_cell_length_c 21.307547
_cell_angle_alpha 90.000000
_cell_angle_beta 161.805281
_cell_angle_gamma 90.000000
_cell_volume 1553.753802
_symmetry_space_group_name_H-M "C 2/C"
_symmetry_group_IT_number 15
_symmetry_cell_setting 'monoclinic'
loop_
_space_group_symop_operation_xyz
x,y,z
-x,y,1/2-z
-x,-y,-z
x,-y,1/2+z
1/2+x,1/2+y,z
1/2-x,1/2+y,1/2-z
1/2-x,1/2-y,-z
1/2+x,1/2-y,1/2+z
loop_
_atom_site_type_symbol
_atom_site_label
_atom_site_fract_x
_atom_site_fract_y
_atom_site_fract_z
Si Si1 0.675328 0.398614 0.767329
Si Si2 0.791142 0.268039 0.598234
Si Si3 0.000000 0.055603 0.250000
Si Si4 0.004241 0.495562 0.816866
Si Si5 0.157633 0.100554 0.613573
Si Si6 0.331162 0.861134 0.383259
O O1 0.587948 0.374013 0.764569
O O2 0.476837 0.352102 0.557009
O O3 0.698420 0.528269 0.788467
O O4 0.913821 0.375719 0.931060
O O5 0.573699 0.265098 0.360330
O O6 0.670189 0.204867 0.554011
O O7 0.843035 0.393069 0.664161
O O8 0.224390 0.981441 0.448218
O O9 0.000000 0.565523 0.750000
O O10 0.893872 0.552216 0.784142
O O11 0.199125 0.170129 0.709229
O O12 0.000000 0.000000 0.500000
#
# Coordination Sequence:
#
# PCOD9283101 Si02
#       6
#     8   8   4   8   8   8
#     4  10  22  36  69  91 137 184 248 308 348 427
#     4  11  29  45  66  99 155 203 233 293 380 470
#     4  12  22  40  70 108 140 190 240 310 372 426
#     4  11  24  43  68 105 150 189 238 296 374 450
#     4  10  21  39  67  92 133 191 248 302 347 426
#     4  10  23  43  60  93 136 196 246 300 361 434
#
# _framework density 28.318515000000001
#
# number of rings (size 3 to 8) (size 9 to 14) (size 15 to 20)
#    0.000    1.455    3.636    0.000   11.455    0.000 
#    0.000    0.000    0.000    0.000    0.000    0.000 
#    2.727   14.909    0.000    0.182    0.000    0.000 
#
# Total GULP energy -122773.250903 kJ/mol
# GULP energy per Si atom -5580.602314 kJ/mol
# Density = 2.825406 g / cm^3
# Si number density = 28.318515 Si / 1000 Ang^3
#
#
#
# Elastic Constant Matrix: (Units=GPa)
#
#
# Indices 1 2 3 4 5 6 
#
# 1 306.9169 54.3036 117.0558 -0.0174 -23.0058 0.0035
# 2 54.3036 66.8528 26.7062 -0.0877 -5.9558 -0.0031
# 3 117.0558 26.7062 213.1581 -0.0091 2.6993 0.0143
# 4 -0.0174 -0.0877 -0.0091 24.1286 0.0204 11.3230
# 5 -23.0058 -5.9558 2.6993 0.0204 87.8338 0.0188
# 6 0.0035 -0.0031 0.0143 11.3230 0.0188 30.6730
#
#
#
# Elastic Compliance Matrix: (Units=1/GPa)
#
#
# Indices 1 2 3 4 5 6 
#
# 1 0.004694 -0.002820 -0.002238 -0.000010 0.001107 0.000003
# 2 -0.002820 0.017553 -0.000657 0.000073 0.000472 -0.000025
# 3 -0.002238 -0.000657 0.006013 0.000000 -0.000816 -0.000002
# 4 -0.000010 0.000073 0.000000 0.050129 -0.000005 -0.018505
# 5 0.001107 0.000472 -0.000816 -0.000005 0.011732 -0.000005
# 6 0.000003 -0.000025 -0.000002 -0.018505 -0.000005 0.039433
#
#
# Mechanical properties :
#
#
# Convention : Reuss Voigt Hill
#
# Bulk Modulus (GPa) = 59.41614 109.22878 84.32246
# Shear Modulus (GPa) = 34.10774 54.45123 44.27949
#
# Velocity S-wave (km/s) = 3.47426 4.38975 3.95856
# Velocity P-wave (km/s) = 6.09269 8.02175 7.12283
#
# Compressibility (1/GPa) = 0.01683044
#
# Stress axis : x y z
#
# Youngs Moduli (GPa) = 213.04665 56.96940 166.30302
#
# Poissons Ratio (x) = 0.16065 0.37224
# Poissons Ratio (y) = 0.60078 0.10920
# Poissons Ratio (z) = 0.47687 0.03741
#
# Static dielectric constant tensor:
#      x y z
#    x 2.223670 -0.000030 -0.127290 
#    y -0.000030 2.308230 0.000070 
#    z -0.127290 0.000070 2.429420 
# 
# From -- ./inp_files/249681.got.cif
#   From: 2010.05.17/outbox.cif.g08.bks.cpg/sg15_125_cif.got.tgz:249681.got - 2010.06.03 18:47:42.
