data_PCOD9283710
_publ_section_title
;
Structure prediction by ZEFSAII (Michael W. Deem and Ramdas Pophale) SiO2 
 PCOD9283710
Probable space group: C 2/C
;
_chemical_formula_sum "Si O2"
_cell_formula_units_Z 52
_cell_length_a 10.881203
_cell_length_b 31.724762
_cell_length_c 10.786084
_cell_angle_alpha 90.000000
_cell_angle_beta 51.817894
_cell_angle_gamma 90.000000
_cell_volume 2926.774413
_symmetry_space_group_name_H-M "C 2/C"
_symmetry_group_IT_number 15
_symmetry_cell_setting 'monoclinic'
loop_
_space_group_symop_operation_xyz
x,y,z
-x,y,1/2-z
-x,-y,-z
x,-y,1/2+z
1/2+x,1/2+y,z
1/2-x,1/2+y,1/2-z
1/2-x,1/2-y,-z
1/2+x,1/2-y,1/2+z
loop_
_atom_site_type_symbol
_atom_site_label
_atom_site_fract_x
_atom_site_fract_y
_atom_site_fract_z
Si Si1 0.500000 0.604529 0.250000
Si Si2 0.149949 0.111060 0.726040
Si Si3 0.177188 0.409201 0.629646
Si Si4 0.515946 0.549802 0.481035
Si Si5 0.792507 0.657141 0.180844
Si Si6 0.166426 0.757951 0.684194
Si Si7 0.411862 0.164830 0.678815
O O1 0.463472 0.573667 0.388529
O O2 0.651585 0.632797 0.194849
O O3 0.266004 0.096128 0.545865
O O4 0.251308 0.140834 0.751093
O O5 0.000000 0.131684 0.750000
O O6 0.076726 0.072926 0.850166
O O7 0.300996 0.439814 0.616769
O O8 0.192911 0.365443 0.695972
O O9 0.000000 0.423716 0.750000
O O10 0.500000 0.500000 0.500000
O O11 0.752141 0.706568 0.209524
O O12 0.958690 0.655605 0.006734
O O13 0.250000 0.750000 0.500000
O O14 0.131947 0.714093 0.775033
O O15 0.000000 0.776527 0.750000
O O16 0.500000 0.151899 0.750000
#
# Coordination Sequence:
#
# PCOD9283710 Si02
#       7
#     4   8   8   8   8   8   8
#     4  10  22  36  64  92 122 158 208 254 310 380
#     4  10  22  41  64  88 124 168 202 253 315 382
#     4  10  21  40  64  85 120 168 201 248 307 379
#     4  10  23  40  65  93 123 157 201 257 313 379
#     4  11  20  37  58  90 123 161 212 254 308 367
#     4  11  21  33  56  88 127 161 202 267 314 355
#     4  11  21  36  62  90 122 158 216 266 306 359
#
# _framework density 17.766998999999998
#
# number of rings (size 3 to 8) (size 9 to 14) (size 15 to 20)
#    0.000    1.538    5.385    0.923    3.231    1.231 
#    0.000    4.615    0.000    0.000    0.000    0.000 
#    0.000    0.000    0.000    0.000    0.000    0.000 
#
# Total GULP energy -144932.024630 kJ/mol
# GULP energy per Si atom -5574.308640 kJ/mol
# Density = 1.772656 g / cm^3
# Si number density = 17.766999 Si / 1000 Ang^3
#
#
#
# Elastic Constant Matrix: (Units=GPa)
#
#
# Indices 1 2 3 4 5 6 
#
# 1 98.3317 49.4636 35.0113 0.0000 -11.5312 0.0000
# 2 49.4636 108.4504 38.0430 0.0000 -3.2052 0.0000
# 3 35.0113 38.0430 115.6130 0.0000 -6.6747 0.0000
# 4 0.0000 0.0000 0.0000 23.1756 0.0000 -4.2561
# 5 -11.5312 -3.2052 -6.6747 0.0000 35.0638 0.0000
# 6 0.0000 0.0000 0.0000 -4.2561 0.0000 12.0104
#
#
#
# Elastic Compliance Matrix: (Units=1/GPa)
#
#
# Indices 1 2 3 4 5 6 
#
# 1 0.014219 -0.005585 -0.002253 0.000000 0.003737 0.000000
# 2 -0.005585 0.012621 -0.002529 0.000000 -0.001164 0.000000
# 3 -0.002253 -0.002529 0.010220 0.000000 0.000973 0.000000
# 4 0.000000 0.000000 0.000000 0.046152 0.000000 0.016355
# 5 0.003737 -0.001164 0.000973 0.000000 0.029827 0.000000
# 6 0.000000 0.000000 0.000000 0.016355 0.000000 0.089057
#
#
# Mechanical properties :
#
#
# Convention : Reuss Voigt Hill
#
# Bulk Modulus (GPa) = 61.24622 63.04786 62.14704
# Shear Modulus (GPa) = 21.90378 27.37510 24.63944
#
# Velocity S-wave (km/s) = 3.51498 3.92954 3.72803
# Velocity P-wave (km/s) = 7.14284 7.49342 7.32023
#
# Compressibility (1/GPa) = 0.01632754
#
# Stress axis : x y z
#
# Youngs Moduli (GPa) = 70.32761 79.23537 97.84685
#
# Poissons Ratio (x) = 0.44250 0.22041
# Poissons Ratio (y) = 0.39276 0.24744
# Poissons Ratio (z) = 0.15842 0.20038
#
# Static dielectric constant tensor:
#      x y z
#    x 1.627410 0.000000 0.003050 
#    y 0.000000 1.583840 0.000000 
#    z 0.003050 0.000000 1.606800 
# 
# From -- ./inp_files/92418.got.cif
#   From: 2010.05.17/outbox.cif.g08.bks.cpg/sg15_47_cif.got.tgz:92418.got - 2010.06.03 18:47:42.
