data_PCOD9283064
_publ_section_title
;
Structure prediction by ZEFSAII (Michael W. Deem and Ramdas Pophale) SiO2 
 PCOD9283064
Probable space group: C 2/C
;
_chemical_formula_sum "Si O2"
_cell_formula_units_Z 56
_cell_length_a 16.717865
_cell_length_b 9.414392
_cell_length_c 18.772391
_cell_angle_alpha 90.000000
_cell_angle_beta 114.017761
_cell_angle_gamma 90.000000
_cell_volume 2698.751402
_symmetry_space_group_name_H-M "C 2/C"
_symmetry_group_IT_number 15
_symmetry_cell_setting 'monoclinic'
loop_
_space_group_symop_operation_xyz
x,y,z
-x,y,1/2-z
-x,-y,-z
x,-y,1/2+z
1/2+x,1/2+y,z
1/2-x,1/2+y,1/2-z
1/2-x,1/2-y,-z
1/2+x,1/2-y,1/2+z
loop_
_atom_site_type_symbol
_atom_site_label
_atom_site_fract_x
_atom_site_fract_y
_atom_site_fract_z
Si Si1 0.348918 0.679137 0.748707
Si Si2 0.577208 0.670978 0.335490
Si Si3 0.051613 0.333916 0.114684
Si Si4 0.813157 0.154202 0.255062
Si Si5 0.014731 0.397958 0.674297
Si Si6 0.125583 0.650925 0.491411
Si Si7 0.820005 0.098068 0.579795
O O1 0.280768 0.785547 0.760094
O O2 0.326220 0.515595 0.757675
O O3 0.442650 0.741053 0.806714
O O4 0.339060 0.685305 0.659541
O O5 0.500000 0.631807 0.250000
O O6 0.535879 0.779145 0.377097
O O7 0.653661 0.716927 0.308819
O O8 0.617762 0.537659 0.391299
O O9 0.123275 0.218161 0.162316
O O10 0.075195 0.484241 0.158792
O O11 0.058549 0.348816 0.032887
O O12 0.000000 0.443233 0.750000
O O13 0.927619 0.402397 0.595837
O O14 0.157246 0.808358 0.480670
O O15 0.215569 0.568059 0.541311
#
# Coordination Sequence:
#
# PCOD9283064 Si02
#       7
#     8   8   8   8   8   8   8
#     4  11  22  40  70  97 127 176 219 272 320 393
#     4   9  21  39  69  94 129 173 220 270 319 381
#     4  11  23  43  64  97 135 172 211 280 327 385
#     4  10  21  39  66  99 131 166 226 269 326 379
#     4  12  25  41  68  95 128 172 226 263 323 396
#     4  11  24  42  64  92 136 171 213 270 334 390
#     4  10  22  42  65  95 128 172 213 269 327 394
#
# _framework density 20.750336999999998
#
# number of rings (size 3 to 8) (size 9 to 14) (size 15 to 20)
#    0.000    1.429    2.857    2.571    8.000    0.571 
#    0.000    0.714    0.000    0.000    0.000    0.000 
#    0.000    0.000    0.000    0.000    0.000    0.000 
#
# Total GULP energy -156216.950918 kJ/mol
# GULP energy per Si atom -5579.176819 kJ/mol
# Density = 2.070311 g / cm^3
# Si number density = 20.750337 Si / 1000 Ang^3
#
#
#
# Elastic Constant Matrix: (Units=GPa)
#
#
# Indices 1 2 3 4 5 6 
#
# 1 79.6354 49.3732 36.9130 0.0000 -6.6955 0.0000
# 2 49.3732 75.7667 38.1693 0.0000 1.4829 0.0000
# 3 36.9130 38.1693 102.2611 0.0000 -4.9597 0.0000
# 4 0.0000 0.0000 0.0000 9.2412 0.0000 3.6605
# 5 -6.6955 1.4829 -4.9597 0.0000 31.8032 0.0000
# 6 0.0000 0.0000 0.0000 3.6605 0.0000 30.8017
#
#
#
# Elastic Compliance Matrix: (Units=1/GPa)
#
#
# Indices 1 2 3 4 5 6 
#
# 1 0.022610 -0.013349 -0.002940 0.000000 0.004924 0.000000
# 2 -0.013349 0.024230 -0.004450 0.000000 -0.004634 0.000000
# 3 -0.002940 -0.004450 0.012576 0.000000 0.001550 0.000000
# 4 0.000000 0.000000 0.000000 0.113557 0.000000 -0.013495
# 5 0.004924 -0.004634 0.001550 0.000000 0.032938 0.000000
# 6 0.000000 0.000000 0.000000 -0.013495 0.000000 0.034069
#
#
# Mechanical properties :
#
#
# Convention : Reuss Voigt Hill
#
# Bulk Modulus (GPa) = 55.74801 56.28602 56.01701
# Shear Modulus (GPa) = 17.39500 23.24974 20.32237
#
# Velocity S-wave (km/s) = 2.89848 3.35095 3.13289
# Velocity P-wave (km/s) = 6.17462 6.49277 6.33569
#
# Compressibility (1/GPa) = 0.01793786
#
# Stress axis : x y z
#
# Youngs Moduli (GPa) = 44.22725 41.27129 79.51431
#
# Poissons Ratio (x) = 0.55094 0.23379
# Poissons Ratio (y) = 0.59040 0.35384
# Poissons Ratio (z) = 0.13004 0.18366
#
# Static dielectric constant tensor:
#      x y z
#    x 1.814830 0.000000 0.010130 
#    y 0.000000 1.758010 0.000000 
#    z 0.010130 0.000000 1.731570 
# 
# From -- ./inp_files/209621.got.cif
#   From: 2010.05.17/outbox.cif.g08.bks.cpg/sg15_105_cif.got.tgz:209621.got - 2010.06.03 18:47:42.
