data_PCOD9283808
_publ_section_title
;
Structure prediction by ZEFSAII (Michael W. Deem and Ramdas Pophale) SiO2 
 PCOD9283808
Probable space group: C 2/C
;
_chemical_formula_sum "Si O2"
_cell_formula_units_Z 52
_cell_length_a 19.638146
_cell_length_b 5.750289
_cell_length_c 22.490538
_cell_angle_alpha 90.000000
_cell_angle_beta 122.869241
_cell_angle_gamma 90.000000
_cell_volume 2133.160083
_symmetry_space_group_name_H-M "C 2/C"
_symmetry_group_IT_number 15
_symmetry_cell_setting 'monoclinic'
loop_
_space_group_symop_operation_xyz
x,y,z
-x,y,1/2-z
-x,-y,-z
x,-y,1/2+z
1/2+x,1/2+y,z
1/2-x,1/2+y,1/2-z
1/2-x,1/2-y,-z
1/2+x,1/2-y,1/2+z
loop_
_atom_site_type_symbol
_atom_site_label
_atom_site_fract_x
_atom_site_fract_y
_atom_site_fract_z
Si Si1 0.380243 0.119919 0.094053
Si Si2 0.000000 0.498167 0.250000
Si Si3 0.062360 0.285259 0.477842
Si Si4 0.373634 0.013984 0.279431
Si Si5 0.559429 0.636256 0.604341
Si Si6 0.204753 0.959569 0.530374
Si Si7 0.796079 0.196360 0.345543
O O1 0.436082 0.135930 0.178283
O O2 0.298496 0.976493 0.069696
O O3 0.429579 0.993462 0.064723
O O4 0.338151 0.350711 0.047836
O O5 0.064640 0.374411 0.235173
O O6 0.040809 0.294917 0.537624
O O7 0.152280 0.180132 0.521519
O O8 0.002652 0.079957 0.425670
O O9 0.429944 0.217487 0.331743
O O10 0.296433 0.130142 0.211093
O O11 0.334276 0.880686 0.317559
O O12 0.648255 0.527036 0.639111
O O13 0.195622 0.768747 0.579544
#
# Coordination Sequence:
#
# PCOD9283808 Si02
#       7
#     8   4   8   8   8   8   8
#     4  11  22  41  64  94 138 179 217 282 352 402
#     4  12  26  42  64 100 142 170 218 292 346 402
#     4  10  21  40  64  95 127 170 231 286 329 406
#     4  12  23  42  65  96 136 178 220 285 343 409
#     4  10  22  40  66  95 128 174 229 282 334 409
#     4  10  22  41  66  96 129 182 230 274 337 414
#     4  11  22  41  68  94 131 177 232 273 338 414
#
# _framework density 24.37698
#
# number of rings (size 3 to 8) (size 9 to 14) (size 15 to 20)
#    0.000    1.231    3.077    3.231    0.000    0.000 
#    0.000   14.615    0.000    0.000    0.000    0.000 
#    0.000    0.000    0.000    0.000    0.000    0.000 
#
# Total GULP energy -145081.574907 kJ/mol
# GULP energy per Si atom -5580.060573 kJ/mol
# Density = 2.432150 g / cm^3
# Si number density = 24.376980 Si / 1000 Ang^3
#
#
#
# Elastic Constant Matrix: (Units=GPa)
#
#
# Indices 1 2 3 4 5 6 
#
# 1 171.6768 10.7134 43.1135 0.0000 18.2602 0.0000
# 2 10.7134 16.0896 25.9003 0.0000 3.2517 0.0006
# 3 43.1135 25.9003 158.8678 0.0000 16.7888 -0.0003
# 4 0.0000 0.0000 0.0000 25.7133 0.0000 1.1801
# 5 18.2602 3.2517 16.7888 0.0000 41.7032 -0.0001
# 6 0.0000 0.0006 -0.0003 1.1801 -0.0001 32.9465
#
#
#
# Elastic Compliance Matrix: (Units=1/GPa)
#
#
# Indices 1 2 3 4 5 6 
#
# 1 0.006484 -0.001918 -0.001214 0.000000 -0.002201 0.000000
# 2 -0.001918 0.084881 -0.013272 0.000000 -0.000436 -0.000002
# 3 -0.001214 -0.013272 0.009005 0.000000 -0.002059 0.000000
# 4 0.000000 0.000000 0.000000 0.038954 0.000000 -0.001395
# 5 -0.002201 -0.000436 -0.002059 0.000000 0.025805 0.000000
# 6 0.000000 -0.000002 0.000000 -0.001395 0.000000 0.030402
#
#
# Mechanical properties :
#
#
# Convention : Reuss Voigt Hill
#
# Bulk Modulus (GPa) = 14.80104 56.23207 35.51656
# Shear Modulus (GPa) = 19.93136 37.86639 28.89888
#
# Velocity S-wave (km/s) = 2.86253 3.94555 3.44684
# Velocity P-wave (km/s) = 4.12436 6.62377 5.51745
#
# Compressibility (1/GPa) = 0.06756281
#
# Stress axis : x y z
#
# Youngs Moduli (GPa) = 154.23567 11.78113 111.04485
#
# Poissons Ratio (x) = 0.02259 0.13484
# Poissons Ratio (y) = 0.29577 1.47377
# Poissons Ratio (z) = 0.18729 0.15636
#
# Static dielectric constant tensor:
#      x y z
#    x 2.053320 0.000000 -0.050990 
#    y 0.000000 1.936790 0.000000 
#    z -0.050990 0.000000 1.941790 
# 
# From -- ./inp_files/300164.got.cif
#   From: 2010.05.17/outbox.cif.g08.bks.cpg/sg15_151_cif.got.tgz:300164.got - 2010.06.03 18:47:42.
