data_PCOD9283776
_publ_section_title
;
Structure prediction by ZEFSAII (Michael W. Deem and Ramdas Pophale) SiO2 
 PCOD9283776
Probable space group: C 2/C
;
_chemical_formula_sum "Si O2"
_cell_formula_units_Z 60
_cell_length_a 7.381267
_cell_length_b 12.474823
_cell_length_c 26.954885
_cell_angle_alpha 90.000000
_cell_angle_beta 61.991824
_cell_angle_gamma 90.000000
_cell_volume 2191.314742
_symmetry_space_group_name_H-M "C 2/C"
_symmetry_group_IT_number 15
_symmetry_cell_setting 'monoclinic'
loop_
_space_group_symop_operation_xyz
x,y,z
-x,y,1/2-z
-x,-y,-z
x,-y,1/2+z
1/2+x,1/2+y,z
1/2-x,1/2+y,1/2-z
1/2-x,1/2-y,-z
1/2+x,1/2-y,1/2+z
loop_
_atom_site_type_symbol
_atom_site_label
_atom_site_fract_x
_atom_site_fract_y
_atom_site_fract_z
Si Si1 0.584342 0.532243 0.184107
Si Si2 0.952183 0.100804 0.898189
Si Si3 0.836022 0.921375 0.561274
Si Si4 0.696865 0.332178 0.830462
Si Si5 0.432257 0.887599 0.160443
Si Si6 0.999718 0.247324 0.971880
Si Si7 0.046536 0.415366 0.044316
Si Si8 0.000000 0.498152 0.250000
O O1 0.500000 0.543683 0.250000
O O2 0.494105 0.430743 0.164722
O O3 0.534518 0.633055 0.155657
O O4 0.820125 0.498708 0.160291
O O5 0.703871 0.082881 0.931012
O O6 0.052729 0.012813 0.921183
O O7 0.038430 0.210293 0.910574
O O8 0.671372 0.976819 0.544630
O O9 0.753143 0.849465 0.617922
O O10 0.004476 0.852688 0.509883
O O11 0.723041 0.209896 0.812380
O O12 0.818459 0.415902 0.780900
O O13 0.560964 0.853269 0.095362
O O14 0.526832 0.920247 0.199780
O O15 0.099324 0.346947 0.988121
O O16 0.750000 0.250000 0.000000
#
# Coordination Sequence:
#
# PCOD9283776 Si02
#       8
#     8   8   8   8   8   8   8   4
#     4  10  21  41  63  87 129 165 206 264 313 374
#     4   9  22  38  62  93 124 164 210 261 319 374
#     4  11  21  41  67  88 128 168 213 264 322 386
#     4  11  24  40  64  93 124 171 212 263 323 383
#     4  11  23  41  64  90 130 169 210 268 323 382
#     4  10  21  40  64  92 128 166 210 266 323 385
#     4  10  21  41  66  90 126 169 210 267 324 381
#     4  12  24  36  64  98 122 162 224 258 314 400
#
# _framework density 27.38082
#
# number of rings (size 3 to 8) (size 9 to 14) (size 15 to 20)
#    0.000    1.600    4.000    0.400    1.867    2.667 
#    0.000    2.667    0.000    0.000    0.000    0.000 
#    0.000    0.000    0.000    0.000    0.000    0.000 
#
# Total GULP energy -167293.189349 kJ/mol
# GULP energy per Si atom -5576.439645 kJ/mol
# Density = 2.731850 g / cm^3
# Si number density = 27.380820 Si / 1000 Ang^3
#
#
#
# Elastic Constant Matrix: (Units=GPa)
#
#
# Indices 1 2 3 4 5 6 
#
# 1 127.1260 47.6500 20.7287 0.0000 38.3352 0.0000
# 2 47.6500 104.5090 37.3057 0.0000 21.4880 0.0000
# 3 20.7287 37.3057 140.9138 0.0000 44.9430 0.0000
# 4 0.0000 0.0000 0.0000 30.8429 0.0000 11.3165
# 5 38.3352 21.4880 44.9430 0.0000 46.6337 0.0000
# 6 0.0000 0.0000 0.0000 11.3165 0.0000 43.4030
#
#
#
# Elastic Compliance Matrix: (Units=1/GPa)
#
#
# Indices 1 2 3 4 5 6 
#
# 1 0.012310 -0.004391 0.002792 0.000000 -0.010786 0.000000
# 2 -0.004391 0.012462 -0.002849 0.000000 0.000613 0.000000
# 3 0.002792 -0.002849 0.011194 0.000000 -0.011771 0.000000
# 4 0.000000 0.000000 0.000000 0.035852 0.000000 -0.009348
# 5 -0.010786 0.000613 -0.011771 0.000000 0.041372 0.000000
# 6 0.000000 0.000000 0.000000 -0.009348 0.000000 0.025477
#
#
# Mechanical properties :
#
#
# Convention : Reuss Voigt Hill
#
# Bulk Modulus (GPa) = 36.94215 64.87972 50.91093
# Shear Modulus (GPa) = 31.93137 41.96688 36.94912
#
# Velocity S-wave (km/s) = 3.41866 3.91923 3.67748
# Velocity P-wave (km/s) = 5.39484 6.65036 6.05523
#
# Compressibility (1/GPa) = 0.02706935
#
# Stress axis : x y z
#
# Youngs Moduli (GPa) = 81.23741 80.24700 89.33205
#
# Poissons Ratio (x) = 0.35239 -0.24942
# Poissons Ratio (y) = 0.35674 0.25448
# Poissons Ratio (z) = -0.22682 0.22860
#
# Static dielectric constant tensor:
#      x y z
#    x 2.441000 0.000000 -0.053820 
#    y 0.000000 2.311590 0.000000 
#    z -0.053820 0.000000 2.208800 
# 
# From -- ./inp_files/307139.got.cif
#   From: 2010.05.17/outbox.cif.g08.bks.cpg/sg15_154_cif.got.tgz:307139.got - 2010.06.03 18:47:42.
