data_PCOD9283043
_publ_section_title
;
Structure prediction by ZEFSAII (Michael W. Deem and Ramdas Pophale) SiO2 
 PCOD9283043
Probable space group: C 2/C
;
_chemical_formula_sum "Si O2"
_cell_formula_units_Z 40
_cell_length_a 11.055321
_cell_length_b 16.057490
_cell_length_c 9.902237
_cell_angle_alpha 90.000000
_cell_angle_beta 85.732240
_cell_angle_gamma 90.000000
_cell_volume 1752.977875
_symmetry_space_group_name_H-M "C 2/C"
_symmetry_group_IT_number 15
_symmetry_cell_setting 'monoclinic'
loop_
_space_group_symop_operation_xyz
x,y,z
-x,y,1/2-z
-x,-y,-z
x,-y,1/2+z
1/2+x,1/2+y,z
1/2-x,1/2+y,1/2-z
1/2-x,1/2-y,-z
1/2+x,1/2-y,1/2+z
loop_
_atom_site_type_symbol
_atom_site_label
_atom_site_fract_x
_atom_site_fract_y
_atom_site_fract_z
Si Si1 0.376085 0.049986 0.029266
Si Si2 0.234891 0.667334 0.662276
Si Si3 0.138608 0.677722 0.244546
Si Si4 0.748262 0.617912 0.536198
Si Si5 0.987380 0.079638 0.594778
O O1 0.364499 0.127950 0.928083
O O2 0.273971 0.980296 0.013133
O O3 0.366790 0.089471 0.178384
O O4 0.500000 0.000000 0.000000
O O5 0.269277 0.763869 0.679034
O O6 0.360966 0.627382 0.598539
O O7 0.207184 0.637970 0.817052
O O8 0.186829 0.665799 0.089625
O O9 0.000000 0.710760 0.250000
O O10 0.604728 0.634985 0.549584
O O11 0.000000 0.053344 0.750000
O O12 0.000000 0.000000 0.500000
#
# Coordination Sequence:
#
# PCOD9283043 Si02
#       5
#     8   8   8   8   8
#     4  12  25  45  70 101 142 189 237 282 346 430
#     4  11  25  44  69 101 139 180 232 294 353 412
#     4  12  25  45  69 102 144 186 234 297 356 411
#     4  11  23  42  73  98 136 185 237 285 350 423
#     4  10  21  39  66  96 129 175 230 286 343 415
#
# _framework density 22.818315999999999
#
# number of rings (size 3 to 8) (size 9 to 14) (size 15 to 20)
#    0.000    0.800    4.000    4.200    2.800    0.000 
#    0.000    0.000    4.400    0.000    0.000    0.000 
#    0.000    0.000    0.000    0.000    0.000    0.000 
#
# Total GULP energy -111873.442380 kJ/mol
# GULP energy per Si atom -5593.672119 kJ/mol
# Density = 2.276638 g / cm^3
# Si number density = 22.818316 Si / 1000 Ang^3
#
#
#
# Elastic Constant Matrix: (Units=GPa)
#
#
# Indices 1 2 3 4 5 6 
#
# 1 96.6634 21.8490 58.5184 0.0000 -14.2616 0.0000
# 2 21.8490 95.5436 37.9405 0.0000 -11.2804 0.0000
# 3 58.5184 37.9405 131.9159 0.0000 -36.2846 0.0000
# 4 0.0000 0.0000 0.0000 39.6940 0.0000 9.0237
# 5 -14.2616 -11.2804 -36.2846 0.0000 33.1706 0.0000
# 6 0.0000 0.0000 0.0000 9.0237 0.0000 22.5321
#
#
#
# Elastic Compliance Matrix: (Units=1/GPa)
#
#
# Indices 1 2 3 4 5 6 
#
# 1 0.014234 -0.000856 -0.006387 0.000000 -0.001157 0.000000
# 2 -0.000856 0.011872 -0.002897 0.000000 0.000500 0.000000
# 3 -0.006387 -0.002897 0.014619 0.000000 0.012261 0.000000
# 4 0.000000 0.000000 0.000000 0.027716 0.000000 -0.011100
# 5 -0.001157 0.000500 0.012261 0.000000 0.043231 0.000000
# 6 0.000000 0.000000 0.000000 -0.011100 0.000000 0.048826
#
#
# Mechanical properties :
#
#
# Convention : Reuss Voigt Hill
#
# Bulk Modulus (GPa) = 48.90868 62.30431 55.60649
# Shear Modulus (GPa) = 26.65339 32.80033 29.72686
#
# Velocity S-wave (km/s) = 3.42141 3.79549 3.61330
# Velocity P-wave (km/s) = 6.09004 6.82433 6.46761
#
# Compressibility (1/GPa) = 0.02044627
#
# Stress axis : x y z
#
# Youngs Moduli (GPa) = 70.25360 84.23418 68.40233
#
# Poissons Ratio (x) = 0.07207 0.43685
# Poissons Ratio (y) = 0.06011 0.19818
# Poissons Ratio (z) = 0.44868 0.24405
#
# Static dielectric constant tensor:
#      x y z
#    x 1.818130 0.000000 -0.049640 
#    y 0.000000 1.892970 0.000000 
#    z -0.049640 0.000000 1.743140 
# 
# From -- ./inp_files/29059.got.cif
#   From: 2010.05.17/outbox.cif.g08.bks.cpg/sg15_15_cif.got.tgz:29059.got - 2010.06.03 18:47:42.
