data_PCOD9283759
_publ_section_title
;
Structure prediction by ZEFSAII (Michael W. Deem and Ramdas Pophale) SiO2 
 PCOD9283759
Probable space group: C 2/C
;
_chemical_formula_sum "Si O2"
_cell_formula_units_Z 56
_cell_length_a 25.095640
_cell_length_b 11.682432
_cell_length_c 26.229446
_cell_angle_alpha 90.000000
_cell_angle_beta 159.859257
_cell_angle_gamma 90.000000
_cell_volume 2647.843026
_symmetry_space_group_name_H-M "C 2/C"
_symmetry_group_IT_number 15
_symmetry_cell_setting 'monoclinic'
loop_
_space_group_symop_operation_xyz
x,y,z
-x,y,1/2-z
-x,-y,-z
x,-y,1/2+z
1/2+x,1/2+y,z
1/2-x,1/2+y,1/2-z
1/2-x,1/2-y,-z
1/2+x,1/2-y,1/2+z
loop_
_atom_site_type_symbol
_atom_site_label
_atom_site_fract_x
_atom_site_fract_y
_atom_site_fract_z
Si Si1 0.746900 0.384118 0.547201
Si Si2 0.019220 0.697654 0.508423
Si Si3 0.622954 0.155637 0.758453
Si Si4 0.917007 0.912396 0.995530
Si Si5 0.000000 0.196013 0.750000
Si Si6 0.173940 0.484136 0.205634
Si Si7 0.500000 0.934834 0.250000
Si Si8 0.482326 0.646325 0.074378
O O1 0.705019 0.401836 0.568203
O O2 0.860218 0.274710 0.645379
O O3 0.586629 0.371200 0.372641
O O4 0.849054 0.484405 0.614489
O O5 0.035727 0.784755 0.476602
O O6 0.167691 0.624535 0.661946
O O7 0.903817 0.594875 0.390000
O O8 0.974458 0.781591 0.514666
O O9 0.519594 0.132813 0.715001
O O10 0.590247 0.281291 0.707827
O O11 0.590416 0.067792 0.681834
O O12 0.804888 0.145887 0.934204
O O13 0.832898 0.969960 0.871341
O O14 0.033212 0.014089 0.115716
#
# Coordination Sequence:
#
# PCOD9283759 Si02
#       8
#     8   8   8   8   4   8   4   8
#     4  10  21  40  64  91 130 166 220 264 326 380
#     4  10  22  38  64  87 130 170 208 258 321 375
#     4  10  22  42  64  87 126 163 216 261 328 376
#     4  11  22  38  62  94 126 166 214 264 308 384
#     4   9  22  40  63  92 126 170 213 273 316 380
#     4   9  21  39  58  92 125 165 212 250 319 385
#     4  11  20  42  65  86 124 176 197 277 334 384
#     4  10  22  43  59  93 123 164 212 264 309 391
#
# _framework density 21.149290000000001
#
# number of rings (size 3 to 8) (size 9 to 14) (size 15 to 20)
#    0.000    2.000    2.857    0.429    8.000    1.714 
#    2.571    0.000    0.000    0.000    0.000    0.000 
#    0.000    0.000    0.000    0.000    0.000    0.000 
#
# Total GULP energy -156128.350985 kJ/mol
# GULP energy per Si atom -5576.012535 kJ/mol
# Density = 2.110115 g / cm^3
# Si number density = 21.149290 Si / 1000 Ang^3
#
#
#
# Elastic Constant Matrix: (Units=GPa)
#
#
# Indices 1 2 3 4 5 6 
#
# 1 95.2565 31.1543 4.4697 -0.0034 13.4740 -0.0007
# 2 31.1543 137.7604 21.3802 -0.0114 -0.7059 -0.0018
# 3 4.4697 21.3802 68.5788 -0.0087 -5.1727 -0.0019
# 4 -0.0034 -0.0114 -0.0087 18.6464 -0.0018 -7.4340
# 5 13.4740 -0.7059 -5.1727 -0.0018 19.1997 -0.0001
# 6 -0.0007 -0.0018 -0.0019 -7.4340 -0.0001 23.6107
#
#
#
# Elastic Compliance Matrix: (Units=1/GPa)
#
#
# Indices 1 2 3 4 5 6 
#
# 1 0.012761 -0.002833 -0.000645 -0.000001 -0.009233 0.000000
# 2 -0.002833 0.008260 -0.002263 0.000004 0.001682 0.000002
# 3 -0.000645 -0.002263 0.015676 0.000008 0.004593 0.000004
# 4 -0.000001 0.000004 0.000008 0.061328 0.000008 0.019310
# 5 -0.009233 0.001682 0.004593 0.000008 0.059863 0.000003
# 6 0.000000 0.000002 0.000004 0.019310 0.000003 0.048433
#
#
# Mechanical properties :
#
#
# Convention : Reuss Voigt Hill
#
# Bulk Modulus (GPa) = 39.66149 46.17824 42.91986
# Shear Modulus (GPa) = 22.10352 28.59746 25.35049
#
# Velocity S-wave (km/s) = 3.23634 3.68118 3.46590
# Velocity P-wave (km/s) = 5.72355 6.32059 6.02946
#
# Compressibility (1/GPa) = 0.02521338
#
# Stress axis : x y z
#
# Youngs Moduli (GPa) = 78.36470 121.07140 63.79232
#
# Poissons Ratio (x) = 0.34300 0.04114
# Poissons Ratio (y) = 0.22201 0.14439
# Poissons Ratio (z) = 0.05054 0.27404
#
# Static dielectric constant tensor:
#      x y z
#    x 1.796640 0.000000 -0.001520 
#    y 0.000000 1.802470 0.000000 
#    z -0.001520 0.000000 1.802150 
# 
# From -- ./inp_files/303312.got.cif
#   From: 2010.05.17/outbox.cif.g08.bks.cpg/sg15_152_cif.got.tgz:303312.got - 2010.06.03 18:47:42.
