data_PCOD9283499
_publ_section_title
;
Structure prediction by ZEFSAII (Michael W. Deem and Ramdas Pophale) SiO2 
 PCOD9283499
Probable space group: C 2/C
;
_chemical_formula_sum "Si O2"
_cell_formula_units_Z 44
_cell_length_a 22.933641
_cell_length_b 21.481710
_cell_length_c 9.566758
_cell_angle_alpha 90.000000
_cell_angle_beta 154.206175
_cell_angle_gamma 90.000000
_cell_volume 2050.830332
_symmetry_space_group_name_H-M "C 2/C"
_symmetry_group_IT_number 15
_symmetry_cell_setting 'monoclinic'
loop_
_space_group_symop_operation_xyz
x,y,z
-x,y,1/2-z
-x,-y,-z
x,-y,1/2+z
1/2+x,1/2+y,z
1/2-x,1/2+y,1/2-z
1/2-x,1/2-y,-z
1/2+x,1/2-y,1/2+z
loop_
_atom_site_type_symbol
_atom_site_label
_atom_site_fract_x
_atom_site_fract_y
_atom_site_fract_z
Si Si1 0.740041 0.707022 0.775893
Si Si2 0.000000 0.384538 0.250000
Si Si3 0.119191 0.451889 0.253229
Si Si4 0.241998 0.835655 0.590348
Si Si5 0.371450 0.458391 0.251863
Si Si6 0.000000 0.868969 0.750000
Si Si7 0.500000 0.132248 0.250000
O O1 0.768330 0.780445 0.818917
O O2 0.611981 0.676442 0.420210
O O3 0.699000 0.693935 0.849229
O O4 0.879156 0.672411 0.051770
O O5 0.896754 0.419537 0.130226
O O6 0.098833 0.348474 0.566422
O O7 0.251299 0.492851 0.514144
O O8 0.000000 0.500000 0.000000
O O9 0.078052 0.407648 0.036234
O O10 0.167489 0.902388 0.439786
O O11 0.500000 0.500000 0.500000
O O12 0.408087 0.417319 0.465766
#
# Coordination Sequence:
#
# PCOD9283499 Si02
#       7
#     8   4   8   8   8   4   4
#     4  10  21  43  68  90 129 175 230 267 328 400
#     4  12  22  42  66 104 128 176 224 274 328 406
#     4  12  24  40  70 100 137 172 227 275 339 402
#     4  10  22  41  67  92 128 181 219 268 333 401
#     4  11  24  40  62  96 136 174 212 278 342 402
#     4  10  21  40  62  88 124 179 210 258 338 390
#     4  12  23  44  66 104 130 175 226 290 330 392
#
# _framework density 21.454725
#
# number of rings (size 3 to 8) (size 9 to 14) (size 15 to 20)
#    0.000    1.091    3.636    3.273    2.545    0.000 
#    3.273    0.909    0.000    0.000    0.000    0.000 
#    0.000    0.000    0.000    0.000    0.000    0.000 
#
# Total GULP energy -122469.269886 kJ/mol
# GULP energy per Si atom -5566.784995 kJ/mol
# Density = 2.140589 g / cm^3
# Si number density = 21.454725 Si / 1000 Ang^3
#
#
#
# Elastic Constant Matrix: (Units=GPa)
#
#
# Indices 1 2 3 4 5 6 
#
# 1 47.8122 43.3791 24.8138 0.0000 7.7243 0.0000
# 2 43.3791 159.0940 72.8341 0.0000 21.5163 0.0000
# 3 24.8138 72.8341 152.9266 0.0000 26.4872 0.0000
# 4 0.0000 0.0000 0.0000 23.3292 0.0000 11.0505
# 5 7.7243 21.5163 26.4872 0.0000 35.8812 0.0000
# 6 0.0000 0.0000 0.0000 11.0505 0.0000 21.6931
#
#
#
# Elastic Compliance Matrix: (Units=1/GPa)
#
#
# Indices 1 2 3 4 5 6 
#
# 1 0.027984 -0.007023 -0.001011 0.000000 -0.001066 0.000000
# 2 -0.007023 0.009968 -0.003250 0.000000 -0.002066 0.000000
# 3 -0.001011 -0.003250 0.009030 0.000000 -0.004500 0.000000
# 4 0.000000 0.000000 0.000000 0.056497 0.000000 -0.028780
# 5 -0.001066 -0.002066 -0.004500 0.000000 0.032660 0.000000
# 6 0.000000 0.000000 0.000000 -0.028780 0.000000 0.060758
#
#
# Mechanical properties :
#
#
# Convention : Reuss Voigt Hill
#
# Bulk Modulus (GPa) = 40.96008 71.32076 56.14042
# Shear Modulus (GPa) = 21.96801 30.76776 26.36788
#
# Velocity S-wave (km/s) = 3.20335 3.79103 3.50951
# Velocity P-wave (km/s) = 5.72842 7.24411 6.53039
#
# Compressibility (1/GPa) = 0.02441402
#
# Stress axis : x y z
#
# Youngs Moduli (GPa) = 35.73454 100.32285 110.73815
#
# Poissons Ratio (x) = 0.70458 0.11197
# Poissons Ratio (y) = 0.25097 0.35989
# Poissons Ratio (z) = 0.03613 0.32604
#
# Static dielectric constant tensor:
#      x y z
#    x 1.766470 0.000000 -0.037500 
#    y 0.000000 1.824790 0.000000 
#    z -0.037500 0.000000 1.789850 
# 
# From -- ./inp_files/124321.got.cif
#   From: 2010.05.17/outbox.cif.g08.bks.cpg/sg15_63_cif.got.tgz:124321.got - 2010.06.03 18:47:42.
