data_PCOD9283637
_publ_section_title
;
Structure prediction by ZEFSAII (Michael W. Deem and Ramdas Pophale) SiO2 
 PCOD9283637
Probable space group: C 2/C
;
_chemical_formula_sum "Si O2"
_cell_formula_units_Z 32
_cell_length_a 5.289224
_cell_length_b 13.386951
_cell_length_c 22.652766
_cell_angle_alpha 90.000000
_cell_angle_beta 104.403797
_cell_angle_gamma 90.000000
_cell_volume 1553.546999
_symmetry_space_group_name_H-M "C 2/C"
_symmetry_group_IT_number 15
_symmetry_cell_setting 'monoclinic'
loop_
_space_group_symop_operation_xyz
x,y,z
-x,y,1/2-z
-x,-y,-z
x,-y,1/2+z
1/2+x,1/2+y,z
1/2-x,1/2+y,1/2-z
1/2-x,1/2-y,-z
1/2+x,1/2-y,1/2+z
loop_
_atom_site_type_symbol
_atom_site_label
_atom_site_fract_x
_atom_site_fract_y
_atom_site_fract_z
Si Si1 0.072676 0.041922 0.365286
Si Si2 0.113933 0.905602 0.471798
Si Si3 0.079353 0.700074 0.067344
Si Si4 0.513501 0.881199 0.816634
O O1 0.153321 0.139373 0.409639
O O2 0.154940 0.946993 0.408226
O O3 0.254313 0.056602 0.318785
O O4 0.767856 0.049270 0.335912
O O5 0.377470 0.865591 0.517287
O O6 0.919569 0.811226 0.457068
O O7 0.000000 0.000000 0.500000
O O8 0.973509 0.698049 0.129026
O O9 0.500000 0.839438 0.750000
#
# Coordination Sequence:
#
# PCOD9283637 Si02
#       4
#     8   8   8   8
#     4  10  21  40  63  91 124 163 202 260 308 366
#     4  11  19  41  62  98 126 158 204 258 314 375
#     4   9  23  36  64  92 124 163 197 258 310 366
#     4  10  21  42  62  87 124 166 211 256 303 365
#
# _framework density 20.598025
#
# number of rings (size 3 to 8) (size 9 to 14) (size 15 to 20)
#    1.500    0.500    2.500    1.500    0.000    1.000 
#    9.000    2.500    0.000    0.000    0.000    0.000 
#    0.000    0.000    0.000    0.000    0.000    0.000 
#
# Total GULP energy -89164.208684 kJ/mol
# GULP energy per Si atom -5572.763043 kJ/mol
# Density = 2.055114 g / cm^3
# Si number density = 20.598025 Si / 1000 Ang^3
#
#
#
# Elastic Constant Matrix: (Units=GPa)
#
#
# Indices 1 2 3 4 5 6 
#
# 1 78.6077 14.9125 10.7094 0.0000 -7.1296 0.0000
# 2 14.9125 95.1804 20.3695 0.0000 -4.6677 0.0000
# 3 10.7094 20.3695 87.8350 0.0000 -9.2834 0.0000
# 4 0.0000 0.0000 0.0000 8.0343 0.0000 -5.7527
# 5 -7.1296 -4.6677 -9.2834 0.0000 25.7453 0.0000
# 6 0.0000 0.0000 0.0000 -5.7527 0.0000 16.6135
#
#
#
# Elastic Compliance Matrix: (Units=1/GPa)
#
#
# Indices 1 2 3 4 5 6 
#
# 1 0.013459 -0.001764 -0.000906 0.000000 0.003081 0.000000
# 2 -0.001764 0.011317 -0.002333 0.000000 0.000722 0.000000
# 3 -0.000906 -0.002333 0.012439 0.000000 0.003811 0.000000
# 4 0.000000 0.000000 0.000000 0.165501 0.000000 0.057308
# 5 0.003081 0.000722 0.003811 0.000000 0.041200 0.000000
# 6 0.000000 0.000000 0.000000 0.057308 0.000000 0.080036
#
#
# Mechanical properties :
#
#
# Convention : Reuss Voigt Hill
#
# Bulk Modulus (GPa) = 36.75230 39.28955 38.02092
# Shear Modulus (GPa) = 14.57599 24.45405 19.51502
#
# Velocity S-wave (km/s) = 2.66304 3.44932 3.08136
# Velocity P-wave (km/s) = 5.22848 5.91435 5.58196
#
# Compressibility (1/GPa) = 0.02720918
#
# Stress axis : x y z
#
# Youngs Moduli (GPa) = 74.30043 88.35928 80.38960
#
# Poissons Ratio (x) = 0.15583 0.07287
# Poissons Ratio (y) = 0.13104 0.18757
# Poissons Ratio (z) = 0.06735 0.20616
#
# Static dielectric constant tensor:
#      x y z
#    x 1.766400 0.000000 -0.055140 
#    y 0.000000 1.704190 0.000000 
#    z -0.055140 0.000000 1.795580 
# 
# From -- ./inp_files/259811.got.cif
#   From: 2010.05.17/outbox.cif.g08.bks.cpg/sg15_130_cif.got.tgz:259811.got - 2010.06.03 18:47:42.
