data_PCOD9283547
_publ_section_title
;
Structure prediction by ZEFSAII (Michael W. Deem and Ramdas Pophale) SiO2 
 PCOD9283547
Probable space group: C 2/C
;
_chemical_formula_sum "Si O2"
_cell_formula_units_Z 56
_cell_length_a 11.884145
_cell_length_b 10.661115
_cell_length_c 22.546427
_cell_angle_alpha 90.000000
_cell_angle_beta 102.342052
_cell_angle_gamma 90.000000
_cell_volume 2790.573712
_symmetry_space_group_name_H-M "C 2/C"
_symmetry_group_IT_number 15
_symmetry_cell_setting 'monoclinic'
loop_
_space_group_symop_operation_xyz
x,y,z
-x,y,1/2-z
-x,-y,-z
x,-y,1/2+z
1/2+x,1/2+y,z
1/2-x,1/2+y,1/2-z
1/2-x,1/2-y,-z
1/2+x,1/2-y,1/2+z
loop_
_atom_site_type_symbol
_atom_site_label
_atom_site_fract_x
_atom_site_fract_y
_atom_site_fract_z
Si Si1 0.655423 0.974630 0.791997
Si Si2 0.191865 0.460808 0.162460
Si Si3 0.116584 0.088816 0.641254
Si Si4 0.225336 0.117567 0.528094
Si Si5 0.446683 0.136523 0.619423
Si Si6 0.380029 0.289146 0.239822
Si Si7 0.386310 0.568459 0.102295
O O1 0.601928 0.838260 0.794978
O O2 0.656204 0.980120 0.721181
O O3 0.787316 0.986068 0.828417
O O4 0.588656 0.083322 0.819516
O O5 0.273327 0.349667 0.194898
O O6 0.275424 0.544695 0.131544
O O7 0.075517 0.408395 0.120064
O O8 0.149312 0.130048 0.578681
O O9 0.139127 0.199953 0.691460
O O10 0.991390 0.025482 0.627853
O O11 0.250000 0.250000 0.500000
O O12 0.350886 0.074600 0.565275
O O13 0.157980 0.043335 0.469758
O O14 0.429710 0.287097 0.614265
O O15 0.500000 0.364286 0.250000
#
# Coordination Sequence:
#
# PCOD9283547 Si02
#       7
#     8   8   8   8   8   8   8
#     4  10  23  38  61  89 125 168 196 265 319 385
#     4  11  23  36  62  94 121 168 208 260 322 387
#     4  10  21  40  62  93 127 165 209 265 314 383
#     4   9  21  39  66  89 121 172 217 263 320 374
#     4  10  22  43  60  92 129 164 216 259 323 383
#     4  11  21  38  57  91 127 154 207 252 324 383
#     4  11  22  40  66  92 125 171 216 265 318 383
#
# _framework density 20.067557999999998
#
# number of rings (size 3 to 8) (size 9 to 14) (size 15 to 20)
#    0.000    1.714    1.429    2.571    8.000    0.571 
#    5.143    0.000    3.143    7.714    0.000    0.000 
#    0.000    0.000    0.000    0.000    0.000    0.000 
#
# Total GULP energy -155910.216462 kJ/mol
# GULP energy per Si atom -5568.222016 kJ/mol
# Density = 2.002188 g / cm^3
# Si number density = 20.067558 Si / 1000 Ang^3
#
#
#
# Elastic Constant Matrix: (Units=GPa)
#
#
# Indices 1 2 3 4 5 6 
#
# 1 123.0075 20.1372 27.0409 0.0000 31.1354 0.0000
# 2 20.1372 55.8461 20.8713 0.0000 10.3034 0.0000
# 3 27.0409 20.8713 103.6408 0.0000 10.0970 0.0000
# 4 0.0000 0.0000 0.0000 -13.2177 0.0000 -15.5168
# 5 31.1354 10.3034 10.0970 0.0000 29.6542 0.0000
# 6 0.0000 0.0000 0.0000 -15.5168 0.0000 20.0521
#
#
#
# Elastic Compliance Matrix: (Units=1/GPa)
#
#
# Indices 1 2 3 4 5 6 
#
# 1 0.011525 -0.001514 -0.001628 0.000000 -0.011020 0.000000
# 2 -0.001514 0.020500 -0.003304 0.000000 -0.004408 0.000000
# 3 -0.001628 -0.003304 0.010819 0.000000 -0.000826 0.000000
# 4 0.000000 0.000000 0.000000 -0.039643 0.000000 -0.030677
# 5 -0.011020 -0.004408 -0.000826 0.000000 0.047105 0.000000
# 6 0.000000 0.000000 0.000000 -0.030677 0.000000 0.026132
#
#
# Mechanical properties :
#
#
# Convention : Reuss Voigt Hill
#
# Bulk Modulus (GPa) = 33.38678 46.51036 39.94857
# Shear Modulus (GPa) = 50.34504 21.59406 35.96955
#
# Velocity S-wave (km/s) = 5.01420 3.28391 4.23829
# Velocity P-wave (km/s) = 7.08493 6.13237 6.62579
#
# Compressibility (1/GPa) = 0.02995198
#
# Stress axis : x y z
#
# Youngs Moduli (GPa) = 86.76992 48.77966 92.42635
#
# Poissons Ratio (x) = 0.07385 0.15051
# Poissons Ratio (y) = 0.13136 0.30537
# Poissons Ratio (z) = 0.14130 0.16116
#
# Static dielectric constant tensor:
#      x y z
#    x 1.726270 0.000000 -0.013370 
#    y 0.000000 1.739800 0.000000 
#    z -0.013370 0.000000 1.744340 
# 
# From -- ./inp_files/237654.got.cif
#   From: 2010.05.17/outbox.cif.g08.bks.cpg/sg15_119_cif.got.tgz:237654.got - 2010.06.03 18:47:42.
