data_PCOD9283518
_publ_section_title
;
Structure prediction by ZEFSAII (Michael W. Deem and Ramdas Pophale) SiO2 
 PCOD9283518
Probable space group: C 2/C
;
_chemical_formula_sum "Si O2"
_cell_formula_units_Z 48
_cell_length_a 10.174564
_cell_length_b 11.366271
_cell_length_c 22.615566
_cell_angle_alpha 90.000000
_cell_angle_beta 52.262796
_cell_angle_gamma 90.000000
_cell_volume 2068.342090
_symmetry_space_group_name_H-M "C 2/C"
_symmetry_group_IT_number 15
_symmetry_cell_setting 'monoclinic'
loop_
_space_group_symop_operation_xyz
x,y,z
-x,y,1/2-z
-x,-y,-z
x,-y,1/2+z
1/2+x,1/2+y,z
1/2-x,1/2+y,1/2-z
1/2-x,1/2-y,-z
1/2+x,1/2-y,1/2+z
loop_
_atom_site_type_symbol
_atom_site_label
_atom_site_fract_x
_atom_site_fract_y
_atom_site_fract_z
Si Si1 0.793253 0.878792 0.869484
Si Si2 0.411340 0.982011 0.165032
Si Si3 0.247887 0.635186 0.677407
Si Si4 0.575425 0.806799 0.028459
Si Si5 0.604490 0.396201 0.868904
Si Si6 0.917835 0.713058 0.215335
O O1 0.827484 0.744858 0.837605
O O2 0.943721 0.917190 0.870604
O O3 0.746722 0.965095 0.828168
O O4 0.622027 0.866453 0.953935
O O5 0.361173 0.909860 0.237234
O O6 0.513744 0.901606 0.092691
O O7 0.503057 0.096546 0.166003
O O8 0.318770 0.517744 0.628171
O O9 0.402172 0.696418 0.667587
O O10 0.447654 0.698273 0.067220
O O11 0.750000 0.750000 0.000000
O O12 0.741195 0.334604 0.788821
O O13 0.000000 0.766172 0.250000
#
# Coordination Sequence:
#
# PCOD9283518 Si02
#       6
#     8   8   8   8   8   8
#     4  10  23  41  67  91 130 172 212 267 328 387
#     4  10  21  40  62  90 125 166 218 263 320 382
#     4  10  22  38  62  96 121 165 223 261 321 383
#     4  10  21  40  63  93 129 168 215 257 326 397
#     4  10  22  40  63  95 127 172 211 267 329 385
#     4  10  22  38  59  93 128 161 214 275 322 372
#
# _framework density 23.206994000000002
#
# number of rings (size 3 to 8) (size 9 to 14) (size 15 to 20)
#    0.000    2.000    1.667    0.500    2.333   11.333 
#    0.000    1.667    0.000   11.000    0.000    0.000 
#    0.000    0.000    0.000    0.000    0.000    0.000 
#
# Total GULP energy -134013.856408 kJ/mol
# GULP energy per Si atom -5583.910684 kJ/mol
# Density = 2.315417 g / cm^3
# Si number density = 23.206994 Si / 1000 Ang^3
#
#
#
# Elastic Constant Matrix: (Units=GPa)
#
#
# Indices 1 2 3 4 5 6 
#
# 1 63.9754 1.5178 -14.2830 0.0000 0.7768 0.0000
# 2 1.5178 97.4149 27.8086 0.0000 -18.0737 0.0000
# 3 -14.2830 27.8086 98.1914 0.0000 -10.6138 0.0000
# 4 0.0000 0.0000 0.0000 41.6858 0.0000 6.6020
# 5 0.7768 -18.0737 -10.6138 0.0000 22.5364 0.0000
# 6 0.0000 0.0000 0.0000 6.6020 0.0000 5.1237
#
#
#
# Elastic Compliance Matrix: (Units=1/GPa)
#
#
# Indices 1 2 3 4 5 6 
#
# 1 0.016247 -0.001034 0.002640 0.000000 -0.000146 0.000000
# 2 -0.001034 0.012736 -0.002792 0.000000 0.008935 0.000000
# 3 0.002640 -0.002792 0.011703 0.000000 0.003182 0.000000
# 4 0.000000 0.000000 0.000000 0.030140 0.000000 -0.038836
# 5 -0.000146 0.008935 0.003182 0.000000 0.053042 0.000000
# 6 0.000000 0.000000 0.000000 -0.038836 0.000000 0.245213
#
#
# Mechanical properties :
#
#
# Convention : Reuss Voigt Hill
#
# Bulk Modulus (GPa) = 26.09914 32.18537 29.14226
# Shear Modulus (GPa) = 13.01330 30.17174 21.59252
#
# Velocity S-wave (km/s) = 2.37058 3.60962 3.05361
# Velocity P-wave (km/s) = 4.33169 5.59209 5.00175
#
# Compressibility (1/GPa) = 0.03831544
#
# Stress axis : x y z
#
# Youngs Moduli (GPa) = 61.55067 78.51688 85.44984
#
# Poissons Ratio (x) = 0.08118 -0.22562
# Poissons Ratio (y) = 0.06364 0.23854
# Poissons Ratio (z) = -0.16251 0.21918
#
# Static dielectric constant tensor:
#      x y z
#    x 1.933370 0.000000 -0.017240 
#    y 0.000000 1.949580 0.000000 
#    z -0.017240 0.000000 1.909820 
# 
# From -- ./inp_files/196027.got.cif
#   From: 2010.05.17/outbox.cif.g08.bks.cpg/sg15_99_cif.got.tgz:196027.got - 2010.06.03 18:47:42.
