data_PCOD9283899
_publ_section_title
;
Structure prediction by ZEFSAII (Michael W. Deem and Ramdas Pophale) SiO2 
 PCOD9283899
Probable space group: C 2/C
;
_chemical_formula_sum "Si O2"
_cell_formula_units_Z 48
_cell_length_a 11.823588
_cell_length_b 16.407344
_cell_length_c 11.853454
_cell_angle_alpha 90.000000
_cell_angle_beta 79.009584
_cell_angle_gamma 90.000000
_cell_volume 2257.320270
_symmetry_space_group_name_H-M "C 2/C"
_symmetry_group_IT_number 15
_symmetry_cell_setting 'monoclinic'
loop_
_space_group_symop_operation_xyz
x,y,z
-x,y,1/2-z
-x,-y,-z
x,-y,1/2+z
1/2+x,1/2+y,z
1/2-x,1/2+y,1/2-z
1/2-x,1/2-y,-z
1/2+x,1/2-y,1/2+z
loop_
_atom_site_type_symbol
_atom_site_label
_atom_site_fract_x
_atom_site_fract_y
_atom_site_fract_z
Si Si1 0.686095 0.819746 0.441038
Si Si2 0.605683 0.341540 0.464019
Si Si3 0.083603 0.180516 0.340594
Si Si4 0.739039 0.398752 0.654636
Si Si5 0.862799 0.073298 0.767875
Si Si6 0.473737 0.833388 0.623849
O O1 0.750000 0.750000 0.500000
O O2 0.605344 0.773842 0.365815
O O3 0.784331 0.869717 0.360543
O O4 0.592091 0.859191 0.540900
O O5 0.480159 0.362999 0.542779
O O6 0.690215 0.349702 0.555453
O O7 0.654840 0.401133 0.359219
O O8 0.580555 0.251677 0.416418
O O9 0.205158 0.147647 0.276291
O O10 0.000000 0.170935 0.250000
O O11 0.673799 0.483731 0.684892
O O12 0.875773 0.400857 0.623666
O O13 0.000000 0.084419 0.750000
O O14 0.500000 0.819110 0.750000
#
# Coordination Sequence:
#
# PCOD9283899 Si02
#       6
#     8   8   8   8   8   8
#     4  11  23  39  63  90 121 160 209 258 301 363
#     4  10  21  40  65  92 124 162 210 258 306 368
#     4   9  19  37  61  88 119 160 206 253 304 360
#     4  11  24  40  62  93 129 165 201 255 317 369
#     4  12  25  40  62  94 126 162 207 258 315 371
#     4  11  23  42  67  92 123 165 211 256 307 370
#
# _framework density 21.264151999999999
#
# number of rings (size 3 to 8) (size 9 to 14) (size 15 to 20)
#    0.000    1.333    0.000    7.500    0.000    8.667 
#    0.000    0.833    0.000    0.000    0.000    0.000 
#    0.000    0.000    0.000    0.000    0.000    0.000 
#
# Total GULP energy -133882.226993 kJ/mol
# GULP energy per Si atom -5578.426125 kJ/mol
# Density = 2.121575 g / cm^3
# Si number density = 21.264152 Si / 1000 Ang^3
#
#
#
# Elastic Constant Matrix: (Units=GPa)
#
#
# Indices 1 2 3 4 5 6 
#
# 1 116.9761 16.2781 68.2006 0.0000 -36.2548 0.0000
# 2 16.2781 41.0324 47.1367 0.0000 -3.1765 0.0000
# 3 68.2006 47.1367 154.1223 0.0000 -28.8084 0.0000
# 4 0.0000 0.0000 0.0000 17.3107 0.0000 -13.8468
# 5 -36.2548 -3.1765 -28.8084 0.0000 38.8230 0.0000
# 6 0.0000 0.0000 0.0000 -13.8468 0.0000 25.3122
#
#
#
# Elastic Compliance Matrix: (Units=1/GPa)
#
#
# Indices 1 2 3 4 5 6 
#
# 1 0.014234 0.000344 -0.004544 0.000000 0.009948 0.000000
# 2 0.000344 0.038969 -0.013253 0.000000 -0.006325 0.000000
# 3 -0.004544 -0.013253 0.013417 0.000000 0.004629 0.000000
# 4 0.000000 0.000000 0.000000 0.102712 0.000000 0.056188
# 5 0.009948 -0.006325 0.004629 0.000000 0.037965 0.000000
# 6 0.000000 0.000000 0.000000 0.056188 0.000000 0.070243
#
#
# Mechanical properties :
#
#
# Convention : Reuss Voigt Hill
#
# Bulk Modulus (GPa) = 31.53170 63.92906 47.73038
# Shear Modulus (GPa) = 15.47898 28.32354 21.90126
#
# Velocity S-wave (km/s) = 2.70096 3.65360 3.21278
# Velocity P-wave (km/s) = 4.95860 6.92300 6.02144
#
# Compressibility (1/GPa) = 0.03171411
#
# Stress axis : x y z
#
# Youngs Moduli (GPa) = 70.25657 25.66126 74.52969
#
# Poissons Ratio (x) = -0.00882 0.33867
# Poissons Ratio (y) = -0.02414 0.98771
# Poissons Ratio (z) = 0.31925 0.34008
#
# Static dielectric constant tensor:
#      x y z
#    x 1.797300 0.000000 0.003310 
#    y 0.000000 1.808580 0.000000 
#    z 0.003310 0.000000 1.812340 
# 
# From -- ./inp_files/87773.got.cif
#   From: 2010.05.17/outbox.cif.g08.bks.cpg/sg15_44_cif.got.tgz:87773.got - 2010.06.03 18:47:42.
