data_PCOD9283909
_publ_section_title
;
Structure prediction by ZEFSAII (Michael W. Deem and Ramdas Pophale) SiO2 
 PCOD9283909
Probable space group: C 2/C
;
_chemical_formula_sum "Si O2"
_cell_formula_units_Z 40
_cell_length_a 29.262061
_cell_length_b 10.261139
_cell_length_c 9.742770
_cell_angle_alpha 90.000000
_cell_angle_beta 29.747769
_cell_angle_gamma 90.000000
_cell_volume 1451.525092
_symmetry_space_group_name_H-M "C 2/C"
_symmetry_group_IT_number 15
_symmetry_cell_setting 'monoclinic'
loop_
_space_group_symop_operation_xyz
x,y,z
-x,y,1/2-z
-x,-y,-z
x,-y,1/2+z
1/2+x,1/2+y,z
1/2-x,1/2+y,1/2-z
1/2-x,1/2-y,-z
1/2+x,1/2-y,1/2+z
loop_
_atom_site_type_symbol
_atom_site_label
_atom_site_fract_x
_atom_site_fract_y
_atom_site_fract_z
Si Si1 0.433970 0.031919 0.050565
Si Si2 0.413759 0.255055 0.582514
Si Si3 0.300696 0.316155 0.237656
Si Si4 0.287736 0.397901 0.707288
Si Si5 0.935449 0.178767 0.602727
O O1 0.500000 0.058288 0.750000
O O2 0.380110 0.896822 0.169127
O O3 0.402501 0.171208 0.183670
O O4 0.500000 0.000000 0.000000
O O5 0.500000 0.252473 0.250000
O O6 0.334587 0.342849 0.723232
O O7 0.463343 0.311505 0.590796
O O8 0.250000 0.250000 0.500000
O O9 0.258107 0.452958 0.299503
O O10 0.288003 0.203704 0.155708
O O11 0.401183 0.358456 0.038470
O O12 0.370152 0.396543 0.379370
#
# Coordination Sequence:
#
# PCOD9283909 Si02
#       5
#     8   8   8   8   8
#     4   9  17  33  60  99 136 170 214 267 337 399
#     4   8  16  33  62  95 125 165 213 269 329 390
#     4  10  23  42  63  91 129 172 221 270 335 407
#     4  10  21  40  65  92 131 176 217 276 337 397
#     4   9  19  38  63  94 131 165 218 272 328 397
#
# _framework density 27.557223
#
# number of rings (size 3 to 8) (size 9 to 14) (size 15 to 20)
#    0.000    2.800    0.000    1.200    2.800    0.800 
#    0.000   15.000    0.000    0.000    0.000    0.000 
#    0.000    0.000    0.000    0.000    0.000    0.000 
#
# Total GULP energy -111662.564667 kJ/mol
# GULP energy per Si atom -5583.128233 kJ/mol
# Density = 2.749450 g / cm^3
# Si number density = 27.557223 Si / 1000 Ang^3
#
#
#
# Elastic Constant Matrix: (Units=GPa)
#
#
# Indices 1 2 3 4 5 6 
#
# 1 207.6167 46.8932 40.5387 0.0000 -9.3730 0.0000
# 2 46.8932 198.9018 43.0390 0.0000 16.9463 0.0000
# 3 40.5387 43.0390 77.6166 0.0000 -5.3648 0.0000
# 4 0.0000 0.0000 0.0000 892.6756 0.0000 -193.3003
# 5 -9.3730 16.9463 -5.3648 0.0000 39.8625 0.0000
# 6 0.0000 0.0000 0.0000 -193.3003 0.0000 94.3683
#
#
#
# Elastic Compliance Matrix: (Units=1/GPa)
#
#
# Indices 1 2 3 4 5 6 
#
# 1 0.005534 -0.000930 -0.002279 0.000000 0.001390 0.000000
# 2 -0.000930 0.006217 -0.003189 0.000000 -0.003291 0.000000
# 3 -0.002279 -0.003189 0.016048 0.000000 0.002980 0.000000
# 4 0.000000 0.000000 0.000000 0.002013 0.000000 0.004124
# 5 0.001390 -0.003291 0.002980 0.000000 0.027213 0.000000
# 6 0.000000 0.000000 0.000000 0.004124 0.000000 0.019044
#
#
# Mechanical properties :
#
#
# Convention : Reuss Voigt Hill
#
# Bulk Modulus (GPa) = 66.64909 82.78631 74.71770
# Shear Modulus (GPa) = 53.26644 228.95890 141.11267
#
# Velocity S-wave (km/s) = 4.40129 9.12498 7.16368
# Velocity P-wave (km/s) = 7.07578 11.87970 9.77737
#
# Compressibility (1/GPa) = 0.01500395
#
# Stress axis : x y z
#
# Youngs Moduli (GPa) = 180.68997 160.83910 62.31139
#
# Poissons Ratio (x) = 0.14960 0.14199
# Poissons Ratio (y) = 0.16807 0.19873
# Poissons Ratio (z) = 0.41174 0.51296
#
# Static dielectric constant tensor:
#      x y z
#    x 2.055420 0.000000 0.303490 
#    y 0.000000 2.530030 0.000000 
#    z 0.303490 0.000000 1.365980 
# 
# From -- ./inp_files/125439.got.cif
#   From: 2010.05.17/outbox.cif.g08.bks.cpg/sg15_63_cif.got.tgz:125439.got - 2010.06.03 18:47:42.
