data_PCOD9283273
_publ_section_title
;
Structure prediction by ZEFSAII (Michael W. Deem and Ramdas Pophale) SiO2 
 PCOD9283273
Probable space group: C 2/C
;
_chemical_formula_sum "Si O2"
_cell_formula_units_Z 44
_cell_length_a 26.872005
_cell_length_b 14.076393
_cell_length_c 14.453110
_cell_angle_alpha 90.000000
_cell_angle_beta 18.988746
_cell_angle_gamma 90.000000
_cell_volume 1778.880856
_symmetry_space_group_name_H-M "C 2/C"
_symmetry_group_IT_number 15
_symmetry_cell_setting 'monoclinic'
loop_
_space_group_symop_operation_xyz
x,y,z
-x,y,1/2-z
-x,-y,-z
x,-y,1/2+z
1/2+x,1/2+y,z
1/2-x,1/2+y,1/2-z
1/2-x,1/2-y,-z
1/2+x,1/2-y,1/2+z
loop_
_atom_site_type_symbol
_atom_site_label
_atom_site_fract_x
_atom_site_fract_y
_atom_site_fract_z
Si Si1 0.528213 0.390267 0.926320
Si Si2 0.513585 0.035546 0.079848
Si Si3 0.500000 0.904398 0.250000
Si Si4 0.685313 0.254632 0.326064
Si Si5 0.835383 0.087304 0.499001
Si Si6 0.908475 0.247934 0.780198
O O1 0.664392 0.399013 0.611965
O O2 0.500000 0.500000 0.000000
O O3 0.405519 0.331409 0.078348
O O4 0.519531 0.328735 0.035899
O O5 0.694855 0.025256 0.781140
O O6 0.471667 0.145649 0.162181
O O7 0.500000 0.000000 0.000000
O O8 0.417743 0.976388 0.323305
O O9 0.411524 0.836814 0.476845
O O10 0.696969 0.309811 0.401446
O O11 0.841796 0.229563 0.999742
O O12 0.000000 0.054629 0.250000
O O13 0.750000 0.250000 0.000000
#
# Coordination Sequence:
#
# PCOD9283273 Si02
#       6
#     8   8   4   8   8   8
#     4  10  21  39  73 106 141 194 252 311 373 459
#     4  12  27  44  79 115 151 203 260 318 394 466
#     4  12  24  48  78 108 156 202 262 328 388 466
#     4  10  21  45  73  98 149 205 246 321 382 454
#     4  10  23  47  73 102 155 196 257 309 384 460
#     4  10  23  44  68 102 152 188 246 312 376 456
#
# _framework density 24.734652000000001
#
# number of rings (size 3 to 8) (size 9 to 14) (size 15 to 20)
#    0.000    1.455    2.727    3.273    7.636    0.727 
#    0.000    0.000    6.000    0.000    0.000    0.000 
#    0.000    0.000    0.000    0.000    0.000    0.000 
#
# Total GULP energy -122804.378659 kJ/mol
# GULP energy per Si atom -5582.017212 kJ/mol
# Density = 2.467835 g / cm^3
# Si number density = 24.734652 Si / 1000 Ang^3
#
#
#
# Elastic Constant Matrix: (Units=GPa)
#
#
# Indices 1 2 3 4 5 6 
#
# 1 72.1848 56.5379 54.6110 0.0001 29.2921 -0.0001
# 2 56.5379 199.5025 57.3112 0.0000 37.3724 0.0000
# 3 54.6110 57.3112 126.8256 0.0000 31.1762 0.0000
# 4 0.0001 0.0000 0.0000 26.5895 0.0000 19.3126
# 5 29.2921 37.3724 31.1762 0.0000 76.9620 0.0000
# 6 -0.0001 0.0000 0.0000 19.3126 0.0000 44.5241
#
#
#
# Elastic Compliance Matrix: (Units=1/GPa)
#
#
# Indices 1 2 3 4 5 6 
#
# 1 0.024515 -0.003923 -0.007728 0.000000 -0.004295 0.000000
# 2 -0.003923 0.006660 -0.000991 0.000000 -0.001339 0.000000
# 3 -0.007728 -0.000991 0.012015 0.000000 -0.001445 0.000000
# 4 0.000000 0.000000 0.000000 0.054907 0.000000 -0.023816
# 5 -0.004295 -0.001339 -0.001445 0.000000 0.015864 0.000000
# 6 0.000000 0.000000 0.000000 -0.023816 0.000000 0.032790
#
#
# Mechanical properties :
#
#
# Convention : Reuss Voigt Hill
#
# Bulk Modulus (GPa) = 55.84344 81.71477 68.77911
# Shear Modulus (GPa) = 28.08922 44.95197 36.52059
#
# Velocity S-wave (km/s) = 3.37356 4.26768 3.84669
# Velocity P-wave (km/s) = 6.14821 7.57578 6.89902
#
# Compressibility (1/GPa) = 0.01790721
#
# Stress axis : x y z
#
# Youngs Moduli (GPa) = 40.79096 150.15434 83.22670
#
# Poissons Ratio (x) = 0.58904 0.64315
# Poissons Ratio (y) = 0.16002 0.08248
# Poissons Ratio (z) = 0.31522 0.14881
#
# Static dielectric constant tensor:
#      x y z
#    x 2.087340 0.000000 -0.063790 
#    y 0.000000 1.954380 0.000000 
#    z -0.063790 0.000000 1.899720 
# 
# From -- ./inp_files/182265.got.cif
#   From: 2010.05.17/outbox.cif.g08.bks.cpg/sg15_92_cif.got.tgz:182265.got - 2010.06.03 18:47:42.
