data_PCOD9283628
_publ_section_title
;
Structure prediction by ZEFSAII (Michael W. Deem and Ramdas Pophale) SiO2 
 PCOD9283628
Probable space group: C 2/C
;
_chemical_formula_sum "Si O2"
_cell_formula_units_Z 64
_cell_length_a 7.843982
_cell_length_b 13.235251
_cell_length_c 34.373304
_cell_angle_alpha 90.000000
_cell_angle_beta 128.029871
_cell_angle_gamma 90.000000
_cell_volume 2810.898741
_symmetry_space_group_name_H-M "C 2/C"
_symmetry_group_IT_number 15
_symmetry_cell_setting 'monoclinic'
loop_
_space_group_symop_operation_xyz
x,y,z
-x,y,1/2-z
-x,-y,-z
x,-y,1/2+z
1/2+x,1/2+y,z
1/2-x,1/2+y,1/2-z
1/2-x,1/2-y,-z
1/2+x,1/2-y,1/2+z
loop_
_atom_site_type_symbol
_atom_site_label
_atom_site_fract_x
_atom_site_fract_y
_atom_site_fract_z
Si Si1 0.087345 0.629951 0.402570
Si Si2 0.865230 0.297523 0.478462
Si Si3 0.588096 0.325696 0.832627
Si Si4 0.709920 0.780705 0.425473
Si Si5 0.218598 0.546518 0.867610
Si Si6 0.483553 0.453563 0.325036
Si Si7 0.068331 0.445443 0.071600
Si Si8 0.871643 0.369470 0.269999
O O1 0.844308 0.667516 0.358052
O O2 0.042807 0.553321 0.433556
O O3 0.246269 0.723962 0.430862
O O4 0.203050 0.557898 0.387787
O O5 0.750000 0.250000 0.500000
O O6 0.850708 0.411742 0.459789
O O7 0.112954 0.277184 0.524781
O O8 0.587998 0.295330 0.878714
O O9 0.474878 0.431625 0.809495
O O10 0.459128 0.241547 0.791054
O O11 0.800949 0.864144 0.407418
O O12 0.582073 0.852909 0.436589
O O13 0.359082 0.551147 0.848681
O O14 0.969313 0.569628 0.819983
O O15 0.730636 0.437381 0.370819
O O16 0.374453 0.382312 0.277591
O O17 0.000000 0.408403 0.250000
#
# Coordination Sequence:
#
# PCOD9283628 Si02
#       8
#     8   8   8   8   8   8   8   8
#     4  10  23  41  63  94 124 170 212 261 330 380
#     4  12  23  39  66  94 124 170 220 259 330 389
#     4  10  21  40  63  90 127 163 204 266 317 373
#     4  10  21  42  59  91 130 164 210 263 316 375
#     4   9  20  40  62  87 128 160 210 267 312 378
#     4  10  21  41  62  95 123 167 212 258 321 380
#     4  10  24  41  60  92 133 163 213 269 313 382
#     4   9  20  38  63  89 122 163 205 261 314 379
#
# _framework density 22.768516999999999
#
# number of rings (size 3 to 8) (size 9 to 14) (size 15 to 20)
#    0.000    2.000    1.250    1.125    5.250    3.500 
#    2.250   10.625    0.000    3.000    0.000    0.000 
#    0.000    0.000    0.000    0.000    0.000    0.000 
#
# Total GULP energy -178480.412960 kJ/mol
# GULP energy per Si atom -5577.512905 kJ/mol
# Density = 2.271669 g / cm^3
# Si number density = 22.768517 Si / 1000 Ang^3
#
#
#
# Elastic Constant Matrix: (Units=GPa)
#
#
# Indices 1 2 3 4 5 6 
#
# 1 32.8592 3.7245 8.4583 0.0000 -13.5194 0.0000
# 2 3.7245 85.2939 29.8319 0.0000 5.9819 0.0000
# 3 8.4583 29.8319 72.8546 0.0000 6.4598 0.0000
# 4 0.0000 0.0000 0.0000 27.3381 0.0000 7.1671
# 5 -13.5194 5.9819 6.4598 0.0000 20.6151 0.0000
# 6 0.0000 0.0000 0.0000 7.1671 0.0000 28.1428
#
#
#
# Elastic Compliance Matrix: (Units=1/GPa)
#
#
# Indices 1 2 3 4 5 6 
#
# 1 0.046249 -0.001682 -0.007625 0.000000 0.033208 0.000000
# 2 -0.001682 0.013850 -0.005165 0.000000 -0.003503 0.000000
# 3 -0.007625 -0.005165 0.017524 0.000000 -0.008993 0.000000
# 4 0.000000 0.000000 0.000000 0.039196 0.000000 -0.009982
# 5 0.033208 -0.003503 -0.008993 0.000000 0.074120 0.000000
# 6 0.000000 0.000000 0.000000 -0.009982 0.000000 0.038075
#
#
# Mechanical properties :
#
#
# Convention : Reuss Voigt Hill
#
# Bulk Modulus (GPa) = 20.54303 30.55968 25.55136
# Shear Modulus (GPa) = 18.23592 25.15206 21.69399
#
# Velocity S-wave (km/s) = 2.83314 3.32729 3.09011
# Velocity P-wave (km/s) = 4.44346 5.31151 4.89676
#
# Compressibility (1/GPa) = 0.04867832
#
# Stress axis : x y z
#
# Youngs Moduli (GPa) = 21.62207 72.20290 57.06560
#
# Poissons Ratio (x) = 0.12141 0.43514
# Poissons Ratio (y) = 0.03636 0.29476
# Poissons Ratio (z) = 0.16488 0.37295
#
# Static dielectric constant tensor:
#      x y z
#    x 1.969890 0.000000 -0.039570 
#    y 0.000000 1.842750 0.000000 
#    z -0.039570 0.000000 1.898530 
# 
# From -- ./inp_files/308287.got.cif
#   From: 2010.05.17/outbox.cif.g08.bks.cpg/sg15_155_cif.got.tgz:308287.got - 2010.06.03 18:47:42.
