data_PCOD9283263
_publ_section_title
;
Structure prediction by ZEFSAII (Michael W. Deem and Ramdas Pophale) SiO2 
 PCOD9283263
Probable space group: C 2/C
;
_chemical_formula_sum "Si O2"
_cell_formula_units_Z 52
_cell_length_a 8.682590
_cell_length_b 25.238698
_cell_length_c 13.063475
_cell_angle_alpha 90.000000
_cell_angle_beta 119.465901
_cell_angle_gamma 90.000000
_cell_volume 2492.400711
_symmetry_space_group_name_H-M "C 2/C"
_symmetry_group_IT_number 15
_symmetry_cell_setting 'monoclinic'
loop_
_space_group_symop_operation_xyz
x,y,z
-x,y,1/2-z
-x,-y,-z
x,-y,1/2+z
1/2+x,1/2+y,z
1/2-x,1/2+y,1/2-z
1/2-x,1/2-y,-z
1/2+x,1/2-y,1/2+z
loop_
_atom_site_type_symbol
_atom_site_label
_atom_site_fract_x
_atom_site_fract_y
_atom_site_fract_z
Si Si1 0.885887 0.550984 0.997902
Si Si2 0.983930 0.054476 0.933342
Si Si3 0.289422 0.787307 0.183612
Si Si4 0.658989 0.896296 0.218922
Si Si5 0.112541 0.848912 0.946191
Si Si6 0.500000 0.904302 0.750000
Si Si7 0.239901 0.827223 0.774209
O O1 0.944273 0.562703 0.132800
O O2 0.670792 0.554315 0.934732
O O3 0.920920 0.592286 0.917910
O O4 0.000000 0.500000 0.000000
O O5 0.813354 0.062663 0.803749
O O6 0.949679 0.100952 0.006657
O O7 0.000000 0.000000 0.000000
O O8 0.500000 0.778621 0.250000
O O9 0.260454 0.837110 0.249761
O O10 0.196089 0.732026 0.179497
O O11 0.224801 0.810510 0.054604
O O12 0.500000 0.899147 0.250000
O O13 0.212370 0.858924 0.871873
O O14 0.940640 0.819653 0.847236
O O15 0.350191 0.864739 0.738413
#
# Coordination Sequence:
#
# PCOD9283263 Si02
#       7
#     8   8   8   8   8   4   8
#     4  12  28  47  70  95 145 182 231 297 348 425
#     4  11  24  45  70 103 131 180 236 286 359 413
#     4  10  21  39  72 102 132 182 233 273 345 418
#     4  10  24  45  72 105 137 183 233 284 348 423
#     4  10  22  42  69  99 140 176 238 282 338 425
#     4  12  30  46  66 106 140 182 234 286 366 404
#     4  11  23  43  67  99 141 186 225 291 342 411
#
# _framework density 20.863420000000001
#
# number of rings (size 3 to 8) (size 9 to 14) (size 15 to 20)
#    0.000    1.231    3.077    1.846   11.846    0.000 
#    8.308    1.538    0.000    0.000    0.000    0.000 
#    0.000    0.000    0.000    0.000    0.000    0.000 
#
# Total GULP energy -144982.331913 kJ/mol
# GULP energy per Si atom -5576.243535 kJ/mol
# Density = 2.081593 g / cm^3
# Si number density = 20.863420 Si / 1000 Ang^3
#
#
#
# Elastic Constant Matrix: (Units=GPa)
#
#
# Indices 1 2 3 4 5 6 
#
# 1 100.5944 47.9471 55.8955 0.0000 -7.8660 0.0000
# 2 47.9471 101.4339 41.2187 0.0000 -13.2859 0.0000
# 3 55.8955 41.2187 133.1260 0.0000 -11.1515 0.0000
# 4 0.0000 0.0000 0.0000 30.9611 0.0000 1.7614
# 5 -7.8660 -13.2859 -11.1515 0.0000 41.8171 0.0000
# 6 0.0000 0.0000 0.0000 1.7614 0.0000 30.4816
#
#
#
# Elastic Compliance Matrix: (Units=1/GPa)
#
#
# Indices 1 2 3 4 5 6 
#
# 1 0.015029 -0.005202 -0.004706 0.000000 -0.000081 0.000000
# 2 -0.005202 0.013387 -0.001725 0.000000 0.002815 0.000000
# 3 -0.004706 -0.001725 0.010128 0.000000 0.001268 0.000000
# 4 0.000000 0.000000 0.000000 0.032405 0.000000 -0.001873
# 5 -0.000081 0.002815 0.001268 0.000000 0.025131 0.000000
# 6 0.000000 0.000000 0.000000 -0.001873 0.000000 0.032915
#
#
# Mechanical properties :
#
#
# Convention : Reuss Voigt Hill
#
# Bulk Modulus (GPa) = 65.45616 69.47520 67.46568
# Shear Modulus (GPa) = 31.77522 33.32482 32.55002
#
# Velocity S-wave (km/s) = 3.90681 4.00094 3.95416
# Velocity P-wave (km/s) = 7.19671 7.39700 7.29754
#
# Compressibility (1/GPa) = 0.01527740
#
# Stress axis : x y z
#
# Youngs Moduli (GPa) = 66.53649 74.69718 98.73628
#
# Poissons Ratio (x) = 0.38860 0.46469
# Poissons Ratio (y) = 0.34615 0.17031
# Poissons Ratio (z) = 0.31315 0.12885
#
# Static dielectric constant tensor:
#      x y z
#    x 1.871050 0.000000 0.014380 
#    y 0.000000 1.772880 0.000000 
#    z 0.014380 0.000000 1.759040 
# 
# From -- ./inp_files/81511.got.cif
#   From: 2010.05.17/outbox.cif.g08.bks.cpg/sg15_41_cif.got.tgz:81511.got - 2010.06.03 18:47:42.
