data_PCOD9283968
_publ_section_title
;
Structure prediction by ZEFSAII (Michael W. Deem and Ramdas Pophale) SiO2 
 PCOD9283968
Probable space group: C 2/C
;
_chemical_formula_sum "Si O2"
_cell_formula_units_Z 52
_cell_length_a 12.782402
_cell_length_b 12.485860
_cell_length_c 17.953997
_cell_angle_alpha 90.000000
_cell_angle_beta 120.353681
_cell_angle_gamma 90.000000
_cell_volume 2472.656914
_symmetry_space_group_name_H-M "C 2/C"
_symmetry_group_IT_number 15
_symmetry_cell_setting 'monoclinic'
loop_
_space_group_symop_operation_xyz
x,y,z
-x,y,1/2-z
-x,-y,-z
x,-y,1/2+z
1/2+x,1/2+y,z
1/2-x,1/2+y,1/2-z
1/2-x,1/2-y,-z
1/2+x,1/2-y,1/2+z
loop_
_atom_site_type_symbol
_atom_site_label
_atom_site_fract_x
_atom_site_fract_y
_atom_site_fract_z
Si Si1 0.177283 0.540636 0.425094
Si Si2 0.566390 0.790571 0.002490
Si Si3 0.879631 0.692364 0.557347
Si Si4 0.500000 0.680359 0.750000
Si Si5 0.438960 0.430281 0.081536
Si Si6 0.548697 0.626217 0.186336
Si Si7 0.268082 0.804472 0.686192
O O1 0.108696 0.626791 0.453837
O O2 0.124994 0.421879 0.403783
O O3 0.310355 0.527165 0.508533
O O4 0.193140 0.595528 0.350977
O O5 0.449558 0.830138 0.005043
O O6 0.678874 0.766386 0.100036
O O7 0.533660 0.673461 0.958076
O O8 0.750000 0.750000 0.500000
O O9 0.964411 0.776383 0.630386
O O10 0.567447 0.614216 0.837330
O O11 0.393019 0.746656 0.750418
O O12 0.531007 0.528730 0.121356
O O13 0.500000 0.596065 0.250000
O O14 0.687351 0.662230 0.227560
#
# Coordination Sequence:
#
# PCOD9283968 Si02
#       7
#     8   8   8   4   8   8   8
#     4  11  20  43  64  96 126 160 213 267 308 366
#     4  10  21  40  65  97 123 161 211 268 304 368
#     4  11  24  38  64  94 132 169 207 251 325 380
#     4  12  20  42  62 100 116 168 214 262 312 370
#     4  11  21  38  71  88 122 162 219 257 305 374
#     4  11  25  45  58  93 134 169 203 261 319 381
#     4  10  23  40  66  90 126 162 215 259 311 371
#
# _framework density 21.030010000000001
#
# number of rings (size 3 to 8) (size 9 to 14) (size 15 to 20)
#    0.000    1.231    5.385    1.385    2.154    3.077 
#    1.385    1.538    0.000    0.000    0.000    0.000 
#    0.000    0.000    0.000    0.000    0.000    0.000 
#
# Total GULP energy -145181.419589 kJ/mol
# GULP energy per Si atom -5583.900753 kJ/mol
# Density = 2.098214 g / cm^3
# Si number density = 21.030010 Si / 1000 Ang^3
#
#
#
# Elastic Constant Matrix: (Units=GPa)
#
#
# Indices 1 2 3 4 5 6 
#
# 1 106.6862 22.9670 -5.3946 0.0000 -0.0022 0.0000
# 2 22.9670 93.2483 -3.5203 0.0000 10.4867 0.0000
# 3 -5.3946 -3.5203 24.0857 0.0000 -2.1491 0.0000
# 4 0.0000 0.0000 0.0000 2.0531 0.0000 -1.4526
# 5 -0.0022 10.4867 -2.1491 0.0000 24.0462 0.0000
# 6 0.0000 0.0000 0.0000 -1.4526 0.0000 13.2659
#
#
#
# Elastic Compliance Matrix: (Units=1/GPa)
#
#
# Indices 1 2 3 4 5 6 
#
# 1 0.010020 -0.002537 0.001988 0.000000 0.001285 0.000000
# 2 -0.002537 0.011955 0.000720 0.000000 -0.005150 0.000000
# 3 0.001988 0.000720 0.042379 0.000000 0.003474 0.000000
# 4 0.000000 0.000000 0.000000 0.527967 0.000000 0.057812
# 5 0.001285 -0.005150 0.003474 0.000000 0.044143 0.000000
# 6 0.000000 0.000000 0.000000 0.057812 0.000000 0.081711
#
#
# Mechanical properties :
#
#
# Convention : Reuss Voigt Hill
#
# Bulk Modulus (GPa) = 15.45723 28.01382 21.73553
# Shear Modulus (GPa) = 6.76224 21.87091 14.31658
#
# Velocity S-wave (km/s) = 1.79513 3.22838 2.61199
# Velocity P-wave (km/s) = 3.41507 5.21981 4.41073
#
# Compressibility (1/GPa) = 0.06469465
#
# Stress axis : x y z
#
# Youngs Moduli (GPa) = 99.79952 83.64477 23.59666
#
# Poissons Ratio (x) = 0.21224 -0.04691
# Poissons Ratio (y) = 0.25323 -0.01698
# Poissons Ratio (z) = -0.19841 -0.06018
#
# Static dielectric constant tensor:
#      x y z
#    x 1.800140 0.000000 -0.032750 
#    y 0.000000 1.805780 0.000000 
#    z -0.032750 0.000000 1.753780 
# 
# From -- ./inp_files/237676.got.cif
#   From: 2010.05.17/outbox.cif.g08.bks.cpg/sg15_119_cif.got.tgz:237676.got - 2010.06.03 18:47:42.
