data_PCOD9283886
_publ_section_title
;
Structure prediction by ZEFSAII (Michael W. Deem and Ramdas Pophale) SiO2 
 PCOD9283886
Probable space group: C 2/C
;
_chemical_formula_sum "Si O2"
_cell_formula_units_Z 60
_cell_length_a 8.324157
_cell_length_b 13.516520
_cell_length_c 28.327836
_cell_angle_alpha 90.000000
_cell_angle_beta 71.241131
_cell_angle_gamma 90.000000
_cell_volume 3017.961275
_symmetry_space_group_name_H-M "C 2/C"
_symmetry_group_IT_number 15
_symmetry_cell_setting 'monoclinic'
loop_
_space_group_symop_operation_xyz
x,y,z
-x,y,1/2-z
-x,-y,-z
x,-y,1/2+z
1/2+x,1/2+y,z
1/2-x,1/2+y,1/2-z
1/2-x,1/2-y,-z
1/2+x,1/2-y,1/2+z
loop_
_atom_site_type_symbol
_atom_site_label
_atom_site_fract_x
_atom_site_fract_y
_atom_site_fract_z
Si Si1 0.782207 0.143639 0.219803
Si Si2 0.742528 0.152480 0.914473
Si Si3 0.682308 0.471842 0.003781
Si Si4 0.500000 0.501623 0.750000
Si Si5 0.678614 0.870943 0.310142
Si Si6 0.064579 0.656187 0.079203
Si Si7 0.887945 0.669050 0.999083
Si Si8 0.004065 0.435949 0.818216
O O1 0.828427 0.258439 0.207877
O O2 0.671446 0.103989 0.186503
O O3 0.654356 0.122202 0.276159
O O4 0.942912 0.073247 0.213871
O O5 0.818205 0.069397 0.942586
O O6 0.700053 0.128129 0.864687
O O7 0.875615 0.241725 0.903655
O O8 0.564815 0.183763 0.955382
O O9 0.809469 0.564211 0.992200
O O10 0.500000 0.500000 0.000000
O O11 0.771492 0.391036 0.961946
O O12 0.655488 0.573245 0.724623
O O13 0.529074 0.946360 0.309215
O O14 0.993121 0.587420 0.126951
O O15 0.930363 0.671205 0.050375
O O16 0.750000 0.750000 0.000000
#
# Coordination Sequence:
#
# PCOD9283886 Si02
#       8
#     8   8   8   4   8   8   8   8
#     4  10  22  42  63  91 126 164 211 266 323 375
#     4  11  22  39  62  93 123 169 208 264 323 380
#     4  11  22  38  61  90 130 168 210 262 319 380
#     4  10  24  40  66  94 122 164 216 262 322 390
#     4  11  22  42  66  91 131 164 213 264 326 379
#     4  11  21  39  64  90 125 168 210 262 316 384
#     4  11  22  40  60  90 129 167 212 261 314 378
#     4  10  21  40  65  91 123 167 210 261 325 383
#
# _framework density 19.880970999999999
#
# number of rings (size 3 to 8) (size 9 to 14) (size 15 to 20)
#    0.000    1.333    1.333    7.200    0.000    3.200 
#    7.200    1.333    2.933    0.000    0.000    0.000 
#    0.000    0.000    0.000    0.000    0.000    0.000 
#
# Total GULP energy -167551.684282 kJ/mol
# GULP energy per Si atom -5585.056143 kJ/mol
# Density = 1.983572 g / cm^3
# Si number density = 19.880971 Si / 1000 Ang^3
#
#
#
# Elastic Constant Matrix: (Units=GPa)
#
#
# Indices 1 2 3 4 5 6 
#
# 1 74.5006 18.3308 -3.4029 0.0000 11.0624 0.0000
# 2 18.3308 118.4664 11.8739 0.0000 7.1819 0.0000
# 3 -3.4029 11.8739 66.8515 0.0000 21.8146 0.0000
# 4 0.0000 0.0000 0.0000 19.8411 0.0000 12.1673
# 5 11.0624 7.1819 21.8146 0.0000 13.2050 0.0000
# 6 0.0000 0.0000 0.0000 12.1673 0.0000 36.3171
#
#
#
# Elastic Compliance Matrix: (Units=1/GPa)
#
#
# Indices 1 2 3 4 5 6 
#
# 1 0.020552 -0.002210 0.014459 0.000000 -0.039901 0.000000
# 2 -0.002210 0.008967 -0.001558 0.000000 -0.000452 0.000000
# 3 0.014459 -0.001558 0.042626 0.000000 -0.081683 0.000000
# 4 0.000000 0.000000 0.000000 0.063433 0.000000 -0.021252
# 5 -0.039901 -0.000452 -0.081683 0.000000 0.244342 0.000000
# 6 0.000000 0.000000 0.000000 -0.021252 0.000000 0.034655
#
#
# Mechanical properties :
#
#
# Convention : Reuss Voigt Hill
#
# Bulk Modulus (GPa) = 10.69217 34.82468 22.75842
# Shear Modulus (GPa) = 11.78223 29.40709 20.59466
#
# Velocity S-wave (km/s) = 2.43706 3.85015 3.22203
# Velocity P-wave (km/s) = 3.64812 6.10897 5.03132
#
# Compressibility (1/GPa) = 0.09352641
#
# Stress axis : x y z
#
# Youngs Moduli (GPa) = 48.65745 111.52320 23.46001
#
# Poissons Ratio (x) = 0.24650 -0.33921
# Poissons Ratio (y) = 0.10755 0.03655
# Poissons Ratio (z) = -0.70355 0.17373
#
# Static dielectric constant tensor:
#      x y z
#    x 1.690690 0.000000 0.008190 
#    y 0.000000 1.581840 0.000000 
#    z 0.008190 0.000000 1.702990 
# 
# From -- ./inp_files/307467.got.cif
#   From: 2010.05.17/outbox.cif.g08.bks.cpg/sg15_154_cif.got.tgz:307467.got - 2010.06.03 18:47:42.
