data_PCOD9283375
_publ_section_title
;
Structure prediction by ZEFSAII (Michael W. Deem and Ramdas Pophale) SiO2 
 PCOD9283375
Probable space group: C 2/C
;
_chemical_formula_sum "Si O2"
_cell_formula_units_Z 44
_cell_length_a 10.447147
_cell_length_b 26.822775
_cell_length_c 7.458550
_cell_angle_alpha 90.000000
_cell_angle_beta 116.457949
_cell_angle_gamma 90.000000
_cell_volume 1871.137805
_symmetry_space_group_name_H-M "C 2/C"
_symmetry_group_IT_number 15
_symmetry_cell_setting 'monoclinic'
loop_
_space_group_symop_operation_xyz
x,y,z
-x,y,1/2-z
-x,-y,-z
x,-y,1/2+z
1/2+x,1/2+y,z
1/2-x,1/2+y,1/2-z
1/2-x,1/2-y,-z
1/2+x,1/2-y,1/2+z
loop_
_atom_site_type_symbol
_atom_site_label
_atom_site_fract_x
_atom_site_fract_y
_atom_site_fract_z
Si Si1 0.299547 0.040097 0.492771
Si Si2 0.589783 0.317415 0.025635
Si Si3 0.000000 0.749592 0.250000
Si Si4 0.500000 0.763694 0.250000
Si Si5 0.892312 0.565002 0.952038
Si Si6 0.147159 0.323199 0.040731
Si Si7 0.000000 0.910144 0.750000
O O1 0.328392 0.061885 0.709502
O O2 0.437289 0.056396 0.461830
O O3 0.145160 0.057650 0.325163
O O4 0.317354 0.980290 0.509303
O O5 0.476679 0.286903 0.071086
O O6 0.718647 0.319808 0.244283
O O7 0.617938 0.278509 0.880794
O O8 0.534643 0.370866 0.930626
O O9 0.131572 0.711187 0.356120
O O10 0.525912 0.801034 0.100283
O O11 0.868762 0.619288 0.015745
#
# Coordination Sequence:
#
# PCOD9283375 Si02
#       7
#     8   8   4   4   8   8   4
#     4  10  22  42  64  96 128 167 216 273 312 391
#     4  10  21  40  60  94 129 166 208 268 314 393
#     4  10  24  40  57  95 131 165 216 268 328 378
#     4   9  20  34  64  91 121 164 214 253 318 386
#     4  10  22  42  66  91 129 167 221 265 322 379
#     4  11  20  39  62  90 123 171 211 265 323 383
#     4  11  22  42  69  94 132 173 216 257 338 376
#
# _framework density 23.515104000000001
#
# number of rings (size 3 to 8) (size 9 to 14) (size 15 to 20)
#    0.000    1.818    1.818    2.182    0.000    3.636 
#   13.091    0.000    0.000    0.000    0.000    0.000 
#    0.000    0.000    0.000    0.000    0.000    0.000 
#
# Total GULP energy -122634.518774 kJ/mol
# GULP energy per Si atom -5574.296308 kJ/mol
# Density = 2.346158 g / cm^3
# Si number density = 23.515104 Si / 1000 Ang^3
#
#
#
# Elastic Constant Matrix: (Units=GPa)
#
#
# Indices 1 2 3 4 5 6 
#
# 1 48.7861 51.0636 45.7663 0.0000 25.7645 0.0000
# 2 51.0636 157.7727 41.3883 0.0000 18.5811 0.0000
# 3 45.7663 41.3883 148.4572 0.0000 29.8292 0.0000
# 4 0.0000 0.0000 0.0000 37.3102 0.0000 -2.5150
# 5 25.7645 18.5811 29.8292 0.0000 45.1214 0.0000
# 6 0.0000 0.0000 0.0000 -2.5150 0.0000 16.5398
#
#
#
# Elastic Compliance Matrix: (Units=1/GPa)
#
#
# Indices 1 2 3 4 5 6 
#
# 1 0.050948 -0.012053 -0.008647 0.000000 -0.018412 0.000000
# 2 -0.012053 0.009818 0.000471 0.000000 0.002528 0.000000
# 3 -0.008647 0.000471 0.009591 0.000000 -0.001597 0.000000
# 4 0.000000 0.000000 0.000000 0.027080 0.000000 0.004118
# 5 -0.018412 0.002528 -0.001597 0.000000 0.032691 0.000000
# 6 0.000000 0.000000 0.000000 0.004118 0.000000 0.061087
#
#
# Mechanical properties :
#
#
# Convention : Reuss Voigt Hill
#
# Bulk Modulus (GPa) = 33.44526 70.16138 51.80332
# Shear Modulus (GPa) = 20.69205 34.24745 27.46975
#
# Velocity S-wave (km/s) = 2.96961 3.82042 3.42157
# Velocity P-wave (km/s) = 5.10018 7.02583 6.13898
#
# Compressibility (1/GPa) = 0.02989960
#
# Stress axis : x y z
#
# Youngs Moduli (GPa) = 19.62782 101.85372 104.26165
#
# Poissons Ratio (x) = 1.22763 0.90150
# Poissons Ratio (y) = 0.23657 -0.04906
# Poissons Ratio (z) = 0.16971 -0.04793
#
# Static dielectric constant tensor:
#      x y z
#    x 2.004470 0.000000 -0.049340 
#    y 0.000000 1.855980 0.000000 
#    z -0.049340 0.000000 2.035560 
# 
# From -- ./inp_files/34518.got.cif
#   From: 2010.05.17/outbox.cif.g08.bks.cpg/sg15_18_cif.got.tgz:34518.got - 2010.06.03 18:47:42.
