data_PCOD9283853
_publ_section_title
;
Structure prediction by ZEFSAII (Michael W. Deem and Ramdas Pophale) SiO2 
 PCOD9283853
Probable space group: C 2/C
;
_chemical_formula_sum "Si O2"
_cell_formula_units_Z 40
_cell_length_a 11.775350
_cell_length_b 12.965253
_cell_length_c 11.434583
_cell_angle_alpha 90.000000
_cell_angle_beta 109.205090
_cell_angle_gamma 90.000000
_cell_volume 1648.567850
_symmetry_space_group_name_H-M "C 2/C"
_symmetry_group_IT_number 15
_symmetry_cell_setting 'monoclinic'
loop_
_space_group_symop_operation_xyz
x,y,z
-x,y,1/2-z
-x,-y,-z
x,-y,1/2+z
1/2+x,1/2+y,z
1/2-x,1/2+y,1/2-z
1/2-x,1/2-y,-z
1/2+x,1/2-y,1/2+z
loop_
_atom_site_type_symbol
_atom_site_label
_atom_site_fract_x
_atom_site_fract_y
_atom_site_fract_z
Si Si1 0.251136 0.184769 0.845802
Si Si2 0.985538 0.376146 0.991732
Si Si3 0.132619 0.970860 0.845755
Si Si4 0.718462 0.890769 0.401399
Si Si5 0.331273 0.105595 0.227528
O O1 0.388559 0.169175 0.928074
O O2 0.169319 0.091472 0.864696
O O3 0.249920 0.172486 0.703258
O O4 0.208574 0.298364 0.862622
O O5 0.881473 0.342347 0.047209
O O6 0.941519 0.358472 0.845400
O O7 0.000000 0.500000 0.000000
O O8 0.000000 0.957972 0.750000
O O9 0.225492 0.921629 0.784529
O O10 0.165648 0.920469 0.981537
O O11 0.657994 0.998448 0.337195
#
# Coordination Sequence:
#
# PCOD9283853 Si02
#       5
#     8   8   8   8   8
#     4  11  23  39  62  96 119 159 213 253 300 369
#     4  11  20  41  65  91 122 161 210 251 301 371
#     4  10  23  41  57  86 128 163 201 249 311 367
#     4  10  21  40  65  83 125 166 201 257 307 352
#     4  10  24  39  62  95 120 161 211 250 306 365
#
# _framework density 24.263483000000001
#
# number of rings (size 3 to 8) (size 9 to 14) (size 15 to 20)
#    0.000    1.600    6.000    0.600    0.000   12.000 
#    3.600    0.000    0.000    0.000    0.000    0.000 
#    0.000    0.000    0.000    0.000    0.000    0.000 
#
# Total GULP energy -112086.970712 kJ/mol
# GULP energy per Si atom -5604.348536 kJ/mol
# Density = 2.420826 g / cm^3
# Si number density = 24.263483 Si / 1000 Ang^3
#
#
#
# Elastic Constant Matrix: (Units=GPa)
#
#
# Indices 1 2 3 4 5 6 
#
# 1 68.9947 -4.3724 59.3659 0.0000 16.8240 0.0000
# 2 -4.3724 90.4490 5.4396 0.0000 3.8099 0.0000
# 3 59.3659 5.4396 151.1743 0.0000 23.4207 0.0000
# 4 0.0000 0.0000 0.0000 33.8007 0.0000 9.4367
# 5 16.8240 3.8099 23.4207 0.0000 57.6124 0.0000
# 6 0.0000 0.0000 0.0000 9.4367 0.0000 15.4428
#
#
#
# Elastic Compliance Matrix: (Units=1/GPa)
#
#
# Indices 1 2 3 4 5 6 
#
# 1 0.022690 0.001745 -0.008462 0.000000 -0.003302 0.000000
# 2 0.001745 0.011234 -0.000956 0.000000 -0.000864 0.000000
# 3 -0.008462 -0.000956 0.010223 0.000000 -0.001622 0.000000
# 4 0.000000 0.000000 0.000000 0.035671 0.000000 -0.021797
# 5 -0.003302 -0.000864 -0.001622 0.000000 0.019038 0.000000
# 6 0.000000 0.000000 0.000000 -0.021797 0.000000 0.078075
#
#
# Mechanical properties :
#
#
# Convention : Reuss Voigt Hill
#
# Bulk Modulus (GPa) = 34.71867 47.94270 41.33068
# Shear Modulus (GPa) = 24.76752 38.05018 31.40885
#
# Velocity S-wave (km/s) = 3.19842 3.96436 3.60181
# Velocity P-wave (km/s) = 5.28961 6.38411 5.86246
#
# Compressibility (1/GPa) = 0.02880295
#
# Stress axis : x y z
#
# Youngs Moduli (GPa) = 44.07163 89.01423 97.81436
#
# Poissons Ratio (x) = -0.15531 0.82768
# Poissons Ratio (y) = -0.07690 0.09347
# Poissons Ratio (z) = 0.37292 0.08506
#
# Static dielectric constant tensor:
#      x y z
#    x 1.994320 0.000000 -0.003650 
#    y 0.000000 1.900050 0.000000 
#    z -0.003650 0.000000 1.962740 
# 
# From -- ./inp_files/85998.got.cif
#   From: 2010.05.17/outbox.cif.g08.bks.cpg/sg15_43_cif.got.tgz:85998.got - 2010.06.03 18:47:42.
