data_PCOD9283978
_publ_section_title
;
Structure prediction by ZEFSAII (Michael W. Deem and Ramdas Pophale) SiO2 
 PCOD9283978
Probable space group: C 2/C
;
_chemical_formula_sum "Si O2"
_cell_formula_units_Z 60
_cell_length_a 18.262822
_cell_length_b 12.492025
_cell_length_c 21.987974
_cell_angle_alpha 90.000000
_cell_angle_beta 37.460566
_cell_angle_gamma 90.000000
_cell_volume 3051.007364
_symmetry_space_group_name_H-M "C 2/C"
_symmetry_group_IT_number 15
_symmetry_cell_setting 'monoclinic'
loop_
_space_group_symop_operation_xyz
x,y,z
-x,y,1/2-z
-x,-y,-z
x,-y,1/2+z
1/2+x,1/2+y,z
1/2-x,1/2+y,1/2-z
1/2-x,1/2-y,-z
1/2+x,1/2-y,1/2+z
loop_
_atom_site_type_symbol
_atom_site_label
_atom_site_fract_x
_atom_site_fract_y
_atom_site_fract_z
Si Si1 0.830170 0.370515 0.882981
Si Si2 0.402144 0.845907 0.136617
Si Si3 0.450301 0.050049 0.185501
Si Si4 0.398117 0.639343 0.885913
Si Si5 0.867713 0.122290 0.220967
Si Si6 0.500000 0.455425 0.750000
Si Si7 0.628306 0.614468 0.813901
Si Si8 0.906637 0.681058 0.093349
O O1 0.852935 0.410497 0.799682
O O2 0.868057 0.246958 0.869187
O O3 0.921969 0.438439 0.864707
O O4 0.696338 0.376816 0.997336
O O5 0.407706 0.726669 0.158848
O O6 0.265494 0.862729 0.203672
O O7 0.424489 0.933557 0.174650
O O8 0.500433 0.854141 0.019147
O O9 0.447142 0.129157 0.130318
O O10 0.398436 0.535734 0.843024
O O11 0.530509 0.645056 0.827626
O O12 0.727502 0.137935 0.330108
O O13 0.945705 0.109669 0.230313
O O14 0.881416 0.013334 0.173141
O O15 0.602403 0.691257 0.888420
#
# Coordination Sequence:
#
# PCOD9283978 Si02
#       8
#     8   8   8   8   8   4   8   8
#     4  10  23  39  64 100 131 171 215 267 340 378
#     4  11  25  43  66  95 132 176 223 264 322 392
#     4  11  22  41  63  96 133 163 215 274 315 393
#     4  10  21  40  65  99 129 168 212 273 334 387
#     4  10  24  44  64  96 131 173 216 271 324 386
#     4  10  22  40  66  90 134 170 214 268 318 388
#     4  10  22  43  65  96 128 164 215 280 317 381
#     4  11  23  42  68  96 124 180 217 265 330 382
#
# _framework density 19.665637
#
# number of rings (size 3 to 8) (size 9 to 14) (size 15 to 20)
#    0.000    1.600    2.667    1.200    3.733    4.800 
#    9.600    0.667    0.000    0.000    0.000    0.000 
#    0.000    0.000    0.000    0.000    0.000    0.000 
#
# Total GULP energy -167589.189906 kJ/mol
# GULP energy per Si atom -5586.306330 kJ/mol
# Density = 1.962088 g / cm^3
# Si number density = 19.665637 Si / 1000 Ang^3
#
#
#
# Elastic Constant Matrix: (Units=GPa)
#
#
# Indices 1 2 3 4 5 6 
#
# 1 75.4933 38.8666 43.9231 0.0000 4.9065 0.0000
# 2 38.8666 141.9138 47.9325 0.0000 15.3308 0.0000
# 3 43.9231 47.9325 130.1312 0.0000 21.4751 0.0000
# 4 0.0000 0.0000 0.0000 16.5199 0.0000 4.5741
# 5 4.9065 15.3308 21.4751 0.0000 21.2810 0.0000
# 6 0.0000 0.0000 0.0000 4.5741 0.0000 28.9603
#
#
#
# Elastic Compliance Matrix: (Units=1/GPa)
#
#
# Indices 1 2 3 4 5 6 
#
# 1 0.017942 -0.003505 -0.005398 0.000000 0.003835 0.000000
# 2 -0.003505 0.008939 -0.001416 0.000000 -0.004203 0.000000
# 3 -0.005398 -0.001416 0.011583 0.000000 -0.009424 0.000000
# 4 0.000000 0.000000 0.000000 0.063301 0.000000 -0.009998
# 5 0.003835 -0.004203 -0.009424 0.000000 0.058644 0.000000
# 6 0.000000 0.000000 0.000000 -0.009998 0.000000 0.036109
#
#
# Mechanical properties :
#
#
# Convention : Reuss Voigt Hill
#
# Bulk Modulus (GPa) = 56.09651 67.66473 61.88062
# Shear Modulus (GPa) = 22.41163 27.80662 25.10913
#
# Velocity S-wave (km/s) = 3.37951 3.76436 3.57711
# Velocity P-wave (km/s) = 6.61930 7.30590 6.97106
#
# Compressibility (1/GPa) = 0.01782642
#
# Stress axis : x y z
#
# Youngs Moduli (GPa) = 55.73511 111.87310 86.33116
#
# Poissons Ratio (x) = 0.39212 0.46600
# Poissons Ratio (y) = 0.19535 0.12224
# Poissons Ratio (z) = 0.30085 0.15840
#
# Static dielectric constant tensor:
#      x y z
#    x 1.695090 0.000000 -0.006860 
#    y 0.000000 1.711930 0.000000 
#    z -0.006860 0.000000 1.679970 
# 
# From -- ./inp_files/248758.got.cif
#   From: 2010.05.17/outbox.cif.g08.bks.cpg/sg15_125_cif.got.tgz:248758.got - 2010.06.03 18:47:42.
