data_PCOD9283998
_publ_section_title
;
Structure prediction by ZEFSAII (Michael W. Deem and Ramdas Pophale) SiO2 
 PCOD9283998
Probable space group: C 2/C
;
_chemical_formula_sum "Si O2"
_cell_formula_units_Z 40
_cell_length_a 29.516834
_cell_length_b 7.756652
_cell_length_c 21.035226
_cell_angle_alpha 90.000000
_cell_angle_beta 158.341444
_cell_angle_gamma 90.000000
_cell_volume 1777.482793
_symmetry_space_group_name_H-M "C 2/C"
_symmetry_group_IT_number 15
_symmetry_cell_setting 'monoclinic'
loop_
_space_group_symop_operation_xyz
x,y,z
-x,y,1/2-z
-x,-y,-z
x,-y,1/2+z
1/2+x,1/2+y,z
1/2-x,1/2+y,1/2-z
1/2-x,1/2-y,-z
1/2+x,1/2-y,1/2+z
loop_
_atom_site_type_symbol
_atom_site_label
_atom_site_fract_x
_atom_site_fract_y
_atom_site_fract_z
Si Si1 0.123824 0.388490 0.156896
Si Si2 0.988298 0.888669 0.421275
Si Si3 0.774273 0.308847 0.459137
Si Si4 0.620193 0.505977 0.979012
Si Si5 0.226167 0.711950 0.042062
O O1 0.250993 0.488824 0.313624
O O2 0.155741 0.275601 0.261948
O O3 0.094553 0.254471 0.063159
O O4 0.000000 0.500000 0.000000
O O5 0.857443 0.797107 0.247308
O O6 0.009551 0.989826 0.383735
O O7 0.000000 0.000000 0.500000
O O8 0.750000 0.250000 0.500000
O O9 0.805787 0.510698 0.493817
O O10 0.866557 0.176713 0.546152
O O11 0.625543 0.339008 0.941183
O O12 0.250000 0.750000 0.000000
#
# Coordination Sequence:
#
# PCOD9283998 Si02
#       5
#     8   8   8   8   8
#     4  10  21  40  66 101 136 174 231 284 339 405
#     4  12  24  43  69  99 134 185 228 285 346 410
#     4  12  23  44  72  97 141 181 229 282 350 417
#     4  10  25  41  69  99 138 175 232 277 347 407
#     4  10  21  44  68  95 136 179 218 287 340 402
#
# _framework density 22.503734000000001
#
# number of rings (size 3 to 8) (size 9 to 14) (size 15 to 20)
#    1.200    0.000    6.000    0.000    2.800    0.800 
#    3.600    0.000    4.400    0.000    0.000    0.000 
#    0.000    0.000    0.000    0.000    0.000    0.000 
#
# Total GULP energy -111614.259142 kJ/mol
# GULP energy per Si atom -5580.712957 kJ/mol
# Density = 2.245251 g / cm^3
# Si number density = 22.503734 Si / 1000 Ang^3
#
#
#
# Elastic Constant Matrix: (Units=GPa)
#
#
# Indices 1 2 3 4 5 6 
#
# 1 105.3893 47.8073 1.9289 0.0000 -10.5204 0.0000
# 2 47.8073 163.5829 20.3938 0.0000 -5.2319 0.0000
# 3 1.9289 20.3938 95.2938 0.0000 -5.3548 0.0000
# 4 0.0000 0.0000 0.0000 29.2139 0.0000 -15.0553
# 5 -10.5204 -5.2319 -5.3548 0.0000 30.5599 0.0000
# 6 0.0000 0.0000 0.0000 -15.0553 0.0000 35.3687
#
#
#
# Elastic Compliance Matrix: (Units=1/GPa)
#
#
# Indices 1 2 3 4 5 6 
#
# 1 0.011307 -0.003277 0.000666 0.000000 0.003448 0.000000
# 2 -0.003277 0.007252 -0.001494 0.000000 -0.000148 0.000000
# 3 0.000666 -0.001494 0.010906 0.000000 0.001885 0.000000
# 4 0.000000 0.000000 0.000000 0.043849 0.000000 0.018665
# 5 0.003448 -0.000148 0.001885 0.000000 0.034214 0.000000
# 6 0.000000 0.000000 0.000000 0.018665 0.000000 0.036219
#
#
# Mechanical properties :
#
#
# Convention : Reuss Voigt Hill
#
# Bulk Modulus (GPa) = 47.04673 56.05844 51.55258
# Shear Modulus (GPa) = 31.43787 38.63757 35.03772
#
# Velocity S-wave (km/s) = 3.74171 4.14809 3.95013
# Velocity P-wave (km/s) = 6.29434 6.92149 6.61535
#
# Compressibility (1/GPa) = 0.02125546
#
# Stress axis : x y z
#
# Youngs Moduli (GPa) = 88.43802 137.88459 91.69243
#
# Poissons Ratio (x) = 0.45190 -0.06109
# Poissons Ratio (y) = 0.28984 0.13700
# Poissons Ratio (z) = -0.05892 0.20601
#
# Static dielectric constant tensor:
#      x y z
#    x 1.745900 0.000000 0.005820 
#    y 0.000000 1.870850 0.000000 
#    z 0.005820 0.000000 1.856800 
# 
# From -- ./inp_files/221965.got.cif
#   From: 2010.05.17/outbox.cif.g08.bks.cpg/sg15_111_cif.got.tgz:221965.got - 2010.06.03 18:47:42.
