data_PCOD9283626
_publ_section_title
;
Structure prediction by ZEFSAII (Michael W. Deem and Ramdas Pophale) SiO2 
 PCOD9283626
Probable space group: C 2/C
;
_chemical_formula_sum "Si O2"
_cell_formula_units_Z 56
_cell_length_a 14.431376
_cell_length_b 11.346861
_cell_length_c 26.949336
_cell_angle_alpha 90.000000
_cell_angle_beta 35.479752
_cell_angle_gamma 90.000000
_cell_volume 2561.358302
_symmetry_space_group_name_H-M "C 2/C"
_symmetry_group_IT_number 15
_symmetry_cell_setting 'monoclinic'
loop_
_space_group_symop_operation_xyz
x,y,z
-x,y,1/2-z
-x,-y,-z
x,-y,1/2+z
1/2+x,1/2+y,z
1/2-x,1/2+y,1/2-z
1/2-x,1/2-y,-z
1/2+x,1/2-y,1/2+z
loop_
_atom_site_type_symbol
_atom_site_label
_atom_site_fract_x
_atom_site_fract_y
_atom_site_fract_z
Si Si1 0.629318 0.495964 0.487486
Si Si2 0.041631 0.617107 0.174966
Si Si3 0.489347 0.324732 0.125976
Si Si4 0.630208 0.105400 0.504350
Si Si5 0.743278 0.525836 0.241591
Si Si6 0.545767 0.311581 0.601155
Si Si7 0.050286 0.387735 0.927666
O O1 0.500000 0.500000 0.500000
O O2 0.803015 0.533867 0.393577
O O3 0.592746 0.583532 0.549330
O O4 0.605091 0.369727 0.523418
O O5 0.066189 0.740500 0.134346
O O6 0.000000 0.642293 0.250000
O O7 0.894054 0.552466 0.211544
O O8 0.345204 0.403015 0.210188
O O9 0.435900 0.233142 0.107256
O O10 0.546319 0.174647 0.586359
O O11 0.812339 0.148608 0.424317
O O12 0.552530 0.130334 0.484990
O O13 0.603323 0.965286 0.521053
O O14 0.616479 0.629167 0.310384
O O15 0.803312 0.536717 0.158833
#
# Coordination Sequence:
#
# PCOD9283626 Si02
#       7
#     8   8   8   8   8   8   8
#     4  11  22  42  69  94 125 166 221 264 322 388
#     4  11  23  40  64  99 127 171 215 272 326 383
#     4  10  22  42  63  93 128 171 210 271 320 387
#     4  10  22  39  63  90 126 168 213 254 322 383
#     4  10  23  41  63  90 133 161 217 263 325 372
#     4  10  21  40  63  90 125 169 206 263 313 386
#     4  10  22  40  63  92 124 168 212 265 316 384
#
# _framework density 21.863399999999999
#
# number of rings (size 3 to 8) (size 9 to 14) (size 15 to 20)
#    0.000    1.714    0.000    4.714    4.000    1.714 
#    7.714    0.000    6.286    0.000    0.000    0.000 
#    0.000    0.000    0.000    0.000    0.000    0.000 
#
# Total GULP energy -156350.999630 kJ/mol
# GULP energy per Si atom -5583.964272 kJ/mol
# Density = 2.181364 g / cm^3
# Si number density = 21.863400 Si / 1000 Ang^3
#
#
#
# Elastic Constant Matrix: (Units=GPa)
#
#
# Indices 1 2 3 4 5 6 
#
# 1 92.9075 22.3404 31.7008 0.0000 -9.0768 0.0000
# 2 22.3404 76.1626 10.9875 0.0000 -6.1402 0.0000
# 3 31.7008 10.9875 93.9167 0.0000 -9.6352 0.0000
# 4 0.0000 0.0000 0.0000 34.4393 0.0000 4.6794
# 5 -9.0768 -6.1402 -9.6352 0.0000 38.3512 0.0000
# 6 0.0000 0.0000 0.0000 4.6794 0.0000 26.2145
#
#
#
# Elastic Compliance Matrix: (Units=1/GPa)
#
#
# Indices 1 2 3 4 5 6 
#
# 1 0.012986 -0.003124 -0.003853 0.000000 0.001605 0.000000
# 2 -0.003124 0.014228 -0.000464 0.000000 0.001422 0.000000
# 3 -0.003853 -0.000464 0.012216 0.000000 0.002083 0.000000
# 4 0.000000 0.000000 0.000000 0.029758 0.000000 -0.005312
# 5 0.001605 0.001422 0.002083 0.000000 0.027206 0.000000
# 6 0.000000 0.000000 0.000000 -0.005312 0.000000 0.039095
#
#
# Mechanical properties :
#
#
# Convention : Reuss Voigt Hill
#
# Bulk Modulus (GPa) = 40.73711 43.67158 42.20434
# Shear Modulus (GPa) = 31.53489 32.99818 32.26653
#
# Velocity S-wave (km/s) = 3.80196 3.88917 3.84581
# Velocity P-wave (km/s) = 6.16005 6.33921 6.25027
#
# Compressibility (1/GPa) = 0.02454765
#
# Stress axis : x y z
#
# Youngs Moduli (GPa) = 77.00519 70.28531 81.85749
#
# Poissons Ratio (x) = 0.21956 0.31541
# Poissons Ratio (y) = 0.24055 0.03800
# Poissons Ratio (z) = 0.29672 0.03263
#
# Static dielectric constant tensor:
#      x y z
#    x 1.786720 0.000000 -0.017590 
#    y 0.000000 1.901040 0.000000 
#    z -0.017590 0.000000 1.831150 
# 
# From -- ./inp_files/313735.got.cif
#   From: 2010.05.17/outbox.cif.g08.bks.cpg/sg15_157_cif.got.tgz:313735.got - 2010.06.03 18:47:42.
