data_PCOD9283770
_publ_section_title
;
Structure prediction by ZEFSAII (Michael W. Deem and Ramdas Pophale) SiO2 
 PCOD9283770
Probable space group: C 2/C
;
_chemical_formula_sum "Si O2"
_cell_formula_units_Z 36
_cell_length_a 23.202920
_cell_length_b 5.663075
_cell_length_c 18.784432
_cell_angle_alpha 90.000000
_cell_angle_beta 145.337527
_cell_angle_gamma 90.000000
_cell_volume 1403.807315
_symmetry_space_group_name_H-M "C 2/C"
_symmetry_group_IT_number 15
_symmetry_cell_setting 'monoclinic'
loop_
_space_group_symop_operation_xyz
x,y,z
-x,y,1/2-z
-x,-y,-z
x,-y,1/2+z
1/2+x,1/2+y,z
1/2-x,1/2+y,1/2-z
1/2-x,1/2-y,-z
1/2+x,1/2-y,1/2+z
loop_
_atom_site_type_symbol
_atom_site_label
_atom_site_fract_x
_atom_site_fract_y
_atom_site_fract_z
Si Si1 0.643437 0.501881 0.173826
Si Si2 0.338527 0.170257 0.934973
Si Si3 0.014507 0.313908 0.144183
Si Si4 0.847256 0.315410 0.687549
Si Si5 0.500000 0.483080 0.250000
O O1 0.763477 0.514639 0.317066
O O2 0.559841 0.676504 0.123212
O O3 0.624135 0.263094 0.200514
O O4 0.643996 0.593297 0.093804
O O5 0.269932 0.247411 0.932063
O O6 0.439307 0.028438 0.053044
O O7 0.117382 0.417934 0.284119
O O8 0.961295 0.146192 0.146758
O O9 0.914585 0.168251 0.701934
#
# Coordination Sequence:
#
# PCOD9283770 Si02
#       5
#     8   8   8   8   4
#     4   9  21  39  57  96 129 147 211 250 293 388
#     4  10  21  40  64  92 124 165 195 253 319 354
#     4  11  21  42  65  84 128 168 199 256 309 352
#     4   9  22  40  60  92 124 162 205 254 292 371
#     4  10  22  44  60  90 130 152 222 256 284 370
#
# _framework density 25.644542999999999
#
# number of rings (size 3 to 8) (size 9 to 14) (size 15 to 20)
#    1.333    0.889    0.000    2.667    0.000    1.778 
#   16.000    2.222    0.000    0.000    0.000    0.000 
#    0.000    0.000    0.000    0.000    0.000    0.000 
#
# Total GULP energy -100366.513659 kJ/mol
# GULP energy per Si atom -5575.917426 kJ/mol
# Density = 2.558618 g / cm^3
# Si number density = 25.644543 Si / 1000 Ang^3
#
#
#
# Elastic Constant Matrix: (Units=GPa)
#
#
# Indices 1 2 3 4 5 6 
#
# 1 183.2936 45.7143 33.6128 0.0000 20.2091 0.0000
# 2 45.7143 36.0189 15.2303 0.0002 7.5763 0.0000
# 3 33.6128 15.2303 88.5590 0.0001 13.0392 0.0000
# 4 0.0000 0.0002 0.0001 39.6915 0.0000 -10.8809
# 5 20.2091 7.5763 13.0392 0.0000 36.3845 0.0000
# 6 0.0000 0.0000 0.0000 -10.8809 0.0000 31.8711
#
#
#
# Elastic Compliance Matrix: (Units=1/GPa)
#
#
# Indices 1 2 3 4 5 6 
#
# 1 0.008303 -0.009577 -0.001181 0.000000 -0.002194 0.000000
# 2 -0.009577 0.041745 -0.003218 0.000000 -0.002220 0.000000
# 3 -0.001181 -0.003218 0.012772 0.000000 -0.003251 0.000000
# 4 0.000000 0.000000 0.000000 0.027796 0.000000 0.009490
# 5 -0.002194 -0.002220 -0.003251 0.000000 0.030330 0.000000
# 6 0.000000 0.000000 0.000000 0.009490 0.000000 0.034616
#
#
# Mechanical properties :
#
#
# Convention : Reuss Voigt Hill
#
# Bulk Modulus (GPa) = 28.67858 55.22073 41.94966
# Shear Modulus (GPa) = 25.62311 35.81037 30.71674
#
# Velocity S-wave (km/s) = 3.16439 3.74091 3.46466
# Velocity P-wave (km/s) = 4.95565 6.34343 5.69200
#
# Compressibility (1/GPa) = 0.03486923
#
# Stress axis : x y z
#
# Youngs Moduli (GPa) = 120.44251 23.95490 78.29441
#
# Poissons Ratio (x) = 0.22941 0.09249
# Poissons Ratio (y) = 1.15343 0.25192
# Poissons Ratio (z) = 0.14228 0.07708
#
# Static dielectric constant tensor:
#      x y z
#    x 1.988840 0.000000 -0.070090 
#    y 0.000000 1.992780 0.000000 
#    z -0.070090 0.000000 2.122460 
# 
# From -- ./inp_files/170431.got.cif
#   From: 2010.05.17/outbox.cif.g08.bks.cpg/sg15_86_cif.got.tgz:170431.got - 2010.06.03 18:47:42.
