data_PCOD9283705
_publ_section_title
;
Structure prediction by ZEFSAII (Michael W. Deem and Ramdas Pophale) SiO2 
 PCOD9283705
Probable space group: C 2/C
;
_chemical_formula_sum "Si O2"
_cell_formula_units_Z 56
_cell_length_a 17.126147
_cell_length_b 27.327241
_cell_length_c 8.762367
_cell_angle_alpha 90.000000
_cell_angle_beta 141.354354
_cell_angle_gamma 90.000000
_cell_volume 2561.006833
_symmetry_space_group_name_H-M "C 2/C"
_symmetry_group_IT_number 15
_symmetry_cell_setting 'monoclinic'
loop_
_space_group_symop_operation_xyz
x,y,z
-x,y,1/2-z
-x,-y,-z
x,-y,1/2+z
1/2+x,1/2+y,z
1/2-x,1/2+y,1/2-z
1/2-x,1/2-y,-z
1/2+x,1/2-y,1/2+z
loop_
_atom_site_type_symbol
_atom_site_label
_atom_site_fract_x
_atom_site_fract_y
_atom_site_fract_z
Si Si1 0.850290 0.698306 0.712093
Si Si2 0.340690 0.455505 0.673227
Si Si3 0.553620 0.707786 0.993255
Si Si4 0.132292 0.055914 0.646156
Si Si5 0.921703 0.647435 0.270041
Si Si6 0.727961 0.133759 0.174846
Si Si7 0.804777 0.832702 0.254131
O O1 0.865002 0.755173 0.778672
O O2 0.843639 0.674950 0.534819
O O3 0.733054 0.677311 0.629668
O O4 0.973870 0.677089 0.980843
O O5 0.309083 0.510574 0.674657
O O6 0.344950 0.452269 0.498184
O O7 0.254852 0.413811 0.614692
O O8 0.482972 0.445248 0.946843
O O9 0.641224 0.661169 0.087580
O O10 0.500000 0.727316 0.750000
O O11 0.432669 0.692607 0.905002
O O12 0.182094 0.109589 0.756441
O O13 0.848118 0.619236 0.290490
O O14 0.000000 0.622899 0.250000
O O15 0.815017 0.681711 0.030849
#
# Coordination Sequence:
#
# PCOD9283705 Si02
#       7
#     8   8   8   8   8   8   8
#     4  11  26  44  65  96 141 185 233 279 337 406
#     4  10  22  38  67 102 138 175 221 286 356 413
#     4  12  25  40  69 105 136 183 231 279 346 417
#     4  10  21  40  64 103 141 172 222 284 357 414
#     4  10  24  44  67  92 129 186 224 273 333 410
#     4  12  23  44  68 102 136 177 225 290 344 409
#     4  11  22  43  70  95 145 176 225 288 347 402
#
# _framework density 21.866401
#
# number of rings (size 3 to 8) (size 9 to 14) (size 15 to 20)
#    0.000    1.143    4.286    2.143    4.000    1.714 
#    2.571    0.000    0.000    9.429    0.000    0.000 
#    0.000    0.000    0.000    0.000    0.000    0.000 
#
# Total GULP energy -156433.674083 kJ/mol
# GULP energy per Si atom -5586.916932 kJ/mol
# Density = 2.181663 g / cm^3
# Si number density = 21.866401 Si / 1000 Ang^3
#
#
#
# Elastic Constant Matrix: (Units=GPa)
#
#
# Indices 1 2 3 4 5 6 
#
# 1 151.4524 43.7898 13.0076 0.0000 7.1133 0.0000
# 2 43.7898 113.2293 19.4407 0.0000 0.9867 0.0000
# 3 13.0076 19.4407 59.2141 0.0000 -4.1023 0.0000
# 4 0.0000 0.0000 0.0000 20.9979 0.0000 -7.8628
# 5 7.1133 0.9867 -4.1023 0.0000 28.4070 0.0000
# 6 0.0000 0.0000 0.0000 -7.8628 0.0000 22.4529
#
#
#
# Elastic Compliance Matrix: (Units=1/GPa)
#
#
# Indices 1 2 3 4 5 6 
#
# 1 0.007567 -0.002757 -0.000891 0.000000 -0.001928 0.000000
# 2 -0.002757 0.010380 -0.002808 0.000000 -0.000076 0.000000
# 3 -0.000891 -0.002808 0.018210 0.000000 0.002950 0.000000
# 4 0.000000 0.000000 0.000000 0.054811 0.000000 0.019194
# 5 -0.001928 -0.000076 0.002950 0.000000 0.036114 0.000000
# 6 0.000000 0.000000 0.000000 0.019194 0.000000 0.051259
#
#
# Mechanical properties :
#
#
# Convention : Reuss Voigt Hill
#
# Bulk Modulus (GPa) = 43.01656 52.93022 47.97339
# Shear Modulus (GPa) = 25.12555 30.88208 28.00381
#
# Velocity S-wave (km/s) = 3.39344 3.76214 3.58254
# Velocity P-wave (km/s) = 5.92191 6.56737 6.25298
#
# Compressibility (1/GPa) = 0.02324686
#
# Stress axis : x y z
#
# Youngs Moduli (GPa) = 132.15622 96.33497 54.91567
#
# Poissons Ratio (x) = 0.26556 0.04891
# Poissons Ratio (y) = 0.36431 0.15419
# Poissons Ratio (z) = 0.11771 0.27048
#
# Static dielectric constant tensor:
#      x y z
#    x 1.805600 0.000000 -0.001190 
#    y 0.000000 1.797170 0.000000 
#    z -0.001190 0.000000 1.848190 
# 
# From -- ./inp_files/52342.got.cif
#   From: 2010.05.17/outbox.cif.g08.bks.cpg/sg15_27_cif.got.tgz:52342.got - 2010.06.03 18:47:42.
