data_PCOD9283035
_publ_section_title
;
Structure prediction by ZEFSAII (Michael W. Deem and Ramdas Pophale) SiO2 
 PCOD9283035
Probable space group: C 2/C
;
_chemical_formula_sum "Si O2"
_cell_formula_units_Z 56
_cell_length_a 9.212805
_cell_length_b 26.354158
_cell_length_c 18.622765
_cell_angle_alpha 90.000000
_cell_angle_beta 147.419669
_cell_angle_gamma 90.000000
_cell_volume 2434.759191
_symmetry_space_group_name_H-M "C 2/C"
_symmetry_group_IT_number 15
_symmetry_cell_setting 'monoclinic'
loop_
_space_group_symop_operation_xyz
x,y,z
-x,y,1/2-z
-x,-y,-z
x,-y,1/2+z
1/2+x,1/2+y,z
1/2-x,1/2+y,1/2-z
1/2-x,1/2-y,-z
1/2+x,1/2-y,1/2+z
loop_
_atom_site_type_symbol
_atom_site_label
_atom_site_fract_x
_atom_site_fract_y
_atom_site_fract_z
Si Si1 0.235053 0.407028 0.498054
Si Si2 0.149251 0.692581 0.467387
Si Si3 0.718123 0.034645 0.129427
Si Si4 0.606560 0.985522 0.873899
Si Si5 0.204659 0.885873 0.589672
Si Si6 0.466769 0.184216 0.920043
Si Si7 0.934918 0.226830 0.300737
O O1 0.268479 0.417743 0.597603
O O2 0.189687 0.462253 0.444979
O O3 0.480310 0.382160 0.557115
O O4 0.980595 0.369575 0.386132
O O5 0.250000 0.750000 0.500000
O O6 0.298582 0.656295 0.473477
O O7 0.174325 0.679357 0.561860
O O8 0.828142 0.691988 0.316634
O O9 0.000000 0.005930 0.250000
O O10 0.615563 0.041542 0.167318
O O11 0.500000 0.000000 0.000000
O O12 0.500000 0.995848 0.750000
O O13 0.829023 0.941793 0.959279
O O14 0.500000 0.884248 0.750000
O O15 0.784363 0.199041 0.064081
O O16 0.363408 0.230365 0.829004
O O17 0.000000 0.251024 0.250000
#
# Coordination Sequence:
#
# PCOD9283035 Si02
#       7
#     8   8   8   8   8   8   8
#     4  11  23  39  67  96 134 178 223 276 336 411
#     4  11  25  40  64  96 129 169 220 281 337 394
#     4  10  21  39  66  95 132 178 227 279 333 399
#     4  10  22  42  64  98 135 178 222 276 333 406
#     4  11  23  38  64  95 132 169 222 276 326 389
#     4  10  22  41  64  93 127 172 221 270 337 400
#     4   9  21  40  66  90 127 169 223 275 335 398
#
# _framework density 23.000222000000001
#
# number of rings (size 3 to 8) (size 9 to 14) (size 15 to 20)
#    0.000    1.714    0.000    3.857    8.000    3.429 
#    0.000    0.000    6.286    0.000    0.000    0.000 
#    0.000    0.000    0.000    0.000    0.000    0.000 
#
# Total GULP energy -156452.413409 kJ/mol
# GULP energy per Si atom -5587.586193 kJ/mol
# Density = 2.294787 g / cm^3
# Si number density = 23.000222 Si / 1000 Ang^3
#
#
#
# Elastic Constant Matrix: (Units=GPa)
#
#
# Indices 1 2 3 4 5 6 
#
# 1 192.1812 46.0871 20.3114 0.0028 -28.0845 -0.0045
# 2 46.0871 109.4868 3.0075 0.0090 -24.0077 -0.0033
# 3 20.3114 3.0075 39.2399 0.0892 -12.2939 0.0184
# 4 0.0028 0.0090 0.0892 18.2273 0.0097 -5.8007
# 5 -28.0845 -24.0077 -12.2939 0.0097 33.8955 -0.0076
# 6 -0.0045 -0.0033 0.0184 -5.8007 -0.0076 45.4234
#
#
#
# Elastic Compliance Matrix: (Units=1/GPa)
#
#
# Indices 1 2 3 4 5 6 
#
# 1 0.006350 -0.001932 -0.002165 0.000010 0.003107 0.000003
# 2 -0.001932 0.011511 0.002449 -0.000022 0.007441 -0.000002
# 3 -0.002165 0.002449 0.029783 -0.000162 0.010743 -0.000031
# 4 0.000010 -0.000022 -0.000162 0.057188 -0.000081 0.007303
# 5 0.003107 0.007441 0.010743 -0.000081 0.041244 -0.000007
# 6 0.000003 -0.000002 -0.000031 0.007303 -0.000007 0.022948
#
#
# Mechanical properties :
#
#
# Convention : Reuss Voigt Hill
#
# Bulk Modulus (GPa) = 22.54894 53.30221 37.92558
# Shear Modulus (GPa) = 26.72332 37.60935 32.16633
#
# Velocity S-wave (km/s) = 3.41232 4.04811 3.74374
# Velocity P-wave (km/s) = 5.03491 6.71376 5.93401
#
# Compressibility (1/GPa) = 0.04434798
#
# Stress axis : x y z
#
# Youngs Moduli (GPa) = 157.48877 86.87328 33.57565
#
# Poissons Ratio (x) = 0.16784 0.07270
# Poissons Ratio (y) = 0.30426 -0.08223
# Poissons Ratio (z) = 0.34098 -0.21275
#
# Static dielectric constant tensor:
#      x y z
#    x 1.900590 0.000020 0.004880 
#    y 0.000020 1.883210 0.000040 
#    z 0.004880 0.000040 1.901760 
# 
# From -- ./inp_files/193906.got.cif
#   From: 2010.05.17/outbox.cif.g08.bks.cpg/sg15_97_cif.got.tgz:193906.got - 2010.06.03 18:47:42.
