data_PCOD9283243
_publ_section_title
;
Structure prediction by ZEFSAII (Michael W. Deem and Ramdas Pophale) SiO2 
 PCOD9283243
Probable space group: C 2/C
;
_chemical_formula_sum "Si O2"
_cell_formula_units_Z 60
_cell_length_a 7.880987
_cell_length_b 17.809344
_cell_length_c 21.229253
_cell_angle_alpha 90.000000
_cell_angle_beta 72.031767
_cell_angle_gamma 90.000000
_cell_volume 2834.312523
_symmetry_space_group_name_H-M "C 2/C"
_symmetry_group_IT_number 15
_symmetry_cell_setting 'monoclinic'
loop_
_space_group_symop_operation_xyz
x,y,z
-x,y,1/2-z
-x,-y,-z
x,-y,1/2+z
1/2+x,1/2+y,z
1/2-x,1/2+y,1/2-z
1/2-x,1/2-y,-z
1/2+x,1/2-y,1/2+z
loop_
_atom_site_type_symbol
_atom_site_label
_atom_site_fract_x
_atom_site_fract_y
_atom_site_fract_z
Si Si1 0.249592 0.983341 0.419377
Si Si2 0.992266 0.611563 0.341995
Si Si3 0.688700 0.825369 0.937623
Si Si4 0.089887 0.319363 0.090666
Si Si5 0.830292 0.339725 0.224784
Si Si6 0.652962 0.482128 0.568259
Si Si7 0.295406 0.502610 0.292531
Si Si8 0.000000 0.739141 0.250000
O O1 0.324465 0.899831 0.401866
O O2 0.263849 0.002439 0.492682
O O3 0.356452 0.044125 0.367561
O O4 0.044573 0.988299 0.422301
O O5 0.054469 0.642631 0.402023
O O6 0.168767 0.572901 0.291601
O O7 0.925988 0.682129 0.310636
O O8 0.784741 0.749917 0.903970
O O9 0.835582 0.891192 0.931137
O O10 0.589553 0.813376 0.015178
O O11 0.901924 0.317878 0.147163
O O12 0.774327 0.426838 0.231515
O O13 0.657351 0.290422 0.259180
O O14 0.000000 0.326824 0.250000
O O15 0.716738 0.508161 0.629778
O O16 0.500000 0.516081 0.250000
#
# Coordination Sequence:
#
# PCOD9283243 Si02
#       8
#     8   8   8   8   8   8   8   4
#     4  10  21  40  67  97 132 173 220 276 331 400
#     4  11  25  42  67  96 130 173 222 280 329 403
#     4   9  21  41  65  99 128 169 218 272 334 396
#     4  10  21  39  70  92 131 174 217 270 336 396
#     4  12  27  46  69  95 135 182 220 283 339 402
#     4   9  22  39  65  98 138 169 218 277 335 390
#     4  11  25  41  69  99 132 174 229 276 331 406
#     4  12  30  48  64 100 138 174 232 278 342 408
#
# _framework density 21.169155
#
# number of rings (size 3 to 8) (size 9 to 14) (size 15 to 20)
#    0.000    1.600    2.000    0.800    8.400    4.267 
#    0.000    0.667    0.000    0.000    0.000    0.000 
#    0.000    0.000    0.000    0.000    0.000    0.000 
#
# Total GULP energy -167679.849177 kJ/mol
# GULP energy per Si atom -5589.328306 kJ/mol
# Density = 2.112097 g / cm^3
# Si number density = 21.169155 Si / 1000 Ang^3
#
#
#
# Elastic Constant Matrix: (Units=GPa)
#
#
# Indices 1 2 3 4 5 6 
#
# 1 55.3518 29.1858 8.6096 0.0000 -0.2521 0.0000
# 2 29.1858 94.8431 22.3837 0.0000 1.8299 0.0000
# 3 8.6096 22.3837 47.5432 0.0000 -6.5570 0.0000
# 4 0.0000 0.0000 0.0000 28.7759 0.0000 -7.3434
# 5 -0.2521 1.8299 -6.5570 0.0000 29.8633 0.0000
# 6 0.0000 0.0000 0.0000 -7.3434 0.0000 20.6321
#
#
#
# Elastic Compliance Matrix: (Units=1/GPa)
#
#
# Indices 1 2 3 4 5 6 
#
# 1 0.021603 -0.006463 -0.000814 0.000000 0.000400 0.000000
# 2 -0.006463 0.013914 -0.005678 0.000000 -0.002154 0.000000
# 3 -0.000814 -0.005678 0.024647 0.000000 0.005753 0.000000
# 4 0.000000 0.000000 0.000000 0.038223 0.000000 0.013604
# 5 0.000400 -0.002154 0.005753 0.000000 0.034884 0.000000
# 6 0.000000 0.000000 0.000000 0.013604 0.000000 0.053310
#
#
# Mechanical properties :
#
#
# Convention : Reuss Voigt Hill
#
# Bulk Modulus (GPa) = 29.19311 35.34403 32.26857
# Shear Modulus (GPa) = 22.33044 25.02486 23.67765
#
# Velocity S-wave (km/s) = 3.25138 3.44195 3.34802
# Velocity P-wave (km/s) = 5.28352 5.70336 5.49745
#
# Compressibility (1/GPa) = 0.03425466
#
# Stress axis : x y z
#
# Youngs Moduli (GPa) = 46.29062 71.86924 40.57234
#
# Poissons Ratio (x) = 0.46451 0.03302
# Poissons Ratio (y) = 0.29919 0.23035
# Poissons Ratio (z) = 0.03768 0.40804
#
# Static dielectric constant tensor:
#      x y z
#    x 1.737440 0.000000 0.021300 
#    y 0.000000 1.719130 0.000000 
#    z 0.021300 0.000000 1.821010 
# 
# From -- ./inp_files/233068.got.cif
#   From: 2010.05.17/outbox.cif.g08.bks.cpg/sg15_117_cif.got.tgz:233068.got - 2010.06.03 18:47:42.
