data_PCOD9283410
_publ_section_title
;
Structure prediction by ZEFSAII (Michael W. Deem and Ramdas Pophale) SiO2 
 PCOD9283410
Probable space group: C 2/C
;
_chemical_formula_sum "Si O2"
_cell_formula_units_Z 48
_cell_length_a 27.976160
_cell_length_b 16.547767
_cell_length_c 9.451404
_cell_angle_alpha 90.000000
_cell_angle_beta 35.174518
_cell_angle_gamma 90.000000
_cell_volume 2520.566797
_symmetry_space_group_name_H-M "C 2/C"
_symmetry_group_IT_number 15
_symmetry_cell_setting 'monoclinic'
loop_
_space_group_symop_operation_xyz
x,y,z
-x,y,1/2-z
-x,-y,-z
x,-y,1/2+z
1/2+x,1/2+y,z
1/2-x,1/2+y,1/2-z
1/2-x,1/2-y,-z
1/2+x,1/2-y,1/2+z
loop_
_atom_site_type_symbol
_atom_site_label
_atom_site_fract_x
_atom_site_fract_y
_atom_site_fract_z
Si Si1 0.720955 0.756096 0.407497
Si Si2 0.716733 0.941157 0.376993
Si Si3 0.155686 0.692321 0.627243
Si Si4 0.054767 0.451339 0.255528
Si Si5 0.098102 0.822415 0.999491
Si Si6 0.788365 0.939901 0.914406
O O1 0.750000 0.750000 0.500000
O O2 0.692775 0.848383 0.452941
O O3 0.647417 0.698622 0.525551
O O4 0.797583 0.735447 0.116490
O O5 0.637806 0.996011 0.525751
O O6 0.754361 0.978537 0.427754
O O7 0.785828 0.947457 0.087930
O O8 0.082755 0.635038 0.747878
O O9 0.221245 0.630094 0.538246
O O10 0.126820 0.755280 0.814902
O O11 0.000000 0.441456 0.250000
O O12 0.000000 0.500000 0.500000
O O13 0.000000 0.819422 0.250000
O O14 0.129462 0.907237 0.859037
#
# Coordination Sequence:
#
# PCOD9283410 Si02
#       6
#     8   8   8   8   8   8
#     4  11  24  39  68  93 120 167 221 259 305 386
#     4  11  22  39  65  85 127 166 209 255 314 377
#     4  10  21  41  61  87 126 167 208 248 312 394
#     4  11  25  36  59  97 134 159 196 258 327 384
#     4  11  23  42  66  89 124 167 209 266 327 368
#     4  10  21  40  61  89 116 166 211 250 306 386
#
# _framework density 19.043336
#
# number of rings (size 3 to 8) (size 9 to 14) (size 15 to 20)
#    0.000    1.333    3.333    3.000   11.667    0.000 
#    0.000    0.833    0.000    0.000    0.000    0.000 
#    0.000    0.000    0.000    0.000    0.000    0.000 
#
# Total GULP energy -134051.466071 kJ/mol
# GULP energy per Si atom -5585.477753 kJ/mol
# Density = 1.899999 g / cm^3
# Si number density = 19.043336 Si / 1000 Ang^3
#
#
#
# Elastic Constant Matrix: (Units=GPa)
#
#
# Indices 1 2 3 4 5 6 
#
# 1 94.2761 -5.3366 27.5797 0.0000 4.0605 0.0000
# 2 -5.3366 40.8291 -4.4230 0.0000 -6.1806 0.0000
# 3 27.5797 -4.4230 76.3737 0.0000 -5.5288 0.0000
# 4 0.0000 0.0000 0.0000 29.7450 0.0000 3.3685
# 5 4.0605 -6.1806 -5.5288 0.0000 28.2577 0.0000
# 6 0.0000 0.0000 0.0000 3.3685 0.0000 21.5705
#
#
#
# Elastic Compliance Matrix: (Units=1/GPa)
#
#
# Indices 1 2 3 4 5 6 
#
# 1 0.012068 0.000719 -0.004494 0.000000 -0.002456 0.000000
# 2 0.000719 0.025647 0.001648 0.000000 0.005829 0.000000
# 3 -0.004494 0.001648 0.015099 0.000000 0.003960 0.000000
# 4 0.000000 0.000000 0.000000 0.034224 0.000000 -0.005344
# 5 -0.002456 0.005829 0.003960 0.000000 0.037791 0.000000
# 6 0.000000 0.000000 0.000000 -0.005344 0.000000 0.047194
#
#
# Mechanical properties :
#
#
# Convention : Reuss Voigt Hill
#
# Bulk Modulus (GPa) = 20.59374 27.45768 24.02571
# Shear Modulus (GPa) = 25.97863 28.82521 27.40192
#
# Velocity S-wave (km/s) = 3.69749 3.89480 3.79743
# Velocity P-wave (km/s) = 5.39131 5.88862 5.64544
#
# Compressibility (1/GPa) = 0.04855844
#
# Stress axis : x y z
#
# Youngs Moduli (GPa) = 82.86117 38.99068 66.23137
#
# Poissons Ratio (x) = -0.02802 0.29766
# Poissons Ratio (y) = -0.05955 -0.10913
# Poissons Ratio (z) = 0.37240 -0.06425
#
# Static dielectric constant tensor:
#      x y z
#    x 1.611370 0.000000 -0.011220 
#    y 0.000000 1.667250 0.000000 
#    z -0.011220 0.000000 1.665480 
# 
# From -- ./inp_files/56411.got.cif
#   From: 2010.05.17/outbox.cif.g08.bks.cpg/sg15_29_cif.got.tgz:56411.got - 2010.06.03 18:47:42.
