data_PCOD9283055
_publ_section_title
;
Structure prediction by ZEFSAII (Michael W. Deem and Ramdas Pophale) SiO2 
 PCOD9283055
Probable space group: C 2/C
;
_chemical_formula_sum "Si O2"
_cell_formula_units_Z 56
_cell_length_a 8.377583
_cell_length_b 12.402739
_cell_length_c 24.732217
_cell_angle_alpha 90.000000
_cell_angle_beta 114.056183
_cell_angle_gamma 90.000000
_cell_volume 2346.603421
_symmetry_space_group_name_H-M "C 2/C"
_symmetry_group_IT_number 15
_symmetry_cell_setting 'monoclinic'
loop_
_space_group_symop_operation_xyz
x,y,z
-x,y,1/2-z
-x,-y,-z
x,-y,1/2+z
1/2+x,1/2+y,z
1/2-x,1/2+y,1/2-z
1/2-x,1/2-y,-z
1/2+x,1/2-y,1/2+z
loop_
_atom_site_type_symbol
_atom_site_label
_atom_site_fract_x
_atom_site_fract_y
_atom_site_fract_z
Si Si1 0.663946 0.426475 0.353296
Si Si2 0.816301 0.255662 0.122392
Si Si3 0.000000 0.619449 0.250000
Si Si4 0.500000 0.756480 0.250000
Si Si5 0.952458 0.708494 0.127770
Si Si6 0.735673 0.441391 0.240671
Si Si7 0.256013 0.011091 0.579043
Si Si8 0.871737 0.072984 0.055717
O O1 0.680111 0.308685 0.383030
O O2 0.751595 0.448301 0.307778
O O3 0.459541 0.435694 0.308274
O O4 0.714789 0.511097 0.405812
O O5 0.938556 0.202111 0.186179
O O6 0.615073 0.238472 0.112139
O O7 0.836644 0.385079 0.120721
O O8 0.866497 0.196564 0.073972
O O9 0.010602 0.687922 0.197567
O O10 0.832947 0.541695 0.226985
O O11 0.337783 0.833179 0.240511
O O12 0.869017 0.596888 0.097062
O O13 0.223541 0.050207 0.513446
O O14 0.066242 0.976495 0.576190
#
# Coordination Sequence:
#
# PCOD9283055 Si02
#       8
#     8   8   4   4   8   8   8   8
#     4  11  22  43  65 105 140 179 231 286 342 425
#     4  12  26  47  70 106 139 180 234 293 343 427
#     4  11  22  38  65 100 132 188 219 279 352 414
#     4  11  22  40  67 104 136 176 223 275 358 412
#     4  12  25  43  71  99 149 177 229 291 350 415
#     4  10  21  39  66  97 145 174 221 284 343 417
#     4  11  26  50  69 102 140 185 238 294 345 412
#     4  11  25  47  74  98 138 189 239 289 349 405
#
# _framework density 23.864280999999998
#
# number of rings (size 3 to 8) (size 9 to 14) (size 15 to 20)
#    0.000    0.857    2.857    4.714    2.000    3.429 
#    0.000    0.000    0.000    0.000    0.000    0.000 
#    0.000    0.000    0.000    0.000    0.000    0.000 
#
# Total GULP energy -156850.813207 kJ/mol
# GULP energy per Si atom -5601.814757 kJ/mol
# Density = 2.380996 g / cm^3
# Si number density = 23.864281 Si / 1000 Ang^3
#
#
#
# Elastic Constant Matrix: (Units=GPa)
#
#
# Indices 1 2 3 4 5 6 
#
# 1 58.6205 24.9614 26.4193 0.0000 -12.3476 0.0000
# 2 24.9614 119.1153 5.6054 0.0000 2.2519 0.0000
# 3 26.4193 5.6054 95.8531 0.0000 -11.5570 0.0000
# 4 0.0000 0.0000 0.0000 26.7639 0.0000 12.9741
# 5 -12.3476 2.2519 -11.5570 0.0000 30.3413 0.0000
# 6 0.0000 0.0000 0.0000 12.9741 0.0000 18.1456
#
#
#
# Elastic Compliance Matrix: (Units=1/GPa)
#
#
# Indices 1 2 3 4 5 6 
#
# 1 0.023021 -0.004730 -0.005132 0.000000 0.007765 0.000000
# 2 -0.004730 0.009411 0.000458 0.000000 -0.002449 0.000000
# 3 -0.005132 0.000458 0.012121 0.000000 0.002494 0.000000
# 4 0.000000 0.000000 0.000000 0.057184 0.000000 -0.040887
# 5 0.007765 -0.002449 0.002494 0.000000 0.037250 0.000000
# 6 0.000000 0.000000 0.000000 -0.040887 0.000000 0.084344
#
#
# Mechanical properties :
#
#
# Convention : Reuss Voigt Hill
#
# Bulk Modulus (GPa) = 38.84149 43.06233 40.95191
# Shear Modulus (GPa) = 19.94247 29.49036 24.71642
#
# Velocity S-wave (km/s) = 2.89392 3.51914 3.22173
# Velocity P-wave (km/s) = 5.24192 5.88186 5.57109
#
# Compressibility (1/GPa) = 0.02574566
#
# Stress axis : x y z
#
# Youngs Moduli (GPa) = 43.43778 106.25775 82.50002
#
# Poissons Ratio (x) = 0.50255 0.42343
# Poissons Ratio (y) = 0.20544 -0.03778
# Poissons Ratio (z) = 0.22294 -0.04866
#
# Static dielectric constant tensor:
#      x y z
#    x 1.914140 0.000000 0.002050 
#    y 0.000000 1.926280 0.000000 
#    z 0.002050 0.000000 1.940620 
# 
# From -- ./inp_files/287984.got.cif
#   From: 2010.05.17/outbox.cif.g08.bks.cpg/sg15_144_cif.got.tgz:287984.got - 2010.06.03 18:47:42.
