data_PCOD9283862
_publ_section_title
;
Structure prediction by ZEFSAII (Michael W. Deem and Ramdas Pophale) SiO2 
 PCOD9283862
Probable space group: C 2/C
;
_chemical_formula_sum "Si O2"
_cell_formula_units_Z 48
_cell_length_a 13.809858
_cell_length_b 10.693438
_cell_length_c 28.030338
_cell_angle_alpha 90.000000
_cell_angle_beta 28.885322
_cell_angle_gamma 90.000000
_cell_volume 1999.559190
_symmetry_space_group_name_H-M "C 2/C"
_symmetry_group_IT_number 15
_symmetry_cell_setting 'monoclinic'
loop_
_space_group_symop_operation_xyz
x,y,z
-x,y,1/2-z
-x,-y,-z
x,-y,1/2+z
1/2+x,1/2+y,z
1/2-x,1/2+y,1/2-z
1/2-x,1/2-y,-z
1/2+x,1/2-y,1/2+z
loop_
_atom_site_type_symbol
_atom_site_label
_atom_site_fract_x
_atom_site_fract_y
_atom_site_fract_z
Si Si1 0.522350 0.405575 0.945312
Si Si2 0.777203 0.807179 0.830131
Si Si3 0.214175 0.013422 0.592590
Si Si4 0.297636 0.528290 0.234213
Si Si5 0.147887 0.463062 0.067348
Si Si6 0.852467 0.206962 0.027537
O O1 0.615452 0.450407 0.855800
O O2 0.500000 0.500000 0.000000
O O3 0.293676 0.368877 0.032449
O O4 0.673064 0.310681 0.904561
O O5 0.766499 0.846937 0.779276
O O6 0.593006 0.712565 0.915138
O O7 0.000000 0.763459 0.750000
O O8 0.741778 0.931381 0.879244
O O9 0.306441 0.940364 0.507652
O O10 0.293017 0.150764 0.547593
O O11 0.976362 0.030564 0.687957
O O12 0.086286 0.459141 0.322368
O O13 0.235015 0.600856 0.047821
#
# Coordination Sequence:
#
# PCOD9283862 Si02
#       6
#     8   8   8   8   8   8
#     4   9  22  42  59  89 130 163 203 256 313 361
#     4  10  22  41  62  91 129 161 207 263 309 366
#     4  10  21  40  65  88 126 165 204 255 310 361
#     4  10  21  41  60  91 124 165 206 257 309 363
#     4  10  21  41  66  90 132 163 201 262 315 368
#     4  11  21  40  64  91 121 172 206 252 310 373
#
# _framework density 24.005292000000001
#
# number of rings (size 3 to 8) (size 9 to 14) (size 15 to 20)
#    0.000    2.000    1.667    1.000    0.000    2.667 
#   18.000    7.500    0.000    0.000    0.000    0.000 
#    0.000    0.000    0.000    0.000    0.000    0.000 
#
# Total GULP energy -133759.383972 kJ/mol
# GULP energy per Si atom -5573.307666 kJ/mol
# Density = 2.395065 g / cm^3
# Si number density = 24.005292 Si / 1000 Ang^3
#
#
#
# Elastic Constant Matrix: (Units=GPa)
#
#
# Indices 1 2 3 4 5 6 
#
# 1 103.0429 24.7704 41.6182 0.0001 19.5820 -0.0001
# 2 24.7704 61.4301 8.8142 0.0000 5.8151 0.0001
# 3 41.6182 8.8142 121.5987 -0.0007 -8.1363 -0.0004
# 4 0.0001 0.0000 -0.0007 20.2099 -0.0001 -3.0528
# 5 19.5820 5.8151 -8.1363 -0.0001 40.1176 0.0000
# 6 -0.0001 0.0001 -0.0004 -3.0528 0.0000 15.1336
#
#
#
# Elastic Compliance Matrix: (Units=1/GPa)
#
#
# Indices 1 2 3 4 5 6 
#
# 1 0.014153 -0.004295 -0.005022 0.000000 -0.007304 0.000000
# 2 -0.004295 0.018039 0.000130 0.000000 -0.000492 0.000000
# 3 -0.005022 0.000130 0.010235 0.000000 0.004508 0.000000
# 4 0.000000 0.000000 0.000000 0.051036 0.000000 0.010295
# 5 -0.007304 -0.000492 0.004508 0.000000 0.029478 0.000000
# 6 0.000000 0.000000 0.000000 0.010295 0.000000 0.068155
#
#
# Mechanical properties :
#
#
# Convention : Reuss Voigt Hill
#
# Bulk Modulus (GPa) = 41.57569 48.49747 45.03658
# Shear Modulus (GPa) = 22.98989 29.15016 26.07002
#
# Velocity S-wave (km/s) = 3.09803 3.48849 3.29904
# Velocity P-wave (km/s) = 5.49127 6.03927 5.77178
#
# Compressibility (1/GPa) = 0.02405252
#
# Stress axis : x y z
#
# Youngs Moduli (GPa) = 70.65416 55.43682 97.70709
#
# Poissons Ratio (x) = 0.23811 0.49064
# Poissons Ratio (y) = 0.30347 -0.01266
# Poissons Ratio (z) = 0.35479 -0.00718
#
# Static dielectric constant tensor:
#      x y z
#    x 2.094190 0.000000 0.014820 
#    y 0.000000 2.149160 0.000000 
#    z 0.014820 0.000000 1.965830 
# 
# From -- ./inp_files/313521.got.cif
#   From: 2010.05.17/outbox.cif.g08.bks.cpg/sg15_157_cif.got.tgz:313521.got - 2010.06.03 18:47:42.
