data_PCOD9283312
_publ_section_title
;
Structure prediction by ZEFSAII (Michael W. Deem and Ramdas Pophale) SiO2 
 PCOD9283312
Probable space group: C 2/C
;
_chemical_formula_sum "Si O2"
_cell_formula_units_Z 64
_cell_length_a 14.921800
_cell_length_b 30.335881
_cell_length_c 11.947116
_cell_angle_alpha 90.000000
_cell_angle_beta 40.706964
_cell_angle_gamma 90.000000
_cell_volume 3527.080781
_symmetry_space_group_name_H-M "C 2/C"
_symmetry_group_IT_number 15
_symmetry_cell_setting 'monoclinic'
loop_
_space_group_symop_operation_xyz
x,y,z
-x,y,1/2-z
-x,-y,-z
x,-y,1/2+z
1/2+x,1/2+y,z
1/2-x,1/2+y,1/2-z
1/2-x,1/2-y,-z
1/2+x,1/2-y,1/2+z
loop_
_atom_site_type_symbol
_atom_site_label
_atom_site_fract_x
_atom_site_fract_y
_atom_site_fract_z
Si Si1 0.779097 0.941284 0.959048
Si Si2 0.385996 0.370126 0.686944
Si Si3 0.209399 0.868121 0.369738
Si Si4 0.368310 0.005099 0.548749
Si Si5 0.210192 0.395791 0.656954
Si Si6 0.364109 0.509976 0.054098
Si Si7 0.658124 0.706855 0.090284
Si Si8 0.884129 0.396335 0.992031
O O1 0.855645 0.914185 0.788783
O O2 0.653683 0.965691 0.017010
O O3 0.744247 0.905150 0.084972
O O4 0.861372 0.979570 0.946220
O O5 0.546014 0.374155 0.503021
O O6 0.294172 0.366526 0.664272
O O7 0.344667 0.329663 0.807159
O O8 0.205962 0.821422 0.436736
O O9 0.304378 0.875712 0.172383
O O10 0.362859 0.051508 0.493397
O O11 0.500000 0.000000 0.500000
O O12 0.248403 0.006426 0.752154
O O13 0.302047 0.441467 0.578522
O O14 0.185983 0.377977 0.554603
O O15 0.050038 0.396063 0.849017
O O16 0.500000 0.500000 0.000000
O O17 0.500000 0.721944 0.250000
O O18 0.750000 0.750000 0.000000
#
# Coordination Sequence:
#
# PCOD9283312 Si02
#       8
#     8   8   8   8   8   8   8   8
#     4  11  21  35  57  78 114 152 198 248 292 337
#     4  10  21  40  59  86 120 152 188 242 295 348
#     4  10  22  39  60  88 117 151 192 239 296 351
#     4  12  23  36  50  73 112 154 203 250 294 334
#     4  11  23  40  55  77 117 156 202 250 295 341
#     4  12  24  34  52  76 107 155 205 248 290 340
#     4   9  20  39  67  96 126 148 177 232 292 360
#     4  11  23  39  55  79 114 159 200 250 293 343
#
# _framework density 18.145318
#
# number of rings (size 3 to 8) (size 9 to 14) (size 15 to 20)
#    0.000    1.250    5.000    1.875    1.750    2.000 
#    2.250    1.250    0.000    0.750    0.000    0.000 
#    0.000    0.000    0.000    0.000    0.000    0.000 
#
# Total GULP energy -178162.148075 kJ/mol
# GULP energy per Si atom -5567.567127 kJ/mol
# Density = 1.810402 g / cm^3
# Si number density = 18.145318 Si / 1000 Ang^3
#
#
#
# Elastic Constant Matrix: (Units=GPa)
#
#
# Indices 1 2 3 4 5 6 
#
# 1 156.1338 45.2089 66.1255 0.0000 -12.0610 0.0000
# 2 45.2089 76.5229 51.6050 0.0000 -13.2048 0.0000
# 3 66.1255 51.6050 121.7152 0.0000 -4.2364 0.0000
# 4 0.0000 0.0000 0.0000 18.6233 0.0000 -12.2440
# 5 -12.0610 -13.2048 -4.2364 0.0000 22.7008 0.0000
# 6 0.0000 0.0000 0.0000 -12.2440 0.0000 13.5080
#
#
#
# Elastic Compliance Matrix: (Units=1/GPa)
#
#
# Indices 1 2 3 4 5 6 
#
# 1 0.008856 -0.002217 -0.003777 0.000000 0.002710 0.000000
# 2 -0.002217 0.021017 -0.007369 0.000000 0.009672 0.000000
# 3 -0.003777 -0.007369 0.013259 0.000000 -0.003819 0.000000
# 4 0.000000 0.000000 0.000000 0.132889 0.000000 0.120453
# 5 0.002710 0.009672 -0.003819 0.000000 0.050405 0.000000
# 6 0.000000 0.000000 0.000000 0.120453 0.000000 0.183212
#
#
# Mechanical properties :
#
#
# Convention : Reuss Voigt Hill
#
# Bulk Modulus (GPa) = 60.95757 75.58340 68.27049
# Shear Modulus (GPa) = 11.31652 23.72859 17.52255
#
# Velocity S-wave (km/s) = 2.50003 3.62013 3.11091
# Velocity P-wave (km/s) = 6.48078 7.69537 7.11405
#
# Compressibility (1/GPa) = 0.01640485
#
# Stress axis : x y z
#
# Youngs Moduli (GPa) = 112.92247 47.58137 75.41867
#
# Poissons Ratio (x) = 0.10550 0.28483
# Poissons Ratio (y) = 0.25037 0.55580
# Poissons Ratio (z) = 0.42647 0.35065
#
# Static dielectric constant tensor:
#      x y z
#    x 1.682290 0.000000 0.023610 
#    y 0.000000 1.670610 0.000000 
#    z 0.023610 0.000000 1.655120 
# 
# From -- ./inp_files/101638.got.cif
#   From: 2010.05.17/outbox.cif.g08.bks.cpg/sg15_51_cif.got.tgz:101638.got - 2010.06.03 18:47:42.
