data_PCOD9283843
_publ_section_title
;
Structure prediction by ZEFSAII (Michael W. Deem and Ramdas Pophale) SiO2 
 PCOD9283843
Probable space group: C 2/C
;
_chemical_formula_sum "Si O2"
_cell_formula_units_Z 64
_cell_length_a 21.061112
_cell_length_b 8.017923
_cell_length_c 18.302251
_cell_angle_alpha 90.000000
_cell_angle_beta 117.647518
_cell_angle_gamma 90.000000
_cell_volume 2737.743129
_symmetry_space_group_name_H-M "C 2/C"
_symmetry_group_IT_number 15
_symmetry_cell_setting 'monoclinic'
loop_
_space_group_symop_operation_xyz
x,y,z
-x,y,1/2-z
-x,-y,-z
x,-y,1/2+z
1/2+x,1/2+y,z
1/2-x,1/2+y,1/2-z
1/2-x,1/2-y,-z
1/2+x,1/2-y,1/2+z
loop_
_atom_site_type_symbol
_atom_site_label
_atom_site_fract_x
_atom_site_fract_y
_atom_site_fract_z
Si Si1 0.336572 0.236968 0.462312
Si Si2 0.150012 0.564098 0.174517
Si Si3 0.674722 0.799452 0.371047
Si Si4 0.654553 0.577530 0.864647
Si Si5 0.384880 0.422198 0.987382
Si Si6 0.075263 0.409200 0.822176
Si Si7 0.727822 0.240857 0.672878
Si Si8 0.009147 0.372996 0.936955
O O1 0.348040 0.089854 0.412438
O O2 0.331395 0.194361 0.544017
O O3 0.258343 0.307066 0.399374
O O4 0.395520 0.380504 0.481427
O O5 0.210715 0.674751 0.245369
O O6 0.177641 0.375865 0.196257
O O7 0.068642 0.623247 0.144788
O O8 0.644414 0.615143 0.335203
O O9 0.633863 0.963188 0.323367
O O10 0.727057 0.640882 0.865105
O O11 0.595656 0.718383 0.815045
O O12 0.653019 0.583030 0.952338
O O13 0.327681 0.359496 0.897948
O O14 0.455049 0.304973 0.022727
O O15 0.000000 0.459077 0.750000
O O16 0.065005 0.428756 0.903901
O O17 0.000000 0.500000 0.000000
#
# Coordination Sequence:
#
# PCOD9283843 Si02
#       8
#     8   8   8   8   8   8   8   8
#     4  10  21  40  65 100 124 164 225 279 327 399
#     4  12  25  40  66  94 141 173 218 271 339 410
#     4  10  21  40  68  98 128 164 224 281 335 387
#     4  10  22  41  67  97 128 171 227 284 330 394
#     4  10  22  40  70  95 130 174 227 278 337 397
#     4  11  24  41  66  96 133 175 225 280 334 400
#     4  12  23  41  63  98 131 175 216 283 337 397
#     4  11  23  44  64  94 135 186 221 262 338 423
#
# _framework density 23.376916999999999
#
# number of rings (size 3 to 8) (size 9 to 14) (size 15 to 20)
#    0.000    1.250    2.500    3.375    1.750    2.000 
#    0.000    2.500    0.000    0.000    0.000    0.000 
#    0.000    0.000    0.000    0.000    0.000    0.000 
#
# Total GULP energy -178732.550347 kJ/mol
# GULP energy per Si atom -5585.392198 kJ/mol
# Density = 2.332371 g / cm^3
# Si number density = 23.376917 Si / 1000 Ang^3
#
#
#
# Elastic Constant Matrix: (Units=GPa)
#
#
# Indices 1 2 3 4 5 6 
#
# 1 91.1002 19.3393 8.9725 0.0000 9.6441 0.0000
# 2 19.3393 90.0854 26.7084 0.0000 14.3397 0.0000
# 3 8.9725 26.7084 72.9729 0.0000 16.8092 0.0000
# 4 0.0000 0.0000 0.0000 19.2411 0.0000 6.5858
# 5 9.6441 14.3397 16.8092 0.0000 48.5846 0.0000
# 6 0.0000 0.0000 0.0000 6.5858 0.0000 44.1652
#
#
#
# Elastic Compliance Matrix: (Units=1/GPa)
#
#
# Indices 1 2 3 4 5 6 
#
# 1 0.011630 -0.002165 -0.000275 0.000000 -0.001575 0.000000
# 2 -0.002165 0.013091 -0.004058 0.000000 -0.002030 0.000000
# 3 -0.000275 -0.004058 0.016227 0.000000 -0.004362 0.000000
# 4 0.000000 0.000000 0.000000 0.054767 0.000000 -0.008167
# 5 -0.001575 -0.002030 -0.004362 0.000000 0.023004 0.000000
# 6 0.000000 0.000000 0.000000 -0.008167 0.000000 0.023860
#
#
# Mechanical properties :
#
#
# Convention : Reuss Voigt Hill
#
# Bulk Modulus (GPa) = 35.77236 40.46654 38.11945
# Shear Modulus (GPa) = 30.32266 35.67407 32.99836
#
# Velocity S-wave (km/s) = 3.60546 3.91069 3.76117
# Velocity P-wave (km/s) = 5.71560 6.14324 5.93328
#
# Compressibility (1/GPa) = 0.02795455
#
# Stress axis : x y z
#
# Youngs Moduli (GPa) = 85.98304 76.38560 61.62386
#
# Poissons Ratio (x) = 0.16534 0.01695
# Poissons Ratio (y) = 0.18611 0.25005
# Poissons Ratio (z) = 0.02365 0.30995
#
# Static dielectric constant tensor:
#      x y z
#    x 1.908440 0.000000 -0.046330 
#    y 0.000000 1.898080 0.000000 
#    z -0.046330 0.000000 1.893610 
# 
# From -- ./inp_files/251920.got.cif
#   From: 2010.05.17/outbox.cif.g08.bks.cpg/sg15_126_cif.got.tgz:251920.got - 2010.06.03 18:47:42.
