data_PCOD9283722
_publ_section_title
;
Structure prediction by ZEFSAII (Michael W. Deem and Ramdas Pophale) SiO2 
 PCOD9283722
Probable space group: C 2/C
;
_chemical_formula_sum "Si O2"
_cell_formula_units_Z 36
_cell_length_a 13.012152
_cell_length_b 22.663160
_cell_length_c 10.381196
_cell_angle_alpha 90.000000
_cell_angle_beta 141.821912
_cell_angle_gamma 90.000000
_cell_volume 1892.261766
_symmetry_space_group_name_H-M "C 2/C"
_symmetry_group_IT_number 15
_symmetry_cell_setting 'monoclinic'
loop_
_space_group_symop_operation_xyz
x,y,z
-x,y,1/2-z
-x,-y,-z
x,-y,1/2+z
1/2+x,1/2+y,z
1/2-x,1/2+y,1/2-z
1/2-x,1/2-y,-z
1/2+x,1/2-y,1/2+z
loop_
_atom_site_type_symbol
_atom_site_label
_atom_site_fract_x
_atom_site_fract_y
_atom_site_fract_z
Si Si1 0.595580 0.171021 0.072301
Si Si2 0.806203 0.043877 0.533991
Si Si3 0.115844 0.226629 0.267558
Si Si4 0.500000 0.866671 0.750000
Si Si5 0.161337 0.536445 0.112105
O O1 0.785701 0.192373 0.244558
O O2 0.531422 0.170278 0.153831
O O3 0.599317 0.103445 0.028412
O O4 0.480918 0.217214 0.883725
O O5 0.666121 0.093396 0.428764
O O6 0.780315 0.033983 0.355325
O O7 0.000000 0.058272 0.750000
O O8 0.748438 0.990623 0.571618
O O9 0.250000 0.250000 0.500000
O O10 0.000000 0.188949 0.250000
O O11 0.000000 0.500000 0.000000
#
# Coordination Sequence:
#
# PCOD9283722 Si02
#       5
#     8   8   8   4   8
#     4  10  21  40  64  88 126 170 208 265 327 371
#     4  11  22  40  62  99 136 166 218 262 320 392
#     4   9  20  39  58  88 120 157 216 264 302 376
#     4  10  22  44  62  94 138 164 212 268 320 392
#     4  11  21  41  66  93 133 173 207 265 334 385
#
# _framework density 19.024853
#
# number of rings (size 3 to 8) (size 9 to 14) (size 15 to 20)
#    0.000    1.778    4.444    0.667    0.000    7.111 
#   16.000    0.000    0.000    0.000    0.000    0.000 
#    0.000    0.000    0.000    0.000    0.000    0.000 
#
# Total GULP energy -100211.322338 kJ/mol
# GULP energy per Si atom -5567.295685 kJ/mol
# Density = 1.898155 g / cm^3
# Si number density = 19.024853 Si / 1000 Ang^3
#
#
#
# Elastic Constant Matrix: (Units=GPa)
#
#
# Indices 1 2 3 4 5 6 
#
# 1 129.5057 51.4293 29.1164 0.0000 1.4438 0.0000
# 2 51.4293 96.3481 35.1521 0.0000 6.5462 0.0000
# 3 29.1164 35.1521 98.6157 0.0000 13.3943 0.0000
# 4 0.0000 0.0000 0.0000 18.4277 0.0000 -9.9277
# 5 1.4438 6.5462 13.3943 0.0000 39.8375 0.0000
# 6 0.0000 0.0000 0.0000 -9.9277 0.0000 23.9905
#
#
#
# Elastic Compliance Matrix: (Units=1/GPa)
#
#
# Indices 1 2 3 4 5 6 
#
# 1 0.009950 -0.004892 -0.001314 0.000000 0.000885 0.000000
# 2 -0.004892 0.014347 -0.003535 0.000000 -0.000992 0.000000
# 3 -0.001314 -0.003535 0.012263 0.000000 -0.003495 0.000000
# 4 0.000000 0.000000 0.000000 0.069835 0.000000 0.028899
# 5 0.000885 -0.000992 -0.003495 0.000000 0.026408 0.000000
# 6 0.000000 0.000000 0.000000 0.028899 0.000000 0.053642
#
#
# Mechanical properties :
#
#
# Convention : Reuss Voigt Hill
#
# Bulk Modulus (GPa) = 58.55472 61.76281 60.15877
# Shear Modulus (GPa) = 23.62717 30.36924 26.99820
#
# Velocity S-wave (km/s) = 3.52790 3.99970 3.77118
# Velocity P-wave (km/s) = 6.88764 7.33927 7.11704
#
# Compressibility (1/GPa) = 0.01707804
#
# Stress axis : x y z
#
# Youngs Moduli (GPa) = 100.50360 69.69922 81.54482
#
# Poissons Ratio (x) = 0.34095 0.10717
# Poissons Ratio (y) = 0.49164 0.28828
# Poissons Ratio (z) = 0.13209 0.24640
#
# Static dielectric constant tensor:
#      x y z
#    x 2.150630 0.000000 0.247930 
#    y 0.000000 1.675820 0.000000 
#    z 0.247930 0.000000 1.801550 
# 
# From -- ./inp_files/30589.got.cif
#   From: 2010.05.17/outbox.cif.g08.bks.cpg/sg15_16_cif.got.tgz:30589.got - 2010.06.03 18:47:42.
