data_PCOD9283533
_publ_section_title
;
Structure prediction by ZEFSAII (Michael W. Deem and Ramdas Pophale) SiO2 
 PCOD9283533
Probable space group: C 2/C
;
_chemical_formula_sum "Si O2"
_cell_formula_units_Z 56
_cell_length_a 5.055384
_cell_length_b 26.542038
_cell_length_c 20.618366
_cell_angle_alpha 90.000000
_cell_angle_beta 67.720377
_cell_angle_gamma 90.000000
_cell_volume 2560.036523
_symmetry_space_group_name_H-M "C 2/C"
_symmetry_group_IT_number 15
_symmetry_cell_setting 'monoclinic'
loop_
_space_group_symop_operation_xyz
x,y,z
-x,y,1/2-z
-x,-y,-z
x,-y,1/2+z
1/2+x,1/2+y,z
1/2-x,1/2+y,1/2-z
1/2-x,1/2-y,-z
1/2+x,1/2-y,1/2+z
loop_
_atom_site_type_symbol
_atom_site_label
_atom_site_fract_x
_atom_site_fract_y
_atom_site_fract_z
Si Si1 0.934015 0.204968 0.835590
Si Si2 0.717018 0.046424 0.484970
Si Si3 0.229587 0.513598 0.615102
Si Si4 0.320603 0.599474 0.703590
Si Si5 0.915692 0.131410 0.384520
Si Si6 0.821830 0.248578 0.415208
Si Si7 0.471478 0.084149 0.176071
O O1 0.602846 0.217873 0.876282
O O2 0.000000 0.213376 0.750000
O O3 0.017028 0.146937 0.842506
O O4 0.099937 0.235647 0.877799
O O5 0.699023 0.098831 0.449834
O O6 0.009223 0.021171 0.432761
O O7 0.500000 0.000000 0.500000
O O8 0.699569 0.055653 0.562792
O O9 0.296121 0.546297 0.670570
O O10 0.979575 0.472945 0.647496
O O11 0.500000 0.588561 0.750000
O O12 0.000000 0.616949 0.750000
O O13 0.890362 0.190203 0.395579
O O14 0.801772 0.113120 0.325372
O O15 0.239232 0.114381 0.369448
O O16 0.750000 0.250000 0.500000
O O17 0.500000 0.079532 0.250000
#
# Coordination Sequence:
#
# PCOD9283533 Si02
#       7
#     8   8   8   8   8   8   8
#     4  11  25  49  72 100 141 184 235 292 365 431
#     4  10  21  40  62  91 133 179 218 267 339 412
#     4  10  23  38  63  95 133 177 218 274 337 402
#     4  11  25  43  69 103 133 181 236 287 354 425
#     4  11  25  42  64  96 129 168 225 263 343 407
#     4  12  27  46  72 106 135 181 237 305 354 415
#     4  11  23  41  64  96 132 170 216 271 321 410
#
# _framework density 21.874690000000001
#
# number of rings (size 3 to 8) (size 9 to 14) (size 15 to 20)
#    0.000    1.143    1.429    4.286    4.000    6.857 
#    0.000    0.000    0.000    0.000    0.000    0.000 
#    0.000    0.000    0.000    0.000    0.000    0.000 
#
# Total GULP energy -156104.386604 kJ/mol
# GULP energy per Si atom -5575.156664 kJ/mol
# Density = 2.182490 g / cm^3
# Si number density = 21.874690 Si / 1000 Ang^3
#
#
#
# Elastic Constant Matrix: (Units=GPa)
#
#
# Indices 1 2 3 4 5 6 
#
# 1 92.4920 4.1285 15.9914 0.0000 9.9444 0.0000
# 2 4.1285 107.3238 21.1966 0.0000 1.6417 0.0000
# 3 15.9914 21.1966 78.7576 0.0000 9.1711 0.0000
# 4 0.0000 0.0000 0.0000 25.8241 0.0000 24.5934
# 5 9.9444 1.6417 9.1711 0.0000 25.2532 0.0000
# 6 0.0000 0.0000 0.0000 24.5934 0.0000 11.6712
#
#
#
# Elastic Compliance Matrix: (Units=1/GPa)
#
#
# Indices 1 2 3 4 5 6 
#
# 1 0.011555 -0.000011 -0.001893 0.000000 -0.003862 0.000000
# 2 -0.000011 0.009843 -0.002687 0.000000 0.000340 0.000000
# 3 -0.001893 -0.002687 0.014302 0.000000 -0.004274 0.000000
# 4 0.000000 0.000000 0.000000 -0.038463 0.000000 0.081049
# 5 -0.003862 0.000340 -0.004274 0.000000 0.042650 0.000000
# 6 0.000000 0.000000 0.000000 0.081049 0.000000 -0.085105
#
#
# Mechanical properties :
#
#
# Convention : Reuss Voigt Hill
#
# Bulk Modulus (GPa) = 37.71044 40.13406 38.92225
# Shear Modulus (GPa) = -183.85175 28.36681 -77.74247
#
# Velocity S-wave (km/s) = -9.17770 3.60500 -5.96800
# Velocity P-wave (km/s) = 9.74834 5.97621 5.44587
#
# Compressibility (1/GPa) = 0.02651785
#
# Stress axis : x y z
#
# Youngs Moduli (GPa) = 86.54398 101.59062 69.91853
#
# Poissons Ratio (x) = 0.00117 0.13238
# Poissons Ratio (y) = 0.00099 0.18784
# Poissons Ratio (z) = 0.16386 0.27293
#
# Static dielectric constant tensor:
#      x y z
#    x 1.831810 0.000000 0.040780 
#    y 0.000000 1.768890 0.000000 
#    z 0.040780 0.000000 1.939930 
# 
# From -- ./inp_files/186101.got.cif
#   From: 2010.05.17/outbox.cif.g08.bks.cpg/sg15_94_cif.got.tgz:186101.got - 2010.06.03 18:47:42.
