data_PCOD9283092
_publ_section_title
;
Structure prediction by ZEFSAII (Michael W. Deem and Ramdas Pophale) SiO2 
 PCOD9283092
Probable space group: C 2/C
;
_chemical_formula_sum "Si O2"
_cell_formula_units_Z 52
_cell_length_a 12.238970
_cell_length_b 24.547142
_cell_length_c 14.445023
_cell_angle_alpha 90.000000
_cell_angle_beta 34.029026
_cell_angle_gamma 90.000000
_cell_volume 2428.576001
_symmetry_space_group_name_H-M "C 2/C"
_symmetry_group_IT_number 15
_symmetry_cell_setting 'monoclinic'
loop_
_space_group_symop_operation_xyz
x,y,z
-x,y,1/2-z
-x,-y,-z
x,-y,1/2+z
1/2+x,1/2+y,z
1/2-x,1/2+y,1/2-z
1/2-x,1/2-y,-z
1/2+x,1/2-y,1/2+z
loop_
_atom_site_type_symbol
_atom_site_label
_atom_site_fract_x
_atom_site_fract_y
_atom_site_fract_z
Si Si1 0.256324 0.527919 0.736014
Si Si2 0.165573 0.985034 0.017572
Si Si3 0.326541 0.061657 0.067412
Si Si4 0.189095 0.683736 0.437980
Si Si5 0.000000 0.398410 0.750000
Si Si6 0.000000 0.784807 0.250000
Si Si7 0.564680 0.189855 0.059287
Si Si8 0.000000 0.728954 0.750000
O O1 0.310666 0.522690 0.590636
O O2 0.449733 0.540939 0.659517
O O3 0.060688 0.563150 0.885174
O O4 0.199480 0.468272 0.816182
O O5 0.321123 0.937193 0.899947
O O6 0.224674 0.022670 0.062743
O O7 0.241205 0.121841 0.122881
O O8 0.350349 0.729592 0.305946
O O9 0.017724 0.692050 0.485064
O O10 0.112662 0.693538 0.595422
O O11 0.967227 0.358716 0.685973
O O12 0.798070 0.817192 0.392751
O O13 0.986579 0.744797 0.348370
#
# Coordination Sequence:
#
# PCOD9283092 Si02
#       8
#     8   8   8   8   4   4   8   4
#     4  10  23  39  63  92 121 172 206 254 316 384
#     4  11  22  41  58  89 134 160 207 260 306 382
#     4  11  23  41  66  92 126 169 212 256 320 377
#     4  11  24  43  65  91 125 168 209 268 304 375
#     4  11  22  39  58  96 128 159 206 267 308 388
#     4   9  20  40  66  96 120 162 204 257 336 384
#     4  10  21  39  67  91 127 160 206 263 324 377
#     4  10  26  45  62  94 126 161 224 256 312 360
#
# _framework density 21.411724
#
# number of rings (size 3 to 8) (size 9 to 14) (size 15 to 20)
#    0.000    1.538    1.538    2.308    6.462    1.231 
#    0.000    1.538    0.000    0.000    0.000    0.000 
#    0.000    0.000    0.000    0.000    0.000    0.000 
#
# Total GULP energy -145313.916916 kJ/mol
# GULP energy per Si atom -5588.996804 kJ/mol
# Density = 2.136299 g / cm^3
# Si number density = 21.411724 Si / 1000 Ang^3
#
#
#
# Elastic Constant Matrix: (Units=GPa)
#
#
# Indices 1 2 3 4 5 6 
#
# 1 94.4604 17.3771 6.3914 -0.0081 -7.5636 0.0051
# 2 17.3771 56.7390 -6.7843 -0.0051 0.1999 0.0028
# 3 6.3914 -6.7843 48.1007 -0.0009 -6.3457 0.0024
# 4 -0.0081 -0.0051 -0.0009 67.3852 0.0036 -22.1294
# 5 -7.5636 0.1999 -6.3457 0.0036 31.9882 -0.0033
# 6 0.0051 0.0028 0.0024 -22.1294 -0.0033 25.3100
#
#
#
# Elastic Compliance Matrix: (Units=1/GPa)
#
#
# Indices 1 2 3 4 5 6 
#
# 1 0.011592 -0.003768 -0.001753 0.000001 0.002417 -0.000001
# 2 -0.003768 0.019157 0.003152 0.000001 -0.000385 -0.000001
# 3 -0.001753 0.003152 0.021985 -0.000001 0.003927 -0.000002
# 4 0.000001 0.000001 -0.000001 0.020817 0.000000 0.018201
# 5 0.002417 -0.000385 0.003927 0.000000 0.032614 0.000003
# 6 -0.000001 -0.000001 -0.000002 0.018201 0.000003 0.055424
#
#
# Mechanical properties :
#
#
# Convention : Reuss Voigt Hill
#
# Bulk Modulus (GPa) = 20.83541 25.91871 23.37706
# Shear Modulus (GPa) = 27.42322 37.09107 32.25714
#
# Velocity S-wave (km/s) = 3.58265 4.16658 3.88560
# Velocity P-wave (km/s) = 5.18322 5.93956 5.57423
#
# Compressibility (1/GPa) = 0.04799521
#
# Stress axis : x y z
#
# Youngs Moduli (GPa) = 86.26810 52.20057 45.48501
#
# Poissons Ratio (x) = 0.19670 0.07973
# Poissons Ratio (y) = 0.32508 -0.14336
# Poissons Ratio (z) = 0.15122 -0.16453
#
# Static dielectric constant tensor:
#      x y z
#    x 1.781510 0.000000 -0.020090 
#    y 0.000000 1.744910 0.000000 
#    z -0.020090 0.000000 1.798180 
# 
# From -- ./inp_files/148067.got.cif
#   From: 2010.05.17/outbox.cif.g08.bks.cpg/sg15_75_cif.got.tgz:148067.got - 2010.06.03 18:47:42.
