data_PCOD9283662
_publ_section_title
;
Structure prediction by ZEFSAII (Michael W. Deem and Ramdas Pophale) SiO2 
 PCOD9283662
Probable space group: C 2/C
;
_chemical_formula_sum "Si O2"
_cell_formula_units_Z 32
_cell_length_a 13.799240
_cell_length_b 10.179663
_cell_length_c 8.847486
_cell_angle_alpha 90.000000
_cell_angle_beta 86.078906
_cell_angle_gamma 90.000000
_cell_volume 1239.911397
_symmetry_space_group_name_H-M "C 2/C"
_symmetry_group_IT_number 15
_symmetry_cell_setting 'monoclinic'
loop_
_space_group_symop_operation_xyz
x,y,z
-x,y,1/2-z
-x,-y,-z
x,-y,1/2+z
1/2+x,1/2+y,z
1/2-x,1/2+y,1/2-z
1/2-x,1/2-y,-z
1/2+x,1/2-y,1/2+z
loop_
_atom_site_type_symbol
_atom_site_label
_atom_site_fract_x
_atom_site_fract_y
_atom_site_fract_z
Si Si1 0.644386 0.276399 0.074975
Si Si2 0.201055 0.658975 0.378092
Si Si3 0.402358 0.450540 0.846828
Si Si4 0.027568 0.343836 0.081967
O O1 0.653064 0.247046 0.252360
O O2 0.614820 0.426311 0.041663
O O3 0.750000 0.250000 0.000000
O O4 0.565871 0.182798 0.008726
O O5 0.250000 0.750000 0.500000
O O6 0.290145 0.572451 0.301667
O O7 0.113497 0.588884 0.477496
O O8 0.500000 0.495982 0.750000
O O9 0.432890 0.304722 0.892528
O O10 0.000000 0.398775 0.250000
#
# Coordination Sequence:
#
# PCOD9283662 Si02
#       4
#     8   8   8   8
#     4  12  23  38  63  95 128 165 207 257 315 375
#     4  10  22  38  60  91 126 162 203 256 311 366
#     4  10  21  40  65  93 123 162 210 258 308 370
#     4  10  21  40  63  93 125 163 209 261 312 367
#
# _framework density 25.808298000000001
#
# number of rings (size 3 to 8) (size 9 to 14) (size 15 to 20)
#    0.000    1.500    0.000    7.500    0.000   10.000 
#    0.000    1.250    0.000   10.500    0.000    0.000 
#    0.000    0.000    0.000    0.000    0.000    0.000 
#
# Total GULP energy -89372.396660 kJ/mol
# GULP energy per Si atom -5585.774791 kJ/mol
# Density = 2.574956 g / cm^3
# Si number density = 25.808298 Si / 1000 Ang^3
#
#
#
# Elastic Constant Matrix: (Units=GPa)
#
#
# Indices 1 2 3 4 5 6 
#
# 1 228.8959 15.8096 65.2596 0.0000 -37.6148 0.0000
# 2 15.8096 97.7868 1.6119 0.0000 -18.0572 0.0000
# 3 65.2596 1.6119 141.5428 0.0000 -6.6254 0.0000
# 4 0.0000 0.0000 0.0000 24.4287 0.0000 -4.9642
# 5 -37.6148 -18.0572 -6.6254 0.0000 62.7565 0.0000
# 6 0.0000 0.0000 0.0000 -4.9642 0.0000 13.5977
#
#
#
# Elastic Compliance Matrix: (Units=1/GPa)
#
#
# Indices 1 2 3 4 5 6 
#
# 1 0.005574 -0.000308 -0.002426 0.000000 0.002996 0.000000
# 2 -0.000308 0.010817 0.000157 0.000000 0.002944 0.000000
# 3 -0.002426 0.000157 0.008156 0.000000 -0.000548 0.000000
# 4 0.000000 0.000000 0.000000 0.044216 0.000000 0.016142
# 5 0.002996 0.002944 -0.000548 0.000000 0.018520 0.000000
# 6 0.000000 0.000000 0.000000 0.016142 0.000000 0.079435
#
#
# Mechanical properties :
#
#
# Convention : Reuss Voigt Hill
#
# Bulk Modulus (GPa) = 51.56633 70.39864 60.98249
# Shear Modulus (GPa) = 28.03670 45.85953 36.94812
#
# Velocity S-wave (km/s) = 3.29955 4.21994 3.78780
# Velocity P-wave (km/s) = 5.87707 7.14707 6.54295
#
# Compressibility (1/GPa) = 0.01939250
#
# Stress axis : x y z
#
# Youngs Moduli (GPa) = 179.39796 92.44486 122.60581
#
# Poissons Ratio (x) = 0.02847 0.29748
# Poissons Ratio (y) = 0.05524 -0.01920
# Poissons Ratio (z) = 0.43527 -0.01448
#
# Static dielectric constant tensor:
#      x y z
#    x 2.044300 0.000000 -0.022010 
#    y 0.000000 2.049120 0.000000 
#    z -0.022010 0.000000 2.031620 
# 
# From -- ./inp_files/36803.got.cif
#   From: 2010.05.17/outbox.cif.g08.bks.cpg/sg15_19_cif.got.tgz:36803.got - 2010.06.03 18:47:42.
