data_PCOD9283343
_publ_section_title
;
Structure prediction by ZEFSAII (Michael W. Deem and Ramdas Pophale) SiO2 
 PCOD9283343
Probable space group: C 2/C
;
_chemical_formula_sum "Si O2"
_cell_formula_units_Z 40
_cell_length_a 6.665536
_cell_length_b 23.863474
_cell_length_c 12.965212
_cell_angle_alpha 90.000000
_cell_angle_beta 77.834932
_cell_angle_gamma 90.000000
_cell_volume 2015.974009
_symmetry_space_group_name_H-M "C 2/C"
_symmetry_group_IT_number 15
_symmetry_cell_setting 'monoclinic'
loop_
_space_group_symop_operation_xyz
x,y,z
-x,y,1/2-z
-x,-y,-z
x,-y,1/2+z
1/2+x,1/2+y,z
1/2-x,1/2+y,1/2-z
1/2-x,1/2-y,-z
1/2+x,1/2-y,1/2+z
loop_
_atom_site_type_symbol
_atom_site_label
_atom_site_fract_x
_atom_site_fract_y
_atom_site_fract_z
Si Si1 0.443548 0.789582 0.506119
Si Si2 0.127331 0.198893 0.630998
Si Si3 0.015592 0.392632 0.865463
Si Si4 0.412349 0.586028 0.980654
Si Si5 0.144520 0.024055 0.135626
O O1 0.250000 0.750000 0.500000
O O2 0.620747 0.802117 0.400069
O O3 0.565877 0.755722 0.580554
O O4 0.382167 0.847353 0.568751
O O5 0.043842 0.145878 0.574652
O O6 0.000000 0.197363 0.750000
O O7 0.137806 0.450770 0.856606
O O8 0.000000 0.371861 0.750000
O O9 0.790284 0.403682 0.931118
O O10 0.364490 0.540518 0.897144
O O11 0.572184 0.558490 0.042280
O O12 0.000000 0.033515 0.250000
#
# Coordination Sequence:
#
# PCOD9283343 Si02
#       5
#     8   8   8   8   8
#     4  10  22  39  60  87 120 154 202 250 296 366
#     4  10  21  40  60  86 119 157 197 246 305 353
#     4  11  21  38  59  87 118 156 198 248 304 357
#     4  10  22  38  59  85 121 154 201 250 293 362
#     4  11  21  37  60  87 117 158 198 244 304 358
#
# _framework density 19.841526999999999
#
# number of rings (size 3 to 8) (size 9 to 14) (size 15 to 20)
#    0.000    1.600    2.000    3.000    0.000    0.800 
#    3.600    0.000    0.000    0.000    0.000    0.000 
#    0.000    0.000    0.000    0.000    0.000    0.000 
#
# Total GULP energy -111517.627451 kJ/mol
# GULP energy per Si atom -5575.881373 kJ/mol
# Density = 1.979637 g / cm^3
# Si number density = 19.841527 Si / 1000 Ang^3
#
#
#
# Elastic Constant Matrix: (Units=GPa)
#
#
# Indices 1 2 3 4 5 6 
#
# 1 33.5538 -7.1290 24.3287 0.0000 -1.6011 0.0000
# 2 -7.1290 68.1661 2.8715 0.0000 1.5009 0.0000
# 3 24.3287 2.8715 108.3214 0.0000 -24.5040 0.0000
# 4 0.0000 0.0000 0.0000 37.8858 0.0000 -8.2649
# 5 -1.6011 1.5009 -24.5040 0.0000 19.8391 0.0000
# 6 0.0000 0.0000 0.0000 -8.2649 0.0000 40.0724
#
#
#
# Elastic Compliance Matrix: (Units=1/GPa)
#
#
# Indices 1 2 3 4 5 6 
#
# 1 0.038472 0.004747 -0.011304 0.000000 -0.011216 0.000000
# 2 0.004747 0.015342 -0.002288 0.000000 -0.003604 0.000000
# 3 -0.011304 -0.002288 0.016187 0.000000 0.019254 0.000000
# 4 0.000000 0.000000 0.000000 0.027639 0.000000 0.005700
# 5 -0.011216 -0.003604 0.019254 0.000000 0.073554 0.000000
# 6 0.000000 0.000000 0.000000 0.005700 0.000000 0.026131
#
#
# Mechanical properties :
#
#
# Convention : Reuss Voigt Hill
#
# Bulk Modulus (GPa) = 19.11651 27.79819 23.45735
# Shear Modulus (GPa) = 21.50986 32.22413 26.86700
#
# Velocity S-wave (km/s) = 3.29611 4.03435 3.68377
# Velocity P-wave (km/s) = 4.91338 5.97845 5.47189
#
# Compressibility (1/GPa) = 0.05231079
#
# Stress axis : x y z
#
# Youngs Moduli (GPa) = 25.99278 65.17977 61.77895
#
# Poissons Ratio (x) = -0.30938 0.69834
# Poissons Ratio (y) = -0.12338 0.14135
# Poissons Ratio (z) = 0.29382 0.14913
#
# Static dielectric constant tensor:
#      x y z
#    x 1.718610 0.000000 0.018020 
#    y 0.000000 1.680890 0.000000 
#    z 0.018020 0.000000 1.707410 
# 
# From -- ./inp_files/73038.got.cif
#   From: 2010.05.17/outbox.cif.g08.bks.cpg/sg15_37_cif.got.tgz:73038.got - 2010.06.03 18:47:42.
