data_PCOD9283630
_publ_section_title
;
Structure prediction by ZEFSAII (Michael W. Deem and Ramdas Pophale) SiO2 
 PCOD9283630
Probable space group: C 2/C
;
_chemical_formula_sum "Si O2"
_cell_formula_units_Z 60
_cell_length_a 19.057034
_cell_length_b 13.407476
_cell_length_c 12.660038
_cell_angle_alpha 90.000000
_cell_angle_beta 71.196656
_cell_angle_gamma 90.000000
_cell_volume 3062.089050
_symmetry_space_group_name_H-M "C 2/C"
_symmetry_group_IT_number 15
_symmetry_cell_setting 'monoclinic'
loop_
_space_group_symop_operation_xyz
x,y,z
-x,y,1/2-z
-x,-y,-z
x,-y,1/2+z
1/2+x,1/2+y,z
1/2-x,1/2+y,1/2-z
1/2-x,1/2-y,-z
1/2+x,1/2-y,1/2+z
loop_
_atom_site_type_symbol
_atom_site_label
_atom_site_fract_x
_atom_site_fract_y
_atom_site_fract_z
Si Si1 0.260921 0.828379 0.639378
Si Si2 0.000000 0.007281 0.250000
Si Si3 0.424765 0.538543 0.982387
Si Si4 0.054746 0.555248 0.128193
Si Si5 0.099767 0.170947 0.319489
Si Si6 0.458939 0.881257 0.101282
Si Si7 0.708158 0.388313 0.438178
Si Si8 0.828542 0.514836 0.265847
O O1 0.178650 0.808909 0.726886
O O2 0.301194 0.723731 0.599114
O O3 0.249015 0.879452 0.531293
O O4 0.304516 0.898427 0.698502
O O5 0.951380 0.940288 0.351556
O O6 0.942832 0.082701 0.220668
O O7 0.500000 0.500000 0.000000
O O8 0.391256 0.628321 0.066182
O O9 0.367452 0.447667 0.009744
O O10 0.134658 0.555127 0.143758
O O11 0.000000 0.587191 0.250000
O O12 0.030700 0.441859 0.107336
O O13 0.044564 0.615136 0.024491
O O14 0.050789 0.270558 0.350077
O O15 0.390360 0.946629 0.179058
O O16 0.758473 0.448810 0.331853
#
# Coordination Sequence:
#
# PCOD9283630 Si02
#       8
#     8   4   8   8   8   8   8   8
#     4  11  23  38  63  98 124 163 212 253 316 386
#     4  10  22  40  62  88 122 166 214 266 302 364
#     4  10  22  42  60  88 125 165 214 263 313 362
#     4   9  21  41  59  86 127 159 198 253 316 367
#     4  11  21  38  65  91 119 160 209 255 309 375
#     4  10  21  40  63  91 119 161 208 255 309 384
#     4  11  22  40  64  91 127 169 212 262 318 370
#     4  11  21  39  63  90 129 159 202 265 318 376
#
# _framework density 19.594465
#
# number of rings (size 3 to 8) (size 9 to 14) (size 15 to 20)
#    0.000    1.600    4.000    0.800    2.800    0.000 
#   18.000    3.333    0.000    0.000    0.000    0.000 
#    0.000    0.000    0.000    0.000    0.000    0.000 
#
# Total GULP energy -167487.899612 kJ/mol
# GULP energy per Si atom -5582.929987 kJ/mol
# Density = 1.954987 g / cm^3
# Si number density = 19.594465 Si / 1000 Ang^3
#
#
#
# Elastic Constant Matrix: (Units=GPa)
#
#
# Indices 1 2 3 4 5 6 
#
# 1 49.6588 15.7520 7.5669 0.0000 11.0038 0.0000
# 2 15.7520 41.2254 17.9270 0.0000 10.8739 0.0000
# 3 7.5669 17.9270 108.0191 0.0000 7.9032 0.0000
# 4 0.0000 0.0000 0.0000 24.9117 0.0000 -0.4942
# 5 11.0038 10.8739 7.9032 0.0000 31.0637 0.0000
# 6 0.0000 0.0000 0.0000 -0.4942 0.0000 18.9840
#
#
#
# Elastic Compliance Matrix: (Units=1/GPa)
#
#
# Indices 1 2 3 4 5 6 
#
# 1 0.023823 -0.007581 0.000013 0.000000 -0.005788 0.000000
# 2 -0.007581 0.030781 -0.004061 0.000000 -0.007056 0.000000
# 3 0.000013 -0.004061 0.010013 0.000000 -0.001131 0.000000
# 4 0.000000 0.000000 0.000000 0.040162 0.000000 0.001046
# 5 -0.005788 -0.007056 -0.001131 0.000000 0.037000 0.000000
# 6 0.000000 0.000000 0.000000 0.001046 0.000000 0.052703
#
#
# Mechanical properties :
#
#
# Convention : Reuss Voigt Hill
#
# Bulk Modulus (GPa) = 24.17917 31.26612 27.72264
# Shear Modulus (GPa) = 21.59566 25.50238 23.54902
#
# Velocity S-wave (km/s) = 3.32344 3.61156 3.47049
# Velocity P-wave (km/s) = 5.20515 5.77775 5.49891
#
# Compressibility (1/GPa) = 0.04135792
#
# Stress axis : x y z
#
# Youngs Moduli (GPa) = 41.97636 32.48773 99.86593
#
# Poissons Ratio (x) = 0.24630 -0.00129
# Poissons Ratio (y) = 0.31824 0.40556
# Poissons Ratio (z) = -0.00054 0.13194
#
# Static dielectric constant tensor:
#      x y z
#    x 1.685120 0.000000 0.010490 
#    y 0.000000 1.658350 0.000000 
#    z 0.010490 0.000000 1.730580 
# 
# From -- ./inp_files/105701.got.cif
#   From: 2010.05.17/outbox.cif.g08.bks.cpg/sg15_53_cif.got.tgz:105701.got - 2010.06.03 18:47:42.
