data_PCOD9283298
_publ_section_title
;
Structure prediction by ZEFSAII (Michael W. Deem and Ramdas Pophale) SiO2 
 PCOD9283298
Probable space group: C 2/C
;
_chemical_formula_sum "Si O2"
_cell_formula_units_Z 48
_cell_length_a 19.361162
_cell_length_b 24.377960
_cell_length_c 5.282625
_cell_angle_alpha 90.000000
_cell_angle_beta 117.718190
_cell_angle_gamma 90.000000
_cell_volume 2207.204317
_symmetry_space_group_name_H-M "C 2/C"
_symmetry_group_IT_number 15
_symmetry_cell_setting 'monoclinic'
loop_
_space_group_symop_operation_xyz
x,y,z
-x,y,1/2-z
-x,-y,-z
x,-y,1/2+z
1/2+x,1/2+y,z
1/2-x,1/2+y,1/2-z
1/2-x,1/2-y,-z
1/2+x,1/2-y,1/2+z
loop_
_atom_site_type_symbol
_atom_site_label
_atom_site_fract_x
_atom_site_fract_y
_atom_site_fract_z
Si Si1 0.401643 0.471829 0.431601
Si Si2 0.276219 0.692058 0.658102
Si Si3 0.500000 0.961178 0.750000
Si Si4 0.000000 0.872603 0.750000
Si Si5 0.669236 0.913679 0.998453
Si Si6 0.141403 0.155970 0.197069
Si Si7 0.743424 0.546430 0.354508
O O1 0.430304 0.499003 0.229217
O O2 0.434114 0.410816 0.504034
O O3 0.310375 0.491218 0.267024
O O4 0.250000 0.750000 0.500000
O O5 0.205601 0.647574 0.543035
O O6 0.339072 0.674195 0.552630
O O7 0.312298 0.689279 0.002624
O O8 0.577021 0.923503 0.855271
O O9 0.500000 0.000000 0.500000
O O10 0.051562 0.842280 0.628733
O O11 0.702976 0.942108 0.800480
O O12 0.700253 0.939907 0.314285
O O13 0.176254 0.093731 0.260266
#
# Coordination Sequence:
#
# PCOD9283298 Si02
#       7
#     8   8   4   4   8   8   8
#     4  12  25  36  56  84 131 194 223 244 295 367
#     4  10  22  46  73  95 121 167 226 274 339 402
#     4  12  26  44  64  95 135 176 208 278 362 382
#     4  12  26  42  56  97 151 170 224 262 316 382
#     4  10  23  43  65  94 129 162 223 283 324 406
#     4  10  23  39  63  93 132 171 204 275 324 372
#     4  10  21  40  58  91 125 176 227 254 300 381
#
# _framework density 21.746967999999999
#
# number of rings (size 3 to 8) (size 9 to 14) (size 15 to 20)
#    0.000    1.333    1.667    3.000    4.667    6.000 
#    0.000    1.667    0.000    0.000    0.000    0.000 
#    0.000    0.000    0.000    0.000    0.000    0.000 
#
# Total GULP energy -133878.984146 kJ/mol
# GULP energy per Si atom -5578.291006 kJ/mol
# Density = 2.169747 g / cm^3
# Si number density = 21.746968 Si / 1000 Ang^3
#
#
#
# Elastic Constant Matrix: (Units=GPa)
#
#
# Indices 1 2 3 4 5 6 
#
# 1 191.9685 26.7744 60.9218 0.0000 2.6241 0.0000
# 2 26.7744 92.0609 32.2984 0.0000 10.4345 0.0000
# 3 60.9218 32.2984 145.6280 0.0000 -20.5595 0.0000
# 4 0.0000 0.0000 0.0000 29.0405 0.0000 0.0634
# 5 2.6241 10.4345 -20.5595 0.0000 28.5598 0.0000
# 6 0.0000 0.0000 0.0000 0.0634 0.0000 17.4870
#
#
#
# Elastic Compliance Matrix: (Units=1/GPa)
#
#
# Indices 1 2 3 4 5 6 
#
# 1 0.006212 -0.000547 -0.002816 0.000000 -0.002398 0.000000
# 2 -0.000547 0.013183 -0.003749 0.000000 -0.007465 0.000000
# 3 -0.002816 -0.003749 0.010136 0.000000 0.008925 0.000000
# 4 0.000000 0.000000 0.000000 0.034435 0.000000 -0.000125
# 5 -0.002398 -0.007465 0.008925 0.000000 0.044387 0.000000
# 6 0.000000 0.000000 0.000000 -0.000125 0.000000 0.057186
#
#
# Mechanical properties :
#
#
# Convention : Reuss Voigt Hill
#
# Bulk Modulus (GPa) = 65.32693 74.40519 69.86606
# Shear Modulus (GPa) = 27.04678 35.66163 31.35420
#
# Velocity S-wave (km/s) = 3.53044 4.05389 3.80119
# Velocity P-wave (km/s) = 6.83546 7.49669 7.17370
#
# Compressibility (1/GPa) = 0.01530762
#
# Stress axis : x y z
#
# Youngs Moduli (GPa) = 160.98159 75.85662 98.65491
#
# Poissons Ratio (x) = 0.04148 0.27781
# Poissons Ratio (y) = 0.08804 0.36984
# Poissons Ratio (z) = 0.45331 0.28438
#
# Static dielectric constant tensor:
#      x y z
#    x 1.902360 0.000000 -0.076070 
#    y 0.000000 1.857130 0.000000 
#    z -0.076070 0.000000 1.891620 
# 
# From -- ./inp_files/10932.got.cif
#   From: 2010.05.17/outbox.cif.g08.bks.cpg/sg15_6_cif.got.tgz:10932.got - 2010.06.03 18:47:42.
