data_PCOD9283976
_publ_section_title
;
Structure prediction by ZEFSAII (Michael W. Deem and Ramdas Pophale) SiO2 
 PCOD9283976
Probable space group: C 2/C
;
_chemical_formula_sum "Si O2"
_cell_formula_units_Z 56
_cell_length_a 15.155652
_cell_length_b 23.514582
_cell_length_c 13.610119
_cell_angle_alpha 90.000000
_cell_angle_beta 28.779225
_cell_angle_gamma 90.000000
_cell_volume 2335.136555
_symmetry_space_group_name_H-M "C 2/C"
_symmetry_group_IT_number 15
_symmetry_cell_setting 'monoclinic'
loop_
_space_group_symop_operation_xyz
x,y,z
-x,y,1/2-z
-x,-y,-z
x,-y,1/2+z
1/2+x,1/2+y,z
1/2-x,1/2+y,1/2-z
1/2-x,1/2-y,-z
1/2+x,1/2-y,1/2+z
loop_
_atom_site_type_symbol
_atom_site_label
_atom_site_fract_x
_atom_site_fract_y
_atom_site_fract_z
Si Si1 0.924418 0.122485 0.212924
Si Si2 0.171423 0.469285 0.691463
Si Si3 0.294388 0.560564 0.708422
Si Si4 0.249122 0.508151 0.416174
Si Si5 0.427905 0.288817 0.546057
Si Si6 0.207446 0.151226 0.505041
Si Si7 0.666130 0.169614 0.904851
O O1 0.769282 0.074268 0.372514
O O2 0.871867 0.178263 0.200456
O O3 0.000000 0.134439 0.250000
O O4 0.071608 0.089489 0.999844
O O5 0.230313 0.499249 0.733518
O O6 0.281324 0.503244 0.500128
O O7 0.217458 0.404471 0.623656
O O8 0.957357 0.484528 0.892370
O O9 0.369524 0.539185 0.740334
O O10 0.140156 0.607807 0.881928
O O11 0.304897 0.302324 0.569706
O O12 0.444678 0.221025 0.534277
O O13 0.625031 0.314345 0.326607
O O14 0.331058 0.165374 0.479675
O O15 0.000000 0.144148 0.750000
#
# Coordination Sequence:
#
# PCOD9283976 Si02
#       7
#     8   8   8   8   8   8   8
#     4  11  23  42  66  90 125 171 221 261 310 384
#     4  11  23  37  62  97 132 163 207 259 325 380
#     4  11  22  40  64  89 128 171 209 259 319 386
#     4  11  23  39  59  97 129 162 210 260 322 376
#     4  10  23  41  65  92 123 170 216 266 320 370
#     4  10  21  40  65  98 132 168 210 257 322 398
#     4  10  22  41  63  94 126 165 216 262 318 380
#
# _framework density 23.981466000000001
#
# number of rings (size 3 to 8) (size 9 to 14) (size 15 to 20)
#    0.000    1.429    2.857    2.143    2.000    2.286 
#    0.000    2.857    3.143    0.000    0.000    0.000 
#    0.000    0.000    0.000    0.000    0.000    0.000 
#
# Total GULP energy -156418.289224 kJ/mol
# GULP energy per Si atom -5586.367472 kJ/mol
# Density = 2.392688 g / cm^3
# Si number density = 23.981466 Si / 1000 Ang^3
#
#
#
# Elastic Constant Matrix: (Units=GPa)
#
#
# Indices 1 2 3 4 5 6 
#
# 1 73.5022 39.8895 30.0148 -0.0153 19.3588 -0.0038
# 2 39.8895 150.6447 35.6260 -0.0987 15.8863 0.0127
# 3 30.0148 35.6260 90.3453 -0.0420 24.5007 -0.0011
# 4 -0.0153 -0.0987 -0.0420 24.2970 0.0068 0.5802
# 5 19.3588 15.8863 24.5007 0.0068 24.4217 0.0116
# 6 -0.0038 0.0127 -0.0011 0.5802 0.0116 42.5231
#
#
#
# Elastic Compliance Matrix: (Units=1/GPa)
#
#
# Indices 1 2 3 4 5 6 
#
# 1 0.019186 -0.003444 -0.002060 -0.000003 -0.010902 0.000006
# 2 -0.003444 0.008058 -0.001858 0.000028 -0.000648 -0.000003
# 3 -0.002060 -0.001858 0.016093 0.000023 -0.013305 0.000004
# 4 -0.000003 0.000028 0.000023 0.041171 -0.000050 -0.000562
# 5 -0.010902 -0.000648 -0.013305 -0.000050 0.063359 -0.000018
# 6 0.000006 -0.000003 0.000004 -0.000562 -0.000018 0.023524
#
#
# Mechanical properties :
#
#
# Convention : Reuss Voigt Hill
#
# Bulk Modulus (GPa) = 34.94550 58.39474 46.67012
# Shear Modulus (GPa) = 25.55566 32.17915 28.86740
#
# Velocity S-wave (km/s) = 3.26796 3.66708 3.47326
# Velocity P-wave (km/s) = 5.37056 6.50636 5.96555
#
# Compressibility (1/GPa) = 0.02861599
#
# Stress axis : x y z
#
# Youngs Moduli (GPa) = 52.12035 124.10586 62.13719
#
# Poissons Ratio (x) = 0.42737 0.12798
# Poissons Ratio (y) = 0.17948 0.11542
# Poissons Ratio (z) = 0.10735 0.23053
#
# Static dielectric constant tensor:
#      x y z
#    x 1.936160 -0.000040 -0.026540 
#    y -0.000040 1.948880 0.000070 
#    z -0.026540 0.000070 1.993920 
# 
# From -- ./inp_files/163739.got.cif
#   From: 2010.05.17/outbox.cif.g08.bks.cpg/sg15_82_cif.got.tgz:163739.got - 2010.06.03 18:47:42.
