data_PCOD9283748
_publ_section_title
;
Structure prediction by ZEFSAII (Michael W. Deem and Ramdas Pophale) SiO2 
 PCOD9283748
Probable space group: C 2/C
;
_chemical_formula_sum "Si O2"
_cell_formula_units_Z 56
_cell_length_a 17.523723
_cell_length_b 17.029669
_cell_length_c 20.142585
_cell_angle_alpha 90.000000
_cell_angle_beta 27.762286
_cell_angle_gamma 90.000000
_cell_volume 2799.956374
_symmetry_space_group_name_H-M "C 2/C"
_symmetry_group_IT_number 15
_symmetry_cell_setting 'monoclinic'
loop_
_space_group_symop_operation_xyz
x,y,z
-x,y,1/2-z
-x,-y,-z
x,-y,1/2+z
1/2+x,1/2+y,z
1/2-x,1/2+y,1/2-z
1/2-x,1/2-y,-z
1/2+x,1/2-y,1/2+z
loop_
_atom_site_type_symbol
_atom_site_label
_atom_site_fract_x
_atom_site_fract_y
_atom_site_fract_z
Si Si1 0.809217 0.217034 0.384837
Si Si2 0.628273 0.811681 0.438699
Si Si3 0.040585 0.151273 0.891157
Si Si4 0.750337 0.873860 0.143097
Si Si5 0.548288 0.062150 0.102424
Si Si6 0.261865 0.467234 0.568026
Si Si7 0.440890 0.097321 0.965214
O O1 0.750000 0.250000 0.500000
O O2 0.747581 0.284498 0.381999
O O3 0.730155 0.136638 0.421200
O O4 0.000000 0.209509 0.250000
O O5 0.815302 0.818211 0.268808
O O6 0.565925 0.723420 0.497954
O O7 0.597195 0.856469 0.531513
O O8 0.518758 0.857849 0.467931
O O9 0.135987 0.114483 0.880509
O O10 0.921511 0.086912 0.950575
O O11 0.563086 0.886093 0.309623
O O12 0.794391 0.940554 0.056192
O O13 0.367171 0.059250 0.274626
O O14 0.670453 0.042474 0.068602
O O15 0.565373 0.996499 0.031430
#
# Coordination Sequence:
#
# PCOD9283748 Si02
#       7
#     8   8   8   8   8   8   8
#     4  12  22  36  60  94 129 164 199 245 300 371
#     4  11  23  41  65  91 125 162 207 258 305 368
#     4  11  23  41  64  93 123 162 210 255 306 365
#     4  10  21  40  64  90 127 164 205 246 305 377
#     4  10  22  42  65  89 124 164 204 257 312 362
#     4  10  22  41  66  90 121 165 207 254 311 365
#     4  10  21  41  62  92 126 164 203 247 310 368
#
# _framework density 20.000312000000001
#
# number of rings (size 3 to 8) (size 9 to 14) (size 15 to 20)
#    0.000    1.429    2.857    2.571    2.000    1.143 
#    7.714    0.000    0.000    0.000    0.000    0.000 
#    0.000    0.000    0.000    0.000    0.000    0.000 
#
# Total GULP energy -156321.169168 kJ/mol
# GULP energy per Si atom -5582.898899 kJ/mol
# Density = 1.995479 g / cm^3
# Si number density = 20.000312 Si / 1000 Ang^3
#
#
#
# Elastic Constant Matrix: (Units=GPa)
#
#
# Indices 1 2 3 4 5 6 
#
# 1 37.0536 16.3527 21.3423 0.0020 -10.9014 -0.0001
# 2 16.3527 58.6143 22.7057 -0.0007 -15.1969 0.0007
# 3 21.3423 22.7057 85.4767 0.0015 -22.8246 0.0017
# 4 0.0020 -0.0007 0.0015 27.2729 -0.0006 -0.3243
# 5 -10.9014 -15.1969 -22.8246 -0.0006 28.3933 -0.0003
# 6 -0.0001 0.0007 0.0017 -0.3243 -0.0003 37.0750
#
#
#
# Elastic Compliance Matrix: (Units=1/GPa)
#
#
# Indices 1 2 3 4 5 6 
#
# 1 0.034467 -0.006035 -0.005516 -0.000002 0.005569 0.000001
# 2 -0.006035 0.021531 -0.002233 0.000001 0.007411 0.000000
# 3 -0.005516 -0.002233 0.016279 0.000000 0.009773 -0.000001
# 4 -0.000002 0.000001 0.000000 0.036670 0.000000 0.000321
# 5 0.005569 0.007411 0.009773 0.000000 0.049181 0.000000
# 6 0.000001 0.000000 -0.000001 0.000321 0.000000 0.026975
#
#
# Mechanical properties :
#
#
# Convention : Reuss Voigt Hill
#
# Bulk Modulus (GPa) = 22.36700 33.54956 27.95828
# Shear Modulus (GPa) = 21.97072 26.59784 24.28428
#
# Velocity S-wave (km/s) = 3.31799 3.65070 3.48831
# Velocity P-wave (km/s) = 5.08786 5.88056 5.49852
#
# Compressibility (1/GPa) = 0.04470873
#
# Stress axis : x y z
#
# Youngs Moduli (GPa) = 29.01337 46.44416 61.42767
#
# Poissons Ratio (x) = 0.28030 0.33881
# Poissons Ratio (y) = 0.17510 0.13720
# Poissons Ratio (z) = 0.16003 0.10373
#
# Static dielectric constant tensor:
#      x y z
#    x 1.698980 -0.000020 0.014900 
#    y -0.000020 1.692610 0.000010 
#    z 0.014900 0.000010 1.701540 
# 
# From -- ./inp_files/249211.got.cif
#   From: 2010.05.17/outbox.cif.g08.bks.cpg/sg15_125_cif.got.tgz:249211.got - 2010.06.03 18:47:42.
