data_PCOD9283465
_publ_section_title
;
Structure prediction by ZEFSAII (Michael W. Deem and Ramdas Pophale) SiO2 
 PCOD9283465
Probable space group: C 2/C
;
_chemical_formula_sum "Si O2"
_cell_formula_units_Z 44
_cell_length_a 16.276726
_cell_length_b 11.118520
_cell_length_c 16.697363
_cell_angle_alpha 90.000000
_cell_angle_beta 46.812505
_cell_angle_gamma 90.000000
_cell_volume 2203.229571
_symmetry_space_group_name_H-M "C 2/C"
_symmetry_group_IT_number 15
_symmetry_cell_setting 'monoclinic'
loop_
_space_group_symop_operation_xyz
x,y,z
-x,y,1/2-z
-x,-y,-z
x,-y,1/2+z
1/2+x,1/2+y,z
1/2-x,1/2+y,1/2-z
1/2-x,1/2-y,-z
1/2+x,1/2-y,1/2+z
loop_
_atom_site_type_symbol
_atom_site_label
_atom_site_fract_x
_atom_site_fract_y
_atom_site_fract_z
Si Si1 0.907515 0.125982 0.543897
Si Si2 0.662915 0.227874 0.705035
Si Si3 0.099866 0.053448 0.131568
Si Si4 0.212891 0.621835 0.058584
Si Si5 0.142633 0.864196 0.884519
Si Si6 0.000000 0.480307 0.250000
O O1 0.794435 0.199098 0.608278
O O2 0.938859 0.090044 0.431501
O O3 0.022757 0.178323 0.502933
O O4 0.875280 0.007317 0.615076
O O5 0.629800 0.327310 0.661488
O O6 0.656311 0.285467 0.797156
O O7 0.582539 0.111462 0.744506
O O8 0.000000 0.993105 0.250000
O O9 0.208477 0.972689 0.041681
O O10 0.254530 0.635163 0.122714
O O11 0.086952 0.566889 0.143900
O O12 0.250000 0.750000 0.000000
#
# Coordination Sequence:
#
# PCOD9283465 Si02
#       6
#     8   8   8   8   8   4
#     4  10  21  40  61  96 139 163 222 277 339 415
#     4  12  22  38  73 103 133 169 230 293 350 393
#     4  11  21  39  70 100 130 181 224 275 348 406
#     4  11  28  47  65  95 141 190 228 275 351 423
#     4  10  22  41  62  95 129 178 211 278 341 405
#     4  12  24  46  70 100 142 168 236 294 340 404
#
# _framework density 19.970683000000001
#
# number of rings (size 3 to 8) (size 9 to 14) (size 15 to 20)
#    0.000    1.091    6.364    0.545    3.818    2.909 
#    0.000    0.909    0.000    0.000    0.000    0.000 
#    0.000    0.000    0.000    0.000    0.000    0.000 
#
# Total GULP energy -122529.984298 kJ/mol
# GULP energy per Si atom -5569.544741 kJ/mol
# Density = 1.992523 g / cm^3
# Si number density = 19.970683 Si / 1000 Ang^3
#
#
#
# Elastic Constant Matrix: (Units=GPa)
#
#
# Indices 1 2 3 4 5 6 
#
# 1 49.7274 25.9138 11.1064 0.0000 -8.2364 0.0000
# 2 25.9138 83.8535 37.4431 0.0000 7.0056 0.0000
# 3 11.1064 37.4431 107.4644 0.0000 -13.7587 0.0000
# 4 0.0000 0.0000 0.0000 27.3842 0.0000 1.8936
# 5 -8.2364 7.0056 -13.7587 0.0000 29.4158 0.0000
# 6 0.0000 0.0000 0.0000 1.8936 0.0000 12.3472
#
#
#
# Elastic Compliance Matrix: (Units=1/GPa)
#
#
# Indices 1 2 3 4 5 6 
#
# 1 0.026713 -0.010134 0.002166 0.000000 0.010906 0.000000
# 2 -0.010134 0.019048 -0.006950 0.000000 -0.010625 0.000000
# 3 0.002166 -0.006950 0.012544 0.000000 0.008129 0.000000
# 4 0.000000 0.000000 0.000000 0.036909 0.000000 -0.005660
# 5 0.010906 -0.010625 0.008129 0.000000 0.043382 0.000000
# 6 0.000000 0.000000 0.000000 -0.005660 0.000000 0.081858
#
#
# Mechanical properties :
#
#
# Convention : Reuss Voigt Hill
#
# Bulk Modulus (GPa) = 35.12391 43.33021 39.22706
# Shear Modulus (GPa) = 19.24718 24.93490 22.09104
#
# Velocity S-wave (km/s) = 3.10784 3.53735 3.32953
# Velocity P-wave (km/s) = 5.52305 6.19902 5.87077
#
# Compressibility (1/GPa) = 0.02847063
#
# Stress axis : x y z
#
# Youngs Moduli (GPa) = 37.43471 52.49835 79.72124
#
# Poissons Ratio (x) = 0.53201 -0.17271
# Poissons Ratio (y) = 0.37936 0.55404
# Poissons Ratio (z) = -0.08110 0.36485
#
# Static dielectric constant tensor:
#      x y z
#    x 1.770920 0.000000 -0.052360 
#    y 0.000000 1.755940 0.000000 
#    z -0.052360 0.000000 1.764410 
# 
# From -- ./inp_files/103614.got.cif
#   From: 2010.05.17/outbox.cif.g08.bks.cpg/sg15_52_cif.got.tgz:103614.got - 2010.06.03 18:47:42.
