data_PCOD9283030
_publ_section_title
;
Structure prediction by ZEFSAII (Michael W. Deem and Ramdas Pophale) SiO2 
 PCOD9283030
Probable space group: C 2/C
;
_chemical_formula_sum "Si O2"
_cell_formula_units_Z 40
_cell_length_a 11.238879
_cell_length_b 16.025698
_cell_length_c 18.789057
_cell_angle_alpha 90.000000
_cell_angle_beta 146.848771
_cell_angle_gamma 90.000000
_cell_volume 1850.605094
_symmetry_space_group_name_H-M "C 2/C"
_symmetry_group_IT_number 15
_symmetry_cell_setting 'monoclinic'
loop_
_space_group_symop_operation_xyz
x,y,z
-x,y,1/2-z
-x,-y,-z
x,-y,1/2+z
1/2+x,1/2+y,z
1/2-x,1/2+y,1/2-z
1/2-x,1/2-y,-z
1/2+x,1/2-y,1/2+z
loop_
_atom_site_type_symbol
_atom_site_label
_atom_site_fract_x
_atom_site_fract_y
_atom_site_fract_z
Si Si1 0.753140 0.405786 0.618565
Si Si2 0.000000 0.024936 0.250000
Si Si3 0.520836 0.193703 0.682455
Si Si4 0.568811 0.628294 0.420877
Si Si5 0.000000 0.757512 0.250000
Si Si6 0.433613 0.604452 0.831548
O O1 0.598591 0.418264 0.609745
O O2 0.626351 0.423754 0.481593
O O3 0.000000 0.441977 0.750000
O O4 0.799674 0.306208 0.643016
O O5 0.901953 0.084818 0.141043
O O6 0.870112 0.962423 0.238155
O O7 0.500000 0.230730 0.750000
O O8 0.510232 0.275347 0.627351
O O9 0.310329 0.135812 0.571023
O O10 0.730850 0.137474 0.774901
O O11 0.004808 0.815577 0.321113
#
# Coordination Sequence:
#
# PCOD9283030 Si02
#       6
#     8   4   8   8   4   8
#     4  10  21  39  66  95 127 173 226 272 313 397
#     4  11  28  46  62  98 147 166 214 281 352 386
#     4  11  21  41  74  97 129 174 230 270 317 403
#     4  11  23  43  66 101 134 175 218 277 331 389
#     4   9  20  36  66  98 127 168 222 277 308 390
#     4  11  22  44  64  99 133 178 217 272 341 393
#
# _framework density 21.614550999999999
#
# number of rings (size 3 to 8) (size 9 to 14) (size 15 to 20)
#    0.600    0.800    5.000    0.600    0.000    1.600 
#   10.800    0.000    0.000    0.000    0.000    0.000 
#    0.000    0.000    0.000    0.000    0.000    0.000 
#
# Total GULP energy -111404.892027 kJ/mol
# GULP energy per Si atom -5570.244601 kJ/mol
# Density = 2.156536 g / cm^3
# Si number density = 21.614551 Si / 1000 Ang^3
#
#
#
# Elastic Constant Matrix: (Units=GPa)
#
#
# Indices 1 2 3 4 5 6 
#
# 1 129.2327 24.8693 59.0981 0.0000 -8.8449 -0.0001
# 2 24.8693 67.9085 23.2551 -0.0002 6.8874 -0.0001
# 3 59.0981 23.2551 102.7811 -0.0007 -1.0904 -0.0004
# 4 0.0000 -0.0002 -0.0007 -0.2353 -0.0001 -26.7416
# 5 -8.8449 6.8874 -1.0904 -0.0001 30.5338 -0.0004
# 6 -0.0001 -0.0001 -0.0004 -26.7416 -0.0004 26.4297
#
#
#
# Elastic Compliance Matrix: (Units=1/GPa)
#
#
# Indices 1 2 3 4 5 6 
#
# 1 0.011100 -0.002443 -0.005792 0.000000 0.003560 0.000000
# 2 -0.002443 0.016937 -0.002476 0.000000 -0.004616 0.000000
# 3 -0.005792 -0.002476 0.013613 -0.000001 -0.000633 0.000000
# 4 0.000000 0.000000 -0.000001 -0.036640 -0.000001 -0.037073
# 5 0.003560 -0.004616 -0.000633 -0.000001 0.034800 0.000000
# 6 0.000000 0.000000 0.000000 -0.037073 0.000000 0.000326
#
#
# Mechanical properties :
#
#
# Convention : Reuss Voigt Hill
#
# Bulk Modulus (GPa) = 49.43715 57.15191 53.29453
# Shear Modulus (GPa) = 73.20420 24.19230 48.69825
#
# Velocity S-wave (km/s) = 5.82594 3.34916 4.75176
# Velocity P-wave (km/s) = 8.25695 6.43853 7.40378
#
# Compressibility (1/GPa) = 0.02022770
#
# Stress axis : x y z
#
# Youngs Moduli (GPa) = 90.08646 59.04407 73.45654
#
# Poissons Ratio (x) = 0.14423 0.42548
# Poissons Ratio (y) = 0.22005 0.18191
# Poissons Ratio (z) = 0.52180 0.14622
#
# Static dielectric constant tensor:
#      x y z
#    x 1.875820 0.000000 -0.050460 
#    y 0.000000 1.816380 0.000000 
#    z -0.050460 0.000000 1.773860 
# 
# From -- ./inp_files/199758.got.cif
#   From: 2010.05.17/outbox.cif.g08.bks.cpg/sg15_100_cif.got.tgz:199758.got - 2010.06.03 18:47:42.
