data_PCOD9283977
_publ_section_title
;
Structure prediction by ZEFSAII (Michael W. Deem and Ramdas Pophale) SiO2 
 PCOD9283977
Probable space group: C 2/C
;
_chemical_formula_sum "Si O2"
_cell_formula_units_Z 56
_cell_length_a 28.493192
_cell_length_b 12.005763
_cell_length_c 9.446953
_cell_angle_alpha 90.000000
_cell_angle_beta 52.324733
_cell_angle_gamma 90.000000
_cell_volume 2557.800405
_symmetry_space_group_name_H-M "C 2/C"
_symmetry_group_IT_number 15
_symmetry_cell_setting 'monoclinic'
loop_
_space_group_symop_operation_xyz
x,y,z
-x,y,1/2-z
-x,-y,-z
x,-y,1/2+z
1/2+x,1/2+y,z
1/2-x,1/2+y,1/2-z
1/2-x,1/2-y,-z
1/2+x,1/2-y,1/2+z
loop_
_atom_site_type_symbol
_atom_site_label
_atom_site_fract_x
_atom_site_fract_y
_atom_site_fract_z
Si Si1 0.534855 0.077654 0.326620
Si Si2 0.801150 0.087555 0.774877
Si Si3 0.142371 0.433383 0.063823
Si Si4 0.522667 0.665805 0.927604
Si Si5 0.102152 0.209929 0.031211
Si Si6 0.095415 0.046020 0.294943
Si Si7 0.277205 0.991873 0.339831
O O1 0.500000 0.053391 0.250000
O O2 0.530461 0.209721 0.358816
O O3 0.500000 0.000000 0.500000
O O4 0.602125 0.036813 0.185671
O O5 0.842221 0.196352 0.679273
O O6 0.849453 0.988685 0.710031
O O7 0.764323 0.069698 0.698712
O O8 0.759618 0.076622 0.990589
O O9 0.189109 0.415699 0.105385
O O10 0.100743 0.328197 0.109555
O O11 0.175207 0.455451 0.855301
O O12 0.543968 0.677834 0.051254
O O13 0.566004 0.568770 0.792620
O O14 0.456923 0.616450 0.034439
O O15 0.114150 0.119864 0.129162
#
# Coordination Sequence:
#
# PCOD9283977 Si02
#       7
#     8   8   8   8   8   8   8
#     4  12  25  44  69 100 136 177 226 278 339 411
#     4  10  21  40  66  93 135 175 226 273 331 397
#     4  11  24  42  70  95 138 174 226 275 341 397
#     4  10  23  39  65 101 134 178 220 278 339 408
#     4  11  21  39  67  98 134 176 220 280 342 402
#     4  10  21  40  65  98 140 173 219 275 343 403
#     4  10  22  44  64  95 133 179 224 280 324 402
#
# _framework density 21.893810999999999
#
# number of rings (size 3 to 8) (size 9 to 14) (size 15 to 20)
#    0.000    1.429    1.429    3.857    0.000    4.571 
#    0.000    1.429    0.000    0.000    0.000    0.000 
#    0.000    0.000    0.000    0.000    0.000    0.000 
#
# Total GULP energy -156285.494408 kJ/mol
# GULP energy per Si atom -5581.624800 kJ/mol
# Density = 2.184398 g / cm^3
# Si number density = 21.893811 Si / 1000 Ang^3
#
#
#
# Elastic Constant Matrix: (Units=GPa)
#
#
# Indices 1 2 3 4 5 6 
#
# 1 88.2018 19.0641 6.1234 0.0000 9.3260 0.0000
# 2 19.0641 118.4743 39.9076 0.0000 -4.8159 0.0000
# 3 6.1234 39.9076 93.9120 0.0000 -4.9425 0.0000
# 4 0.0000 0.0000 0.0000 14.9220 0.0000 9.3831
# 5 9.3260 -4.8159 -4.9425 0.0000 37.5084 0.0000
# 6 0.0000 0.0000 0.0000 9.3831 0.0000 19.5652
#
#
#
# Elastic Compliance Matrix: (Units=1/GPa)
#
#
# Indices 1 2 3 4 5 6 
#
# 1 0.012137 -0.002056 -0.000091 0.000000 -0.003294 0.000000
# 2 -0.002056 0.010218 -0.004141 0.000000 0.001278 0.000000
# 3 -0.000091 -0.004141 0.012474 0.000000 0.001135 0.000000
# 4 0.000000 0.000000 0.000000 0.095951 0.000000 -0.046017
# 5 -0.003294 0.001278 0.001135 0.000000 0.027793 0.000000
# 6 0.000000 0.000000 0.000000 -0.046017 0.000000 0.073180
#
#
# Mechanical properties :
#
#
# Convention : Reuss Voigt Hill
#
# Bulk Modulus (GPa) = 44.93891 47.86424 46.40158
# Shear Modulus (GPa) = 19.86126 30.09863 24.97994
#
# Velocity S-wave (km/s) = 3.01518 3.71179 3.38147
# Velocity P-wave (km/s) = 5.71771 6.34660 6.04034
#
# Compressibility (1/GPa) = 0.02225243
#
# Stress axis : x y z
#
# Youngs Moduli (GPa) = 82.39519 97.86362 80.16944
#
# Poissons Ratio (x) = 0.20123 0.00729
# Poissons Ratio (y) = 0.16942 0.33198
# Poissons Ratio (z) = 0.00749 0.40525
#
# Static dielectric constant tensor:
#      x y z
#    x 1.835840 0.000000 -0.050840 
#    y 0.000000 2.003980 0.000000 
#    z -0.050840 0.000000 1.859770 
# 
# From -- ./inp_files/66151.got.cif
#   From: 2010.05.17/outbox.cif.g08.bks.cpg/sg15_34_cif.got.tgz:66151.got - 2010.06.03 18:47:42.
