data_PCOD9283351
_publ_section_title
;
Structure prediction by ZEFSAII (Michael W. Deem and Ramdas Pophale) SiO2 
 PCOD9283351
Probable space group: C 2/C
;
_chemical_formula_sum "Si O2"
_cell_formula_units_Z 60
_cell_length_a 23.233982
_cell_length_b 8.625802
_cell_length_c 13.924985
_cell_angle_alpha 90.000000
_cell_angle_beta 86.124892
_cell_angle_gamma 90.000000
_cell_volume 2784.349959
_symmetry_space_group_name_H-M "C 2/C"
_symmetry_group_IT_number 15
_symmetry_cell_setting 'monoclinic'
loop_
_space_group_symop_operation_xyz
x,y,z
-x,y,1/2-z
-x,-y,-z
x,-y,1/2+z
1/2+x,1/2+y,z
1/2-x,1/2+y,1/2-z
1/2-x,1/2-y,-z
1/2+x,1/2-y,1/2+z
loop_
_atom_site_type_symbol
_atom_site_label
_atom_site_fract_x
_atom_site_fract_y
_atom_site_fract_z
Si Si1 0.146011 0.391414 0.154087
Si Si2 0.000000 0.078125 0.250000
Si Si3 0.307637 0.827795 0.754080
Si Si4 0.172682 0.519027 0.444542
Si Si5 0.485195 0.841433 0.386105
Si Si6 0.816106 0.203802 0.162070
Si Si7 0.609009 0.573864 0.794752
Si Si8 0.048974 0.634900 0.403537
O O1 0.145022 0.558095 0.205757
O O2 0.081853 0.338604 0.135487
O O3 0.170960 0.282031 0.234785
O O4 0.181545 0.415467 0.050841
O O5 0.013887 0.194101 0.334793
O O6 0.940881 0.984989 0.271385
O O7 0.298628 0.879926 0.644255
O O8 0.249366 0.852262 0.819053
O O9 0.335025 0.658003 0.756459
O O10 0.183541 0.338777 0.418434
O O11 0.104652 0.542237 0.434861
O O12 0.489181 0.825238 0.499729
O O13 0.513188 0.004266 0.352029
O O14 0.862315 0.065499 0.147126
O O15 0.574699 0.709349 0.855321
#
# Coordination Sequence:
#
# PCOD9283351 Si02
#       8
#     8   4   8   8   8   8   8   8
#     4  10  21  40  63  84 117 166 215 245 307 397
#     4  12  24  34  62  92 128 158 202 266 312 376
#     4  10  23  40  62  88 125 167 209 262 318 374
#     4   9  20  40  62  87 114 167 211 244 312 388
#     4  10  21  40  60  88 118 173 207 241 316 389
#     4  11  21  42  62  89 127 159 212 269 315 363
#     4  11  23  38  58  97 125 159 202 270 320 350
#     4   9  21  39  63  85 124 162 209 254 303 386
#
# _framework density 21.549015000000001
#
# number of rings (size 3 to 8) (size 9 to 14) (size 15 to 20)
#    0.000    1.867    1.333    2.400    5.600    1.600 
#    2.400    1.333    0.000    0.000    0.000    0.000 
#    0.000    0.000    0.000    0.000    0.000    0.000 
#
# Total GULP energy -167254.204954 kJ/mol
# GULP energy per Si atom -5575.140165 kJ/mol
# Density = 2.149997 g / cm^3
# Si number density = 21.549015 Si / 1000 Ang^3
#
#
#
# Elastic Constant Matrix: (Units=GPa)
#
#
# Indices 1 2 3 4 5 6 
#
# 1 64.8232 26.5376 -1.4721 0.0000 -7.2357 0.0000
# 2 26.5376 84.6494 13.8309 0.0000 -8.3484 0.0000
# 3 -1.4721 13.8309 67.3265 0.0000 -9.6288 0.0000
# 4 0.0000 0.0000 0.0000 22.3524 0.0000 -6.3875
# 5 -7.2357 -8.3484 -9.6288 0.0000 24.7901 0.0000
# 6 0.0000 0.0000 0.0000 -6.3875 0.0000 34.4592
#
#
#
# Elastic Compliance Matrix: (Units=1/GPa)
#
#
# Indices 1 2 3 4 5 6 
#
# 1 0.018270 -0.005662 0.002173 0.000000 0.004270 0.000000
# 2 -0.005662 0.014243 -0.002753 0.000000 0.002075 0.000000
# 3 0.002173 -0.002753 0.016331 0.000000 0.006051 0.000000
# 4 0.000000 0.000000 0.000000 0.047240 0.000000 0.008757
# 5 0.004270 0.002075 0.006051 0.000000 0.044634 0.000000
# 6 0.000000 0.000000 0.000000 0.008757 0.000000 0.030643
#
#
# Mechanical properties :
#
#
# Convention : Reuss Voigt Hill
#
# Bulk Modulus (GPa) = 27.50145 32.73244 30.11695
# Shear Modulus (GPa) = 25.51473 28.18050 26.84761
#
# Velocity S-wave (km/s) = 3.44471 3.62019 3.53354
# Velocity P-wave (km/s) = 5.34896 5.71814 5.53663
#
# Compressibility (1/GPa) = 0.03636172
#
# Stress axis : x y z
#
# Youngs Moduli (GPa) = 54.73335 70.21091 61.23181
#
# Poissons Ratio (x) = 0.39751 -0.13307
# Poissons Ratio (y) = 0.30988 0.16857
# Poissons Ratio (z) = -0.11895 0.19329
#
# Static dielectric constant tensor:
#      x y z
#    x 1.768970 0.000000 -0.003730 
#    y 0.000000 1.806200 0.000000 
#    z -0.003730 0.000000 1.849870 
# 
# From -- ./inp_files/171866.got.cif
#   From: 2010.05.17/outbox.cif.g08.bks.cpg/sg15_86_cif.got.tgz:171866.got - 2010.06.03 18:47:42.
