data_PCOD9283145
_publ_section_title
;
Structure prediction by ZEFSAII (Michael W. Deem and Ramdas Pophale) SiO2 
 PCOD9283145
Probable space group: C 2/C
;
_chemical_formula_sum "Si O2"
_cell_formula_units_Z 32
_cell_length_a 29.376084
_cell_length_b 5.500173
_cell_length_c 13.965799
_cell_angle_alpha 90.000000
_cell_angle_beta 141.351774
_cell_angle_gamma 90.000000
_cell_volume 1409.270428
_symmetry_space_group_name_H-M "C 2/C"
_symmetry_group_IT_number 15
_symmetry_cell_setting 'monoclinic'
loop_
_space_group_symop_operation_xyz
x,y,z
-x,y,1/2-z
-x,-y,-z
x,-y,1/2+z
1/2+x,1/2+y,z
1/2-x,1/2+y,1/2-z
1/2-x,1/2-y,-z
1/2+x,1/2-y,1/2+z
loop_
_atom_site_type_symbol
_atom_site_label
_atom_site_fract_x
_atom_site_fract_y
_atom_site_fract_z
Si Si1 0.742369 0.977168 0.363050
Si Si2 0.841893 0.386968 0.610125
Si Si3 0.865992 0.358384 0.974841
Si Si4 0.043045 0.754987 0.051447
O O1 0.808722 0.821684 0.431570
O O2 0.779119 0.234308 0.453227
O O3 0.696095 0.915220 0.382520
O O4 0.683380 0.992130 0.181632
O O5 0.892521 0.486804 0.608720
O O6 0.889217 0.237459 0.763343
O O7 0.927078 0.244723 0.008074
O O8 0.000000 0.500000 0.000000
O O9 0.000000 0.000000 0.000000
#
# Coordination Sequence:
#
# PCOD9283145 Si02
#       4
#     8   8   8   8
#     4  10  21  39  68 105 132 166 229 289 368 414
#     4  10  23  42  68 101 134 180 223 295 353 412
#     4  11  22  41  73  99 140 178 228 295 356 419
#     4  11  29  50  67  99 144 192 245 281 328 422
#
# _framework density 22.706783000000001
#
# number of rings (size 3 to 8) (size 9 to 14) (size 15 to 20)
#    0.000    1.500    2.500    0.750    7.000    1.000 
#    0.000    0.000    0.000    0.000    0.000    0.000 
#    0.000    0.000    0.000    0.000    0.000    0.000 
#
# Total GULP energy -89276.945575 kJ/mol
# GULP energy per Si atom -5579.809098 kJ/mol
# Density = 2.265510 g / cm^3
# Si number density = 22.706783 Si / 1000 Ang^3
#
#
#
# Elastic Constant Matrix: (Units=GPa)
#
#
# Indices 1 2 3 4 5 6 
#
# 1 212.1729 41.2119 34.9398 -0.0003 -32.9372 0.0000
# 2 41.2119 47.8810 16.5448 -0.0006 -1.3692 0.0000
# 3 34.9398 16.5448 61.5621 -0.0001 -11.5752 0.0000
# 4 -0.0003 -0.0006 -0.0001 34.8499 0.0000 14.0573
# 5 -32.9372 -1.3692 -11.5752 0.0000 44.2477 0.0000
# 6 0.0000 0.0000 0.0000 14.0573 0.0000 40.5661
#
#
#
# Elastic Compliance Matrix: (Units=1/GPa)
#
#
# Indices 1 2 3 4 5 6 
#
# 1 0.006630 -0.005032 -0.001590 0.000000 0.004363 0.000000
# 2 -0.005032 0.026881 -0.005170 0.000000 -0.004267 0.000000
# 3 -0.001590 -0.005170 0.019229 0.000000 0.003687 0.000000
# 4 0.000000 0.000000 0.000000 0.033357 0.000000 -0.011559
# 5 0.004363 -0.004267 0.003687 0.000000 0.026681 0.000000
# 6 0.000000 0.000000 0.000000 -0.011559 0.000000 0.028657
#
#
# Mechanical properties :
#
#
# Convention : Reuss Voigt Hill
#
# Bulk Modulus (GPa) = 34.29999 56.33432 45.31715
# Shear Modulus (GPa) = 28.61439 39.19406 33.90422
#
# Velocity S-wave (km/s) = 3.55374 4.15914 3.86830
# Velocity P-wave (km/s) = 5.65483 6.92300 6.32080
#
# Compressibility (1/GPa) = 0.02915453
#
# Stress axis : x y z
#
# Youngs Moduli (GPa) = 150.83506 37.20102 52.00502
#
# Poissons Ratio (x) = 0.18720 0.08268
# Poissons Ratio (y) = 0.75903 0.26889
# Poissons Ratio (z) = 0.23981 0.19235
#
# Static dielectric constant tensor:
#      x y z
#    x 1.895320 0.000000 0.046430 
#    y 0.000000 1.974080 0.000000 
#    z 0.046430 0.000000 1.851070 
# 
# From -- ./inp_files/115452.got.cif
#   From: 2010.05.17/outbox.cif.g08.bks.cpg/sg15_58_cif.got.tgz:115452.got - 2010.06.03 18:47:42.
