data_PCOD9283156
_publ_section_title
;
Structure prediction by ZEFSAII (Michael W. Deem and Ramdas Pophale) SiO2 
 PCOD9283156
Probable space group: C 2/C
;
_chemical_formula_sum "Si O2"
_cell_formula_units_Z 44
_cell_length_a 21.480725
_cell_length_b 18.507190
_cell_length_c 18.069039
_cell_angle_alpha 90.000000
_cell_angle_beta 163.199223
_cell_angle_gamma 90.000000
_cell_volume 2076.297608
_symmetry_space_group_name_H-M "C 2/C"
_symmetry_group_IT_number 15
_symmetry_cell_setting 'monoclinic'
loop_
_space_group_symop_operation_xyz
x,y,z
-x,y,1/2-z
-x,-y,-z
x,-y,1/2+z
1/2+x,1/2+y,z
1/2-x,1/2+y,1/2-z
1/2-x,1/2-y,-z
1/2+x,1/2-y,1/2+z
loop_
_atom_site_type_symbol
_atom_site_label
_atom_site_fract_x
_atom_site_fract_y
_atom_site_fract_z
Si Si1 0.317533 0.051341 0.824871
Si Si2 0.469527 0.558376 0.876569
Si Si3 0.622335 0.891480 0.313417
Si Si4 0.819306 0.813608 0.410946
Si Si5 0.720747 0.349769 0.779728
Si Si6 0.000000 0.010503 0.750000
O O1 0.329148 0.132573 0.807030
O O2 0.265490 0.055889 0.852903
O O3 0.098958 0.015008 0.543839
O O4 0.500000 0.000000 0.000000
O O5 0.597812 0.620426 0.067808
O O6 0.478069 0.558896 0.798425
O O7 0.500000 0.873502 0.250000
O O8 0.754579 0.828018 0.422075
O O9 0.788491 0.958162 0.506603
O O10 0.414285 0.901616 0.023761
O O11 0.804713 0.731890 0.367101
O O12 0.056469 0.841607 0.661383
#
# Coordination Sequence:
#
# PCOD9283156 Si02
#       6
#     8   8   8   8   8   4
#     4  10  21  39  68  93 123 177 225 275 324 392
#     4  10  24  40  67  97 133 170 231 275 333 400
#     4  12  26  41  64  93 142 178 220 271 342 404
#     4  11  22  42  64  98 131 174 231 268 335 402
#     4  11  24  44  66  95 132 184 223 275 329 413
#     4  12  26  44  64 106 138 174 222 290 338 402
#
# _framework density 21.191566999999999
#
# number of rings (size 3 to 8) (size 9 to 14) (size 15 to 20)
#    0.000    1.091    3.636    2.182    7.636    0.727 
#    1.636    0.000    0.000    4.364    0.000    0.000 
#    0.000    0.000    0.000    1.455    0.000    0.000 
#
# Total GULP energy -122768.652681 kJ/mol
# GULP energy per Si atom -5580.393304 kJ/mol
# Density = 2.114333 g / cm^3
# Si number density = 21.191567 Si / 1000 Ang^3
#
#
#
# Elastic Constant Matrix: (Units=GPa)
#
#
# Indices 1 2 3 4 5 6 
#
# 1 204.8172 44.4494 53.2670 0.0102 2.5276 0.0198
# 2 44.4494 82.6693 37.4671 -0.0495 3.8445 -0.0109
# 3 53.2670 37.4671 105.2593 -0.0733 18.5047 -0.0633
# 4 0.0102 -0.0495 -0.0733 28.7435 -0.0199 0.6442
# 5 2.5276 3.8445 18.5047 -0.0199 24.4518 -0.0088
# 6 0.0198 -0.0109 -0.0633 0.6442 -0.0088 27.3520
#
#
#
# Elastic Compliance Matrix: (Units=1/GPa)
#
#
# Indices 1 2 3 4 5 6 
#
# 1 0.005992 -0.002137 -0.002563 -0.000011 0.001656 -0.000010
# 2 -0.002137 0.015260 -0.004576 0.000016 0.001285 -0.000003
# 3 -0.002563 -0.004576 0.014133 0.000022 -0.009712 0.000029
# 4 -0.000011 0.000016 0.000022 0.034809 0.000010 -0.000820
# 5 0.001656 0.001285 -0.009712 0.000010 0.047873 -0.000008
# 6 -0.000010 -0.000003 0.000029 -0.000820 -0.000008 0.036580
#
#
# Mechanical properties :
#
#
# Convention : Reuss Voigt Hill
#
# Bulk Modulus (GPa) = 59.40631 73.67921 66.54276
# Shear Modulus (GPa) = 27.96251 33.28027 30.62139
#
# Velocity S-wave (km/s) = 3.63645 3.96719 3.80541
# Velocity P-wave (km/s) = 6.76207 7.47184 7.12580
#
# Compressibility (1/GPa) = 0.01683323
#
# Stress axis : x y z
#
# Youngs Moduli (GPa) = 166.87958 65.53162 70.75442
#
# Poissons Ratio (x) = 0.14007 0.18133
# Poissons Ratio (y) = 0.35670 0.32377
# Poissons Ratio (z) = 0.42767 0.29987
#
# Static dielectric constant tensor:
#      x y z
#    x 1.888690 0.000040 0.052890 
#    y 0.000040 1.796850 0.000020 
#    z 0.052890 0.000020 1.897680 
# 
# From -- ./inp_files/216199.got.cif
#   From: 2010.05.17/outbox.cif.g08.bks.cpg/sg15_109_cif.got.tgz:216199.got - 2010.06.03 18:47:42.
