data_PCOD9283363
_publ_section_title
;
Structure prediction by ZEFSAII (Michael W. Deem and Ramdas Pophale) SiO2 
 PCOD9283363
Probable space group: C 2/C
;
_chemical_formula_sum "Si O2"
_cell_formula_units_Z 48
_cell_length_a 15.875149
_cell_length_b 25.451651
_cell_length_c 11.694289
_cell_angle_alpha 90.000000
_cell_angle_beta 27.327414
_cell_angle_gamma 90.000000
_cell_volume 2169.156698
_symmetry_space_group_name_H-M "C 2/C"
_symmetry_group_IT_number 15
_symmetry_cell_setting 'monoclinic'
loop_
_space_group_symop_operation_xyz
x,y,z
-x,y,1/2-z
-x,-y,-z
x,-y,1/2+z
1/2+x,1/2+y,z
1/2-x,1/2+y,1/2-z
1/2-x,1/2-y,-z
1/2+x,1/2-y,1/2+z
loop_
_atom_site_type_symbol
_atom_site_label
_atom_site_fract_x
_atom_site_fract_y
_atom_site_fract_z
Si Si1 0.438022 0.574182 0.485640
Si Si2 0.869008 0.185839 0.580031
Si Si3 0.303323 0.966084 0.435684
Si Si4 0.091015 0.713534 0.745128
Si Si5 0.320478 0.424409 0.395929
Si Si6 0.785438 0.310766 0.988301
O O1 0.486016 0.635791 0.403296
O O2 0.281393 0.556210 0.582747
O O3 0.364513 0.572943 0.705484
O O4 0.630010 0.544564 0.230888
O O5 0.679323 0.181336 0.739543
O O6 0.831734 0.183389 0.756737
O O7 0.951216 0.242980 0.459252
O O8 0.500000 0.947055 0.250000
O O9 0.319583 0.029224 0.405371
O O10 0.250000 0.750000 0.500000
O O11 0.000000 0.683206 0.750000
O O12 0.500000 0.439249 0.250000
O O13 0.265740 0.366201 0.509261
O O14 0.750000 0.250000 0.000000
O O15 0.000000 0.314336 0.750000
#
# Coordination Sequence:
#
# PCOD9283363 Si02
#       6
#     8   8   8   8   8   8
#     4  10  24  44  67  98 140 172 226 280 335 403
#     4  10  21  40  60  90 129 172 211 275 328 392
#     4  11  24  43  70  98 135 175 226 278 339 407
#     4   9  19  33  57  84 121 164 209 259 325 390
#     4  11  23  45  70  97 134 180 217 283 342 393
#     4  11  23  41  66  94 130 168 224 274 332 404
#
# _framework density 22.128415
#
# number of rings (size 3 to 8) (size 9 to 14) (size 15 to 20)
#    0.000    1.667    1.667    2.500    7.000    2.667 
#    9.000    0.000    0.000    0.000    0.000    0.000 
#    0.000    0.000    0.000    0.000    0.000    0.000 
#
# Total GULP energy -133609.595559 kJ/mol
# GULP energy per Si atom -5567.066482 kJ/mol
# Density = 2.207805 g / cm^3
# Si number density = 22.128415 Si / 1000 Ang^3
#
#
#
# Elastic Constant Matrix: (Units=GPa)
#
#
# Indices 1 2 3 4 5 6 
#
# 1 71.2649 24.0618 10.5144 -0.0063 -16.2728 -0.0002
# 2 24.0618 132.9841 12.5959 0.0023 -4.5338 0.0009
# 3 10.5144 12.5959 42.5184 -0.0030 -21.2616 0.0019
# 4 -0.0063 0.0023 -0.0030 25.8060 0.0025 -6.8715
# 5 -16.2728 -4.5338 -21.2616 0.0025 41.3298 -0.0026
# 6 -0.0002 0.0009 0.0019 -6.8715 -0.0026 41.9739
#
#
#
# Elastic Compliance Matrix: (Units=1/GPa)
#
#
# Indices 1 2 3 4 5 6 
#
# 1 0.016365 -0.002734 -0.000222 0.000004 0.006029 0.000001
# 2 -0.002734 0.008200 -0.002479 -0.000002 -0.001453 0.000000
# 3 -0.000222 -0.002479 0.032486 0.000002 0.016353 0.000000
# 4 0.000004 -0.000002 0.000002 0.040517 0.000001 0.006633
# 5 0.006029 -0.001453 0.016353 0.000001 0.034823 0.000002
# 6 0.000001 0.000000 0.000000 0.006633 0.000002 0.024910
#
#
# Mechanical properties :
#
#
# Convention : Reuss Voigt Hill
#
# Bulk Modulus (GPa) = 21.65477 37.90130 29.77803
# Shear Modulus (GPa) = 27.23841 35.12830 31.18336
#
# Velocity S-wave (km/s) = 3.51226 3.98864 3.75800
# Velocity P-wave (km/s) = 5.12398 6.19495 5.68474
#
# Compressibility (1/GPa) = 0.04617920
#
# Stress axis : x y z
#
# Youngs Moduli (GPa) = 61.10643 121.95458 30.78271
#
# Poissons Ratio (x) = 0.33348 0.00683
# Poissons Ratio (y) = 0.16709 0.07632
# Poissons Ratio (z) = 0.01355 0.30237
#
# Static dielectric constant tensor:
#      x y z
#    x 1.892310 0.000000 -0.022010 
#    y 0.000000 1.999180 0.000000 
#    z -0.022010 0.000000 1.818840 
# 
# From -- ./inp_files/101241.got.cif
#   From: 2010.05.17/outbox.cif.g08.bks.cpg/sg15_51_cif.got.tgz:101241.got - 2010.06.03 18:47:42.
