data_PCOD9283371
_publ_section_title
;
Structure prediction by ZEFSAII (Michael W. Deem and Ramdas Pophale) SiO2 
 PCOD9283371
Probable space group: C 2/C
;
_chemical_formula_sum "Si O2"
_cell_formula_units_Z 52
_cell_length_a 13.145663
_cell_length_b 28.043683
_cell_length_c 12.012143
_cell_angle_alpha 90.000000
_cell_angle_beta 32.870527
_cell_angle_gamma 90.000000
_cell_volume 2403.432059
_symmetry_space_group_name_H-M "C 2/C"
_symmetry_group_IT_number 15
_symmetry_cell_setting 'monoclinic'
loop_
_space_group_symop_operation_xyz
x,y,z
-x,y,1/2-z
-x,-y,-z
x,-y,1/2+z
1/2+x,1/2+y,z
1/2-x,1/2+y,1/2-z
1/2-x,1/2-y,-z
1/2+x,1/2-y,1/2+z
loop_
_atom_site_type_symbol
_atom_site_label
_atom_site_fract_x
_atom_site_fract_y
_atom_site_fract_z
Si Si1 0.120523 0.839482 0.902036
Si Si2 0.781803 0.468229 0.485495
Si Si3 0.500000 0.352668 0.250000
Si Si4 0.917856 0.584161 0.065706
Si Si5 0.251599 0.622371 0.615287
Si Si6 0.790336 0.800574 0.906982
Si Si7 0.679905 0.070845 0.012852
O O1 0.270597 0.882624 0.766170
O O2 0.211404 0.803753 0.725622
O O3 0.073827 0.825079 0.072062
O O4 0.924229 0.857034 0.028038
O O5 0.690282 0.428912 0.489917
O O6 0.723036 0.522933 0.530529
O O7 0.000000 0.468781 0.250000
O O8 0.791787 0.447900 0.600799
O O9 0.330648 0.387386 0.365635
O O10 0.065564 0.615786 0.859526
O O11 0.067261 0.556310 0.004520
O O12 0.199758 0.656488 0.559330
O O13 0.000000 0.810244 0.750000
O O14 0.750000 0.750000 0.000000
O O15 0.500000 0.086444 0.250000
#
# Coordination Sequence:
#
# PCOD9283371 Si02
#       7
#     8   8   4   8   8   8   8
#     4  11  23  39  64  90 124 171 205 253 313 380
#     4   9  20  35  57  85 125 164 215 271 314 358
#     4  12  24  42  58  84 128 176 218 250 294 374
#     4  11  20  36  62  82 123 168 212 260 315 362
#     4  10  21  40  60  93 126 158 205 261 328 373
#     4  10  23  40  67 100 126 148 196 260 324 389
#     4  11  22  38  55  85 120 176 229 257 293 358
#
# _framework density 21.635726999999999
#
# number of rings (size 3 to 8) (size 9 to 14) (size 15 to 20)
#    0.000    1.538    4.615    0.462    2.154    1.231 
#    0.000    1.538    0.000    3.692    2.000    0.000 
#    0.000    0.000    0.000    0.000    0.000    0.000 
#
# Total GULP energy -144846.716836 kJ/mol
# GULP energy per Si atom -5571.027571 kJ/mol
# Density = 2.158648 g / cm^3
# Si number density = 21.635727 Si / 1000 Ang^3
#
#
#
# Elastic Constant Matrix: (Units=GPa)
#
#
# Indices 1 2 3 4 5 6 
#
# 1 83.2861 6.0656 25.7693 0.0000 13.6138 0.0000
# 2 6.0656 47.7904 21.0656 0.0000 14.5450 0.0000
# 3 25.7693 21.0656 108.7886 0.0000 14.4075 0.0000
# 4 0.0000 0.0000 0.0000 12.8102 0.0000 4.1020
# 5 13.6138 14.5450 14.4075 0.0000 49.5667 0.0000
# 6 0.0000 0.0000 0.0000 4.1020 0.0000 16.4706
#
#
#
# Elastic Compliance Matrix: (Units=1/GPa)
#
#
# Indices 1 2 3 4 5 6 
#
# 1 0.013343 0.000471 -0.002858 0.000000 -0.002972 0.000000
# 2 0.000471 0.024519 -0.004045 0.000000 -0.006149 0.000000
# 3 -0.002858 -0.004045 0.010807 0.000000 -0.001169 0.000000
# 4 0.000000 0.000000 0.000000 0.084827 0.000000 -0.021126
# 5 -0.002972 -0.006149 -0.001169 0.000000 0.023135 0.000000
# 6 0.000000 0.000000 0.000000 -0.021126 0.000000 0.065976
#
#
# Mechanical properties :
#
#
# Convention : Reuss Voigt Hill
#
# Bulk Modulus (GPa) = 27.92934 38.40731 33.16833
# Shear Modulus (GPa) = 20.20960 28.23381 24.22170
#
# Velocity S-wave (km/s) = 3.05960 3.61635 3.34956
# Velocity P-wave (km/s) = 5.04167 5.93529 5.50663
#
# Compressibility (1/GPa) = 0.03580464
#
# Stress axis : x y z
#
# Youngs Moduli (GPa) = 74.94766 40.78420 92.52999
#
# Poissons Ratio (x) = -0.01921 0.26446
# Poissons Ratio (y) = -0.03529 0.37429
# Poissons Ratio (z) = 0.21421 0.16498
#
# Static dielectric constant tensor:
#      x y z
#    x 1.885200 0.000000 0.063140 
#    y 0.000000 1.790490 0.000000 
#    z 0.063140 0.000000 1.850640 
# 
# From -- ./inp_files/44350.got.cif
#   From: 2010.05.17/outbox.cif.g08.bks.cpg/sg15_23_cif.got.tgz:44350.got - 2010.06.03 18:47:42.
