data_PCOD9283466
_publ_section_title
;
Structure prediction by ZEFSAII (Michael W. Deem and Ramdas Pophale) SiO2 
 PCOD9283466
Probable space group: C 2/C
;
_chemical_formula_sum "Si O2"
_cell_formula_units_Z 60
_cell_length_a 24.524318
_cell_length_b 11.821106
_cell_length_c 9.427075
_cell_angle_alpha 90.000000
_cell_angle_beta 57.412849
_cell_angle_gamma 90.000000
_cell_volume 2302.712156
_symmetry_space_group_name_H-M "C 2/C"
_symmetry_group_IT_number 15
_symmetry_cell_setting 'monoclinic'
loop_
_space_group_symop_operation_xyz
x,y,z
-x,y,1/2-z
-x,-y,-z
x,-y,1/2+z
1/2+x,1/2+y,z
1/2-x,1/2+y,1/2-z
1/2-x,1/2-y,-z
1/2+x,1/2-y,1/2+z
loop_
_atom_site_type_symbol
_atom_site_label
_atom_site_fract_x
_atom_site_fract_y
_atom_site_fract_z
Si Si1 0.768623 0.850486 0.264657
Si Si2 0.500000 0.995896 0.750000
Si Si3 0.636047 0.219414 0.955929
Si Si4 0.866670 0.448125 0.529166
Si Si5 0.581575 0.379827 0.496573
Si Si6 0.429462 0.184494 0.168696
Si Si7 0.398333 0.603778 0.210113
Si Si8 0.753175 0.037125 0.492836
O O1 0.713088 0.756284 0.336892
O O2 0.843977 0.834125 0.129263
O O3 0.750098 0.939317 0.163777
O O4 0.758694 0.909027 0.430626
O O5 0.519309 0.908365 0.848761
O O6 0.562626 0.072093 0.637368
O O7 0.599822 0.282735 0.882645
O O8 0.602318 0.247671 0.152012
O O9 0.631826 0.083700 0.956505
O O10 0.872727 0.388291 0.671870
O O11 0.808877 0.413994 0.504958
O O12 0.543147 0.280989 0.471883
O O13 0.578518 0.498305 0.417868
O O14 0.570849 0.394525 0.677912
O O15 0.321545 0.586671 0.347152
#
# Coordination Sequence:
#
# PCOD9283466 Si02
#       8
#     8   4   8   8   8   8   8   8
#     4   9  20  34  53  91 125 175 207 259 305 394
#     4  10  24  44  64  94 128 164 226 286 320 370
#     4  10  23  35  59  91 134 171 208 260 317 388
#     4  10  23  40  65  94 128 173 214 270 322 381
#     4  10  22  39  64  87 128 170 217 260 321 381
#     4  11  24  42  63  92 123 171 217 277 326 380
#     4  10  21  40  61  97 134 175 206 259 313 396
#     4   9  20  34  58  87 136 165 215 249 313 389
#
# _framework density 26.056231
#
# number of rings (size 3 to 8) (size 9 to 14) (size 15 to 20)
#    0.000    2.133    0.000    1.200   14.933    2.667 
#    0.000    0.000    0.000    7.200    0.000    3.733 
#    0.000    0.000    0.000    0.000    0.000    0.000 
#
# Total GULP energy -167896.365987 kJ/mol
# GULP energy per Si atom -5596.545533 kJ/mol
# Density = 2.599693 g / cm^3
# Si number density = 26.056231 Si / 1000 Ang^3
#
#
#
# Elastic Constant Matrix: (Units=GPa)
#
#
# Indices 1 2 3 4 5 6 
#
# 1 157.2349 15.8495 36.1703 0.0000 -3.4554 0.0000
# 2 15.8495 62.0256 55.4976 0.0000 27.4653 0.0000
# 3 36.1703 55.4976 133.4424 0.0000 41.2215 0.0000
# 4 0.0000 0.0000 0.0000 28.5146 0.0000 15.4649
# 5 -3.4554 27.4653 41.2215 0.0000 38.0660 0.0000
# 6 0.0000 0.0000 0.0000 15.4649 0.0000 19.2668
#
#
#
# Elastic Compliance Matrix: (Units=1/GPa)
#
#
# Indices 1 2 3 4 5 6 
#
# 1 0.007264 -0.001415 -0.002854 0.000000 0.004771 0.000000
# 2 -0.001415 0.029062 -0.007793 0.000000 -0.012658 0.000000
# 3 -0.002854 -0.007793 0.014804 0.000000 -0.010667 0.000000
# 4 0.000000 0.000000 0.000000 0.062107 0.000000 -0.049852
# 5 0.004771 -0.012658 -0.010667 0.000000 0.047388 0.000000
# 6 0.000000 0.000000 0.000000 -0.049852 0.000000 0.091918
#
#
# Mechanical properties :
#
#
# Convention : Reuss Voigt Hill
#
# Bulk Modulus (GPa) = 37.02981 63.08199 50.05590
# Shear Modulus (GPa) = 17.50284 33.51518 25.50901
#
# Velocity S-wave (km/s) = 2.59459 3.59034 3.13229
# Velocity P-wave (km/s) = 4.81853 6.43816 5.68631
#
# Compressibility (1/GPa) = 0.02700527
#
# Stress axis : x y z
#
# Youngs Moduli (GPa) = 137.66479 34.40960 67.55040
#
# Poissons Ratio (x) = 0.04869 0.19281
# Poissons Ratio (y) = 0.19480 0.52640
# Poissons Ratio (z) = 0.39295 0.26814
#
# Static dielectric constant tensor:
#      x y z
#    x 2.132830 0.000000 -0.064940 
#    y 0.000000 2.017610 0.000000 
#    z -0.064940 0.000000 2.053950 
# 
# From -- ./inp_files/69344.got.cif
#   From: 2010.05.17/outbox.cif.g08.bks.cpg/sg15_35_cif.got.tgz:69344.got - 2010.06.03 18:47:42.
