data_PCOD9283503
_publ_section_title
;
Structure prediction by ZEFSAII (Michael W. Deem and Ramdas Pophale) SiO2 
 PCOD9283503
Probable space group: C 2/C
;
_chemical_formula_sum "Si O2"
_cell_formula_units_Z 52
_cell_length_a 18.961651
_cell_length_b 15.389452
_cell_length_c 8.565308
_cell_angle_alpha 90.000000
_cell_angle_beta 68.317679
_cell_angle_gamma 90.000000
_cell_volume 2322.593875
_symmetry_space_group_name_H-M "C 2/C"
_symmetry_group_IT_number 15
_symmetry_cell_setting 'monoclinic'
loop_
_space_group_symop_operation_xyz
x,y,z
-x,y,1/2-z
-x,-y,-z
x,-y,1/2+z
1/2+x,1/2+y,z
1/2-x,1/2+y,1/2-z
1/2-x,1/2-y,-z
1/2+x,1/2-y,1/2+z
loop_
_atom_site_type_symbol
_atom_site_label
_atom_site_fract_x
_atom_site_fract_y
_atom_site_fract_z
Si Si1 0.406261 0.985753 0.189560
Si Si2 0.160528 0.776667 0.410197
Si Si3 0.000000 0.643233 0.250000
Si Si4 0.307457 0.660129 0.287954
Si Si5 0.802957 0.164811 0.947942
Si Si6 0.205190 0.508281 0.480811
Si Si7 0.012408 0.321567 0.067896
O O1 0.373401 0.000242 0.046603
O O2 0.472259 0.915087 0.126156
O O3 0.436324 0.075884 0.237421
O O4 0.329077 0.950655 0.333759
O O5 0.245272 0.737632 0.337640
O O6 0.150220 0.828912 0.580858
O O7 0.150823 0.825958 0.252425
O O8 0.100880 0.698066 0.469108
O O9 0.978553 0.698559 0.421510
O O10 0.260849 0.571504 0.345370
O O11 0.343465 0.659539 0.085229
O O12 0.747611 0.081546 0.978670
O O13 0.750000 0.250000 0.000000
O O14 0.000000 0.278973 0.250000
#
# Coordination Sequence:
#
# PCOD9283503 Si02
#       7
#     8   8   4   8   8   8   8
#     4  12  22  36  58  93 136 174 209 267 323 419
#     4  10  23  41  58  89 131 175 226 268 330 405
#     4  12  24  38  54  90 134 182 220 244 330 402
#     4  10  21  40  62  89 122 175 225 281 328 390
#     4  10  23  40  61  89 131 177 221 279 338 395
#     4  12  22  39  67  97 133 173 229 273 339 411
#     4  12  25  39  59  89 135 177 219 265 328 404
#
# _framework density 22.388762
#
# number of rings (size 3 to 8) (size 9 to 14) (size 15 to 20)
#    0.000    0.923    3.846    4.154    2.154    3.692 
#    0.000    0.000    0.000    0.000    0.000    1.077 
#    0.000    0.000    0.000    0.000    0.000    0.000 
#
# Total GULP energy -144778.322982 kJ/mol
# GULP energy per Si atom -5568.397038 kJ/mol
# Density = 2.233780 g / cm^3
# Si number density = 22.388762 Si / 1000 Ang^3
#
#
#
# Elastic Constant Matrix: (Units=GPa)
#
#
# Indices 1 2 3 4 5 6 
#
# 1 46.6876 30.5218 45.2872 0.0000 9.4261 0.0000
# 2 30.5218 60.0722 43.8391 0.0000 6.9947 0.0000
# 3 45.2872 43.8391 198.6539 0.0000 36.1938 0.0000
# 4 0.0000 0.0000 0.0000 20.8331 0.0000 -2.5027
# 5 9.4261 6.9947 36.1938 0.0000 38.1719 0.0000
# 6 0.0000 0.0000 0.0000 -2.5027 0.0000 27.1993
#
#
#
# Elastic Compliance Matrix: (Units=1/GPa)
#
#
# Indices 1 2 3 4 5 6 
#
# 1 0.035813 -0.014622 -0.004611 0.000000 -0.001792 0.000000
# 2 -0.014622 0.025825 -0.002613 0.000000 0.001356 0.000000
# 3 -0.004611 -0.002613 0.007696 0.000000 -0.005680 0.000000
# 4 0.000000 0.000000 0.000000 0.048537 0.000000 0.004466
# 5 -0.001792 0.001356 -0.005680 0.000000 0.031777 0.000000
# 6 0.000000 0.000000 0.000000 0.004466 0.000000 0.037177
#
#
# Mechanical properties :
#
#
# Convention : Reuss Voigt Hill
#
# Bulk Modulus (GPa) = 38.99793 60.52330 49.76062
# Shear Modulus (GPa) = 20.91495 29.62526 25.27011
#
# Velocity S-wave (km/s) = 3.05974 3.64156 3.36325
# Velocity P-wave (km/s) = 5.47166 6.69125 6.11195
#
# Compressibility (1/GPa) = 0.02564239
#
# Stress axis : x y z
#
# Youngs Moduli (GPa) = 27.92319 38.72260 129.92958
#
# Poissons Ratio (x) = 0.56621 0.59908
# Poissons Ratio (y) = 0.40830 0.33945
# Poissons Ratio (z) = 0.12875 0.10117
#
# Static dielectric constant tensor:
#      x y z
#    x 1.827040 0.000000 0.067960 
#    y 0.000000 1.823050 0.000000 
#    z 0.067960 0.000000 1.998920 
# 
# From -- ./inp_files/48438.got.cif
#   From: 2010.05.17/outbox.cif.g08.bks.cpg/sg15_25_cif.got.tgz:48438.got - 2010.06.03 18:47:42.
