data_PCOD9283876
_publ_section_title
;
Structure prediction by ZEFSAII (Michael W. Deem and Ramdas Pophale) SiO2 
 PCOD9283876
Probable space group: C 2/C
;
_chemical_formula_sum "Si O2"
_cell_formula_units_Z 48
_cell_length_a 9.143293
_cell_length_b 21.769684
_cell_length_c 12.445698
_cell_angle_alpha 90.000000
_cell_angle_beta 100.547750
_cell_angle_gamma 90.000000
_cell_volume 2435.414604
_symmetry_space_group_name_H-M "C 2/C"
_symmetry_group_IT_number 15
_symmetry_cell_setting 'monoclinic'
loop_
_space_group_symop_operation_xyz
x,y,z
-x,y,1/2-z
-x,-y,-z
x,-y,1/2+z
1/2+x,1/2+y,z
1/2-x,1/2+y,1/2-z
1/2-x,1/2-y,-z
1/2+x,1/2-y,1/2+z
loop_
_atom_site_type_symbol
_atom_site_label
_atom_site_fract_x
_atom_site_fract_y
_atom_site_fract_z
Si Si1 0.125780 0.705354 0.109222
Si Si2 0.000000 0.394403 0.750000
Si Si3 0.000000 0.798226 0.250000
Si Si4 0.623747 0.805415 0.361826
Si Si5 0.362273 0.029649 0.044403
Si Si6 0.823234 0.071269 0.867995
Si Si7 0.160628 0.908279 0.360914
O O1 0.103217 0.647637 0.185655
O O2 0.285738 0.740438 0.134239
O O3 0.024868 0.756701 0.151001
O O4 0.074828 0.693104 0.980610
O O5 0.908797 0.438040 0.659734
O O6 0.865497 0.842144 0.196336
O O7 0.500000 0.809651 0.250000
O O8 0.732736 0.865096 0.371702
O O9 0.242791 0.977245 0.057956
O O10 0.289933 0.081436 0.960372
O O11 0.500000 0.000000 0.000000
O O12 0.805086 0.050939 0.740304
O O13 0.001760 0.079175 0.896541
#
# Coordination Sequence:
#
# PCOD9283876 Si02
#       7
#     8   4   4   8   8   8   8
#     4  10  22  42  59  92 135 160 215 275 318 397
#     4  11  26  40  60  96 132 166 215 274 330 387
#     4   9  18  40  66  86 124 168 215 256 326 397
#     4  11  23  38  68  94 124 176 220 270 332 382
#     4  12  25  40  64  95 131 172 219 274 329 389
#     4  10  22  41  64  92 127 163 225 264 325 401
#     4  10  21  40  65  90 121 173 212 262 329 392
#
# _framework density 19.709168999999999
#
# number of rings (size 3 to 8) (size 9 to 14) (size 15 to 20)
#    0.000    1.667    3.333    2.500    5.833    1.333 
#    0.000    3.333    0.000    0.000    0.000    0.000 
#    0.000    0.000    0.000    0.000    0.000    0.000 
#
# Total GULP energy -133671.639527 kJ/mol
# GULP energy per Si atom -5569.651647 kJ/mol
# Density = 1.966431 g / cm^3
# Si number density = 19.709169 Si / 1000 Ang^3
#
#
#
# Elastic Constant Matrix: (Units=GPa)
#
#
# Indices 1 2 3 4 5 6 
#
# 1 64.2515 30.1629 51.6083 0.0000 -15.0184 0.0000
# 2 30.1629 76.6317 39.7515 0.0000 -7.8157 0.0000
# 3 51.6083 39.7515 143.6253 0.0000 -0.6584 0.0000
# 4 0.0000 0.0000 0.0000 28.1044 0.0000 14.6517
# 5 -15.0184 -7.8157 -0.6584 0.0000 45.2209 0.0000
# 6 0.0000 0.0000 0.0000 14.6517 0.0000 288.6730
#
#
#
# Elastic Compliance Matrix: (Units=1/GPa)
#
#
# Indices 1 2 3 4 5 6 
#
# 1 0.026253 -0.005461 -0.007887 0.000000 0.007660 0.000000
# 2 -0.005461 0.016678 -0.002649 0.000000 0.001030 0.000000
# 3 -0.007887 -0.002649 0.010516 0.000000 -0.002924 0.000000
# 4 0.000000 0.000000 0.000000 0.036549 0.000000 -0.001855
# 5 0.007660 0.001030 -0.002924 0.000000 0.024793 0.000000
# 6 0.000000 0.000000 0.000000 -0.001855 0.000000 0.003558
#
#
# Mechanical properties :
#
#
# Convention : Reuss Voigt Hill
#
# Bulk Modulus (GPa) = 46.61202 58.61712 52.61457
# Shear Modulus (GPa) = 31.74759 83.26539 57.50649
#
# Velocity S-wave (km/s) = 4.01784 6.50682 5.40748
# Velocity P-wave (km/s) = 6.72497 9.28748 8.10810
#
# Compressibility (1/GPa) = 0.02145369
#
# Stress axis : x y z
#
# Youngs Moduli (GPa) = 38.09110 59.95869 95.09068
#
# Poissons Ratio (x) = 0.32743 0.74996
# Poissons Ratio (y) = 0.20801 0.25190
# Poissons Ratio (z) = 0.30042 0.15884
#
# Static dielectric constant tensor:
#      x y z
#    x 1.732600 0.000000 -0.031780 
#    y 0.000000 1.715830 0.000000 
#    z -0.031780 0.000000 1.657000 
# 
# From -- ./inp_files/79423.got.cif
#   From: 2010.05.17/outbox.cif.g08.bks.cpg/sg15_40_cif.got.tgz:79423.got - 2010.06.03 18:47:42.
