data_PCOD9283376
_publ_section_title
;
Structure prediction by ZEFSAII (Michael W. Deem and Ramdas Pophale) SiO2 
 PCOD9283376
Probable space group: C 2/C
;
_chemical_formula_sum "Si O2"
_cell_formula_units_Z 64
_cell_length_a 17.846636
_cell_length_b 12.879305
_cell_length_c 13.610708
_cell_angle_alpha 90.000000
_cell_angle_beta 96.697951
_cell_angle_gamma 90.000000
_cell_volume 3107.099862
_symmetry_space_group_name_H-M "C 2/C"
_symmetry_group_IT_number 15
_symmetry_cell_setting 'monoclinic'
loop_
_space_group_symop_operation_xyz
x,y,z
-x,y,1/2-z
-x,-y,-z
x,-y,1/2+z
1/2+x,1/2+y,z
1/2-x,1/2+y,1/2-z
1/2-x,1/2-y,-z
1/2+x,1/2-y,1/2+z
loop_
_atom_site_type_symbol
_atom_site_label
_atom_site_fract_x
_atom_site_fract_y
_atom_site_fract_z
Si Si1 0.949509 0.278737 0.961335
Si Si2 0.502217 0.413080 0.583806
Si Si3 0.453322 0.078222 0.145710
Si Si4 0.637066 0.783401 0.738288
Si Si5 0.293286 0.816224 0.250295
Si Si6 0.783714 0.518141 0.348012
Si Si7 0.876076 0.098859 0.232936
Si Si8 0.666956 0.908845 0.441924
O O1 0.914820 0.233813 0.854376
O O2 0.993068 0.382696 0.933275
O O3 0.879964 0.313935 0.018560
O O4 0.999811 0.197657 0.027798
O O5 0.500000 0.500000 0.500000
O O6 0.574607 0.427801 0.664301
O O7 0.430160 0.412979 0.646496
O O8 0.500000 0.044057 0.250000
O O9 0.410611 0.182397 0.175590
O O10 0.393944 0.992038 0.105613
O O11 0.711659 0.720854 0.773080
O O12 0.667011 0.891618 0.695249
O O13 0.347298 0.717521 0.244393
O O14 0.285573 0.868128 0.142008
O O15 0.319071 0.907479 0.326416
O O16 0.699285 0.531263 0.293795
O O17 0.785057 0.540923 0.463655
#
# Coordination Sequence:
#
# PCOD9283376 Si02
#       8
#     8   8   8   8   8   8   8   8
#     4  10  22  38  63  92 122 167 209 260 315 381
#     4  11  25  44  66  90 128 167 214 260 310 386
#     4  10  21  40  60  95 132 159 207 262 318 383
#     4   9  21  39  60  91 125 166 213 251 323 378
#     4  11  22  41  70  88 133 166 211 277 306 386
#     4  10  23  39  63  97 125 165 215 260 322 380
#     4  10  25  45  63  97 123 168 221 257 320 380
#     4  11  22  38  67  97 128 169 209 259 333 380
#
# _framework density 20.597987
#
# number of rings (size 3 to 8) (size 9 to 14) (size 15 to 20)
#    0.000    1.750    2.500    0.375    5.250    3.500 
#    4.500    0.625    0.000    0.000    0.000    0.000 
#    0.000    0.000    0.000    0.000    0.000    0.000 
#
# Total GULP energy -178733.576413 kJ/mol
# GULP energy per Si atom -5585.424263 kJ/mol
# Density = 2.055110 g / cm^3
# Si number density = 20.597987 Si / 1000 Ang^3
#
#
#
# Elastic Constant Matrix: (Units=GPa)
#
#
# Indices 1 2 3 4 5 6 
#
# 1 74.8549 10.6847 22.3225 0.0000 12.8207 0.0000
# 2 10.6847 68.1879 31.1861 0.0000 13.6451 0.0000
# 3 22.3225 31.1861 82.5520 0.0000 12.1807 0.0000
# 4 0.0000 0.0000 0.0000 28.4012 0.0000 -1.9702
# 5 12.8207 13.6451 12.1807 0.0000 23.8415 0.0000
# 6 0.0000 0.0000 0.0000 -1.9702 0.0000 12.6420
#
#
#
# Elastic Compliance Matrix: (Units=1/GPa)
#
#
# Indices 1 2 3 4 5 6 
#
# 1 0.015468 0.000486 -0.003351 0.000000 -0.006884 0.000000
# 2 0.000486 0.018992 -0.006126 0.000000 -0.008001 0.000000
# 3 -0.003351 -0.006126 0.015737 0.000000 -0.002732 0.000000
# 4 0.000000 0.000000 0.000000 0.035595 0.000000 0.005547
# 5 -0.006884 -0.008001 -0.002732 0.000000 0.051621 0.000000
# 6 0.000000 0.000000 0.000000 0.005547 0.000000 0.079966
#
#
# Mechanical properties :
#
#
# Convention : Reuss Voigt Hill
#
# Bulk Modulus (GPa) = 31.03937 39.33127 35.18532
# Shear Modulus (GPa) = 20.31720 23.73705 22.02713
#
# Velocity S-wave (km/s) = 3.14406 3.39838 3.27369
# Velocity P-wave (km/s) = 5.31808 5.87663 5.60432
#
# Compressibility (1/GPa) = 0.03221715
#
# Stress axis : x y z
#
# Youngs Moduli (GPa) = 64.64935 52.65410 63.54519
#
# Poissons Ratio (x) = -0.02560 0.21291
# Poissons Ratio (y) = -0.03144 0.38925
# Poissons Ratio (z) = 0.21661 0.32253
#
# Static dielectric constant tensor:
#      x y z
#    x 1.735020 0.000000 0.003030 
#    y 0.000000 1.733400 0.000000 
#    z 0.003030 0.000000 1.717260 
# 
# From -- ./inp_files/105725.got.cif
#   From: 2010.05.17/outbox.cif.g08.bks.cpg/sg15_53_cif.got.tgz:105725.got - 2010.06.03 18:47:42.
