data_PCOD9283321
_publ_section_title
;
Structure prediction by ZEFSAII (Michael W. Deem and Ramdas Pophale) SiO2 
 PCOD9283321
Probable space group: C 2/C
;
_chemical_formula_sum "Si O2"
_cell_formula_units_Z 52
_cell_length_a 22.114647
_cell_length_b 11.260397
_cell_length_c 17.907012
_cell_angle_alpha 90.000000
_cell_angle_beta 148.817238
_cell_angle_gamma 90.000000
_cell_volume 2308.837784
_symmetry_space_group_name_H-M "C 2/C"
_symmetry_group_IT_number 15
_symmetry_cell_setting 'monoclinic'
loop_
_space_group_symop_operation_xyz
x,y,z
-x,y,1/2-z
-x,-y,-z
x,-y,1/2+z
1/2+x,1/2+y,z
1/2-x,1/2+y,1/2-z
1/2-x,1/2-y,-z
1/2+x,1/2-y,1/2+z
loop_
_atom_site_type_symbol
_atom_site_label
_atom_site_fract_x
_atom_site_fract_y
_atom_site_fract_z
Si Si1 0.203940 0.580228 0.059820
Si Si2 0.712372 0.858570 0.908735
Si Si3 0.633287 0.650194 0.141437
Si Si4 0.745531 0.178055 0.668446
Si Si5 0.500000 0.990186 0.250000
Si Si6 0.362894 0.585949 0.088988
Si Si7 0.598939 0.596875 0.531839
O O1 0.246840 0.631179 0.184709
O O2 0.222395 0.436879 0.093038
O O3 0.287143 0.625367 0.080144
O O4 0.073405 0.586753 0.887838
O O5 0.705510 0.792940 0.822475
O O6 0.594723 0.926937 0.808074
O O7 0.750000 0.750000 0.000000
O O8 0.815807 0.953183 0.025148
O O9 0.634887 0.772548 0.097743
O O10 0.607472 0.545241 0.054610
O O11 0.533752 0.637238 0.098552
O O12 0.836002 0.141389 0.826610
O O13 0.500000 0.588623 0.250000
O O14 0.347917 0.640211 0.990245
#
# Coordination Sequence:
#
# PCOD9283321 Si02
#       7
#     8   8   8   8   4   8   8
#     4  10  22  39  62  89 120 165 200 256 301 368
#     4  11  22  33  57  92 122 158 192 259 310 360
#     4  10  21  40  59  87 127 158 208 247 310 373
#     4  11  22  37  57  95 122 156 207 249 318 361
#     4  10  22  36  54  86 128 150 206 236 312 360
#     4  11  20  37  63  88 116 155 217 251 299 351
#     4  10  22  36  62  88 121 168 198 261 304 363
#
# _framework density 22.522152999999999
#
# number of rings (size 3 to 8) (size 9 to 14) (size 15 to 20)
#    0.000    1.538    6.154    0.000    3.231    0.000 
#    0.000    4.615    1.692    0.000    0.000    0.000 
#    0.000    0.000    0.000    0.000    0.000    0.000 
#
# Total GULP energy -145037.130555 kJ/mol
# GULP energy per Si atom -5578.351175 kJ/mol
# Density = 2.247089 g / cm^3
# Si number density = 22.522153 Si / 1000 Ang^3
#
#
#
# Elastic Constant Matrix: (Units=GPa)
#
#
# Indices 1 2 3 4 5 6 
#
# 1 96.1347 7.5784 24.8826 0.0000 -20.1834 0.0000
# 2 7.5784 37.9530 1.3774 0.0000 3.4616 0.0000
# 3 24.8826 1.3774 109.1313 0.0000 -2.6601 0.0000
# 4 0.0000 0.0000 0.0000 13.9642 0.0000 -16.6999
# 5 -20.1834 3.4616 -2.6601 0.0000 23.4096 0.0000
# 6 0.0000 0.0000 0.0000 -16.6999 0.0000 32.6097
#
#
#
# Elastic Compliance Matrix: (Units=1/GPa)
#
#
# Indices 1 2 3 4 5 6 
#
# 1 0.014032 -0.003824 -0.002850 0.000000 0.012340 0.000000
# 2 -0.003824 0.027771 0.000342 0.000000 -0.007365 0.000000
# 3 -0.002850 0.000342 0.009775 0.000000 -0.001397 0.000000
# 4 0.000000 0.000000 0.000000 0.184778 0.000000 0.094627
# 5 0.012340 -0.007365 -0.001397 0.000000 0.054287 0.000000
# 6 0.000000 0.000000 0.000000 0.094627 0.000000 0.079126
#
#
# Mechanical properties :
#
#
# Convention : Reuss Voigt Hill
#
# Bulk Modulus (GPa) = 25.69821 34.54398 30.12109
# Shear Modulus (GPa) = 12.64529 27.95540 20.30035
#
# Velocity S-wave (km/s) = 2.37209 3.52695 3.00551
# Velocity P-wave (km/s) = 4.35171 5.65304 5.04451
#
# Compressibility (1/GPa) = 0.03891322
#
# Stress axis : x y z
#
# Youngs Moduli (GPa) = 71.26573 36.00851 102.30391
#
# Poissons Ratio (x) = 0.13769 0.29160
# Poissons Ratio (y) = 0.27251 -0.03497
# Poissons Ratio (z) = 0.20313 -0.01231
#
# Static dielectric constant tensor:
#      x y z
#    x 1.893060 0.000000 -0.011270 
#    y 0.000000 1.886500 0.000000 
#    z -0.011270 0.000000 1.863870 
# 
# From -- ./inp_files/118511.got.cif
#   From: 2010.05.17/outbox.cif.g08.bks.cpg/sg15_60_cif.got.tgz:118511.got - 2010.06.03 18:47:42.
