data_PCOD9283019
_publ_section_title
;
Structure prediction by ZEFSAII (Michael W. Deem and Ramdas Pophale) SiO2 
 PCOD9283019
Probable space group: C 2/C
;
_chemical_formula_sum "Si O2"
_cell_formula_units_Z 64
_cell_length_a 8.518373
_cell_length_b 11.808757
_cell_length_c 28.244670
_cell_angle_alpha 90.000000
_cell_angle_beta 88.225332
_cell_angle_gamma 90.000000
_cell_volume 2839.808040
_symmetry_space_group_name_H-M "C 2/C"
_symmetry_group_IT_number 15
_symmetry_cell_setting 'monoclinic'
loop_
_space_group_symop_operation_xyz
x,y,z
-x,y,1/2-z
-x,-y,-z
x,-y,1/2+z
1/2+x,1/2+y,z
1/2-x,1/2+y,1/2-z
1/2-x,1/2-y,-z
1/2+x,1/2-y,1/2+z
loop_
_atom_site_type_symbol
_atom_site_label
_atom_site_fract_x
_atom_site_fract_y
_atom_site_fract_z
Si Si1 0.083410 0.461094 0.160809
Si Si2 0.003512 0.300821 0.661708
Si Si3 0.410002 0.227447 0.443636
Si Si4 0.787187 0.029637 0.072021
Si Si5 0.862454 0.031986 0.914978
Si Si6 0.654165 0.392951 0.271831
Si Si7 0.708102 0.834206 0.329055
Si Si8 0.309328 0.126220 0.013823
O O1 0.973684 0.568987 0.174029
O O2 0.154283 0.486932 0.109250
O O3 0.229791 0.456153 0.194394
O O4 0.976649 0.349090 0.161539
O O5 0.984270 0.274880 0.606002
O O6 0.191881 0.280155 0.665600
O O7 0.915026 0.213707 0.697073
O O8 0.248775 0.160909 0.437013
O O9 0.374836 0.359333 0.450393
O O10 0.506605 0.152328 0.480060
O O11 0.959346 0.010182 0.091123
O O12 0.754545 0.955779 0.026107
O O13 0.759192 0.932625 0.938359
O O14 0.791376 0.082425 0.866981
O O15 0.500000 0.450486 0.250000
O O16 0.758050 0.362535 0.225568
O O17 0.250000 0.250000 0.000000
#
# Coordination Sequence:
#
# PCOD9283019 Si02
#       8
#     8   8   8   8   8   8   8   8
#     4  11  22  43  66  94 132 170 215 265 329 383
#     4   9  21  42  63  92 129 167 210 264 324 380
#     4  10  22  42  65  93 129 174 216 270 329 383
#     4  11  23  42  67  96 129 177 220 272 326 397
#     4  11  23  46  63  91 137 171 220 278 328 392
#     4  10  21  39  66  94 127 167 209 265 322 386
#     4  10  22  40  65  94 125 166 215 267 320 386
#     4  12  25  43  66  97 134 176 224 270 338 390
#
# _framework density 22.536733999999999
#
# number of rings (size 3 to 8) (size 9 to 14) (size 15 to 20)
#    0.000    1.500    1.250    4.875    0.000    3.500 
#    9.000    5.000    0.000    0.000    0.000    0.000 
#    0.000    0.000    0.000    0.000    0.000    0.000 
#
# Total GULP energy -178577.790149 kJ/mol
# GULP energy per Si atom -5580.555942 kJ/mol
# Density = 2.248544 g / cm^3
# Si number density = 22.536734 Si / 1000 Ang^3
#
#
#
# Elastic Constant Matrix: (Units=GPa)
#
#
# Indices 1 2 3 4 5 6 
#
# 1 86.8482 26.8705 5.1507 0.0000 11.8908 0.0000
# 2 26.8705 80.4989 11.9534 0.0000 -5.4711 0.0000
# 3 5.1507 11.9534 82.5134 0.0000 1.4292 0.0000
# 4 0.0000 0.0000 0.0000 0.2472 0.0000 -2.6628
# 5 11.8908 -5.4711 1.4292 0.0000 31.3059 0.0000
# 6 0.0000 0.0000 0.0000 -2.6628 0.0000 38.9195
#
#
#
# Elastic Compliance Matrix: (Units=1/GPa)
#
#
# Indices 1 2 3 4 5 6 
#
# 1 0.013928 -0.005065 -0.000029 0.000000 -0.006174 0.000000
# 2 -0.005065 0.014706 -0.001894 0.000000 0.004580 0.000000
# 3 -0.000029 -0.001894 0.012411 0.000000 -0.000887 0.000000
# 4 0.000000 0.000000 0.000000 15.381940 0.000000 1.052422
# 5 -0.006174 0.004580 -0.000887 0.000000 0.035129 0.000000
# 6 0.000000 0.000000 0.000000 1.052422 0.000000 0.097700
#
#
# Mechanical properties :
#
#
# Convention : Reuss Voigt Hill
#
# Bulk Modulus (GPa) = 36.94031 37.53442 37.23737
# Shear Modulus (GPa) = 0.32095 27.82024 14.07060
#
# Velocity S-wave (km/s) = 0.37778 3.51727 2.50139
# Velocity P-wave (km/s) = 4.07640 5.76072 4.99013
#
# Compressibility (1/GPa) = 0.02707070
#
# Stress axis : x y z
#
# Youngs Moduli (GPa) = 71.79595 68.00145 80.57556
#
# Poissons Ratio (x) = 0.34440 0.00232
# Poissons Ratio (y) = 0.36362 0.15257
# Poissons Ratio (z) = 0.00207 0.12876
#
# Static dielectric constant tensor:
#      x y z
#    x 1.874000 0.000000 -0.015710 
#    y 0.000000 1.837860 0.000000 
#    z -0.015710 0.000000 1.948780 
# 
# From -- ./inp_files/307491.got.cif
#   From: 2010.05.17/outbox.cif.g08.bks.cpg/sg15_154_cif.got.tgz:307491.got - 2010.06.03 18:47:42.
