data_PCOD9283152
_publ_section_title
;
Structure prediction by ZEFSAII (Michael W. Deem and Ramdas Pophale) SiO2 
 PCOD9283152
Probable space group: C 2/C
;
_chemical_formula_sum "Si O2"
_cell_formula_units_Z 52
_cell_length_a 26.521009
_cell_length_b 15.639684
_cell_length_c 9.067824
_cell_angle_alpha 90.000000
_cell_angle_beta 36.855799
_cell_angle_gamma 90.000000
_cell_volume 2255.951845
_symmetry_space_group_name_H-M "C 2/C"
_symmetry_group_IT_number 15
_symmetry_cell_setting 'monoclinic'
loop_
_space_group_symop_operation_xyz
x,y,z
-x,y,1/2-z
-x,-y,-z
x,-y,1/2+z
1/2+x,1/2+y,z
1/2-x,1/2+y,1/2-z
1/2-x,1/2-y,-z
1/2+x,1/2-y,1/2+z
loop_
_atom_site_type_symbol
_atom_site_label
_atom_site_fract_x
_atom_site_fract_y
_atom_site_fract_z
Si Si1 0.426991 0.063920 0.041777
Si Si2 0.635203 0.249453 0.315145
Si Si3 0.500000 0.651063 0.250000
Si Si4 0.407547 0.519135 0.279959
Si Si5 0.848612 0.560949 0.515998
Si Si6 0.203134 0.070092 0.240842
Si Si7 0.773714 0.747928 0.697817
O O1 0.500000 0.080159 0.750000
O O2 0.378222 0.982363 0.096038
O O3 0.368283 0.147490 0.169920
O O4 0.429259 0.057790 0.214673
O O5 0.542734 0.288554 0.529530
O O6 0.680790 0.273802 0.359650
O O7 0.683665 0.278008 0.056638
O O8 0.428894 0.591171 0.349500
O O9 0.341917 0.546617 0.307450
O O10 0.367043 0.443306 0.468223
O O11 0.500000 0.500000 0.000000
O O12 0.776153 0.499037 0.614487
O O13 0.818794 0.657209 0.621511
O O14 0.227046 0.170872 0.191878
#
# Coordination Sequence:
#
# PCOD9283152 Si02
#       7
#     8   8   4   8   8   8   8
#     4  11  22  44  66  97 133 177 224 281 336 402
#     4  10  21  39  68  92 127 176 224 274 329 409
#     4  12  22  42  64  96 128 170 230 272 344 406
#     4  12  25  41  66  97 139 179 223 282 349 404
#     4  11  24  43  69 100 134 182 226 281 341 402
#     4  12  24  45  67 101 141 178 228 288 336 413
#     4  10  23  41  66  96 132 175 225 271 342 394
#
# _framework density 23.050136999999999
#
# number of rings (size 3 to 8) (size 9 to 14) (size 15 to 20)
#    0.000    0.923    3.846    3.231    4.308    0.000 
#    2.769    3.846    0.000    0.000    0.000    0.000 
#    0.000    0.000    0.000    0.000    0.000    0.000 
#
# Total GULP energy -145076.002013 kJ/mol
# GULP energy per Si atom -5579.846231 kJ/mol
# Density = 2.299767 g / cm^3
# Si number density = 23.050137 Si / 1000 Ang^3
#
#
#
# Elastic Constant Matrix: (Units=GPa)
#
#
# Indices 1 2 3 4 5 6 
#
# 1 73.7981 28.0087 -10.9854 0.0000 15.8633 0.0000
# 2 28.0087 126.7125 6.1893 0.0000 7.9094 0.0000
# 3 -10.9854 6.1893 70.0093 0.0000 0.7445 0.0000
# 4 0.0000 0.0000 0.0000 20.3601 0.0000 -7.7154
# 5 15.8633 7.9094 0.7445 0.0000 29.3321 0.0000
# 6 0.0000 0.0000 0.0000 -7.7154 0.0000 27.7196
#
#
#
# Elastic Compliance Matrix: (Units=1/GPa)
#
#
# Indices 1 2 3 4 5 6 
#
# 1 0.017110 -0.003407 0.003075 0.000000 -0.008413 0.000000
# 2 -0.003407 0.008739 -0.001302 0.000000 -0.000481 0.000000
# 3 0.003075 -0.001302 0.014899 0.000000 -0.001690 0.000000
# 4 0.000000 0.000000 0.000000 0.054907 0.000000 0.015283
# 5 -0.008413 -0.000481 -0.001690 0.000000 0.038814 0.000000
# 6 0.000000 0.000000 0.000000 0.015283 0.000000 0.040329
#
#
# Mechanical properties :
#
#
# Convention : Reuss Voigt Hill
#
# Bulk Modulus (GPa) = 26.68065 35.21613 30.94839
# Shear Modulus (GPa) = 26.23854 31.96952 29.10403
#
# Velocity S-wave (km/s) = 3.37757 3.72823 3.55722
# Velocity P-wave (km/s) = 5.17791 5.81757 5.50704
#
# Compressibility (1/GPa) = 0.03748035
#
# Stress axis : x y z
#
# Youngs Moduli (GPa) = 58.44648 114.43491 67.11640
#
# Poissons Ratio (x) = 0.38989 -0.20641
# Poissons Ratio (y) = 0.19913 0.08739
# Poissons Ratio (z) = -0.17975 0.14900
#
# Static dielectric constant tensor:
#      x y z
#    x 1.906850 0.000000 -0.022140 
#    y 0.000000 1.923200 0.000000 
#    z -0.022140 0.000000 1.880640 
# 
# From -- ./inp_files/70073.got.cif
#   From: 2010.05.17/outbox.cif.g08.bks.cpg/sg15_36_cif.got.tgz:70073.got - 2010.06.03 18:47:42.
