data_PCOD9283058
_publ_section_title
;
Structure prediction by ZEFSAII (Michael W. Deem and Ramdas Pophale) SiO2 
 PCOD9283058
Probable space group: C 2/C
;
_chemical_formula_sum "Si O2"
_cell_formula_units_Z 48
_cell_length_a 25.789966
_cell_length_b 20.033447
_cell_length_c 5.134626
_cell_angle_alpha 90.000000
_cell_angle_beta 56.745756
_cell_angle_gamma 90.000000
_cell_volume 2218.447121
_symmetry_space_group_name_H-M "C 2/C"
_symmetry_group_IT_number 15
_symmetry_cell_setting 'monoclinic'
loop_
_space_group_symop_operation_xyz
x,y,z
-x,y,1/2-z
-x,-y,-z
x,-y,1/2+z
1/2+x,1/2+y,z
1/2-x,1/2+y,1/2-z
1/2-x,1/2-y,-z
1/2+x,1/2-y,1/2+z
loop_
_atom_site_type_symbol
_atom_site_label
_atom_site_fract_x
_atom_site_fract_y
_atom_site_fract_z
Si Si1 0.925764 0.959163 0.436482
Si Si2 0.253605 0.044487 0.391416
Si Si3 0.122991 0.182391 0.271924
Si Si4 0.000000 0.347357 0.250000
Si Si5 0.597888 0.958534 0.001106
Si Si6 0.500000 0.238854 0.250000
Si Si7 0.299646 0.694391 0.948262
O O1 0.888112 0.895095 0.630525
O O2 0.000000 0.945407 0.250000
O O3 0.912804 0.018316 0.677826
O O4 0.328494 0.052650 0.185022
O O5 0.227003 0.118931 0.476427
O O6 0.236382 0.998122 0.683962
O O7 0.173059 0.208952 0.341817
O O8 0.057990 0.217592 0.501409
O O9 0.146312 0.193895 0.916618
O O10 0.942127 0.393666 0.332780
O O11 0.981762 0.304691 0.550643
O O12 0.582341 0.985529 0.757695
O O13 0.250000 0.750000 0.000000
#
# Coordination Sequence:
#
# PCOD9283058 Si02
#       7
#     8   8   8   4   8   4   8
#     4  10  21  39  66  98 131 167 212 272 340 396
#     4  10  23  43  68  99 134 175 227 279 334 394
#     4  12  26  47  67  98 137 172 225 279 332 402
#     4  12  24  41  68  99 134 180 222 268 338 410
#     4  10  21  40  67  99 134 168 215 282 331 391
#     4  12  28  43  66 101 134 178 222 272 336 396
#     4  12  28  46  71 100 136 184 228 281 333 402
#
# _framework density 21.636755999999998
#
# number of rings (size 3 to 8) (size 9 to 14) (size 15 to 20)
#    0.000    1.000    0.833    5.000    4.667    4.000 
#    0.000    0.000    0.000    0.000    0.000    0.000 
#    0.000    0.000    0.000    0.000    0.000    0.000 
#
# Total GULP energy -134439.660405 kJ/mol
# GULP energy per Si atom -5601.652517 kJ/mol
# Density = 2.158751 g / cm^3
# Si number density = 21.636756 Si / 1000 Ang^3
#
#
#
# Elastic Constant Matrix: (Units=GPa)
#
#
# Indices 1 2 3 4 5 6 
#
# 1 49.8405 15.1021 1.4955 0.0000 1.1117 0.0000
# 2 15.1021 82.8543 19.7780 0.0000 -15.8365 0.0000
# 3 1.4955 19.7780 100.3238 0.0000 2.3995 0.0000
# 4 0.0000 0.0000 0.0000 65.2251 0.0000 18.5854
# 5 1.1117 -15.8365 2.3995 0.0000 35.2861 0.0000
# 6 0.0000 0.0000 0.0000 18.5854 0.0000 54.9722
#
#
#
# Elastic Compliance Matrix: (Units=1/GPa)
#
#
# Indices 1 2 3 4 5 6 
#
# 1 0.021503 -0.004609 0.000655 0.000000 -0.002791 0.000000
# 2 -0.004609 0.014993 -0.003056 0.000000 0.007082 0.000000
# 3 0.000655 -0.003056 0.010611 0.000000 -0.002114 0.000000
# 4 0.000000 0.000000 0.000000 0.016966 0.000000 -0.005736
# 5 -0.002791 0.007082 -0.002114 0.000000 0.031750 0.000000
# 6 0.000000 0.000000 0.000000 -0.005736 0.000000 0.020130
#
#
# Mechanical properties :
#
#
# Convention : Reuss Voigt Hill
#
# Bulk Modulus (GPa) = 30.22459 33.97442 32.09951
# Shear Modulus (GPa) = 35.46029 44.20621 39.83325
#
# Velocity S-wave (km/s) = 4.05271 4.52498 4.29534
# Velocity P-wave (km/s) = 5.99156 6.56025 6.28234
#
# Compressibility (1/GPa) = 0.03308564
#
# Stress axis : x y z
#
# Youngs Moduli (GPa) = 46.50465 66.69932 94.24138
#
# Poissons Ratio (x) = 0.30743 -0.06171
# Poissons Ratio (y) = 0.21435 0.28803
# Poissons Ratio (z) = -0.03045 0.20386
#
# Static dielectric constant tensor:
#      x y z
#    x 1.794500 0.000000 -0.020020 
#    y 0.000000 1.746790 0.000000 
#    z -0.020020 0.000000 1.739160 
# 
# From -- ./inp_files/17039.got.cif
#   From: 2010.05.17/outbox.cif.g08.bks.cpg/sg15_9_cif.got.tgz:17039.got - 2010.06.03 18:47:42.
