data_PCOD9283202
_publ_section_title
;
Structure prediction by ZEFSAII (Michael W. Deem and Ramdas Pophale) SiO2 
 PCOD9283202
Probable space group: C 2/C
;
_chemical_formula_sum "Si O2"
_cell_formula_units_Z 64
_cell_length_a 10.876040
_cell_length_b 23.862255
_cell_length_c 10.747741
_cell_angle_alpha 90.000000
_cell_angle_beta 100.362272
_cell_angle_gamma 90.000000
_cell_volume 2743.833680
_symmetry_space_group_name_H-M "C 2/C"
_symmetry_group_IT_number 15
_symmetry_cell_setting 'monoclinic'
loop_
_space_group_symop_operation_xyz
x,y,z
-x,y,1/2-z
-x,-y,-z
x,-y,1/2+z
1/2+x,1/2+y,z
1/2-x,1/2+y,1/2-z
1/2-x,1/2-y,-z
1/2+x,1/2-y,1/2+z
loop_
_atom_site_type_symbol
_atom_site_label
_atom_site_fract_x
_atom_site_fract_y
_atom_site_fract_z
Si Si1 0.548633 0.416375 0.394044
Si Si2 0.932397 0.516769 0.615235
Si Si3 0.129540 0.875889 0.826890
Si Si4 0.827079 0.973672 0.518405
Si Si5 0.044626 0.277214 0.953834
Si Si6 0.665764 0.704315 0.555644
Si Si7 0.700787 0.324124 0.584938
Si Si8 0.910818 0.350162 0.128500
O O1 0.500000 0.397105 0.250000
O O2 0.433994 0.440997 0.458460
O O3 0.625867 0.473804 0.394115
O O4 0.635078 0.370222 0.480545
O O5 0.785536 0.503044 0.584132
O O6 0.932403 0.584178 0.623597
O O7 0.000000 0.493933 0.750000
O O8 0.000000 0.500000 0.500000
O O9 0.215528 0.924876 0.895692
O O10 0.186838 0.844179 0.722446
O O11 0.000000 0.900813 0.750000
O O12 0.104504 0.832031 0.933474
O O13 0.127452 0.234302 0.051841
O O14 0.958865 0.320695 0.013043
O O15 0.152233 0.312329 0.907142
O O16 0.938445 0.234718 0.880395
O O17 0.750000 0.750000 0.500000
O O18 0.767956 0.664333 0.636811
O O19 0.000000 0.325693 0.250000
#
# Coordination Sequence:
#
# PCOD9283202 Si02
#       8
#     8   8   8   8   8   8   8   8
#     4  11  26  44  74 110 148 191 242 313 368 450
#     4  11  27  48  72 107 146 197 252 317 385 452
#     4  12  21  43  74 102 142 190 248 299 364 453
#     4  11  25  46  74 110 139 193 256 301 379 446
#     4  10  23  44  65 106 142 180 239 301 374 432
#     4  10  21  39  69 102 133 185 247 289 358 446
#     4  11  25  43  69 106 150 190 231 306 379 438
#     4  10  23  44  73  98 135 194 250 301 366 448
#
# _framework density 23.325029000000001
#
# number of rings (size 3 to 8) (size 9 to 14) (size 15 to 20)
#    0.000    1.250    3.750    0.375    8.750    1.000 
#    0.000    3.750    0.000    0.000    0.000    0.000 
#    0.000    0.000    0.000    0.000    0.000    0.000 
#
# Total GULP energy -178688.388684 kJ/mol
# GULP energy per Si atom -5584.012146 kJ/mol
# Density = 2.327194 g / cm^3
# Si number density = 23.325029 Si / 1000 Ang^3
#
#
#
# Elastic Constant Matrix: (Units=GPa)
#
#
# Indices 1 2 3 4 5 6 
#
# 1 127.1643 16.0696 32.3214 0.0000 10.7857 0.0000
# 2 16.0696 64.8320 14.7278 0.0000 -1.6456 0.0000
# 3 32.3214 14.7278 85.7175 0.0000 15.8831 0.0000
# 4 0.0000 0.0000 0.0000 15.7070 0.0000 -3.9096
# 5 10.7857 -1.6456 15.8831 0.0000 27.7867 0.0000
# 6 0.0000 0.0000 0.0000 -3.9096 0.0000 30.5155
#
#
#
# Elastic Compliance Matrix: (Units=1/GPa)
#
#
# Indices 1 2 3 4 5 6 
#
# 1 0.008932 -0.001649 -0.002711 0.000000 -0.002015 0.000000
# 2 -0.001649 0.016556 -0.002822 0.000000 0.003234 0.000000
# 3 -0.002711 -0.002822 0.014551 0.000000 -0.007432 0.000000
# 4 0.000000 0.000000 0.000000 0.065763 0.000000 0.008425
# 5 -0.002015 0.003234 -0.007432 0.000000 0.041210 0.000000
# 6 0.000000 0.000000 0.000000 0.008425 0.000000 0.033850
#
#
# Mechanical properties :
#
#
# Convention : Reuss Voigt Hill
#
# Bulk Modulus (GPa) = 38.94975 44.88348 41.91662
# Shear Modulus (GPa) = 24.53562 29.10818 26.82190
#
# Velocity S-wave (km/s) = 3.24682 3.53645 3.39472
# Velocity P-wave (km/s) = 5.54894 5.99664 5.77713
#
# Compressibility (1/GPa) = 0.02567411
#
# Stress axis : x y z
#
# Youngs Moduli (GPa) = 111.95319 60.39949 68.72590
#
# Poissons Ratio (x) = 0.09961 0.18634
# Poissons Ratio (y) = 0.18464 0.19395
# Poissons Ratio (z) = 0.30354 0.17045
#
# Static dielectric constant tensor:
#      x y z
#    x 1.970280 0.000000 0.039520 
#    y 0.000000 1.892070 0.000000 
#    z 0.039520 0.000000 1.912730 
# 
# From -- ./inp_files/90866.got.cif
#   From: 2010.05.17/outbox.cif.g08.bks.cpg/sg15_46_cif.got.tgz:90866.got - 2010.06.03 18:47:42.
