data_PCOD9283857
_publ_section_title
;
Structure prediction by ZEFSAII (Michael W. Deem and Ramdas Pophale) SiO2 
 PCOD9283857
Probable space group: C 2/C
;
_chemical_formula_sum "Si O2"
_cell_formula_units_Z 56
_cell_length_a 8.733282
_cell_length_b 11.557289
_cell_length_c 26.482312
_cell_angle_alpha 90.000000
_cell_angle_beta 61.480906
_cell_angle_gamma 90.000000
_cell_volume 2348.601030
_symmetry_space_group_name_H-M "C 2/C"
_symmetry_group_IT_number 15
_symmetry_cell_setting 'monoclinic'
loop_
_space_group_symop_operation_xyz
x,y,z
-x,y,1/2-z
-x,-y,-z
x,-y,1/2+z
1/2+x,1/2+y,z
1/2-x,1/2+y,1/2-z
1/2-x,1/2-y,-z
1/2+x,1/2-y,1/2+z
loop_
_atom_site_type_symbol
_atom_site_label
_atom_site_fract_x
_atom_site_fract_y
_atom_site_fract_z
Si Si1 0.529107 0.367235 0.393404
Si Si2 0.640417 0.076521 0.916435
Si Si3 0.252588 0.851610 0.657294
Si Si4 0.406128 0.775870 0.174427
Si Si5 0.094795 0.511812 0.287394
Si Si6 0.914711 0.230700 0.010283
Si Si7 0.759345 0.904674 0.630722
O O1 0.336822 0.382865 0.400668
O O2 0.620558 0.256832 0.355156
O O3 0.537473 0.338958 0.452569
O O4 0.631512 0.484859 0.368763
O O5 0.566357 0.143038 0.879270
O O6 0.531576 0.141171 0.978130
O O7 0.672024 0.943764 0.895636
O O8 0.246271 0.920018 0.711690
O O9 0.072743 0.796653 0.665874
O O10 0.264453 0.688387 0.175026
O O11 0.359435 0.875659 0.221279
O O12 0.000000 0.536636 0.250000
O O13 0.933120 0.549866 0.349334
O O14 0.854144 0.152906 0.067331
O O15 0.750000 0.250000 0.000000
#
# Coordination Sequence:
#
# PCOD9283857 Si02
#       7
#     8   8   8   8   8   8   8
#     4  11  20  37  64  91 126 170 206 243 312 369
#     4   9  20  37  58  88 125 164 205 249 293 360
#     4  11  21  39  66  88 122 164 202 253 314 364
#     4  10  21  40  65  87 122 159 201 257 308 360
#     4  11  25  43  65  90 117 156 209 259 316 373
#     4   9  19  35  59  91 126 168 207 251 299 365
#     4  11  21  41  63  88 128 166 203 259 309 369
#
# _framework density 23.843980999999999
#
# number of rings (size 3 to 8) (size 9 to 14) (size 15 to 20)
#    0.000    1.714    2.857    3.000    0.000    1.714 
#    0.000    7.143    0.000    0.000    0.000    0.000 
#    0.000    0.000    0.000    0.000    0.000    0.000 
#
# Total GULP energy -156100.926966 kJ/mol
# GULP energy per Si atom -5575.033106 kJ/mol
# Density = 2.378971 g / cm^3
# Si number density = 23.843981 Si / 1000 Ang^3
#
#
#
# Elastic Constant Matrix: (Units=GPa)
#
#
# Indices 1 2 3 4 5 6 
#
# 1 106.2083 52.5993 15.4655 0.0000 25.6000 0.0000
# 2 52.5993 179.3883 35.5345 0.0000 16.3994 0.0000
# 3 15.4655 35.5345 56.2483 0.0000 20.6546 0.0000
# 4 0.0000 0.0000 0.0000 4.3817 0.0000 19.5249
# 5 25.6000 16.3994 20.6546 0.0000 27.9336 0.0000
# 6 0.0000 0.0000 0.0000 19.5249 0.0000 49.2077
#
#
#
# Elastic Compliance Matrix: (Units=1/GPa)
#
#
# Indices 1 2 3 4 5 6 
#
# 1 0.013802 -0.003490 0.003161 0.000000 -0.012937 0.000000
# 2 -0.003490 0.007277 -0.004452 0.000000 0.002219 0.000000
# 3 0.003161 -0.004452 0.027215 0.000000 -0.020406 0.000000
# 4 0.000000 0.000000 0.000000 -0.297130 0.000000 0.117897
# 5 -0.012937 0.002219 -0.020406 0.000000 0.061441 0.000000
# 6 0.000000 0.000000 0.000000 0.117897 0.000000 -0.026458
#
#
# Mechanical properties :
#
#
# Convention : Reuss Voigt Hill
#
# Bulk Modulus (GPa) = 25.81960 61.00482 43.41221
# Shear Modulus (GPa) = -26.12630 32.18762 3.03066
#
# Velocity S-wave (km/s) = -3.31376 3.67812 1.12863
# Velocity P-wave (km/s) = 1.94659 6.60898 4.46595
#
# Compressibility (1/GPa) = 0.03873027
#
# Stress axis : x y z
#
# Youngs Moduli (GPa) = 72.45286 137.41865 36.74425
#
# Poissons Ratio (x) = 0.47964 -0.11613
# Poissons Ratio (y) = 0.25289 0.16359
# Poissons Ratio (z) = -0.22899 0.61182
#
# Static dielectric constant tensor:
#      x y z
#    x 1.972960 0.000000 0.213640 
#    y 0.000000 1.967810 0.000000 
#    z 0.213640 0.000000 2.455010 
# 
# From -- ./inp_files/287958.got.cif
#   From: 2010.05.17/outbox.cif.g08.bks.cpg/sg15_144_cif.got.tgz:287958.got - 2010.06.03 18:47:42.
