data_PCOD9283664
_publ_section_title
;
Structure prediction by ZEFSAII (Michael W. Deem and Ramdas Pophale) SiO2 
 PCOD9283664
Probable space group: C 2/C
;
_chemical_formula_sum "Si O2"
_cell_formula_units_Z 56
_cell_length_a 20.435034
_cell_length_b 23.472880
_cell_length_c 7.372164
_cell_angle_alpha 90.000000
_cell_angle_beta 49.876508
_cell_angle_gamma 90.000000
_cell_volume 2703.980372
_symmetry_space_group_name_H-M "C 2/C"
_symmetry_group_IT_number 15
_symmetry_cell_setting 'monoclinic'
loop_
_space_group_symop_operation_xyz
x,y,z
-x,y,1/2-z
-x,-y,-z
x,-y,1/2+z
1/2+x,1/2+y,z
1/2-x,1/2+y,1/2-z
1/2-x,1/2-y,-z
1/2+x,1/2-y,1/2+z
loop_
_atom_site_type_symbol
_atom_site_label
_atom_site_fract_x
_atom_site_fract_y
_atom_site_fract_z
Si Si1 0.369424 0.789112 0.579643
Si Si2 0.347852 0.317591 0.858626
Si Si3 0.262269 0.952055 0.913770
Si Si4 0.025967 0.205645 0.912988
Si Si5 0.402109 0.915532 0.389787
Si Si6 0.732742 0.074438 0.675958
Si Si7 0.301403 0.666766 0.033641
O O1 0.342147 0.739624 0.487996
O O2 0.452690 0.766124 0.535446
O O3 0.390119 0.848412 0.448283
O O4 0.290077 0.805903 0.854027
O O5 0.450569 0.326738 0.652261
O O6 0.319170 0.308509 0.701708
O O7 0.291394 0.370204 0.032253
O O8 0.280438 0.933329 0.086630
O O9 0.205531 0.901143 0.934265
O O10 0.346002 0.949333 0.638436
O O11 0.224734 0.015310 0.969753
O O12 0.120191 0.178014 0.739743
O O13 0.000000 0.211177 0.750000
O O14 0.500000 0.930890 0.250000
O O15 0.355787 0.923793 0.279199
#
# Coordination Sequence:
#
# PCOD9283664 Si02
#       7
#     8   8   8   8   8   8   8
#     4  11  21  41  61  92 134 169 211 260 323 384
#     4  11  21  39  65  92 131 172 208 265 323 377
#     4  11  23  44  66  94 126 169 218 267 316 390
#     4  10  22  37  60  94 131 169 215 263 315 383
#     4  11  25  44  64  95 132 166 219 268 317 384
#     4  12  23  43  68  90 126 172 213 265 329 377
#     4  10  21  40  63  93 128 170 219 260 320 382
#
# _framework density 20.71021
#
# number of rings (size 3 to 8) (size 9 to 14) (size 15 to 20)
#    0.000    1.143    4.286    3.000    0.000    2.286 
#   10.286    0.714    0.000    3.429    0.000    0.000 
#    0.000    0.000    0.000    0.000    0.000    0.000 
#
# Total GULP energy -156241.884463 kJ/mol
# GULP energy per Si atom -5580.067302 kJ/mol
# Density = 2.066307 g / cm^3
# Si number density = 20.710210 Si / 1000 Ang^3
#
#
#
# Elastic Constant Matrix: (Units=GPa)
#
#
# Indices 1 2 3 4 5 6 
#
# 1 75.7020 -4.6804 26.3868 0.0000 -0.4378 0.0000
# 2 -4.6804 78.0321 20.7886 0.0000 -9.0101 0.0000
# 3 26.3868 20.7886 81.2913 0.0000 -14.0548 0.0000
# 4 0.0000 0.0000 0.0000 13.7173 0.0000 9.1586
# 5 -0.4378 -9.0101 -14.0548 0.0000 28.3091 0.0000
# 6 0.0000 0.0000 0.0000 9.1586 0.0000 30.4198
#
#
#
# Elastic Compliance Matrix: (Units=1/GPa)
#
#
# Indices 1 2 3 4 5 6 
#
# 1 0.015403 0.002273 -0.005923 0.000000 -0.001979 0.000000
# 2 0.002273 0.014305 -0.003941 0.000000 0.002631 0.000000
# 3 -0.005923 -0.003941 0.016408 0.000000 0.006800 0.000000
# 4 0.000000 0.000000 0.000000 0.091242 0.000000 -0.027471
# 5 -0.001979 0.002631 0.006800 0.000000 0.039507 0.000000
# 6 0.000000 0.000000 0.000000 -0.027471 0.000000 0.041144
#
#
# Mechanical properties :
#
#
# Convention : Reuss Voigt Hill
#
# Bulk Modulus (GPa) = 32.32680 35.55725 33.94202
# Shear Modulus (GPa) = 20.53355 27.32461 23.92908
#
# Velocity S-wave (km/s) = 3.15218 3.63627 3.40284
# Velocity P-wave (km/s) = 5.37506 5.90221 5.64480
#
# Compressibility (1/GPa) = 0.03093409
#
# Stress axis : x y z
#
# Youngs Moduli (GPa) = 64.92039 69.90341 60.94675
#
# Poissons Ratio (x) = -0.15892 0.36102
# Poissons Ratio (y) = -0.14759 0.24021
# Poissons Ratio (z) = 0.38455 0.27551
#
# Static dielectric constant tensor:
#      x y z
#    x 1.792670 0.000000 -0.004160 
#    y 0.000000 1.758620 0.000000 
#    z -0.004160 0.000000 1.798670 
# 
# From -- ./inp_files/57770.got.cif
#   From: 2010.05.17/outbox.cif.g08.bks.cpg/sg15_29_cif.got.tgz:57770.got - 2010.06.03 18:47:42.
