data_PCOD9283676
_publ_section_title
;
Structure prediction by ZEFSAII (Michael W. Deem and Ramdas Pophale) SiO2 
 PCOD9283676
Probable space group: C 2/C
;
_chemical_formula_sum "Si O2"
_cell_formula_units_Z 48
_cell_length_a 14.657148
_cell_length_b 11.275007
_cell_length_c 15.173120
_cell_angle_alpha 90.000000
_cell_angle_beta 90.954202
_cell_angle_gamma 90.000000
_cell_volume 2507.153684
_symmetry_space_group_name_H-M "C 2/C"
_symmetry_group_IT_number 15
_symmetry_cell_setting 'monoclinic'
loop_
_space_group_symop_operation_xyz
x,y,z
-x,y,1/2-z
-x,-y,-z
x,-y,1/2+z
1/2+x,1/2+y,z
1/2-x,1/2+y,1/2-z
1/2-x,1/2-y,-z
1/2+x,1/2-y,1/2+z
loop_
_atom_site_type_symbol
_atom_site_label
_atom_site_fract_x
_atom_site_fract_y
_atom_site_fract_z
Si Si1 0.053585 0.880331 0.009407
Si Si2 0.081601 0.214791 0.312198
Si Si3 0.976747 0.298494 0.843562
Si Si4 0.249161 0.604667 0.993970
Si Si5 0.276116 0.897984 0.811665
Si Si6 0.381942 0.018282 0.657779
O O1 0.008202 0.785928 0.073686
O O2 0.152973 0.916914 0.047175
O O3 0.066726 0.824895 0.912817
O O4 0.000000 0.000000 0.000000
O O5 0.183988 0.173815 0.287275
O O6 0.078590 0.356782 0.310447
O O7 0.000000 0.166824 0.250000
O O8 0.869204 0.327149 0.836341
O O9 0.000000 0.240325 0.750000
O O10 0.040197 0.416828 0.850006
O O11 0.169261 0.550841 0.933885
O O12 0.250000 0.750000 0.000000
O O13 0.246188 0.549038 0.091946
O O14 0.308587 0.976639 0.730114
#
# Coordination Sequence:
#
# PCOD9283676 Si02
#       6
#     8   8   8   8   8   8
#     4  11  24  42  61  89 129 171 209 254 321 388
#     4  11  23  41  61  93 125 164 209 262 319 371
#     4  10  21  40  66  95 122 165 212 262 316 372
#     4  11  20  44  66  88 125 174 205 254 327 379
#     4  10  21  40  63  95 122 168 207 260 320 372
#     4  11  22  39  70  96 122 163 218 265 310 378
#
# _framework density 19.145216999999999
#
# number of rings (size 3 to 8) (size 9 to 14) (size 15 to 20)
#    0.000    1.333    5.000    1.500    2.333    4.667 
#   15.000    0.833    0.000    0.000    0.000    0.000 
#    0.000    0.000    0.000    0.000    0.000    0.000 
#
# Total GULP energy -133756.535216 kJ/mol
# GULP energy per Si atom -5573.188967 kJ/mol
# Density = 1.910164 g / cm^3
# Si number density = 19.145217 Si / 1000 Ang^3
#
#
#
# Elastic Constant Matrix: (Units=GPa)
#
#
# Indices 1 2 3 4 5 6 
#
# 1 129.3382 60.8475 48.6495 0.0000 10.3992 0.0000
# 2 60.8475 88.9653 42.1876 0.0000 -9.6255 0.0000
# 3 48.6495 42.1876 95.3148 0.0000 0.9648 0.0000
# 4 0.0000 0.0000 0.0000 21.7297 0.0000 -6.3980
# 5 10.3992 -9.6255 0.9648 0.0000 41.0101 0.0000
# 6 0.0000 0.0000 0.0000 -6.3980 0.0000 21.2067
#
#
#
# Elastic Compliance Matrix: (Units=1/GPa)
#
#
# Indices 1 2 3 4 5 6 
#
# 1 0.013085 -0.008053 -0.003062 0.000000 -0.005136 0.000000
# 2 -0.008053 0.019699 -0.004677 0.000000 0.006776 0.000000
# 3 -0.003062 -0.004677 0.014132 0.000000 -0.000654 0.000000
# 4 0.000000 0.000000 0.000000 0.050507 0.000000 0.015238
# 5 -0.005136 0.006776 -0.000654 0.000000 0.027292 0.000000
# 6 0.000000 0.000000 0.000000 0.015238 0.000000 0.051752
#
#
# Mechanical properties :
#
#
# Convention : Reuss Voigt Hill
#
# Bulk Modulus (GPa) = 65.23045 68.55418 66.89231
# Shear Modulus (GPa) = 23.45627 27.58487 25.52057
#
# Velocity S-wave (km/s) = 3.50405 3.79994 3.65499
# Velocity P-wave (km/s) = 7.10750 7.42549 7.26823
#
# Compressibility (1/GPa) = 0.01533026
#
# Stress axis : x y z
#
# Youngs Moduli (GPa) = 76.42292 50.76324 70.76377
#
# Poissons Ratio (x) = 0.40880 0.21671
# Poissons Ratio (y) = 0.61543 0.33099
# Poissons Ratio (z) = 0.23404 0.23744
#
# Static dielectric constant tensor:
#      x y z
#    x 1.833360 0.000000 0.031740 
#    y 0.000000 1.667200 0.000000 
#    z 0.031740 0.000000 1.726620 
# 
# From -- ./inp_files/152008.got.cif
#   From: 2010.05.17/outbox.cif.g08.bks.cpg/sg15_77_cif.got.tgz:152008.got - 2010.06.03 18:47:42.
