data_PCOD9283464
_publ_section_title
;
Structure prediction by ZEFSAII (Michael W. Deem and Ramdas Pophale) SiO2 
 PCOD9283464
Probable space group: C 2/C
;
_chemical_formula_sum "Si O2"
_cell_formula_units_Z 40
_cell_length_a 14.363602
_cell_length_b 7.423838
_cell_length_c 25.249547
_cell_angle_alpha 90.000000
_cell_angle_beta 48.855650
_cell_angle_gamma 90.000000
_cell_volume 2027.550808
_symmetry_space_group_name_H-M "C 2/C"
_symmetry_group_IT_number 15
_symmetry_cell_setting 'monoclinic'
loop_
_space_group_symop_operation_xyz
x,y,z
-x,y,1/2-z
-x,-y,-z
x,-y,1/2+z
1/2+x,1/2+y,z
1/2-x,1/2+y,1/2-z
1/2-x,1/2-y,-z
1/2+x,1/2-y,1/2+z
loop_
_atom_site_type_symbol
_atom_site_label
_atom_site_fract_x
_atom_site_fract_y
_atom_site_fract_z
Si Si1 0.208470 0.455079 0.011121
Si Si2 0.940207 0.532737 0.579101
Si Si3 0.749803 0.166677 0.177059
Si Si4 0.843359 0.232837 0.895702
Si Si5 0.375036 0.701651 0.668119
O O1 0.234072 0.605191 0.046606
O O2 0.061115 0.445905 0.069629
O O3 0.250000 0.250000 0.000000
O O4 0.264756 0.551307 0.937659
O O5 0.860534 0.709527 0.614467
O O6 0.867093 0.361333 0.628247
O O7 0.000000 0.500000 0.500000
O O8 0.650741 0.197623 0.166865
O O9 0.695760 0.242805 0.251972
O O10 0.809280 0.972996 0.167776
O O11 0.978807 0.190322 0.870190
#
# Coordination Sequence:
#
# PCOD9283464 Si02
#       5
#     8   8   8   8   8
#     4  10  21  40  61  96 134 164 220 275 323 405
#     4  11  23  41  66  98 129 170 223 271 331 404
#     4  12  23  43  69  92 136 176 217 281 336 396
#     4  10  23  40  64  95 129 172 219 274 332 392
#     4  11  25  43  65  97 133 175 224 272 339 400
#
# _framework density 19.728235000000002
#
# number of rings (size 3 to 8) (size 9 to 14) (size 15 to 20)
#    0.000    1.200    4.000    1.800    2.800    0.800 
#    0.000    0.000    0.000    0.000    0.000    0.000 
#    0.000    0.000    0.000    0.000    0.000    0.000 
#
# Total GULP energy -111415.212836 kJ/mol
# GULP energy per Si atom -5570.760642 kJ/mol
# Density = 1.968333 g / cm^3
# Si number density = 19.728235 Si / 1000 Ang^3
#
#
#
# Elastic Constant Matrix: (Units=GPa)
#
#
# Indices 1 2 3 4 5 6 
#
# 1 44.2032 28.3059 -5.8404 -0.0001 9.3936 -0.0005
# 2 28.3059 158.4128 32.7933 -0.0003 13.7377 -0.0009
# 3 -5.8404 32.7933 80.1362 0.0000 26.9853 -0.0002
# 4 -0.0001 -0.0003 0.0000 39.5820 0.0000 -2.6294
# 5 9.3936 13.7377 26.9853 0.0000 41.5300 -0.0001
# 6 -0.0005 -0.0009 -0.0002 -2.6294 -0.0001 21.4508
#
#
#
# Elastic Compliance Matrix: (Units=1/GPa)
#
#
# Indices 1 2 3 4 5 6 
#
# 1 0.029687 -0.006101 0.007990 0.000000 -0.009889 0.000001
# 2 -0.006101 0.008161 -0.004276 0.000000 0.001458 0.000000
# 3 0.007990 -0.004276 0.019129 0.000000 -0.012822 0.000000
# 4 0.000000 0.000000 0.000000 0.025471 0.000000 0.003122
# 5 -0.009889 0.001458 -0.012822 0.000000 0.034165 0.000000
# 6 0.000001 0.000000 0.000000 0.003122 0.000000 0.047001
#
#
# Mechanical properties :
#
#
# Convention : Reuss Voigt Hill
#
# Bulk Modulus (GPa) = 19.15570 43.69664 31.42617
# Shear Modulus (GPa) = 26.91233 35.67878 31.29555
#
# Velocity S-wave (km/s) = 3.69745 4.25728 3.98720
# Velocity P-wave (km/s) = 5.28763 6.80906 6.09599
#
# Compressibility (1/GPa) = 0.05220378
#
# Stress axis : x y z
#
# Youngs Moduli (GPa) = 33.68500 122.52784 52.27780
#
# Poissons Ratio (x) = 0.74755 -0.41771
# Poissons Ratio (y) = 0.20552 0.22352
# Poissons Ratio (z) = -0.26915 0.52388
#
# Static dielectric constant tensor:
#      x y z
#    x 1.857040 0.000000 0.020640 
#    y 0.000000 1.694070 0.000000 
#    z 0.020640 0.000000 1.693350 
# 
# From -- ./inp_files/208046.got.cif
#   From: 2010.05.17/outbox.cif.g08.bks.cpg/sg15_105_cif.got.tgz:208046.got - 2010.06.03 18:47:42.
