data_PCOD9283450
_publ_section_title
;
Structure prediction by ZEFSAII (Michael W. Deem and Ramdas Pophale) SiO2 
 PCOD9283450
Probable space group: C 2/C
;
_chemical_formula_sum "Si O2"
_cell_formula_units_Z 56
_cell_length_a 11.578800
_cell_length_b 28.424203
_cell_length_c 8.655856
_cell_angle_alpha 90.000000
_cell_angle_beta 64.141434
_cell_angle_gamma 90.000000
_cell_volume 2563.558875
_symmetry_space_group_name_H-M "C 2/C"
_symmetry_group_IT_number 15
_symmetry_cell_setting 'monoclinic'
loop_
_space_group_symop_operation_xyz
x,y,z
-x,y,1/2-z
-x,-y,-z
x,-y,1/2+z
1/2+x,1/2+y,z
1/2-x,1/2+y,1/2-z
1/2-x,1/2-y,-z
1/2+x,1/2-y,1/2+z
loop_
_atom_site_type_symbol
_atom_site_label
_atom_site_fract_x
_atom_site_fract_y
_atom_site_fract_z
Si Si1 0.344496 0.167283 0.990903
Si Si2 0.857126 0.840260 0.386064
Si Si3 0.612277 0.797705 0.380834
Si Si4 0.106988 0.192312 0.311515
Si Si5 0.798836 0.483120 0.765952
Si Si6 0.149975 0.945730 0.131874
Si Si7 0.392499 0.066464 0.929954
O O1 0.240990 0.196117 0.145708
O O2 0.353298 0.188598 0.815103
O O3 0.484153 0.172122 0.990286
O O4 0.304138 0.112464 0.003067
O O5 0.737388 0.807776 0.410116
O O6 0.872583 0.843294 0.560826
O O7 0.824773 0.891681 0.336537
O O8 0.000000 0.825337 0.250000
O O9 0.574008 0.743043 0.403185
O O10 0.000000 0.178729 0.250000
O O11 0.720743 0.515732 0.693563
O O12 0.856029 0.521152 0.850378
O O13 0.900419 0.453819 0.601294
O O14 0.703098 0.452492 0.927031
O O15 0.000000 0.953031 0.250000
O O16 0.500000 0.087327 0.750000
#
# Coordination Sequence:
#
# PCOD9283450 Si02
#       7
#     8   8   8   8   8   8   8
#     4  11  23  41  70  94 132 173 217 269 325 389
#     4  11  25  42  65  94 132 169 216 274 324 386
#     4  11  23  43  65  93 129 171 213 272 327 383
#     4  12  25  43  67  97 127 172 223 266 323 392
#     4  10  22  37  64  88 129 167 212 265 315 395
#     4  10  21  40  61  93 126 166 213 261 327 381
#     4  11  21  40  59  94 125 168 216 260 327 377
#
# _framework density 21.844631
#
# number of rings (size 3 to 8) (size 9 to 14) (size 15 to 20)
#    0.000    1.143    2.857    4.286    2.000    1.714 
#    0.000    3.571    0.000    0.000    0.000    0.000 
#    0.000    0.000    0.000    0.000    0.000    0.000 
#
# Total GULP energy -156151.936645 kJ/mol
# GULP energy per Si atom -5576.854880 kJ/mol
# Density = 2.179491 g / cm^3
# Si number density = 21.844631 Si / 1000 Ang^3
#
#
#
# Elastic Constant Matrix: (Units=GPa)
#
#
# Indices 1 2 3 4 5 6 
#
# 1 85.5102 -4.8743 31.4120 0.0000 -1.6463 0.0000
# 2 -4.8743 63.0659 -3.4340 0.0000 3.6312 0.0000
# 3 31.4120 -3.4340 101.7537 0.0000 -6.1486 0.0000
# 4 0.0000 0.0000 0.0000 17.2817 0.0000 5.3993
# 5 -1.6463 3.6312 -6.1486 0.0000 25.8947 0.0000
# 6 0.0000 0.0000 0.0000 5.3993 0.0000 26.7370
#
#
#
# Elastic Compliance Matrix: (Units=1/GPa)
#
#
# Indices 1 2 3 4 5 6 
#
# 1 0.013232 0.000815 -0.004072 0.000000 -0.000240 0.000000
# 2 0.000815 0.016053 0.000160 0.000000 -0.002161 0.000000
# 3 -0.004072 0.000160 0.011234 0.000000 0.002386 0.000000
# 4 0.000000 0.000000 0.000000 0.061761 0.000000 -0.012472
# 5 -0.000240 -0.002161 0.002386 0.000000 0.039472 0.000000
# 6 0.000000 0.000000 0.000000 -0.012472 0.000000 0.039920
#
#
# Mechanical properties :
#
#
# Convention : Reuss Voigt Hill
#
# Bulk Modulus (GPa) = 29.13411 32.94859 31.04135
# Shear Modulus (GPa) = 25.08671 29.13108 27.10889
#
# Velocity S-wave (km/s) = 3.39250 3.65575 3.52659
# Velocity P-wave (km/s) = 5.35830 5.73893 5.55188
#
# Compressibility (1/GPa) = 0.03432402
#
# Stress axis : x y z
#
# Youngs Moduli (GPa) = 75.57366 62.29541 89.01364
#
# Poissons Ratio (x) = -0.05076 0.36245
# Poissons Ratio (y) = -0.06158 -0.01421
# Poissons Ratio (z) = 0.30772 -0.00994
#
# Static dielectric constant tensor:
#      x y z
#    x 1.811180 0.000000 -0.011060 
#    y 0.000000 1.803920 0.000000 
#    z -0.011060 0.000000 1.836870 
# 
# From -- ./inp_files/34346.got.cif
#   From: 2010.05.17/outbox.cif.g08.bks.cpg/sg15_18_cif.got.tgz:34346.got - 2010.06.03 18:47:42.
