data_PCOD9283885
_publ_section_title
;
Structure prediction by ZEFSAII (Michael W. Deem and Ramdas Pophale) SiO2 
 PCOD9283885
Probable space group: C 2/C
;
_chemical_formula_sum "Si O2"
_cell_formula_units_Z 52
_cell_length_a 11.547559
_cell_length_b 12.462067
_cell_length_c 19.927717
_cell_angle_alpha 90.000000
_cell_angle_beta 132.942530
_cell_angle_gamma 90.000000
_cell_volume 2099.283498
_symmetry_space_group_name_H-M "C 2/C"
_symmetry_group_IT_number 15
_symmetry_cell_setting 'monoclinic'
loop_
_space_group_symop_operation_xyz
x,y,z
-x,y,1/2-z
-x,-y,-z
x,-y,1/2+z
1/2+x,1/2+y,z
1/2-x,1/2+y,1/2-z
1/2-x,1/2-y,-z
1/2+x,1/2-y,1/2+z
loop_
_atom_site_type_symbol
_atom_site_label
_atom_site_fract_x
_atom_site_fract_y
_atom_site_fract_z
Si Si1 0.589998 0.213006 0.679238
Si Si2 0.723089 0.493579 0.502512
Si Si3 0.933728 0.508134 0.398793
Si Si4 0.114292 0.173465 0.061509
Si Si5 0.653501 0.237942 0.128565
Si Si6 0.591314 0.679604 0.856433
Si Si7 0.750000 0.250000 0.000000
O O1 0.641434 0.312792 0.651358
O O2 0.686411 0.207316 0.785230
O O3 0.403915 0.224956 0.608959
O O4 0.629801 0.104620 0.652727
O O5 0.638358 0.439938 0.534171
O O6 0.648729 0.432531 0.409506
O O7 0.713612 0.618386 0.483693
O O8 0.909351 0.466561 0.582542
O O9 0.823308 0.611047 0.357748
O O10 0.000000 0.500000 0.500000
O O11 0.251080 0.248179 0.084598
O O12 0.939589 0.228264 0.976590
O O13 0.527957 0.272706 0.135599
O O14 0.500000 0.674646 0.750000
#
# Coordination Sequence:
#
# PCOD9283885 Si02
#       7
#     8   8   8   8   8   8   4
#     4  11  24  41  64  91 130 177 223 267 335 394
#     4  10  21  40  65  90 133 173 214 270 331 395
#     4  11  20  39  66  93 133 175 204 275 342 395
#     4  11  20  40  68 101 123 166 213 290 329 378
#     4  11  21  36  65 102 129 160 222 271 330 402
#     4  11  19  35  68 106 127 155 213 284 341 381
#     4  10  26  46  54  88 134 186 218 266 326 416
#
# _framework density 24.770354999999999
#
# number of rings (size 3 to 8) (size 9 to 14) (size 15 to 20)
#    0.000    1.231    6.154    0.923    0.000    3.077 
#    0.000    0.769    0.000    4.615    0.000    0.000 
#    0.000    0.000    0.000    0.000    0.000    0.000 
#
# Total GULP energy -145026.720847 kJ/mol
# GULP energy per Si atom -5577.950802 kJ/mol
# Density = 2.471398 g / cm^3
# Si number density = 24.770355 Si / 1000 Ang^3
#
#
#
# Elastic Constant Matrix: (Units=GPa)
#
#
# Indices 1 2 3 4 5 6 
#
# 1 43.8801 11.3268 26.4950 0.0000 -1.6619 0.0000
# 2 11.3268 156.7693 28.5923 0.0000 -1.9620 0.0000
# 3 26.4950 28.5923 132.5610 0.0000 4.3908 0.0000
# 4 0.0000 0.0000 0.0000 27.4668 0.0000 8.1763
# 5 -1.6619 -1.9620 4.3908 0.0000 49.9417 0.0000
# 6 0.0000 0.0000 0.0000 8.1763 0.0000 24.2941
#
#
#
# Elastic Compliance Matrix: (Units=1/GPa)
#
#
# Indices 1 2 3 4 5 6 
#
# 1 0.026139 -0.000949 -0.005062 0.000000 0.001278 0.000000
# 2 -0.000949 0.006682 -0.001263 0.000000 0.000342 0.000000
# 3 -0.005062 -0.001263 0.008861 0.000000 -0.000997 0.000000
# 4 0.000000 0.000000 0.000000 0.040461 0.000000 -0.013618
# 5 0.001278 0.000342 -0.000997 0.000000 0.020167 0.000000
# 6 0.000000 0.000000 0.000000 -0.013618 0.000000 0.045745
#
#
# Mechanical properties :
#
#
# Convention : Reuss Voigt Hill
#
# Bulk Modulus (GPa) = 36.85450 51.78205 44.31828
# Shear Modulus (GPa) = 29.12926 38.12693 33.62810
#
# Velocity S-wave (km/s) = 3.43297 3.92754 3.68855
# Velocity P-wave (km/s) = 5.53394 6.44342 6.00592
#
# Compressibility (1/GPa) = 0.02713373
#
# Stress axis : x y z
#
# Youngs Moduli (GPa) = 38.25657 149.65598 112.85611
#
# Poissons Ratio (x) = 0.14208 0.57128
# Poissons Ratio (y) = 0.03632 0.14252
# Poissons Ratio (z) = 0.19365 0.18899
#
# Static dielectric constant tensor:
#      x y z
#    x 0.192040 0.000000 0.701360 
#    y 0.000000 2.133770 0.000000 
#    z 0.701360 0.000000 1.628320 
# 
# From -- ./inp_files/273901.got.cif
#   From: 2010.05.17/outbox.cif.g08.bks.cpg/sg15_137_cif.got.tgz:273901.got - 2010.06.03 18:47:42.
