data_PCOD9283225
_publ_section_title
;
Structure prediction by ZEFSAII (Michael W. Deem and Ramdas Pophale) SiO2 
 PCOD9283225
Probable space group: C 2/C
;
_chemical_formula_sum "Si O2"
_cell_formula_units_Z 52
_cell_length_a 25.216562
_cell_length_b 11.721941
_cell_length_c 9.259988
_cell_angle_alpha 90.000000
_cell_angle_beta 113.883662
_cell_angle_gamma 90.000000
_cell_volume 2502.750374
_symmetry_space_group_name_H-M "C 2/C"
_symmetry_group_IT_number 15
_symmetry_cell_setting 'monoclinic'
loop_
_space_group_symop_operation_xyz
x,y,z
-x,y,1/2-z
-x,-y,-z
x,-y,1/2+z
1/2+x,1/2+y,z
1/2-x,1/2+y,1/2-z
1/2-x,1/2-y,-z
1/2+x,1/2-y,1/2+z
loop_
_atom_site_type_symbol
_atom_site_label
_atom_site_fract_x
_atom_site_fract_y
_atom_site_fract_z
Si Si1 0.047973 0.862732 0.177116
Si Si2 0.268656 0.123242 0.983256
Si Si3 0.201265 0.003669 0.654569
Si Si4 0.875456 0.913681 0.690894
Si Si5 0.462743 0.754766 0.395327
Si Si6 0.500000 0.042038 0.750000
Si Si7 0.903940 0.349875 0.617091
O O1 0.084111 0.747513 0.249870
O O2 0.000000 0.874198 0.250000
O O3 0.088071 0.972476 0.230230
O O4 0.010821 0.838561 0.993148
O O5 0.337214 0.117000 0.036701
O O6 0.247593 0.049135 0.095984
O O7 0.250000 0.250000 0.000000
O O8 0.233395 0.084354 0.803400
O O9 0.155866 0.065094 0.496331
O O10 0.169394 0.910692 0.722850
O O11 0.917694 0.805478 0.738376
O O12 0.492775 0.869504 0.373216
O O13 0.426333 0.790363 0.495655
O O14 0.444746 0.959181 0.685579
#
# Coordination Sequence:
#
# PCOD9283225 Si02
#       7
#     8   8   8   8   8   4   8
#     4  10  21  39  69  95 132 173 213 274 347 404
#     4  11  24  46  73  98 134 183 230 283 347 395
#     4  10  24  44  65 104 129 174 233 280 343 406
#     4  11  22  42  69  98 140 165 223 292 342 404
#     4  11  24  39  63 100 131 175 223 273 333 417
#     4  12  26  40  62  96 136 174 230 256 336 410
#     4  11  23  45  66  89 137 180 218 277 338 403
#
# _framework density 20.777142999999999
#
# number of rings (size 3 to 8) (size 9 to 14) (size 15 to 20)
#    0.000    1.231    2.308    5.538    5.385    0.000 
#    2.769    2.308    0.000    0.000    0.000    0.000 
#    0.000    0.000    0.000    0.000    0.000    0.000 
#
# Total GULP energy -145358.426945 kJ/mol
# GULP energy per Si atom -5590.708729 kJ/mol
# Density = 2.072985 g / cm^3
# Si number density = 20.777143 Si / 1000 Ang^3
#
#
#
# Elastic Constant Matrix: (Units=GPa)
#
#
# Indices 1 2 3 4 5 6 
#
# 1 86.7874 38.7963 46.9614 0.0000 16.8701 0.0000
# 2 38.7963 97.5289 31.3387 0.0000 12.4303 0.0000
# 3 46.9614 31.3387 101.6272 0.0000 -0.4641 0.0000
# 4 0.0000 0.0000 0.0000 28.3345 0.0000 12.0419
# 5 16.8701 12.4303 -0.4641 0.0000 32.5653 0.0000
# 6 0.0000 0.0000 0.0000 12.0419 0.0000 21.1095
#
#
#
# Elastic Compliance Matrix: (Units=1/GPa)
#
#
# Indices 1 2 3 4 5 6 
#
# 1 0.019105 -0.004078 -0.007610 0.000000 -0.008449 0.000000
# 2 -0.004078 0.012917 -0.002112 0.000000 -0.002848 0.000000
# 3 -0.007610 -0.002112 0.014030 0.000000 0.004948 0.000000
# 4 0.000000 0.000000 0.000000 0.046587 0.000000 -0.026575
# 5 -0.008449 -0.002848 0.004948 0.000000 0.036242 0.000000
# 6 0.000000 0.000000 0.000000 -0.026575 0.000000 0.062532
#
#
# Mechanical properties :
#
#
# Convention : Reuss Voigt Hill
#
# Bulk Modulus (GPa) = 54.18933 57.79294 55.99113
# Shear Modulus (GPa) = 22.20609 27.65834 24.93222
#
# Velocity S-wave (km/s) = 3.27276 3.65251 3.46784
# Velocity P-wave (km/s) = 6.35760 6.75750 6.56060
#
# Compressibility (1/GPa) = 0.01845382
#
# Stress axis : x y z
#
# Youngs Moduli (GPa) = 52.34142 77.41659 71.27560
#
# Poissons Ratio (x) = 0.31570 0.54238
# Poissons Ratio (y) = 0.21344 0.15052
# Poissons Ratio (z) = 0.39829 0.16349
#
# Static dielectric constant tensor:
#      x y z
#    x 1.744740 0.000000 0.002430 
#    y 0.000000 1.701940 0.000000 
#    z 0.002430 0.000000 1.746900 
# 
# From -- ./inp_files/65611.got.cif
#   From: 2010.05.17/outbox.cif.g08.bks.cpg/sg15_33_cif.got.tgz:65611.got - 2010.06.03 18:47:42.
