data_PCOD9283309
_publ_section_title
;
Structure prediction by ZEFSAII (Michael W. Deem and Ramdas Pophale) SiO2 
 PCOD9283309
Probable space group: C 2/C
;
_chemical_formula_sum "Si O2"
_cell_formula_units_Z 40
_cell_length_a 9.329397
_cell_length_b 17.640909
_cell_length_c 19.243367
_cell_angle_alpha 90.000000
_cell_angle_beta 37.608683
_cell_angle_gamma 90.000000
_cell_volume 1932.743495
_symmetry_space_group_name_H-M "C 2/C"
_symmetry_group_IT_number 15
_symmetry_cell_setting 'monoclinic'
loop_
_space_group_symop_operation_xyz
x,y,z
-x,y,1/2-z
-x,-y,-z
x,-y,1/2+z
1/2+x,1/2+y,z
1/2-x,1/2+y,1/2-z
1/2-x,1/2-y,-z
1/2+x,1/2-y,1/2+z
loop_
_atom_site_type_symbol
_atom_site_label
_atom_site_fract_x
_atom_site_fract_y
_atom_site_fract_z
Si Si1 0.446944 0.314977 0.935541
Si Si2 0.598121 0.355975 0.025911
Si Si3 0.394035 0.208193 0.178585
Si Si4 0.309858 0.432568 0.375575
Si Si5 0.706139 0.894943 0.908637
O O1 0.704906 0.286284 0.812621
O O2 0.368467 0.378068 0.911153
O O3 0.250000 0.250000 0.000000
O O4 0.455882 0.350127 0.008973
O O5 0.492660 0.287963 0.113340
O O6 0.603594 0.426241 0.077591
O O7 0.868804 0.340054 0.900221
O O8 0.265146 0.164150 0.164736
O O9 0.500000 0.400546 0.250000
O O10 0.249501 0.517562 0.373464
O O11 0.067081 0.387012 0.465887
#
# Coordination Sequence:
#
# PCOD9283309 Si02
#       5
#     8   8   8   8   8
#     4  12  23  36  60  92 124 156 196 262 303 357
#     4  10  23  37  61  92 116 159 205 254 303 355
#     4  10  21  40  59  84 126 159 203 245 308 370
#     4  10  22  41  64  85 123 166 205 245 299 377
#     4  10  22  41  62  90 119 168 205 239 312 367
#
# _framework density 20.695969999999999
#
# number of rings (size 3 to 8) (size 9 to 14) (size 15 to 20)
#    0.000    1.600    2.000    2.400    2.800    0.800 
#    0.000    0.000    0.000    0.000    0.000    0.000 
#    0.000    0.000    0.000    0.000    0.000    0.000 
#
# Total GULP energy -111569.383595 kJ/mol
# GULP energy per Si atom -5578.469180 kJ/mol
# Density = 2.064886 g / cm^3
# Si number density = 20.695970 Si / 1000 Ang^3
#
#
#
# Elastic Constant Matrix: (Units=GPa)
#
#
# Indices 1 2 3 4 5 6 
#
# 1 95.9744 -5.7582 18.8604 -0.0018 1.3955 -0.0008
# 2 -5.7582 39.5744 4.6973 0.0135 -2.8159 -0.0022
# 3 18.8604 4.6973 143.9300 -0.0060 -10.5325 0.0004
# 4 -0.0018 0.0135 -0.0060 3.3515 0.0038 2.7015
# 5 1.3955 -2.8159 -10.5325 0.0038 20.6784 0.0014
# 6 -0.0008 -0.0022 0.0004 2.7015 0.0014 32.5377
#
#
#
# Elastic Compliance Matrix: (Units=1/GPa)
#
#
# Indices 1 2 3 4 5 6 
#
# 1 0.010848 0.001672 -0.001572 -0.000003 -0.001305 0.000001
# 2 0.001672 0.025824 -0.000844 -0.000117 0.002974 0.000011
# 3 -0.001572 -0.000844 0.007459 0.000013 0.003790 -0.000001
# 4 -0.000003 -0.000117 0.000013 0.319774 -0.000066 -0.026550
# 5 -0.001305 0.002974 0.003790 -0.000066 0.050783 0.000003
# 6 0.000001 0.000011 -0.000001 -0.026550 0.000003 0.032938
#
#
# Mechanical properties :
#
#
# Convention : Reuss Voigt Hill
#
# Bulk Modulus (GPa) = 23.45065 35.00865 29.22965
# Shear Modulus (GPa) = 10.79152 28.75881 19.77516
#
# Velocity S-wave (km/s) = 2.28596 3.73176 3.09448
# Velocity P-wave (km/s) = 4.28055 5.95990 5.18862
#
# Compressibility (1/GPa) = 0.04264273
#
# Stress axis : x y z
#
# Youngs Moduli (GPa) = 92.18665 38.72366 134.07236
#
# Poissons Ratio (x) = -0.06475 0.21070
# Poissons Ratio (y) = -0.15414 0.11320
# Poissons Ratio (z) = 0.14487 0.03269
#
# Static dielectric constant tensor:
#      x y z
#    x 1.759130 0.000000 -0.008140 
#    y 0.000000 1.752800 0.000000 
#    z -0.008140 0.000000 1.793140 
# 
# From -- ./inp_files/76656.got.cif
#   From: 2010.05.17/outbox.cif.g08.bks.cpg/sg15_39_cif.got.tgz:76656.got - 2010.06.03 18:47:42.
