data_PCOD9283813
_publ_section_title
;
Structure prediction by ZEFSAII (Michael W. Deem and Ramdas Pophale) SiO2 
 PCOD9283813
Probable space group: C 2/C
;
_chemical_formula_sum "Si O2"
_cell_formula_units_Z 44
_cell_length_a 11.861995
_cell_length_b 27.079190
_cell_length_c 8.112875
_cell_angle_alpha 90.000000
_cell_angle_beta 45.340068
_cell_angle_gamma 90.000000
_cell_volume 1853.598309
_symmetry_space_group_name_H-M "C 2/C"
_symmetry_group_IT_number 15
_symmetry_cell_setting 'monoclinic'
loop_
_space_group_symop_operation_xyz
x,y,z
-x,y,1/2-z
-x,-y,-z
x,-y,1/2+z
1/2+x,1/2+y,z
1/2-x,1/2+y,1/2-z
1/2-x,1/2-y,-z
1/2+x,1/2-y,1/2+z
loop_
_atom_site_type_symbol
_atom_site_label
_atom_site_fract_x
_atom_site_fract_y
_atom_site_fract_z
Si Si1 0.825108 0.791043 0.537998
Si Si2 0.976339 0.278964 0.463435
Si Si3 0.522629 0.117065 0.030966
Si Si4 0.000000 0.118039 0.750000
Si Si5 0.828140 0.533682 0.833024
Si Si6 0.701209 0.435533 0.787912
O O1 0.750000 0.750000 0.500000
O O2 0.857305 0.841764 0.408149
O O3 0.976393 0.766665 0.469662
O O4 0.701974 0.794352 0.813559
O O5 0.070477 0.328591 0.419121
O O6 0.000000 0.267290 0.250000
O O7 0.500000 0.116749 0.250000
O O8 0.349186 0.102313 0.140995
O O9 0.638465 0.075241 0.839479
O O10 0.047064 0.084738 0.543584
O O11 0.767857 0.483427 0.814872
O O12 0.000000 0.526076 0.750000
O O13 0.697509 0.550512 0.100206
#
# Coordination Sequence:
#
# PCOD9283813 Si02
#       6
#     8   8   8   4   8   8
#     4  12  24  47  69 100 137 184 231 282 345 415
#     4  12  25  43  70 104 140 178 227 291 345 408
#     4  11  21  37  68 100 124 171 223 277 338 407
#     4  12  26  40  70  90 136 180 230 280 344 406
#     4  10  21  40  64  95 130 166 222 279 338 410
#     4  11  22  40  62  93 133 171 221 276 338 406
#
# _framework density 23.737615000000002
#
# number of rings (size 3 to 8) (size 9 to 14) (size 15 to 20)
#    0.000    0.727    3.636    7.091    0.000    0.727 
#    0.000    0.000    0.000    0.000    0.000    0.000 
#    0.000    0.000    0.000    0.000    0.000    0.000 
#
# Total GULP energy -122897.175227 kJ/mol
# GULP energy per Si atom -5586.235238 kJ/mol
# Density = 2.368359 g / cm^3
# Si number density = 23.737615 Si / 1000 Ang^3
#
#
#
# Elastic Constant Matrix: (Units=GPa)
#
#
# Indices 1 2 3 4 5 6 
#
# 1 45.6765 17.2055 31.5998 0.0000 13.4317 0.0000
# 2 17.2055 111.6099 45.5933 0.0000 9.4265 0.0000
# 3 31.5998 45.5933 186.6144 0.0000 10.7994 0.0000
# 4 0.0000 0.0000 0.0000 54.4885 0.0000 1.0497
# 5 13.4317 9.4265 10.7994 0.0000 42.8539 0.0000
# 6 0.0000 0.0000 0.0000 1.0497 0.0000 6.6027
#
#
#
# Elastic Compliance Matrix: (Units=1/GPa)
#
#
# Indices 1 2 3 4 5 6 
#
# 1 0.027357 -0.002098 -0.003704 0.000000 -0.007180 0.000000
# 2 -0.002098 0.010223 -0.002081 0.000000 -0.001067 0.000000
# 3 -0.003704 -0.002081 0.006495 0.000000 -0.000018 0.000000
# 4 0.000000 0.000000 0.000000 0.018409 0.000000 -0.002927
# 5 -0.007180 -0.001067 -0.000018 0.000000 0.025825 0.000000
# 6 0.000000 0.000000 0.000000 -0.002927 0.000000 0.151918
#
#
# Mechanical properties :
#
#
# Convention : Reuss Voigt Hill
#
# Bulk Modulus (GPa) = 35.32308 59.18865 47.25586
# Shear Modulus (GPa) = 18.83737 37.42251 28.12994
#
# Velocity S-wave (km/s) = 2.82009 3.97483 3.44617
# Velocity P-wave (km/s) = 5.05142 6.78634 5.98211
#
# Compressibility (1/GPa) = 0.02831010
#
# Stress axis : x y z
#
# Youngs Moduli (GPa) = 36.55332 97.81601 153.95633
#
# Poissons Ratio (x) = 0.20518 0.57033
# Poissons Ratio (y) = 0.07668 0.32035
# Poissons Ratio (z) = 0.13541 0.20353
#
# Static dielectric constant tensor:
#      x y z
#    x 1.932780 0.000000 -0.070500 
#    y 0.000000 1.925760 0.000000 
#    z -0.070500 0.000000 1.980200 
# 
# From -- ./inp_files/43343.got.cif
#   From: 2010.05.17/outbox.cif.g08.bks.cpg/sg15_22_cif.got.tgz:43343.got - 2010.06.03 18:47:42.
