data_PCOD9283176
_publ_section_title
;
Structure prediction by ZEFSAII (Michael W. Deem and Ramdas Pophale) SiO2 
 PCOD9283176
Probable space group: C 2/C
;
_chemical_formula_sum "Si O2"
_cell_formula_units_Z 44
_cell_length_a 16.073540
_cell_length_b 9.006510
_cell_length_c 14.769946
_cell_angle_alpha 90.000000
_cell_angle_beta 95.531402
_cell_angle_gamma 90.000000
_cell_volume 2128.236912
_symmetry_space_group_name_H-M "C 2/C"
_symmetry_group_IT_number 15
_symmetry_cell_setting 'monoclinic'
loop_
_space_group_symop_operation_xyz
x,y,z
-x,y,1/2-z
-x,-y,-z
x,-y,1/2+z
1/2+x,1/2+y,z
1/2-x,1/2+y,1/2-z
1/2-x,1/2-y,-z
1/2+x,1/2-y,1/2+z
loop_
_atom_site_type_symbol
_atom_site_label
_atom_site_fract_x
_atom_site_fract_y
_atom_site_fract_z
Si Si1 0.000000 0.641035 0.250000
Si Si2 0.468802 0.920538 0.405210
Si Si3 0.438812 0.617995 0.107686
Si Si4 0.636417 0.632580 0.783030
Si Si5 0.882970 0.960450 0.408686
Si Si6 0.292454 0.759071 0.406954
O O1 0.038122 0.536404 0.177024
O O2 0.067531 0.747051 0.306434
O O3 0.532582 0.788515 0.381013
O O4 0.379206 0.847612 0.416140
O O5 0.500000 0.000000 0.500000
O O6 0.394157 0.529862 0.185044
O O7 0.525019 0.528745 0.099065
O O8 0.383970 0.599807 0.010681
O O9 0.634150 0.649643 0.674835
O O10 0.725785 0.669746 0.832724
O O11 0.816804 0.090848 0.387300
O O12 0.250000 0.750000 0.500000
#
# Coordination Sequence:
#
# PCOD9283176 Si02
#       6
#     4   8   8   8   8   8
#     4  12  26  42  70 100 140 176 230 290 344 408
#     4  11  26  45  67 102 138 176 227 294 350 402
#     4  10  21  42  70  94 127 180 233 265 337 423
#     4  12  23  43  70 100 133 182 232 277 346 414
#     4  10  21  39  68  96 128 177 226 272 330 415
#     4  11  24  43  68 100 139 175 225 291 345 402
#
# _framework density 20.674389999999999
#
# number of rings (size 3 to 8) (size 9 to 14) (size 15 to 20)
#    0.000    1.091    3.636    2.182   10.182    0.000 
#    0.000    0.909    0.000    0.000    0.000    0.000 
#    0.000    0.000    0.000    0.000    0.000    0.000 
#
# Total GULP energy -122915.892407 kJ/mol
# GULP energy per Si atom -5587.086019 kJ/mol
# Density = 2.062733 g / cm^3
# Si number density = 20.674390 Si / 1000 Ang^3
#
#
#
# Elastic Constant Matrix: (Units=GPa)
#
#
# Indices 1 2 3 4 5 6 
#
# 1 74.4686 38.6402 17.5766 0.0000 10.4143 0.0000
# 2 38.6402 107.5020 26.7528 0.0000 6.8096 0.0000
# 3 17.5766 26.7528 105.1333 0.0000 5.6279 0.0000
# 4 0.0000 0.0000 0.0000 32.2523 0.0000 -1.6076
# 5 10.4143 6.8096 5.6279 0.0000 34.7107 0.0000
# 6 0.0000 0.0000 0.0000 -1.6076 0.0000 35.0930
#
#
#
# Elastic Compliance Matrix: (Units=1/GPa)
#
#
# Indices 1 2 3 4 5 6 
#
# 1 0.017176 -0.005622 -0.001235 0.000000 -0.003850 0.000000
# 2 -0.005622 0.011855 -0.002060 0.000000 -0.000305 0.000000
# 3 -0.001235 -0.002060 0.010290 0.000000 -0.000894 0.000000
# 4 0.000000 0.000000 0.000000 0.031076 0.000000 0.001424
# 5 -0.003850 -0.000305 -0.000894 0.000000 0.030169 0.000000
# 6 0.000000 0.000000 0.000000 0.001424 0.000000 0.028561
#
#
# Mechanical properties :
#
#
# Convention : Reuss Voigt Hill
#
# Bulk Modulus (GPa) = 46.54189 50.33814 48.44002
# Shear Modulus (GPa) = 32.44118 34.02014 33.23066
#
# Velocity S-wave (km/s) = 3.96554 4.06090 4.01351
# Velocity P-wave (km/s) = 6.59758 6.81093 6.70511
#
# Compressibility (1/GPa) = 0.02148602
#
# Stress axis : x y z
#
# Youngs Moduli (GPa) = 58.22184 84.35169 97.17883
#
# Poissons Ratio (x) = 0.47426 0.11998
# Poissons Ratio (y) = 0.32735 0.20023
# Poissons Ratio (z) = 0.07189 0.17380
#
# Static dielectric constant tensor:
#      x y z
#    x 1.682920 0.000000 0.023530 
#    y 0.000000 1.771170 0.000000 
#    z 0.023530 0.000000 1.700960 
# 
# From -- ./inp_files/159441.got.cif
#   From: 2010.05.17/outbox.cif.g08.bks.cpg/sg15_80_cif.got.tgz:159441.got - 2010.06.03 18:47:42.
