data_PCOD9283884
_publ_section_title
;
Structure prediction by ZEFSAII (Michael W. Deem and Ramdas Pophale) SiO2 
 PCOD9283884
Probable space group: C 2/C
;
_chemical_formula_sum "Si O2"
_cell_formula_units_Z 40
_cell_length_a 4.805126
_cell_length_b 23.810439
_cell_length_c 13.694022
_cell_angle_alpha 90.000000
_cell_angle_beta 73.323132
_cell_angle_gamma 90.000000
_cell_volume 1500.862138
_symmetry_space_group_name_H-M "C 2/C"
_symmetry_group_IT_number 15
_symmetry_cell_setting 'monoclinic'
loop_
_space_group_symop_operation_xyz
x,y,z
-x,y,1/2-z
-x,-y,-z
x,-y,1/2+z
1/2+x,1/2+y,z
1/2-x,1/2+y,1/2-z
1/2-x,1/2-y,-z
1/2+x,1/2-y,1/2+z
loop_
_atom_site_type_symbol
_atom_site_label
_atom_site_fract_x
_atom_site_fract_y
_atom_site_fract_z
Si Si1 0.902453 0.854228 0.372988
Si Si2 0.157043 0.858667 0.547343
Si Si3 0.183328 0.245462 0.324936
Si Si4 0.686560 0.965918 0.324754
Si Si5 0.401500 0.919687 0.871578
O O1 0.147186 0.853195 0.431383
O O2 0.728004 0.795953 0.397000
O O3 0.744936 0.914606 0.391174
O O4 0.000000 0.852761 0.250000
O O5 0.994760 0.805194 0.609904
O O6 0.940875 0.911023 0.589022
O O7 0.444576 0.872424 0.578056
O O8 0.500000 0.228656 0.250000
O O9 0.000000 0.265788 0.250000
O O10 0.500000 0.945693 0.250000
O O11 0.000000 0.984221 0.250000
O O12 0.512408 0.018195 0.385277
O O13 0.500000 0.911306 0.750000
#
# Coordination Sequence:
#
# PCOD9283884 Si02
#       5
#     8   8   8   8   8
#     4  10  25  45  64  92 131 172 214 258 310 375
#     4  12  24  40  68  98 127 165 212 260 319 379
#     4  11  23  42  67  93 127 166 209 263 319 374
#     4  10  21  40  65  90 127 172 211 256 312 373
#     4  11  23  41  66  97 129 163 208 266 320 371
#
# _framework density 26.651346
#
# number of rings (size 3 to 8) (size 9 to 14) (size 15 to 20)
#    0.000    1.200    0.000    7.200    0.000    8.000 
#    0.000    7.000    0.000    0.000    0.000    0.000 
#    0.000    0.000    0.000    0.000    0.000    0.000 
#
# Total GULP energy -112183.294417 kJ/mol
# GULP energy per Si atom -5609.164721 kJ/mol
# Density = 2.659069 g / cm^3
# Si number density = 26.651346 Si / 1000 Ang^3
#
#
#
# Elastic Constant Matrix: (Units=GPa)
#
#
# Indices 1 2 3 4 5 6 
#
# 1 70.7142 -11.4927 6.7482 0.0000 16.2897 0.0000
# 2 -11.4927 146.7874 19.6134 0.0000 -0.3036 0.0000
# 3 6.7482 19.6134 142.2419 0.0000 21.7322 0.0000
# 4 0.0000 0.0000 0.0000 34.7292 0.0000 7.5222
# 5 16.2897 -0.3036 21.7322 0.0000 49.2473 0.0000
# 6 0.0000 0.0000 0.0000 7.5222 0.0000 37.3926
#
#
#
# Elastic Compliance Matrix: (Units=1/GPa)
#
#
# Indices 1 2 3 4 5 6 
#
# 1 0.015520 0.001222 -0.000130 0.000000 -0.005069 0.000000
# 2 0.001222 0.007048 -0.001045 0.000000 0.000100 0.000000
# 3 -0.000130 -0.001045 0.007694 0.000000 -0.003358 0.000000
# 4 0.000000 0.000000 0.000000 0.030106 0.000000 -0.006056
# 5 -0.005069 0.000100 -0.003358 0.000000 0.023465 0.000000
# 6 0.000000 0.000000 0.000000 -0.006056 0.000000 0.027962
#
#
# Mechanical properties :
#
#
# Convention : Reuss Voigt Hill
#
# Bulk Modulus (GPa) = 32.94363 43.27571 38.10967
# Shear Modulus (GPa) = 41.04425 47.26545 44.15485
#
# Velocity S-wave (km/s) = 3.92860 4.21583 4.07475
# Velocity P-wave (km/s) = 5.74163 6.32223 6.03891
#
# Compressibility (1/GPa) = 0.03035488
#
# Stress axis : x y z
#
# Youngs Moduli (GPa) = 64.43264 141.88190 129.97655
#
# Poissons Ratio (x) = -0.17339 0.01695
# Poissons Ratio (y) = -0.07874 0.13585
# Poissons Ratio (z) = 0.00840 0.14829
#
# Static dielectric constant tensor:
#      x y z
#    x 2.124030 0.000000 -0.101760 
#    y 0.000000 2.115710 0.000000 
#    z -0.101760 0.000000 2.075790 
# 
# From -- ./inp_files/73217.got.cif
#   From: 2010.05.17/outbox.cif.g08.bks.cpg/sg15_37_cif.got.tgz:73217.got - 2010.06.03 18:47:42.
