data_PCOD9283516
_publ_section_title
;
Structure prediction by ZEFSAII (Michael W. Deem and Ramdas Pophale) SiO2 
 PCOD9283516
Probable space group: C 2/C
;
_chemical_formula_sum "Si O2"
_cell_formula_units_Z 32
_cell_length_a 17.219649
_cell_length_b 5.259827
_cell_length_c 11.957378
_cell_angle_alpha 90.000000
_cell_angle_beta 97.900062
_cell_angle_gamma 90.000000
_cell_volume 1072.729632
_symmetry_space_group_name_H-M "C 2/C"
_symmetry_group_IT_number 15
_symmetry_cell_setting 'monoclinic'
loop_
_space_group_symop_operation_xyz
x,y,z
-x,y,1/2-z
-x,-y,-z
x,-y,1/2+z
1/2+x,1/2+y,z
1/2-x,1/2+y,1/2-z
1/2-x,1/2-y,-z
1/2+x,1/2-y,1/2+z
loop_
_atom_site_type_symbol
_atom_site_label
_atom_site_fract_x
_atom_site_fract_y
_atom_site_fract_z
Si Si1 0.510529 0.252833 0.426446
Si Si2 0.260385 0.801808 0.178986
Si Si3 0.833196 0.137391 0.478253
Si Si4 0.082666 0.389546 0.221504
O O1 0.500000 0.500000 0.500000
O O2 0.601628 0.306221 0.415246
O O3 0.445471 0.173651 0.321945
O O4 0.500000 0.000000 0.500000
O O5 0.248615 0.027369 0.268015
O O6 0.196127 0.862178 0.071701
O O7 0.352074 0.842508 0.170839
O O8 0.750000 0.250000 0.500000
O O9 0.875558 0.260226 0.377371
O O10 0.000000 0.276794 0.250000
#
# Coordination Sequence:
#
# PCOD9283516 Si02
#       4
#     8   8   8   8
#     4  10  21  40  63  92 126 166 210 260 315 376
#     4  10  21  40  62  90 124 164 208 258 312 372
#     4  10  21  40  64  94 127 166 211 262 317 378
#     4  10  21  40  63  92 128 170 214 264 318 378
#
# _framework density 29.830442999999999
#
# number of rings (size 3 to 8) (size 9 to 14) (size 15 to 20)
#    0.000    2.000    0.000    3.000    0.000    0.000 
#    0.000   65.000    0.000    0.000    0.000    0.000 
#    0.000    0.000    0.000    0.000    0.000    0.000 
#
# Total GULP energy -89337.329378 kJ/mol
# GULP energy per Si atom -5583.583086 kJ/mol
# Density = 2.976255 g / cm^3
# Si number density = 29.830443 Si / 1000 Ang^3
#
#
#
# Elastic Constant Matrix: (Units=GPa)
#
#
# Indices 1 2 3 4 5 6 
#
# 1 280.8172 60.8536 61.8257 0.0000 13.7010 0.0000
# 2 60.8536 167.9593 58.7905 0.0000 -4.3441 0.0000
# 3 61.8257 58.7905 138.8635 0.0000 18.1477 0.0000
# 4 0.0000 0.0000 0.0000 73.1547 0.0000 -9.7380
# 5 13.7010 -4.3441 18.1477 0.0000 83.7283 0.0000
# 6 0.0000 0.0000 0.0000 -9.7380 0.0000 68.9672
#
#
#
# Elastic Compliance Matrix: (Units=1/GPa)
#
#
# Indices 1 2 3 4 5 6 
#
# 1 0.004099 -0.001030 -0.001332 0.000000 -0.000435 0.000000
# 2 -0.001030 0.007336 -0.002798 0.000000 0.001156 0.000000
# 3 -0.001332 -0.002798 0.009231 0.000000 -0.001928 0.000000
# 4 0.000000 0.000000 0.000000 0.013932 0.000000 0.001967
# 5 -0.000435 0.001156 -0.001928 0.000000 0.012493 0.000000
# 6 0.000000 0.000000 0.000000 0.001967 0.000000 0.014777
#
#
# Mechanical properties :
#
#
# Convention : Reuss Voigt Hill
#
# Bulk Modulus (GPa) = 96.66078 105.61996 101.14037
# Shear Modulus (GPa) = 66.10529 72.24806 69.17668
#
# Velocity S-wave (km/s) = 4.71258 4.92668 4.82082
# Velocity P-wave (km/s) = 7.87940 8.23690 8.06013
#
# Compressibility (1/GPa) = 0.01034546
#
# Stress axis : x y z
#
# Youngs Moduli (GPa) = 243.97806 136.30533 108.33023
#
# Poissons Ratio (x) = 0.14041 0.14428
# Poissons Ratio (y) = 0.25132 0.30316
# Poissons Ratio (z) = 0.32494 0.38144
#
# Static dielectric constant tensor:
#      x y z
#    x 2.613010 0.000000 0.171590 
#    y 0.000000 2.604930 0.000000 
#    z 0.171590 0.000000 2.638330 
# 
# From -- ./inp_files/158028.got.cif
#   From: 2010.05.17/outbox.cif.g08.bks.cpg/sg15_80_cif.got.tgz:158028.got - 2010.06.03 18:47:42.
