data_PCOD9283439
_publ_section_title
;
Structure prediction by ZEFSAII (Michael W. Deem and Ramdas Pophale) SiO2 
 PCOD9283439
Probable space group: C 2/C
;
_chemical_formula_sum "Si O2"
_cell_formula_units_Z 52
_cell_length_a 17.776848
_cell_length_b 10.528726
_cell_length_c 15.441250
_cell_angle_alpha 90.000000
_cell_angle_beta 128.346745
_cell_angle_gamma 90.000000
_cell_volume 2266.620929
_symmetry_space_group_name_H-M "C 2/C"
_symmetry_group_IT_number 15
_symmetry_cell_setting 'monoclinic'
loop_
_space_group_symop_operation_xyz
x,y,z
-x,y,1/2-z
-x,-y,-z
x,-y,1/2+z
1/2+x,1/2+y,z
1/2-x,1/2+y,1/2-z
1/2-x,1/2-y,-z
1/2+x,1/2-y,1/2+z
loop_
_atom_site_type_symbol
_atom_site_label
_atom_site_fract_x
_atom_site_fract_y
_atom_site_fract_z
Si Si1 0.500000 0.504514 0.750000
Si Si2 0.687702 0.087313 0.767109
Si Si3 0.256921 0.824151 0.735848
Si Si4 0.848081 0.770118 0.123126
Si Si5 0.980604 0.379283 0.045325
Si Si6 0.034025 0.884789 0.582657
Si Si7 0.399225 0.996192 0.633555
O O1 0.591108 0.599929 0.833113
O O2 0.520271 0.422574 0.675810
O O3 0.753358 0.208847 0.800858
O O4 0.580732 0.133168 0.669404
O O5 0.704893 0.965410 0.717790
O O6 0.685696 0.030523 0.861878
O O7 0.317974 0.767502 0.699485
O O8 0.144899 0.855016 0.637365
O O9 0.908315 0.653899 0.125227
O O10 0.750000 0.750000 0.000000
O O11 0.971866 0.236989 0.007242
O O12 0.894378 0.420994 0.045047
O O13 0.000000 0.500000 0.000000
O O14 0.000000 0.000000 0.500000
O O15 0.500000 0.028527 0.750000
#
# Coordination Sequence:
#
# PCOD9283439 Si02
#       7
#     4   8   8   8   8   8   8
#     4  12  26  44  74 110 150 200 246 314 382 438
#     4   9  20  36  61  86 124 164 214 273 333 419
#     4  10  21  40  61  92 127 173 219 286 348 422
#     4  11  23  39  69 100 143 188 241 294 367 448
#     4  10  23  38  66  92 127 172 230 285 346 427
#     4  11  26  43  69 101 144 183 242 303 376 440
#     4   9  19  38  62  91 123 171 230 275 340 425
#
# _framework density 22.941638999999999
#
# number of rings (size 3 to 8) (size 9 to 14) (size 15 to 20)
#    0.000    1.846    0.769    1.846   11.846    1.231 
#    0.000    0.000    0.000    3.692    0.000    0.000 
#    0.000    0.000    0.000    0.000    0.000    0.000 
#
# Total GULP energy -144821.611894 kJ/mol
# GULP energy per Si atom -5570.061996 kJ/mol
# Density = 2.288942 g / cm^3
# Si number density = 22.941639 Si / 1000 Ang^3
#
#
#
# Elastic Constant Matrix: (Units=GPa)
#
#
# Indices 1 2 3 4 5 6 
#
# 1 70.3674 41.9051 6.2971 0.0000 -0.1367 0.0000
# 2 41.9051 169.7124 8.9848 0.0000 -16.7346 0.0000
# 3 6.2971 8.9848 41.7114 0.0000 8.5769 0.0000
# 4 0.0000 0.0000 0.0000 24.1184 0.0000 -0.6535
# 5 -0.1367 -16.7346 8.5769 0.0000 24.7491 0.0000
# 6 0.0000 0.0000 0.0000 -0.6535 0.0000 22.1804
#
#
#
# Elastic Compliance Matrix: (Units=1/GPa)
#
#
# Indices 1 2 3 4 5 6 
#
# 1 0.016901 -0.004358 -0.001105 0.000000 -0.002471 0.000000
# 2 -0.004358 0.007670 -0.002214 0.000000 0.005929 0.000000
# 3 -0.001105 -0.002214 0.026839 0.000000 -0.010804 0.000000
# 4 0.000000 0.000000 0.000000 0.041495 0.000000 0.001223
# 5 -0.002471 0.005929 -0.010804 0.000000 0.048145 0.000000
# 6 0.000000 0.000000 0.000000 0.001223 0.000000 0.045121
#
#
# Mechanical properties :
#
#
# Convention : Reuss Voigt Hill
#
# Bulk Modulus (GPa) = 27.73341 44.01836 35.87588
# Shear Modulus (GPa) = 23.41440 29.18319 26.29879
#
# Velocity S-wave (km/s) = 3.19816 3.57047 3.38943
# Velocity P-wave (km/s) = 5.07470 6.01884 5.56682
#
# Compressibility (1/GPa) = 0.03605759
#
# Stress axis : x y z
#
# Youngs Moduli (GPa) = 59.16965 130.37293 37.25859
#
# Poissons Ratio (x) = 0.56819 0.04116
# Poissons Ratio (y) = 0.25787 0.08247
# Poissons Ratio (z) = 0.06536 0.28858
#
# Static dielectric constant tensor:
#      x y z
#    x 1.887350 0.000000 -0.042830 
#    y 0.000000 1.937850 0.000000 
#    z -0.042830 0.000000 1.892780 
# 
# From -- ./inp_files/209707.got.cif
#   From: 2010.05.17/outbox.cif.g08.bks.cpg/sg15_105_cif.got.tgz:209707.got - 2010.06.03 18:47:42.
