data_PCOD9283531
_publ_section_title
;
Structure prediction by ZEFSAII (Michael W. Deem and Ramdas Pophale) SiO2 
 PCOD9283531
Probable space group: C 2/C
;
_chemical_formula_sum "Si O2"
_cell_formula_units_Z 48
_cell_length_a 23.567269
_cell_length_b 6.885927
_cell_length_c 14.497906
_cell_angle_alpha 90.000000
_cell_angle_beta 97.394551
_cell_angle_gamma 90.000000
_cell_volume 2333.189425
_symmetry_space_group_name_H-M "C 2/C"
_symmetry_group_IT_number 15
_symmetry_cell_setting 'monoclinic'
loop_
_space_group_symop_operation_xyz
x,y,z
-x,y,1/2-z
-x,-y,-z
x,-y,1/2+z
1/2+x,1/2+y,z
1/2-x,1/2+y,1/2-z
1/2-x,1/2-y,-z
1/2+x,1/2-y,1/2+z
loop_
_atom_site_type_symbol
_atom_site_label
_atom_site_fract_x
_atom_site_fract_y
_atom_site_fract_z
Si Si1 0.548186 0.882319 0.562726
Si Si2 0.178334 0.953130 0.170115
Si Si3 0.304302 0.781853 0.175738
Si Si4 0.029738 0.108963 0.847837
Si Si5 0.872927 0.126792 0.027731
Si Si6 0.392790 0.110119 0.245653
O O1 0.518753 0.682609 0.592619
O O2 0.600561 0.824972 0.508049
O O3 0.572430 0.979614 0.660718
O O4 0.500000 0.000000 0.500000
O O5 0.239985 0.859217 0.162494
O O6 0.141226 0.794055 0.218393
O O7 0.186522 0.139661 0.235616
O O8 0.147864 0.991784 0.065990
O O9 0.321456 0.668185 0.086752
O O10 0.348497 0.959207 0.195176
O O11 0.062912 0.300731 0.817946
O O12 0.000000 0.021709 0.750000
O O13 0.076205 0.974511 0.905293
#
# Coordination Sequence:
#
# PCOD9283531 Si02
#       6
#     8   8   8   8   8   8
#     4  10  22  38  60  94 130 162 216 262 310 382
#     4  11  24  43  64  97 127 168 216 270 314 384
#     4  12  23  44  68  91 131 172 212 265 336 369
#     4  10  21  40  62  91 132 168 210 262 316 377
#     4  11  24  40  67  97 128 169 221 262 319 391
#     4  10  22  41  63  91 130 169 212 262 314 382
#
# _framework density 20.572697000000002
#
# number of rings (size 3 to 8) (size 9 to 14) (size 15 to 20)
#    0.000    1.333    3.333    2.000    2.333    1.333 
#    0.000    1.667    0.000    0.000    0.000    0.000 
#    0.000    0.000    0.000    0.000    0.000    0.000 
#
# Total GULP energy -134156.637144 kJ/mol
# GULP energy per Si atom -5589.859881 kJ/mol
# Density = 2.052587 g / cm^3
# Si number density = 20.572697 Si / 1000 Ang^3
#
#
#
# Elastic Constant Matrix: (Units=GPa)
#
#
# Indices 1 2 3 4 5 6 
#
# 1 83.8632 2.2048 22.9633 0.0000 -6.5195 0.0000
# 2 2.2048 20.5951 21.1591 0.0000 5.1670 0.0000
# 3 22.9633 21.1591 99.0136 0.0000 4.5863 0.0000
# 4 0.0000 0.0000 0.0000 17.9524 0.0000 6.7175
# 5 -6.5195 5.1670 4.5863 0.0000 40.5631 0.0000
# 6 0.0000 0.0000 0.0000 6.7175 0.0000 42.8014
#
#
#
# Elastic Compliance Matrix: (Units=1/GPa)
#
#
# Indices 1 2 3 4 5 6 
#
# 1 0.013008 0.001593 -0.003463 0.000000 0.002279 0.000000
# 2 0.001593 0.064138 -0.013781 0.000000 -0.006356 0.000000
# 3 -0.003463 -0.013781 0.013865 0.000000 -0.000369 0.000000
# 4 0.000000 0.000000 0.000000 0.059178 0.000000 -0.009288
# 5 0.002279 -0.006356 -0.000369 0.000000 0.025871 0.000000
# 6 0.000000 0.000000 0.000000 -0.009288 0.000000 0.024821
#
#
# Mechanical properties :
#
#
# Convention : Reuss Voigt Hill
#
# Bulk Modulus (GPa) = 16.74796 32.90293 24.82545
# Shear Modulus (GPa) = 19.83456 30.73970 25.28713
#
# Velocity S-wave (km/s) = 3.10840 3.86968 3.50974
# Velocity P-wave (km/s) = 4.58709 5.99951 5.34020
#
# Compressibility (1/GPa) = 0.05970877
#
# Stress axis : x y z
#
# Youngs Moduli (GPa) = 76.87770 15.59140 72.12478
#
# Poissons Ratio (x) = -0.02484 0.24976
# Poissons Ratio (y) = -0.12249 0.99398
# Poissons Ratio (z) = 0.26621 0.21487
#
# Static dielectric constant tensor:
#      x y z
#    x 1.712480 0.000000 0.002690 
#    y 0.000000 1.712980 0.000000 
#    z 0.002690 0.000000 1.743990 
# 
# From -- ./inp_files/116375.got.cif
#   From: 2010.05.17/outbox.cif.g08.bks.cpg/sg15_59_cif.got.tgz:116375.got - 2010.06.03 18:47:42.
