data_PCOD9283577
_publ_section_title
;
Structure prediction by ZEFSAII (Michael W. Deem and Ramdas Pophale) SiO2 
 PCOD9283577
Probable space group: C 2/C
;
_chemical_formula_sum "Si O2"
_cell_formula_units_Z 48
_cell_length_a 14.850632
_cell_length_b 14.421191
_cell_length_c 20.431219
_cell_angle_alpha 90.000000
_cell_angle_beta 24.872874
_cell_angle_gamma 90.000000
_cell_volume 1840.416660
_symmetry_space_group_name_H-M "C 2/C"
_symmetry_group_IT_number 15
_symmetry_cell_setting 'monoclinic'
loop_
_space_group_symop_operation_xyz
x,y,z
-x,y,1/2-z
-x,-y,-z
x,-y,1/2+z
1/2+x,1/2+y,z
1/2-x,1/2+y,1/2-z
1/2-x,1/2-y,-z
1/2+x,1/2-y,1/2+z
loop_
_atom_site_type_symbol
_atom_site_label
_atom_site_fract_x
_atom_site_fract_y
_atom_site_fract_z
Si Si1 0.687665 0.164034 0.674849
Si Si2 0.491845 0.706125 0.593302
Si Si3 0.714015 0.876120 0.386803
Si Si4 0.321647 0.475246 0.564924
Si Si5 0.317340 0.083913 0.058793
Si Si6 0.576901 0.379822 0.597082
O O1 0.500000 0.199575 0.750000
O O2 0.789804 0.194306 0.676013
O O3 0.889731 0.175914 0.491261
O O4 0.647169 0.050711 0.703569
O O5 0.592542 0.806996 0.516560
O O6 0.675602 0.633792 0.446574
O O7 0.406170 0.675619 0.721361
O O8 0.747520 0.975430 0.399264
O O9 0.546091 0.902758 0.439612
O O10 0.500000 0.500000 0.500000
O O11 0.406470 0.515750 0.440599
O O12 0.272301 0.129949 0.018575
O O13 0.144078 0.131239 0.220937
#
# Coordination Sequence:
#
# PCOD9283577 Si02
#       6
#     8   8   8   8   8   8
#     4   9  18  35  61  87 117 149 197 250 302 360
#     4  11  22  40  58  91 124 155 204 255 301 353
#     4  11  24  39  61  88 123 166 201 249 299 368
#     4   8  17  34  61  83 115 155 195 246 299 354
#     4  10  21  40  63  83 119 165 208 236 306 369
#     4   9  18  36  64  86 111 156 207 250 289 360
#
# _framework density 26.081050000000001
#
# number of rings (size 3 to 8) (size 9 to 14) (size 15 to 20)
#    1.000    1.333    1.667    1.000    2.333    0.000 
#    9.000    2.500    3.667    0.000    0.000    0.000 
#    0.000    0.000    0.000    0.000    0.000    0.000 
#
# Total GULP energy -133805.914620 kJ/mol
# GULP energy per Si atom -5575.246443 kJ/mol
# Density = 2.602169 g / cm^3
# Si number density = 26.081050 Si / 1000 Ang^3
#
#
#
# Elastic Constant Matrix: (Units=GPa)
#
#
# Indices 1 2 3 4 5 6 
#
# 1 53.7838 -14.7878 -6.5600 -0.0028 0.3783 -0.0001
# 2 -14.7878 132.2995 10.8927 -0.0163 -3.4374 0.0039
# 3 -6.5600 10.8927 74.5074 -0.0271 14.5883 0.0118
# 4 -0.0028 -0.0163 -0.0271 31.6840 0.0103 -2.1584
# 5 0.3783 -3.4374 14.5883 0.0103 36.4280 -0.0039
# 6 -0.0001 0.0039 0.0118 -2.1584 -0.0039 23.9187
#
#
#
# Elastic Compliance Matrix: (Units=1/GPa)
#
#
# Indices 1 2 3 4 5 6 
#
# 1 0.019339 0.002020 0.001529 0.000004 -0.000623 -0.000001
# 2 0.002020 0.007916 -0.001217 0.000003 0.001213 0.000000
# 3 0.001529 -0.001217 0.014930 0.000014 -0.006110 -0.000007
# 4 0.000004 0.000003 0.000014 0.031757 -0.000014 0.002866
# 5 -0.000623 0.001213 -0.006110 -0.000014 0.030019 0.000006
# 6 -0.000001 0.000000 -0.000007 0.002866 0.000006 0.042067
#
#
# Mechanical properties :
#
#
# Convention : Reuss Voigt Hill
#
# Bulk Modulus (GPa) = 21.34503 26.63119 23.98811
# Shear Modulus (GPa) = 31.85092 36.47586 34.16339
#
# Velocity S-wave (km/s) = 3.49840 3.74379 3.62317
# Velocity P-wave (km/s) = 4.95180 5.37783 5.16920
#
# Compressibility (1/GPa) = 0.04684931
#
# Stress axis : x y z
#
# Youngs Moduli (GPa) = 51.70861 126.32527 66.97755
#
# Poissons Ratio (x) = -0.25512 -0.10244
# Poissons Ratio (y) = -0.10443 0.08152
# Poissons Ratio (z) = -0.07908 0.15375
#
# Static dielectric constant tensor:
#      x y z
#    x 1.859550 0.000100 0.092680 
#    y 0.000100 2.128120 -0.000070 
#    z 0.092680 -0.000070 1.978040 
# 
# From -- ./inp_files/301074.got.cif
#   From: 2010.05.17/outbox.cif.g08.bks.cpg/sg15_151_cif.got.tgz:301074.got - 2010.06.03 18:47:42.
