data_PCOD9283523
_publ_section_title
;
Structure prediction by ZEFSAII (Michael W. Deem and Ramdas Pophale) SiO2 
 PCOD9283523
Probable space group: C 2/C
;
_chemical_formula_sum "Si O2"
_cell_formula_units_Z 56
_cell_length_a 20.691830
_cell_length_b 22.001573
_cell_length_c 18.189359
_cell_angle_alpha 90.000000
_cell_angle_beta 162.304069
_cell_angle_gamma 90.000000
_cell_volume 2517.063580
_symmetry_space_group_name_H-M "C 2/C"
_symmetry_group_IT_number 15
_symmetry_cell_setting 'monoclinic'
loop_
_space_group_symop_operation_xyz
x,y,z
-x,y,1/2-z
-x,-y,-z
x,-y,1/2+z
1/2+x,1/2+y,z
1/2-x,1/2+y,1/2-z
1/2-x,1/2-y,-z
1/2+x,1/2-y,1/2+z
loop_
_atom_site_type_symbol
_atom_site_label
_atom_site_fract_x
_atom_site_fract_y
_atom_site_fract_z
Si Si1 0.668485 0.161833 0.993237
Si Si2 0.983503 0.472920 0.817016
Si Si3 0.292979 0.079834 0.688638
Si Si4 0.840688 0.050681 0.266070
Si Si5 0.892510 0.797406 0.516509
Si Si6 0.150336 0.404554 0.689916
Si Si7 0.645319 0.759587 0.683449
O O1 0.500000 0.145053 0.750000
O O2 0.630425 0.230415 0.978101
O O3 0.698486 0.108635 0.084536
O O4 0.909889 0.171510 0.229181
O O5 0.843725 0.534016 0.677645
O O6 0.879595 0.423550 0.758345
O O7 0.000000 0.456189 0.750000
O O8 0.213103 0.492844 0.098189
O O9 0.288366 0.152295 0.668461
O O10 0.063663 0.061784 0.470788
O O11 0.449898 0.069418 0.927210
O O12 0.843004 0.061548 0.356196
O O13 0.911254 0.782940 0.448913
O O14 0.154925 0.332255 0.685745
O O15 0.413537 0.753060 0.480730
#
# Coordination Sequence:
#
# PCOD9283523 Si02
#       7
#     8   8   8   8   8   8   8
#     4  11  21  32  49  85 130 175 220 264 328 401
#     4  11  26  44  62  90 133 175 226 278 340 409
#     4  10  21  40  66  95 126 171 226 279 334 397
#     4  10  21  40  62  91 126 171 224 284 333 396
#     4  11  19  35  58  88 133 175 219 272 334 403
#     4  11  22  40  69  96 127 173 221 283 338 406
#     4  12  22  41  71 104 139 170 222 290 350 408
#
# _framework density 22.248146999999999
#
# number of rings (size 3 to 8) (size 9 to 14) (size 15 to 20)
#    0.000    1.143    4.286    3.429    2.000    2.857 
#    5.143    0.000    0.000    0.857    0.000    0.000 
#    0.000    0.000    0.000    0.000    0.000    0.000 
#
# Total GULP energy -155979.199596 kJ/mol
# GULP energy per Si atom -5570.685700 kJ/mol
# Density = 2.219751 g / cm^3
# Si number density = 22.248147 Si / 1000 Ang^3
#
#
#
# Elastic Constant Matrix: (Units=GPa)
#
#
# Indices 1 2 3 4 5 6 
#
# 1 106.6389 1.7648 15.1037 0.0013 -3.9729 0.0008
# 2 1.7648 60.4759 -1.1532 0.0002 -12.1006 -0.0001
# 3 15.1037 -1.1532 60.2002 0.0033 16.5927 0.0029
# 4 0.0013 0.0002 0.0033 23.2433 0.0018 12.5948
# 5 -3.9729 -12.1006 16.5927 0.0018 31.0829 0.0017
# 6 0.0008 -0.0001 0.0029 12.5948 0.0017 22.3697
#
#
#
# Elastic Compliance Matrix: (Units=1/GPa)
#
#
# Indices 1 2 3 4 5 6 
#
# 1 0.009969 0.000282 -0.003374 0.000000 0.003185 0.000000
# 2 0.000282 0.018118 -0.001967 -0.000001 0.008140 0.000000
# 3 -0.003374 -0.001967 0.020812 -0.000001 -0.012307 -0.000001
# 4 0.000000 -0.000001 -0.000001 0.061912 -0.000001 -0.034858
# 5 0.003185 0.008140 -0.012307 -0.000001 0.042318 -0.000001
# 6 0.000000 0.000000 -0.000001 -0.034858 -0.000001 0.064329
#
#
# Mechanical properties :
#
#
# Convention : Reuss Voigt Hill
#
# Bulk Modulus (GPa) = 25.78504 28.74950 27.26727
# Shear Modulus (GPa) = 20.78969 29.44582 25.11775
#
# Velocity S-wave (km/s) = 3.06019 3.64197 3.36368
# Velocity P-wave (km/s) = 4.90930 5.53493 5.23148
#
# Compressibility (1/GPa) = 0.03878217
#
# Stress axis : x y z
#
# Youngs Moduli (GPa) = 100.30831 55.19235 48.04893
#
# Poissons Ratio (x) = -0.01557 0.16210
# Poissons Ratio (y) = -0.02829 0.09452
# Poissons Ratio (z) = 0.33841 0.10857
#
# Static dielectric constant tensor:
#      x y z
#    x 1.943880 0.000000 0.117740 
#    y 0.000000 1.822690 0.000000 
#    z 0.117740 0.000000 1.964780 
# 
# From -- ./inp_files/216906.got.cif
#   From: 2010.05.17/outbox.cif.g08.bks.cpg/sg15_109_cif.got.tgz:216906.got - 2010.06.03 18:47:42.
