data_PCOD9283835
_publ_section_title
;
Structure prediction by ZEFSAII (Michael W. Deem and Ramdas Pophale) SiO2 
 PCOD9283835
Probable space group: C 2/C
;
_chemical_formula_sum "Si O2"
_cell_formula_units_Z 56
_cell_length_a 19.351266
_cell_length_b 15.564989
_cell_length_c 16.343232
_cell_angle_alpha 90.000000
_cell_angle_beta 148.596387
_cell_angle_gamma 90.000000
_cell_volume 2564.996407
_symmetry_space_group_name_H-M "C 2/C"
_symmetry_group_IT_number 15
_symmetry_cell_setting 'monoclinic'
loop_
_space_group_symop_operation_xyz
x,y,z
-x,y,1/2-z
-x,-y,-z
x,-y,1/2+z
1/2+x,1/2+y,z
1/2-x,1/2+y,1/2-z
1/2-x,1/2-y,-z
1/2+x,1/2-y,1/2+z
loop_
_atom_site_type_symbol
_atom_site_label
_atom_site_fract_x
_atom_site_fract_y
_atom_site_fract_z
Si Si1 0.205103 0.091559 0.990681
Si Si2 0.284585 0.433114 0.584830
Si Si3 0.577457 0.140942 0.179340
Si Si4 0.914214 0.771864 0.788275
Si Si5 0.000000 0.629521 0.750000
Si Si6 0.710877 0.080744 0.606223
Si Si7 0.500000 0.734442 0.750000
Si Si8 0.664325 0.285023 0.144389
O O1 0.277780 0.112306 0.977131
O O2 0.103791 0.169202 0.897358
O O3 0.147998 0.997943 0.911286
O O4 0.302561 0.084506 0.165300
O O5 0.353400 0.342724 0.665941
O O6 0.132726 0.423246 0.401437
O O7 0.270845 0.485392 0.656700
O O8 0.553846 0.207011 0.231181
O O9 0.619585 0.198985 0.146351
O O10 0.443484 0.088432 0.027708
O O11 0.972212 0.691374 0.798130
O O12 0.793032 0.738690 0.721264
O O13 0.036637 0.811182 0.962415
O O14 0.793628 0.142415 0.748294
#
# Coordination Sequence:
#
# PCOD9283835 Si02
#       8
#     8   8   8   8   4   8   4   8
#     4  10  22  35  62  98 137 177 217 271 324 382
#     4  10  23  46  68  99 131 167 231 285 322 391
#     4  12  19  36  67  96 142 179 220 260 321 414
#     4  12  27  47  73  96 128 178 231 280 328 399
#     4  12  24  50  80  88 118 178 242 278 322 402
#     4  10  21  40  64  98 141 171 212 272 331 392
#     4  12  18  32  58  98 134 186 218 250 320 402
#     4  12  25  43  68 105 139 174 218 272 343 398
#
# _framework density 21.83239
#
# number of rings (size 3 to 8) (size 9 to 14) (size 15 to 20)
#    0.857    0.000    5.714    2.571    0.000    1.143 
#    0.000    4.286    0.000    0.000    0.000    0.000 
#    0.000    0.000    0.000    0.000    0.000    0.000 
#
# Total GULP energy -156418.764037 kJ/mol
# GULP energy per Si atom -5586.384430 kJ/mol
# Density = 2.178270 g / cm^3
# Si number density = 21.832390 Si / 1000 Ang^3
#
#
#
# Elastic Constant Matrix: (Units=GPa)
#
#
# Indices 1 2 3 4 5 6 
#
# 1 27.4135 -15.1758 -12.7863 0.0000 1.6530 0.0000
# 2 -15.1758 56.5522 -3.6722 0.0000 -0.5625 0.0000
# 3 -12.7863 -3.6722 101.2129 0.0001 8.7699 0.0001
# 4 0.0000 0.0000 0.0001 12.7870 0.0000 -11.7325
# 5 1.6530 -0.5625 8.7699 0.0000 23.3113 0.0000
# 6 0.0000 0.0000 0.0001 -11.7325 0.0000 -1.6225
#
#
#
# Elastic Compliance Matrix: (Units=1/GPa)
#
#
# Indices 1 2 3 4 5 6 
#
# 1 0.047301 0.013088 0.006940 0.000000 -0.005649 0.000000
# 2 0.013088 0.021347 0.002547 0.000000 -0.001371 0.000000
# 3 0.006940 0.002547 0.011253 0.000000 -0.004664 0.000000
# 4 0.000000 0.000000 0.000000 0.010243 0.000000 -0.074069
# 5 -0.005649 -0.001371 -0.004664 0.000000 0.045020 0.000000
# 6 0.000000 0.000000 0.000000 -0.074069 0.000000 -0.080727
#
#
# Mechanical properties :
#
#
# Convention : Reuss Voigt Hill
#
# Bulk Modulus (GPa) = 7.99682 13.54555 10.77119
# Shear Modulus (GPa) = 98.09270 21.34936 59.72103
#
# Velocity S-wave (km/s) = 6.71025 3.13049 5.23581
# Velocity P-wave (km/s) = 7.98169 4.39141 6.44173
#
# Compressibility (1/GPa) = 0.12504963
#
# Stress axis : x y z
#
# Youngs Moduli (GPa) = 21.14118 46.84590 88.86171
#
# Poissons Ratio (x) = -0.61310 -0.61669
# Poissons Ratio (y) = -0.27669 -0.22630
# Poissons Ratio (z) = -0.14672 -0.11930
#
# Static dielectric constant tensor:
#      x y z
#    x 1.783910 0.000000 0.007340 
#    y 0.000000 1.788260 0.000000 
#    z 0.007340 0.000000 1.804230 
# 
# From -- ./inp_files/215803.got.cif
#   From: 2010.05.17/outbox.cif.g08.bks.cpg/sg15_108_cif.got.tgz:215803.got - 2010.06.03 18:47:42.
