data_PCOD9283534
_publ_section_title
;
Structure prediction by ZEFSAII (Michael W. Deem and Ramdas Pophale) SiO2 
 PCOD9283534
Probable space group: C 2/C
;
_chemical_formula_sum "Si O2"
_cell_formula_units_Z 44
_cell_length_a 17.669844
_cell_length_b 29.278867
_cell_length_c 5.599652
_cell_angle_alpha 90.000000
_cell_angle_beta 136.538128
_cell_angle_gamma 90.000000
_cell_volume 1992.762182
_symmetry_space_group_name_H-M "C 2/C"
_symmetry_group_IT_number 15
_symmetry_cell_setting 'monoclinic'
loop_
_space_group_symop_operation_xyz
x,y,z
-x,y,1/2-z
-x,-y,-z
x,-y,1/2+z
1/2+x,1/2+y,z
1/2-x,1/2+y,1/2-z
1/2-x,1/2-y,-z
1/2+x,1/2-y,1/2+z
loop_
_atom_site_type_symbol
_atom_site_label
_atom_site_fract_x
_atom_site_fract_y
_atom_site_fract_z
Si Si1 0.500000 0.377397 0.250000
Si Si2 0.000000 0.821084 0.750000
Si Si3 0.659767 0.989861 0.220803
Si Si4 0.000000 0.306526 0.750000
Si Si5 0.349458 0.756699 0.046014
Si Si6 0.229268 0.073842 0.214484
Si Si7 0.878599 0.347581 0.850651
O O1 0.500440 0.348672 0.500180
O O2 0.609186 0.408054 0.489889
O O3 0.108044 0.788632 0.985083
O O4 0.759301 0.026429 0.405956
O O5 0.603545 0.008003 0.335075
O O6 0.706641 0.940634 0.396675
O O7 0.095252 0.338572 0.865449
O O8 0.953260 0.274121 0.439571
O O9 0.250000 0.750000 0.000000
O O10 0.328319 0.799827 0.828630
O O11 0.299612 0.111712 0.238198
O O12 0.000000 0.355076 0.250000
#
# Coordination Sequence:
#
# PCOD9283534 Si02
#       7
#     4   4   8   4   8   8   8
#     4  12  29  38  71  98 138 176 215 286 320 411
#     4  12  26  44  57 106 135 167 235 264 326 386
#     4   8  20  40  69  91 132 165 212 273 320 416
#     4  10  21  40  62  92 119 183 218 276 324 403
#     4  11  23  40  64  86 133 178 222 275 334 382
#     4  10  23  44  65 101 132 171 221 266 349 387
#     4  10  22  41  65  93 125 176 223 271 330 399
#
# _framework density 22.079906000000001
#
# number of rings (size 3 to 8) (size 9 to 14) (size 15 to 20)
#    1.091    0.727    2.727    1.636    5.091    4.364 
#    0.000    0.909    0.000    0.000    0.000    0.000 
#    0.000    0.000    0.000    0.000    0.000    0.000 
#
# Total GULP energy -122698.536474 kJ/mol
# GULP energy per Si atom -5577.206203 kJ/mol
# Density = 2.202965 g / cm^3
# Si number density = 22.079906 Si / 1000 Ang^3
#
#
#
# Elastic Constant Matrix: (Units=GPa)
#
#
# Indices 1 2 3 4 5 6 
#
# 1 170.0082 60.2126 34.5029 0.0000 -8.1936 0.0000
# 2 60.2126 92.7414 22.8737 0.0000 -7.0039 0.0000
# 3 34.5029 22.8737 76.3845 0.0000 -17.1441 0.0000
# 4 0.0000 0.0000 0.0000 1.9636 0.0000 -4.9987
# 5 -8.1936 -7.0039 -17.1441 0.0000 38.4413 0.0000
# 6 0.0000 0.0000 0.0000 -4.9987 0.0000 35.8163
#
#
#
# Elastic Compliance Matrix: (Units=1/GPa)
#
#
# Indices 1 2 3 4 5 6 
#
# 1 0.007972 -0.004633 -0.002246 0.000000 -0.000147 0.000000
# 2 -0.004633 0.014348 -0.002044 0.000000 0.000715 0.000000
# 3 -0.002246 -0.002044 0.016143 0.000000 0.006348 0.000000
# 4 0.000000 0.000000 0.000000 0.789930 0.000000 0.110246
# 5 -0.000147 0.000715 0.006348 0.000000 0.028944 0.000000
# 6 0.000000 0.000000 0.000000 0.110246 0.000000 0.043307
#
#
# Mechanical properties :
#
#
# Convention : Reuss Voigt Hill
#
# Bulk Modulus (GPa) = 48.50141 63.81250 56.15695
# Shear Modulus (GPa) = 5.40329 30.01391 17.70860
#
# Velocity S-wave (km/s) = 1.56603 3.69091 2.83507
# Velocity P-wave (km/s) = 5.02831 6.86493 6.01711
#
# Compressibility (1/GPa) = 0.02061796
#
# Stress axis : x y z
#
# Youngs Moduli (GPa) = 125.44410 69.69379 61.94546
#
# Poissons Ratio (x) = 0.32287 0.13916
# Poissons Ratio (y) = 0.58114 0.12659
# Poissons Ratio (z) = 0.28181 0.14242
#
# Static dielectric constant tensor:
#      x y z
#    x 1.832890 0.000000 -0.042580 
#    y 0.000000 1.793280 0.000000 
#    z -0.042580 0.000000 1.825570 
# 
# From -- ./inp_files/5826.got.cif
#   From: 2010.05.17/outbox.cif.g08.bks.cpg/sg15_3_cif.got.tgz:5826.got - 2010.06.03 18:47:42.
