data_PCOD9283685
_publ_section_title
;
Structure prediction by ZEFSAII (Michael W. Deem and Ramdas Pophale) SiO2 
 PCOD9283685
Probable space group: C 2/C
;
_chemical_formula_sum "Si O2"
_cell_formula_units_Z 64
_cell_length_a 15.096134
_cell_length_b 15.442425
_cell_length_c 22.271066
_cell_angle_alpha 90.000000
_cell_angle_beta 34.046555
_cell_angle_gamma 90.000000
_cell_volume 2906.742820
_symmetry_space_group_name_H-M "C 2/C"
_symmetry_group_IT_number 15
_symmetry_cell_setting 'monoclinic'
loop_
_space_group_symop_operation_xyz
x,y,z
-x,y,1/2-z
-x,-y,-z
x,-y,1/2+z
1/2+x,1/2+y,z
1/2-x,1/2+y,1/2-z
1/2-x,1/2-y,-z
1/2+x,1/2-y,1/2+z
loop_
_atom_site_type_symbol
_atom_site_label
_atom_site_fract_x
_atom_site_fract_y
_atom_site_fract_z
Si Si1 0.722486 0.421949 0.209233
Si Si2 0.057835 0.259387 0.283275
Si Si3 0.147514 0.428805 0.489252
Si Si4 0.550988 0.038782 0.813487
Si Si5 0.388850 0.268472 0.622709
Si Si6 0.395360 0.641224 0.931728
Si Si7 0.330744 0.116142 0.326887
Si Si8 0.426617 0.222121 0.095589
O O1 0.813813 0.464919 0.212153
O O2 0.798956 0.324615 0.167999
O O3 0.537513 0.420260 0.328917
O O4 0.771651 0.460992 0.117331
O O5 0.029806 0.362708 0.304318
O O6 0.002699 0.221681 0.378735
O O7 0.241534 0.236058 0.192303
O O8 0.000000 0.230182 0.250000
O O9 0.270323 0.359260 0.448124
O O10 0.100719 0.498281 0.566437
O O11 0.989757 0.375376 0.561773
O O12 0.618555 0.978383 0.723490
O O13 0.254923 0.338201 0.681266
O O14 0.504913 0.268091 0.501515
O O15 0.489816 0.727641 0.896448
O O16 0.290329 0.616433 0.049186
O O17 0.500000 0.159345 0.250000
#
# Coordination Sequence:
#
# PCOD9283685 Si02
#       8
#     8   8   8   8   8   8   8   8
#     4  10  22  40  59  91 133 175 209 261 316 386
#     4  11  23  41  65  88 128 174 221 262 316 385
#     4  11  22  37  68  94 131 171 215 262 331 388
#     4  11  22  40  60  90 133 174 216 254 316 388
#     4   9  21  39  61  92 123 163 213 267 324 369
#     4  11  21  37  63  99 132 164 208 269 330 382
#     4  11  22  37  63 100 129 167 209 264 329 389
#     4  10  21  40  63  96 124 165 212 276 322 374
#
# _framework density 22.017772000000001
#
# number of rings (size 3 to 8) (size 9 to 14) (size 15 to 20)
#    0.000    1.500    3.750    2.250    0.000    4.000 
#    0.000    0.000    0.000   10.500    0.000    0.000 
#    0.000    0.000    0.000    0.000    0.000    0.000 
#
# Total GULP energy -178400.069497 kJ/mol
# GULP energy per Si atom -5575.002172 kJ/mol
# Density = 2.196766 g / cm^3
# Si number density = 22.017772 Si / 1000 Ang^3
#
#
#
# Elastic Constant Matrix: (Units=GPa)
#
#
# Indices 1 2 3 4 5 6 
#
# 1 90.7106 16.2123 -17.5794 0.0001 -9.5263 0.0001
# 2 16.2123 28.3822 4.6847 0.0003 -5.3835 0.0001
# 3 -17.5794 4.6847 79.0911 0.0005 2.1785 0.0002
# 4 0.0001 0.0003 0.0005 16.0112 0.0001 -0.3168
# 5 -9.5263 -5.3835 2.1785 0.0001 27.9118 -0.0001
# 6 0.0001 0.0001 0.0002 -0.3168 -0.0001 32.3477
#
#
#
# Elastic Compliance Matrix: (Units=1/GPa)
#
#
# Indices 1 2 3 4 5 6 
#
# 1 0.013331 -0.007631 0.003337 0.000000 0.002817 0.000000
# 2 -0.007631 0.041387 -0.004305 0.000000 0.005714 0.000000
# 3 0.003337 -0.004305 0.013661 0.000000 -0.000758 0.000000
# 4 0.000000 0.000000 0.000000 0.062469 0.000000 0.000612
# 5 0.002817 0.005714 -0.000758 0.000000 0.037950 0.000000
# 6 0.000000 0.000000 0.000000 0.000612 0.000000 0.030920
#
#
# Mechanical properties :
#
#
# Convention : Reuss Voigt Hill
#
# Bulk Modulus (GPa) = 19.53838 22.75769 21.14804
# Shear Modulus (GPa) = 21.36981 28.24522 24.80751
#
# Velocity S-wave (km/s) = 3.11878 3.58556 3.36028
# Velocity P-wave (km/s) = 4.67571 5.24406 4.96801
#
# Compressibility (1/GPa) = 0.05118131
#
# Stress axis : x y z
#
# Youngs Moduli (GPa) = 75.01547 24.16233 73.19958
#
# Poissons Ratio (x) = 0.18438 -0.24429
# Poissons Ratio (y) = 0.57245 0.31512
# Poissons Ratio (z) = -0.25035 0.10402
#
# Static dielectric constant tensor:
#      x y z
#    x 1.838640 0.000000 0.055900 
#    y 0.000000 1.817100 0.000000 
#    z 0.055900 0.000000 1.884370 
# 
# From -- ./inp_files/274826.got.cif
#   From: 2010.05.17/outbox.cif.g08.bks.cpg/sg15_138_cif.got.tgz:274826.got - 2010.06.03 18:47:42.
