data_PCOD9283457
_publ_section_title
;
Structure prediction by ZEFSAII (Michael W. Deem and Ramdas Pophale) SiO2 
 PCOD9283457
Probable space group: C 2/C
;
_chemical_formula_sum "Si O2"
_cell_formula_units_Z 44
_cell_length_a 15.423860
_cell_length_b 28.908825
_cell_length_c 5.176663
_cell_angle_alpha 90.000000
_cell_angle_beta 66.569793
_cell_angle_gamma 90.000000
_cell_volume 2117.877500
_symmetry_space_group_name_H-M "C 2/C"
_symmetry_group_IT_number 15
_symmetry_cell_setting 'monoclinic'
loop_
_space_group_symop_operation_xyz
x,y,z
-x,y,1/2-z
-x,-y,-z
x,-y,1/2+z
1/2+x,1/2+y,z
1/2-x,1/2+y,1/2-z
1/2-x,1/2-y,-z
1/2+x,1/2-y,1/2+z
loop_
_atom_site_type_symbol
_atom_site_label
_atom_site_fract_x
_atom_site_fract_y
_atom_site_fract_z
Si Si1 0.787691 0.213453 0.157589
Si Si2 0.726913 0.610360 0.361187
Si Si3 0.887189 0.024396 0.882472
Si Si4 0.396341 0.209176 0.754805
Si Si5 0.653200 0.107143 0.790352
Si Si6 0.000000 0.534370 0.750000
O O1 0.804340 0.162360 0.033352
O O2 0.697659 0.207806 0.454730
O O3 0.879817 0.240485 0.147631
O O4 0.750000 0.250000 0.000000
O O5 0.643110 0.574744 0.496072
O O6 0.806745 0.594859 0.474340
O O7 0.764497 0.609886 0.023618
O O8 0.000000 0.020954 0.750000
O O9 0.850317 0.010695 0.644810
O O10 0.500000 0.209176 0.750000
O O11 0.389304 0.159210 0.621813
O O12 0.581987 0.070504 0.744565
O O13 0.000000 0.500000 0.500000
#
# Coordination Sequence:
#
# PCOD9283457 Si02
#       6
#     8   8   8   8   8   4
#     4  10  21  40  61  94 128 160 216 267 309 386
#     4  11  23  40  67  93 126 163 211 261 310 379
#     4  10  22  42  64  91 125 164 208 260 317 380
#     4  10  21  41  63  88 127 175 210 255 325 391
#     4  11  23  41  64  89 124 172 209 252 321 379
#     4  12  26  42  60  94 132 158 216 276 302 366
#
# _framework density 20.775517000000001
#
# number of rings (size 3 to 8) (size 9 to 14) (size 15 to 20)
#    0.000    1.455    2.727    2.182    0.000    5.091 
#    3.273    0.909    0.000    0.000    0.000    0.000 
#    0.000    0.000    0.000    0.000    0.000    0.000 
#
# Total GULP energy -122516.899252 kJ/mol
# GULP energy per Si atom -5568.949966 kJ/mol
# Density = 2.072823 g / cm^3
# Si number density = 20.775517 Si / 1000 Ang^3
#
#
#
# Elastic Constant Matrix: (Units=GPa)
#
#
# Indices 1 2 3 4 5 6 
#
# 1 32.9715 -6.1764 13.3156 0.0000 12.0083 0.0000
# 2 -6.1764 131.2319 24.2285 0.0000 -9.8718 0.0000
# 3 13.3156 24.2285 35.5109 0.0000 8.3653 0.0000
# 4 0.0000 0.0000 0.0000 28.4504 0.0000 -4.0633
# 5 12.0083 -9.8718 8.3653 0.0000 13.1981 0.0000
# 6 0.0000 0.0000 0.0000 -4.0633 0.0000 37.1064
#
#
#
# Elastic Compliance Matrix: (Units=1/GPa)
#
#
# Indices 1 2 3 4 5 6 
#
# 1 0.047904 0.001519 -0.010579 0.000000 -0.035744 0.000000
# 2 0.001519 0.010791 -0.011177 0.000000 0.013774 0.000000
# 3 -0.010579 -0.011177 0.046380 0.000000 -0.028132 0.000000
# 4 0.000000 0.000000 0.000000 0.035707 0.000000 0.003910
# 5 -0.035744 0.013774 -0.028132 0.000000 0.136423 0.000000
# 6 0.000000 0.000000 0.000000 0.003910 0.000000 0.027378
#
#
# Mechanical properties :
#
#
# Convention : Reuss Voigt Hill
#
# Bulk Modulus (GPa) = 15.47946 29.16107 22.32027
# Shear Modulus (GPa) = 13.63920 26.97410 20.30665
#
# Velocity S-wave (km/s) = 2.56501 3.60719 3.12978
# Velocity P-wave (km/s) = 4.02981 5.60498 4.88135
#
# Compressibility (1/GPa) = 0.06460174
#
# Stress axis : x y z
#
# Youngs Moduli (GPa) = 20.87504 92.66811 21.56110
#
# Poissons Ratio (x) = -0.14075 0.22809
# Poissons Ratio (y) = -0.03171 0.24098
# Poissons Ratio (z) = 0.22083 1.03574
#
# Static dielectric constant tensor:
#      x y z
#    x 1.692920 0.000000 0.008050 
#    y 0.000000 1.802430 0.000000 
#    z 0.008050 0.000000 1.824890 
# 
# From -- ./inp_files/7618.got.cif
#   From: 2010.05.17/outbox.cif.g08.bks.cpg/sg15_4_cif.got.tgz:7618.got - 2010.06.03 18:47:42.
