data_PCOD9283991
_publ_section_title
;
Structure prediction by ZEFSAII (Michael W. Deem and Ramdas Pophale) SiO2 
 PCOD9283991
Probable space group: C 2/C
;
_chemical_formula_sum "Si O2"
_cell_formula_units_Z 40
_cell_length_a 9.458911
_cell_length_b 9.891432
_cell_length_c 21.007412
_cell_angle_alpha 90.000000
_cell_angle_beta 124.510900
_cell_angle_gamma 90.000000
_cell_volume 1619.607510
_symmetry_space_group_name_H-M "C 2/C"
_symmetry_group_IT_number 15
_symmetry_cell_setting 'monoclinic'
loop_
_space_group_symop_operation_xyz
x,y,z
-x,y,1/2-z
-x,-y,-z
x,-y,1/2+z
1/2+x,1/2+y,z
1/2-x,1/2+y,1/2-z
1/2-x,1/2-y,-z
1/2+x,1/2-y,1/2+z
loop_
_atom_site_type_symbol
_atom_site_label
_atom_site_fract_x
_atom_site_fract_y
_atom_site_fract_z
Si Si1 0.208941 0.204161 0.417023
Si Si2 0.502611 0.372635 0.045855
Si Si3 0.864712 0.437344 0.846339
Si Si4 0.176732 0.735979 0.399630
Si Si5 0.815278 0.255439 0.299403
O O1 0.250000 0.250000 0.500000
O O2 0.302834 0.325111 0.403087
O O3 0.299225 0.078527 0.402829
O O4 0.006557 0.198621 0.358678
O O5 0.423994 0.364108 0.096210
O O6 0.500000 0.500000 0.000000
O O7 0.369641 0.271206 0.976128
O O8 0.834958 0.582072 0.806537
O O9 0.763100 0.325369 0.779268
O O10 0.063210 0.392036 0.893419
O O11 0.195110 0.729367 0.329469
#
# Coordination Sequence:
#
# PCOD9283991 Si02
#       5
#     8   8   8   8   8
#     4  11  24  44  70 108 141 184 235 299 359 427
#     4  10  21  40  66 100 140 175 222 286 357 413
#     4  11  28  46  71 105 143 192 241 296 359 428
#     4  10  23  42  66 100 135 182 229 286 346 424
#     4  12  26  47  74 102 146 190 245 293 360 430
#
# _framework density 24.697341000000002
#
# number of rings (size 3 to 8) (size 9 to 14) (size 15 to 20)
#    0.000    1.200    2.000    2.400    2.800   10.400 
#    0.000    0.000    0.000    0.000    0.000    0.000 
#    0.000    0.000    0.000    0.000    0.000    0.000 
#
# Total GULP energy -111685.637591 kJ/mol
# GULP energy per Si atom -5584.281880 kJ/mol
# Density = 2.464113 g / cm^3
# Si number density = 24.697341 Si / 1000 Ang^3
#
#
#
# Elastic Constant Matrix: (Units=GPa)
#
#
# Indices 1 2 3 4 5 6 
#
# 1 168.2301 26.2186 25.5127 0.0000 -19.3015 0.0000
# 2 26.2186 89.3333 -7.4318 0.0000 -6.9963 0.0000
# 3 25.5127 -7.4318 78.2529 0.0000 -3.1156 0.0000
# 4 0.0000 0.0000 0.0000 29.8631 0.0000 1.3210
# 5 -19.3015 -6.9963 -3.1156 0.0000 35.4917 0.0000
# 6 0.0000 0.0000 0.0000 1.3210 0.0000 37.9323
#
#
#
# Elastic Compliance Matrix: (Units=1/GPa)
#
#
# Indices 1 2 3 4 5 6 
#
# 1 0.006976 -0.001991 -0.002336 0.000000 0.003196 0.000000
# 2 -0.001991 0.012046 0.001851 0.000000 0.001454 0.000000
# 3 -0.002336 0.001851 0.013728 0.000000 0.000300 0.000000
# 4 0.000000 0.000000 0.000000 0.033538 0.000000 -0.001168
# 5 0.003196 0.001454 0.000300 0.000000 0.030227 0.000000
# 6 0.000000 0.000000 0.000000 -0.001168 0.000000 0.026403
#
#
# Mechanical properties :
#
#
# Convention : Reuss Voigt Hill
#
# Bulk Modulus (GPa) = 35.97394 47.15724 41.56559
# Shear Modulus (GPa) = 36.45997 40.09186 38.27592
#
# Velocity S-wave (km/s) = 3.84640 4.03342 3.94102
# Velocity P-wave (km/s) = 5.85866 6.38959 6.12988
#
# Compressibility (1/GPa) = 0.02779790
#
# Stress axis : x y z
#
# Youngs Moduli (GPa) = 143.35814 83.01263 72.84145
#
# Poissons Ratio (x) = 0.16530 0.17016
# Poissons Ratio (y) = 0.28547 -0.13484
# Poissons Ratio (z) = 0.33490 -0.15367
#
# Static dielectric constant tensor:
#      x y z
#    x 1.995990 0.000000 -0.117720 
#    y 0.000000 2.030060 0.000000 
#    z -0.117720 0.000000 2.054150 
# 
# From -- ./inp_files/187818.got.cif
#   From: 2010.05.17/outbox.cif.g08.bks.cpg/sg15_94_cif.got.tgz:187818.got - 2010.06.03 18:47:42.
