data_PCOD9283135
_publ_section_title
;
Structure prediction by ZEFSAII (Michael W. Deem and Ramdas Pophale) SiO2 
 PCOD9283135
Probable space group: C 2/C
;
_chemical_formula_sum "Si O2"
_cell_formula_units_Z 44
_cell_length_a 15.020799
_cell_length_b 9.666988
_cell_length_c 28.682475
_cell_angle_alpha 90.000000
_cell_angle_beta 23.098095
_cell_angle_gamma 90.000000
_cell_volume 1633.903410
_symmetry_space_group_name_H-M "C 2/C"
_symmetry_group_IT_number 15
_symmetry_cell_setting 'monoclinic'
loop_
_space_group_symop_operation_xyz
x,y,z
-x,y,1/2-z
-x,-y,-z
x,-y,1/2+z
1/2+x,1/2+y,z
1/2-x,1/2+y,1/2-z
1/2-x,1/2-y,-z
1/2+x,1/2-y,1/2+z
loop_
_atom_site_type_symbol
_atom_site_label
_atom_site_fract_x
_atom_site_fract_y
_atom_site_fract_z
Si Si1 0.078887 0.283563 0.894066
Si Si2 0.654055 0.075634 0.470771
Si Si3 0.351453 0.483533 0.525545
Si Si4 0.183849 0.888267 0.190960
Si Si5 0.500000 0.856838 0.250000
Si Si6 0.560324 0.594111 0.332180
O O1 0.951271 0.433115 0.957917
O O2 0.285415 0.227956 0.829884
O O3 0.227730 0.304759 0.775626
O O4 0.876673 0.175048 0.996710
O O5 0.767116 0.014869 0.369657
O O6 0.435305 0.172334 0.570859
O O7 0.838164 0.149847 0.412902
O O8 0.500000 0.500000 0.500000
O O9 0.109853 0.547565 0.656340
O O10 0.483221 0.556354 0.419957
O O11 0.000000 0.803594 0.250000
O O12 0.111287 0.958405 0.274441
#
# Coordination Sequence:
#
# PCOD9283135 Si02
#       6
#     8   8   8   8   4   8
#     4  10  23  42  70  97 133 186 225 278 366 396
#     4   9  18  32  61 104 136 167 213 277 344 412
#     4  10  24  49  64  95 139 187 239 286 329 419
#     4   8  16  31  54  94 141 159 195 277 335 395
#     4  10  24  44  70  90 140 182 236 274 334 432
#     4  10  21  39  68 101 135 168 232 295 336 409
#
# _framework density 26.929376000000001
#
# number of rings (size 3 to 8) (size 9 to 14) (size 15 to 20)
#    0.000    2.545    0.000    0.000   12.727    7.273 
#   11.455    0.000    0.000    0.000    0.000    0.000 
#    0.000    0.000    0.000    0.000    0.000    0.000 
#
# Total GULP energy -122712.599321 kJ/mol
# GULP energy per Si atom -5577.845424 kJ/mol
# Density = 2.686808 g / cm^3
# Si number density = 26.929376 Si / 1000 Ang^3
#
#
#
# Elastic Constant Matrix: (Units=GPa)
#
#
# Indices 1 2 3 4 5 6 
#
# 1 47.7411 6.2326 50.0414 0.0064 23.0787 0.0032
# 2 6.2326 116.1236 58.1759 -0.0018 1.5152 0.0004
# 3 50.0414 58.1759 221.2025 -0.0209 17.8221 -0.0044
# 4 0.0064 -0.0018 -0.0209 49.7764 0.0044 4.1830
# 5 23.0787 1.5152 17.8221 0.0044 56.5010 -0.0005
# 6 0.0032 0.0004 -0.0044 4.1830 -0.0005 17.2903
#
#
#
# Elastic Compliance Matrix: (Units=1/GPa)
#
#
# Indices 1 2 3 4 5 6 
#
# 1 0.033905 0.001964 -0.007251 -0.000006 -0.011614 -0.000007
# 2 0.001964 0.010050 -0.003079 -0.000001 -0.000101 -0.000001
# 3 -0.007251 -0.003079 0.006901 0.000003 0.000868 0.000002
# 4 -0.000006 -0.000001 0.000003 0.020507 0.000000 -0.004961
# 5 -0.011614 -0.000101 0.000868 0.000000 0.022172 0.000003
# 6 -0.000007 -0.000001 0.000002 -0.004961 0.000003 0.059036
#
#
# Mechanical properties :
#
#
# Convention : Reuss Voigt Hill
#
# Bulk Modulus (GPa) = 29.30489 68.21854 48.76171
# Shear Modulus (GPa) = 27.67361 42.75468 35.21415
#
# Velocity S-wave (km/s) = 3.20915 3.98887 3.62006
# Velocity P-wave (km/s) = 4.96360 6.82658 5.96823
#
# Compressibility (1/GPa) = 0.03412400
#
# Stress axis : x y z
#
# Youngs Moduli (GPa) = 29.49434 99.50097 144.90462
#
# Poissons Ratio (x) = -0.19546 1.05070
# Poissons Ratio (y) = -0.05794 0.44623
# Poissons Ratio (z) = 0.21386 0.30641
#
# Static dielectric constant tensor:
#      x y z
#    x 2.011690 -0.000010 -0.262140 
#    y -0.000010 2.283530 -0.000010 
#    z -0.262140 -0.000010 2.058260 
# 
# From -- ./inp_files/316144.got.cif
#   From: 2010.05.17/outbox.cif.g08.bks.cpg/sg15_159_cif.got.tgz:316144.got - 2010.06.03 18:47:42.
