data_PCOD9283270
_publ_section_title
;
Structure prediction by ZEFSAII (Michael W. Deem and Ramdas Pophale) SiO2 
 PCOD9283270
Probable space group: C 2/C
;
_chemical_formula_sum "Si O2"
_cell_formula_units_Z 64
_cell_length_a 13.920188
_cell_length_b 11.901025
_cell_length_c 26.375881
_cell_angle_alpha 90.000000
_cell_angle_beta 44.520668
_cell_angle_gamma 90.000000
_cell_volume 3063.780198
_symmetry_space_group_name_H-M "C 2/C"
_symmetry_group_IT_number 15
_symmetry_cell_setting 'monoclinic'
loop_
_space_group_symop_operation_xyz
x,y,z
-x,y,1/2-z
-x,-y,-z
x,-y,1/2+z
1/2+x,1/2+y,z
1/2-x,1/2+y,1/2-z
1/2-x,1/2-y,-z
1/2+x,1/2-y,1/2+z
loop_
_atom_site_type_symbol
_atom_site_label
_atom_site_fract_x
_atom_site_fract_y
_atom_site_fract_z
Si Si1 0.097729 0.721840 0.606067
Si Si2 0.461027 0.470199 0.098987
Si Si3 0.086171 0.374867 0.515657
Si Si4 0.030051 0.740181 0.344732
Si Si5 0.714867 0.225654 0.125132
Si Si6 0.817173 0.192078 0.196094
Si Si7 0.649336 0.135028 0.477174
Si Si8 0.706314 0.474601 0.436808
O O1 0.195108 0.823194 0.588465
O O2 0.102137 0.710662 0.542912
O O3 0.169115 0.609057 0.599562
O O4 0.939365 0.740977 0.677462
O O5 0.467438 0.364816 0.133382
O O6 0.380583 0.571959 0.156116
O O7 0.384348 0.430877 0.076274
O O8 0.607816 0.512850 0.022762
O O9 0.204765 0.304051 0.444441
O O10 0.128435 0.504885 0.498769
O O11 0.054902 0.334495 0.583619
O O12 0.949665 0.350798 0.533665
O O13 0.180558 0.689861 0.280605
O O14 0.944860 0.741470 0.325049
O O15 0.770015 0.248254 0.160677
O O16 0.749431 0.097402 0.097909
#
# Coordination Sequence:
#
# PCOD9283270 Si02
#       8
#     8   8   8   8   8   8   8   8
#     4  11  21  39  66  95 127 172 208 258 317 380
#     4  10  22  41  66  96 126 164 215 271 313 374
#     4  11  22  41  63 102 122 162 211 278 304 376
#     4  12  25  40  67  92 132 167 218 259 324 383
#     4  11  23  43  67  93 124 168 218 268 316 365
#     4  11  26  44  59  93 137 171 206 256 329 392
#     4  10  22  36  66  94 132 156 212 260 324 360
#     4  10  21  39  72  98 120 161 224 275 306 362
#
# _framework density 20.889227000000002
#
# number of rings (size 3 to 8) (size 9 to 14) (size 15 to 20)
#    0.000    1.250    2.500    3.750    5.250    2.000 
#    0.000    3.750    0.000    0.000    0.000    0.000 
#    0.000    0.000    0.000    0.000    0.000    0.000 
#
# Total GULP energy -178937.431241 kJ/mol
# GULP energy per Si atom -5591.794726 kJ/mol
# Density = 2.084168 g / cm^3
# Si number density = 20.889227 Si / 1000 Ang^3
#
#
#
# Elastic Constant Matrix: (Units=GPa)
#
#
# Indices 1 2 3 4 5 6 
#
# 1 100.6795 26.7880 -8.0478 0.0000 -16.4569 0.0000
# 2 26.7880 85.6554 19.4160 0.0000 -5.9226 0.0000
# 3 -8.0478 19.4160 33.3139 0.0000 -4.3415 0.0000
# 4 0.0000 0.0000 0.0000 -2.1828 0.0000 -6.2464
# 5 -16.4569 -5.9226 -4.3415 0.0000 31.1900 0.0000
# 6 0.0000 0.0000 0.0000 -6.2464 0.0000 35.4979
#
#
#
# Elastic Compliance Matrix: (Units=1/GPa)
#
#
# Indices 1 2 3 4 5 6 
#
# 1 0.012999 -0.005191 0.007059 0.000000 0.006855 0.000000
# 2 -0.005191 0.015593 -0.010504 0.000000 -0.001240 0.000000
# 3 0.007059 -0.010504 0.038774 0.000000 0.007127 0.000000
# 4 0.000000 0.000000 0.000000 -0.304697 0.000000 -0.053616
# 5 0.006855 -0.001240 0.007127 0.000000 0.036435 0.000000
# 6 0.000000 0.000000 0.000000 -0.053616 0.000000 0.018736
#
#
# Mechanical properties :
#
#
# Convention : Reuss Voigt Hill
#
# Bulk Modulus (GPa) = 19.96271 32.88459 26.42365
# Shear Modulus (GPa) = -33.74051 25.00053 -4.36999
#
# Velocity S-wave (km/s) = -4.02333 3.46325 -1.44794
# Velocity P-wave (km/s) = 3.46492 5.63637 3.14349
#
# Compressibility (1/GPa) = 0.05009341
#
# Stress axis : x y z
#
# Youngs Moduli (GPa) = 76.93131 64.12947 25.79079
#
# Poissons Ratio (x) = 0.33292 -0.18206
# Poissons Ratio (y) = 0.39938 0.27090
# Poissons Ratio (z) = -0.54307 0.67361
#
# Static dielectric constant tensor:
#      x y z
#    x 1.787320 0.000000 -0.019650 
#    y 0.000000 1.725550 0.000000 
#    z -0.019650 0.000000 1.732570 
# 
# From -- ./inp_files/313593.got.cif
#   From: 2010.05.17/outbox.cif.g08.bks.cpg/sg15_157_cif.got.tgz:313593.got - 2010.06.03 18:47:42.
