data_PCOD9283155
_publ_section_title
;
Structure prediction by ZEFSAII (Michael W. Deem and Ramdas Pophale) SiO2 
 PCOD9283155
Probable space group: C 2/C
;
_chemical_formula_sum "Si O2"
_cell_formula_units_Z 52
_cell_length_a 9.007134
_cell_length_b 19.479110
_cell_length_c 23.005161
_cell_angle_alpha 90.000000
_cell_angle_beta 138.971858
_cell_angle_gamma 90.000000
_cell_volume 2649.532153
_symmetry_space_group_name_H-M "C 2/C"
_symmetry_group_IT_number 15
_symmetry_cell_setting 'monoclinic'
loop_
_space_group_symop_operation_xyz
x,y,z
-x,y,1/2-z
-x,-y,-z
x,-y,1/2+z
1/2+x,1/2+y,z
1/2-x,1/2+y,1/2-z
1/2-x,1/2-y,-z
1/2+x,1/2-y,1/2+z
loop_
_atom_site_type_symbol
_atom_site_label
_atom_site_fract_x
_atom_site_fract_y
_atom_site_fract_z
Si Si1 0.500000 0.482508 0.250000
Si Si2 0.035728 0.199927 0.929676
Si Si3 0.382413 0.614607 0.271647
Si Si4 0.790870 0.584800 0.478296
Si Si5 0.325630 0.798952 0.074726
Si Si6 0.758158 0.071697 0.563114
Si Si7 0.826881 0.254660 0.751048
O O1 0.330234 0.538266 0.230904
O O2 0.614201 0.441323 0.336746
O O3 0.117870 0.122125 0.944178
O O4 0.854258 0.208108 0.926987
O O5 0.919625 0.218926 0.835195
O O6 0.250000 0.250000 0.000000
O O7 0.500000 0.649654 0.250000
O O8 0.570734 0.606969 0.377080
O O9 0.193413 0.664219 0.240309
O O10 0.813652 0.624213 0.545357
O O11 0.779779 0.502590 0.476774
O O12 0.014345 0.602619 0.507299
O O13 0.578476 0.775647 0.165177
O O14 0.250000 0.750000 0.000000
O O15 0.000000 0.243159 0.750000
#
# Coordination Sequence:
#
# PCOD9283155 Si02
#       7
#     4   8   8   8   8   8   8
#     4   8  20  38  68  94 130 178 208 270 324 410
#     4  12  28  42  67 100 132 174 227 275 331 395
#     4   9  19  38  64  94 125 169 218 258 328 385
#     4  10  21  39  68  92 131 178 211 273 325 398
#     4  12  24  44  65  98 137 174 220 278 330 389
#     4  10  22  41  65  98 130 174 225 260 335 398
#     4  12  25  41  67  98 133 176 220 280 332 392
#
# _framework density 19.626107999999999
#
# number of rings (size 3 to 8) (size 9 to 14) (size 15 to 20)
#    0.462    0.923    1.538    4.154    5.385    0.615 
#    0.000    0.000    6.769    0.000    0.000    0.000 
#    0.000    0.000    0.000    0.000    0.000    0.000 
#
# Total GULP energy -145144.980673 kJ/mol
# GULP energy per Si atom -5582.499257 kJ/mol
# Density = 1.958144 g / cm^3
# Si number density = 19.626108 Si / 1000 Ang^3
#
#
#
# Elastic Constant Matrix: (Units=GPa)
#
#
# Indices 1 2 3 4 5 6 
#
# 1 169.6403 47.5786 40.1158 0.0002 6.6896 -0.0005
# 2 47.5786 65.2706 19.7728 -0.0002 1.0037 0.0001
# 3 40.1158 19.7728 64.6876 -0.0008 1.5890 0.0020
# 4 0.0002 -0.0002 -0.0008 25.2068 -0.0005 11.8629
# 5 6.6896 1.0037 1.5890 -0.0005 26.2919 0.0002
# 6 -0.0005 0.0001 0.0020 11.8629 0.0002 -12.5102
#
#
#
# Elastic Compliance Matrix: (Units=1/GPa)
#
#
# Indices 1 2 3 4 5 6 
#
# 1 0.008157 -0.004849 -0.003535 0.000000 -0.001677 -0.000001
# 2 -0.004849 0.019770 -0.003052 0.000000 0.000664 0.000000
# 3 -0.003535 -0.003052 0.018587 -0.000001 -0.000107 0.000003
# 4 0.000000 0.000000 -0.000001 0.027430 0.000000 0.026011
# 5 -0.001677 0.000664 -0.000107 0.000000 0.038442 0.000001
# 6 -0.000001 0.000000 0.000003 0.026011 0.000001 -0.055269
#
#
# Mechanical properties :
#
#
# Convention : Reuss Voigt Hill
#
# Bulk Modulus (GPa) = 42.29955 57.17031 49.73493
# Shear Modulus (GPa) = 56.90219 20.60646 38.75432
#
# Velocity S-wave (km/s) = 5.39037 3.24381 4.44850
# Velocity P-wave (km/s) = 7.76794 6.57440 7.19596
#
# Compressibility (1/GPa) = 0.02364092
#
# Stress axis : x y z
#
# Youngs Moduli (GPa) = 122.59458 50.58147 53.80182
#
# Poissons Ratio (x) = 0.24528 0.19019
# Poissons Ratio (y) = 0.59450 0.16421
# Poissons Ratio (z) = 0.43338 0.15438
#
# Static dielectric constant tensor:
#      x y z
#    x 1.622250 0.000000 -0.044880 
#    y 0.000000 1.748080 0.000000 
#    z -0.044880 0.000000 1.620900 
# 
# From -- ./inp_files/290016.got.cif
#   From: 2010.05.17/outbox.cif.g08.bks.cpg/sg15_146_cif.got.tgz:290016.got - 2010.06.03 18:47:42.
