data_PCOD9283050
_publ_section_title
;
Structure prediction by ZEFSAII (Michael W. Deem and Ramdas Pophale) SiO2 
 PCOD9283050
Probable space group: C 2/C
;
_chemical_formula_sum "Si O2"
_cell_formula_units_Z 52
_cell_length_a 16.620802
_cell_length_b 11.062851
_cell_length_c 20.570346
_cell_angle_alpha 90.000000
_cell_angle_beta 42.116475
_cell_angle_gamma 90.000000
_cell_volume 2536.588685
_symmetry_space_group_name_H-M "C 2/C"
_symmetry_group_IT_number 15
_symmetry_cell_setting 'monoclinic'
loop_
_space_group_symop_operation_xyz
x,y,z
-x,y,1/2-z
-x,-y,-z
x,-y,1/2+z
1/2+x,1/2+y,z
1/2-x,1/2+y,1/2-z
1/2-x,1/2-y,-z
1/2+x,1/2-y,1/2+z
loop_
_atom_site_type_symbol
_atom_site_label
_atom_site_fract_x
_atom_site_fract_y
_atom_site_fract_z
Si Si1 0.813274 0.880910 0.955849
Si Si2 0.812096 0.462441 0.077579
Si Si3 0.654267 0.144949 0.756696
Si Si4 0.140698 0.004523 0.931574
Si Si5 0.067892 0.413700 0.875797
Si Si6 0.760915 0.734097 0.310584
Si Si7 0.500000 0.715459 0.250000
O O1 0.937383 0.860870 0.843446
O O2 0.736004 0.967037 0.955468
O O3 0.750000 0.750000 0.000000
O O4 0.836385 0.940013 0.011432
O O5 0.843281 0.556798 0.116900
O O6 0.727018 0.357662 0.156565
O O7 0.937153 0.397028 0.983913
O O8 0.784361 0.088400 0.663456
O O9 0.668386 0.236871 0.807525
O O10 0.599589 0.203541 0.725641
O O11 0.570158 0.036834 0.832292
O O12 0.204216 0.874034 0.886330
O O13 0.000000 0.000000 0.000000
O O14 0.120168 0.312092 0.797343
#
# Coordination Sequence:
#
# PCOD9283050 Si02
#       7
#     8   8   8   8   8   8   4
#     4  12  25  43  69 101 135 173 228 286 340 408
#     4  10  22  40  66  95 134 174 226 276 345 403
#     4  10  21  39  66  97 130 170 227 273 336 401
#     4  11  25  42  67  97 136 177 224 277 341 412
#     4   9  20  38  64  95 130 176 219 274 330 411
#     4  10  22  41  64  95 132 180 220 272 338 411
#     4  12  22  40  70  98 132 170 218 296 338 390
#
# _framework density 20.499973000000001
#
# number of rings (size 3 to 8) (size 9 to 14) (size 15 to 20)
#    0.000    1.538    1.538    2.769    2.154    4.308 
#    0.000    0.000    3.385    0.000    0.000    0.000 
#    0.000    0.000    0.000    0.000    0.000    0.000 
#
# Total GULP energy -145304.431703 kJ/mol
# GULP energy per Si atom -5588.631989 kJ/mol
# Density = 2.045331 g / cm^3
# Si number density = 20.499973 Si / 1000 Ang^3
#
#
#
# Elastic Constant Matrix: (Units=GPa)
#
#
# Indices 1 2 3 4 5 6 
#
# 1 87.4153 52.6897 21.9313 0.0000 21.1234 0.0000
# 2 52.6897 85.2972 41.0829 0.0000 14.4424 0.0000
# 3 21.9313 41.0829 117.8157 0.0000 9.6059 0.0000
# 4 0.0000 0.0000 0.0000 29.4715 0.0000 9.5467
# 5 21.1234 14.4424 9.6059 0.0000 34.6924 0.0000
# 6 0.0000 0.0000 0.0000 9.5467 0.0000 17.7281
#
#
#
# Elastic Compliance Matrix: (Units=1/GPa)
#
#
# Indices 1 2 3 4 5 6 
#
# 1 0.019981 -0.011487 0.000909 0.000000 -0.007635 0.000000
# 2 -0.011487 0.021454 -0.005305 0.000000 -0.000468 0.000000
# 3 0.000909 -0.005305 0.010265 0.000000 -0.001187 0.000000
# 4 0.000000 0.000000 0.000000 0.041101 0.000000 -0.022133
# 5 -0.007635 -0.000468 -0.001187 0.000000 0.033997 0.000000
# 6 0.000000 0.000000 0.000000 -0.022133 0.000000 0.068326
#
#
# Mechanical properties :
#
#
# Convention : Reuss Voigt Hill
#
# Bulk Modulus (GPa) = 50.16669 57.99287 54.07978
# Shear Modulus (GPa) = 21.41009 28.03335 24.72172
#
# Velocity S-wave (km/s) = 3.23522 3.70196 3.47643
# Velocity P-wave (km/s) = 6.20324 6.82813 6.52317
#
# Compressibility (1/GPa) = 0.01993355
#
# Stress axis : x y z
#
# Youngs Moduli (GPa) = 50.04832 46.61172 97.41673
#
# Poissons Ratio (x) = 0.53545 -0.08854
# Poissons Ratio (y) = 0.57493 0.51675
# Poissons Ratio (z) = -0.04549 0.24725
#
# Static dielectric constant tensor:
#      x y z
#    x 1.707070 0.000000 -0.010850 
#    y 0.000000 1.743170 0.000000 
#    z -0.010850 0.000000 1.742770 
# 
# From -- ./inp_files/248557.got.cif
#   From: 2010.05.17/outbox.cif.g08.bks.cpg/sg15_125_cif.got.tgz:248557.got - 2010.06.03 18:47:42.
