data_PCOD9283820
_publ_section_title
;
Structure prediction by ZEFSAII (Michael W. Deem and Ramdas Pophale) SiO2 
 PCOD9283820
Probable space group: C 2/C
;
_chemical_formula_sum "Si O2"
_cell_formula_units_Z 48
_cell_length_a 10.174117
_cell_length_b 15.920510
_cell_length_c 13.787660
_cell_angle_alpha 90.000000
_cell_angle_beta 118.789752
_cell_angle_gamma 90.000000
_cell_volume 1957.235508
_symmetry_space_group_name_H-M "C 2/C"
_symmetry_group_IT_number 15
_symmetry_cell_setting 'monoclinic'
loop_
_space_group_symop_operation_xyz
x,y,z
-x,y,1/2-z
-x,-y,-z
x,-y,1/2+z
1/2+x,1/2+y,z
1/2-x,1/2+y,1/2-z
1/2-x,1/2-y,-z
1/2+x,1/2-y,1/2+z
loop_
_atom_site_type_symbol
_atom_site_label
_atom_site_fract_x
_atom_site_fract_y
_atom_site_fract_z
Si Si1 0.722675 0.948230 0.554092
Si Si2 0.408829 0.129922 0.009462
Si Si3 0.500000 0.906069 0.750000
Si Si4 0.000000 0.706058 0.750000
Si Si5 0.453018 0.710387 0.432519
Si Si6 0.684242 0.546328 0.205301
Si Si7 0.812595 0.120670 0.878999
O O1 0.565284 0.899619 0.514526
O O2 0.820900 0.931024 0.683808
O O3 0.790447 0.918128 0.478229
O O4 0.693221 0.047722 0.537184
O O5 0.443821 0.142957 0.135524
O O6 0.352684 0.213077 0.936193
O O7 0.638824 0.960616 0.759955
O O8 0.976317 0.759319 0.643935
O O9 0.151143 0.652966 0.787436
O O10 0.375930 0.622126 0.381121
O O11 0.574627 0.696353 0.560289
O O12 0.620569 0.454575 0.161032
#
# Coordination Sequence:
#
# PCOD9283820 Si02
#       7
#     8   8   4   4   8   8   8
#     4  10  21  41  67  91 127 169 224 255 315 381
#     4  10  21  40  64  96 122 170 219 270 301 387
#     4  10  21  40  68  85 126 174 226 245 314 386
#     4  12  25  42  70  99 122 176 220 265 312 390
#     4  12  26  41  66 100 138 159 214 275 332 365
#     4  11  24  42  66  95 132 176 210 266 322 389
#     4  12  24  44  66  99 129 173 213 267 324 388
#
# _framework density 24.524387000000001
#
# number of rings (size 3 to 8) (size 9 to 14) (size 15 to 20)
#    0.000    1.000    3.333    3.500    7.000    0.667 
#    0.000    0.000    0.000    0.000    0.000    0.000 
#    0.000    0.000    0.000    0.000    0.000    0.000 
#
# Total GULP energy -134400.990925 kJ/mol
# GULP energy per Si atom -5600.041289 kJ/mol
# Density = 2.446857 g / cm^3
# Si number density = 24.524387 Si / 1000 Ang^3
#
#
#
# Elastic Constant Matrix: (Units=GPa)
#
#
# Indices 1 2 3 4 5 6 
#
# 1 29.9966 10.8822 6.5470 0.0000 5.1299 0.0000
# 2 10.8822 122.4094 27.3816 0.0000 15.6595 0.0000
# 3 6.5470 27.3816 96.2506 0.0000 0.6797 0.0000
# 4 0.0000 0.0000 0.0000 16.7591 0.0000 8.5177
# 5 5.1299 15.6595 0.6797 0.0000 35.1175 0.0000
# 6 0.0000 0.0000 0.0000 8.5177 0.0000 23.6430
#
#
#
# Elastic Compliance Matrix: (Units=1/GPa)
#
#
# Indices 1 2 3 4 5 6 
#
# 1 0.035225 -0.002215 -0.001737 0.000000 -0.004124 0.000000
# 2 -0.002215 0.009415 -0.002501 0.000000 -0.003826 0.000000
# 3 -0.001737 -0.002501 0.011211 0.000000 0.001152 0.000000
# 4 0.000000 0.000000 0.000000 0.073043 0.000000 -0.026315
# 5 -0.004124 -0.003826 0.001152 0.000000 0.030762 0.000000
# 6 0.000000 0.000000 0.000000 -0.026315 0.000000 0.051776
#
#
# Mechanical properties :
#
#
# Convention : Reuss Voigt Hill
#
# Bulk Modulus (GPa) = 23.28526 37.58646 30.43586
# Shear Modulus (GPa) = 20.95084 28.69366 24.82225
#
# Velocity S-wave (km/s) = 2.92599 3.42424 3.18487
# Velocity P-wave (km/s) = 4.57499 5.56717 5.09529
#
# Compressibility (1/GPa) = 0.04294562
#
# Stress axis : x y z
#
# Youngs Moduli (GPa) = 28.38877 106.21195 89.19852
#
# Poissons Ratio (x) = 0.23531 0.15491
# Poissons Ratio (y) = 0.06289 0.22306
# Poissons Ratio (z) = 0.04930 0.26561
#
# Static dielectric constant tensor:
#      x y z
#    x 1.980320 0.000000 0.045190 
#    y 0.000000 1.928290 0.000000 
#    z 0.045190 0.000000 1.952770 
# 
# From -- ./inp_files/87920.got.cif
#   From: 2010.05.17/outbox.cif.g08.bks.cpg/sg15_44_cif.got.tgz:87920.got - 2010.06.03 18:47:42.
