data_PCOD9283610
_publ_section_title
;
Structure prediction by ZEFSAII (Michael W. Deem and Ramdas Pophale) SiO2 
 PCOD9283610
Probable space group: C 2/C
;
_chemical_formula_sum "Si O2"
_cell_formula_units_Z 64
_cell_length_a 7.355069
_cell_length_b 26.828060
_cell_length_c 26.779281
_cell_angle_alpha 90.000000
_cell_angle_beta 142.829949
_cell_angle_gamma 90.000000
_cell_volume 3192.590400
_symmetry_space_group_name_H-M "C 2/C"
_symmetry_group_IT_number 15
_symmetry_cell_setting 'monoclinic'
loop_
_space_group_symop_operation_xyz
x,y,z
-x,y,1/2-z
-x,-y,-z
x,-y,1/2+z
1/2+x,1/2+y,z
1/2-x,1/2+y,1/2-z
1/2-x,1/2-y,-z
1/2+x,1/2-y,1/2+z
loop_
_atom_site_type_symbol
_atom_site_label
_atom_site_fract_x
_atom_site_fract_y
_atom_site_fract_z
Si Si1 0.623423 0.881909 0.896937
Si Si2 0.718897 0.623717 0.908122
Si Si3 0.261644 0.686512 0.343639
Si Si4 0.313554 0.928508 0.259080
Si Si5 0.771804 0.892922 0.590874
Si Si6 0.031727 0.714348 0.920005
Si Si7 0.182442 0.129796 0.580366
Si Si8 0.217848 0.044885 0.250059
O O1 0.664583 0.829422 0.877931
O O2 0.396024 0.879427 0.893826
O O3 0.494950 0.920320 0.827840
O O4 0.949147 0.895405 0.990590
O O5 0.516152 0.594027 0.823684
O O6 0.849848 0.674178 0.912965
O O7 0.504869 0.634955 0.909126
O O8 0.006452 0.593854 0.993804
O O9 0.554919 0.654581 0.393466
O O10 0.314304 0.744787 0.348537
O O11 0.000000 0.669545 0.250000
O O12 0.500000 0.917593 0.250000
O O13 0.515896 0.902143 0.345282
O O14 0.303487 0.987732 0.262186
O O15 0.024047 0.933398 0.661434
O O16 0.217720 0.682471 0.920624
O O17 0.250000 0.750000 0.000000
O O18 0.000000 0.046722 0.250000
#
# Coordination Sequence:
#
# PCOD9283610 Si02
#       8
#     8   8   8   8   8   8   8   8
#     4  10  21  40  63  89 127 161 205 261 309 367
#     4  10  23  43  62  87 131 166 204 259 308 370
#     4  12  24  38  62  97 127 166 204 264 313 362
#     4  10  24  42  62  91 123 170 208 252 317 374
#     4  10  21  40  63  89 127 161 205 261 309 367
#     4  12  24  40  64  98 122 167 221 244 319 379
#     4  10  23  43  62  87 131 166 204 259 308 370
#     4  10  22  38  62  93 117 160 214 256 317 368
#
# _framework density 20.046417000000002
#
# number of rings (size 3 to 8) (size 9 to 14) (size 15 to 20)
#    0.000    1.500    3.750    0.000    5.250    2.500 
#    0.000    0.000    0.000    0.000    0.000    0.000 
#    0.000    0.000    0.000    0.000    0.000    0.000 
#
# Total GULP energy -178546.867423 kJ/mol
# GULP energy per Si atom -5579.589607 kJ/mol
# Density = 2.000079 g / cm^3
# Si number density = 20.046417 Si / 1000 Ang^3
#
#
#
# Elastic Constant Matrix: (Units=GPa)
#
#
# Indices 1 2 3 4 5 6 
#
# 1 51.4786 -0.3141 11.4121 0.0000 9.7365 0.0000
# 2 -0.3141 81.2637 30.3274 0.0000 10.5430 0.0000
# 3 11.4121 30.3274 121.7303 0.0000 16.3055 0.0000
# 4 0.0000 0.0000 0.0000 29.8250 0.0000 1.1555
# 5 9.7365 10.5430 16.3055 0.0000 12.6027 0.0000
# 6 0.0000 0.0000 0.0000 1.1555 0.0000 30.9762
#
#
#
# Elastic Compliance Matrix: (Units=1/GPa)
#
#
# Indices 1 2 3 4 5 6 
#
# 1 0.023276 0.002760 -0.000184 0.000000 -0.020054 0.000000
# 2 0.002760 0.014679 -0.002402 0.000000 -0.011306 0.000000
# 3 -0.000184 -0.002402 0.010333 0.000000 -0.011218 0.000000
# 4 0.000000 0.000000 0.000000 0.033577 0.000000 -0.001253
# 5 -0.020054 -0.011306 -0.011218 0.000000 0.118813 0.000000
# 6 0.000000 0.000000 0.000000 -0.001253 0.000000 0.032330
#
#
# Mechanical properties :
#
#
# Convention : Reuss Voigt Hill
#
# Bulk Modulus (GPa) = 20.55981 37.48039 29.02010
# Shear Modulus (GPa) = 20.09072 28.88393 24.48733
#
# Velocity S-wave (km/s) = 3.16920 3.79997 3.49883
# Velocity P-wave (km/s) = 4.86520 6.16364 5.55251
#
# Compressibility (1/GPa) = 0.04863859
#
# Stress axis : x y z
#
# Youngs Moduli (GPa) = 42.96260 68.12309 96.77694
#
# Poissons Ratio (x) = -0.18804 0.01777
# Poissons Ratio (y) = -0.11859 0.23242
# Poissons Ratio (z) = 0.00789 0.16360
#
# Static dielectric constant tensor:
#      x y z
#    x 1.728640 0.000000 0.000420 
#    y 0.000000 1.669910 0.000000 
#    z 0.000420 0.000000 1.782100 
# 
# From -- ./inp_files/309150.got.cif
#   From: 2010.05.17/outbox.cif.g08.bks.cpg/sg15_155_cif.got.tgz:309150.got - 2010.06.03 18:47:42.
