data_PCOD9283227
_publ_section_title
;
Structure prediction by ZEFSAII (Michael W. Deem and Ramdas Pophale) SiO2 
 PCOD9283227
Probable space group: C 2/C
;
_chemical_formula_sum "Si O2"
_cell_formula_units_Z 48
_cell_length_a 22.141791
_cell_length_b 11.821893
_cell_length_c 12.250100
_cell_angle_alpha 90.000000
_cell_angle_beta 141.534247
_cell_angle_gamma 90.000000
_cell_volume 1994.630362
_symmetry_space_group_name_H-M "C 2/C"
_symmetry_group_IT_number 15
_symmetry_cell_setting 'monoclinic'
loop_
_space_group_symop_operation_xyz
x,y,z
-x,y,1/2-z
-x,-y,-z
x,-y,1/2+z
1/2+x,1/2+y,z
1/2-x,1/2+y,1/2-z
1/2-x,1/2-y,-z
1/2+x,1/2-y,1/2+z
loop_
_atom_site_type_symbol
_atom_site_label
_atom_site_fract_x
_atom_site_fract_y
_atom_site_fract_z
Si Si1 0.421057 0.533416 0.055447
Si Si2 0.014580 0.211285 0.895533
Si Si3 0.240130 0.071385 0.519431
Si Si4 0.896348 0.268280 0.915182
Si Si5 0.286641 0.292992 0.719855
Si Si6 0.531488 0.039501 0.670802
O O1 0.500000 0.583396 0.250000
O O2 0.470091 0.423996 0.072066
O O3 0.330619 0.497488 0.005004
O O4 0.393915 0.635143 0.938821
O O5 0.000000 0.233157 0.750000
O O6 0.925746 0.267953 0.831496
O O7 0.115648 0.253435 0.088704
O O8 0.242084 0.191032 0.586438
O O9 0.197847 0.102273 0.340344
O O10 0.351760 0.036542 0.664783
O O11 0.795274 0.321939 0.807925
O O12 0.981654 0.335726 0.098026
O O13 0.500000 0.994768 0.750000
O O14 0.500000 0.000000 0.500000
#
# Coordination Sequence:
#
# PCOD9283227 Si02
#       6
#     8   8   8   8   8   8
#     4  10  22  38  67 102 131 173 222 287 339 411
#     4  11  24  41  63 100 144 179 224 285 356 413
#     4  10  21  40  69  99 126 172 234 283 337 408
#     4  11  22  42  69  93 136 180 233 279 343 412
#     4  10  21  39  69  96 125 176 230 284 334 413
#     4  12  26  45  68 102 136 185 235 292 352 413
#
# _framework density 24.064610999999999
#
# number of rings (size 3 to 8) (size 9 to 14) (size 15 to 20)
#    0.000    1.333    3.333    2.000    4.667    2.667 
#    0.000    3.333    0.000    0.000    0.000    0.000 
#    0.000    0.000    0.000    0.000    0.000    0.000 
#
# Total GULP energy -133906.093301 kJ/mol
# GULP energy per Si atom -5579.420554 kJ/mol
# Density = 2.400984 g / cm^3
# Si number density = 24.064611 Si / 1000 Ang^3
#
#
#
# Elastic Constant Matrix: (Units=GPa)
#
#
# Indices 1 2 3 4 5 6 
#
# 1 166.9771 20.6032 73.3127 0.0000 -3.7929 0.0000
# 2 20.6032 71.9355 -6.3919 0.0000 -8.2388 0.0000
# 3 73.3127 -6.3919 85.9523 0.0000 -15.1310 0.0000
# 4 0.0000 0.0000 0.0000 21.0637 0.0000 -1.9067
# 5 -3.7929 -8.2388 -15.1310 0.0000 41.9566 0.0000
# 6 0.0000 0.0000 0.0000 -1.9067 0.0000 19.7119
#
#
#
# Elastic Compliance Matrix: (Units=1/GPa)
#
#
# Indices 1 2 3 4 5 6 
#
# 1 0.011010 -0.004489 -0.010363 0.000000 -0.003623 0.000000
# 2 -0.004489 0.016275 0.005906 0.000000 0.004920 0.000000
# 3 -0.010363 0.005906 0.022372 0.000000 0.008291 0.000000
# 4 0.000000 0.000000 0.000000 0.047894 0.000000 0.004633
# 5 -0.003623 0.004920 0.008291 0.000000 0.027463 0.000000
# 6 0.000000 0.000000 0.000000 0.004633 0.000000 0.051179
#
#
# Mechanical properties :
#
#
# Convention : Reuss Voigt Hill
#
# Bulk Modulus (GPa) = 31.48179 55.54588 43.51384
# Shear Modulus (GPa) = 24.42888 32.36918 28.39903
#
# Velocity S-wave (km/s) = 3.18958 3.67153 3.43901
# Velocity P-wave (km/s) = 5.16480 6.41137 5.82154
#
# Compressibility (1/GPa) = 0.03176439
#
# Stress axis : x y z
#
# Youngs Moduli (GPa) = 90.82267 61.44257 44.69831
#
# Poissons Ratio (x) = 0.27584 0.46321
# Poissons Ratio (y) = 0.40773 -0.26397
# Poissons Ratio (z) = 0.94120 -0.36285
#
# Static dielectric constant tensor:
#      x y z
#    x 1.987080 0.000000 -0.036360 
#    y 0.000000 1.966450 0.000000 
#    z -0.036360 0.000000 1.886770 
# 
# From -- ./inp_files/112984.got.cif
#   From: 2010.05.17/outbox.cif.g08.bks.cpg/sg15_57_cif.got.tgz:112984.got - 2010.06.03 18:47:42.
