data_PCOD9283504
_publ_section_title
;
Structure prediction by ZEFSAII (Michael W. Deem and Ramdas Pophale) SiO2 
 PCOD9283504
Probable space group: C 2/C
;
_chemical_formula_sum "Si O2"
_cell_formula_units_Z 56
_cell_length_a 9.545365
_cell_length_b 17.601849
_cell_length_c 30.085303
_cell_angle_alpha 90.000000
_cell_angle_beta 36.385833
_cell_angle_gamma 90.000000
_cell_volume 2998.616284
_symmetry_space_group_name_H-M "C 2/C"
_symmetry_group_IT_number 15
_symmetry_cell_setting 'monoclinic'
loop_
_space_group_symop_operation_xyz
x,y,z
-x,y,1/2-z
-x,-y,-z
x,-y,1/2+z
1/2+x,1/2+y,z
1/2-x,1/2+y,1/2-z
1/2-x,1/2-y,-z
1/2+x,1/2-y,1/2+z
loop_
_atom_site_type_symbol
_atom_site_label
_atom_site_fract_x
_atom_site_fract_y
_atom_site_fract_z
Si Si1 0.421779 0.307591 0.981227
Si Si2 0.720548 0.442814 0.538446
Si Si3 0.453253 0.103530 0.466632
Si Si4 0.442110 0.664859 0.579590
Si Si5 0.578926 0.845847 0.678842
Si Si6 0.772546 0.307359 0.676932
Si Si7 0.779272 0.493352 0.338646
O O1 0.330013 0.390954 0.990971
O O2 0.680053 0.302057 0.893378
O O3 0.250000 0.250000 0.000000
O O4 0.441567 0.303733 0.029323
O O5 0.867911 0.516520 0.487044
O O6 0.462593 0.471829 0.621694
O O7 0.870648 0.395155 0.536117
O O8 0.594304 0.132241 0.388134
O O9 0.209629 0.151482 0.528930
O O10 0.316959 0.725887 0.642949
O O11 0.308986 0.583561 0.615596
O O12 0.500000 0.842414 0.750000
O O13 0.382678 0.812076 0.697340
O O14 0.629662 0.935198 0.655529
O O15 0.500000 0.324584 0.750000
O O16 0.000000 0.476048 0.250000
#
# Coordination Sequence:
#
# PCOD9283504 Si02
#       7
#     8   8   8   8   8   8   8
#     4  11  23  38  64  88 123 162 207 256 305 369
#     4   9  21  37  63  91 121 160 207 254 304 366
#     4  10  21  40  62  89 123 158 206 257 305 359
#     4  11  23  40  64  92 121 162 210 253 310 365
#     4  10  24  42  62  88 120 165 202 249 309 374
#     4  12  26  38  63  92 127 161 204 256 312 369
#     4   9  20  39  64  87 124 160 203 247 305 368
#
# _framework density 18.675280000000001
#
# number of rings (size 3 to 8) (size 9 to 14) (size 15 to 20)
#    0.000    1.714    1.429    1.714   12.000    1.714 
#    0.000    0.000    0.000    0.857    0.000    0.000 
#    0.000    0.000    0.000    0.000    0.000    0.000 
#
# Total GULP energy -156210.321489 kJ/mol
# GULP energy per Si atom -5578.940053 kJ/mol
# Density = 1.863277 g / cm^3
# Si number density = 18.675280 Si / 1000 Ang^3
#
#
#
# Elastic Constant Matrix: (Units=GPa)
#
#
# Indices 1 2 3 4 5 6 
#
# 1 73.8005 20.1666 10.9368 0.0017 -0.8806 -0.0024
# 2 20.1666 42.3401 23.2562 -0.0018 3.4294 -0.0022
# 3 10.9368 23.2562 83.0508 0.0058 -15.3521 -0.0057
# 4 0.0017 -0.0018 0.0058 18.2317 -0.0023 0.2417
# 5 -0.8806 3.4294 -15.3521 -0.0023 33.1298 0.0015
# 6 -0.0024 -0.0022 -0.0057 0.2417 0.0015 30.3180
#
#
#
# Elastic Compliance Matrix: (Units=1/GPa)
#
#
# Indices 1 2 3 4 5 6 
#
# 1 0.015633 -0.007763 0.000373 -0.000002 0.001392 0.000001
# 2 -0.007763 0.033392 -0.009849 0.000006 -0.008227 0.000000
# 3 0.000373 -0.009849 0.016340 -0.000005 0.008601 0.000002
# 4 -0.000002 0.000006 -0.000005 0.054855 0.000001 -0.000437
# 5 0.001392 -0.008227 0.008601 0.000001 0.035059 -0.000001
# 6 0.000001 0.000000 0.000002 -0.000437 -0.000001 0.032987
#
#
# Mechanical properties :
#
#
# Convention : Reuss Voigt Hill
#
# Bulk Modulus (GPa) = 32.37814 34.21229 33.29522
# Shear Modulus (GPa) = 21.45554 25.99134 23.72344
#
# Velocity S-wave (km/s) = 3.39318 3.73467 3.56801
# Velocity P-wave (km/s) = 5.72072 6.07917 5.90267
#
# Compressibility (1/GPa) = 0.03088503
#
# Stress axis : x y z
#
# Youngs Moduli (GPa) = 63.96792 29.94730 61.20086
#
# Poissons Ratio (x) = 0.23249 -0.02280
# Poissons Ratio (y) = 0.49660 0.60276
# Poissons Ratio (z) = -0.02383 0.29495
#
# Static dielectric constant tensor:
#      x y z
#    x 1.648330 0.000000 -0.020790 
#    y 0.000000 1.664700 0.000000 
#    z -0.020790 0.000000 1.625170 
# 
# From -- ./inp_files/191053.got.cif
#   From: 2010.05.17/outbox.cif.g08.bks.cpg/sg15_96_cif.got.tgz:191053.got - 2010.06.03 18:47:42.
