data_PCOD9283301
_publ_section_title
;
Structure prediction by ZEFSAII (Michael W. Deem and Ramdas Pophale) SiO2 
 PCOD9283301
Probable space group: C 2/C
;
_chemical_formula_sum "Si O2"
_cell_formula_units_Z 36
_cell_length_a 13.751225
_cell_length_b 16.819838
_cell_length_c 15.735932
_cell_angle_alpha 90.000000
_cell_angle_beta 25.352153
_cell_angle_gamma 90.000000
_cell_volume 1558.413398
_symmetry_space_group_name_H-M "C 2/C"
_symmetry_group_IT_number 15
_symmetry_cell_setting 'monoclinic'
loop_
_space_group_symop_operation_xyz
x,y,z
-x,y,1/2-z
-x,-y,-z
x,-y,1/2+z
1/2+x,1/2+y,z
1/2-x,1/2+y,1/2-z
1/2-x,1/2-y,-z
1/2+x,1/2-y,1/2+z
loop_
_atom_site_type_symbol
_atom_site_label
_atom_site_fract_x
_atom_site_fract_y
_atom_site_fract_z
Si Si1 0.922146 0.315727 0.399734
Si Si2 0.487036 0.943219 0.926403
Si Si3 0.500000 0.546853 0.750000
Si Si4 0.329631 0.668589 0.237681
Si Si5 0.345159 0.533755 0.545303
O O1 0.750000 0.250000 0.500000
O O2 0.775569 0.358530 0.587752
O O3 0.000000 0.356528 0.250000
O O4 0.111639 0.261809 0.298871
O O5 0.644188 0.865774 0.818993
O O6 0.601776 0.000450 0.765536
O O7 0.234517 0.915521 0.100729
O O8 0.500000 0.000000 0.000000
O O9 0.585636 0.499828 0.600117
O O10 0.562856 0.623659 0.031936
O O11 0.500000 0.500000 0.500000
#
# Coordination Sequence:
#
# PCOD9283301 Si02
#       5
#     8   8   4   8   8
#     4   9  20  36  58  93 132 178 224 261 330 402
#     4  11  23  41  65  97 134 174 221 276 336 397
#     4  12  22  42  66 100 128 178 218 266 356 386
#     4  10  21  40  58  93 138 175 216 273 330 396
#     4  10  22  41  64  99 133 170 219 271 337 400
#
# _framework density 23.100415999999999
#
# number of rings (size 3 to 8) (size 9 to 14) (size 15 to 20)
#    0.000    1.778    4.444    0.667    4.667    3.556 
#    0.000    0.000    0.000    1.333    0.000    0.000 
#    0.000    0.000    0.000    0.000    0.000    0.000 
#
# Total GULP energy -100317.295598 kJ/mol
# GULP energy per Si atom -5573.183089 kJ/mol
# Density = 2.304784 g / cm^3
# Si number density = 23.100416 Si / 1000 Ang^3
#
#
#
# Elastic Constant Matrix: (Units=GPa)
#
#
# Indices 1 2 3 4 5 6 
#
# 1 132.9929 41.4303 44.5941 -0.0235 -28.7435 0.0097
# 2 41.4303 65.0328 47.8978 -0.0928 -2.9530 0.0503
# 3 44.5941 47.8978 152.0859 -0.0665 4.2750 0.0436
# 4 -0.0235 -0.0928 -0.0665 37.1394 0.0158 1.2329
# 5 -28.7435 -2.9530 4.2750 0.0158 72.9416 0.0010
# 6 0.0097 0.0503 0.0436 1.2329 0.0010 41.4828
#
#
#
# Elastic Compliance Matrix: (Units=1/GPa)
#
#
# Indices 1 2 3 4 5 6 
#
# 1 0.010598 -0.005463 -0.001501 -0.000012 0.004043 0.000006
# 2 -0.005463 0.022939 -0.005597 0.000045 -0.000896 -0.000022
# 3 -0.001501 -0.005597 0.008816 0.000001 -0.001335 -0.000002
# 4 -0.000012 0.000045 0.000001 0.026952 -0.000009 -0.000801
# 5 0.004043 -0.000896 -0.001335 -0.000009 0.015345 0.000001
# 6 0.000006 -0.000022 -0.000002 -0.000801 0.000001 0.024130
#
#
# Mechanical properties :
#
#
# Convention : Reuss Voigt Hill
#
# Bulk Modulus (GPa) = 58.03553 68.66179 63.34866
# Shear Modulus (GPa) = 35.80500 44.72539 40.26519
#
# Velocity S-wave (km/s) = 3.94124 4.40492 4.17952
# Velocity P-wave (km/s) = 6.77413 7.46048 7.12558
#
# Compressibility (1/GPa) = 0.01723082
#
# Stress axis : x y z
#
# Youngs Moduli (GPa) = 94.35741 43.59389 113.43488
#
# Poissons Ratio (x) = 0.23814 0.17023
# Poissons Ratio (y) = 0.51545 0.63494
# Poissons Ratio (z) = 0.14160 0.24401
#
# Static dielectric constant tensor:
#      x y z
#    x 1.917000 -0.000010 -0.072190 
#    y -0.000010 1.937790 0.000070 
#    z -0.072190 0.000070 1.980700 
# 
# From -- ./inp_files/155037.got.cif
#   From: 2010.05.17/outbox.cif.g08.bks.cpg/sg15_78_cif.got.tgz:155037.got - 2010.06.03 18:47:42.
