data_PCOD9283481
_publ_section_title
;
Structure prediction by ZEFSAII (Michael W. Deem and Ramdas Pophale) SiO2 
 PCOD9283481
Probable space group: C 2/C
;
_chemical_formula_sum "Si O2"
_cell_formula_units_Z 64
_cell_length_a 12.606913
_cell_length_b 9.211959
_cell_length_c 28.152017
_cell_angle_alpha 90.000000
_cell_angle_beta 54.329032
_cell_angle_gamma 90.000000
_cell_volume 2656.005762
_symmetry_space_group_name_H-M "C 2/C"
_symmetry_group_IT_number 15
_symmetry_cell_setting 'monoclinic'
loop_
_space_group_symop_operation_xyz
x,y,z
-x,y,1/2-z
-x,-y,-z
x,-y,1/2+z
1/2+x,1/2+y,z
1/2-x,1/2+y,1/2-z
1/2-x,1/2-y,-z
1/2+x,1/2-y,1/2+z
loop_
_atom_site_type_symbol
_atom_site_label
_atom_site_fract_x
_atom_site_fract_y
_atom_site_fract_z
Si Si1 0.369188 0.415467 0.515804
Si Si2 0.883845 0.257309 0.432318
Si Si3 0.672211 0.812746 0.642268
Si Si4 0.048281 0.508818 0.342800
Si Si5 0.358089 0.263596 0.122263
Si Si6 0.348548 0.034801 0.777438
Si Si7 0.610436 0.445241 0.092931
Si Si8 0.520496 0.169785 0.495829
O O1 0.500000 0.500000 0.500000
O O2 0.267743 0.408621 0.584475
O O3 0.317232 0.458513 0.477712
O O4 0.404630 0.246797 0.498302
O O5 0.750000 0.250000 0.500000
O O6 0.985307 0.266298 0.450148
O O7 0.938964 0.395244 0.388745
O O8 0.905043 0.115882 0.394219
O O9 0.672535 0.649843 0.619449
O O10 0.527836 0.868268 0.667322
O O11 0.693780 0.876605 0.689607
O O12 0.113276 0.600788 0.367496
O O13 0.156613 0.450924 0.278071
O O14 0.232242 0.340722 0.175343
O O15 0.475162 0.368586 0.111251
O O16 0.358299 0.237780 0.065308
O O17 0.500000 0.059398 0.750000
O O18 0.500000 0.000000 0.500000
#
# Coordination Sequence:
#
# PCOD9283481 Si02
#       8
#     8   8   8   8   8   8   8   8
#     4  11  20  35  59  90 125 167 211 257 321 391
#     4  12  25  38  62  98 139 168 211 275 341 398
#     4  10  21  40  62  86 124 166 218 264 320 391
#     4  10  23  43  64  95 126 171 217 272 333 394
#     4  10  22  43  67  90 130 171 224 269 325 410
#     4  10  23  41  69  91 122 175 227 277 338 397
#     4  10  22  37  62  95 124 167 215 266 329 394
#     4  11  23  38  59  93 133 171 208 262 337 395
#
# _framework density 24.096333000000001
#
# number of rings (size 3 to 8) (size 9 to 14) (size 15 to 20)
#    0.000    1.500    2.500    2.625    5.250    1.000 
#    0.000    0.000    0.000   11.250    0.000    0.000 
#    0.000    0.000    0.000    0.000    0.000    0.000 
#
# Total GULP energy -178184.005539 kJ/mol
# GULP energy per Si atom -5568.250173 kJ/mol
# Density = 2.404149 g / cm^3
# Si number density = 24.096333 Si / 1000 Ang^3
#
#
#
# Elastic Constant Matrix: (Units=GPa)
#
#
# Indices 1 2 3 4 5 6 
#
# 1 35.8042 33.5643 14.9943 0.0000 -1.6481 0.0000
# 2 33.5643 191.2654 57.5149 0.0000 -1.0959 0.0000
# 3 14.9943 57.5149 139.9821 0.0000 -6.0974 0.0000
# 4 0.0000 0.0000 0.0000 31.9305 0.0000 4.0564
# 5 -1.6481 -1.0959 -6.0974 0.0000 25.3226 0.0000
# 6 0.0000 0.0000 0.0000 4.0564 0.0000 38.5611
#
#
#
# Elastic Compliance Matrix: (Units=1/GPa)
#
#
# Indices 1 2 3 4 5 6 
#
# 1 0.033717 -0.005526 -0.001269 0.000000 0.001650 0.000000
# 2 -0.005526 0.006874 -0.002259 0.000000 -0.000606 0.000000
# 3 -0.001269 -0.002259 0.008287 0.000000 0.001815 0.000000
# 4 0.000000 0.000000 0.000000 0.031742 0.000000 -0.003339
# 5 0.001650 -0.000606 0.001815 0.000000 0.040009 0.000000
# 6 0.000000 0.000000 0.000000 -0.003339 0.000000 0.026284
#
#
# Mechanical properties :
#
#
# Convention : Reuss Voigt Hill
#
# Bulk Modulus (GPa) = 32.49906 64.35539 48.42723
# Shear Modulus (GPa) = 28.52622 36.56139 32.54380
#
# Velocity S-wave (km/s) = 3.44443 3.89948 3.67900
# Velocity P-wave (km/s) = 5.41620 6.85858 6.17962
#
# Compressibility (1/GPa) = 0.03077012
#
# Stress axis : x y z
#
# Youngs Moduli (GPa) = 29.65839 145.48058 120.67284
#
# Poissons Ratio (x) = 0.80388 0.15319
# Poissons Ratio (y) = 0.16388 0.27257
# Poissons Ratio (z) = 0.03765 0.32860
#
# Static dielectric constant tensor:
#      x y z
#    x 2.045280 0.000000 0.022740 
#    y 0.000000 2.168530 0.000000 
#    z 0.022740 0.000000 2.082450 
# 
# From -- ./inp_files/315655.got.cif
#   From: 2010.05.17/outbox.cif.g08.bks.cpg/sg15_158_cif.got.tgz:315655.got - 2010.06.03 18:47:42.
