data_PCOD9283893
_publ_section_title
;
Structure prediction by ZEFSAII (Michael W. Deem and Ramdas Pophale) SiO2 
 PCOD9283893
Probable space group: C 2/C
;
_chemical_formula_sum "Si O2"
_cell_formula_units_Z 48
_cell_length_a 17.665655
_cell_length_b 5.221850
_cell_length_c 26.571834
_cell_angle_alpha 90.000000
_cell_angle_beta 54.554313
_cell_angle_gamma 90.000000
_cell_volume 1996.894215
_symmetry_space_group_name_H-M "C 2/C"
_symmetry_group_IT_number 15
_symmetry_cell_setting 'monoclinic'
loop_
_space_group_symop_operation_xyz
x,y,z
-x,y,1/2-z
-x,-y,-z
x,-y,1/2+z
1/2+x,1/2+y,z
1/2-x,1/2+y,1/2-z
1/2-x,1/2-y,-z
1/2+x,1/2-y,1/2+z
loop_
_atom_site_type_symbol
_atom_site_label
_atom_site_fract_x
_atom_site_fract_y
_atom_site_fract_z
Si Si1 0.196767 0.116848 0.597213
Si Si2 0.581459 0.547452 0.007951
Si Si3 0.641943 0.026671 0.037638
Si Si4 0.896663 0.213318 0.288938
Si Si5 0.288462 0.529224 0.128033
Si Si6 0.186798 0.980745 0.275702
O O1 0.256328 0.000810 0.528269
O O2 0.156794 0.380913 0.588978
O O3 0.268079 0.187801 0.614857
O O4 0.119807 0.950363 0.653975
O O5 0.598366 0.279176 0.028854
O O6 0.665916 0.608249 0.936942
O O7 0.580977 0.781131 0.047260
O O8 0.500000 0.500000 0.000000
O O9 0.811381 0.410933 0.320402
O O10 0.000000 0.323474 0.250000
O O11 0.880060 0.040073 0.245211
O O12 0.352247 0.513200 0.152686
O O13 0.232898 0.700649 0.255805
#
# Coordination Sequence:
#
# PCOD9283893 Si02
#       6
#     8   8   8   8   8   8
#     4  10  21  40  65  91 132 173 217 274 343 401
#     4  11  23  41  66  97 133 172 225 271 338 405
#     4  10  23  39  67  97 129 172 219 274 337 405
#     4  11  23  40  65  97 132 172 228 282 334 400
#     4  10  22  41  65  88 135 175 216 277 338 397
#     4  10  21  41  63  89 123 173 218 263 334 396
#
# _framework density 24.037329
#
# number of rings (size 3 to 8) (size 9 to 14) (size 15 to 20)
#    0.000    1.667    3.333    0.500    2.333    4.000 
#    0.000    0.000    0.000    0.000    0.000    0.000 
#    0.000    0.000    0.000    0.000    0.000    0.000 
#
# Total GULP energy -134062.893183 kJ/mol
# GULP energy per Si atom -5585.953883 kJ/mol
# Density = 2.398262 g / cm^3
# Si number density = 24.037329 Si / 1000 Ang^3
#
#
#
# Elastic Constant Matrix: (Units=GPa)
#
#
# Indices 1 2 3 4 5 6 
#
# 1 118.5807 39.1014 21.7201 0.0131 10.2492 0.0207
# 2 39.1014 111.1024 25.7454 0.0581 6.8421 0.0138
# 3 21.7201 25.7454 63.2285 -0.0058 24.8852 -0.0012
# 4 0.0131 0.0581 -0.0058 34.5665 0.0007 16.9814
# 5 10.2492 6.8421 24.8852 0.0007 39.7459 0.0016
# 6 0.0207 0.0138 -0.0012 16.9814 0.0016 32.2736
#
#
#
# Elastic Compliance Matrix: (Units=1/GPa)
#
#
# Indices 1 2 3 4 5 6 
#
# 1 0.009825 -0.002984 -0.001812 0.000005 -0.000886 -0.000008
# 2 -0.002984 0.010880 -0.003942 -0.000022 0.001365 0.000009
# 3 -0.001812 -0.003942 0.023345 0.000013 -0.013471 -0.000002
# 4 0.000005 -0.000022 0.000013 0.039015 -0.000005 -0.020528
# 5 -0.000886 0.001365 -0.013471 -0.000005 0.033587 0.000000
# 6 -0.000008 0.000009 -0.000002 -0.020528 0.000000 0.041787
#
#
# Mechanical properties :
#
#
# Convention : Reuss Voigt Hill
#
# Bulk Modulus (GPa) = 37.62929 51.78282 44.70606
# Shear Modulus (GPa) = 27.06021 35.07350 31.06686
#
# Velocity S-wave (km/s) = 3.35887 3.82400 3.59896
# Velocity P-wave (km/s) = 5.54357 6.40989 5.99241
#
# Compressibility (1/GPa) = 0.02657504
#
# Stress axis : x y z
#
# Youngs Moduli (GPa) = 101.77819 91.90939 42.83569
#
# Poissons Ratio (x) = 0.27422 0.07761
# Poissons Ratio (y) = 0.30366 0.16888
# Poissons Ratio (z) = 0.18440 0.36235
#
# Static dielectric constant tensor:
#      x y z
#    x 1.990510 0.000010 0.049890 
#    y 0.000010 1.975580 -0.000030 
#    z 0.049890 -0.000030 1.989180 
# 
# From -- ./inp_files/297417.got.cif
#   From: 2010.05.17/outbox.cif.g08.bks.cpg/sg15_149_cif.got.tgz:297417.got - 2010.06.03 18:47:42.
