data_PCOD9283933
_publ_section_title
;
Structure prediction by ZEFSAII (Michael W. Deem and Ramdas Pophale) SiO2 
 PCOD9283933
Probable space group: C 2/C
;
_chemical_formula_sum "Si O2"
_cell_formula_units_Z 52
_cell_length_a 15.040869
_cell_length_b 14.753713
_cell_length_c 17.795771
_cell_angle_alpha 90.000000
_cell_angle_beta 145.090422
_cell_angle_gamma 90.000000
_cell_volume 2259.965916
_symmetry_space_group_name_H-M "C 2/C"
_symmetry_group_IT_number 15
_symmetry_cell_setting 'monoclinic'
loop_
_space_group_symop_operation_xyz
x,y,z
-x,y,1/2-z
-x,-y,-z
x,-y,1/2+z
1/2+x,1/2+y,z
1/2-x,1/2+y,1/2-z
1/2-x,1/2-y,-z
1/2+x,1/2-y,1/2+z
loop_
_atom_site_type_symbol
_atom_site_label
_atom_site_fract_x
_atom_site_fract_y
_atom_site_fract_z
Si Si1 0.000000 0.889016 0.250000
Si Si2 0.632124 0.190599 0.059864
Si Si3 0.281312 0.068082 0.736775
Si Si4 0.085291 0.400755 0.729422
Si Si5 0.948616 0.783692 0.360838
Si Si6 0.325333 0.980407 0.437726
Si Si7 0.544490 0.235856 0.696807
O O1 0.963948 0.830126 0.149211
O O2 0.152693 0.948630 0.340663
O O3 0.504564 0.223927 0.032859
O O4 0.797914 0.211576 0.212035
O O5 0.654112 0.088079 0.049284
O O6 0.591582 0.248110 0.957510
O O7 0.134655 0.131511 0.655051
O O8 0.342975 0.048486 0.863248
O O9 0.398700 0.131922 0.771902
O O10 0.276471 0.973247 0.688968
O O11 0.950196 0.435002 0.578985
O O12 0.000000 0.403066 0.750000
O O13 0.135142 0.298554 0.743626
O O14 0.500000 0.258439 0.750000
#
# Coordination Sequence:
#
# PCOD9283933 Si02
#       7
#     4   8   8   8   8   8   8
#     4  10  24  46  62 100 138 172 228 286 332 402
#     4  11  23  42  67  99 133 181 223 278 347 407
#     4  10  21  40  65  94 133 168 223 277 334 404
#     4  12  22  40  68 101 129 174 228 276 335 404
#     4  10  22  42  66 101 134 176 222 282 342 401
#     4  11  23  42  69  92 133 181 224 271 342 412
#     4  11  23  41  65  96 133 170 228 277 334 406
#
# _framework density 23.009197
#
# number of rings (size 3 to 8) (size 9 to 14) (size 15 to 20)
#    0.000    1.231    3.846    2.308    1.077    0.615 
#    5.538    0.000    0.000    4.615    0.000    0.000 
#    0.000    0.000    0.000    0.000    0.000    0.000 
#
# Total GULP energy -144769.219139 kJ/mol
# GULP energy per Si atom -5568.046890 kJ/mol
# Density = 2.295683 g / cm^3
# Si number density = 23.009197 Si / 1000 Ang^3
#
#
#
# Elastic Constant Matrix: (Units=GPa)
#
#
# Indices 1 2 3 4 5 6 
#
# 1 165.1887 44.0123 23.2303 0.0000 -21.5168 0.0001
# 2 44.0123 106.2368 26.5450 0.0001 8.6995 0.0002
# 3 23.2303 26.5450 47.2074 -0.0002 -6.7311 0.0000
# 4 0.0000 0.0001 -0.0002 22.0146 0.0000 -6.6589
# 5 -21.5168 8.6995 -6.7311 0.0000 40.3299 0.0001
# 6 0.0001 0.0002 0.0000 -6.6589 0.0001 34.1429
#
#
#
# Elastic Compliance Matrix: (Units=1/GPa)
#
#
# Indices 1 2 3 4 5 6 
#
# 1 0.007698 -0.003236 -0.001315 0.000000 0.004586 0.000000
# 2 -0.003236 0.012809 -0.006402 0.000000 -0.005558 0.000000
# 3 -0.001315 -0.006402 0.026149 0.000000 0.005044 0.000000
# 4 0.000000 0.000000 0.000000 0.048272 0.000000 0.009415
# 5 0.004586 -0.005558 0.005044 0.000000 0.029283 0.000000
# 6 0.000000 0.000000 0.000000 0.009415 0.000000 0.031125
#
#
# Mechanical properties :
#
#
# Convention : Reuss Voigt Hill
#
# Bulk Modulus (GPa) = 40.40452 56.24536 48.32494
# Shear Modulus (GPa) = 26.95539 34.28717 30.62128
#
# Velocity S-wave (km/s) = 3.42644 3.86443 3.65201
# Velocity P-wave (km/s) = 5.76648 6.66405 6.23145
#
# Compressibility (1/GPa) = 0.02474970
#
# Stress axis : x y z
#
# Youngs Moduli (GPa) = 129.90150 78.07295 38.24209
#
# Poissons Ratio (x) = 0.25267 0.05027
# Poissons Ratio (y) = 0.42040 0.24484
# Poissons Ratio (z) = 0.17076 0.49984
#
# Static dielectric constant tensor:
#      x y z
#    x 1.905650 0.000000 0.030150 
#    y 0.000000 1.940010 0.000000 
#    z 0.030150 0.000000 1.904440 
# 
# From -- ./inp_files/205780.got.cif
#   From: 2010.05.17/outbox.cif.g08.bks.cpg/sg15_103_cif.got.tgz:205780.got - 2010.06.03 18:47:42.
