data_PCOD9283689
_publ_section_title
;
Structure prediction by ZEFSAII (Michael W. Deem and Ramdas Pophale) SiO2 
 PCOD9283689
Probable space group: C 2/C
;
_chemical_formula_sum "Si O2"
_cell_formula_units_Z 56
_cell_length_a 8.794739
_cell_length_b 24.672499
_cell_length_c 15.485631
_cell_angle_alpha 90.000000
_cell_angle_beta 47.817916
_cell_angle_gamma 90.000000
_cell_volume 2489.956548
_symmetry_space_group_name_H-M "C 2/C"
_symmetry_group_IT_number 15
_symmetry_cell_setting 'monoclinic'
loop_
_space_group_symop_operation_xyz
x,y,z
-x,y,1/2-z
-x,-y,-z
x,-y,1/2+z
1/2+x,1/2+y,z
1/2-x,1/2+y,1/2-z
1/2-x,1/2-y,-z
1/2+x,1/2-y,1/2+z
loop_
_atom_site_type_symbol
_atom_site_label
_atom_site_fract_x
_atom_site_fract_y
_atom_site_fract_z
Si Si1 0.300657 0.843708 0.571633
Si Si2 0.721183 0.038388 0.202486
Si Si3 0.655436 0.654955 0.323073
Si Si4 0.065471 0.746401 0.977926
Si Si5 0.013165 0.443785 0.540031
Si Si6 0.983801 0.942482 0.360547
Si Si7 0.539307 0.317458 0.135318
O O1 0.272174 0.836213 0.686939
O O2 0.403978 0.791148 0.491247
O O3 0.454571 0.894007 0.501739
O O4 0.080516 0.853959 0.614581
O O5 0.500000 0.021038 0.250000
O O6 0.781242 0.099613 0.150652
O O7 0.665752 0.052581 0.322097
O O8 0.883717 0.989111 0.142393
O O9 0.669602 0.707779 0.378609
O O10 0.221190 0.701959 0.961195
O O11 0.947326 0.778979 0.097953
O O12 0.247374 0.442640 0.481181
O O13 0.000000 0.500000 0.500000
O O14 0.033906 0.878807 0.352964
O O15 0.000000 0.952491 0.250000
O O16 0.500000 0.305751 0.250000
#
# Coordination Sequence:
#
# PCOD9283689 Si02
#       7
#     8   8   8   8   8   8   8
#     4  10  21  40  63  96 127 172 219 267 321 385
#     4  11  26  42  65  98 133 168 215 278 331 384
#     4  10  23  39  65  93 133 168 218 270 319 395
#     4  11  21  39  64  95 126 174 212 265 324 386
#     4  11  21  40  69  92 125 173 217 261 322 401
#     4  11  22  43  67  94 127 171 221 264 326 393
#     4  10  23  39  63  92 128 165 212 267 320 387
#
# _framework density 22.490354
#
# number of rings (size 3 to 8) (size 9 to 14) (size 15 to 20)
#    0.000    1.429    2.857    2.143    4.000    2.286 
#    2.571    0.000    6.286    0.000    0.000    0.000 
#    0.000    0.000    0.000    0.000    0.000    0.000 
#
# Total GULP energy -156061.253638 kJ/mol
# GULP energy per Si atom -5573.616201 kJ/mol
# Density = 2.243916 g / cm^3
# Si number density = 22.490354 Si / 1000 Ang^3
#
#
#
# Elastic Constant Matrix: (Units=GPa)
#
#
# Indices 1 2 3 4 5 6 
#
# 1 51.9401 49.8357 -4.2189 0.0000 -17.3473 0.0000
# 2 49.8357 174.2302 31.9250 0.0000 -15.4909 0.0000
# 3 -4.2189 31.9250 42.0074 0.0000 -3.6340 0.0000
# 4 0.0000 0.0000 0.0000 24.2987 0.0000 -4.9165
# 5 -17.3473 -15.4909 -3.6340 0.0000 35.5025 0.0000
# 6 0.0000 0.0000 0.0000 -4.9165 0.0000 28.8182
#
#
#
# Elastic Compliance Matrix: (Units=1/GPa)
#
#
# Indices 1 2 3 4 5 6 
#
# 1 0.036180 -0.011607 0.013667 0.000000 0.014013 0.000000
# 2 -0.011607 0.010603 -0.009398 0.000000 -0.002007 0.000000
# 3 0.013667 -0.009398 0.032834 0.000000 0.005938 0.000000
# 4 0.000000 0.000000 0.000000 0.042626 0.000000 0.007272
# 5 0.014013 -0.002007 0.005938 0.000000 0.034746 0.000000
# 6 0.000000 0.000000 0.000000 0.007272 0.000000 0.035941
#
#
# Mechanical properties :
#
#
# Convention : Reuss Voigt Hill
#
# Bulk Modulus (GPa) = 15.39846 47.02903 31.21374
# Shear Modulus (GPa) = 21.81010 30.43296 26.12153
#
# Velocity S-wave (km/s) = 3.11746 3.68252 3.41171
# Velocity P-wave (km/s) = 4.45193 6.24799 5.42481
#
# Compressibility (1/GPa) = 0.06494158
#
# Stress axis : x y z
#
# Youngs Moduli (GPa) = 27.63966 94.31240 30.45655
#
# Poissons Ratio (x) = 1.09469 -0.41625
# Poissons Ratio (y) = 0.32082 0.28622
# Poissons Ratio (z) = -0.37775 0.88630
#
# Static dielectric constant tensor:
#      x y z
#    x 2.013030 0.000000 -0.193340 
#    y 0.000000 1.602560 0.000000 
#    z -0.193340 0.000000 2.226880 
# 
# From -- ./inp_files/193202.got.cif
#   From: 2010.05.17/outbox.cif.g08.bks.cpg/sg15_97_cif.got.tgz:193202.got - 2010.06.03 18:47:42.
