data_PCOD9283723
_publ_section_title
;
Structure prediction by ZEFSAII (Michael W. Deem and Ramdas Pophale) SiO2 
 PCOD9283723
Probable space group: C 2/C
;
_chemical_formula_sum "Si O2"
_cell_formula_units_Z 28
_cell_length_a 7.196046
_cell_length_b 35.325556
_cell_length_c 5.096484
_cell_angle_alpha 90.000000
_cell_angle_beta 78.416645
_cell_angle_gamma 90.000000
_cell_volume 1269.162656
_symmetry_space_group_name_H-M "C 2/C"
_symmetry_group_IT_number 15
_symmetry_cell_setting 'monoclinic'
loop_
_space_group_symop_operation_xyz
x,y,z
-x,y,1/2-z
-x,-y,-z
x,-y,1/2+z
1/2+x,1/2+y,z
1/2-x,1/2+y,1/2-z
1/2-x,1/2-y,-z
1/2+x,1/2-y,1/2+z
loop_
_atom_site_type_symbol
_atom_site_label
_atom_site_fract_x
_atom_site_fract_y
_atom_site_fract_z
Si Si1 0.631782 0.213184 0.461747
Si Si2 0.228276 0.406343 0.204991
Si Si3 0.229662 0.362452 0.706014
Si Si4 0.500000 0.526863 0.750000
O O1 0.500000 0.222373 0.250000
O O2 0.750000 0.250000 0.500000
O O3 0.762705 0.178558 0.323671
O O4 0.500000 0.201940 0.750000
O O5 0.287369 0.374181 0.398947
O O6 0.321007 0.444998 0.275457
O O7 0.000000 0.409223 0.250000
O O8 0.292656 0.393497 0.899094
O O9 0.000000 0.363433 0.750000
O O10 0.500000 0.500000 0.500000
#
# Coordination Sequence:
#
# PCOD9283723 Si02
#       4
#     8   8   8   4
#     4  11  22  39  61  90 132 169 214 269 327 377
#     4  10  21  40  64  89 117 163 210 247 311 379
#     4   9  18  37  63  83 117 163 208 252 300 367
#     4  12  26  42  62  94 132 154 196 268 322 378
#
# _framework density 22.061789000000001
#
# number of rings (size 3 to 8) (size 9 to 14) (size 15 to 20)
#    0.000    1.714    0.000    6.857    0.000    1.143 
#    7.714    0.000    0.000    0.000    0.000    0.000 
#    0.000    0.000    0.000    0.000    0.000    0.000 
#
# Total GULP energy -78247.856542 kJ/mol
# GULP energy per Si atom -5589.132610 kJ/mol
# Density = 2.201158 g / cm^3
# Si number density = 22.061789 Si / 1000 Ang^3
#
#
#
# Elastic Constant Matrix: (Units=GPa)
#
#
# Indices 1 2 3 4 5 6 
#
# 1 98.3056 48.3242 52.2571 0.0000 5.0467 0.0000
# 2 48.3242 153.8443 57.9234 0.0000 20.1705 0.0000
# 3 52.2571 57.9234 151.1479 0.0000 29.2828 0.0000
# 4 0.0000 0.0000 0.0000 -43.5203 0.0000 65.3817
# 5 5.0467 20.1705 29.2828 0.0000 29.2756 0.0000
# 6 0.0000 0.0000 0.0000 65.3817 0.0000 11.6322
#
#
#
# Elastic Compliance Matrix: (Units=1/GPa)
#
#
# Indices 1 2 3 4 5 6 
#
# 1 0.013884 -0.003272 -0.004365 0.000000 0.004227 0.000000
# 2 -0.003272 0.008568 -0.001387 0.000000 -0.003952 0.000000
# 3 -0.004365 -0.001387 0.010327 0.000000 -0.008622 0.000000
# 4 0.000000 0.000000 0.000000 -0.002433 0.000000 0.013675
# 5 0.004227 -0.003952 -0.008622 0.000000 0.044776 0.000000
# 6 0.000000 0.000000 0.000000 0.013675 0.000000 0.009103
#
#
# Mechanical properties :
#
#
# Convention : Reuss Voigt Hill
#
# Bulk Modulus (GPa) = 67.88098 80.03415 73.95756
# Shear Modulus (GPa) = 46.64899 15.79703 31.22301
#
# Velocity S-wave (km/s) = 4.60333 2.67879 3.76607
# Velocity P-wave (km/s) = 7.68697 6.77672 7.24615
#
# Compressibility (1/GPa) = 0.01473167
#
# Stress axis : x y z
#
# Youngs Moduli (GPa) = 72.02412 116.71275 96.83350
#
# Poissons Ratio (x) = 0.38186 0.42272
# Poissons Ratio (y) = 0.23565 0.13427
# Poissons Ratio (z) = 0.31441 0.16183
#
# Static dielectric constant tensor:
#      x y z
#    x 1.855130 0.000000 -0.019930 
#    y 0.000000 1.807300 0.000000 
#    z -0.019930 0.000000 1.780040 
# 
# From -- ./inp_files/2205.got.cif
#   From: 2010.05.17/outbox.cif.g08.bks.cpg/sg15_2_cif.got.tgz:2205.got - 2010.06.03 18:47:42.
