data_PCOD9283128
_publ_section_title
;
Structure prediction by ZEFSAII (Michael W. Deem and Ramdas Pophale) SiO2 
 PCOD9283128
Probable space group: C 2/C
;
_chemical_formula_sum "Si O2"
_cell_formula_units_Z 40
_cell_length_a 13.341627
_cell_length_b 7.545431
_cell_length_c 30.177009
_cell_angle_alpha 90.000000
_cell_angle_beta 143.728689
_cell_angle_gamma 90.000000
_cell_volume 1797.232336
_symmetry_space_group_name_H-M "C 2/C"
_symmetry_group_IT_number 15
_symmetry_cell_setting 'monoclinic'
loop_
_space_group_symop_operation_xyz
x,y,z
-x,y,1/2-z
-x,-y,-z
x,-y,1/2+z
1/2+x,1/2+y,z
1/2-x,1/2+y,1/2-z
1/2-x,1/2-y,-z
1/2+x,1/2-y,1/2+z
loop_
_atom_site_type_symbol
_atom_site_label
_atom_site_fract_x
_atom_site_fract_y
_atom_site_fract_z
Si Si1 0.453779 0.026719 0.781550
Si Si2 0.670266 0.751686 0.183162
Si Si3 0.504111 0.850233 0.463962
Si Si4 0.728150 0.640501 0.060821
Si Si5 0.149167 0.002300 0.435910
O O1 0.500000 0.103920 0.750000
O O2 0.347325 0.845051 0.737235
O O3 0.630586 0.985877 0.868547
O O4 0.343477 0.147309 0.775236
O O5 0.610134 0.876478 0.120787
O O6 0.527147 0.599205 0.133487
O O7 0.423281 0.680877 0.459101
O O8 0.500000 0.000000 0.500000
O O9 0.698675 0.859479 0.519037
O O10 0.818914 0.830452 0.083325
O O11 0.664661 0.569606 0.991307
#
# Coordination Sequence:
#
# PCOD9283128 Si02
#       5
#     8   8   8   8   8
#     4  12  26  46  64  96 138 184 221 269 336 406
#     4  12  25  45  64  97 137 176 224 277 331 405
#     4  10  21  39  67  99 127 164 217 282 336 381
#     4  10  21  42  68  95 128 173 220 274 339 388
#     4  10  22  41  68  97 128 166 223 285 326 392
#
# _framework density 22.256443999999998
#
# number of rings (size 3 to 8) (size 9 to 14) (size 15 to 20)
#    0.000    1.200    4.000    1.800    0.000    2.400 
#    7.200    0.000    0.000    0.000    0.000    0.000 
#    0.000    0.000    0.000    0.000    0.000    0.000 
#
# Total GULP energy -111832.014493 kJ/mol
# GULP energy per Si atom -5591.600725 kJ/mol
# Density = 2.220579 g / cm^3
# Si number density = 22.256444 Si / 1000 Ang^3
#
#
#
# Elastic Constant Matrix: (Units=GPa)
#
#
# Indices 1 2 3 4 5 6 
#
# 1 126.4881 17.6506 15.0387 0.0000 -15.3936 0.0000
# 2 17.6506 39.9801 13.7525 0.0000 -4.8267 0.0000
# 3 15.0387 13.7525 63.8224 0.0000 -11.4080 0.0000
# 4 0.0000 0.0000 0.0000 36.6674 0.0000 -3.9972
# 5 -15.3936 -4.8267 -11.4080 0.0000 38.3657 0.0000
# 6 0.0000 0.0000 0.0000 -3.9972 0.0000 51.1681
#
#
#
# Elastic Compliance Matrix: (Units=1/GPa)
#
#
# Indices 1 2 3 4 5 6 
#
# 1 0.008811 -0.003246 -0.000864 0.000000 0.002870 0.000000
# 2 -0.003246 0.028324 -0.005211 0.000000 0.000711 0.000000
# 3 -0.000864 -0.005211 0.017760 0.000000 0.004279 0.000000
# 4 0.000000 0.000000 0.000000 0.027506 0.000000 0.002149
# 5 0.002870 0.000711 0.004279 0.000000 0.028578 0.000000
# 6 0.000000 0.000000 0.000000 0.002149 0.000000 0.019711
#
#
# Mechanical properties :
#
#
# Convention : Reuss Voigt Hill
#
# Bulk Modulus (GPa) = 27.58440 35.90824 31.74632
# Shear Modulus (GPa) = 30.97569 37.49683 34.23626
#
# Velocity S-wave (km/s) = 3.73468 4.10904 3.92632
# Velocity P-wave (km/s) = 5.56937 6.21942 5.90335
#
# Compressibility (1/GPa) = 0.03625238
#
# Stress axis : x y z
#
# Youngs Moduli (GPa) = 113.49656 35.30567 56.30729
#
# Poissons Ratio (x) = 0.11461 0.04863
# Poissons Ratio (y) = 0.36844 0.29343
# Poissons Ratio (z) = 0.09802 0.18399
#
# Static dielectric constant tensor:
#      x y z
#    x 1.837600 0.000000 -0.004690 
#    y 0.000000 1.856410 0.000000 
#    z -0.004690 0.000000 1.778850 
# 
# From -- ./inp_files/309823.got.cif
#   From: 2010.05.17/outbox.cif.g08.bks.cpg/sg15_155_cif.got.tgz:309823.got - 2010.06.03 18:47:42.
