data_PCOD9283295
_publ_section_title
;
Structure prediction by ZEFSAII (Michael W. Deem and Ramdas Pophale) SiO2 
 PCOD9283295
Probable space group: C 2/C
;
_chemical_formula_sum "Si O2"
_cell_formula_units_Z 48
_cell_length_a 7.831112
_cell_length_b 24.800972
_cell_length_c 11.314864
_cell_angle_alpha 90.000000
_cell_angle_beta 103.588739
_cell_angle_gamma 90.000000
_cell_volume 2136.047747
_symmetry_space_group_name_H-M "C 2/C"
_symmetry_group_IT_number 15
_symmetry_cell_setting 'monoclinic'
loop_
_space_group_symop_operation_xyz
x,y,z
-x,y,1/2-z
-x,-y,-z
x,-y,1/2+z
1/2+x,1/2+y,z
1/2-x,1/2+y,1/2-z
1/2-x,1/2-y,-z
1/2+x,1/2-y,1/2+z
loop_
_atom_site_type_symbol
_atom_site_label
_atom_site_fract_x
_atom_site_fract_y
_atom_site_fract_z
Si Si1 0.565135 0.090699 0.519587
Si Si2 0.701566 0.275725 0.808379
Si Si3 0.225070 0.309679 0.940314
Si Si4 0.120105 0.175772 0.538015
Si Si5 0.647229 0.003958 0.877859
Si Si6 0.682759 0.587713 0.719900
O O1 0.572636 0.151344 0.466397
O O2 0.409267 0.048733 0.531756
O O3 0.669661 0.094765 0.658429
O O4 0.668277 0.053419 0.441880
O O5 0.500000 0.255204 0.750000
O O6 0.777235 0.300630 0.700801
O O7 0.827724 0.229481 0.880680
O O8 0.675119 0.316767 0.911868
O O9 0.250000 0.250000 0.000000
O O10 0.412972 0.335784 0.004126
O O11 0.219041 0.129290 0.621780
O O12 0.500000 0.999562 0.750000
O O13 0.812362 0.028658 0.836297
O O14 0.500000 0.600352 0.750000
#
# Coordination Sequence:
#
# PCOD9283295 Si02
#       6
#     8   8   8   8   8   8
#     4  10  21  42  64  91 126 162 211 260 312 384
#     4   9  21  38  59  89 130 170 210 259 322 382
#     4  11  22  38  62  94 129 166 211 263 317 382
#     4  10  21  40  58  89 128 165 214 258 313 393
#     4   9  22  43  63  90 125 165 213 261 320 382
#     4  11  21  38  66  91 120 162 208 265 319 370
#
# _framework density 22.471406999999999
#
# number of rings (size 3 to 8) (size 9 to 14) (size 15 to 20)
#    0.000    2.000    1.667    1.000    0.000    6.667 
#   12.000    0.833    0.000    0.000    0.000    0.000 
#    0.000    0.000    0.000    0.000    0.000    0.000 
#
# Total GULP energy -133898.611559 kJ/mol
# GULP energy per Si atom -5579.108815 kJ/mol
# Density = 2.242026 g / cm^3
# Si number density = 22.471407 Si / 1000 Ang^3
#
#
#
# Elastic Constant Matrix: (Units=GPa)
#
#
# Indices 1 2 3 4 5 6 
#
# 1 39.3946 8.4097 9.0860 0.0000 6.1262 0.0000
# 2 8.4097 106.4758 40.6267 0.0000 -18.2311 0.0000
# 3 9.0860 40.6267 133.1178 0.0000 -15.7370 0.0000
# 4 0.0000 0.0000 0.0000 42.4550 0.0000 -5.8563
# 5 6.1262 -18.2311 -15.7370 0.0000 13.3725 0.0000
# 6 0.0000 0.0000 0.0000 -5.8563 0.0000 27.4863
#
#
#
# Elastic Compliance Matrix: (Units=1/GPa)
#
#
# Indices 1 2 3 4 5 6 
#
# 1 0.031488 -0.005636 -0.003535 0.000000 -0.026268 0.000000
# 2 -0.005636 0.013762 -0.001501 0.000000 0.019577 0.000000
# 3 -0.003535 -0.001501 0.009480 0.000000 0.010729 0.000000
# 4 0.000000 0.000000 0.000000 0.024268 0.000000 0.005171
# 5 -0.026268 0.019577 0.010729 0.000000 0.126131 0.000000
# 6 0.000000 0.000000 0.000000 0.005171 0.000000 0.037483
#
#
# Mechanical properties :
#
#
# Convention : Reuss Voigt Hill
#
# Bulk Modulus (GPa) = 29.95256 43.91479 36.93368
# Shear Modulus (GPa) = 18.17636 31.38715 24.78176
#
# Velocity S-wave (km/s) = 2.84714 3.74138 3.32447
# Velocity P-wave (km/s) = 4.91594 6.18456 5.58638
#
# Compressibility (1/GPa) = 0.03338612
#
# Stress axis : x y z
#
# Youngs Moduli (GPa) = 31.75863 72.66524 105.48711
#
# Poissons Ratio (x) = 0.40955 0.37285
# Poissons Ratio (y) = 0.17899 0.15832
# Poissons Ratio (z) = 0.11225 0.10906
#
# Static dielectric constant tensor:
#      x y z
#    x 1.937980 0.000000 0.001610 
#    y 0.000000 1.863170 0.000000 
#    z 0.001610 0.000000 1.797290 
# 
# From -- ./inp_files/79098.got.cif
#   From: 2010.05.17/outbox.cif.g08.bks.cpg/sg15_40_cif.got.tgz:79098.got - 2010.06.03 18:47:42.
