data_PCOD9283781
_publ_section_title
;
Structure prediction by ZEFSAII (Michael W. Deem and Ramdas Pophale) SiO2 
 PCOD9283781
Probable space group: C 2/C
;
_chemical_formula_sum "Si O2"
_cell_formula_units_Z 48
_cell_length_a 20.204288
_cell_length_b 21.548261
_cell_length_c 13.801738
_cell_angle_alpha 90.000000
_cell_angle_beta 159.977183
_cell_angle_gamma 90.000000
_cell_volume 2057.387623
_symmetry_space_group_name_H-M "C 2/C"
_symmetry_group_IT_number 15
_symmetry_cell_setting 'monoclinic'
loop_
_space_group_symop_operation_xyz
x,y,z
-x,y,1/2-z
-x,-y,-z
x,-y,1/2+z
1/2+x,1/2+y,z
1/2-x,1/2+y,1/2-z
1/2-x,1/2-y,-z
1/2+x,1/2-y,1/2+z
loop_
_atom_site_type_symbol
_atom_site_label
_atom_site_fract_x
_atom_site_fract_y
_atom_site_fract_z
Si Si1 0.138852 0.509176 0.849771
Si Si2 0.000000 0.744547 0.250000
Si Si3 0.434304 0.916574 0.916900
Si Si4 0.012819 0.058037 0.882252
Si Si5 0.891314 0.816312 0.293283
Si Si6 0.909160 0.709457 0.827251
Si Si7 0.500000 0.741977 0.250000
O O1 0.072199 0.447296 0.697988
O O2 0.000000 0.519103 0.750000
O O3 0.109143 0.561025 0.726020
O O4 0.363452 0.498857 0.186964
O O5 0.926808 0.787827 0.235479
O O6 0.175523 0.701681 0.526704
O O7 0.243875 0.943115 0.710057
O O8 0.451380 0.842561 0.936318
O O9 0.932968 0.111674 0.841543
O O10 0.000000 0.075628 0.750000
O O11 0.036686 0.777287 0.558833
O O12 0.682641 0.701000 0.532820
O O13 0.941947 0.713805 0.758243
#
# Coordination Sequence:
#
# PCOD9283781 Si02
#       7
#     8   4   8   8   8   8   4
#     4  10  24  42  65  93 122 163 222 263 304 372
#     4  10  22  30  56  92 130 162 192 236 318 392
#     4  10  23  45  64  91 128 169 207 266 315 368
#     4  10  21  40  64  92 132 168 199 264 324 370
#     4  11  21  36  59  95 129 163 198 252 316 390
#     4  11  23  42  64  92 129 166 210 258 314 383
#     4  10  24  42  62  94 124 166 216 252 306 382
#
# _framework density 23.330556000000001
#
# number of rings (size 3 to 8) (size 9 to 14) (size 15 to 20)
#    0.000    1.667    0.833    3.000    9.333    2.000 
#    7.500    0.000    0.000    0.000    0.000    0.000 
#    0.000    0.000    0.000    0.000    0.000    0.000 
#
# Total GULP energy -134111.734806 kJ/mol
# GULP energy per Si atom -5587.988950 kJ/mol
# Density = 2.327746 g / cm^3
# Si number density = 23.330556 Si / 1000 Ang^3
#
#
#
# Elastic Constant Matrix: (Units=GPa)
#
#
# Indices 1 2 3 4 5 6 
#
# 1 41.9708 -5.9736 -4.7727 0.0000 -0.0105 0.0000
# 2 -5.9736 25.8796 2.8530 0.0000 0.2916 0.0000
# 3 -4.7727 2.8530 114.8292 0.0000 16.1794 0.0000
# 4 0.0000 0.0000 0.0000 22.1620 0.0000 -3.0074
# 5 -0.0105 0.2916 16.1794 0.0000 31.1097 0.0000
# 6 0.0000 0.0000 0.0000 -3.0074 0.0000 16.1148
#
#
#
# Elastic Compliance Matrix: (Units=1/GPa)
#
#
# Indices 1 2 3 4 5 6 
#
# 1 0.024734 0.005609 0.000966 0.000000 -0.000546 0.000000
# 2 0.005609 0.040019 -0.000765 0.000000 0.000024 0.000000
# 3 0.000966 -0.000765 0.009460 0.000000 -0.004912 0.000000
# 4 0.000000 0.000000 0.000000 0.046295 0.000000 0.008640
# 5 -0.000546 0.000024 -0.004912 0.000000 0.034699 0.000000
# 6 0.000000 0.000000 0.000000 0.008640 0.000000 0.063667
#
#
# Mechanical properties :
#
#
# Convention : Reuss Voigt Hill
#
# Bulk Modulus (GPa) = 11.65053 18.54367 15.09710
# Shear Modulus (GPa) = 21.19859 26.58216 23.89037
#
# Velocity S-wave (km/s) = 3.01760 3.37912 3.20346
# Velocity P-wave (km/s) = 4.14074 4.81561 4.49087
#
# Compressibility (1/GPa) = 0.08583297
#
# Stress axis : x y z
#
# Youngs Moduli (GPa) = 40.43008 24.98800 105.70970
#
# Poissons Ratio (x) = -0.14015 -0.10208
# Poissons Ratio (y) = -0.22677 0.08083
# Poissons Ratio (z) = -0.03904 0.01911
#
# Static dielectric constant tensor:
#      x y z
#    x 1.858430 0.000000 0.005100 
#    y 0.000000 1.857400 0.000000 
#    z 0.005100 0.000000 1.967360 
# 
# From -- ./inp_files/169681.got.cif
#   From: 2010.05.17/outbox.cif.g08.bks.cpg/sg15_85_cif.got.tgz:169681.got - 2010.06.03 18:47:42.
