data_PCOD9283086
_publ_section_title
;
Structure prediction by ZEFSAII (Michael W. Deem and Ramdas Pophale) SiO2 
 PCOD9283086
Probable space group: C 2/C
;
_chemical_formula_sum "Si O2"
_cell_formula_units_Z 40
_cell_length_a 7.817525
_cell_length_b 32.672003
_cell_length_c 13.340197
_cell_angle_alpha 90.000000
_cell_angle_beta 35.289922
_cell_angle_gamma 90.000000
_cell_volume 1968.431111
_symmetry_space_group_name_H-M "C 2/C"
_symmetry_group_IT_number 15
_symmetry_cell_setting 'monoclinic'
loop_
_space_group_symop_operation_xyz
x,y,z
-x,y,1/2-z
-x,-y,-z
x,-y,1/2+z
1/2+x,1/2+y,z
1/2-x,1/2+y,1/2-z
1/2-x,1/2-y,-z
1/2+x,1/2-y,1/2+z
loop_
_atom_site_type_symbol
_atom_site_label
_atom_site_fract_x
_atom_site_fract_y
_atom_site_fract_z
Si Si1 0.370059 0.137518 0.973162
Si Si2 0.000000 0.250829 0.750000
Si Si3 0.473847 0.629630 0.561017
Si Si4 0.500000 0.567799 0.250000
Si Si5 0.544076 0.189149 0.070354
Si Si6 0.841594 0.959095 0.610901
O O1 0.702596 0.133057 0.769773
O O2 0.155497 0.147152 0.982128
O O3 0.255637 0.096155 0.079871
O O4 0.366368 0.169396 0.065168
O O5 0.132621 0.282402 0.767737
O O6 0.230024 0.220846 0.588585
O O7 0.758163 0.654236 0.467537
O O8 0.542320 0.582392 0.499631
O O9 0.619631 0.544005 0.288128
O O10 0.500000 0.961858 0.750000
O O11 0.000000 0.000000 0.500000
#
# Coordination Sequence:
#
# PCOD9283086 Si02
#       6
#     8   4   8   4   8   8
#     4  10  21  39  67  90 119 164 219 265 309 387
#     4  10  24  36  63  90 130 162 218 271 320 386
#     4  10  22  41  67  90 126 170 218 258 323 396
#     4  10  24  42  67  96 124 168 226 257 320 396
#     4  11  21  43  60  91 124 171 210 270 325 378
#     4  11  26  44  67 100 135 170 212 273 328 386
#
# _framework density 20.320751000000001
#
# number of rings (size 3 to 8) (size 9 to 14) (size 15 to 20)
#    0.000    1.600    2.000    1.200   12.600    0.800 
#    3.600    6.000    0.000    0.000    0.000    0.000 
#    0.000    0.000    0.000    0.000    0.000    0.000 
#
# Total GULP energy -111666.119513 kJ/mol
# GULP energy per Si atom -5583.305976 kJ/mol
# Density = 2.027450 g / cm^3
# Si number density = 20.320751 Si / 1000 Ang^3
#
#
#
# Elastic Constant Matrix: (Units=GPa)
#
#
# Indices 1 2 3 4 5 6 
#
# 1 133.4605 78.8963 28.3089 0.0000 21.7911 0.0000
# 2 78.8963 115.7686 32.0561 0.0000 7.8338 0.0000
# 3 28.3089 32.0561 29.5759 0.0000 14.3468 0.0000
# 4 0.0000 0.0000 0.0000 95.4396 0.0000 64.2520
# 5 21.7911 7.8338 14.3468 0.0000 33.2082 0.0000
# 6 0.0000 0.0000 0.0000 64.2520 0.0000 138.5725
#
#
#
# Elastic Compliance Matrix: (Units=1/GPa)
#
#
# Indices 1 2 3 4 5 6 
#
# 1 0.014005 -0.008995 -0.000287 0.000000 -0.006944 0.000000
# 2 -0.008995 0.018475 -0.015388 0.000000 0.008192 0.000000
# 3 -0.000287 -0.015388 0.061881 0.000000 -0.022915 0.000000
# 4 0.000000 0.000000 0.000000 0.015233 0.000000 -0.007063
# 5 -0.006944 0.008192 -0.022915 0.000000 0.042637 0.000000
# 6 0.000000 0.000000 0.000000 -0.007063 0.000000 0.010491
#
#
# Mechanical properties :
#
#
# Convention : Reuss Voigt Hill
#
# Bulk Modulus (GPa) = 22.21264 61.92530 42.06897
# Shear Modulus (GPa) = 22.01967 62.74697 42.38332
#
# Velocity S-wave (km/s) = 3.29539 5.56285 4.57192
# Velocity P-wave (km/s) = 5.04323 8.47352 6.97261
#
# Compressibility (1/GPa) = 0.04501942
#
# Stress axis : x y z
#
# Youngs Moduli (GPa) = 71.40261 54.12826 16.16005
#
# Poissons Ratio (x) = 0.48688 0.00464
# Poissons Ratio (y) = 0.64227 0.24867
# Poissons Ratio (z) = 0.02052 0.83294
#
# Static dielectric constant tensor:
#      x y z
#    x 1.733200 0.000000 0.019420 
#    y 0.000000 1.839390 0.000000 
#    z 0.019420 0.000000 1.747150 
# 
# From -- ./inp_files/139712.got.cif
#   From: 2010.05.17/outbox.cif.g08.bks.cpg/sg15_70_cif.got.tgz:139712.got - 2010.06.03 18:47:42.
