data_PCOD9283133
_publ_section_title
;
Structure prediction by ZEFSAII (Michael W. Deem and Ramdas Pophale) SiO2 
 PCOD9283133
Probable space group: C 2/C
;
_chemical_formula_sum "Si O2"
_cell_formula_units_Z 56
_cell_length_a 8.111987
_cell_length_b 25.965202
_cell_length_c 15.618232
_cell_angle_alpha 90.000000
_cell_angle_beta 46.454562
_cell_angle_gamma 90.000000
_cell_volume 2384.437437
_symmetry_space_group_name_H-M "C 2/C"
_symmetry_group_IT_number 15
_symmetry_cell_setting 'monoclinic'
loop_
_space_group_symop_operation_xyz
x,y,z
-x,y,1/2-z
-x,-y,-z
x,-y,1/2+z
1/2+x,1/2+y,z
1/2-x,1/2+y,1/2-z
1/2-x,1/2-y,-z
1/2+x,1/2-y,1/2+z
loop_
_atom_site_type_symbol
_atom_site_label
_atom_site_fract_x
_atom_site_fract_y
_atom_site_fract_z
Si Si1 0.734773 0.096340 0.219478
Si Si2 0.860750 0.608131 0.596288
Si Si3 0.811506 0.880827 0.046232
Si Si4 0.500000 0.949429 0.250000
Si Si5 0.997658 0.219315 0.554216
Si Si6 0.643082 0.000187 0.361530
Si Si7 0.500000 0.307162 0.250000
Si Si8 0.476038 0.826524 0.908106
O O1 0.500000 0.088613 0.250000
O O2 0.687791 0.152660 0.278535
O O3 0.762554 0.051545 0.282590
O O4 0.955811 0.098781 0.079684
O O5 0.108033 0.611406 0.551323
O O6 0.739781 0.555015 0.663590
O O7 0.714750 0.655849 0.677881
O O8 0.893749 0.621101 0.484712
O O9 0.721362 0.913244 0.160622
O O10 0.835323 0.821790 0.067948
O O11 0.487965 0.985415 0.336244
O O12 0.988023 0.219409 0.661875
O O13 0.248669 0.195763 0.444537
O O14 0.963136 0.279796 0.548524
O O15 0.500000 0.000000 0.500000
#
# Coordination Sequence:
#
# PCOD9283133 Si02
#       8
#     8   8   8   4   8   8   4   8
#     4  12  24  43  71 102 141 182 232 288 353 415
#     4  10  23  45  63  97 134 177 227 286 341 413
#     4  11  24  44  71  98 144 179 231 297 344 410
#     4  10  24  46  65 100 137 178 240 286 346 422
#     4  10  21  39  68 100 132 185 227 285 338 411
#     4  11  22  44  68  98 137 184 229 286 353 416
#     4  10  22  42  69  92 133 180 232 278 340 416
#     4  10  22  40  66  99 140 177 235 276 346 415
#
# _framework density 23.485624999999999
#
# number of rings (size 3 to 8) (size 9 to 14) (size 15 to 20)
#    0.000    1.429    3.571    1.714    1.000    2.857 
#    5.143    2.857    0.000    0.000    0.000    0.000 
#    0.000    0.000    0.000    0.000    0.000    0.000 
#
# Total GULP energy -155895.930922 kJ/mol
# GULP energy per Si atom -5567.711819 kJ/mol
# Density = 2.343217 g / cm^3
# Si number density = 23.485625 Si / 1000 Ang^3
#
#
#
# Elastic Constant Matrix: (Units=GPa)
#
#
# Indices 1 2 3 4 5 6 
#
# 1 63.8687 31.3438 49.2159 0.0000 -4.8124 0.0000
# 2 31.3438 131.6219 46.5567 0.0000 8.1508 0.0000
# 3 49.2159 46.5567 149.3359 0.0000 1.0342 0.0000
# 4 0.0000 0.0000 0.0000 -48.5433 0.0000 70.3632
# 5 -4.8124 8.1508 1.0342 0.0000 39.6348 0.0000
# 6 0.0000 0.0000 0.0000 70.3632 0.0000 -18.9038
#
#
#
# Elastic Compliance Matrix: (Units=1/GPa)
#
#
# Indices 1 2 3 4 5 6 
#
# 1 0.022486 -0.003311 -0.006403 0.000000 0.003578 0.000000
# 2 -0.003311 0.009141 -0.001743 0.000000 -0.002236 0.000000
# 3 -0.006403 -0.001743 0.009354 0.000000 -0.000663 0.000000
# 4 0.000000 0.000000 0.000000 0.004687 0.000000 0.017445
# 5 0.003578 -0.002236 -0.000663 0.000000 0.026142 0.000000
# 6 0.000000 0.000000 0.000000 0.017445 0.000000 0.012036
#
#
# Mechanical properties :
#
#
# Convention : Reuss Voigt Hill
#
# Bulk Modulus (GPa) = 55.35058 66.56215 60.95637
# Shear Modulus (GPa) = 44.33292 8.95153 26.64222
#
# Velocity S-wave (km/s) = 4.34944 1.95442 3.37175
# Velocity P-wave (km/s) = 6.98874 5.78759 6.41633
#
# Compressibility (1/GPa) = 0.01806666
#
# Stress axis : x y z
#
# Youngs Moduli (GPa) = 44.47241 109.39590 106.90054
#
# Poissons Ratio (x) = 0.36226 0.68448
# Poissons Ratio (y) = 0.14727 0.18633
# Poissons Ratio (z) = 0.28476 0.19068
#
# Static dielectric constant tensor:
#      x y z
#    x 1.872030 0.000000 0.178600 
#    y 0.000000 2.029440 0.000000 
#    z 0.178600 0.000000 1.840380 
# 
# From -- ./inp_files/193873.got.cif
#   From: 2010.05.17/outbox.cif.g08.bks.cpg/sg15_97_cif.got.tgz:193873.got - 2010.06.03 18:47:42.
