data_PCOD9283385
_publ_section_title
;
Structure prediction by ZEFSAII (Michael W. Deem and Ramdas Pophale) SiO2 
 PCOD9283385
Probable space group: C 2/C
;
_chemical_formula_sum "Si O2"
_cell_formula_units_Z 40
_cell_length_a 7.279908
_cell_length_b 12.714537
_cell_length_c 19.578635
_cell_angle_alpha 90.000000
_cell_angle_beta 99.127342
_cell_angle_gamma 90.000000
_cell_volume 1789.265549
_symmetry_space_group_name_H-M "C 2/C"
_symmetry_group_IT_number 15
_symmetry_cell_setting 'monoclinic'
loop_
_space_group_symop_operation_xyz
x,y,z
-x,y,1/2-z
-x,-y,-z
x,-y,1/2+z
1/2+x,1/2+y,z
1/2-x,1/2+y,1/2-z
1/2-x,1/2-y,-z
1/2+x,1/2-y,1/2+z
loop_
_atom_site_type_symbol
_atom_site_label
_atom_site_fract_x
_atom_site_fract_y
_atom_site_fract_z
Si Si1 0.074681 0.216413 0.583644
Si Si2 0.816857 0.305458 0.372517
Si Si3 0.104641 0.150326 0.443670
Si Si4 0.798128 0.730013 0.272557
Si Si5 0.633238 0.482511 0.820620
O O1 0.080952 0.132451 0.522809
O O2 0.182262 0.318550 0.560560
O O3 0.185017 0.193893 0.660825
O O4 0.865215 0.235230 0.596743
O O5 0.834531 0.261929 0.296595
O O6 0.769022 0.426921 0.356289
O O7 0.989940 0.257749 0.422189
O O8 0.039391 0.065252 0.383968
O O9 0.742094 0.615669 0.295132
O O10 0.000000 0.726902 0.250000
O O11 0.500000 0.519682 0.750000
#
# Coordination Sequence:
#
# PCOD9283385 Si02
#       5
#     8   8   8   8   8
#     4   9  20  38  61  86 120 161 197 253 304 359
#     4  11  21  39  62  85 122 160 199 252 305 355
#     4  10  21  40  61  85 124 158 199 254 304 360
#     4   9  19  39  57  82 120 153 202 253 296 361
#     4  11  21  38  60  91 118 158 212 248 303 373
#
# _framework density 22.355542
#
# number of rings (size 3 to 8) (size 9 to 14) (size 15 to 20)
#    0.000    2.000    2.000    2.400    0.000    0.800 
#   10.800    9.000    0.000    0.000    0.000    0.000 
#    0.000    0.000    0.000    0.000    0.000    0.000 
#
# Total GULP energy -111460.585762 kJ/mol
# GULP energy per Si atom -5573.029288 kJ/mol
# Density = 2.230466 g / cm^3
# Si number density = 22.355542 Si / 1000 Ang^3
#
#
#
# Elastic Constant Matrix: (Units=GPa)
#
#
# Indices 1 2 3 4 5 6 
#
# 1 54.4135 23.0640 38.5652 0.0000 -15.5822 0.0000
# 2 23.0640 91.2083 47.7536 0.0000 3.2577 0.0000
# 3 38.5652 47.7536 166.0395 0.0000 -15.6373 0.0000
# 4 0.0000 0.0000 0.0000 30.4117 0.0000 -5.3903
# 5 -15.5822 3.2577 -15.6373 0.0000 38.5129 0.0000
# 6 0.0000 0.0000 0.0000 -5.3903 0.0000 11.5599
#
#
#
# Elastic Compliance Matrix: (Units=1/GPa)
#
#
# Indices 1 2 3 4 5 6 
#
# 1 0.025748 -0.004913 -0.003688 0.000000 0.009336 0.000000
# 2 -0.004913 0.014121 -0.003348 0.000000 -0.004542 0.000000
# 3 -0.003688 -0.003348 0.008036 0.000000 0.002054 0.000000
# 4 0.000000 0.000000 0.000000 0.035845 0.000000 0.016714
# 5 0.009336 -0.004542 0.002054 0.000000 0.030960 0.000000
# 6 0.000000 0.000000 0.000000 0.016714 0.000000 0.094300
#
#
# Mechanical properties :
#
#
# Convention : Reuss Voigt Hill
#
# Bulk Modulus (GPa) = 41.65613 58.93631 50.29622
# Shear Modulus (GPa) = 20.75465 29.58213 25.16839
#
# Velocity S-wave (km/s) = 3.05025 3.64161 3.35897
# Velocity P-wave (km/s) = 5.57488 6.64094 6.13113
#
# Compressibility (1/GPa) = 0.02400607
#
# Stress axis : x y z
#
# Youngs Moduli (GPa) = 38.83861 70.81425 124.44722
#
# Poissons Ratio (x) = 0.34794 0.45895
# Poissons Ratio (y) = 0.19083 0.41664
# Poissons Ratio (z) = 0.14323 0.23708
#
# Static dielectric constant tensor:
#      x y z
#    x 1.845030 0.000000 0.003910 
#    y 0.000000 1.832440 0.000000 
#    z 0.003910 0.000000 1.899060 
# 
# From -- ./inp_files/187765.got.cif
#   From: 2010.05.17/outbox.cif.g08.bks.cpg/sg15_94_cif.got.tgz:187765.got - 2010.06.03 18:47:42.
