data_PCOD9283944
_publ_section_title
;
Structure prediction by ZEFSAII (Michael W. Deem and Ramdas Pophale) SiO2 
 PCOD9283944
Probable space group: C 2/C
;
_chemical_formula_sum "Si O2"
_cell_formula_units_Z 64
_cell_length_a 20.605751
_cell_length_b 14.952479
_cell_length_c 16.169990
_cell_angle_alpha 90.000000
_cell_angle_beta 32.785447
_cell_angle_gamma 90.000000
_cell_volume 2697.774236
_symmetry_space_group_name_H-M "C 2/C"
_symmetry_group_IT_number 15
_symmetry_cell_setting 'monoclinic'
loop_
_space_group_symop_operation_xyz
x,y,z
-x,y,1/2-z
-x,-y,-z
x,-y,1/2+z
1/2+x,1/2+y,z
1/2-x,1/2+y,1/2-z
1/2-x,1/2-y,-z
1/2+x,1/2-y,1/2+z
loop_
_atom_site_type_symbol
_atom_site_label
_atom_site_fract_x
_atom_site_fract_y
_atom_site_fract_z
Si Si1 0.095102 0.634345 0.925124
Si Si2 0.379640 0.845635 0.913337
Si Si3 0.226415 0.184533 0.907800
Si Si4 0.135880 0.855642 0.101214
Si Si5 0.505088 0.601046 0.084342
Si Si6 0.634470 0.411760 0.919893
Si Si7 0.739290 0.384367 0.565977
Si Si8 0.379296 0.073650 0.061548
O O1 0.204443 0.663554 0.750443
O O2 0.098405 0.528935 0.941096
O O3 0.101826 0.674600 0.009484
O O4 0.976712 0.640023 0.995556
O O5 0.500000 0.892495 0.750000
O O6 0.375415 0.750467 0.869363
O O7 0.248861 0.888959 0.034732
O O8 0.264640 0.280789 0.899961
O O9 0.252434 0.114380 0.953644
O O10 0.085180 0.175189 0.042610
O O11 0.000000 0.893917 0.250000
O O12 0.165472 0.869820 0.973938
O O13 0.464990 0.630047 0.034908
O O14 0.387430 0.577773 0.264628
O O15 0.586976 0.512661 0.985954
O O16 0.753556 0.406199 0.739087
O O17 0.853915 0.421032 0.491555
#
# Coordination Sequence:
#
# PCOD9283944 Si02
#       8
#     8   8   8   8   8   8   8   8
#     4  11  24  42  68  93 126 175 216 263 324 392
#     4  10  23  43  61  92 133 170 217 264 322 394
#     4  11  24  42  65  98 127 171 223 271 327 394
#     4  10  23  38  62  97 127 165 214 263 318 390
#     4  10  22  40  65  92 129 167 215 271 322 394
#     4  10  21  40  65  95 130 165 212 269 326 386
#     4  10  25  43  65  95 133 171 218 276 332 385
#     4  10  23  44  62  96 127 163 221 263 321 394
#
# _framework density 23.72326
#
# number of rings (size 3 to 8) (size 9 to 14) (size 15 to 20)
#    0.000    1.750    1.250    1.125    7.000    2.500 
#    4.500    0.000    0.000    0.000    0.000    0.000 
#    0.000    0.000    0.000    0.000    0.000    0.000 
#
# Total GULP energy -178744.261683 kJ/mol
# GULP energy per Si atom -5585.758178 kJ/mol
# Density = 2.366926 g / cm^3
# Si number density = 23.723260 Si / 1000 Ang^3
#
#
#
# Elastic Constant Matrix: (Units=GPa)
#
#
# Indices 1 2 3 4 5 6 
#
# 1 141.8018 19.4604 41.4825 0.0000 -10.7581 0.0000
# 2 19.4604 22.0856 3.4481 0.0000 -4.0196 0.0000
# 3 41.4825 3.4481 77.0674 0.0000 -9.3564 0.0000
# 4 0.0000 0.0000 0.0000 9.1443 0.0000 9.4815
# 5 -10.7581 -4.0196 -9.3564 0.0000 49.0611 0.0000
# 6 0.0000 0.0000 0.0000 9.4815 0.0000 31.4519
#
#
#
# Elastic Compliance Matrix: (Units=1/GPa)
#
#
# Indices 1 2 3 4 5 6 
#
# 1 0.009508 -0.007539 -0.004712 0.000000 0.000569 0.000000
# 2 -0.007539 0.052144 0.002091 0.000000 0.003018 0.000000
# 3 -0.004712 0.002091 0.015676 0.000000 0.002128 0.000000
# 4 0.000000 0.000000 0.000000 0.159085 0.000000 -0.047958
# 5 0.000569 0.003018 0.002128 0.000000 0.021161 0.000000
# 6 0.000000 0.000000 0.000000 -0.047958 0.000000 0.046252
#
#
# Mechanical properties :
#
#
# Convention : Reuss Voigt Hill
#
# Bulk Modulus (GPa) = 17.54068 41.08187 29.31127
# Shear Modulus (GPa) = 14.57097 29.70237 22.13667
#
# Velocity S-wave (km/s) = 2.48101 3.54225 3.05802
# Velocity P-wave (km/s) = 3.95185 5.83822 4.98507
#
# Compressibility (1/GPa) = 0.05701035
#
# Stress axis : x y z
#
# Youngs Moduli (GPa) = 105.17266 19.17767 63.78982
#
# Poissons Ratio (x) = 0.14458 0.30055
# Poissons Ratio (y) = 0.79289 -0.13341
# Poissons Ratio (z) = 0.49553 -0.04011
#
# Static dielectric constant tensor:
#      x y z
#    x 1.978470 0.000000 -0.029750 
#    y 0.000000 1.962980 0.000000 
#    z -0.029750 0.000000 1.877280 
# 
# From -- ./inp_files/163271.got.cif
#   From: 2010.05.17/outbox.cif.g08.bks.cpg/sg15_82_cif.got.tgz:163271.got - 2010.06.03 18:47:42.
