data_PCOD9283975
_publ_section_title
;
Structure prediction by ZEFSAII (Michael W. Deem and Ramdas Pophale) SiO2 
 PCOD9283975
Probable space group: C 2/C
;
_chemical_formula_sum "Si O2"
_cell_formula_units_Z 36
_cell_length_a 6.876193
_cell_length_b 31.066115
_cell_length_c 6.945111
_cell_angle_alpha 90.000000
_cell_angle_beta 115.208267
_cell_angle_gamma 90.000000
_cell_volume 1342.302129
_symmetry_space_group_name_H-M "C 2/C"
_symmetry_group_IT_number 15
_symmetry_cell_setting 'monoclinic'
loop_
_space_group_symop_operation_xyz
x,y,z
-x,y,1/2-z
-x,-y,-z
x,-y,1/2+z
1/2+x,1/2+y,z
1/2-x,1/2+y,1/2-z
1/2-x,1/2-y,-z
1/2+x,1/2-y,1/2+z
loop_
_atom_site_type_symbol
_atom_site_label
_atom_site_fract_x
_atom_site_fract_y
_atom_site_fract_z
Si Si1 0.302133 0.310383 0.540842
Si Si2 0.814125 0.295948 0.445823
Si Si3 0.214355 0.960009 0.456789
Si Si4 0.500000 0.965408 0.250000
Si Si5 0.930311 0.123053 0.499261
O O1 0.500000 0.291251 0.750000
O O2 0.289764 0.297052 0.311894
O O3 0.430769 0.198631 0.473212
O O4 0.368105 0.360568 0.540682
O O5 0.750000 0.250000 0.500000
O O6 0.726462 0.335765 0.538416
O O7 0.385145 0.940905 0.373918
O O8 0.168653 0.922855 0.593109
O O9 0.000000 0.971980 0.250000
O O10 0.322322 0.002313 0.587524
O O11 0.000000 0.115437 0.750000
#
# Coordination Sequence:
#
# PCOD9283975 Si02
#       5
#     8   8   8   4   8
#     4  10  23  45  69 103 133 185 241 294 363 428
#     4  10  23  46  70  98 143 186 235 305 363 425
#     4  10  21  40  65  97 139 183 231 296 357 427
#     4  10  22  38  66 104 136 184 236 288 362 434
#     4   9  21  43  66  95 138 181 233 295 357 428
#
# _framework density 26.819595
#
# number of rings (size 3 to 8) (size 9 to 14) (size 15 to 20)
#    0.000    2.222    0.000    0.667    0.000    9.778 
#   16.000    7.778    0.000    0.000    0.000    0.000 
#    0.000    0.000    0.000    0.000    0.000    0.000 
#
# Total GULP energy -100811.160370 kJ/mol
# GULP energy per Si atom -5600.620021 kJ/mol
# Density = 2.675855 g / cm^3
# Si number density = 26.819595 Si / 1000 Ang^3
#
#
#
# Elastic Constant Matrix: (Units=GPa)
#
#
# Indices 1 2 3 4 5 6 
#
# 1 191.6837 69.1219 26.1381 0.0000 17.8796 0.0000
# 2 69.1219 119.1791 19.0294 0.0000 15.4125 0.0000
# 3 26.1381 19.0294 145.7595 0.0000 41.3733 0.0000
# 4 0.0000 0.0000 0.0000 -0.0554 0.0000 8.0614
# 5 17.8796 15.4125 41.3733 0.0000 39.1429 0.0000
# 6 0.0000 0.0000 0.0000 8.0614 0.0000 51.7411
#
#
#
# Elastic Compliance Matrix: (Units=1/GPa)
#
#
# Indices 1 2 3 4 5 6 
#
# 1 0.006706 -0.003672 -0.000377 0.000000 -0.001219 0.000000
# 2 -0.003672 0.010857 -0.000031 0.000000 -0.002565 0.000000
# 3 -0.000377 -0.000031 0.009829 0.000000 -0.010204 0.000000
# 4 0.000000 0.000000 0.000000 -0.762580 0.000000 0.118811
# 5 -0.001219 -0.002565 -0.010204 0.000000 0.037900 0.000000
# 6 0.000000 0.000000 0.000000 0.118811 0.000000 0.000816
#
#
# Mechanical properties :
#
#
# Convention : Reuss Voigt Hill
#
# Bulk Modulus (GPa) = 51.99625 76.13345 64.06485
# Shear Modulus (GPa) = -7.33243 40.98792 16.82774
#
# Velocity S-wave (km/s) = -1.65527 3.91357 2.50760
# Velocity P-wave (km/s) = 3.97194 6.99072 5.68535
#
# Compressibility (1/GPa) = 0.01923216
#
# Stress axis : x y z
#
# Youngs Moduli (GPa) = 149.11972 92.10800 101.74232
#
# Poissons Ratio (x) = 0.33818 0.03839
# Poissons Ratio (y) = 0.54750 0.00314
# Poissons Ratio (z) = 0.05626 0.00285
#
# Static dielectric constant tensor:
#      x y z
#    x 2.166660 0.000000 -0.052800 
#    y 0.000000 2.127040 0.000000 
#    z -0.052800 0.000000 2.195010 
# 
# From -- ./inp_files/24690.got.cif
#   From: 2010.05.17/outbox.cif.g08.bks.cpg/sg15_13_cif.got.tgz:24690.got - 2010.06.03 18:47:42.
