data_PCOD9283565
_publ_section_title
;
Structure prediction by ZEFSAII (Michael W. Deem and Ramdas Pophale) SiO2 
 PCOD9283565
Probable space group: C 2/C
;
_chemical_formula_sum "Si O2"
_cell_formula_units_Z 64
_cell_length_a 22.091627
_cell_length_b 13.883839
_cell_length_c 14.226191
_cell_angle_alpha 90.000000
_cell_angle_beta 135.241348
_cell_angle_gamma 90.000000
_cell_volume 3072.371970
_symmetry_space_group_name_H-M "C 2/C"
_symmetry_group_IT_number 15
_symmetry_cell_setting 'monoclinic'
loop_
_space_group_symop_operation_xyz
x,y,z
-x,y,1/2-z
-x,-y,-z
x,-y,1/2+z
1/2+x,1/2+y,z
1/2-x,1/2+y,1/2-z
1/2-x,1/2-y,-z
1/2+x,1/2-y,1/2+z
loop_
_atom_site_type_symbol
_atom_site_label
_atom_site_fract_x
_atom_site_fract_y
_atom_site_fract_z
Si Si1 0.687511 0.341757 0.831131
Si Si2 0.209435 0.958835 0.135934
Si Si3 0.778158 0.670518 0.229254
Si Si4 0.782551 0.121797 0.649442
Si Si5 0.097769 0.993645 0.835432
Si Si6 0.542400 0.096885 0.006199
Si Si7 0.349537 0.972394 0.050909
Si Si8 0.874478 0.643172 0.743820
O O1 0.725688 0.316520 0.770141
O O2 0.609145 0.414741 0.764460
O O3 0.656754 0.241013 0.839639
O O4 0.765261 0.403395 0.960797
O O5 0.187878 0.931089 0.219807
O O6 0.294676 0.895728 0.214528
O O7 0.238113 0.069313 0.153477
O O8 0.139953 0.946435 0.976601
O O9 0.771796 0.765729 0.159325
O O10 0.879949 0.648659 0.353870
O O11 0.850023 0.086859 0.644828
O O12 0.691421 0.075286 0.516751
O O13 0.000000 0.016319 0.750000
O O14 0.590893 0.063159 0.966052
O O15 0.460953 0.164629 0.896003
O O16 0.500000 0.000000 0.000000
O O17 0.395111 0.946262 0.197755
#
# Coordination Sequence:
#
# PCOD9283565 Si02
#       8
#     8   8   8   8   8   8   8   8
#     4  10  21  40  67  96 130 167 224 277 333 400
#     4  12  22  43  71  92 128 183 214 281 345 396
#     4  11  23  42  70  97 130 183 224 270 345 412
#     4  11  22  44  70  96 133 180 231 275 335 425
#     4  11  26  45  65  99 140 173 229 284 332 409
#     4  11  22  38  60  95 136 163 221 272 335 401
#     4  10  21  40  62  96 131 168 221 277 335 399
#     4  12  21  37  68  99 130 172 213 285 343 390
#
# _framework density 20.830811000000001
#
# number of rings (size 3 to 8) (size 9 to 14) (size 15 to 20)
#    0.000    1.000    8.750    0.750    0.000    3.000 
#    2.250    0.000    0.000    0.000    0.000    0.000 
#    0.000    0.000    0.000    0.000    0.000    0.000 
#
# Total GULP energy -178287.620990 kJ/mol
# GULP energy per Si atom -5571.488156 kJ/mol
# Density = 2.078340 g / cm^3
# Si number density = 20.830811 Si / 1000 Ang^3
#
#
#
# Elastic Constant Matrix: (Units=GPa)
#
#
# Indices 1 2 3 4 5 6 
#
# 1 52.0866 1.0214 11.3054 0.0000 8.3544 0.0000
# 2 1.0214 116.6826 13.7770 0.0000 5.2148 0.0000
# 3 11.3054 13.7770 49.6399 0.0000 12.1703 0.0000
# 4 0.0000 0.0000 0.0000 -5.6355 0.0000 2.5394
# 5 8.3544 5.2148 12.1703 0.0000 24.6616 0.0000
# 6 0.0000 0.0000 0.0000 2.5394 0.0000 17.2562
#
#
#
# Elastic Compliance Matrix: (Units=1/GPa)
#
#
# Indices 1 2 3 4 5 6 
#
# 1 0.020827 0.000479 -0.003551 0.000000 -0.005404 0.000000
# 2 0.000479 0.008884 -0.002360 0.000000 -0.000876 0.000000
# 3 -0.003551 -0.002360 0.024108 0.000000 -0.010195 0.000000
# 4 0.000000 0.000000 0.000000 -0.166413 0.000000 0.024489
# 5 -0.005404 -0.000876 -0.010195 0.000000 0.047596 0.000000
# 6 0.000000 0.000000 0.000000 0.024489 0.000000 0.054346
#
#
# Mechanical properties :
#
#
# Convention : Reuss Voigt Hill
#
# Bulk Modulus (GPa) = 23.28055 30.06852 26.67454
# Shear Modulus (GPa) = 344.06451 20.07682 182.07067
#
# Velocity S-wave (km/s) = 12.86583 3.10789 9.35918
# Velocity P-wave (km/s) = 15.22847 5.22921 11.38532
#
# Compressibility (1/GPa) = 0.04295430
#
# Stress axis : x y z
#
# Youngs Moduli (GPa) = 48.01460 112.56381 41.47938
#
# Poissons Ratio (x) = -0.05386 0.14730
# Poissons Ratio (y) = -0.02298 0.09788
# Poissons Ratio (z) = 0.17051 0.26563
#
# Static dielectric constant tensor:
#      x y z
#    x 1.788270 0.000000 -0.034660 
#    y 0.000000 1.809130 0.000000 
#    z -0.034660 0.000000 1.810970 
# 
# From -- ./inp_files/173678.got.cif
#   From: 2010.05.17/outbox.cif.g08.bks.cpg/sg15_87_cif.got.tgz:173678.got - 2010.06.03 18:47:42.
