data_PCOD9283913
_publ_section_title
;
Structure prediction by ZEFSAII (Michael W. Deem and Ramdas Pophale) SiO2 
 PCOD9283913
Probable space group: C 2/C
;
_chemical_formula_sum "Si O2"
_cell_formula_units_Z 44
_cell_length_a 12.370816
_cell_length_b 7.049409
_cell_length_c 23.262306
_cell_angle_alpha 90.000000
_cell_angle_beta 67.741111
_cell_angle_gamma 90.000000
_cell_volume 1877.464261
_symmetry_space_group_name_H-M "C 2/C"
_symmetry_group_IT_number 15
_symmetry_cell_setting 'monoclinic'
loop_
_space_group_symop_operation_xyz
x,y,z
-x,y,1/2-z
-x,-y,-z
x,-y,1/2+z
1/2+x,1/2+y,z
1/2-x,1/2+y,1/2-z
1/2-x,1/2-y,-z
1/2+x,1/2-y,1/2+z
loop_
_atom_site_type_symbol
_atom_site_label
_atom_site_fract_x
_atom_site_fract_y
_atom_site_fract_z
Si Si1 0.336373 0.149411 0.305769
Si Si2 0.443168 0.740803 0.422622
Si Si3 0.833706 0.125482 0.064026
Si Si4 0.729490 0.024408 0.466642
Si Si5 0.000000 0.038876 0.750000
Si Si6 0.113107 0.688936 0.790458
O O1 0.267388 0.059563 0.372757
O O2 0.380230 0.981279 0.256009
O O3 0.239353 0.272488 0.291608
O O4 0.430986 0.308896 0.303345
O O5 0.539741 0.602003 0.432631
O O6 0.330585 0.643879 0.415299
O O7 0.518604 0.850939 0.359698
O O8 0.380344 0.861498 0.485569
O O9 0.816855 0.351484 0.060598
O O10 0.802200 0.045948 0.008090
O O11 0.076763 0.891391 0.770680
#
# Coordination Sequence:
#
# PCOD9283913 Si02
#       6
#     8   8   8   8   4   8
#     4  11  24  44  65  99 133 172 219 267 328 392
#     4  10  22  40  62  91 126 161 209 268 317 380
#     4  10  22  40  62  91 126 161 209 268 317 380
#     4  10  21  40  65  93 118 167 214 256 324 384
#     4  12  24  40  68  88 132 174 210 272 318 384
#     4  11  24  44  65  99 133 172 219 267 328 392
#
# _framework density 23.435865
#
# number of rings (size 3 to 8) (size 9 to 14) (size 15 to 20)
#    0.000    1.455    1.818    2.727    5.091    0.000 
#    0.000    1.818    0.000    0.000    0.000    0.000 
#    0.000    0.000    0.000    0.000    0.000    0.000 
#
# Total GULP energy -122897.885850 kJ/mol
# GULP energy per Si atom -5586.267539 kJ/mol
# Density = 2.338252 g / cm^3
# Si number density = 23.435865 Si / 1000 Ang^3
#
#
#
# Elastic Constant Matrix: (Units=GPa)
#
#
# Indices 1 2 3 4 5 6 
#
# 1 51.8886 21.4165 25.8823 0.0000 -19.7973 0.0000
# 2 21.4165 100.2358 40.6786 0.0000 -15.1466 0.0000
# 3 25.8823 40.6786 116.2935 0.0000 -26.6816 0.0000
# 4 0.0000 0.0000 0.0000 39.1306 0.0000 3.2689
# 5 -19.7973 -15.1466 -26.6816 0.0000 36.6133 0.0000
# 6 0.0000 0.0000 0.0000 3.2689 0.0000 35.7963
#
#
#
# Elastic Compliance Matrix: (Units=1/GPa)
#
#
# Indices 1 2 3 4 5 6 
#
# 1 0.025829 -0.002957 -0.002150 0.000000 0.011176 0.000000
# 2 -0.002957 0.012117 -0.003359 0.000000 0.000966 0.000000
# 3 -0.002150 -0.003359 0.011608 0.000000 0.005907 0.000000
# 4 0.000000 0.000000 0.000000 0.025752 0.000000 -0.002352
# 5 0.011176 0.000966 0.005907 0.000000 0.038060 0.000000
# 6 0.000000 0.000000 0.000000 -0.002352 0.000000 0.028151
#
#
# Mechanical properties :
#
#
# Convention : Reuss Voigt Hill
#
# Bulk Modulus (GPa) = 30.65419 49.37474 40.01446
# Shear Modulus (GPa) = 29.52950 34.33741 31.93346
#
# Velocity S-wave (km/s) = 3.55352 3.83190 3.69533
# Velocity P-wave (km/s) = 5.47221 6.37901 5.94293
#
# Compressibility (1/GPa) = 0.03262197
#
# Stress axis : x y z
#
# Youngs Moduli (GPa) = 38.71610 82.52584 86.15113
#
# Poissons Ratio (x) = 0.24406 0.18522
# Poissons Ratio (y) = 0.11450 0.28936
# Poissons Ratio (z) = 0.08324 0.27718
#
# Static dielectric constant tensor:
#      x y z
#    x 1.892010 0.000000 -0.036840 
#    y 0.000000 1.908290 0.000000 
#    z -0.036840 0.000000 1.923330 
# 
# From -- ./inp_files/309639.got.cif
#   From: 2010.05.17/outbox.cif.g08.bks.cpg/sg15_155_cif.got.tgz:309639.got - 2010.06.03 18:47:42.
