data_PCOD9283901
_publ_section_title
;
Structure prediction by ZEFSAII (Michael W. Deem and Ramdas Pophale) SiO2 
 PCOD9283901
Probable space group: C 2/C
;
_chemical_formula_sum "Si O2"
_cell_formula_units_Z 40
_cell_length_a 13.228656
_cell_length_b 9.603917
_cell_length_c 17.878538
_cell_angle_alpha 90.000000
_cell_angle_beta 133.350546
_cell_angle_gamma 90.000000
_cell_volume 1651.697659
_symmetry_space_group_name_H-M "C 2/C"
_symmetry_group_IT_number 15
_symmetry_cell_setting 'monoclinic'
loop_
_space_group_symop_operation_xyz
x,y,z
-x,y,1/2-z
-x,-y,-z
x,-y,1/2+z
1/2+x,1/2+y,z
1/2-x,1/2+y,1/2-z
1/2-x,1/2-y,-z
1/2+x,1/2-y,1/2+z
loop_
_atom_site_type_symbol
_atom_site_label
_atom_site_fract_x
_atom_site_fract_y
_atom_site_fract_z
Si Si1 0.933201 0.140613 0.041025
Si Si2 0.648073 0.167941 0.866273
Si Si3 0.155542 0.376599 0.128794
Si Si4 0.926990 0.415644 0.575918
Si Si5 0.971310 0.881422 0.321944
O O1 0.872418 0.205905 0.086790
O O2 0.065907 0.235796 0.090953
O O3 0.807544 0.172504 0.918659
O O4 0.976970 0.986708 0.087144
O O5 0.500000 0.169649 0.750000
O O6 0.648363 0.017445 0.905487
O O7 0.305199 0.367995 0.240588
O O8 0.065670 0.500607 0.120520
O O9 0.164109 0.403375 0.044854
O O10 0.960812 0.268378 0.628862
O O11 0.000000 0.927514 0.250000
#
# Coordination Sequence:
#
# PCOD9283901 Si02
#       5
#     8   8   8   8   8
#     4  10  23  40  64  94 125 166 211 251 308 378
#     4  10  21  40  65  92 125 165 208 256 310 371
#     4  10  23  43  62  87 127 168 207 254 308 374
#     4  10  23  40  61  89 123 160 208 259 309 362
#     4  12  24  39  64  94 127 163 206 260 313 363
#
# _framework density 24.217506
#
# number of rings (size 3 to 8) (size 9 to 14) (size 15 to 20)
#    0.000    1.600    0.000    3.600    0.000   15.200 
#    0.000    0.000    0.000    0.000    0.000    0.000 
#    0.000    0.000    0.000    0.000    0.000    0.000 
#
# Total GULP energy -111853.250014 kJ/mol
# GULP energy per Si atom -5592.662501 kJ/mol
# Density = 2.416239 g / cm^3
# Si number density = 24.217506 Si / 1000 Ang^3
#
#
#
# Elastic Constant Matrix: (Units=GPa)
#
#
# Indices 1 2 3 4 5 6 
#
# 1 26.3363 -8.4223 34.5467 0.0000 13.8773 0.0000
# 2 -8.4223 109.1431 16.9684 0.0000 15.4829 0.0000
# 3 34.5467 16.9684 149.1409 0.0000 39.7446 0.0000
# 4 0.0000 0.0000 0.0000 32.2075 0.0000 -7.0528
# 5 13.8773 15.4829 39.7446 0.0000 38.0833 0.0000
# 6 0.0000 0.0000 0.0000 -7.0528 0.0000 27.5693
#
#
#
# Elastic Compliance Matrix: (Units=1/GPa)
#
#
# Indices 1 2 3 4 5 6 
#
# 1 0.064203 0.008874 -0.012032 0.000000 -0.014447 0.000000
# 2 0.008874 0.010950 -0.001736 0.000000 -0.005874 0.000000
# 3 -0.012032 -0.001736 0.011544 0.000000 -0.006957 0.000000
# 4 0.000000 0.000000 0.000000 0.032891 0.000000 0.008414
# 5 -0.014447 -0.005874 -0.006957 0.000000 0.041171 0.000000
# 6 0.000000 0.000000 0.000000 0.008414 0.000000 0.038425
#
#
# Mechanical properties :
#
#
# Convention : Reuss Voigt Hill
#
# Bulk Modulus (GPa) = 13.00224 41.20068 27.10146
# Shear Modulus (GPa) = 21.31216 35.67386 28.49301
#
# Velocity S-wave (km/s) = 2.96975 3.84221 3.43380
# Velocity P-wave (km/s) = 4.14003 6.06079 5.19004
#
# Compressibility (1/GPa) = 0.07690983
#
# Stress axis : x y z
#
# Youngs Moduli (GPa) = 15.57554 91.32213 86.62812
#
# Poissons Ratio (x) = -0.81042 1.04229
# Poissons Ratio (y) = -0.13822 0.15040
# Poissons Ratio (z) = 0.18740 0.15855
#
# Static dielectric constant tensor:
#      x y z
#    x 2.018170 0.000000 0.041840 
#    y 0.000000 1.858510 0.000000 
#    z 0.041840 0.000000 2.104390 
# 
# From -- ./inp_files/259063.got.cif
#   From: 2010.05.17/outbox.cif.g08.bks.cpg/sg15_130_cif.got.tgz:259063.got - 2010.06.03 18:47:42.
