data_PCOD9283226
_publ_section_title
;
Structure prediction by ZEFSAII (Michael W. Deem and Ramdas Pophale) SiO2 
 PCOD9283226
Probable space group: C 2/C
;
_chemical_formula_sum "Si O2"
_cell_formula_units_Z 56
_cell_length_a 22.395837
_cell_length_b 14.034743
_cell_length_c 14.767170
_cell_angle_alpha 90.000000
_cell_angle_beta 31.892353
_cell_angle_gamma 90.000000
_cell_volume 2452.280905
_symmetry_space_group_name_H-M "C 2/C"
_symmetry_group_IT_number 15
_symmetry_cell_setting 'monoclinic'
loop_
_space_group_symop_operation_xyz
x,y,z
-x,y,1/2-z
-x,-y,-z
x,-y,1/2+z
1/2+x,1/2+y,z
1/2-x,1/2+y,1/2-z
1/2-x,1/2-y,-z
1/2+x,1/2-y,1/2+z
loop_
_atom_site_type_symbol
_atom_site_label
_atom_site_fract_x
_atom_site_fract_y
_atom_site_fract_z
Si Si1 0.937775 0.629440 0.920955
Si Si2 0.182631 0.903510 0.742278
Si Si3 0.311172 0.342984 0.390079
Si Si4 0.774214 0.910298 0.189769
Si Si5 0.096635 0.408281 0.558872
Si Si6 0.465223 0.718260 0.529263
Si Si7 0.372611 0.526766 0.387618
O O1 0.948821 0.514067 0.906775
O O2 0.000000 0.665005 0.750000
O O3 0.804214 0.644864 0.081949
O O4 0.974220 0.680985 0.966373
O O5 0.193309 0.989817 0.800890
O O6 0.147922 0.941195 0.688223
O O7 0.085231 0.829803 0.888907
O O8 0.250000 0.250000 0.500000
O O9 0.210195 0.404197 0.473302
O O10 0.403343 0.300235 0.203620
O O11 0.362053 0.412085 0.399594
O O12 0.656537 0.874633 0.387213
O O13 0.878578 0.840864 0.076612
O O14 0.780481 0.931040 0.075287
O O15 0.000000 0.364451 0.750000
O O16 0.500000 0.553508 0.250000
#
# Coordination Sequence:
#
# PCOD9283226 Si02
#       7
#     8   8   8   8   8   8   8
#     4  10  23  41  66  93 133 180 218 269 336 401
#     4  11  22  45  67  94 140 176 218 290 335 391
#     4  11  25  43  65 101 136 166 231 285 329 401
#     4  10  21  39  69  95 132 175 221 277 339 389
#     4   9  20  46  66  85 137 183 210 269 341 399
#     4  11  22  42  63 101 135 172 224 282 327 398
#     4  12  22  39  72 102 128 177 227 273 348 397
#
# _framework density 22.835882999999999
#
# number of rings (size 3 to 8) (size 9 to 14) (size 15 to 20)
#    0.000    1.429    5.714    1.286    6.000    1.143 
#    5.143    0.714    0.000    0.000    0.000    0.000 
#    0.000    0.000    0.000    0.000    0.000    0.000 
#
# Total GULP energy -156162.963241 kJ/mol
# GULP energy per Si atom -5577.248687 kJ/mol
# Density = 2.278391 g / cm^3
# Si number density = 22.835883 Si / 1000 Ang^3
#
#
#
# Elastic Constant Matrix: (Units=GPa)
#
#
# Indices 1 2 3 4 5 6 
#
# 1 35.4352 2.9993 8.2918 0.0000 -7.1499 0.0000
# 2 2.9993 51.2571 7.1166 0.0000 -2.7865 0.0000
# 3 8.2918 7.1166 88.0637 0.0000 -7.5156 0.0000
# 4 0.0000 0.0000 0.0000 13.4874 0.0000 6.7540
# 5 -7.1499 -2.7865 -7.5156 0.0000 26.5487 0.0000
# 6 0.0000 0.0000 0.0000 6.7540 0.0000 16.7094
#
#
#
# Elastic Compliance Matrix: (Units=1/GPa)
#
#
# Indices 1 2 3 4 5 6 
#
# 1 0.030313 -0.001073 -0.002132 0.000000 0.007448 0.000000
# 2 -0.001073 0.019840 -0.001383 0.000000 0.001402 0.000000
# 3 -0.002132 -0.001383 0.011894 0.000000 0.002648 0.000000
# 4 0.000000 0.000000 0.000000 0.092960 0.000000 -0.037575
# 5 0.007448 0.001402 0.002648 0.000000 0.040569 0.000000
# 6 0.000000 0.000000 0.000000 -0.037575 0.000000 0.075034
#
#
# Mechanical properties :
#
#
# Convention : Reuss Voigt Hill
#
# Bulk Modulus (GPa) = 18.91345 23.50791 21.21068
# Shear Modulus (GPa) = 16.81183 21.77231 19.29207
#
# Velocity S-wave (km/s) = 2.71625 3.09111 2.90972
# Velocity P-wave (km/s) = 4.25883 4.80173 4.53840
#
# Compressibility (1/GPa) = 0.05287242
#
# Stress axis : x y z
#
# Youngs Moduli (GPa) = 32.98921 50.40201 84.07707
#
# Poissons Ratio (x) = 0.05408 0.17924
# Poissons Ratio (y) = 0.03539 0.11625
# Poissons Ratio (z) = 0.07033 0.06969
#
# Static dielectric constant tensor:
#      x y z
#    x 1.851490 0.000000 0.014660 
#    y 0.000000 1.831720 0.000000 
#    z 0.014660 0.000000 1.806920 
# 
# From -- ./inp_files/173795.got.cif
#   From: 2010.05.17/outbox.cif.g08.bks.cpg/sg15_87_cif.got.tgz:173795.got - 2010.06.03 18:47:42.
