data_PCOD9283568
_publ_section_title
;
Structure prediction by ZEFSAII (Michael W. Deem and Ramdas Pophale) SiO2 
 PCOD9283568
Probable space group: C 2/C
;
_chemical_formula_sum "Si O2"
_cell_formula_units_Z 44
_cell_length_a 10.821777
_cell_length_b 18.838934
_cell_length_c 9.363966
_cell_angle_alpha 90.000000
_cell_angle_beta 60.697765
_cell_angle_gamma 90.000000
_cell_volume 1664.777548
_symmetry_space_group_name_H-M "C 2/C"
_symmetry_group_IT_number 15
_symmetry_cell_setting 'monoclinic'
loop_
_space_group_symop_operation_xyz
x,y,z
-x,y,1/2-z
-x,-y,-z
x,-y,1/2+z
1/2+x,1/2+y,z
1/2-x,1/2+y,1/2-z
1/2-x,1/2-y,-z
1/2+x,1/2-y,1/2+z
loop_
_atom_site_type_symbol
_atom_site_label
_atom_site_fract_x
_atom_site_fract_y
_atom_site_fract_z
Si Si1 0.488647 0.365192 0.499277
Si Si2 0.000000 0.250453 0.750000
Si Si3 0.735232 0.718549 0.234943
Si Si4 0.000000 0.978953 0.250000
Si Si5 0.320134 0.988486 0.561994
Si Si6 0.691704 0.152491 0.589542
Si Si7 0.000000 0.470511 0.750000
O O1 0.473266 0.299499 0.399801
O O2 0.376797 0.343625 0.680948
O O3 0.475222 0.432786 0.406604
O O4 0.645996 0.366088 0.470300
O O5 0.148180 0.286390 0.706564
O O6 0.659666 0.795018 0.242780
O O7 0.821374 0.700870 0.042528
O O8 0.847346 0.014762 0.320059
O O9 0.372142 0.922751 0.428330
O O10 0.394131 0.989108 0.673644
O O11 0.373827 0.054247 0.433524
#
# Coordination Sequence:
#
# PCOD9283568 Si02
#       7
#     8   4   8   4   8   8   4
#     4  10  21  41  66 100 136 181 240 310 356 439
#     4   9  20  39  60  92 132 179 235 292 364 435
#     4  10  21  40  62  96 135 184 238 298 365 436
#     4  11  26  42  80 108 146 192 253 304 380 439
#     4  11  25  49  73 110 147 199 248 310 374 451
#     4  10  23  40  65  97 135 185 241 300 360 436
#     4  10  26  49  72 104 154 191 250 308 376 448
#
# _framework density 26.429956000000001
#
# number of rings (size 3 to 8) (size 9 to 14) (size 15 to 20)
#    0.000    1.818    0.000    2.182    5.091    2.182 
#   13.091    0.000    0.000    0.000    0.000    0.000 
#    0.000    0.000    0.000    0.000    0.000    0.000 
#
# Total GULP energy -122548.059276 kJ/mol
# GULP energy per Si atom -5570.366331 kJ/mol
# Density = 2.636980 g / cm^3
# Si number density = 26.429956 Si / 1000 Ang^3
#
#
#
# Elastic Constant Matrix: (Units=GPa)
#
#
# Indices 1 2 3 4 5 6 
#
# 1 210.3920 53.1954 78.2260 0.0000 18.7427 0.0000
# 2 53.1954 104.5914 42.5998 0.0000 13.0936 0.0000
# 3 78.2260 42.5998 118.7537 0.0000 10.9091 0.0000
# 4 0.0000 0.0000 0.0000 25.5465 0.0000 2.2599
# 5 18.7427 13.0936 10.9091 0.0000 58.4292 0.0000
# 6 0.0000 0.0000 0.0000 2.2599 0.0000 2.8268
#
#
#
# Elastic Compliance Matrix: (Units=1/GPa)
#
#
# Indices 1 2 3 4 5 6 
#
# 1 0.006651 -0.001763 -0.003651 0.000000 -0.001057 0.000000
# 2 -0.001763 0.011851 -0.002949 0.000000 -0.001540 0.000000
# 3 -0.003651 -0.002949 0.011920 0.000000 -0.000393 0.000000
# 4 0.000000 0.000000 0.000000 0.042123 0.000000 -0.033676
# 5 -0.001057 -0.001540 -0.000393 0.000000 0.017872 0.000000
# 6 0.000000 0.000000 0.000000 -0.033676 0.000000 0.380681
#
#
# Mechanical properties :
#
#
# Convention : Reuss Voigt Hill
#
# Bulk Modulus (GPa) = 73.01464 86.86438 79.93951
# Shear Modulus (GPa) = 10.15456 34.67488 22.41472
#
# Velocity S-wave (km/s) = 1.96225 3.62602 2.91534
# Velocity P-wave (km/s) = 5.72884 7.10408 6.45320
#
# Compressibility (1/GPa) = 0.01369588
#
# Stress axis : x y z
#
# Youngs Moduli (GPa) = 150.36387 84.37812 83.89316
#
# Poissons Ratio (x) = 0.14876 0.30633
# Poissons Ratio (y) = 0.26509 0.24737
# Poissons Ratio (z) = 0.54904 0.24880
#
# Static dielectric constant tensor:
#      x y z
#    x 2.274340 0.000000 -1.223910 
#    y 0.000000 2.533430 0.000000 
#    z -1.223910 0.000000 8.583670 
# 
# From -- ./inp_files/30792.got.cif
#   From: 2010.05.17/outbox.cif.g08.bks.cpg/sg15_16_cif.got.tgz:30792.got - 2010.06.03 18:47:42.
