data_PCOD9283644
_publ_section_title
;
Structure prediction by ZEFSAII (Michael W. Deem and Ramdas Pophale) SiO2 
 PCOD9283644
Probable space group: C 2/C
;
_chemical_formula_sum "Si O2"
_cell_formula_units_Z 52
_cell_length_a 19.844776
_cell_length_b 7.934942
_cell_length_c 14.862571
_cell_angle_alpha 90.000000
_cell_angle_beta 97.732537
_cell_angle_gamma 90.000000
_cell_volume 2319.085580
_symmetry_space_group_name_H-M "C 2/C"
_symmetry_group_IT_number 15
_symmetry_cell_setting 'monoclinic'
loop_
_space_group_symop_operation_xyz
x,y,z
-x,y,1/2-z
-x,-y,-z
x,-y,1/2+z
1/2+x,1/2+y,z
1/2-x,1/2+y,1/2-z
1/2-x,1/2-y,-z
1/2+x,1/2-y,1/2+z
loop_
_atom_site_type_symbol
_atom_site_label
_atom_site_fract_x
_atom_site_fract_y
_atom_site_fract_z
Si Si1 0.660996 0.263974 0.175845
Si Si2 0.812406 0.425021 0.416611
Si Si3 0.534421 0.170514 0.583927
Si Si4 0.382683 0.600727 0.651905
Si Si5 0.500000 0.634392 0.250000
Si Si6 0.504072 0.199757 0.104688
Si Si7 0.208839 0.954064 0.542906
O O1 0.667733 0.341819 0.277105
O O2 0.578731 0.244632 0.152544
O O3 0.693170 0.079638 0.156831
O O4 0.687042 0.400638 0.107827
O O5 0.892260 0.390264 0.434924
O O6 0.786754 0.229113 0.407500
O O7 0.779673 0.489318 0.504102
O O8 0.535537 0.267619 0.675943
O O9 0.501132 0.272983 0.497115
O O10 0.495376 0.999232 0.595405
O O11 0.435156 0.457511 0.693591
O O12 0.438571 0.743974 0.646202
O O13 0.343288 0.560927 0.551995
#
# Coordination Sequence:
#
# PCOD9283644 Si02
#       7
#     8   8   8   8   4   8   8
#     4  11  23  43  67  95 130 171 221 271 325 385
#     4  10  23  44  68  89 126 178 213 273 324 386
#     4  10  22  39  65  93 122 166 217 261 332 389
#     4  12  24  40  63  99 131 171 214 272 326 390
#     4  12  24  36  64  98 128 168 212 278 328 390
#     4  10  21  40  63  91 128 165 207 271 328 384
#     4  11  24  46  66  93 134 174 222 268 325 389
#
# _framework density 22.422630999999999
#
# number of rings (size 3 to 8) (size 9 to 14) (size 15 to 20)
#    0.000    1.231    3.077    2.308    4.308    1.231 
#    8.308    0.000    0.000    0.000    0.000    0.000 
#    0.000    0.000    0.000    0.000    0.000    0.000 
#
# Total GULP energy -144997.038234 kJ/mol
# GULP energy per Si atom -5576.809163 kJ/mol
# Density = 2.237160 g / cm^3
# Si number density = 22.422631 Si / 1000 Ang^3
#
#
#
# Elastic Constant Matrix: (Units=GPa)
#
#
# Indices 1 2 3 4 5 6 
#
# 1 94.1155 38.4364 64.9808 0.0000 -11.6507 0.0000
# 2 38.4364 93.6760 60.2329 0.0000 -12.3471 0.0000
# 3 64.9808 60.2329 111.7188 0.0000 -15.1465 0.0000
# 4 0.0000 0.0000 0.0000 38.2737 0.0000 -10.6693
# 5 -11.6507 -12.3471 -15.1465 0.0000 32.7953 0.0000
# 6 0.0000 0.0000 0.0000 -10.6693 0.0000 28.0298
#
#
#
# Elastic Compliance Matrix: (Units=1/GPa)
#
#
# Indices 1 2 3 4 5 6 
#
# 1 0.017887 -0.000890 -0.009716 0.000000 0.001532 0.000000
# 2 -0.000890 0.016537 -0.008105 0.000000 0.002167 0.000000
# 3 -0.009716 -0.008105 0.019299 0.000000 0.002410 0.000000
# 4 0.000000 0.000000 0.000000 0.029229 0.000000 0.011126
# 5 0.001532 0.002167 0.002410 0.000000 0.032965 0.000000
# 6 0.000000 0.000000 0.000000 0.011126 0.000000 0.039911
#
#
# Mechanical properties :
#
#
# Convention : Reuss Voigt Hill
#
# Bulk Modulus (GPa) = 61.34512 69.64560 65.49536
# Shear Modulus (GPa) = 25.16566 28.87710 27.02138
#
# Velocity S-wave (km/s) = 3.35376 3.59256 3.47521
# Velocity P-wave (km/s) = 6.51267 6.95245 6.73615
#
# Compressibility (1/GPa) = 0.01630122
#
# Stress axis : x y z
#
# Youngs Moduli (GPa) = 55.90712 60.47079 51.81642
#
# Poissons Ratio (x) = 0.05380 0.50347
# Poissons Ratio (y) = 0.04974 0.41995
# Poissons Ratio (z) = 0.54322 0.49009
#
# Static dielectric constant tensor:
#      x y z
#    x 1.827900 0.000000 0.040160 
#    y 0.000000 1.880720 0.000000 
#    z 0.040160 0.000000 2.032240 
# 
# From -- ./inp_files/166254.got.cif
#   From: 2010.05.17/outbox.cif.g08.bks.cpg/sg15_84_cif.got.tgz:166254.got - 2010.06.03 18:47:42.
