data_PCOD9283291
_publ_section_title
;
Structure prediction by ZEFSAII (Michael W. Deem and Ramdas Pophale) SiO2 
 PCOD9283291
Probable space group: C 2/C
;
_chemical_formula_sum "Si O2"
_cell_formula_units_Z 60
_cell_length_a 30.481141
_cell_length_b 8.483027
_cell_length_c 24.381553
_cell_angle_alpha 90.000000
_cell_angle_beta 22.600310
_cell_angle_gamma 90.000000
_cell_volume 2422.781103
_symmetry_space_group_name_H-M "C 2/C"
_symmetry_group_IT_number 15
_symmetry_cell_setting 'monoclinic'
loop_
_space_group_symop_operation_xyz
x,y,z
-x,y,1/2-z
-x,-y,-z
x,-y,1/2+z
1/2+x,1/2+y,z
1/2-x,1/2+y,1/2-z
1/2-x,1/2-y,-z
1/2+x,1/2-y,1/2+z
loop_
_atom_site_type_symbol
_atom_site_label
_atom_site_fract_x
_atom_site_fract_y
_atom_site_fract_z
Si Si1 0.315272 0.915457 0.731889
Si Si2 0.539735 0.972974 0.344324
Si Si3 0.826185 0.403010 0.406406
Si Si4 0.897522 0.380786 0.913029
Si Si5 0.500000 0.690914 0.250000
Si Si6 0.525929 0.395694 0.890274
Si Si7 0.809026 0.945928 0.221360
Si Si8 0.881089 0.972846 0.466097
O O1 0.282498 0.731952 0.769354
O O2 0.431605 0.936488 0.631809
O O3 0.293495 0.977768 0.695529
O O4 0.222427 0.013299 0.874304
O O5 0.652706 0.995033 0.174197
O O6 0.527280 0.789982 0.375466
O O7 0.439131 0.044683 0.422684
O O8 0.750000 0.250000 0.500000
O O9 0.810903 0.512333 0.477402
O O10 0.948710 0.312767 0.266618
O O11 0.865837 0.202805 0.962422
O O12 0.000000 0.369760 0.750000
O O13 0.404486 0.584573 0.387740
O O14 0.643400 0.449589 0.783452
O O15 0.494327 0.498837 0.873039
O O16 0.420899 0.427982 0.053077
#
# Coordination Sequence:
#
# PCOD9283291 Si02
#       8
#     8   8   8   8   4   8   8   8
#     4  11  24  40  61  95 124 157 218 266 321 382
#     4  11  21  38  61  87 123 162 210 254 309 388
#     4  11  22  39  62  92 127 172 214 252 307 378
#     4  10  21  40  58  87 129 163 206 251 300 375
#     4  12  20  42  64  90 138 172 208 260 312 378
#     4  10  21  40  65  86 118 172 208 256 331 379
#     4  10  23  41  60  89 124 157 213 273 319 377
#     4  11  22  39  64  92 129 169 207 262 319 379
#
# _framework density 24.764927
#
# number of rings (size 3 to 8) (size 9 to 14) (size 15 to 20)
#    0.000    1.333    4.000    2.400    0.000    3.733 
#    2.400    2.000    0.000    0.000    0.000    0.000 
#    0.000    0.000    0.000    0.000    0.000    0.000 
#
# Total GULP energy -167544.440669 kJ/mol
# GULP energy per Si atom -5584.814689 kJ/mol
# Density = 2.470856 g / cm^3
# Si number density = 24.764927 Si / 1000 Ang^3
#
#
#
# Elastic Constant Matrix: (Units=GPa)
#
#
# Indices 1 2 3 4 5 6 
#
# 1 170.5510 56.3121 -0.6679 -0.0029 -0.5245 0.0002
# 2 56.3121 130.5225 -11.0714 -0.0091 -0.7099 0.0013
# 3 -0.6679 -11.0714 35.7038 -0.0059 14.4048 0.0011
# 4 -0.0029 -0.0091 -0.0059 31.4080 0.0014 -0.2859
# 5 -0.5245 -0.7099 14.4048 0.0014 28.9947 0.0000
# 6 0.0002 0.0013 0.0011 -0.2859 0.0000 54.3293
#
#
#
# Elastic Compliance Matrix: (Units=1/GPa)
#
#
# Indices 1 2 3 4 5 6 
#
# 1 0.006868 -0.003049 -0.001047 0.000000 0.000570 0.000000
# 2 -0.003049 0.009260 0.003433 0.000003 -0.001534 0.000000
# 3 -0.001047 0.003433 0.036304 0.000008 -0.017971 -0.000001
# 4 0.000000 0.000003 0.000008 0.031841 -0.000006 0.000168
# 5 0.000570 -0.001534 -0.017971 -0.000006 0.043390 0.000000
# 6 0.000000 0.000000 -0.000001 0.000168 0.000000 0.018407
#
#
# Mechanical properties :
#
#
# Convention : Reuss Voigt Hill
#
# Bulk Modulus (GPa) = 19.56687 47.32477 33.44582
# Shear Modulus (GPa) = 30.40844 42.42672 36.41758
#
# Velocity S-wave (km/s) = 3.50792 4.14355 3.83891
# Velocity P-wave (km/s) = 4.93209 6.48406 5.76058
#
# Compressibility (1/GPa) = 0.05110678
#
# Stress axis : x y z
#
# Youngs Moduli (GPa) = 145.61164 107.99515 27.54548
#
# Poissons Ratio (x) = 0.32924 0.02883
# Poissons Ratio (y) = 0.44391 -0.09457
# Poissons Ratio (z) = 0.15241 -0.37078
#
# Static dielectric constant tensor:
#      x y z
#    x 2.187260 0.000000 -0.069880 
#    y 0.000000 1.857810 0.000000 
#    z -0.069880 0.000000 2.012700 
# 
# From -- ./inp_files/284283.got.cif
#   From: 2010.05.17/outbox.cif.g08.bks.cpg/sg15_143_cif.got.tgz:284283.got - 2010.06.03 18:47:42.
