data_PCOD9283594
_publ_section_title
;
Structure prediction by ZEFSAII (Michael W. Deem and Ramdas Pophale) SiO2 
 PCOD9283594
Probable space group: C 2/C
;
_chemical_formula_sum "Si O2"
_cell_formula_units_Z 56
_cell_length_a 18.696210
_cell_length_b 7.875951
_cell_length_c 15.053503
_cell_angle_alpha 90.000000
_cell_angle_beta 66.866557
_cell_angle_gamma 90.000000
_cell_volume 2038.400420
_symmetry_space_group_name_H-M "C 2/C"
_symmetry_group_IT_number 15
_symmetry_cell_setting 'monoclinic'
loop_
_space_group_symop_operation_xyz
x,y,z
-x,y,1/2-z
-x,-y,-z
x,-y,1/2+z
1/2+x,1/2+y,z
1/2-x,1/2+y,1/2-z
1/2-x,1/2-y,-z
1/2+x,1/2-y,1/2+z
loop_
_atom_site_type_symbol
_atom_site_label
_atom_site_fract_x
_atom_site_fract_y
_atom_site_fract_z
Si Si1 0.647821 0.559135 0.785513
Si Si2 0.578476 0.816567 0.542706
Si Si3 0.271236 0.988886 0.503662
Si Si4 0.195777 0.558223 0.214722
Si Si5 0.608938 0.258926 0.476550
Si Si6 0.447358 0.053886 0.621672
Si Si7 0.409497 0.515083 0.361428
O O1 0.730945 0.466233 0.755472
O O2 0.666497 0.747965 0.737197
O O3 0.617630 0.591897 0.900135
O O4 0.586999 0.474248 0.746674
O O5 0.530454 0.976099 0.609382
O O6 0.557720 0.656866 0.612283
O O7 0.669735 0.860169 0.496436
O O8 0.557353 0.797605 0.448927
O O9 0.310953 0.821701 0.525835
O O10 0.277082 0.004128 0.395220
O O11 0.183896 0.003294 0.578173
O O12 0.121730 0.440766 0.275275
O O13 0.578541 0.104526 0.430406
O O14 0.568802 0.330485 0.585069
#
# Coordination Sequence:
#
# PCOD9283594 Si02
#       7
#     8   8   8   8   8   8   8
#     4  11  23  38  58  94 126 163 198 260 317 370
#     4  10  21  40  63  88 121 164 217 258 302 381
#     4  11  22  39  62  94 127 164 204 262 320 373
#     4  11  23  37  62  92 126 162 206 256 320 380
#     4  10  23  41  60  91 132 165 200 260 325 374
#     4   9  22  42  61  87 123 168 207 259 321 365
#     4  12  22  37  64  94 125 162 211 258 314 380
#
# _framework density 27.472524
#
# number of rings (size 3 to 8) (size 9 to 14) (size 15 to 20)
#    0.000    1.429    2.857    3.429    4.000    1.143 
#    0.000    0.000    0.000    0.000    7.429    0.000 
#    0.000    0.000    0.000    0.000    0.000    0.000 
#
# Total GULP energy -156693.349653 kJ/mol
# GULP energy per Si atom -5596.191059 kJ/mol
# Density = 2.741000 g / cm^3
# Si number density = 27.472524 Si / 1000 Ang^3
#
#
#
# Elastic Constant Matrix: (Units=GPa)
#
#
# Indices 1 2 3 4 5 6 
#
# 1 83.3426 14.7108 19.6806 0.0000 18.0943 0.0000
# 2 14.7108 99.2736 23.9263 0.0000 21.0226 0.0001
# 3 19.6806 23.9263 132.3139 0.0000 19.2410 0.0000
# 4 0.0000 0.0000 0.0000 35.6899 0.0000 11.8751
# 5 18.0943 21.0226 19.2410 0.0000 44.9590 0.0000
# 6 0.0000 0.0001 0.0000 11.8751 0.0000 40.3111
#
#
#
# Elastic Compliance Matrix: (Units=1/GPa)
#
#
# Indices 1 2 3 4 5 6 
#
# 1 0.013396 -0.000736 -0.001200 0.000000 -0.004534 0.000000
# 2 -0.000736 0.011450 -0.001307 0.000000 -0.004498 0.000000
# 3 -0.001200 -0.001307 0.008332 0.000000 -0.002472 0.000000
# 4 0.000000 0.000000 0.000000 0.031064 0.000000 -0.009151
# 5 -0.004534 -0.004498 -0.002472 0.000000 0.027228 0.000000
# 6 0.000000 0.000000 0.000000 -0.009151 0.000000 0.027503
#
#
# Mechanical properties :
#
#
# Convention : Reuss Voigt Hill
#
# Bulk Modulus (GPa) = 37.46382 47.95172 42.70777
# Shear Modulus (GPa) = 37.21439 41.29947 39.25693
#
# Velocity S-wave (km/s) = 3.68449 3.88145 3.78425
# Velocity P-wave (km/s) = 5.63622 6.13024 5.88842
#
# Compressibility (1/GPa) = 0.02669242
#
# Stress axis : x y z
#
# Youngs Moduli (GPa) = 74.64759 87.33788 120.01823
#
# Poissons Ratio (x) = 0.06426 0.14405
# Poissons Ratio (y) = 0.05492 0.15685
# Poissons Ratio (z) = 0.08960 0.11414
#
# Static dielectric constant tensor:
#      x y z
#    x 2.380140 0.000000 -0.103270 
#    y 0.000000 2.204920 0.000000 
#    z -0.103270 0.000000 2.247730 
# 
# From -- ./inp_files/171796.got.cif
#   From: 2010.05.17/outbox.cif.g08.bks.cpg/sg15_86_cif.got.tgz:171796.got - 2010.06.03 18:47:42.
