data_PCOD9283065
_publ_section_title
;
Structure prediction by ZEFSAII (Michael W. Deem and Ramdas Pophale) SiO2 
 PCOD9283065
Probable space group: C 2/C
;
_chemical_formula_sum "Si O2"
_cell_formula_units_Z 40
_cell_length_a 12.016417
_cell_length_b 19.663957
_cell_length_c 11.695238
_cell_angle_alpha 90.000000
_cell_angle_beta 35.650005
_cell_angle_gamma 90.000000
_cell_volume 1610.640611
_symmetry_space_group_name_H-M "C 2/C"
_symmetry_group_IT_number 15
_symmetry_cell_setting 'monoclinic'
loop_
_space_group_symop_operation_xyz
x,y,z
-x,y,1/2-z
-x,-y,-z
x,-y,1/2+z
1/2+x,1/2+y,z
1/2-x,1/2+y,1/2-z
1/2-x,1/2-y,-z
1/2+x,1/2-y,1/2+z
loop_
_atom_site_type_symbol
_atom_site_label
_atom_site_fract_x
_atom_site_fract_y
_atom_site_fract_z
Si Si1 0.598229 0.987378 0.791993
Si Si2 0.231120 0.653334 0.244107
Si Si3 0.177006 0.110920 0.853017
Si Si4 0.323991 0.293001 0.330901
Si Si5 0.275607 0.329234 0.957302
O O1 0.500000 0.005146 0.750000
O O2 0.791636 0.031236 0.653548
O O3 0.641426 0.907362 0.747748
O O4 0.500000 0.000000 0.000000
O O5 0.161912 0.729172 0.268671
O O6 0.184871 0.645374 0.416393
O O7 0.461022 0.641632 0.036130
O O8 0.265024 0.145545 0.666206
O O9 0.284261 0.138726 0.874498
O O10 0.500000 0.327115 0.250000
O O11 0.250000 0.250000 0.500000
O O12 0.500000 0.343360 0.750000
O O13 0.250000 0.250000 0.000000
#
# Coordination Sequence:
#
# PCOD9283065 Si02
#       5
#     8   8   8   8   8
#     4  12  29  48  72 104 138 187 238 293 347 416
#     4  11  24  46  72 100 141 183 227 287 349 418
#     4  11  25  46  68 101 141 182 228 284 349 418
#     4  12  25  42  69 106 140 181 232 285 347 411
#     4  10  21  39  66  99 131 174 221 274 338 403
#
# _framework density 24.834838000000001
#
# number of rings (size 3 to 8) (size 9 to 14) (size 15 to 20)
#    0.000    0.800    4.000    2.400    5.600    2.400 
#    0.000    3.000    0.000    0.000    0.000    0.000 
#    0.000    0.000    0.000    0.000    0.000    0.000 
#
# Total GULP energy -111480.227489 kJ/mol
# GULP energy per Si atom -5574.011374 kJ/mol
# Density = 2.477831 g / cm^3
# Si number density = 24.834838 Si / 1000 Ang^3
#
#
#
# Elastic Constant Matrix: (Units=GPa)
#
#
# Indices 1 2 3 4 5 6 
#
# 1 192.7713 55.8115 53.6347 -0.0065 25.7252 0.0029
# 2 55.8115 117.0377 -0.5882 -0.0037 -12.0081 0.0031
# 3 53.6347 -0.5882 69.6344 -0.0117 15.2934 0.0080
# 4 -0.0065 -0.0037 -0.0117 17.3246 0.0073 -2.8641
# 5 25.7252 -12.0081 15.2934 0.0073 38.6541 -0.0043
# 6 0.0029 0.0031 0.0080 -2.8641 -0.0043 53.9933
#
#
#
# Elastic Compliance Matrix: (Units=1/GPa)
#
#
# Indices 1 2 3 4 5 6 
#
# 1 0.008844 -0.004769 -0.005732 0.000001 -0.005099 0.000000
# 2 -0.004769 0.011419 0.002512 0.000000 0.005727 0.000000
# 3 -0.005732 0.002512 0.019480 0.000012 -0.003112 -0.000002
# 4 0.000001 0.000000 0.000012 0.058232 -0.000016 0.003089
# 5 -0.005099 0.005727 -0.003112 -0.000016 0.032275 0.000002
# 6 0.000000 0.000000 -0.000002 0.003089 0.000002 0.018685
#
#
# Mechanical properties :
#
#
# Convention : Reuss Voigt Hill
#
# Bulk Modulus (GPa) = 42.07974 66.35103 54.21539
# Shear Modulus (GPa) = 28.92942 40.03342 34.48142
#
# Velocity S-wave (km/s) = 3.41673 4.01931 3.73021
# Velocity P-wave (km/s) = 5.70491 6.95088 6.35849
#
# Compressibility (1/GPa) = 0.02376440
#
# Stress axis : x y z
#
# Youngs Moduli (GPa) = 113.07609 87.57476 51.33355
#
# Poissons Ratio (x) = 0.41766 0.29424
# Poissons Ratio (y) = 0.53929 -0.12895
# Poissons Ratio (z) = 0.64815 -0.21999
#
# Static dielectric constant tensor:
#      x y z
#    x 1.906900 -0.000010 -0.050330 
#    y -0.000010 1.933340 0.000000 
#    z -0.050330 0.000000 2.128950 
# 
# From -- ./inp_files/49980.got.cif
#   From: 2010.05.17/outbox.cif.g08.bks.cpg/sg15_25_cif.got.tgz:49980.got - 2010.06.03 18:47:42.
