data_PCOD9283014
_publ_section_title
;
Structure prediction by ZEFSAII (Michael W. Deem and Ramdas Pophale) SiO2 
 PCOD9283014
Probable space group: C 2/C
;
_chemical_formula_sum "Si O2"
_cell_formula_units_Z 48
_cell_length_a 25.039150
_cell_length_b 5.244990
_cell_length_c 18.486270
_cell_angle_alpha 90.000000
_cell_angle_beta 84.610013
_cell_angle_gamma 90.000000
_cell_volume 2417.068742
_symmetry_space_group_name_H-M "C 2/C"
_symmetry_group_IT_number 15
_symmetry_cell_setting 'monoclinic'
loop_
_space_group_symop_operation_xyz
x,y,z
-x,y,1/2-z
-x,-y,-z
x,-y,1/2+z
1/2+x,1/2+y,z
1/2-x,1/2+y,1/2-z
1/2-x,1/2-y,-z
1/2+x,1/2-y,1/2+z
loop_
_atom_site_type_symbol
_atom_site_label
_atom_site_fract_x
_atom_site_fract_y
_atom_site_fract_z
Si Si1 0.692850 0.496249 0.065137
Si Si2 0.476049 0.703693 0.948038
Si Si3 0.396961 0.664045 0.824886
Si Si4 0.182494 0.511335 0.474859
Si Si5 0.075842 0.499478 0.413654
Si Si6 0.063009 0.670858 0.759623
O O1 0.662918 0.400520 0.140498
O O2 0.757008 0.524250 0.062813
O O3 0.674507 0.772221 0.037571
O O4 0.679150 0.273671 0.008443
O O5 0.433320 0.636084 0.892696
O O6 0.529451 0.799456 0.901238
O O7 0.500000 0.500000 0.000000
O O8 0.445535 0.895855 0.006311
O O9 0.416783 0.438502 0.772062
O O10 0.407105 0.935669 0.785155
O O11 0.136935 0.568937 0.421875
O O12 0.073431 0.324451 0.343987
O O13 0.000000 0.641434 0.750000
#
# Coordination Sequence:
#
# PCOD9283014 Si02
#       6
#     8   8   8   8   8   8
#     4  10  21  40  65  94 123 163 209 268 319 364
#     4  11  23  38  66  90 124 160 219 267 302 376
#     4  12  24  42  63  91 128 172 208 253 322 384
#     4  10  21  39  66  94 124 157 216 270 311 365
#     4  11  24  40  61  98 122 168 212 268 314 372
#     4  12  26  42  60  91 136 172 201 254 326 387
#
# _framework density 19.858764000000001
#
# number of rings (size 3 to 8) (size 9 to 14) (size 15 to 20)
#    0.000    1.000    3.333    3.500    4.667    0.000 
#    0.000    1.667    0.000    0.000    0.000    0.000 
#    0.000    0.000    0.000    0.000    0.000    0.000 
#
# Total GULP energy -133901.456431 kJ/mol
# GULP energy per Si atom -5579.227351 kJ/mol
# Density = 1.981356 g / cm^3
# Si number density = 19.858764 Si / 1000 Ang^3
#
#
#
# Elastic Constant Matrix: (Units=GPa)
#
#
# Indices 1 2 3 4 5 6 
#
# 1 87.3643 -13.4201 10.3953 0.0000 -1.1896 0.0000
# 2 -13.4201 45.3738 -13.6981 0.0000 2.1053 0.0000
# 3 10.3953 -13.6981 58.6811 0.0000 4.0972 0.0000
# 4 0.0000 0.0000 0.0000 40.2572 0.0000 -2.0868
# 5 -1.1896 2.1053 4.0972 0.0000 22.8981 0.0000
# 6 0.0000 0.0000 0.0000 -2.0868 0.0000 10.2942
#
#
#
# Elastic Compliance Matrix: (Units=1/GPa)
#
#
# Indices 1 2 3 4 5 6 
#
# 1 0.012106 0.003112 -0.001460 0.000000 0.000604 0.000000
# 2 0.003112 0.024745 0.005441 0.000000 -0.003087 0.000000
# 3 -0.001460 0.005441 0.018846 0.000000 -0.003948 0.000000
# 4 0.000000 0.000000 0.000000 0.025104 0.000000 0.005089
# 5 0.000604 -0.003087 -0.003948 0.000000 0.044693 0.000000
# 6 0.000000 0.000000 0.000000 0.005089 0.000000 0.098173
#
#
# Mechanical properties :
#
#
# Convention : Reuss Voigt Hill
#
# Bulk Modulus (GPa) = 14.31000 17.55260 15.93130
# Shear Modulus (GPa) = 21.47970 28.56606 25.02288
#
# Velocity S-wave (km/s) = 3.29237 3.79682 3.55356
# Velocity P-wave (km/s) = 4.65559 5.29896 4.98766
#
# Compressibility (1/GPa) = 0.06988121
#
# Stress axis : x y z
#
# Youngs Moduli (GPa) = 82.60152 40.41177 53.06256
#
# Poissons Ratio (x) = -0.12575 0.07749
# Poissons Ratio (y) = -0.25703 -0.28870
# Poissons Ratio (z) = 0.12063 -0.21987
#
# Static dielectric constant tensor:
#      x y z
#    x 1.735120 0.000000 -0.079450 
#    y 0.000000 1.744570 0.000000 
#    z -0.079450 0.000000 1.699140 
# 
# From -- ./inp_files/217472.got.cif
#   From: 2010.05.17/outbox.cif.g08.bks.cpg/sg15_109_cif.got.tgz:217472.got - 2010.06.03 18:47:42.
