data_PCOD9283919
_publ_section_title
;
Structure prediction by ZEFSAII (Michael W. Deem and Ramdas Pophale) SiO2 
 PCOD9283919
Probable space group: C 2/C
;
_chemical_formula_sum "Si O2"
_cell_formula_units_Z 44
_cell_length_a 8.353146
_cell_length_b 6.890025
_cell_length_c 29.801050
_cell_angle_alpha 90.000000
_cell_angle_beta 68.473555
_cell_angle_gamma 90.000000
_cell_volume 1595.516595
_symmetry_space_group_name_H-M "C 2/C"
_symmetry_group_IT_number 15
_symmetry_cell_setting 'monoclinic'
loop_
_space_group_symop_operation_xyz
x,y,z
-x,y,1/2-z
-x,-y,-z
x,-y,1/2+z
1/2+x,1/2+y,z
1/2-x,1/2+y,1/2-z
1/2-x,1/2-y,-z
1/2+x,1/2-y,1/2+z
loop_
_atom_site_type_symbol
_atom_site_label
_atom_site_fract_x
_atom_site_fract_y
_atom_site_fract_z
Si Si1 0.262277 0.867249 0.845814
Si Si2 0.453126 0.751209 0.970488
Si Si3 0.500000 0.732768 0.750000
Si Si4 0.477977 0.625887 0.207250
Si Si5 0.002430 0.197896 0.061092
Si Si6 0.762672 0.697810 0.117457
O O1 0.437377 0.843626 0.800509
O O2 0.132273 0.791469 0.821060
O O3 0.189883 0.769760 0.898734
O O4 0.231758 0.094883 0.858165
O O5 0.494800 0.529125 0.952914
O O6 0.548999 0.863039 0.919923
O O7 0.250000 0.750000 0.000000
O O8 0.534749 0.802143 0.010610
O O9 0.616236 0.565387 0.762786
O O10 0.500000 0.747694 0.250000
O O11 0.655717 0.569725 0.163866
O O12 0.146060 0.222955 0.084564
#
# Coordination Sequence:
#
# PCOD9283919 Si02
#       6
#     8   8   4   8   8   8
#     4  10  22  39  62  88 120 166 208 253 312 369
#     4  10  21  40  65  93 127 161 205 253 312 369
#     4  10  24  38  60  88 124 162 206 262 306 360
#     4   9  23  40  58  89 124 160 207 260 307 371
#     4   9  21  41  59  94 128 158 203 258 305 372
#     4  10  21  40  67  90 126 168 207 254 313 371
#
# _framework density 27.577273999999999
#
# number of rings (size 3 to 8) (size 9 to 14) (size 15 to 20)
#    0.545    1.818    0.000    0.545    3.818    6.545 
#    0.000    9.091    0.000    0.000    0.000    0.000 
#    0.000    0.000    0.000    0.000    0.000    0.000 
#
# Total GULP energy -122696.337888 kJ/mol
# GULP energy per Si atom -5577.106268 kJ/mol
# Density = 2.751451 g / cm^3
# Si number density = 27.577274 Si / 1000 Ang^3
#
#
#
# Elastic Constant Matrix: (Units=GPa)
#
#
# Indices 1 2 3 4 5 6 
#
# 1 84.9102 -7.1806 53.3857 0.0000 6.4762 0.0000
# 2 -7.1806 63.3860 54.0857 0.0000 -11.5098 0.0000
# 3 53.3857 54.0857 240.6040 0.0000 -18.7466 0.0000
# 4 0.0000 0.0000 0.0000 61.3081 0.0000 -1.1367
# 5 6.4762 -11.5098 -18.7466 0.0000 51.8248 0.0000
# 6 0.0000 0.0000 0.0000 -1.1367 0.0000 18.8771
#
#
#
# Elastic Compliance Matrix: (Units=1/GPa)
#
#
# Indices 1 2 3 4 5 6 
#
# 1 0.015476 0.005441 -0.004850 0.000000 -0.002480 0.000000
# 2 0.005441 0.021845 -0.005961 0.000000 0.002015 0.000000
# 3 -0.004850 -0.005961 0.006705 0.000000 0.001708 0.000000
# 4 0.000000 0.000000 0.000000 0.016329 0.000000 0.000983
# 5 -0.002480 0.002015 0.001708 0.000000 0.020671 0.000000
# 6 0.000000 0.000000 0.000000 0.000983 0.000000 0.053034
#
#
# Mechanical properties :
#
#
# Convention : Reuss Voigt Hill
#
# Bulk Modulus (GPa) = 30.04172 65.49797 47.76985
# Shear Modulus (GPa) = 32.07279 45.64261 38.85770
#
# Velocity S-wave (km/s) = 3.41400 4.07268 3.75780
# Velocity P-wave (km/s) = 5.14372 6.77628 6.01564
#
# Compressibility (1/GPa) = 0.03328704
#
# Stress axis : x y z
#
# Youngs Moduli (GPa) = 64.61626 45.77695 149.13312
#
# Poissons Ratio (x) = -0.24909 0.72333
# Poissons Ratio (y) = -0.35161 0.88897
# Poissons Ratio (z) = 0.31341 0.27287
#
# Static dielectric constant tensor:
#      x y z
#    x 2.318230 0.000000 -0.108410 
#    y 0.000000 2.261140 0.000000 
#    z -0.108410 0.000000 2.280350 
# 
# From -- ./inp_files/306612.got.cif
#   From: 2010.05.17/outbox.cif.g08.bks.cpg/sg15_154_cif.got.tgz:306612.got - 2010.06.03 18:47:42.
