data_PCOD9283576
_publ_section_title
;
Structure prediction by ZEFSAII (Michael W. Deem and Ramdas Pophale) SiO2 
 PCOD9283576
Probable space group: C 2/C
;
_chemical_formula_sum "Si O2"
_cell_formula_units_Z 44
_cell_length_a 16.665042
_cell_length_b 26.018249
_cell_length_c 13.389389
_cell_angle_alpha 90.000000
_cell_angle_beta 161.596367
_cell_angle_gamma 90.000000
_cell_volume 1832.873443
_symmetry_space_group_name_H-M "C 2/C"
_symmetry_group_IT_number 15
_symmetry_cell_setting 'monoclinic'
loop_
_space_group_symop_operation_xyz
x,y,z
-x,y,1/2-z
-x,-y,-z
x,-y,1/2+z
1/2+x,1/2+y,z
1/2-x,1/2+y,1/2-z
1/2-x,1/2-y,-z
1/2+x,1/2-y,1/2+z
loop_
_atom_site_type_symbol
_atom_site_label
_atom_site_fract_x
_atom_site_fract_y
_atom_site_fract_z
Si Si1 0.500000 0.500000 0.500000
Si Si2 0.719860 0.881241 0.870977
Si Si3 0.717358 0.005603 0.367019
Si Si4 0.901586 0.880151 0.866396
Si Si5 0.857648 0.772677 0.339316
Si Si6 0.000000 0.419016 0.250000
Si Si7 0.500000 0.205231 0.250000
O O1 0.277341 0.502439 0.322010
O O2 0.482953 0.436486 0.481096
O O3 0.742108 0.870636 0.779529
O O4 0.591897 0.834604 0.774476
O O5 0.607552 0.937916 0.759625
O O6 0.000000 0.883750 0.250000
O O7 0.573046 0.958763 0.248053
O O8 0.000000 0.003122 0.750000
O O9 0.727122 0.885786 0.562312
O O10 0.092729 0.832975 0.081914
O O11 0.144339 0.749113 0.664481
O O12 0.727717 0.766213 0.076093
#
# Coordination Sequence:
#
# PCOD9283576 Si02
#       7
#     4   8   8   8   8   4   4
#     4  10  22  42  72 106 148 192 242 320 374 440
#     4  10  21  40  66 110 151 191 240 309 385 453
#     4  10  21  40  63 104 152 196 249 297 375 455
#     4  11  25  46  72 109 151 196 257 311 385 458
#     4  12  28  49  75 110 150 199 257 320 391 464
#     4  12  25  44  70 104 144 216 261 310 368 474
#     4  12  23  42  78 106 146 194 245 320 386 470
#
# _framework density 24.006021
#
# number of rings (size 3 to 8) (size 9 to 14) (size 15 to 20)
#    0.000    1.091    3.636    2.182    0.000    7.273 
#    0.000    0.909    0.000    0.000    0.000    0.000 
#    0.000    0.000    0.000    0.000    0.000    0.000 
#
# Total GULP energy -122595.779540 kJ/mol
# GULP energy per Si atom -5572.535434 kJ/mol
# Density = 2.395138 g / cm^3
# Si number density = 24.006021 Si / 1000 Ang^3
#
#
#
# Elastic Constant Matrix: (Units=GPa)
#
#
# Indices 1 2 3 4 5 6 
#
# 1 96.7474 35.1290 39.6452 -0.0003 8.0486 -0.0007
# 2 35.1290 162.3704 54.4757 -0.0002 22.3113 -0.0003
# 3 39.6452 54.4757 112.8187 0.0001 6.3230 -0.0015
# 4 -0.0003 -0.0002 0.0001 24.8772 -0.0008 1.6487
# 5 8.0486 22.3113 6.3230 -0.0008 31.4915 -0.0007
# 6 -0.0007 -0.0003 -0.0015 1.6487 -0.0007 31.9415
#
#
#
# Elastic Compliance Matrix: (Units=1/GPa)
#
#
# Indices 1 2 3 4 5 6 
#
# 1 0.012424 -0.001239 -0.003680 0.000000 -0.001559 0.000000
# 2 -0.001239 0.008178 -0.003243 0.000000 -0.004826 0.000000
# 3 -0.003680 -0.003243 0.011673 0.000000 0.000894 0.000000
# 4 0.000000 0.000000 0.000000 0.040335 0.000001 -0.002082
# 5 -0.001559 -0.004826 0.000894 0.000001 0.035393 0.000001
# 6 0.000000 0.000000 0.000000 -0.002082 0.000001 0.031415
#
#
# Mechanical properties :
#
#
# Convention : Reuss Voigt Hill
#
# Bulk Modulus (GPa) = 62.69482 70.04847 66.37165
# Shear Modulus (GPa) = 31.04465 33.84115 32.44290
#
# Velocity S-wave (km/s) = 3.60001 3.75866 3.68019
# Velocity P-wave (km/s) = 6.59190 6.93395 6.76508
#
# Compressibility (1/GPa) = 0.01595028
#
# Stress axis : x y z
#
# Youngs Moduli (GPa) = 80.49058 122.27920 85.66939
#
# Poissons Ratio (x) = 0.15151 0.31528
# Poissons Ratio (y) = 0.09973 0.27782
# Poissons Ratio (z) = 0.29622 0.39654
#
# Static dielectric constant tensor:
#      x y z
#    x 1.906400 -0.000010 0.007700 
#    y -0.000010 1.748200 0.000010 
#    z 0.007700 0.000010 2.041400 
# 
# From -- ./inp_files/164453.got.cif
#   From: 2010.05.17/outbox.cif.g08.bks.cpg/sg15_83_cif.got.tgz:164453.got - 2010.06.03 18:47:42.
