data_PCOD9283224
_publ_section_title
;
Structure prediction by ZEFSAII (Michael W. Deem and Ramdas Pophale) SiO2 
 PCOD9283224
Probable space group: C 2/C
;
_chemical_formula_sum "Si O2"
_cell_formula_units_Z 44
_cell_length_a 11.815157
_cell_length_b 7.772362
_cell_length_c 24.352642
_cell_angle_alpha 90.000000
_cell_angle_beta 134.521888
_cell_angle_gamma 90.000000
_cell_volume 1594.474416
_symmetry_space_group_name_H-M "C 2/C"
_symmetry_group_IT_number 15
_symmetry_cell_setting 'monoclinic'
loop_
_space_group_symop_operation_xyz
x,y,z
-x,y,1/2-z
-x,-y,-z
x,-y,1/2+z
1/2+x,1/2+y,z
1/2-x,1/2+y,1/2-z
1/2-x,1/2-y,-z
1/2+x,1/2-y,1/2+z
loop_
_atom_site_type_symbol
_atom_site_label
_atom_site_fract_x
_atom_site_fract_y
_atom_site_fract_z
Si Si1 0.416162 0.793257 0.149629
Si Si2 0.000000 0.403167 0.750000
Si Si3 0.437475 0.579893 0.055426
Si Si4 0.682825 0.979194 0.622742
Si Si5 0.900417 0.744043 0.990310
Si Si6 0.279323 0.390041 0.771008
O O1 0.404010 0.977163 0.173562
O O2 0.384924 0.740624 0.075908
O O3 0.305456 0.659497 0.142480
O O4 0.600062 0.739736 0.218089
O O5 0.868150 0.318781 0.743805
O O6 0.478612 0.662787 0.011189
O O7 0.597831 0.522895 0.143674
O O8 0.345889 0.400850 0.011460
O O9 0.506409 0.900147 0.556255
O O10 0.711058 0.996943 0.696783
O O11 0.707185 0.141224 0.590131
#
# Coordination Sequence:
#
# PCOD9283224 Si02
#       6
#     8   4   8   8   8   8
#     4  10  21  39  69  95 128 178 220 281 328 397
#     4  12  20  42  70  96 138 166 226 290 336 390
#     4   9  21  41  60  96 133 174 230 267 336 404
#     4  11  21  40  66  99 135 176 227 279 338 399
#     4  10  22  38  63  94 139 177 222 276 339 408
#     4  10  23  39  68  98 122 178 227 275 328 405
#
# _framework density 27.595300000000002
#
# number of rings (size 3 to 8) (size 9 to 14) (size 15 to 20)
#    1.091    0.727    1.818    2.182    0.000    1.455 
#    0.000   10.909    0.000    0.000    0.000    0.000 
#    0.000    0.000    0.000    0.000    0.000    0.000 
#
# Total GULP energy -122830.333675 kJ/mol
# GULP energy per Si atom -5583.196985 kJ/mol
# Density = 2.753249 g / cm^3
# Si number density = 27.595300 Si / 1000 Ang^3
#
#
#
# Elastic Constant Matrix: (Units=GPa)
#
#
# Indices 1 2 3 4 5 6 
#
# 1 99.8261 2.9842 33.0215 0.0000 3.0237 0.0000
# 2 2.9842 72.7900 58.8042 0.0000 -14.7827 0.0000
# 3 33.0215 58.8042 163.4476 0.0000 -23.1377 0.0000
# 4 0.0000 0.0000 0.0000 24.3952 0.0000 3.6562
# 5 3.0237 -14.7827 -23.1377 0.0000 28.7787 0.0000
# 6 0.0000 0.0000 0.0000 3.6562 0.0000 33.9763
#
#
#
# Elastic Compliance Matrix: (Units=1/GPa)
#
#
# Indices 1 2 3 4 5 6 
#
# 1 0.011128 0.001546 -0.003224 0.000000 -0.002967 0.000000
# 2 0.001546 0.020216 -0.006927 0.000000 0.004653 0.000000
# 3 -0.003224 -0.006927 0.009937 0.000000 0.004770 0.000000
# 4 0.000000 0.000000 0.000000 0.041664 0.000000 -0.004483
# 5 -0.002967 0.004653 0.004770 0.000000 0.041284 0.000000
# 6 0.000000 0.000000 0.000000 -0.004483 0.000000 0.029915
#
#
# Mechanical properties :
#
#
# Convention : Reuss Voigt Hill
#
# Bulk Modulus (GPa) = 41.54577 58.40928 49.97753
# Shear Modulus (GPa) = 27.87434 33.51364 30.69399
#
# Velocity S-wave (km/s) = 3.18167 3.48870 3.33872
# Velocity P-wave (km/s) = 5.34654 6.11886 5.74569
#
# Compressibility (1/GPa) = 0.02406984
#
# Stress axis : x y z
#
# Youngs Moduli (GPa) = 89.86584 49.46696 100.63511
#
# Poissons Ratio (x) = -0.07648 0.32449
# Poissons Ratio (y) = -0.13894 0.69707
# Poissons Ratio (z) = 0.28977 0.34265
#
# Static dielectric constant tensor:
#      x y z
#    x 2.120110 0.000000 0.019170 
#    y 0.000000 2.228840 0.000000 
#    z 0.019170 0.000000 2.177960 
# 
# From -- ./inp_files/295328.got.cif
#   From: 2010.05.17/outbox.cif.g08.bks.cpg/sg15_148_cif.got.tgz:295328.got - 2010.06.03 18:47:42.
