data_PCOD9283974
_publ_section_title
;
Structure prediction by ZEFSAII (Michael W. Deem and Ramdas Pophale) SiO2 
 PCOD9283974
Probable space group: C 2/C
;
_chemical_formula_sum "Si O2"
_cell_formula_units_Z 56
_cell_length_a 12.300405
_cell_length_b 7.773944
_cell_length_c 24.057156
_cell_angle_alpha 90.000000
_cell_angle_beta 73.954177
_cell_angle_gamma 90.000000
_cell_volume 2210.787468
_symmetry_space_group_name_H-M "C 2/C"
_symmetry_group_IT_number 15
_symmetry_cell_setting 'monoclinic'
loop_
_space_group_symop_operation_xyz
x,y,z
-x,y,1/2-z
-x,-y,-z
x,-y,1/2+z
1/2+x,1/2+y,z
1/2-x,1/2+y,1/2-z
1/2-x,1/2-y,-z
1/2+x,1/2-y,1/2+z
loop_
_atom_site_type_symbol
_atom_site_label
_atom_site_fract_x
_atom_site_fract_y
_atom_site_fract_z
Si Si1 0.166812 0.315916 0.261989
Si Si2 0.277970 0.375558 0.366263
Si Si3 0.589868 0.432285 0.443173
Si Si4 0.552236 0.042280 0.419910
Si Si5 0.886504 0.333292 0.706336
Si Si6 0.011337 0.025375 0.331781
Si Si7 0.692528 0.107511 0.048282
O O1 0.243274 0.335409 0.307837
O O2 0.130145 0.507548 0.248701
O O3 0.259296 0.229650 0.208962
O O4 0.067375 0.185275 0.292220
O O5 0.159646 0.420662 0.413841
O O6 0.375873 0.519440 0.354832
O O7 0.331251 0.217967 0.392599
O O8 0.500000 0.500000 0.500000
O O9 0.576952 0.230631 0.438718
O O10 0.563373 0.516020 0.386663
O O11 0.712398 0.474459 0.448539
O O12 0.557549 0.064865 0.352470
O O13 0.422297 0.012957 0.454823
O O14 0.952089 0.154389 0.702732
O O15 0.750000 0.250000 0.000000
#
# Coordination Sequence:
#
# PCOD9283974 Si02
#       7
#     8   8   8   8   8   8   8
#     4  11  22  40  70  97 136 179 226 272 340 398
#     4  11  24  43  66  97 132 176 217 281 333 398
#     4  11  21  42  67  93 130 175 217 278 337 391
#     4  10  24  42  62  96 133 163 228 272 326 410
#     4  10  21  40  65  97 137 176 220 279 327 403
#     4  11  22  43  67  97 141 175 228 278 336 405
#     4  12  22  42  68  92 129 172 219 276 336 397
#
# _framework density 25.33034
#
# number of rings (size 3 to 8) (size 9 to 14) (size 15 to 20)
#    0.000    1.143    7.143    0.000    0.000    3.429 
#    0.000    1.429    6.286    0.000    0.000    0.000 
#    0.000    0.000    0.000    0.000    0.000    0.000 
#
# Total GULP energy -156613.740594 kJ/mol
# GULP energy per Si atom -5593.347878 kJ/mol
# Density = 2.527269 g / cm^3
# Si number density = 25.330340 Si / 1000 Ang^3
#
#
#
# Elastic Constant Matrix: (Units=GPa)
#
#
# Indices 1 2 3 4 5 6 
#
# 1 185.8517 37.8000 36.3689 0.0000 -29.9442 0.0000
# 2 37.8000 75.8239 3.6073 0.0000 -5.8356 0.0000
# 3 36.3689 3.6073 71.9461 0.0000 -16.5894 0.0000
# 4 0.0000 0.0000 0.0000 33.2960 0.0000 -11.6918
# 5 -29.9442 -5.8356 -16.5894 0.0000 43.2655 0.0000
# 6 0.0000 0.0000 0.0000 -11.6918 0.0000 43.7110
#
#
#
# Elastic Compliance Matrix: (Units=1/GPa)
#
#
# Indices 1 2 3 4 5 6 
#
# 1 0.007095 -0.003144 -0.002626 0.000000 0.003479 0.000000
# 2 -0.003144 0.014725 0.000886 0.000000 0.000150 0.000000
# 3 -0.002626 0.000886 0.016225 0.000000 0.004523 0.000000
# 4 0.000000 0.000000 0.000000 0.033147 0.000000 0.008866
# 5 0.003479 0.000150 0.004523 0.000000 0.027275 0.000000
# 6 0.000000 0.000000 0.000000 0.008866 0.000000 0.025249
#
#
# Mechanical properties :
#
#
# Convention : Reuss Voigt Hill
#
# Bulk Modulus (GPa) = 35.36666 54.35268 44.85967
# Shear Modulus (GPa) = 34.98656 41.11088 38.04872
#
# Velocity S-wave (km/s) = 3.72050 4.03301 3.87990
# Velocity P-wave (km/s) = 5.69637 6.57198 6.14978
#
# Compressibility (1/GPa) = 0.02827522
#
# Stress axis : x y z
#
# Youngs Moduli (GPa) = 140.95178 67.91054 61.63139
#
# Poissons Ratio (x) = 0.21352 0.16187
# Poissons Ratio (y) = 0.44317 -0.05458
# Poissons Ratio (z) = 0.37021 -0.06014
#
# Static dielectric constant tensor:
#      x y z
#    x 2.036810 0.000000 -0.010710 
#    y 0.000000 1.980580 0.000000 
#    z -0.010710 0.000000 2.093800 
# 
# From -- ./inp_files/309937.got.cif
#   From: 2010.05.17/outbox.cif.g08.bks.cpg/sg15_155_cif.got.tgz:309937.got - 2010.06.03 18:47:42.
