data_PCOD9283553
_publ_section_title
;
Structure prediction by ZEFSAII (Michael W. Deem and Ramdas Pophale) SiO2 
 PCOD9283553
Probable space group: C 2/C
;
_chemical_formula_sum "Si O2"
_cell_formula_units_Z 36
_cell_length_a 20.366607
_cell_length_b 8.675428
_cell_length_c 17.692926
_cell_angle_alpha 90.000000
_cell_angle_beta 154.930995
_cell_angle_gamma 90.000000
_cell_volume 1324.577687
_symmetry_space_group_name_H-M "C 2/C"
_symmetry_group_IT_number 15
_symmetry_cell_setting 'monoclinic'
loop_
_space_group_symop_operation_xyz
x,y,z
-x,y,1/2-z
-x,-y,-z
x,-y,1/2+z
1/2+x,1/2+y,z
1/2-x,1/2+y,1/2-z
1/2-x,1/2-y,-z
1/2+x,1/2-y,1/2+z
loop_
_atom_site_type_symbol
_atom_site_label
_atom_site_fract_x
_atom_site_fract_y
_atom_site_fract_z
Si Si1 0.759005 0.190582 0.222118
Si Si2 0.410714 0.768268 0.540406
Si Si3 0.947676 0.421252 0.342791
Si Si4 0.000000 0.225302 0.250000
Si Si5 0.148760 0.978489 0.318944
O O1 0.830239 0.219406 0.378051
O O2 0.788729 0.351019 0.208123
O O3 0.840307 0.064574 0.251732
O O4 0.582969 0.133301 0.041588
O O5 0.289902 0.859432 0.466968
O O6 0.493083 0.619939 0.658692
O O7 0.540267 0.899390 0.660107
O O8 0.007521 0.333348 0.330300
O O9 0.140538 0.109821 0.373915
#
# Coordination Sequence:
#
# PCOD9283553 Si02
#       5
#     8   8   8   4   8
#     4  10  21  40  62  94 126 160 203 258 321 364
#     4  11  22  39  64  97 120 160 212 257 313 363
#     4  10  23  39  66  89 125 168 205 258 302 377
#     4  10  24  46  60  90 128 170 212 246 318 362
#     4  10  24  40  64  91 131 166 200 261 305 373
#
# _framework density 27.178474000000001
#
# number of rings (size 3 to 8) (size 9 to 14) (size 15 to 20)
#    0.000    1.778    0.000    2.667    0.000   20.444 
#    0.000    0.000    0.000    0.000    0.000    0.000 
#    0.000    0.000    0.000    0.000    0.000    0.000 
#
# Total GULP energy -100941.447221 kJ/mol
# GULP energy per Si atom -5607.858179 kJ/mol
# Density = 2.711661 g / cm^3
# Si number density = 27.178474 Si / 1000 Ang^3
#
#
#
# Elastic Constant Matrix: (Units=GPa)
#
#
# Indices 1 2 3 4 5 6 
#
# 1 131.8959 45.1047 21.6907 0.0000 -7.9120 0.0000
# 2 45.1047 150.1676 47.6157 0.0000 -1.8650 0.0000
# 3 21.6907 47.6157 34.3584 0.0000 -4.0560 0.0000
# 4 0.0000 0.0000 0.0000 57.0052 0.0000 12.9084
# 5 -7.9120 -1.8650 -4.0560 0.0000 23.8381 0.0000
# 6 0.0000 0.0000 0.0000 12.9084 0.0000 42.1238
#
#
#
# Elastic Compliance Matrix: (Units=1/GPa)
#
#
# Indices 1 2 3 4 5 6 
#
# 1 0.008776 -0.001670 -0.002957 0.000000 0.002279 0.000000
# 2 -0.001670 0.012283 -0.016246 0.000000 -0.002358 0.000000
# 3 -0.002957 -0.016246 0.054312 0.000000 0.006989 0.000000
# 4 0.000000 0.000000 0.000000 0.018850 0.000000 -0.005776
# 5 0.002279 -0.002358 0.006989 0.000000 0.043711 0.000000
# 6 0.000000 0.000000 0.000000 -0.005776 0.000000 0.025510
#
#
# Mechanical properties :
#
#
# Convention : Reuss Voigt Hill
#
# Bulk Modulus (GPa) = 29.74058 60.58266 45.16162
# Shear Modulus (GPa) = 23.10581 38.06082 30.58332
#
# Velocity S-wave (km/s) = 2.91890 3.74626 3.35815
# Velocity P-wave (km/s) = 4.72508 6.40716 5.62930
#
# Compressibility (1/GPa) = 0.03362409
#
# Stress axis : x y z
#
# Youngs Moduli (GPa) = 113.94958 81.41289 18.41223
#
# Poissons Ratio (x) = 0.13597 0.05444
# Poissons Ratio (y) = 0.19031 0.29913
# Poissons Ratio (z) = 0.33691 1.32267
#
# Static dielectric constant tensor:
#      x y z
#    x 2.137120 0.000000 0.012860 
#    y 0.000000 2.063370 0.000000 
#    z 0.012860 0.000000 2.149940 
# 
# From -- ./inp_files/60123.got.cif
#   From: 2010.05.17/outbox.cif.g08.bks.cpg/sg15_31_cif.got.tgz:60123.got - 2010.06.03 18:47:42.
