data_PCOD9283739
_publ_section_title
;
Structure prediction by ZEFSAII (Michael W. Deem and Ramdas Pophale) SiO2 
 PCOD9283739
Probable space group: C 2/C
;
_chemical_formula_sum "Si O2"
_cell_formula_units_Z 56
_cell_length_a 11.239062
_cell_length_b 9.651576
_cell_length_c 21.444527
_cell_angle_alpha 90.000000
_cell_angle_beta 83.705074
_cell_angle_gamma 90.000000
_cell_volume 2312.162443
_symmetry_space_group_name_H-M "C 2/C"
_symmetry_group_IT_number 15
_symmetry_cell_setting 'monoclinic'
loop_
_space_group_symop_operation_xyz
x,y,z
-x,y,1/2-z
-x,-y,-z
x,-y,1/2+z
1/2+x,1/2+y,z
1/2-x,1/2+y,1/2-z
1/2-x,1/2-y,-z
1/2+x,1/2-y,1/2+z
loop_
_atom_site_type_symbol
_atom_site_label
_atom_site_fract_x
_atom_site_fract_y
_atom_site_fract_z
Si Si1 0.751567 0.462049 0.611958
Si Si2 0.422548 0.049860 0.812740
Si Si3 0.517722 0.308552 0.617899
Si Si4 0.621834 0.180508 0.492077
Si Si5 0.528196 0.226940 0.118608
Si Si6 0.269643 0.240625 0.658794
Si Si7 0.191270 0.204019 0.801806
O O1 0.609111 0.437123 0.609084
O O2 0.829610 0.459571 0.543771
O O3 0.803656 0.578861 0.653850
O O4 0.777801 0.319295 0.647846
O O5 0.500000 0.002208 0.750000
O O6 0.452900 0.934578 0.862565
O O7 0.461096 0.208063 0.824519
O O8 0.280322 0.074250 0.808511
O O9 0.550029 0.205386 0.559184
O O10 0.377288 0.336837 0.630567
O O11 0.750000 0.250000 0.500000
O O12 0.536749 0.244248 0.443495
O O13 0.665333 0.270368 0.113639
O O14 0.449627 0.309340 0.175119
O O15 0.218502 0.261287 0.731023
#
# Coordination Sequence:
#
# PCOD9283739 Si02
#       7
#     8   8   8   8   8   8   8
#     4   9  22  40  62  90 122 167 213 260 310 387
#     4  11  21  39  65  91 124 165 213 264 314 388
#     4  10  21  40  64  90 118 167 213 260 317 375
#     4   9  20  44  67  85 122 167 218 265 317 377
#     4  11  25  40  60  94 129 169 212 263 325 386
#     4  12  23  37  60  94 131 162 208 266 322 386
#     4  10  22  40  60  89 130 169 206 260 323 381
#
# _framework density 24.219750999999999
#
# number of rings (size 3 to 8) (size 9 to 14) (size 15 to 20)
#    0.000    1.714    1.429    3.857    2.000    4.000 
#    2.571    2.857    0.000    0.000    0.000    0.000 
#    0.000    0.000    0.000    0.000    0.000    0.000 
#
# Total GULP energy -155999.299628 kJ/mol
# GULP energy per Si atom -5571.403558 kJ/mol
# Density = 2.416463 g / cm^3
# Si number density = 24.219751 Si / 1000 Ang^3
#
#
#
# Elastic Constant Matrix: (Units=GPa)
#
#
# Indices 1 2 3 4 5 6 
#
# 1 136.1477 3.7760 18.9497 0.0000 -10.1758 0.0000
# 2 3.7760 39.7434 -11.8236 0.0000 -1.8293 0.0000
# 3 18.9497 -11.8236 80.8523 0.0000 -3.9375 0.0000
# 4 0.0000 0.0000 0.0000 14.6492 0.0000 5.2611
# 5 -10.1758 -1.8293 -3.9375 0.0000 40.3319 0.0000
# 6 0.0000 0.0000 0.0000 5.2611 0.0000 -1.5319
#
#
#
# Elastic Compliance Matrix: (Units=1/GPa)
#
#
# Indices 1 2 3 4 5 6 
#
# 1 0.007775 -0.001230 -0.001918 0.000000 0.001718 0.000000
# 2 -0.001230 0.026601 0.004242 0.000000 0.001310 0.000000
# 3 -0.001918 0.004242 0.013488 0.000000 0.001025 0.000000
# 4 0.000000 0.000000 0.000000 0.030564 0.000000 0.104971
# 5 0.001718 0.001310 0.001025 0.000000 0.025387 0.000000
# 6 0.000000 0.000000 0.000000 0.104971 0.000000 -0.292282
#
#
# Mechanical properties :
#
#
# Convention : Reuss Voigt Hill
#
# Bulk Modulus (GPa) = 19.97989 30.94973 25.46481
# Shear Modulus (GPa) = -28.74048 27.07928 -0.83060
#
# Velocity S-wave (km/s) = -3.44852 3.34738 -0.58625
# Velocity P-wave (km/s) = 2.75483 5.26748 3.17469
#
# Compressibility (1/GPa) = 0.05005032
#
# Stress axis : x y z
#
# Youngs Moduli (GPa) = 128.62518 37.59305 74.13930
#
# Poissons Ratio (x) = 0.04625 0.14223
# Poissons Ratio (y) = 0.15824 -0.31451
# Poissons Ratio (z) = 0.24675 -0.15948
#
# Static dielectric constant tensor:
#      x y z
#    x 2.175980 0.000000 -0.012070 
#    y 0.000000 2.072070 0.000000 
#    z -0.012070 0.000000 1.894720 
# 
# From -- ./inp_files/236957.got.cif
#   From: 2010.05.17/outbox.cif.g08.bks.cpg/sg15_119_cif.got.tgz:236957.got - 2010.06.03 18:47:42.
