data_PCOD9283640
_publ_section_title
;
Structure prediction by ZEFSAII (Michael W. Deem and Ramdas Pophale) SiO2 
 PCOD9283640
Probable space group: C 2/C
;
_chemical_formula_sum "Si O2"
_cell_formula_units_Z 48
_cell_length_a 23.756883
_cell_length_b 7.361076
_cell_length_c 10.952093
_cell_angle_alpha 90.000000
_cell_angle_beta 85.230151
_cell_angle_gamma 90.000000
_cell_volume 1908.627623
_symmetry_space_group_name_H-M "C 2/C"
_symmetry_group_IT_number 15
_symmetry_cell_setting 'monoclinic'
loop_
_space_group_symop_operation_xyz
x,y,z
-x,y,1/2-z
-x,-y,-z
x,-y,1/2+z
1/2+x,1/2+y,z
1/2-x,1/2+y,1/2-z
1/2-x,1/2-y,-z
1/2+x,1/2-y,1/2+z
loop_
_atom_site_type_symbol
_atom_site_label
_atom_site_fract_x
_atom_site_fract_y
_atom_site_fract_z
Si Si1 0.472063 0.227964 0.128177
Si Si2 0.651402 0.942599 0.046584
Si Si3 0.343058 0.318100 0.141205
Si Si4 0.063662 0.670033 0.928118
Si Si5 0.652609 0.645915 0.230909
Si Si6 0.742575 0.382950 0.889487
O O1 0.500000 0.288134 0.250000
O O2 0.410457 0.307879 0.116074
O O3 0.461104 0.008326 0.135584
O O4 0.512713 0.266680 0.006559
O O5 0.636051 0.754263 0.114474
O O6 0.696162 0.030682 0.128655
O O7 0.674884 0.877863 0.909732
O O8 0.601599 0.080202 0.028621
O O9 0.340348 0.426634 0.271882
O O10 0.303274 0.459325 0.075099
O O11 0.104760 0.790011 0.837117
O O12 0.713797 0.704665 0.275919
O O13 0.750000 0.250000 0.000000
#
# Coordination Sequence:
#
# PCOD9283640 Si02
#       6
#     8   8   8   8   8   8
#     4  10  21  40  63  91 126 176 216 269 331 389
#     4  11  20  42  66  91 136 169 215 279 328 407
#     4   9  23  40  60  95 127 168 219 267 325 387
#     4  10  21  40  65  91 129 169 222 272 327 394
#     4  10  23  39  61  98 123 171 215 261 332 394
#     4  10  21  43  64  94 131 170 214 278 331 400
#
# _framework density 25.148962000000001
#
# number of rings (size 3 to 8) (size 9 to 14) (size 15 to 20)
#    1.000    1.000    1.667    1.500    0.000    3.333 
#    9.000    4.167    0.000    0.000    0.000    0.000 
#    0.000    0.000    0.000    0.000    0.000    0.000 
#
# Total GULP energy -133776.200155 kJ/mol
# GULP energy per Si atom -5574.008340 kJ/mol
# Density = 2.509172 g / cm^3
# Si number density = 25.148962 Si / 1000 Ang^3
#
#
#
# Elastic Constant Matrix: (Units=GPa)
#
#
# Indices 1 2 3 4 5 6 
#
# 1 77.4810 -10.3364 30.4502 0.0000 30.9878 0.0000
# 2 -10.3364 47.1191 5.5148 0.0000 2.8992 0.0000
# 3 30.4502 5.5148 72.2960 0.0000 13.3871 0.0000
# 4 0.0000 0.0000 0.0000 39.1209 0.0000 3.7164
# 5 30.9878 2.8992 13.3871 0.0000 31.5357 0.0000
# 6 0.0000 0.0000 0.0000 3.7164 0.0000 47.4474
#
#
#
# Elastic Compliance Matrix: (Units=1/GPa)
#
#
# Indices 1 2 3 4 5 6 
#
# 1 0.026211 0.008046 -0.007323 0.000000 -0.023387 0.000000
# 2 0.008046 0.023940 -0.003629 0.000000 -0.008567 0.000000
# 3 -0.007323 -0.003629 0.017147 0.000000 0.000250 0.000000
# 4 0.000000 0.000000 0.000000 0.025753 0.000000 -0.002017
# 5 -0.023387 -0.008567 0.000250 0.000000 0.055372 0.000000
# 6 0.000000 0.000000 0.000000 -0.002017 0.000000 0.021234
#
#
# Mechanical properties :
#
#
# Convention : Reuss Voigt Hill
#
# Bulk Modulus (GPa) = 16.26393 27.57258 21.91826
# Shear Modulus (GPa) = 25.51497 35.03861 30.27679
#
# Velocity S-wave (km/s) = 3.18866 3.73667 3.47349
# Velocity P-wave (km/s) = 4.47636 5.44099 4.98208
#
# Compressibility (1/GPa) = 0.06148576
#
# Stress axis : x y z
#
# Youngs Moduli (GPa) = 38.15193 41.77184 58.31997
#
# Poissons Ratio (x) = -0.33609 0.42708
# Poissons Ratio (y) = -0.30696 0.21162
# Poissons Ratio (z) = 0.27939 0.15158
#
# Static dielectric constant tensor:
#      x y z
#    x 1.961590 0.000000 -0.054340 
#    y 0.000000 2.056840 0.000000 
#    z -0.054340 0.000000 2.113460 
# 
# From -- ./inp_files/116386.got.cif
#   From: 2010.05.17/outbox.cif.g08.bks.cpg/sg15_59_cif.got.tgz:116386.got - 2010.06.03 18:47:42.
