data_PCOD9283383
_publ_section_title
;
Structure prediction by ZEFSAII (Michael W. Deem and Ramdas Pophale) SiO2 
 PCOD9283383
Probable space group: C 2/C
;
_chemical_formula_sum "Si O2"
_cell_formula_units_Z 60
_cell_length_a 12.163030
_cell_length_b 27.139467
_cell_length_c 8.434789
_cell_angle_alpha 90.000000
_cell_angle_beta 93.813272
_cell_angle_gamma 90.000000
_cell_volume 2778.144047
_symmetry_space_group_name_H-M "C 2/C"
_symmetry_group_IT_number 15
_symmetry_cell_setting 'monoclinic'
loop_
_space_group_symop_operation_xyz
x,y,z
-x,y,1/2-z
-x,-y,-z
x,-y,1/2+z
1/2+x,1/2+y,z
1/2-x,1/2+y,1/2-z
1/2-x,1/2-y,-z
1/2+x,1/2-y,1/2+z
loop_
_atom_site_type_symbol
_atom_site_label
_atom_site_fract_x
_atom_site_fract_y
_atom_site_fract_z
Si Si1 0.417411 0.935456 0.431408
Si Si2 0.626148 0.258602 0.703578
Si Si3 0.357721 0.986605 0.130586
Si Si4 0.273770 0.849309 0.272834
Si Si5 0.344596 0.348966 0.570815
Si Si6 0.632912 0.452308 0.957972
Si Si7 0.436490 0.318231 0.088204
Si Si8 0.000000 0.968530 0.250000
O O1 0.358950 0.976738 0.316614
O O2 0.545958 0.948461 0.419138
O O3 0.366238 0.884843 0.360307
O O4 0.386379 0.956429 0.599660
O O5 0.500000 0.251366 0.750000
O O6 0.687850 0.207166 0.718969
O O7 0.322421 0.302852 0.684158
O O8 0.620331 0.276715 0.522752
O O9 0.243812 0.970302 0.048770
O O10 0.159966 0.854363 0.361272
O O11 0.239440 0.855806 0.085093
O O12 0.350917 0.403228 0.644684
O O13 0.466740 0.338962 0.512960
O O14 0.585269 0.495153 0.844985
O O15 0.555397 0.441224 0.105587
O O16 0.500000 0.299303 0.250000
#
# Coordination Sequence:
#
# PCOD9283383 Si02
#       8
#     8   8   8   8   8   8   8   4
#     4  10  22  39  63  90 117 167 206 251 306 368
#     4  10  22  39  61  91 120 154 206 259 305 382
#     4  10  21  40  61  84 126 157 209 249 308 359
#     4  11  21  38  64  88 119 162 208 253 309 372
#     4  10  22  37  60  91 123 163 199 253 318 373
#     4  11  22  40  60  91 127 161 203 258 306 366
#     4   9  21  39  61  86 123 160 197 250 321 377
#     4  10  26  36  60  94 126 158 216 252 300 372
#
# _framework density 21.597152000000001
#
# number of rings (size 3 to 8) (size 9 to 14) (size 15 to 20)
#    0.000    1.867    1.333    1.600    7.467    1.067 
#    2.400    0.000    5.867    0.000    0.000    0.000 
#    0.000    0.000    0.000    0.000    0.000    0.000 
#
# Total GULP energy -167307.078187 kJ/mol
# GULP energy per Si atom -5576.902606 kJ/mol
# Density = 2.154800 g / cm^3
# Si number density = 21.597152 Si / 1000 Ang^3
#
#
#
# Elastic Constant Matrix: (Units=GPa)
#
#
# Indices 1 2 3 4 5 6 
#
# 1 65.4481 23.0723 23.3205 0.0000 18.8457 0.0000
# 2 23.0723 109.1343 27.1315 0.0000 6.7887 0.0000
# 3 23.3205 27.1315 57.5801 0.0000 12.5815 0.0000
# 4 0.0000 0.0000 0.0000 34.1891 0.0000 7.4719
# 5 18.8457 6.7887 12.5815 0.0000 36.3857 0.0000
# 6 0.0000 0.0000 0.0000 7.4719 0.0000 18.8936
#
#
#
# Elastic Compliance Matrix: (Units=1/GPa)
#
#
# Indices 1 2 3 4 5 6 
#
# 1 0.020428 -0.002488 -0.005290 0.000000 -0.008287 0.000000
# 2 -0.002488 0.010684 -0.004189 0.000000 0.000744 0.000000
# 3 -0.005290 -0.004189 0.022407 0.000000 -0.004226 0.000000
# 4 0.000000 0.000000 0.000000 0.032016 0.000000 -0.012662
# 5 -0.008287 0.000744 -0.004226 0.000000 0.033098 0.000000
# 6 0.000000 0.000000 0.000000 -0.012662 0.000000 0.057935
#
#
# Mechanical properties :
#
#
# Convention : Reuss Voigt Hill
#
# Bulk Modulus (GPa) = 33.80215 42.13456 37.96835
# Shear Modulus (GPa) = 23.76823 28.46956 26.11890
#
# Velocity S-wave (km/s) = 3.32102 3.63465 3.48137
# Velocity P-wave (km/s) = 5.51278 6.09639 5.81191
#
# Compressibility (1/GPa) = 0.02958392
#
# Stress axis : x y z
#
# Youngs Moduli (GPa) = 48.95340 93.59609 44.62859
#
# Poissons Ratio (x) = 0.23286 0.23610
# Poissons Ratio (y) = 0.12179 0.18696
# Poissons Ratio (z) = 0.25898 0.39209
#
# Static dielectric constant tensor:
#      x y z
#    x 1.822980 0.000000 -0.065500 
#    y 0.000000 1.793220 0.000000 
#    z -0.065500 0.000000 2.180720 
# 
# From -- ./inp_files/35737.got.cif
#   From: 2010.05.17/outbox.cif.g08.bks.cpg/sg15_18_cif.got.tgz:35737.got - 2010.06.03 18:47:42.
