data_PCOD9283754
_publ_section_title
;
Structure prediction by ZEFSAII (Michael W. Deem and Ramdas Pophale) SiO2 
 PCOD9283754
Probable space group: C 2/C
;
_chemical_formula_sum "Si O2"
_cell_formula_units_Z 60
_cell_length_a 18.575325
_cell_length_b 20.658467
_cell_length_c 8.984035
_cell_angle_alpha 90.000000
_cell_angle_beta 60.978788
_cell_angle_gamma 90.000000
_cell_volume 3014.644063
_symmetry_space_group_name_H-M "C 2/C"
_symmetry_group_IT_number 15
_symmetry_cell_setting 'monoclinic'
loop_
_space_group_symop_operation_xyz
x,y,z
-x,y,1/2-z
-x,-y,-z
x,-y,1/2+z
1/2+x,1/2+y,z
1/2-x,1/2+y,1/2-z
1/2-x,1/2-y,-z
1/2+x,1/2-y,1/2+z
loop_
_atom_site_type_symbol
_atom_site_label
_atom_site_fract_x
_atom_site_fract_y
_atom_site_fract_z
Si Si1 0.107085 0.315721 0.859571
Si Si2 0.701003 0.182949 0.574139
Si Si3 0.335526 0.288229 0.398158
Si Si4 0.500000 0.319348 0.750000
Si Si5 0.147498 0.911662 0.530786
Si Si6 0.930399 0.723702 0.569567
Si Si7 0.794013 0.999403 0.281993
Si Si8 0.767341 0.590539 0.420638
O O1 0.128436 0.241235 0.790467
O O2 0.154838 0.364205 0.699457
O O3 0.143561 0.326894 0.987268
O O4 0.008820 0.320526 0.953507
O O5 0.750000 0.250000 0.500000
O O6 0.768794 0.127993 0.523315
O O7 0.645662 0.187076 0.777342
O O8 0.250000 0.250000 0.500000
O O9 0.397657 0.263334 0.461835
O O10 0.307683 0.361501 0.455805
O O11 0.571275 0.364226 0.614201
O O12 0.461151 0.273797 0.663573
O O13 0.146033 0.963903 0.664658
O O14 0.157144 0.948489 0.366960
O O15 0.755297 0.050564 0.205171
O O16 0.727541 0.961005 0.450303
#
# Coordination Sequence:
#
# PCOD9283754 Si02
#       8
#     8   8   8   4   8   8   8   8
#     4  11  22  39  60  99 132 164 206 272 333 383
#     4  12  21  38  67  93 129 171 209 262 330 399
#     4  10  23  38  64  95 128 166 208 267 335 391
#     4  12  24  38  68  98 136 166 212 274 328 394
#     4  11  24  42  66  94 129 174 224 266 317 391
#     4  12  23  39  61 104 135 164 208 264 349 393
#     4  10  23  42  65  89 122 183 228 259 305 385
#     4  10  21  40  64  91 124 168 225 262 314 387
#
# _framework density 19.902847999999999
#
# number of rings (size 3 to 8) (size 9 to 14) (size 15 to 20)
#    0.000    1.067    4.000    2.800    7.467    0.533 
#    0.000    0.000    0.000    4.800    0.000    0.000 
#    0.000    0.000    0.000    0.000    0.000    0.000 
#
# Total GULP energy -167625.997638 kJ/mol
# GULP energy per Si atom -5587.533255 kJ/mol
# Density = 1.985755 g / cm^3
# Si number density = 19.902848 Si / 1000 Ang^3
#
#
#
# Elastic Constant Matrix: (Units=GPa)
#
#
# Indices 1 2 3 4 5 6 
#
# 1 59.8165 13.2392 2.2970 0.0000 -3.8348 0.0000
# 2 13.2392 68.2475 24.8124 0.0000 9.4255 0.0000
# 3 2.2970 24.8124 73.6017 0.0000 -1.5381 0.0000
# 4 0.0000 0.0000 0.0000 43.4445 0.0000 -0.2558
# 5 -3.8348 9.4255 -1.5381 0.0000 32.9235 0.0000
# 6 0.0000 0.0000 0.0000 -0.2558 0.0000 15.0625
#
#
#
# Elastic Compliance Matrix: (Units=1/GPa)
#
#
# Indices 1 2 3 4 5 6 
#
# 1 0.017840 -0.004269 0.000952 0.000000 0.003345 0.000000
# 2 -0.004269 0.018603 -0.006266 0.000000 -0.006116 0.000000
# 3 0.000952 -0.006266 0.015725 0.000000 0.002639 0.000000
# 4 0.000000 0.000000 0.000000 0.023020 0.000000 0.000391
# 5 0.003345 -0.006116 0.002639 0.000000 0.032637 0.000000
# 6 0.000000 0.000000 0.000000 0.000391 0.000000 0.066397
#
#
# Mechanical properties :
#
#
# Convention : Reuss Voigt Hill
#
# Bulk Modulus (GPa) = 30.30046 31.37366 30.83706
# Shear Modulus (GPa) = 24.46312 29.04057 26.75185
#
# Velocity S-wave (km/s) = 3.50969 3.82398 3.67020
# Velocity P-wave (km/s) = 5.62860 5.94094 5.78688
#
# Compressibility (1/GPa) = 0.03300280
#
# Stress axis : x y z
#
# Youngs Moduli (GPa) = 56.05225 53.75338 63.59495
#
# Poissons Ratio (x) = 0.22947 -0.06056
# Poissons Ratio (y) = 0.23929 0.39850
# Poissons Ratio (z) = -0.05338 0.33683
#
# Static dielectric constant tensor:
#      x y z
#    x 1.686370 0.000000 -0.003600 
#    y 0.000000 1.738250 0.000000 
#    z -0.003600 0.000000 1.756180 
# 
# From -- ./inp_files/50631.got.cif
#   From: 2010.05.17/outbox.cif.g08.bks.cpg/sg15_26_cif.got.tgz:50631.got - 2010.06.03 18:47:42.
