data_PCOD9283054
_publ_section_title
;
Structure prediction by ZEFSAII (Michael W. Deem and Ramdas Pophale) SiO2 
 PCOD9283054
Probable space group: C 2/C
;
_chemical_formula_sum "Si O2"
_cell_formula_units_Z 64
_cell_length_a 13.750987
_cell_length_b 19.117750
_cell_length_c 14.582471
_cell_angle_alpha 90.000000
_cell_angle_beta 47.987555
_cell_angle_gamma 90.000000
_cell_volume 2848.329804
_symmetry_space_group_name_H-M "C 2/C"
_symmetry_group_IT_number 15
_symmetry_cell_setting 'monoclinic'
loop_
_space_group_symop_operation_xyz
x,y,z
-x,y,1/2-z
-x,-y,-z
x,-y,1/2+z
1/2+x,1/2+y,z
1/2-x,1/2+y,1/2-z
1/2-x,1/2-y,-z
1/2+x,1/2-y,1/2+z
loop_
_atom_site_type_symbol
_atom_site_label
_atom_site_fract_x
_atom_site_fract_y
_atom_site_fract_z
Si Si1 0.345869 0.177889 0.566887
Si Si2 0.935338 0.854964 0.673782
Si Si3 0.614507 0.198333 0.752802
Si Si4 0.766003 0.834276 0.999067
Si Si5 0.349566 0.576693 0.864119
Si Si6 0.185867 0.838951 0.929066
Si Si7 0.551855 0.094552 0.315558
Si Si8 0.791301 0.443390 0.610912
O O1 0.409301 0.176602 0.627940
O O2 0.208688 0.137383 0.663801
O O3 0.318665 0.256437 0.551677
O O4 0.438813 0.141285 0.433429
O O5 0.865994 0.782272 0.748848
O O6 0.931635 0.852329 0.567078
O O7 0.845812 0.919141 0.757675
O O8 0.083719 0.854721 0.611884
O O9 0.500000 0.190402 0.750000
O O10 0.728617 0.156363 0.629409
O O11 0.750000 0.750000 0.000000
O O12 0.683653 0.882312 0.980625
O O13 0.500000 0.558329 0.750000
O O14 0.246447 0.513770 0.917418
O O15 0.335418 0.611520 0.972002
O O16 0.322579 0.858931 0.793389
O O17 0.500000 0.063721 0.250000
O O18 0.606968 0.050017 0.368426
#
# Coordination Sequence:
#
# PCOD9283054 Si02
#       8
#     8   8   8   8   8   8   8   8
#     4  11  26  43  73 108 142 187 242 307 351 423
#     4  10  21  39  66  97 141 178 231 285 363 413
#     4  11  21  37  62 106 136 171 232 294 353 407
#     4  12  21  37  70 100 138 187 233 292 347 422
#     4  12  27  47  70 103 145 186 237 296 367 435
#     4  10  25  43  73 107 137 188 241 295 361 422
#     4  11  24  48  76 101 140 190 244 295 368 423
#     4  11  25  47  69 101 146 192 229 296 363 436
#
# _framework density 22.469308999999999
#
# number of rings (size 3 to 8) (size 9 to 14) (size 15 to 20)
#    0.000    1.000    3.750    2.250    5.250    0.500 
#    4.500    3.750    0.000    0.000    0.000    0.000 
#    0.000    0.000    0.000    0.000    0.000    0.000 
#
# Total GULP energy -178544.751858 kJ/mol
# GULP energy per Si atom -5579.523496 kJ/mol
# Density = 2.241817 g / cm^3
# Si number density = 22.469309 Si / 1000 Ang^3
#
#
#
# Elastic Constant Matrix: (Units=GPa)
#
#
# Indices 1 2 3 4 5 6 
#
# 1 144.5648 42.5111 33.2708 0.0000 36.8652 0.0000
# 2 42.5111 78.3003 23.1023 0.0000 22.5957 0.0000
# 3 33.2708 23.1023 97.2777 0.0000 19.1574 0.0001
# 4 0.0000 0.0000 0.0000 23.2655 0.0000 10.6198
# 5 36.8652 22.5957 19.1574 0.0000 47.9684 0.0000
# 6 0.0000 0.0000 0.0001 10.6198 0.0000 33.5568
#
#
#
# Elastic Compliance Matrix: (Units=1/GPa)
#
#
# Indices 1 2 3 4 5 6 
#
# 1 0.009538 -0.003240 -0.001465 0.000000 -0.005219 0.000000
# 2 -0.003240 0.016381 -0.001902 0.000000 -0.004466 0.000000
# 3 -0.001465 -0.001902 0.011759 0.000000 -0.002674 0.000000
# 4 0.000000 0.000000 0.000000 0.050239 0.000000 -0.015899
# 5 -0.005219 -0.004466 -0.002674 0.000000 0.028030 0.000000
# 6 0.000000 0.000000 0.000000 -0.015899 0.000000 0.034832
#
#
# Mechanical properties :
#
#
# Convention : Reuss Voigt Hill
#
# Bulk Modulus (GPa) = 40.87785 57.54566 49.21176
# Shear Modulus (GPa) = 29.04459 35.70870 32.37665
#
# Velocity S-wave (km/s) = 3.59922 3.99083 3.80007
# Velocity P-wave (km/s) = 5.95859 6.84850 6.41899
#
# Compressibility (1/GPa) = 0.02446312
#
# Stress axis : x y z
#
# Youngs Moduli (GPa) = 104.84197 61.04750 85.03850
#
# Poissons Ratio (x) = 0.19780 0.12457
# Poissons Ratio (y) = 0.33971 0.16178
# Poissons Ratio (z) = 0.15358 0.11614
#
# Static dielectric constant tensor:
#      x y z
#    x 1.919080 0.000000 0.027370 
#    y 0.000000 1.817860 0.000000 
#    z 0.027370 0.000000 1.918970 
# 
# From -- ./inp_files/155477.got.cif
#   From: 2010.05.17/outbox.cif.g08.bks.cpg/sg15_78_cif.got.tgz:155477.got - 2010.06.03 18:47:42.
