data_PCOD9283491
_publ_section_title
;
Structure prediction by ZEFSAII (Michael W. Deem and Ramdas Pophale) SiO2 
 PCOD9283491
Probable space group: C 2/C
;
_chemical_formula_sum "Si O2"
_cell_formula_units_Z 32
_cell_length_a 19.130212
_cell_length_b 13.079986
_cell_length_c 8.430449
_cell_angle_alpha 90.000000
_cell_angle_beta 140.083465
_cell_angle_gamma 90.000000
_cell_volume 1353.599485
_symmetry_space_group_name_H-M "C 2/C"
_symmetry_group_IT_number 15
_symmetry_cell_setting 'monoclinic'
loop_
_space_group_symop_operation_xyz
x,y,z
-x,y,1/2-z
-x,-y,-z
x,-y,1/2+z
1/2+x,1/2+y,z
1/2-x,1/2+y,1/2-z
1/2-x,1/2-y,-z
1/2+x,1/2-y,1/2+z
loop_
_atom_site_type_symbol
_atom_site_label
_atom_site_fract_x
_atom_site_fract_y
_atom_site_fract_z
Si Si1 0.126586 0.981943 0.188816
Si Si2 0.919403 0.554075 0.735640
Si Si3 0.368599 0.340195 0.012319
Si Si4 0.708342 0.880044 0.192192
O O1 0.167354 0.913617 0.406148
O O2 0.165429 0.911819 0.107673
O O3 0.160964 0.095281 0.195093
O O4 0.000000 0.000000 0.000000
O O5 0.854107 0.466937 0.522897
O O6 0.842130 0.616448 0.719916
O O7 0.000000 0.609290 0.750000
O O8 0.000000 0.500000 0.000000
O O9 0.500000 0.326951 0.250000
O O10 0.314107 0.230735 0.917643
#
# Coordination Sequence:
#
# PCOD9283491 Si02
#       4
#     8   8   8   8
#     4  10  22  39  60  91 129 165 210 259 307 376
#     4   9  19  35  58  93 127 154 204 269 316 368
#     4  10  21  40  62  87 124 171 213 260 317 371
#     4  11  20  38  64  89 122 170 209 252 317 379
#
# _framework density 23.640671000000001
#
# number of rings (size 3 to 8) (size 9 to 14) (size 15 to 20)
#    0.000    2.000    0.000    4.500    0.000    0.000 
#    0.000   18.750    0.000    0.000    0.000    0.000 
#    0.000    0.000    0.000    0.000    0.000    0.000 
#
# Total GULP energy -89228.040044 kJ/mol
# GULP energy per Si atom -5576.752503 kJ/mol
# Density = 2.358686 g / cm^3
# Si number density = 23.640671 Si / 1000 Ang^3
#
#
#
# Elastic Constant Matrix: (Units=GPa)
#
#
# Indices 1 2 3 4 5 6 
#
# 1 193.8797 50.8588 34.3455 0.0000 -10.6878 0.0000
# 2 50.8588 144.2711 32.4960 0.0000 0.6684 0.0000
# 3 34.3455 32.4960 73.9511 0.0000 -1.0774 0.0000
# 4 0.0000 0.0000 0.0000 37.9892 0.0000 -2.1164
# 5 -10.6878 0.6684 -1.0774 0.0000 32.9700 0.0000
# 6 0.0000 0.0000 0.0000 -2.1164 0.0000 36.8597
#
#
#
# Elastic Compliance Matrix: (Units=1/GPa)
#
#
# Indices 1 2 3 4 5 6 
#
# 1 0.006070 -0.001687 -0.002050 0.000000 0.001935 0.000000
# 2 -0.001687 0.008164 -0.002816 0.000000 -0.000804 0.000000
# 3 -0.002050 -0.002816 0.015710 0.000000 -0.000094 0.000000
# 4 0.000000 0.000000 0.000000 0.026408 0.000000 0.001516
# 5 0.001935 -0.000804 -0.000094 0.000000 0.030971 0.000000
# 6 0.000000 0.000000 0.000000 0.001516 0.000000 0.027217
#
#
# Mechanical properties :
#
#
# Convention : Reuss Voigt Hill
#
# Bulk Modulus (GPa) = 59.38368 71.94473 65.66421
# Shear Modulus (GPa) = 37.52107 41.19055 39.35581
#
# Velocity S-wave (km/s) = 3.98822 4.17869 4.08456
# Velocity P-wave (km/s) = 6.81041 7.33352 7.07680
#
# Compressibility (1/GPa) = 0.01683964
#
# Stress axis : x y z
#
# Youngs Moduli (GPa) = 164.73994 122.48762 63.65263
#
# Poissons Ratio (x) = 0.20666 0.13046
# Poissons Ratio (y) = 0.27795 0.17922
# Poissons Ratio (z) = 0.33765 0.34488
#
# Static dielectric constant tensor:
#      x y z
#    x 2.039580 0.000000 0.002710 
#    y 0.000000 1.799100 0.000000 
#    z 0.002710 0.000000 2.022390 
# 
# From -- ./inp_files/37153.got.cif
#   From: 2010.05.17/outbox.cif.g08.bks.cpg/sg15_19_cif.got.tgz:37153.got - 2010.06.03 18:47:42.
