data_PCOD9283542
_publ_section_title
;
Structure prediction by ZEFSAII (Michael W. Deem and Ramdas Pophale) SiO2 
 PCOD9283542
Probable space group: C 2/C
;
_chemical_formula_sum "Si O2"
_cell_formula_units_Z 44
_cell_length_a 7.052374
_cell_length_b 16.729860
_cell_length_c 20.377840
_cell_angle_alpha 90.000000
_cell_angle_beta 121.748786
_cell_angle_gamma 90.000000
_cell_volume 2044.515168
_symmetry_space_group_name_H-M "C 2/C"
_symmetry_group_IT_number 15
_symmetry_cell_setting 'monoclinic'
loop_
_space_group_symop_operation_xyz
x,y,z
-x,y,1/2-z
-x,-y,-z
x,-y,1/2+z
1/2+x,1/2+y,z
1/2-x,1/2+y,1/2-z
1/2-x,1/2-y,-z
1/2+x,1/2-y,1/2+z
loop_
_atom_site_type_symbol
_atom_site_label
_atom_site_fract_x
_atom_site_fract_y
_atom_site_fract_z
Si Si1 0.984468 0.607212 0.360541
Si Si2 0.580607 0.475405 0.619150
Si Si3 0.361287 0.723326 0.664288
Si Si4 0.182519 0.876421 0.473810
Si Si5 0.500000 0.463313 0.750000
Si Si6 0.955117 0.195791 0.056545
O O1 0.167538 0.551574 0.355214
O O2 0.011718 0.696823 0.337514
O O3 0.075522 0.603858 0.451920
O O4 0.731039 0.582853 0.305723
O O5 0.475348 0.546367 0.557900
O O6 0.557479 0.502607 0.690392
O O7 0.439086 0.393872 0.581335
O O8 0.500000 0.689783 0.750000
O O9 0.323000 0.663116 0.597855
O O10 0.115204 0.756632 0.635759
O O11 0.083596 0.817180 0.510755
O O12 0.750000 0.250000 0.000000
#
# Coordination Sequence:
#
# PCOD9283542 Si02
#       6
#     8   8   8   8   4   8
#     4  10  21  44  65  91 123 175 216 260 314 392
#     4  10  23  42  63  96 130 167 210 268 328 380
#     4  10  21  40  62  92 133 161 210 271 322 375
#     4  10  22  42  66  90 134 164 208 276 325 377
#     4  12  24  36  72  92 128 170 224 252 324 390
#     4  10  21  41  65  93 120 172 220 258 319 385
#
# _framework density 21.520994000000002
#
# number of rings (size 3 to 8) (size 9 to 14) (size 15 to 20)
#    0.000    2.182    0.000    7.091    6.364    0.727 
#    3.273    1.818    0.000    0.000    0.000    0.000 
#    0.000    0.000    0.000    0.000    0.000    0.000 
#
# Total GULP energy -122692.665237 kJ/mol
# GULP energy per Si atom -5576.939329 kJ/mol
# Density = 2.147201 g / cm^3
# Si number density = 21.520994 Si / 1000 Ang^3
#
#
#
# Elastic Constant Matrix: (Units=GPa)
#
#
# Indices 1 2 3 4 5 6 
#
# 1 77.6942 28.3740 51.8485 0.0000 23.9956 0.0000
# 2 28.3740 71.0234 36.1784 0.0000 13.0965 0.0000
# 3 51.8485 36.1784 173.1272 0.0000 10.7696 0.0000
# 4 0.0000 0.0000 0.0000 30.6352 0.0000 -0.1719
# 5 23.9956 13.0965 10.7696 0.0000 49.9248 0.0000
# 6 0.0000 0.0000 0.0000 -0.1719 0.0000 7.5209
#
#
#
# Elastic Compliance Matrix: (Units=1/GPa)
#
#
# Indices 1 2 3 4 5 6 
#
# 1 0.019741 -0.004191 -0.004576 0.000000 -0.007402 0.000000
# 2 -0.004191 0.017263 -0.002226 0.000000 -0.002034 0.000000
# 3 -0.004576 -0.002226 0.007540 0.000000 0.001157 0.000000
# 4 0.000000 0.000000 0.000000 0.032646 0.000000 0.000746
# 5 -0.007402 -0.002034 0.001157 0.000000 0.023872 0.000000
# 6 0.000000 0.000000 0.000000 0.000746 0.000000 0.132980
#
#
# Mechanical properties :
#
#
# Convention : Reuss Voigt Hill
#
# Bulk Modulus (GPa) = 44.32885 61.62739 52.97812
# Shear Modulus (GPa) = 18.97193 31.31243 25.14218
#
# Velocity S-wave (km/s) = 2.97232 3.81855 3.42169
# Velocity P-wave (km/s) = 5.69405 6.93829 6.34673
#
# Compressibility (1/GPa) = 0.02255867
#
# Stress axis : x y z
#
# Youngs Moduli (GPa) = 50.65537 57.92730 132.63161
#
# Poissons Ratio (x) = 0.24277 0.60691
# Poissons Ratio (y) = 0.21229 0.29522
# Poissons Ratio (z) = 0.23180 0.12894
#
# Static dielectric constant tensor:
#      x y z
#    x 1.826700 0.000000 -0.021550 
#    y 0.000000 1.781620 0.000000 
#    z -0.021550 0.000000 1.834170 
# 
# From -- ./inp_files/264504.got.cif
#   From: 2010.05.17/outbox.cif.g08.bks.cpg/sg15_133_cif.got.tgz:264504.got - 2010.06.03 18:47:42.
