data_PCOD9283497
_publ_section_title
;
Structure prediction by ZEFSAII (Michael W. Deem and Ramdas Pophale) SiO2 
 PCOD9283497
Probable space group: C 2/C
;
_chemical_formula_sum "Si O2"
_cell_formula_units_Z 40
_cell_length_a 12.390130
_cell_length_b 16.778912
_cell_length_c 14.319248
_cell_angle_alpha 90.000000
_cell_angle_beta 148.737121
_cell_angle_gamma 90.000000
_cell_volume 1544.892572
_symmetry_space_group_name_H-M "C 2/C"
_symmetry_group_IT_number 15
_symmetry_cell_setting 'monoclinic'
loop_
_space_group_symop_operation_xyz
x,y,z
-x,y,1/2-z
-x,-y,-z
x,-y,1/2+z
1/2+x,1/2+y,z
1/2-x,1/2+y,1/2-z
1/2-x,1/2-y,-z
1/2+x,1/2-y,1/2+z
loop_
_atom_site_type_symbol
_atom_site_label
_atom_site_fract_x
_atom_site_fract_y
_atom_site_fract_z
Si Si1 0.672340 0.808931 0.073347
Si Si2 0.500000 0.180943 0.250000
Si Si3 0.859610 0.308673 0.005838
Si Si4 0.500000 0.581933 0.250000
Si Si5 0.522320 0.021986 0.663693
Si Si6 0.335846 0.529501 0.749631
O O1 0.500238 0.782163 0.022614
O O2 0.828219 0.875460 0.232609
O O3 0.805128 0.734955 0.137944
O O4 0.570258 0.848886 0.905305
O O5 0.994858 0.381259 0.149174
O O6 0.750000 0.250000 0.000000
O O7 0.660405 0.357135 0.822016
O O8 0.466068 0.519381 0.139873
O O9 0.500000 0.988188 0.750000
O O10 0.743820 0.005192 0.780577
O O11 0.344662 0.998366 0.457670
#
# Coordination Sequence:
#
# PCOD9283497 Si02
#       6
#     8   4   8   4   8   8
#     4  10  22  41  65  89 129 166 211 265 314 380
#     4  10  23  40  60  97 118 168 218 252 324 379
#     4  10  23  37  61  92 125 166 200 259 317 381
#     4  10  21  40  62  87 130 160 208 258 314 367
#     4   9  19  36  57  84 115 156 207 247 308 362
#     4   9  19  38  58  84 116 163 203 255 301 366
#
# _framework density 25.891766000000001
#
# number of rings (size 3 to 8) (size 9 to 14) (size 15 to 20)
#    0.000    2.400    0.000    1.800    5.600    1.600 
#    0.000    4.000    0.000    0.000    0.000    0.000 
#    0.000    0.000    0.000    0.000    0.000    0.000 
#
# Total GULP energy -111395.003220 kJ/mol
# GULP energy per Si atom -5569.750161 kJ/mol
# Density = 2.583284 g / cm^3
# Si number density = 25.891766 Si / 1000 Ang^3
#
#
#
# Elastic Constant Matrix: (Units=GPa)
#
#
# Indices 1 2 3 4 5 6 
#
# 1 224.9881 25.1000 33.7273 -0.0050 4.9584 -0.0052
# 2 25.1000 42.2230 -0.8062 -0.0020 0.4910 -0.0048
# 3 33.7273 -0.8062 44.6526 0.0036 -8.8345 -0.0046
# 4 -0.0050 -0.0020 0.0036 10.9698 0.0030 -3.7610
# 5 4.9584 0.4910 -8.8345 0.0030 48.2755 -0.0021
# 6 -0.0052 -0.0048 -0.0046 -3.7610 -0.0021 31.6884
#
#
#
# Elastic Compliance Matrix: (Units=1/GPa)
#
#
# Indices 1 2 3 4 5 6 
#
# 1 0.005523 -0.003354 -0.004501 0.000004 -0.001357 0.000000
# 2 -0.003354 0.025729 0.003127 0.000003 0.000655 0.000004
# 3 -0.004501 0.003127 0.026911 -0.000011 0.005355 0.000003
# 4 0.000004 0.000003 -0.000011 0.095026 -0.000008 0.011278
# 5 -0.001357 0.000655 0.005355 -0.000008 0.021827 0.000001
# 6 0.000000 0.000004 0.000003 0.011278 0.000001 0.032896
#
#
# Mechanical properties :
#
#
# Convention : Reuss Voigt Hill
#
# Bulk Modulus (GPa) = 20.53014 47.54510 34.03762
# Shear Modulus (GPa) = 21.40370 35.10957 28.25664
#
# Velocity S-wave (km/s) = 2.87829 3.68640 3.30712
# Velocity P-wave (km/s) = 4.35804 6.04337 5.26853
#
# Compressibility (1/GPa) = 0.04870887
#
# Stress axis : x y z
#
# Youngs Moduli (GPa) = 181.04606 38.86597 37.15971
#
# Poissons Ratio (x) = 0.13034 0.16726
# Poissons Ratio (y) = 0.60716 -0.11621
# Poissons Ratio (z) = 0.81489 -0.12154
#
# Static dielectric constant tensor:
#      x y z
#    x 2.167110 0.000000 0.109860 
#    y 0.000000 2.156380 -0.000010 
#    z 0.109860 -0.000010 2.200600 
# 
# From -- ./inp_files/145888.got.cif
#   From: 2010.05.17/outbox.cif.g08.bks.cpg/sg15_73_cif.got.tgz:145888.got - 2010.06.03 18:47:42.
