data_PCOD9283537
_publ_section_title
;
Structure prediction by ZEFSAII (Michael W. Deem and Ramdas Pophale) SiO2 
 PCOD9283537
Probable space group: C 2/C
;
_chemical_formula_sum "Si O2"
_cell_formula_units_Z 44
_cell_length_a 10.384064
_cell_length_b 12.473413
_cell_length_c 23.101328
_cell_angle_alpha 90.000000
_cell_angle_beta 50.205863
_cell_angle_gamma 90.000000
_cell_volume 2299.048574
_symmetry_space_group_name_H-M "C 2/C"
_symmetry_group_IT_number 15
_symmetry_cell_setting 'monoclinic'
loop_
_space_group_symop_operation_xyz
x,y,z
-x,y,1/2-z
-x,-y,-z
x,-y,1/2+z
1/2+x,1/2+y,z
1/2-x,1/2+y,1/2-z
1/2-x,1/2-y,-z
1/2+x,1/2-y,1/2+z
loop_
_atom_site_type_symbol
_atom_site_label
_atom_site_fract_x
_atom_site_fract_y
_atom_site_fract_z
Si Si1 0.887756 0.589640 0.560639
Si Si2 0.393541 0.300477 0.499644
Si Si3 0.997382 0.070387 0.866771
Si Si4 0.286205 0.601521 0.148314
Si Si5 0.209394 0.668385 0.791454
Si Si6 0.000000 0.422658 0.250000
O O1 0.964248 0.700740 0.514882
O O2 0.695528 0.577078 0.595481
O O3 0.870220 0.597092 0.634386
O O4 0.000000 0.500000 0.500000
O O5 0.250000 0.250000 0.500000
O O6 0.514985 0.361596 0.421167
O O7 0.317215 0.374527 0.571830
O O8 0.117391 0.120295 0.783444
O O9 0.053590 0.951125 0.866574
O O10 0.254049 0.714119 0.191226
O O11 0.147163 0.508103 0.192360
O O12 0.076901 0.653913 0.777449
#
# Coordination Sequence:
#
# PCOD9283537 Si02
#       6
#     8   8   8   8   8   4
#     4  10  22  39  62  93 124 164 210 263 318 386
#     4   9  20  35  61  87 117 162 209 248 314 390
#     4  10  21  40  62  92 123 166 207 264 320 380
#     4  10  22  40  63  89 125 168 204 270 319 383
#     4  10  23  42  61  95 124 164 219 258 319 386
#     4  10  24  40  66  90 130 166 210 270 322 380
#
# _framework density 19.138351
#
# number of rings (size 3 to 8) (size 9 to 14) (size 15 to 20)
#    0.000    2.182    0.000    1.091   12.727    1.455 
#   13.091    1.818    0.000    0.000    0.000    0.000 
#    0.000    0.000    0.000    0.000    0.000    0.000 
#
# Total GULP energy -122561.437279 kJ/mol
# GULP energy per Si atom -5570.974422 kJ/mol
# Density = 1.909479 g / cm^3
# Si number density = 19.138351 Si / 1000 Ang^3
#
#
#
# Elastic Constant Matrix: (Units=GPa)
#
#
# Indices 1 2 3 4 5 6 
#
# 1 75.6379 3.8058 36.6652 0.0000 6.8487 0.0000
# 2 3.8058 53.9534 51.1565 0.0000 3.3213 0.0000
# 3 36.6652 51.1565 134.8914 0.0000 23.3256 0.0000
# 4 0.0000 0.0000 0.0000 24.8213 0.0000 -3.5179
# 5 6.8487 3.3213 23.3256 0.0000 25.3321 0.0000
# 6 0.0000 0.0000 0.0000 -3.5179 0.0000 14.0332
#
#
#
# Elastic Compliance Matrix: (Units=1/GPa)
#
#
# Indices 1 2 3 4 5 6 
#
# 1 0.015959 0.004803 -0.006309 0.000000 0.000865 0.000000
# 2 0.004803 0.031639 -0.014704 0.000000 0.008092 0.000000
# 3 -0.006309 -0.014704 0.016742 0.000000 -0.011782 0.000000
# 4 0.000000 0.000000 0.000000 0.041772 0.000000 0.010472
# 5 0.000865 0.008092 -0.011782 0.000000 0.049030 0.000000
# 6 0.000000 0.000000 0.000000 0.010472 0.000000 0.073884
#
#
# Mechanical properties :
#
#
# Convention : Reuss Voigt Hill
#
# Bulk Modulus (GPa) = 31.32770 49.74864 40.53817
# Shear Modulus (GPa) = 18.37655 24.36102 21.36879
#
# Velocity S-wave (km/s) = 3.10206 3.57163 3.34510
# Velocity P-wave (km/s) = 5.40694 6.56196 6.01225
#
# Compressibility (1/GPa) = 0.03192063
#
# Stress axis : x y z
#
# Youngs Moduli (GPa) = 62.66006 31.60660 59.73052
#
# Poissons Ratio (x) = -0.15180 0.37683
# Poissons Ratio (y) = -0.30095 0.87826
# Poissons Ratio (z) = 0.39532 0.46473
#
# Static dielectric constant tensor:
#      x y z
#    x 1.690040 0.000000 0.009490 
#    y 0.000000 1.788370 0.000000 
#    z 0.009490 0.000000 1.681990 
# 
# From -- ./inp_files/142217.got.cif
#   From: 2010.05.17/outbox.cif.g08.bks.cpg/sg15_72_cif.got.tgz:142217.got - 2010.06.03 18:47:42.
