data_PCOD9283159
_publ_section_title
;
Structure prediction by ZEFSAII (Michael W. Deem and Ramdas Pophale) SiO2 
 PCOD9283159
Probable space group: C 2/C
;
_chemical_formula_sum "Si O2"
_cell_formula_units_Z 48
_cell_length_a 11.780076
_cell_length_b 17.176393
_cell_length_c 20.776094
_cell_angle_alpha 90.000000
_cell_angle_beta 36.311446
_cell_angle_gamma 90.000000
_cell_volume 2489.392750
_symmetry_space_group_name_H-M "C 2/C"
_symmetry_group_IT_number 15
_symmetry_cell_setting 'monoclinic'
loop_
_space_group_symop_operation_xyz
x,y,z
-x,y,1/2-z
-x,-y,-z
x,-y,1/2+z
1/2+x,1/2+y,z
1/2-x,1/2+y,1/2-z
1/2-x,1/2-y,-z
1/2+x,1/2-y,1/2+z
loop_
_atom_site_type_symbol
_atom_site_label
_atom_site_fract_x
_atom_site_fract_y
_atom_site_fract_z
Si Si1 0.000000 0.972339 0.750000
Si Si2 0.023954 0.265474 0.614801
Si Si3 0.186464 0.027153 0.451198
Si Si4 0.498272 0.956254 0.108858
Si Si5 0.587088 0.593696 0.823517
Si Si6 0.596042 0.890812 0.929960
Si Si7 0.000000 0.372811 0.750000
O O1 0.815626 0.917313 0.838542
O O2 0.973676 0.032504 0.703668
O O3 0.250000 0.250000 0.500000
O O4 0.917202 0.186069 0.684295
O O5 0.941419 0.309693 0.589169
O O6 0.994704 0.322519 0.688278
O O7 0.318413 0.072051 0.340978
O O8 0.087301 0.084288 0.547217
O O9 0.316980 0.964148 0.429501
O O10 0.000000 0.000000 0.500000
O O11 0.306613 0.933459 0.235682
O O12 0.485195 0.041331 0.080370
O O13 0.508570 0.899388 0.041728
#
# Coordination Sequence:
#
# PCOD9283159 Si02
#       7
#     4   8   8   8   8   8   4
#     4  10  21  40  70  95 122 178 222 282 317 404
#     4  12  25  41  62  99 136 172 212 279 343 401
#     4  12  24  42  64  93 131 172 223 271 329 400
#     4  10  21  40  65  97 121 175 219 277 318 402
#     4  11  23  39  65  96 131 165 221 274 337 392
#     4  10  21  39  68  93 131 159 230 271 330 388
#     4  12  25  40  62  93 134 172 212 268 341 398
#
# _framework density 19.281811000000001
#
# number of rings (size 3 to 8) (size 9 to 14) (size 15 to 20)
#    0.000    1.000    5.000    1.500    9.333    0.000 
#    0.000    1.667    0.000    3.000    0.000    0.000 
#    0.000    0.000    0.000    0.000    0.000    0.000 
#
# Total GULP energy -133789.038773 kJ/mol
# GULP energy per Si atom -5574.543282 kJ/mol
# Density = 1.923792 g / cm^3
# Si number density = 19.281811 Si / 1000 Ang^3
#
#
#
# Elastic Constant Matrix: (Units=GPa)
#
#
# Indices 1 2 3 4 5 6 
#
# 1 105.4128 47.6317 41.8092 0.0000 -28.3712 -0.0004
# 2 47.6317 88.7019 47.5184 -0.0013 -11.0981 0.0004
# 3 41.8092 47.5184 131.8568 -0.0022 -15.0936 -0.0003
# 4 0.0000 -0.0013 -0.0022 86.5365 0.0007 -68.3652
# 5 -28.3712 -11.0981 -15.0936 0.0007 29.4211 0.0004
# 6 -0.0004 0.0004 -0.0003 -68.3652 0.0004 102.8467
#
#
#
# Elastic Compliance Matrix: (Units=1/GPa)
#
#
# Indices 1 2 3 4 5 6 
#
# 1 0.016356 -0.006444 -0.001420 0.000000 0.012613 0.000000
# 2 -0.006444 0.016739 -0.004226 0.000000 -0.002068 0.000000
# 3 -0.001420 -0.004226 0.009793 0.000000 0.002061 0.000000
# 4 0.000000 0.000000 0.000000 0.024336 -0.000001 0.016177
# 5 0.012613 -0.002068 0.002061 -0.000001 0.046429 -0.000001
# 6 0.000000 0.000000 0.000000 0.016177 -0.000001 0.020476
#
#
# Mechanical properties :
#
#
# Convention : Reuss Voigt Hill
#
# Bulk Modulus (GPa) = 53.45206 66.65444 60.05325
# Shear Modulus (GPa) = 30.38651 56.36167 43.37409
#
# Velocity S-wave (km/s) = 3.97409 5.41239 4.74802
# Velocity P-wave (km/s) = 6.98853 8.58500 7.82757
#
# Compressibility (1/GPa) = 0.01870835
#
# Stress axis : x y z
#
# Youngs Moduli (GPa) = 61.13790 59.73960 102.11334
#
# Poissons Ratio (x) = 0.38498 0.14501
# Poissons Ratio (y) = 0.39399 0.43151
# Poissons Ratio (z) = 0.08682 0.25245
#
# Static dielectric constant tensor:
#      x y z
#    x 1.614320 0.000010 -0.006880 
#    y 0.000010 2.196220 0.000000 
#    z -0.006880 0.000000 1.686030 
# 
# From -- ./inp_files/239473.got.cif
#   From: 2010.05.17/outbox.cif.g08.bks.cpg/sg15_120_cif.got.tgz:239473.got - 2010.06.03 18:47:42.
