data_PCOD9283190
_publ_section_title
;
Structure prediction by ZEFSAII (Michael W. Deem and Ramdas Pophale) SiO2 
 PCOD9283190
Probable space group: C 2/C
;
_chemical_formula_sum "Si O2"
_cell_formula_units_Z 60
_cell_length_a 15.793380
_cell_length_b 30.889031
_cell_length_c 6.717158
_cell_angle_alpha 90.000000
_cell_angle_beta 118.311795
_cell_angle_gamma 90.000000
_cell_volume 2884.927956
_symmetry_space_group_name_H-M "C 2/C"
_symmetry_group_IT_number 15
_symmetry_cell_setting 'monoclinic'
loop_
_space_group_symop_operation_xyz
x,y,z
-x,y,1/2-z
-x,-y,-z
x,-y,1/2+z
1/2+x,1/2+y,z
1/2-x,1/2+y,1/2-z
1/2-x,1/2-y,-z
1/2+x,1/2-y,1/2+z
loop_
_atom_site_type_symbol
_atom_site_label
_atom_site_fract_x
_atom_site_fract_y
_atom_site_fract_z
Si Si1 0.500000 0.877311 0.750000
Si Si2 0.136944 0.962677 0.062799
Si Si3 0.742302 0.673261 0.518544
Si Si4 0.660987 0.726965 0.787589
Si Si5 0.847974 0.855899 0.966417
Si Si6 0.431608 0.194761 0.486429
Si Si7 0.204880 0.601016 0.601422
Si Si8 0.076813 0.055214 0.053176
O O1 0.533478 0.845309 0.608802
O O2 0.407652 0.904435 0.572030
O O3 0.229021 0.940089 0.265487
O O4 0.036255 0.955708 0.066881
O O5 0.138357 0.014634 0.038344
O O6 0.116307 0.942121 0.823908
O O7 0.701949 0.708933 0.624226
O O8 0.662612 0.658299 0.273161
O O9 0.827656 0.687896 0.469663
O O10 0.781196 0.634463 0.700287
O O11 0.580162 0.762565 0.659454
O O12 0.750000 0.750000 0.000000
O O13 0.625469 0.685463 0.872153
O O14 0.750627 0.874356 0.961696
O O15 0.910696 0.898753 0.033182
O O16 0.500000 0.201398 0.750000
#
# Coordination Sequence:
#
# PCOD9283190 Si02
#       8
#     4   8   8   8   8   8   8   8
#     4  12  24  40  66  98 130 176 240 268 326 400
#     4  10  21  39  68  99 134 171 219 270 329 409
#     4  11  21  41  65  90 128 174 214 282 332 391
#     4  11  24  40  64  91 126 170 222 275 337 394
#     4  11  22  39  68  93 132 171 213 276 339 398
#     4  12  24  40  65  91 128 179 233 280 324 400
#     4  11  22  39  64 100 130 172 228 274 329 396
#     4  10  21  40  67 100 132 173 216 264 336 413
#
# _framework density 20.797747999999999
#
# number of rings (size 3 to 8) (size 9 to 14) (size 15 to 20)
#    0.000    1.067    5.333    2.000    0.000    1.600 
#    0.000    6.667    0.000    3.200    0.000    0.000 
#    0.000    0.133    0.000    0.000    0.000    0.000 
#
# Total GULP energy -167626.567558 kJ/mol
# GULP energy per Si atom -5587.552252 kJ/mol
# Density = 2.075041 g / cm^3
# Si number density = 20.797748 Si / 1000 Ang^3
#
#
#
# Elastic Constant Matrix: (Units=GPa)
#
#
# Indices 1 2 3 4 5 6 
#
# 1 78.8075 54.2887 44.3787 0.0000 12.2703 0.0000
# 2 54.2887 137.8113 55.2507 0.0000 11.9210 0.0000
# 3 44.3787 55.2507 131.5438 0.0000 12.2917 0.0000
# 4 0.0000 0.0000 0.0000 31.6661 0.0000 -2.3584
# 5 12.2703 11.9210 12.2917 0.0000 40.3453 0.0000
# 6 0.0000 0.0000 0.0000 -2.3584 0.0000 28.1796
#
#
#
# Elastic Compliance Matrix: (Units=1/GPa)
#
#
# Indices 1 2 3 4 5 6 
#
# 1 0.019300 -0.005827 -0.003784 0.000000 -0.002995 0.000000
# 2 -0.005827 0.010574 -0.002418 0.000000 -0.000616 0.000000
# 3 -0.003784 -0.002418 0.010005 0.000000 -0.001183 0.000000
# 4 0.000000 0.000000 0.000000 0.031778 0.000000 0.002659
# 5 -0.002995 -0.000616 -0.001183 0.000000 0.026239 0.000000
# 6 0.000000 0.000000 0.000000 0.002659 0.000000 0.035709
#
#
# Mechanical properties :
#
#
# Convention : Reuss Voigt Hill
#
# Bulk Modulus (GPa) = 63.20504 72.88875 68.04689
# Shear Modulus (GPa) = 30.68655 32.98784 31.83720
#
# Velocity S-wave (km/s) = 3.84536 3.98694 3.91679
# Velocity P-wave (km/s) = 7.08322 7.50445 7.29688
#
# Compressibility (1/GPa) = 0.01582152
#
# Stress axis : x y z
#
# Youngs Moduli (GPa) = 51.81217 94.56761 99.95184
#
# Poissons Ratio (x) = 0.55104 0.37822
# Poissons Ratio (y) = 0.30191 0.24169
# Poissons Ratio (z) = 0.19606 0.22867
#
# Static dielectric constant tensor:
#      x y z
#    x 1.781200 0.000000 0.022910 
#    y 0.000000 1.745970 0.000000 
#    z 0.022910 0.000000 1.863770 
# 
# From -- ./inp_files/12198.got.cif
#   From: 2010.05.17/outbox.cif.g08.bks.cpg/sg15_7_cif.got.tgz:12198.got - 2010.06.03 18:47:42.
