data_PCOD9283369
_publ_section_title
;
Structure prediction by ZEFSAII (Michael W. Deem and Ramdas Pophale) SiO2 
 PCOD9283369
Probable space group: C 2/C
;
_chemical_formula_sum "Si O2"
_cell_formula_units_Z 52
_cell_length_a 16.443417
_cell_length_b 9.779117
_cell_length_c 17.252253
_cell_angle_alpha 90.000000
_cell_angle_beta 123.102050
_cell_angle_gamma 90.000000
_cell_volume 2323.943792
_symmetry_space_group_name_H-M "C 2/C"
_symmetry_group_IT_number 15
_symmetry_cell_setting 'monoclinic'
loop_
_space_group_symop_operation_xyz
x,y,z
-x,y,1/2-z
-x,-y,-z
x,-y,1/2+z
1/2+x,1/2+y,z
1/2-x,1/2+y,1/2-z
1/2-x,1/2-y,-z
1/2+x,1/2-y,1/2+z
loop_
_atom_site_type_symbol
_atom_site_label
_atom_site_fract_x
_atom_site_fract_y
_atom_site_fract_z
Si Si1 0.319743 0.066450 0.031407
Si Si2 0.862832 0.249721 0.700883
Si Si3 0.967134 0.454892 0.863079
Si Si4 0.833797 0.322903 0.362534
Si Si5 0.000000 0.994574 0.750000
Si Si6 0.604568 0.537047 0.449718
Si Si7 0.002641 0.804211 0.019442
O O1 0.331471 0.188645 0.100948
O O2 0.423646 0.988657 0.092128
O O3 0.318183 0.116889 0.941624
O O4 0.217867 0.992796 0.995086
O O5 0.933634 0.358578 0.776371
O O6 0.770975 0.235382 0.710443
O O7 0.913079 0.102193 0.723179
O O8 0.884617 0.564956 0.836342
O O9 0.974566 0.346828 0.938356
O O10 0.912821 0.204859 0.413340
O O11 0.047716 0.908940 0.844456
O O12 0.542278 0.398935 0.436763
O O13 0.589618 0.628604 0.518028
#
# Coordination Sequence:
#
# PCOD9283369 Si02
#       7
#     8   8   8   8   4   8   8
#     4  11  20  39  64  92 116 167 210 249 313 364
#     4  12  21  36  66  92 122 157 217 264 299 362
#     4  11  24  40  63  95 126 165 207 264 308 373
#     4  11  23  40  63  88 127 164 204 259 317 369
#     4  12  20  38  62  98 118 152 220 266 300 360
#     4  11  22  36  68  92 122 166 208 264 307 369
#     4  10  21  40  60  93 125 162 204 255 317 375
#
# _framework density 22.375755999999999
#
# number of rings (size 3 to 8) (size 9 to 14) (size 15 to 20)
#    0.000    0.923    6.154    3.231    0.000    2.462 
#    0.000    3.077    6.769    0.000    0.000    0.000 
#    0.000    0.000    0.000    0.000    0.000    0.000 
#
# Total GULP energy -145126.803548 kJ/mol
# GULP energy per Si atom -5581.800136 kJ/mol
# Density = 2.232483 g / cm^3
# Si number density = 22.375756 Si / 1000 Ang^3
#
#
#
# Elastic Constant Matrix: (Units=GPa)
#
#
# Indices 1 2 3 4 5 6 
#
# 1 160.4695 30.0810 40.0060 0.0000 25.0161 0.0000
# 2 30.0810 17.8600 2.9334 0.0000 2.9095 0.0000
# 3 40.0060 2.9334 75.9816 0.0000 17.0955 0.0000
# 4 0.0000 0.0000 0.0000 8.1527 0.0000 5.4507
# 5 25.0161 2.9095 17.0955 0.0000 28.4127 0.0000
# 6 0.0000 0.0000 0.0000 5.4507 0.0000 35.2312
#
#
#
# Elastic Compliance Matrix: (Units=1/GPa)
#
#
# Indices 1 2 3 4 5 6 
#
# 1 0.011469 -0.017700 -0.004038 0.000000 -0.005856 0.000000
# 2 -0.017700 0.084326 0.005205 0.000000 0.003817 0.000000
# 3 -0.004038 0.005205 0.016662 0.000000 -0.007003 0.000000
# 4 0.000000 0.000000 0.000000 0.136810 0.000000 -0.021166
# 5 -0.005856 0.003817 -0.007003 0.000000 0.044174 0.000000
# 6 0.000000 0.000000 0.000000 -0.021166 0.000000 0.031659
#
#
# Mechanical properties :
#
#
# Convention : Reuss Voigt Hill
#
# Bulk Modulus (GPa) = 12.59583 44.48354 28.53969
# Shear Modulus (GPa) = 12.99951 26.44536 19.72243
#
# Velocity S-wave (km/s) = 2.41293 3.44157 2.97209
# Velocity P-wave (km/s) = 3.66121 5.97628 4.95583
#
# Compressibility (1/GPa) = 0.07939133
#
# Stress axis : x y z
#
# Youngs Moduli (GPa) = 87.18893 11.85872 60.01749
#
# Poissons Ratio (x) = 0.20990 0.24235
# Poissons Ratio (y) = 1.54326 -0.31240
# Poissons Ratio (z) = 0.35206 -0.06173
#
# Static dielectric constant tensor:
#      x y z
#    x 1.917950 0.000000 -0.018600 
#    y 0.000000 1.838470 0.000000 
#    z -0.018600 0.000000 1.927940 
# 
# From -- ./inp_files/247891.got.cif
#   From: 2010.05.17/outbox.cif.g08.bks.cpg/sg15_124_cif.got.tgz:247891.got - 2010.06.03 18:47:42.
