data_PCOD9283600
_publ_section_title
;
Structure prediction by ZEFSAII (Michael W. Deem and Ramdas Pophale) SiO2 
 PCOD9283600
Probable space group: C 2/C
;
_chemical_formula_sum "Si O2"
_cell_formula_units_Z 64
_cell_length_a 5.505799
_cell_length_b 18.916808
_cell_length_c 29.194484
_cell_angle_alpha 90.000000
_cell_angle_beta 94.894106
_cell_angle_gamma 90.000000
_cell_volume 3029.582020
_symmetry_space_group_name_H-M "C 2/C"
_symmetry_group_IT_number 15
_symmetry_cell_setting 'monoclinic'
loop_
_space_group_symop_operation_xyz
x,y,z
-x,y,1/2-z
-x,-y,-z
x,-y,1/2+z
1/2+x,1/2+y,z
1/2-x,1/2+y,1/2-z
1/2-x,1/2-y,-z
1/2+x,1/2-y,1/2+z
loop_
_atom_site_type_symbol
_atom_site_label
_atom_site_fract_x
_atom_site_fract_y
_atom_site_fract_z
Si Si1 0.244260 0.045945 0.723530
Si Si2 0.382354 0.154165 0.651678
Si Si3 0.501618 0.911137 0.923442
Si Si4 0.341811 0.489882 0.043010
Si Si5 0.639760 0.548054 0.135259
Si Si6 0.610905 0.308357 0.879585
Si Si7 0.637310 0.357189 0.400927
Si Si8 0.714041 0.279627 0.549330
O O1 0.500000 0.018215 0.750000
O O2 0.337658 0.116636 0.699216
O O3 0.000000 0.058699 0.750000
O O4 0.149569 0.991800 0.682944
O O5 0.376176 0.239717 0.651620
O O6 0.643040 0.133922 0.632626
O O7 0.140073 0.129909 0.619688
O O8 0.383001 0.956245 0.961563
O O9 0.605879 0.962905 0.886781
O O10 0.705574 0.860660 0.947972
O O11 0.343179 0.856007 0.892035
O O12 0.457813 0.518796 0.093277
O O13 0.300707 0.408616 0.055670
O O14 0.500000 0.500000 0.000000
O O15 0.585946 0.632216 0.139320
O O16 0.546290 0.279884 0.929807
O O17 0.642598 0.275481 0.416208
O O18 0.750000 0.250000 0.500000
#
# Coordination Sequence:
#
# PCOD9283600 Si02
#       8
#     8   8   8   8   8   8   8   8
#     4  12  27  46  76 104 131 173 226 283 353 419
#     4  11  22  46  68  98 131 171 222 274 343 408
#     4  10  21  40  63  88 131 180 226 274 334 392
#     4  11  25  38  60  96 136 181 229 275 332 394
#     4  10  23  44  66  96 135 175 225 281 332 412
#     4   9  21  39  66  90 127 180 216 273 343 389
#     4  11  23  40  66  95 133 183 217 276 336 384
#     4  10  22  37  57  94 133 179 234 277 320 399
#
# _framework density 21.125025000000001
#
# number of rings (size 3 to 8) (size 9 to 14) (size 15 to 20)
#    0.000    1.500    2.500    1.500    8.750    3.000 
#    0.000    0.625    0.000    0.000    0.000    0.000 
#    0.000    0.000    0.000    0.000    0.000    0.000 
#
# Total GULP energy -178284.401100 kJ/mol
# GULP energy per Si atom -5571.387534 kJ/mol
# Density = 2.107694 g / cm^3
# Si number density = 21.125025 Si / 1000 Ang^3
#
#
#
# Elastic Constant Matrix: (Units=GPa)
#
#
# Indices 1 2 3 4 5 6 
#
# 1 86.9425 20.9769 39.4942 0.0000 -23.8623 0.0000
# 2 20.9769 111.2576 39.0470 0.0000 -18.3528 0.0000
# 3 39.4942 39.0470 106.9085 0.0000 -23.3109 0.0000
# 4 0.0000 0.0000 0.0000 26.7201 0.0000 -7.1696
# 5 -23.8623 -18.3528 -23.3109 0.0000 35.8666 0.0000
# 6 0.0000 0.0000 0.0000 -7.1696 0.0000 32.6475
#
#
#
# Elastic Compliance Matrix: (Units=1/GPa)
#
#
# Indices 1 2 3 4 5 6 
#
# 1 0.015440 -0.000276 -0.003954 0.000000 0.007561 0.000000
# 2 -0.000276 0.010660 -0.003078 0.000000 0.003270 0.000000
# 3 -0.003954 -0.003078 0.012842 0.000000 0.004140 0.000000
# 4 0.000000 0.000000 0.000000 0.039768 0.000000 0.008733
# 5 0.007561 0.003270 0.004140 0.000000 0.037276 0.000000
# 6 0.000000 0.000000 0.000000 0.008733 0.000000 0.032548
#
#
# Mechanical properties :
#
#
# Convention : Reuss Voigt Hill
#
# Bulk Modulus (GPa) = 41.11150 56.01610 48.56380
# Shear Modulus (GPa) = 29.19543 32.75287 30.97415
#
# Velocity S-wave (km/s) = 3.72160 3.94182 3.83329
# Velocity P-wave (km/s) = 6.16201 6.87687 6.52923
#
# Compressibility (1/GPa) = 0.02432410
#
# Stress axis : x y z
#
# Youngs Moduli (GPa) = 64.76700 93.80813 77.87114
#
# Poissons Ratio (x) = 0.02589 0.30793
# Poissons Ratio (y) = 0.01788 0.23972
# Poissons Ratio (z) = 0.25611 0.28878
#
# Static dielectric constant tensor:
#      x y z
#    x 1.921980 0.000000 0.043950 
#    y 0.000000 1.811550 0.000000 
#    z 0.043950 0.000000 1.770350 
# 
# From -- ./inp_files/286409.got.cif
#   From: 2010.05.17/outbox.cif.g08.bks.cpg/sg15_144_cif.got.tgz:286409.got - 2010.06.03 18:47:42.
