data_PCOD9283011
_publ_section_title
;
Structure prediction by ZEFSAII (Michael W. Deem and Ramdas Pophale) SiO2 
 PCOD9283011
Probable space group: C 2/C
;
_chemical_formula_sum "Si O2"
_cell_formula_units_Z 60
_cell_length_a 29.716866
_cell_length_b 17.078562
_cell_length_c 12.308600
_cell_angle_alpha 90.000000
_cell_angle_beta 29.051755
_cell_angle_gamma 90.000000
_cell_volume 3033.480182
_symmetry_space_group_name_H-M "C 2/C"
_symmetry_group_IT_number 15
_symmetry_cell_setting 'monoclinic'
loop_
_space_group_symop_operation_xyz
x,y,z
-x,y,1/2-z
-x,-y,-z
x,-y,1/2+z
1/2+x,1/2+y,z
1/2-x,1/2+y,1/2-z
1/2-x,1/2-y,-z
1/2+x,1/2-y,1/2+z
loop_
_atom_site_type_symbol
_atom_site_label
_atom_site_fract_x
_atom_site_fract_y
_atom_site_fract_z
Si Si1 0.155598 0.912679 0.407180
Si Si2 0.881897 0.354320 0.653247
Si Si3 0.793142 0.732054 0.154310
Si Si4 0.097296 0.728548 0.003499
Si Si5 0.000000 0.534190 0.750000
Si Si6 0.856875 0.577882 0.443829
Si Si7 0.055304 0.253758 0.348782
Si Si8 0.485653 0.574822 0.105511
O O1 0.186137 0.822634 0.360481
O O2 0.095386 0.941645 0.635920
O O3 0.083460 0.913968 0.460734
O O4 0.254169 0.954578 0.186073
O O5 0.803908 0.316892 0.741587
O O6 0.854119 0.392756 0.825605
O O7 0.934488 0.414911 0.464923
O O8 0.955813 0.286727 0.525220
O O9 0.690388 0.722062 0.324315
O O10 0.871508 0.718159 0.897148
O O11 0.115659 0.650761 0.035923
O O12 0.000000 0.763847 0.250000
O O13 0.084960 0.712440 0.902326
O O14 0.935828 0.484000 0.804849
O O15 0.045400 0.159265 0.377677
O O16 0.500000 0.500000 0.000000
#
# Coordination Sequence:
#
# PCOD9283011 Si02
#       8
#     8   8   8   8   4   8   8   8
#     4   9  21  41  65  88 127 162 213 263 324 394
#     4  12  22  40  71  93 127 176 227 267 321 404
#     4  10  21  39  66  94 119 171 224 263 319 396
#     4  11  22  39  61  92 132 166 209 270 333 384
#     4  12  24  42  62 100 128 176 222 268 332 392
#     4  11  24  42  60  96 136 170 206 276 337 387
#     4  11  20  41  64  94 125 166 218 275 325 388
#     4  10  21  41  66  90 119 167 213 269 332 386
#
# _framework density 19.779261999999999
#
# number of rings (size 3 to 8) (size 9 to 14) (size 15 to 20)
#    0.000    1.333    4.667    0.800    0.000    4.267 
#    4.800    1.333    0.000    0.000    0.000    0.000 
#    0.000    0.000    0.000    0.000    0.000    0.000 
#
# Total GULP energy -167426.730810 kJ/mol
# GULP energy per Si atom -5580.891027 kJ/mol
# Density = 1.973424 g / cm^3
# Si number density = 19.779262 Si / 1000 Ang^3
#
#
#
# Elastic Constant Matrix: (Units=GPa)
#
#
# Indices 1 2 3 4 5 6 
#
# 1 95.8842 9.1065 31.1928 0.0000 12.6462 0.0000
# 2 9.1065 34.4253 16.5862 0.0000 17.0228 0.0000
# 3 31.1928 16.5862 77.1842 0.0000 -23.3178 0.0000
# 4 0.0000 0.0000 0.0000 10.5539 0.0000 18.0797
# 5 12.6462 17.0228 -23.3178 0.0000 32.6475 0.0000
# 6 0.0000 0.0000 0.0000 18.0797 0.0000 -13.8624
#
#
#
# Elastic Compliance Matrix: (Units=1/GPa)
#
#
# Indices 1 2 3 4 5 6 
#
# 1 0.024316 0.033900 -0.032257 0.000000 -0.050134 0.000000
# 2 0.033900 0.131301 -0.084880 0.000000 -0.142217 0.000000
# 3 -0.032257 -0.084880 0.078265 0.000000 0.112652 0.000000
# 4 0.000000 0.000000 0.000000 0.029297 0.000000 0.038209
# 5 -0.050134 -0.142217 0.112652 0.000000 0.204663 0.000000
# 6 0.000000 0.000000 0.000000 0.038209 0.000000 -0.022304
#
#
# Mechanical properties :
#
#
# Convention : Reuss Voigt Hill
#
# Bulk Modulus (GPa) = 14.83532 35.69609 25.26570
# Shear Modulus (GPa) = 7.88047 15.90834 11.89440
#
# Velocity S-wave (km/s) = 1.99821 2.83908 2.45492
# Velocity P-wave (km/s) = 3.58337 5.36969 4.56476
#
# Compressibility (1/GPa) = 0.06740669
#
# Stress axis : x y z
#
# Youngs Moduli (GPa) = 41.12565 7.61610 12.77710
#
# Poissons Ratio (x) = -0.25819 0.41216
# Poissons Ratio (y) = -1.39416 1.08452
# Poissons Ratio (z) = 1.32660 0.64646
#
# Static dielectric constant tensor:
#      x y z
#    x 1.674170 0.000000 -0.009460 
#    y 0.000000 1.694530 0.000000 
#    z -0.009460 0.000000 1.732850 
# 
# From -- ./inp_files/123992.got.cif
#   From: 2010.05.17/outbox.cif.g08.bks.cpg/sg15_62_cif.got.tgz:123992.got - 2010.06.03 18:47:42.
