data_PCOD9283089
_publ_section_title
;
Structure prediction by ZEFSAII (Michael W. Deem and Ramdas Pophale) SiO2 
 PCOD9283089
Probable space group: C 2/C
;
_chemical_formula_sum "Si O2"
_cell_formula_units_Z 48
_cell_length_a 10.054570
_cell_length_b 28.266632
_cell_length_c 17.555650
_cell_angle_alpha 90.000000
_cell_angle_beta 150.543723
_cell_angle_gamma 90.000000
_cell_volume 2453.618340
_symmetry_space_group_name_H-M "C 2/C"
_symmetry_group_IT_number 15
_symmetry_cell_setting 'monoclinic'
loop_
_space_group_symop_operation_xyz
x,y,z
-x,y,1/2-z
-x,-y,-z
x,-y,1/2+z
1/2+x,1/2+y,z
1/2-x,1/2+y,1/2-z
1/2-x,1/2-y,-z
1/2+x,1/2-y,1/2+z
loop_
_atom_site_type_symbol
_atom_site_label
_atom_site_fract_x
_atom_site_fract_y
_atom_site_fract_z
Si Si1 0.554241 0.113565 0.400937
Si Si2 0.941604 0.129187 0.460726
Si Si3 0.742207 0.984984 0.066674
Si Si4 0.697731 0.803640 0.638572
Si Si5 0.495037 0.268812 0.570874
Si Si6 0.220148 0.033581 0.571805
O O1 0.798769 0.133969 0.471497
O O2 0.296390 0.112104 0.215680
O O3 0.654779 0.063316 0.481165
O O4 0.448290 0.147234 0.415556
O O5 0.054379 0.179550 0.489774
O O6 0.157037 0.087437 0.562945
O O7 0.000000 0.978943 0.250000
O O8 0.500000 0.000000 0.000000
O O9 0.785018 0.023418 0.020952
O O10 0.500483 0.770659 0.491437
O O11 0.000000 0.809621 0.750000
O O12 0.757185 0.777491 0.748520
O O13 0.250000 0.250000 0.500000
O O14 0.500000 0.019450 0.750000
O O15 0.000000 0.000000 0.500000
#
# Coordination Sequence:
#
# PCOD9283089 Si02
#       6
#     8   8   8   8   8   8
#     4  10  21  40  63  89 127 168 213 257 322 382
#     4  10  21  39  67  91 121 168 219 261 306 388
#     4  12  26  42  63  97 135 163 210 272 325 372
#     4   9  19  37  61  88 124 162 208 258 319 375
#     4   9  19  36  58  88 122 159 207 259 314 373
#     4  12  24  43  69  93 123 173 218 259 318 389
#
# _framework density 19.562944000000002
#
# number of rings (size 3 to 8) (size 9 to 14) (size 15 to 20)
#    0.000    1.667    1.667    3.000    0.000    7.333 
#    3.000    0.000    0.000    0.000    0.000    0.000 
#    0.000    0.000    0.000    0.000    0.000    0.000 
#
# Total GULP energy -133919.398031 kJ/mol
# GULP energy per Si atom -5579.974918 kJ/mol
# Density = 1.951842 g / cm^3
# Si number density = 19.562944 Si / 1000 Ang^3
#
#
#
# Elastic Constant Matrix: (Units=GPa)
#
#
# Indices 1 2 3 4 5 6 
#
# 1 101.0286 44.9366 21.4851 0.0004 10.8273 0.0001
# 2 44.9366 68.7229 21.0867 -0.0002 16.5151 -0.0001
# 3 21.4851 21.0867 62.2199 0.0001 14.5882 -0.0001
# 4 0.0004 -0.0002 0.0001 16.7662 0.0003 -5.6033
# 5 10.8273 16.5151 14.5882 0.0003 22.7931 0.0001
# 6 0.0001 -0.0001 -0.0001 -5.6033 0.0001 44.3096
#
#
#
# Elastic Compliance Matrix: (Units=1/GPa)
#
#
# Indices 1 2 3 4 5 6 
#
# 1 0.014187 -0.008875 -0.002140 0.000000 0.001061 0.000000
# 2 -0.008875 0.023845 -0.002299 0.000001 -0.011590 0.000000
# 3 -0.002140 -0.002299 0.019956 0.000000 -0.010090 0.000000
# 4 0.000000 0.000001 0.000000 0.062276 -0.000001 0.007875
# 5 0.001061 -0.011590 -0.010090 -0.000001 0.058224 0.000000
# 6 0.000000 0.000000 0.000000 0.007875 0.000000 0.023564
#
#
# Mechanical properties :
#
#
# Convention : Reuss Voigt Hill
#
# Bulk Modulus (GPa) = 31.88795 45.22090 38.55443
# Shear Modulus (GPa) = 20.90879 26.40465 23.65672
#
# Velocity S-wave (km/s) = 3.27279 3.67785 3.48122
# Velocity P-wave (km/s) = 5.53327 6.41882 5.99243
#
# Compressibility (1/GPa) = 0.03135980
#
# Stress axis : x y z
#
# Youngs Moduli (GPa) = 70.48670 41.93736 50.11062
#
# Poissons Ratio (x) = 0.37219 0.10723
# Poissons Ratio (y) = 0.62557 0.11522
# Poissons Ratio (z) = 0.15083 0.09642
#
# Static dielectric constant tensor:
#      x y z
#    x 1.697820 0.000000 0.022170 
#    y 0.000000 1.682570 0.000000 
#    z 0.022170 0.000000 1.580530 
# 
# From -- ./inp_files/194342.got.cif
#   From: 2010.05.17/outbox.cif.g08.bks.cpg/sg15_98_cif.got.tgz:194342.got - 2010.06.03 18:47:42.
