data_PCOD9283773
_publ_section_title
;
Structure prediction by ZEFSAII (Michael W. Deem and Ramdas Pophale) SiO2 
 PCOD9283773
Probable space group: C 2/C
;
_chemical_formula_sum "Si O2"
_cell_formula_units_Z 60
_cell_length_a 26.963582
_cell_length_b 9.053909
_cell_length_c 21.330817
_cell_angle_alpha 90.000000
_cell_angle_beta 34.495578
_cell_angle_gamma 90.000000
_cell_volume 2949.174394
_symmetry_space_group_name_H-M "C 2/C"
_symmetry_group_IT_number 15
_symmetry_cell_setting 'monoclinic'
loop_
_space_group_symop_operation_xyz
x,y,z
-x,y,1/2-z
-x,-y,-z
x,-y,1/2+z
1/2+x,1/2+y,z
1/2-x,1/2+y,1/2-z
1/2-x,1/2-y,-z
1/2+x,1/2-y,1/2+z
loop_
_atom_site_type_symbol
_atom_site_label
_atom_site_fract_x
_atom_site_fract_y
_atom_site_fract_z
Si Si1 0.788732 0.213714 0.063205
Si Si2 0.346931 0.241216 0.705080
Si Si3 0.000000 0.332883 0.750000
Si Si4 0.862582 0.119807 0.856629
Si Si5 0.715723 0.919986 0.763394
Si Si6 0.785757 0.825961 0.899724
Si Si7 0.116178 0.504245 0.032666
Si Si8 0.534060 0.857752 0.001848
O O1 0.712993 0.299068 0.104101
O O2 0.748336 0.118054 0.160022
O O3 0.839977 0.129024 0.954497
O O4 0.849873 0.339698 0.030186
O O5 0.292364 0.375687 0.731740
O O6 0.324399 0.230322 0.802637
O O7 0.451837 0.252430 0.587010
O O8 0.311938 0.091063 0.709014
O O9 0.948063 0.220547 0.758770
O O10 0.932402 0.439253 0.854874
O O11 0.858074 0.950342 0.841344
O O12 0.629075 0.824982 0.872699
O O13 0.750000 0.750000 0.000000
O O14 0.700311 0.908118 0.961417
O O15 0.054946 0.413815 0.050141
O O16 0.500000 0.000000 0.000000
#
# Coordination Sequence:
#
# PCOD9283773 Si02
#       8
#     8   8   4   8   8   8   8   8
#     4   9  18  36  65  87 119 167 207 261 313 386
#     4  11  25  41  66  95 129 172 218 264 330 385
#     4  10  22  36  62  96 124 164 210 274 318 384
#     4   9  20  37  59  94 122 156 215 258 322 378
#     4  11  22  42  66  89 131 169 215 267 321 389
#     4  11  23  42  64  89 131 176 214 269 331 396
#     4  10  21  40  64  92 126 167 220 258 328 393
#     4  10  22  39  61  93 121 164 219 260 314 390
#
# _framework density 20.344676
#
# number of rings (size 3 to 8) (size 9 to 14) (size 15 to 20)
#    0.000    1.867    1.333    3.200    7.467    0.000 
#    2.400    2.000    0.000    0.000    0.000    0.000 
#    0.000    0.000    0.000    0.000    0.000    0.000 
#
# Total GULP energy -167294.279263 kJ/mol
# GULP energy per Si atom -5576.475975 kJ/mol
# Density = 2.029837 g / cm^3
# Si number density = 20.344676 Si / 1000 Ang^3
#
#
#
# Elastic Constant Matrix: (Units=GPa)
#
#
# Indices 1 2 3 4 5 6 
#
# 1 75.2808 14.5741 15.8991 0.0008 0.4420 -0.0004
# 2 14.5741 36.8042 6.5867 0.0080 -0.2631 -0.0052
# 3 15.8991 6.5867 72.5753 0.0009 -3.2761 -0.0012
# 4 0.0008 0.0080 0.0009 29.1973 -0.0016 -0.3842
# 5 0.4420 -0.2631 -3.2761 -0.0016 41.4293 0.0011
# 6 -0.0004 -0.0052 -0.0012 -0.3842 0.0011 17.9686
#
#
#
# Elastic Compliance Matrix: (Units=1/GPa)
#
#
# Indices 1 2 3 4 5 6 
#
# 1 0.014925 -0.005412 -0.002797 0.000001 -0.000415 -0.000001
# 2 -0.005412 0.029582 -0.001493 -0.000008 0.000127 0.000008
# 3 -0.002797 -0.001493 0.014580 0.000000 0.001173 0.000000
# 4 0.000001 -0.000008 0.000000 0.034259 0.000001 0.000733
# 5 -0.000415 0.000127 0.001173 0.000001 0.024236 -0.000001
# 6 -0.000001 0.000008 0.000000 0.000733 -0.000001 0.055668
#
#
# Mechanical properties :
#
#
# Convention : Reuss Voigt Hill
#
# Bulk Modulus (GPa) = 25.20077 28.75334 26.97706
# Shear Modulus (GPa) = 24.28568 27.55907 25.92238
#
# Velocity S-wave (km/s) = 3.45876 3.68449 3.57341
# Velocity P-wave (km/s) = 5.32583 5.68018 5.50586
#
# Compressibility (1/GPa) = 0.03968132
#
# Stress axis : x y z
#
# Youngs Moduli (GPa) = 67.00354 33.80411 68.58687
#
# Poissons Ratio (x) = 0.18296 0.19184
# Poissons Ratio (y) = 0.36265 0.10242
# Poissons Ratio (z) = 0.18741 0.05048
#
# Static dielectric constant tensor:
#      x y z
#    x 1.721930 0.000000 -0.014830 
#    y 0.000000 1.720980 0.000000 
#    z -0.014830 0.000000 1.738960 
# 
# From -- ./inp_files/255172.got.cif
#   From: 2010.05.17/outbox.cif.g08.bks.cpg/sg15_128_cif.got.tgz:255172.got - 2010.06.03 18:47:42.
