data_PCOD9283468
_publ_section_title
;
Structure prediction by ZEFSAII (Michael W. Deem and Ramdas Pophale) SiO2 
 PCOD9283468
Probable space group: C 2/C
;
_chemical_formula_sum "Si O2"
_cell_formula_units_Z 64
_cell_length_a 11.433383
_cell_length_b 27.534539
_cell_length_c 14.528019
_cell_angle_alpha 90.000000
_cell_angle_beta 140.232737
_cell_angle_gamma 90.000000
_cell_volume 2925.602822
_symmetry_space_group_name_H-M "C 2/C"
_symmetry_group_IT_number 15
_symmetry_cell_setting 'monoclinic'
loop_
_space_group_symop_operation_xyz
x,y,z
-x,y,1/2-z
-x,-y,-z
x,-y,1/2+z
1/2+x,1/2+y,z
1/2-x,1/2+y,1/2-z
1/2-x,1/2-y,-z
1/2+x,1/2-y,1/2+z
loop_
_atom_site_type_symbol
_atom_site_label
_atom_site_fract_x
_atom_site_fract_y
_atom_site_fract_z
Si Si1 0.591868 0.436143 0.586417
Si Si2 0.350874 0.828157 0.538326
Si Si3 0.639271 0.799335 0.254986
Si Si4 0.189160 0.412762 0.312035
Si Si5 0.197682 0.486511 0.157149
Si Si6 0.224603 0.830843 0.659859
Si Si7 0.510017 0.243242 0.510267
Si Si8 0.338174 0.424526 0.091334
O O1 0.373354 0.434992 0.468439
O O2 0.700409 0.475379 0.713275
O O3 0.666684 0.383315 0.657504
O O4 0.625376 0.437181 0.494275
O O5 0.215431 0.825964 0.543138
O O6 0.564231 0.823387 0.691226
O O7 0.337334 0.781601 0.464132
O O8 0.321635 0.884569 0.494083
O O9 0.500000 0.783581 0.250000
O O10 0.705453 0.854540 0.313016
O O11 0.508518 0.798616 0.086036
O O12 0.819798 0.765137 0.358844
O O13 0.181740 0.437815 0.208223
O O14 0.000000 0.423763 0.250000
O O15 0.301853 0.473028 0.126730
O O16 0.000000 0.500000 0.000000
O O17 0.092396 0.789366 0.613495
O O18 0.500000 0.400434 0.250000
#
# Coordination Sequence:
#
# PCOD9283468 Si02
#       8
#     8   8   8   8   8   8   8   8
#     4  11  24  46  72  96 146 181 226 292 350 409
#     4  10  22  38  63 101 135 171 216 274 338 415
#     4  11  25  43  66  96 131 181 234 278 335 398
#     4  11  25  46  69  98 138 182 230 290 350 412
#     4  12  27  44  73 106 136 182 238 282 353 420
#     4  10  21  40  62 100 135 174 212 270 352 399
#     4  12  21  40  68  91 136 172 226 277 331 405
#     4  11  24  43  71 102 139 181 230 282 353 416
#
# _framework density 21.875831999999999
#
# number of rings (size 3 to 8) (size 9 to 14) (size 15 to 20)
#    0.000    1.000    3.750    2.625    1.750    1.000 
#    2.250    0.000    0.000    0.000    0.000    0.000 
#    0.000    0.000    0.000    0.000    0.000    0.000 
#
# Total GULP energy -178232.348912 kJ/mol
# GULP energy per Si atom -5569.760904 kJ/mol
# Density = 2.182604 g / cm^3
# Si number density = 21.875832 Si / 1000 Ang^3
#
#
#
# Elastic Constant Matrix: (Units=GPa)
#
#
# Indices 1 2 3 4 5 6 
#
# 1 56.6648 38.3024 19.9457 0.0000 13.1606 0.0000
# 2 38.3024 95.8569 39.7483 0.0000 2.2835 0.0000
# 3 19.9457 39.7483 95.1283 0.0000 10.7173 0.0000
# 4 0.0000 0.0000 0.0000 35.4371 0.0000 5.5074
# 5 13.1606 2.2835 10.7173 0.0000 29.0164 0.0000
# 6 0.0000 0.0000 0.0000 5.5074 0.0000 28.5912
#
#
#
# Elastic Compliance Matrix: (Units=1/GPa)
#
#
# Indices 1 2 3 4 5 6 
#
# 1 0.027639 -0.010776 0.000025 0.000000 -0.011697 0.000000
# 2 -0.010776 0.016847 -0.005406 0.000000 0.005558 0.000000
# 3 0.000025 -0.005406 0.013271 0.000000 -0.004488 0.000000
# 4 0.000000 0.000000 0.000000 0.029090 0.000000 -0.005603
# 5 -0.011697 0.005558 -0.004488 0.000000 0.040989 0.000000
# 6 0.000000 0.000000 0.000000 -0.005603 0.000000 0.036055
#
#
# Mechanical properties :
#
#
# Convention : Reuss Voigt Hill
#
# Bulk Modulus (GPa) = 39.30167 49.29365 44.29766
# Shear Modulus (GPa) = 24.42749 28.58588 26.50669
#
# Velocity S-wave (km/s) = 3.34525 3.61880 3.48471
# Velocity P-wave (km/s) = 5.73809 6.32797 6.04024
#
# Compressibility (1/GPa) = 0.02544421
#
# Stress axis : x y z
#
# Youngs Moduli (GPa) = 36.18016 59.35623 75.35005
#
# Poissons Ratio (x) = 0.63962 -0.00190
# Poissons Ratio (y) = 0.38988 0.40737
# Poissons Ratio (z) = -0.00091 0.32090
#
# Static dielectric constant tensor:
#      x y z
#    x 1.946200 0.000000 0.018740 
#    y 0.000000 1.844870 0.000000 
#    z 0.018740 0.000000 1.951330 
# 
# From -- ./inp_files/148812.got.cif
#   From: 2010.05.17/outbox.cif.g08.bks.cpg/sg15_75_cif.got.tgz:148812.got - 2010.06.03 18:47:42.
