data_PCOD9283714
_publ_section_title
;
Structure prediction by ZEFSAII (Michael W. Deem and Ramdas Pophale) SiO2 
 PCOD9283714
Probable space group: C 2/C
;
_chemical_formula_sum "Si O2"
_cell_formula_units_Z 56
_cell_length_a 32.082908
_cell_length_b 8.879337
_cell_length_c 20.329709
_cell_angle_alpha 90.000000
_cell_angle_beta 26.778970
_cell_angle_gamma 90.000000
_cell_volume 2609.325860
_symmetry_space_group_name_H-M "C 2/C"
_symmetry_group_IT_number 15
_symmetry_cell_setting 'monoclinic'
loop_
_space_group_symop_operation_xyz
x,y,z
-x,y,1/2-z
-x,-y,-z
x,-y,1/2+z
1/2+x,1/2+y,z
1/2-x,1/2+y,1/2-z
1/2-x,1/2-y,-z
1/2+x,1/2-y,1/2+z
loop_
_atom_site_type_symbol
_atom_site_label
_atom_site_fract_x
_atom_site_fract_y
_atom_site_fract_z
Si Si1 0.965735 0.056085 0.446059
Si Si2 0.764549 0.345913 0.572865
Si Si3 0.924397 0.150201 0.798669
Si Si4 0.250021 0.018352 0.953076
Si Si5 0.437401 0.170992 0.902929
Si Si6 0.570961 0.707643 0.415893
Si Si7 0.454772 0.066494 0.160852
O O1 0.915212 0.172078 0.469997
O O2 0.997529 0.142495 0.466737
O O3 0.916395 0.906102 0.540518
O O4 0.050907 0.989401 0.284379
O O5 0.792892 0.178897 0.508064
O O6 0.760179 0.458467 0.517516
O O7 0.841986 0.402403 0.513975
O O8 0.667082 0.308288 0.742933
O O9 0.933177 0.301483 0.744107
O O10 0.000000 0.152126 0.750000
O O11 0.820122 0.114134 0.967220
O O12 0.353432 0.988168 0.780183
O O13 0.500000 0.193957 0.750000
O O14 0.495205 0.069111 0.871787
O O15 0.524739 0.858655 0.509667
#
# Coordination Sequence:
#
# PCOD9283714 Si02
#       7
#     8   8   8   8   8   8   8
#     4  10  21  40  64  86 126 175 218 260 337 399
#     4  11  23  39  68  95 130 171 231 267 329 409
#     4  11  22  40  66 100 131 170 223 287 333 395
#     4  11  22  41  66 100 127 178 224 271 333 411
#     4  12  23  40  66  98 130 172 222 290 327 389
#     4  10  23  43  62  94 130 178 215 271 335 415
#     4  11  25  42  66  98 140 174 220 281 348 389
#
# _framework density 21.461483000000001
#
# number of rings (size 3 to 8) (size 9 to 14) (size 15 to 20)
#    0.000    1.143    2.857    3.857    0.000    3.429 
#    0.000    2.857    0.000    0.000    0.000    0.000 
#    0.000    0.000    0.000    0.000    0.000    0.000 
#
# Total GULP energy -156374.310860 kJ/mol
# GULP energy per Si atom -5584.796816 kJ/mol
# Density = 2.141264 g / cm^3
# Si number density = 21.461483 Si / 1000 Ang^3
#
#
#
# Elastic Constant Matrix: (Units=GPa)
#
#
# Indices 1 2 3 4 5 6 
#
# 1 46.0774 16.3659 6.1244 -0.0003 -3.2525 0.0002
# 2 16.3659 57.4707 11.7487 0.0009 1.3170 0.0007
# 3 6.1244 11.7487 94.4533 -0.0002 4.9535 0.0006
# 4 -0.0003 0.0009 -0.0002 7.2780 0.0005 14.1366
# 5 -3.2525 1.3170 4.9535 0.0005 34.6338 -0.0002
# 6 0.0002 0.0007 0.0006 14.1366 -0.0002 26.4261
#
#
#
# Elastic Compliance Matrix: (Units=1/GPa)
#
#
# Indices 1 2 3 4 5 6 
#
# 1 0.024438 -0.006842 -0.000874 -0.000044 0.002680 0.000023
# 2 -0.006842 0.019774 -0.001958 0.000049 -0.001114 -0.000026
# 3 -0.000874 -0.001958 0.010970 -0.000025 -0.001577 0.000013
# 4 -0.000044 0.000049 -0.000025 -3.517522 0.000063 1.881690
# 5 0.002680 -0.001114 -0.001577 0.000063 0.029393 -0.000033
# 6 0.000023 -0.000026 0.000013 1.881690 -0.000033 -0.968764
#
#
# Mechanical properties :
#
#
# Convention : Reuss Voigt Hill
#
# Bulk Modulus (GPa) = 27.90548 29.60882 28.75715
# Shear Modulus (GPa) = -1.14406 24.58510 11.72052
#
# Velocity S-wave (km/s) = -0.73091 3.38826 2.33945
# Velocity P-wave (km/s) = 3.50977 5.39753 4.55257
#
# Compressibility (1/GPa) = 0.03583525
#
# Stress axis : x y z
#
# Youngs Moduli (GPa) = 40.91971 50.57077 91.15685
#
# Poissons Ratio (x) = 0.34600 0.07968
# Poissons Ratio (y) = 0.27997 0.17844
# Poissons Ratio (z) = 0.03577 0.09900
#
# Static dielectric constant tensor:
#      x y z
#    x 1.790570 0.000000 0.001000 
#    y 0.000000 1.799850 0.000000 
#    z 0.001000 0.000000 1.808210 
# 
# From -- ./inp_files/258943.got.cif
#   From: 2010.05.17/outbox.cif.g08.bks.cpg/sg15_130_cif.got.tgz:258943.got - 2010.06.03 18:47:42.
