data_PCOD9283235
_publ_section_title
;
Structure prediction by ZEFSAII (Michael W. Deem and Ramdas Pophale) SiO2 
 PCOD9283235
Probable space group: C 2/C
;
_chemical_formula_sum "Si O2"
_cell_formula_units_Z 64
_cell_length_a 16.825169
_cell_length_b 16.279147
_cell_length_c 19.878722
_cell_angle_alpha 90.000000
_cell_angle_beta 150.968873
_cell_angle_gamma 90.000000
_cell_volume 2642.263596
_symmetry_space_group_name_H-M "C 2/C"
_symmetry_group_IT_number 15
_symmetry_cell_setting 'monoclinic'
loop_
_space_group_symop_operation_xyz
x,y,z
-x,y,1/2-z
-x,-y,-z
x,-y,1/2+z
1/2+x,1/2+y,z
1/2-x,1/2+y,1/2-z
1/2-x,1/2-y,-z
1/2+x,1/2-y,1/2+z
loop_
_atom_site_type_symbol
_atom_site_label
_atom_site_fract_x
_atom_site_fract_y
_atom_site_fract_z
Si Si1 0.175778 0.633495 0.474547
Si Si2 0.357767 0.063452 0.397224
Si Si3 0.445485 0.789833 0.493642
Si Si4 0.696939 0.550230 0.410275
Si Si5 0.727494 0.082023 0.880370
Si Si6 0.296515 0.780684 0.240475
Si Si7 0.310341 0.106740 0.161277
Si Si8 0.091382 0.109899 0.125677
O O1 0.182447 0.700032 0.539551
O O2 0.238996 0.544603 0.547370
O O3 0.258941 0.633859 0.462489
O O4 0.986971 0.641577 0.310697
O O5 0.434635 0.132758 0.407636
O O6 0.302775 0.092617 0.429851
O O7 0.193571 0.037612 0.237856
O O8 0.500000 0.000000 0.500000
O O9 0.353251 0.810105 0.355892
O O10 0.597360 0.726644 0.594195
O O11 0.500000 0.554689 0.250000
O O12 0.747759 0.586732 0.520508
O O13 0.653365 0.158972 0.783892
O O14 0.655133 0.991907 0.813688
O O15 0.910298 0.078702 0.987189
O O16 0.384368 0.690205 0.307630
O O17 0.178173 0.129364 0.119565
#
# Coordination Sequence:
#
# PCOD9283235 Si02
#       8
#     8   8   8   8   8   8   8   8
#     4  10  21  40  66  99 134 172 226 291 346 407
#     4  11  21  38  71  98 125 178 235 281 346 403
#     4  11  23  43  70  94 137 182 237 282 339 430
#     4  11  22  40  64 103 141 170 221 298 349 399
#     4  11  24  40  65  98 138 173 227 286 348 406
#     4  11  24  42  67  96 135 185 229 275 343 427
#     4  10  21  39  69  99 130 172 228 290 350 397
#     4  11  21  42  63  94 134 178 224 283 340 412
#
# _framework density 24.221657
#
# number of rings (size 3 to 8) (size 9 to 14) (size 15 to 20)
#    0.000    1.250    6.250    0.375    3.500    0.000 
#    4.500    3.125    8.250    0.000    0.000    0.000 
#    0.000    0.000    0.000    0.000    0.000    0.000 
#
# Total GULP energy -178281.690111 kJ/mol
# GULP energy per Si atom -5571.302816 kJ/mol
# Density = 2.416653 g / cm^3
# Si number density = 24.221657 Si / 1000 Ang^3
#
#
#
# Elastic Constant Matrix: (Units=GPa)
#
#
# Indices 1 2 3 4 5 6 
#
# 1 123.3365 7.9110 5.7243 0.0041 -25.0377 0.0005
# 2 7.9110 45.4030 -13.2172 0.0158 -4.0509 0.0000
# 3 5.7243 -13.2172 62.2627 0.0202 -5.9374 0.0006
# 4 0.0041 0.0158 0.0202 19.7464 0.0046 -2.1815
# 5 -25.0377 -4.0509 -5.9374 0.0046 43.9490 0.0003
# 6 0.0005 0.0000 0.0006 -2.1815 0.0003 19.1070
#
#
#
# Elastic Compliance Matrix: (Units=1/GPa)
#
#
# Indices 1 2 3 4 5 6 
#
# 1 0.009252 -0.001351 -0.000655 -0.000001 0.005058 0.000000
# 2 -0.001351 0.024037 0.005435 -0.000025 0.002180 -0.000003
# 3 -0.000655 0.005435 0.017513 -0.000023 0.002494 -0.000003
# 4 -0.000001 -0.000025 -0.000023 0.051289 -0.000012 0.005856
# 5 0.005058 0.002180 0.002494 -0.000012 0.026173 -0.000002
# 6 0.000000 -0.000003 -0.000003 0.005856 -0.000002 0.053005
#
#
# Mechanical properties :
#
#
# Convention : Reuss Voigt Hill
#
# Bulk Modulus (GPa) = 17.34378 25.75982 21.55180
# Shear Modulus (GPa) = 25.82219 31.93275 28.87747
#
# Velocity S-wave (km/s) = 3.26863 3.63486 3.45660
# Velocity P-wave (km/s) = 4.62831 5.31736 4.98476
#
# Compressibility (1/GPa) = 0.05765757
#
# Stress axis : x y z
#
# Youngs Moduli (GPa) = 108.08826 41.60243 57.10140
#
# Poissons Ratio (x) = 0.05623 0.03741
# Poissons Ratio (y) = 0.14608 -0.31033
# Poissons Ratio (z) = 0.07082 -0.22610
#
# Static dielectric constant tensor:
#      x y z
#    x 2.066570 -0.000010 0.018570 
#    y -0.000010 2.109380 0.000000 
#    z 0.018570 0.000000 2.074440 
# 
# From -- ./inp_files/249654.got.cif
#   From: 2010.05.17/outbox.cif.g08.bks.cpg/sg15_125_cif.got.tgz:249654.got - 2010.06.03 18:47:42.
