data_PCOD9283708
_publ_section_title
;
Structure prediction by ZEFSAII (Michael W. Deem and Ramdas Pophale) SiO2 
 PCOD9283708
Probable space group: C 2/C
;
_chemical_formula_sum "Si O2"
_cell_formula_units_Z 52
_cell_length_a 30.919328
_cell_length_b 16.765395
_cell_length_c 27.842085
_cell_angle_alpha 90.000000
_cell_angle_beta 171.078557
_cell_angle_gamma 90.000000
_cell_volume 2238.214582
_symmetry_space_group_name_H-M "C 2/C"
_symmetry_group_IT_number 15
_symmetry_cell_setting 'monoclinic'
loop_
_space_group_symop_operation_xyz
x,y,z
-x,y,1/2-z
-x,-y,-z
x,-y,1/2+z
1/2+x,1/2+y,z
1/2-x,1/2+y,1/2-z
1/2-x,1/2-y,-z
1/2+x,1/2-y,1/2+z
loop_
_atom_site_type_symbol
_atom_site_label
_atom_site_fract_x
_atom_site_fract_y
_atom_site_fract_z
Si Si1 0.500000 0.463455 0.750000
Si Si2 0.095376 0.628099 0.637408
Si Si3 0.326080 0.428301 0.195867
Si Si4 0.668944 0.706080 0.112884
Si Si5 0.000000 0.298811 0.250000
Si Si6 0.695303 0.036255 0.655552
Si Si7 0.548446 0.394585 0.704390
Si Si8 0.500000 0.934765 0.750000
O O1 0.417888 0.411254 0.613706
O O2 0.237256 0.514395 0.481569
O O3 0.183920 0.609691 0.679853
O O4 0.834892 0.686070 0.344266
O O5 0.000829 0.539687 0.550498
O O6 0.341161 0.652833 0.942303
O O7 0.593138 0.376963 0.503452
O O8 0.154792 0.435067 0.057038
O O9 0.397950 0.518917 0.260277
O O10 0.165310 0.391508 0.974047
O O11 0.874095 0.755589 0.303858
O O12 0.250000 0.250000 0.500000
O O13 0.159435 0.352261 0.464289
O O14 0.000000 0.000000 0.000000
#
# Coordination Sequence:
#
# PCOD9283708 Si02
#       8
#     4   8   8   8   4   8   8   4
#     4  10  21  40  64 112 139 170 226 294 353 390
#     4  11  23  39  68 106 137 191 244 291 371 440
#     4  11  22  45  74 106 140 182 251 300 354 421
#     4  12  28  46  66  99 150 193 231 303 378 430
#     4  12  30  52  70 106 156 192 224 292 372 430
#     4  11  19  38  69 109 144 172 232 327 361 405
#     4  11  23  45  77 103 138 189 249 294 344 429
#     4  10  23  38  70 102 139 176 226 302 359 418
#
# _framework density 23.232804000000002
#
# number of rings (size 3 to 8) (size 9 to 14) (size 15 to 20)
#    0.000    0.923    3.077    5.077    0.000    6.154 
#    0.000    0.769    0.000    0.000    0.000    0.000 
#    0.000    0.000    0.000    0.000    0.000    0.000 
#
# Total GULP energy -145375.463462 kJ/mol
# GULP energy per Si atom -5591.363979 kJ/mol
# Density = 2.317993 g / cm^3
# Si number density = 23.232804 Si / 1000 Ang^3
#
#
#
# Elastic Constant Matrix: (Units=GPa)
#
#
# Indices 1 2 3 4 5 6 
#
# 1 150.5350 21.6999 51.0881 0.0257 -10.6398 0.0307
# 2 21.6999 78.2041 43.6044 0.2288 7.3374 0.1757
# 3 51.0881 43.6044 146.7873 -0.0192 -17.3020 0.1373
# 4 0.0257 0.2288 -0.0192 40.6195 0.0967 -0.9919
# 5 -10.6398 7.3374 -17.3020 0.0967 60.1019 0.0417
# 6 0.0307 0.1757 0.1373 -0.9919 0.0417 22.3822
#
#
#
# Elastic Compliance Matrix: (Units=1/GPa)
#
#
# Indices 1 2 3 4 5 6 
#
# 1 0.007605 -0.000914 -0.002281 -0.000002 0.000801 0.000009
# 2 -0.000914 0.016092 -0.004878 -0.000086 -0.003531 -0.000092
# 3 -0.002281 -0.004878 0.009397 0.000026 0.002897 -0.000020
# 4 -0.000002 -0.000086 0.000026 0.024646 -0.000023 0.001093
# 5 0.000801 -0.003531 0.002897 -0.000023 0.018045 -0.000026
# 6 0.000009 -0.000092 -0.000020 0.001093 -0.000026 0.044728
#
#
# Mechanical properties :
#
#
# Convention : Reuss Voigt Hill
#
# Bulk Modulus (GPa) = 59.00227 67.59013 63.29620
# Shear Modulus (GPa) = 35.13457 41.89633 38.51545
#
# Velocity S-wave (km/s) = 3.89303 4.25117 4.07603
# Velocity P-wave (km/s) = 6.75713 7.29741 7.03246
#
# Compressibility (1/GPa) = 0.01694850
#
# Stress axis : x y z
#
# Youngs Moduli (GPa) = 131.48406 62.14135 106.41461
#
# Poissons Ratio (x) = 0.05677 0.24275
# Poissons Ratio (y) = 0.12013 0.51914
# Poissons Ratio (z) = 0.29994 0.30315
#
# Static dielectric constant tensor:
#      x y z
#    x 1.900870 -0.000110 0.008080 
#    y -0.000110 1.927460 -0.000650 
#    z 0.008080 -0.000650 1.920870 
# 
# From -- ./inp_files/304490.got.cif
#   From: 2010.05.17/outbox.cif.g08.bks.cpg/sg15_153_cif.got.tgz:304490.got - 2010.06.03 18:47:42.
