data_PCOD9283520
_publ_section_title
;
Structure prediction by ZEFSAII (Michael W. Deem and Ramdas Pophale) SiO2 
 PCOD9283520
Probable space group: C 2/C
;
_chemical_formula_sum "Si O2"
_cell_formula_units_Z 32
_cell_length_a 13.171893
_cell_length_b 5.315288
_cell_length_c 23.322413
_cell_angle_alpha 90.000000
_cell_angle_beta 126.504052
_cell_angle_gamma 90.000000
_cell_volume 1312.515591
_symmetry_space_group_name_H-M "C 2/C"
_symmetry_group_IT_number 15
_symmetry_cell_setting 'monoclinic'
loop_
_space_group_symop_operation_xyz
x,y,z
-x,y,1/2-z
-x,-y,-z
x,-y,1/2+z
1/2+x,1/2+y,z
1/2-x,1/2+y,1/2-z
1/2-x,1/2-y,-z
1/2+x,1/2-y,1/2+z
loop_
_atom_site_type_symbol
_atom_site_label
_atom_site_fract_x
_atom_site_fract_y
_atom_site_fract_z
Si Si1 0.745965 0.489515 0.555435
Si Si2 0.045208 0.378263 0.455494
Si Si3 0.147478 0.275070 0.301488
Si Si4 0.225198 0.728177 0.664773
O O1 0.849880 0.452283 0.541378
O O2 0.616028 0.613193 0.490666
O O3 0.806374 0.706661 0.617098
O O4 0.732688 0.274010 0.598015
O O5 0.000000 0.500000 0.500000
O O6 0.921292 0.334425 0.374939
O O7 0.222724 0.503613 0.296525
O O8 0.000000 0.322495 0.250000
O O9 0.185526 0.004063 0.291432
#
# Coordination Sequence:
#
# PCOD9283520 Si02
#       4
#     8   8   8   8
#     4   9  23  37  62  94 125 157 200 255 306 363
#     4  11  19  41  62  96 124 160 201 253 312 370
#     4  10  21  42  62  87 123 164 208 253 302 358
#     4  10  21  40  62  91 122 161 201 255 302 365
#
# _framework density 24.380661
#
# number of rings (size 3 to 8) (size 9 to 14) (size 15 to 20)
#    1.500    0.500    2.500    1.500    0.000    1.000 
#    9.000    2.500    0.000    0.000    0.000    0.000 
#    0.000    0.000    0.000    0.000    0.000    0.000 
#
# Total GULP energy -89381.227582 kJ/mol
# GULP energy per Si atom -5586.326724 kJ/mol
# Density = 2.432517 g / cm^3
# Si number density = 24.380661 Si / 1000 Ang^3
#
#
#
# Elastic Constant Matrix: (Units=GPa)
#
#
# Indices 1 2 3 4 5 6 
#
# 1 146.5752 18.7582 6.1185 0.0000 4.9866 0.0000
# 2 18.7582 112.7659 2.3435 0.0000 18.9904 0.0000
# 3 6.1185 2.3435 57.6877 0.0000 27.3745 0.0000
# 4 0.0000 0.0000 0.0000 -12.5308 0.0000 45.9915
# 5 4.9866 18.9904 27.3745 0.0000 52.7366 0.0000
# 6 0.0000 0.0000 0.0000 45.9915 0.0000 -2.2842
#
#
#
# Elastic Compliance Matrix: (Units=1/GPa)
#
#
# Indices 1 2 3 4 5 6 
#
# 1 0.007000 -0.001176 -0.000771 0.000000 0.000162 0.000000
# 2 -0.001176 0.009755 0.001781 0.000000 -0.004326 0.000000
# 3 -0.000771 0.001781 0.023371 0.000000 -0.012700 0.000000
# 4 0.000000 0.000000 0.000000 0.001095 0.000000 0.022041
# 5 0.000162 -0.004326 -0.012700 0.000000 0.027097 0.000000
# 6 0.000000 0.000000 0.000000 0.022041 0.000000 0.006005
#
#
# Mechanical properties :
#
#
# Convention : Reuss Voigt Hill
#
# Bulk Modulus (GPa) = 25.12958 41.27434 33.20196
# Shear Modulus (GPa) = 56.87105 26.90489 41.88797
#
# Velocity S-wave (km/s) = 4.83497 3.32555 4.14947
# Velocity P-wave (km/s) = 6.44196 5.63131 6.05022
#
# Compressibility (1/GPa) = 0.03979375
#
# Stress axis : x y z
#
# Youngs Moduli (GPa) = 142.86572 102.51111 42.78887
#
# Poissons Ratio (x) = 0.12051 0.03301
# Poissons Ratio (y) = 0.16795 -0.07622
# Poissons Ratio (z) = 0.11022 -0.18261
#
# Static dielectric constant tensor:
#      x y z
#    x 1.972790 0.000000 -0.092830 
#    y 0.000000 1.959090 0.000000 
#    z -0.092830 0.000000 1.913240 
# 
# From -- ./inp_files/290468.got.cif
#   From: 2010.05.17/outbox.cif.g08.bks.cpg/sg15_146_cif.got.tgz:290468.got - 2010.06.03 18:47:42.
