data_PCOD9283587
_publ_section_title
;
Structure prediction by ZEFSAII (Michael W. Deem and Ramdas Pophale) SiO2 
 PCOD9283587
Probable space group: C 2/C
;
_chemical_formula_sum "Si O2"
_cell_formula_units_Z 56
_cell_length_a 21.967560
_cell_length_b 26.277876
_cell_length_c 8.946298
_cell_angle_alpha 90.000000
_cell_angle_beta 35.499042
_cell_angle_gamma 90.000000
_cell_volume 2998.881442
_symmetry_space_group_name_H-M "C 2/C"
_symmetry_group_IT_number 15
_symmetry_cell_setting 'monoclinic'
loop_
_space_group_symop_operation_xyz
x,y,z
-x,y,1/2-z
-x,-y,-z
x,-y,1/2+z
1/2+x,1/2+y,z
1/2-x,1/2+y,1/2-z
1/2-x,1/2-y,-z
1/2+x,1/2-y,1/2+z
loop_
_atom_site_type_symbol
_atom_site_label
_atom_site_fract_x
_atom_site_fract_y
_atom_site_fract_z
Si Si1 0.024532 0.053614 0.874524
Si Si2 0.486971 0.156339 0.598249
Si Si3 0.956437 0.449995 0.668653
Si Si4 0.217158 0.699246 0.647500
Si Si5 0.188039 0.702419 0.052648
Si Si6 0.775635 0.087962 0.869526
Si Si7 0.903040 0.876741 0.844497
O O1 0.000000 0.052187 0.750000
O O2 0.144926 0.068315 0.664646
O O3 0.953452 0.094315 0.104888
O O4 0.000000 0.000000 0.000000
O O5 0.500000 0.156516 0.750000
O O6 0.507060 0.100118 0.493244
O O7 0.373478 0.172887 0.767381
O O8 0.575104 0.193712 0.353142
O O9 0.000000 0.447915 0.750000
O O10 0.000000 0.500000 0.500000
O O11 0.830347 0.444540 0.925281
O O12 0.250000 0.750000 0.500000
O O13 0.319876 0.664523 0.459000
O O14 0.177598 0.709298 0.895340
O O15 0.250000 0.750000 0.000000
O O16 0.246800 0.647597 0.953750
O O17 0.839287 0.086494 0.585649
O O18 0.000000 0.855640 0.750000
#
# Coordination Sequence:
#
# PCOD9283587 Si02
#       7
#     8   8   8   8   8   8   8
#     4  11  23  38  60  87 116 152 194 239 291 348
#     4  11  23  40  60  87 121 157 201 247 293 354
#     4  11  23  40  62  89 119 156 198 245 301 359
#     4  11  23  38  61  90 120 158 196 242 301 356
#     4  10  21  40  63  86 118 157 197 247 299 353
#     4   9  21  40  60  85 117 153 194 241 290 344
#     4   9  20  40  60  82 117 155 195 243 291 346
#
# _framework density 18.673628000000001
#
# number of rings (size 3 to 8) (size 9 to 14) (size 15 to 20)
#    0.000    1.714    0.000    5.571    0.000   10.857 
#    0.000    0.000    0.000    0.000    0.000    0.000 
#    0.000    0.000    0.000    0.000    0.000    0.000 
#
# Total GULP energy -156417.978397 kJ/mol
# GULP energy per Si atom -5586.356371 kJ/mol
# Density = 1.863113 g / cm^3
# Si number density = 18.673628 Si / 1000 Ang^3
#
#
#
# Elastic Constant Matrix: (Units=GPa)
#
#
# Indices 1 2 3 4 5 6 
#
# 1 214.6818 80.6387 102.3119 0.0000 1.9844 0.0000
# 2 80.6387 87.4455 58.0063 0.0000 -6.6148 0.0000
# 3 102.3119 58.0063 133.4080 0.0000 -15.8439 0.0000
# 4 0.0000 0.0000 0.0000 23.4219 0.0000 2.2095
# 5 1.9844 -6.6148 -15.8439 0.0000 37.6279 0.0000
# 6 0.0000 0.0000 0.0000 2.2095 0.0000 30.4316
#
#
#
# Elastic Compliance Matrix: (Units=1/GPa)
#
#
# Indices 1 2 3 4 5 6 
#
# 1 0.009112 -0.005278 -0.005116 0.000000 -0.003563 0.000000
# 2 -0.005278 0.019129 -0.004039 0.000000 0.001941 0.000000
# 3 -0.005116 -0.004039 0.013814 0.000000 0.005376 0.000000
# 4 0.000000 0.000000 0.000000 0.042989 0.000000 -0.003121
# 5 -0.003563 0.001941 0.005376 0.000000 0.029369 0.000000
# 6 0.000000 0.000000 0.000000 -0.003121 0.000000 0.033087
#
#
# Mechanical properties :
#
#
# Convention : Reuss Voigt Hill
#
# Bulk Modulus (GPa) = 75.82444 101.93878 88.88161
# Shear Modulus (GPa) = 27.66050 31.26818 29.46434
#
# Velocity S-wave (km/s) = 3.85289 4.09645 3.97654
# Velocity P-wave (km/s) = 7.77729 8.77968 8.29364
#
# Compressibility (1/GPa) = 0.01318836
#
# Stress axis : x y z
#
# Youngs Moduli (GPa) = 109.74777 52.27610 72.39055
#
# Poissons Ratio (x) = 0.27593 0.37035
# Poissons Ratio (y) = 0.57929 0.29238
# Poissons Ratio (z) = 0.56147 0.21114
#
# Static dielectric constant tensor:
#      x y z
#    x 1.615340 0.000000 0.003030 
#    y 0.000000 1.636790 0.000000 
#    z 0.003030 0.000000 1.646510 
# 
# From -- ./inp_files/52297.got.cif
#   From: 2010.05.17/outbox.cif.g08.bks.cpg/sg15_27_cif.got.tgz:52297.got - 2010.06.03 18:47:42.
