data_PCOD9283634
_publ_section_title
;
Structure prediction by ZEFSAII (Michael W. Deem and Ramdas Pophale) SiO2 
 PCOD9283634
Probable space group: C 2/C
;
_chemical_formula_sum "Si O2"
_cell_formula_units_Z 56
_cell_length_a 16.705887
_cell_length_b 20.330020
_cell_length_c 8.405583
_cell_angle_alpha 90.000000
_cell_angle_beta 60.801555
_cell_angle_gamma 90.000000
_cell_volume 2492.052865
_symmetry_space_group_name_H-M "C 2/C"
_symmetry_group_IT_number 15
_symmetry_cell_setting 'monoclinic'
loop_
_space_group_symop_operation_xyz
x,y,z
-x,y,1/2-z
-x,-y,-z
x,-y,1/2+z
1/2+x,1/2+y,z
1/2-x,1/2+y,1/2-z
1/2-x,1/2-y,-z
1/2+x,1/2-y,1/2+z
loop_
_atom_site_type_symbol
_atom_site_label
_atom_site_fract_x
_atom_site_fract_y
_atom_site_fract_z
Si Si1 0.110620 0.799948 0.160649
Si Si2 0.154268 0.004618 0.431029
Si Si3 0.720552 0.044922 0.927946
Si Si4 0.439544 0.946966 0.456944
Si Si5 0.897443 0.352066 0.781428
Si Si6 0.903137 0.134261 0.507269
Si Si7 0.614720 0.644771 0.322577
O O1 0.125517 0.724523 0.194059
O O2 0.141081 0.842441 0.284169
O O3 0.000000 0.811088 0.250000
O O4 0.149761 0.817300 0.946854
O O5 0.185460 0.033536 0.567939
O O6 0.129430 0.068096 0.352025
O O7 0.245766 0.966813 0.282304
O O8 0.084428 0.944909 0.508829
O O9 0.671332 0.109695 0.036166
O O10 0.645433 0.988282 0.026837
O O11 0.500000 0.922614 0.250000
O O12 0.401809 0.889787 0.608601
O O13 0.500000 0.000000 0.500000
O O14 0.000000 0.358789 0.750000
O O15 0.852686 0.154497 0.391678
O O16 0.006748 0.161140 0.412651
#
# Coordination Sequence:
#
# PCOD9283634 Si02
#       7
#     8   8   8   8   8   8   8
#     4   9  21  41  63  90 125 164 214 263 311 382
#     4  12  22  37  59  93 124 161 207 266 320 365
#     4  12  22  35  61  89 130 157 201 263 317 370
#     4  12  20  38  62  91 122 160 209 261 308 371
#     4  11  22  41  63  91 125 167 207 259 323 374
#     4  10  21  40  63  91 123 163 219 263 311 378
#     4  10  21  40  64  89 125 165 215 264 315 376
#
# _framework density 22.471433000000001
#
# number of rings (size 3 to 8) (size 9 to 14) (size 15 to 20)
#    0.000    1.143    5.714    1.286    0.000    0.000 
#    7.714    2.857    0.000    2.571    0.000    0.000 
#    0.000    0.000    0.000    0.000    0.000    0.000 
#
# Total GULP energy -156242.797413 kJ/mol
# GULP energy per Si atom -5580.099908 kJ/mol
# Density = 2.242029 g / cm^3
# Si number density = 22.471433 Si / 1000 Ang^3
#
#
#
# Elastic Constant Matrix: (Units=GPa)
#
#
# Indices 1 2 3 4 5 6 
#
# 1 57.6385 16.6563 26.1463 0.0000 24.8917 0.0000
# 2 16.6563 106.0899 59.9605 0.0000 30.1948 0.0000
# 3 26.1463 59.9605 145.5573 0.0000 31.7331 0.0000
# 4 0.0000 0.0000 0.0000 29.1227 0.0000 7.9497
# 5 24.8917 30.1948 31.7331 0.0000 43.2845 0.0000
# 6 0.0000 0.0000 0.0000 7.9497 0.0000 1.9107
#
#
#
# Elastic Compliance Matrix: (Units=1/GPa)
#
#
# Indices 1 2 3 4 5 6 
#
# 1 0.023431 0.001007 -0.001824 0.000000 -0.012839 0.000000
# 2 0.001007 0.013681 -0.004296 0.000000 -0.006973 0.000000
# 3 -0.001824 -0.004296 0.009624 0.000000 -0.003009 0.000000
# 4 0.000000 0.000000 0.000000 -0.252969 0.000000 1.052505
# 5 -0.012839 -0.006973 -0.003009 0.000000 0.037557 0.000000
# 6 0.000000 0.000000 0.000000 1.052505 0.000000 -3.855701
#
#
# Mechanical properties :
#
#
# Convention : Reuss Voigt Hill
#
# Bulk Modulus (GPa) = 27.39190 57.20133 42.29661
# Shear Modulus (GPa) = -1.24938 28.63176 13.69119
#
# Velocity S-wave (km/s) = -0.74645 3.57338 2.47102
# Velocity P-wave (km/s) = 3.38721 6.52195 5.19659
#
# Compressibility (1/GPa) = 0.03650714
#
# Stress axis : x y z
#
# Youngs Moduli (GPa) = 42.67861 73.09606 103.91006
#
# Poissons Ratio (x) = -0.07359 0.18958
# Poissons Ratio (y) = -0.04296 0.44643
# Poissons Ratio (z) = 0.07787 0.31404
#
# Static dielectric constant tensor:
#      x y z
#    x 1.869610 0.000000 0.018130 
#    y 0.000000 1.821460 0.000000 
#    z 0.018130 0.000000 1.968370 
# 
# From -- ./inp_files/49038.got.cif
#   From: 2010.05.17/outbox.cif.g08.bks.cpg/sg15_25_cif.got.tgz:49038.got - 2010.06.03 18:47:42.
