data_PCOD9283653
_publ_section_title
;
Structure prediction by ZEFSAII (Michael W. Deem and Ramdas Pophale) SiO2 
 PCOD9283653
Probable space group: C 2/C
;
_chemical_formula_sum "Si O2"
_cell_formula_units_Z 48
_cell_length_a 9.331404
_cell_length_b 10.450740
_cell_length_c 23.502178
_cell_angle_alpha 90.000000
_cell_angle_beta 88.648287
_cell_angle_gamma 90.000000
_cell_volume 2291.296422
_symmetry_space_group_name_H-M "C 2/C"
_symmetry_group_IT_number 15
_symmetry_cell_setting 'monoclinic'
loop_
_space_group_symop_operation_xyz
x,y,z
-x,y,1/2-z
-x,-y,-z
x,-y,1/2+z
1/2+x,1/2+y,z
1/2-x,1/2+y,1/2-z
1/2-x,1/2-y,-z
1/2+x,1/2-y,1/2+z
loop_
_atom_site_type_symbol
_atom_site_label
_atom_site_fract_x
_atom_site_fract_y
_atom_site_fract_z
Si Si1 0.352453 0.303228 0.281552
Si Si2 0.772568 0.298696 0.564266
Si Si3 0.773366 0.960702 0.120754
Si Si4 0.072524 0.966110 0.059294
Si Si5 0.172775 0.471593 0.747767
Si Si6 0.602377 0.198832 0.091450
O O1 0.500000 0.344412 0.250000
O O2 0.246224 0.423518 0.287638
O O3 0.386566 0.242592 0.342665
O O4 0.294178 0.180113 0.245927
O O5 0.750000 0.250000 0.500000
O O6 0.682087 0.424736 0.574265
O O7 0.938414 0.326701 0.575972
O O8 0.723325 0.179817 0.603187
O O9 0.697801 0.072699 0.084977
O O10 0.942005 0.962652 0.105512
O O11 0.734273 0.987259 0.185884
O O12 0.143640 0.826304 0.056666
O O13 0.000000 0.000000 0.000000
O O14 0.000000 0.481751 0.750000
#
# Coordination Sequence:
#
# PCOD9283653 Si02
#       6
#     8   8   8   8   8   8
#     4  10  21  40  63  92 126 161 204 256 318 373
#     4  11  22  42  62  88 129 167 207 261 309 360
#     4  10  23  41  62  95 123 162 214 254 313 381
#     4  11  22  41  60  87 126 165 212 255 305 366
#     4  10  23  41  64  93 128 158 205 258 315 380
#     4  10  23  39  61  93 125 164 211 259 311 370
#
# _framework density 20.948837000000001
#
# number of rings (size 3 to 8) (size 9 to 14) (size 15 to 20)
#    0.000    1.667    3.333    2.000    0.000   11.333 
#    0.000    0.000    0.000    0.000    0.000    0.000 
#    0.000    0.000    0.000    0.000    0.000    0.000 
#
# Total GULP energy -134075.843650 kJ/mol
# GULP energy per Si atom -5586.493485 kJ/mol
# Density = 2.090116 g / cm^3
# Si number density = 20.948837 Si / 1000 Ang^3
#
#
#
# Elastic Constant Matrix: (Units=GPa)
#
#
# Indices 1 2 3 4 5 6 
#
# 1 67.3855 60.8872 5.7232 0.0000 13.1425 0.0000
# 2 60.8872 157.3639 -6.4473 0.0000 26.1217 0.0000
# 3 5.7232 -6.4473 38.5420 0.0000 1.9228 0.0000
# 4 0.0000 0.0000 0.0000 33.7999 0.0000 12.6680
# 5 13.1425 26.1217 1.9228 0.0000 33.1974 0.0000
# 6 0.0000 0.0000 0.0000 12.6680 0.0000 44.2815
#
#
#
# Elastic Compliance Matrix: (Units=1/GPa)
#
#
# Indices 1 2 3 4 5 6 
#
# 1 0.023888 -0.009115 -0.004972 0.000000 -0.001997 0.000000
# 2 -0.009115 0.010877 0.003430 0.000000 -0.005148 0.000000
# 3 -0.004972 0.003430 0.027373 0.000000 -0.002316 0.000000
# 4 0.000000 0.000000 0.000000 0.033139 0.000000 -0.009480
# 5 -0.001997 -0.005148 -0.002316 0.000000 0.035099 0.000000
# 6 0.000000 0.000000 0.000000 -0.009480 0.000000 0.025295
#
#
# Mechanical properties :
#
#
# Convention : Reuss Voigt Hill
#
# Bulk Modulus (GPa) = 24.49609 42.62416 33.56013
# Shear Modulus (GPa) = 26.23402 35.79765 31.01584
#
# Velocity S-wave (km/s) = 3.54261 4.13826 3.85197
# Velocity P-wave (km/s) = 5.33405 6.57454 5.98652
#
# Compressibility (1/GPa) = 0.04082284
#
# Stress axis : x y z
#
# Youngs Moduli (GPa) = 41.86276 91.94088 36.53190
#
# Poissons Ratio (x) = 0.83803 0.18164
# Poissons Ratio (y) = 0.38157 -0.12530
# Poissons Ratio (z) = 0.20815 -0.31533
#
# Static dielectric constant tensor:
#      x y z
#    x 1.712900 0.000000 0.021540 
#    y 0.000000 1.789090 0.000000 
#    z 0.021540 0.000000 1.810320 
# 
# From -- ./inp_files/263166.got.cif
#   From: 2010.05.17/outbox.cif.g08.bks.cpg/sg15_132_cif.got.tgz:263166.got - 2010.06.03 18:47:42.
