data_PCOD9283556
_publ_section_title
;
Structure prediction by ZEFSAII (Michael W. Deem and Ramdas Pophale) SiO2 
 PCOD9283556
Probable space group: C 2/C
;
_chemical_formula_sum "Si O2"
_cell_formula_units_Z 48
_cell_length_a 18.991801
_cell_length_b 9.602134
_cell_length_c 23.956269
_cell_angle_alpha 90.000000
_cell_angle_beta 156.691877
_cell_angle_gamma 90.000000
_cell_volume 1728.591942
_symmetry_space_group_name_H-M "C 2/C"
_symmetry_group_IT_number 15
_symmetry_cell_setting 'monoclinic'
loop_
_space_group_symop_operation_xyz
x,y,z
-x,y,1/2-z
-x,-y,-z
x,-y,1/2+z
1/2+x,1/2+y,z
1/2-x,1/2+y,1/2-z
1/2-x,1/2-y,-z
1/2+x,1/2-y,1/2+z
loop_
_atom_site_type_symbol
_atom_site_label
_atom_site_fract_x
_atom_site_fract_y
_atom_site_fract_z
Si Si1 0.557368 0.307198 0.491671
Si Si2 0.262742 0.475216 0.159902
Si Si3 0.000000 0.103570 0.250000
Si Si4 0.807357 0.616436 0.079279
Si Si5 0.253861 0.607622 0.272574
Si Si6 0.961911 0.415117 0.099655
Si Si7 0.750000 0.250000 0.000000
O O1 0.653736 0.397628 0.513918
O O2 0.568797 0.362254 0.563268
O O3 0.373207 0.238396 0.336829
O O4 0.697851 0.180015 0.601111
O O5 0.441489 0.500516 0.256185
O O6 0.278217 0.523854 0.233735
O O7 0.107882 0.559342 0.013633
O O8 0.162745 0.204853 0.379007
O O9 0.833268 0.482300 0.056353
O O10 0.000000 0.633934 0.250000
O O11 0.750000 0.750000 0.000000
O O12 0.136841 0.508048 0.227929
O O13 0.955744 0.261302 0.118854
#
# Coordination Sequence:
#
# PCOD9283556 Si02
#       7
#     8   8   4   8   8   8   4
#     4  11  22  40  65  98 132 166 220 280 336 394
#     4  10  23  41  64  91 131 180 221 267 344 411
#     4  10  24  40  62  90 120 172 228 268 334 402
#     4  12  21  36  66 103 132 164 215 287 330 381
#     4  11  23  40  65  95 131 178 221 275 340 407
#     4  10  21  40  62  94 128 172 220 262 334 394
#     4  10  24  40  62  86 132 172 212 272 320 408
#
# _framework density 27.768263999999999
#
# number of rings (size 3 to 8) (size 9 to 14) (size 15 to 20)
#    0.000    1.333    5.000    2.000    2.333    6.667 
#    0.000    2.500    0.000    0.000    0.000    0.000 
#    0.000    0.000    0.000    0.000    0.000    0.000 
#
# Total GULP energy -133839.571436 kJ/mol
# GULP energy per Si atom -5576.648810 kJ/mol
# Density = 2.770506 g / cm^3
# Si number density = 27.768264 Si / 1000 Ang^3
#
#
#
# Elastic Constant Matrix: (Units=GPa)
#
#
# Indices 1 2 3 4 5 6 
#
# 1 141.8208 29.9982 28.1368 -0.0020 -20.8261 0.0002
# 2 29.9982 46.6171 33.6560 0.0064 -4.4131 0.0004
# 3 28.1368 33.6560 141.8374 0.0103 -23.8975 -0.0003
# 4 -0.0020 0.0064 0.0103 45.2379 -0.0001 1.0532
# 5 -20.8261 -4.4131 -23.8975 -0.0001 41.1117 -0.0008
# 6 0.0002 0.0004 -0.0003 1.0532 -0.0008 60.4698
#
#
#
# Elastic Compliance Matrix: (Units=1/GPa)
#
#
# Indices 1 2 3 4 5 6 
#
# 1 0.008734 -0.005402 0.000218 0.000001 0.003971 0.000000
# 2 -0.005402 0.029256 -0.006432 -0.000003 -0.003335 0.000000
# 3 0.000218 -0.006432 0.009351 -0.000001 0.004856 0.000000
# 4 0.000001 -0.000003 -0.000001 0.022114 0.000000 -0.000385
# 5 0.003971 -0.003335 0.004856 0.000000 0.028800 0.000000
# 6 0.000000 0.000000 0.000000 -0.000385 0.000000 0.016544
#
#
# Mechanical properties :
#
#
# Convention : Reuss Voigt Hill
#
# Bulk Modulus (GPa) = 41.47783 57.09528 49.28655
# Shear Modulus (GPa) = 34.23086 45.26281 39.74684
#
# Velocity S-wave (km/s) = 3.51484 4.04173 3.78746
# Velocity P-wave (km/s) = 5.60729 6.51051 6.07571
#
# Compressibility (1/GPa) = 0.02410926
#
# Stress axis : x y z
#
# Youngs Moduli (GPa) = 114.50030 34.18157 106.93531
#
# Poissons Ratio (x) = 0.18464 -0.02335
# Poissons Ratio (y) = 0.61850 0.68783
# Poissons Ratio (z) = -0.02500 0.21986
#
# Static dielectric constant tensor:
#      x y z
#    x 2.230720 0.000010 0.225420 
#    y 0.000010 1.862630 0.000000 
#    z 0.225420 0.000000 2.582610 
# 
# From -- ./inp_files/103854.got.cif
#   From: 2010.05.17/outbox.cif.g08.bks.cpg/sg15_52_cif.got.tgz:103854.got - 2010.06.03 18:47:42.
