data_PCOD9283819
_publ_section_title
;
Structure prediction by ZEFSAII (Michael W. Deem and Ramdas Pophale) SiO2 
 PCOD9283819
Probable space group: C 2/C
;
_chemical_formula_sum "Si O2"
_cell_formula_units_Z 48
_cell_length_a 12.158993
_cell_length_b 21.525326
_cell_length_c 10.393475
_cell_angle_alpha 90.000000
_cell_angle_beta 134.479814
_cell_angle_gamma 90.000000
_cell_volume 1940.888033
_symmetry_space_group_name_H-M "C 2/C"
_symmetry_group_IT_number 15
_symmetry_cell_setting 'monoclinic'
loop_
_space_group_symop_operation_xyz
x,y,z
-x,y,1/2-z
-x,-y,-z
x,-y,1/2+z
1/2+x,1/2+y,z
1/2-x,1/2+y,1/2-z
1/2-x,1/2-y,-z
1/2+x,1/2-y,1/2+z
loop_
_atom_site_type_symbol
_atom_site_label
_atom_site_fract_x
_atom_site_fract_y
_atom_site_fract_z
Si Si1 0.306288 0.127318 0.959492
Si Si2 0.822827 0.627236 0.266476
Si Si3 0.318569 0.995086 0.320310
Si Si4 0.312882 0.242480 0.792619
Si Si5 0.580598 0.539748 0.453331
Si Si6 0.086389 0.186029 0.455215
O O1 0.256599 0.063581 0.849727
O O2 0.259447 0.192649 0.856249
O O3 0.259891 0.124888 0.069470
O O4 0.492480 0.126889 0.096637
O O5 0.769944 0.566735 0.301914
O O6 0.765959 0.690589 0.278354
O O7 0.500000 0.000000 0.500000
O O8 0.261149 0.979440 0.127072
O O9 0.263634 0.205017 0.623492
O O10 0.487058 0.265300 0.958456
O O11 0.500000 0.527046 0.250000
O O12 0.500000 0.500000 0.500000
O O13 0.570539 0.613380 0.470995
O O14 0.000000 0.194521 0.250000
#
# Coordination Sequence:
#
# PCOD9283819 Si02
#       6
#     8   8   8   8   8   8
#     4  10  21  40  64  95 135 168 221 281 331 401
#     4  10  22  39  65  98 128 172 223 277 336 407
#     4  10  22  42  66  95 135 180 225 275 340 411
#     4  12  21  43  67  94 131 170 228 271 351 402
#     4  11  25  45  67 100 142 179 227 289 353 415
#     4  11  25  43  65  94 133 176 223 283 341 417
#
# _framework density 24.730948999999999
#
# number of rings (size 3 to 8) (size 9 to 14) (size 15 to 20)
#    0.000    1.333    3.333    2.000    2.333    0.000 
#    0.000    0.000    0.000    0.000    0.000    0.000 
#    0.000    0.000    0.000    0.000    0.000    0.000 
#
# Total GULP energy -133914.257842 kJ/mol
# GULP energy per Si atom -5579.760743 kJ/mol
# Density = 2.467466 g / cm^3
# Si number density = 24.730949 Si / 1000 Ang^3
#
#
#
# Elastic Constant Matrix: (Units=GPa)
#
#
# Indices 1 2 3 4 5 6 
#
# 1 38.6593 29.3870 20.2835 0.0000 -0.7158 0.0000
# 2 29.3870 226.5279 65.3384 0.0000 -5.1000 0.0000
# 3 20.2835 65.3384 167.6683 0.0000 -0.0399 0.0000
# 4 0.0000 0.0000 0.0000 59.4539 0.0000 -1.1617
# 5 -0.7158 -5.1000 -0.0399 0.0000 33.2336 0.0000
# 6 0.0000 0.0000 0.0000 -1.1617 0.0000 27.3699
#
#
#
# Elastic Compliance Matrix: (Units=1/GPa)
#
#
# Indices 1 2 3 4 5 6 
#
# 1 0.029490 -0.003147 -0.002341 0.000000 0.000149 0.000000
# 2 -0.003147 0.005329 -0.001696 0.000000 0.000748 0.000000
# 3 -0.002341 -0.001696 0.006908 0.000000 -0.000302 0.000000
# 4 0.000000 0.000000 0.000000 0.016834 0.000000 0.000714
# 5 0.000149 0.000748 -0.000302 0.000000 0.030208 0.000000
# 6 0.000000 0.000000 0.000000 0.000714 0.000000 0.036567
#
#
# Mechanical properties :
#
#
# Convention : Reuss Voigt Hill
#
# Bulk Modulus (GPa) = 36.55056 73.65258 55.10157
# Shear Modulus (GPa) = 33.59702 45.20126 39.39914
#
# Velocity S-wave (km/s) = 3.68978 4.27982 3.99571
# Velocity P-wave (km/s) = 5.74143 7.36673 6.60427
#
# Compressibility (1/GPa) = 0.02735936
#
# Stress axis : x y z
#
# Youngs Moduli (GPa) = 33.90941 187.66497 144.75836
#
# Poissons Ratio (x) = 0.59060 0.33890
# Poissons Ratio (y) = 0.10672 0.24545
# Poissons Ratio (z) = 0.07939 0.31821
#
# Static dielectric constant tensor:
#      x y z
#    x 2.088450 0.000000 0.075040 
#    y 0.000000 1.897110 0.000000 
#    z 0.075040 0.000000 2.118390 
# 
# From -- ./inp_files/100052.got.cif
#   From: 2010.05.17/outbox.cif.g08.bks.cpg/sg15_51_cif.got.tgz:100052.got - 2010.06.03 18:47:42.
