data_PCOD9283196
_publ_section_title
;
Structure prediction by ZEFSAII (Michael W. Deem and Ramdas Pophale) SiO2 
 PCOD9283196
Probable space group: C 2/C
;
_chemical_formula_sum "Si O2"
_cell_formula_units_Z 52
_cell_length_a 14.052926
_cell_length_b 17.804799
_cell_length_c 8.723914
_cell_angle_alpha 90.000000
_cell_angle_beta 89.745134
_cell_angle_gamma 90.000000
_cell_volume 2182.784763
_symmetry_space_group_name_H-M "C 2/C"
_symmetry_group_IT_number 15
_symmetry_cell_setting 'monoclinic'
loop_
_space_group_symop_operation_xyz
x,y,z
-x,y,1/2-z
-x,-y,-z
x,-y,1/2+z
1/2+x,1/2+y,z
1/2-x,1/2+y,1/2-z
1/2-x,1/2-y,-z
1/2+x,1/2-y,1/2+z
loop_
_atom_site_type_symbol
_atom_site_label
_atom_site_fract_x
_atom_site_fract_y
_atom_site_fract_z
Si Si1 0.282278 0.111150 0.652123
Si Si2 0.594551 0.562975 0.180361
Si Si3 0.500000 0.144283 0.250000
Si Si4 0.329816 0.262491 0.235916
Si Si5 0.122584 0.775495 0.603900
Si Si6 0.489181 0.870464 0.088351
Si Si7 0.722689 0.489701 0.418171
O O1 0.194041 0.169794 0.646341
O O2 0.378580 0.152080 0.603344
O O3 0.279576 0.040860 0.536700
O O4 0.276930 0.076355 0.825426
O O5 0.500000 0.526155 0.250000
O O6 0.581087 0.650970 0.176661
O O7 0.682467 0.543768 0.288607
O O8 0.631188 0.537367 0.014767
O O9 0.406856 0.198279 0.273458
O O10 0.508886 0.101491 0.413987
O O11 0.225279 0.234369 0.183723
O O12 0.367531 0.294765 0.075594
O O13 0.058226 0.701309 0.605347
O O14 0.500000 0.916282 0.250000
#
# Coordination Sequence:
#
# PCOD9283196 Si02
#       7
#     8   8   4   8   8   8   8
#     4  11  23  46  69  95 139 180 238 288 345 424
#     4  11  22  40  66  98 135 182 233 280 346 422
#     4  10  26  40  66 114 136 178 234 278 376 414
#     4  10  21  40  66  99 141 174 220 297 345 415
#     4  10  21  39  69 100 136 180 219 287 363 404
#     4  11  23  44  70 101 143 180 230 295 356 417
#     4  10  25  43  63  97 135 192 231 280 343 413
#
# _framework density 23.822780999999999
#
# number of rings (size 3 to 8) (size 9 to 14) (size 15 to 20)
#    0.000    1.538    3.077    0.923    2.154    4.308 
#    8.308    0.769    0.000    0.000    0.000    0.000 
#    0.000    0.000    0.000    0.000    0.000    0.000 
#
# Total GULP energy -144899.514006 kJ/mol
# GULP energy per Si atom -5573.058231 kJ/mol
# Density = 2.376856 g / cm^3
# Si number density = 23.822781 Si / 1000 Ang^3
#
#
#
# Elastic Constant Matrix: (Units=GPa)
#
#
# Indices 1 2 3 4 5 6 
#
# 1 95.3966 5.8700 25.2364 0.0000 -20.4728 0.0000
# 2 5.8700 29.3356 26.5873 0.0000 -2.8423 0.0000
# 3 25.2364 26.5873 159.8637 0.0000 -16.4373 0.0000
# 4 0.0000 0.0000 0.0000 5.1943 0.0000 -14.1477
# 5 -20.4728 -2.8423 -16.4373 0.0000 31.3695 0.0000
# 6 0.0000 0.0000 0.0000 -14.1477 0.0000 -26.0285
#
#
#
# Elastic Compliance Matrix: (Units=1/GPa)
#
#
# Indices 1 2 3 4 5 6 
#
# 1 0.012416 -0.000801 -0.001058 0.000000 0.007476 0.000000
# 2 -0.000801 0.040191 -0.006592 0.000000 -0.000336 0.000000
# 3 -0.001058 -0.006592 0.007807 0.000000 0.002803 0.000000
# 4 0.000000 0.000000 0.000000 0.077614 0.000000 -0.042187
# 5 0.007476 -0.000336 0.002803 0.000000 0.038196 0.000000
# 6 0.000000 0.000000 0.000000 -0.042187 0.000000 -0.015489
#
#
# Mechanical properties :
#
#
# Convention : Reuss Voigt Hill
#
# Bulk Modulus (GPa) = 22.98273 44.44259 33.71266
# Shear Modulus (GPa) = 26.02250 17.23388 21.62819
#
# Velocity S-wave (km/s) = 3.30864 2.69256 3.01637
# Velocity P-wave (km/s) = 4.92589 5.32565 5.12967
#
# Compressibility (1/GPa) = 0.04351093
#
# Stress axis : x y z
#
# Youngs Moduli (GPa) = 80.53984 24.88138 128.09138
#
# Poissons Ratio (x) = 0.01993 0.13553
# Poissons Ratio (y) = 0.06452 0.84441
# Poissons Ratio (z) = 0.08522 0.16402
#
# Static dielectric constant tensor:
#      x y z
#    x 1.912280 0.000000 0.013570 
#    y 0.000000 1.894170 0.000000 
#    z 0.013570 0.000000 2.001470 
# 
# From -- ./inp_files/40837.got.cif
#   From: 2010.05.17/outbox.cif.g08.bks.cpg/sg15_21_cif.got.tgz:40837.got - 2010.06.03 18:47:42.
