data_PCOD9283741
_publ_section_title
;
Structure prediction by ZEFSAII (Michael W. Deem and Ramdas Pophale) SiO2 
 PCOD9283741
Probable space group: C 2/C
;
_chemical_formula_sum "Si O2"
_cell_formula_units_Z 56
_cell_length_a 8.975983
_cell_length_b 22.835297
_cell_length_c 17.240756
_cell_angle_alpha 90.000000
_cell_angle_beta 40.598554
_cell_angle_gamma 90.000000
_cell_volume 2299.654231
_symmetry_space_group_name_H-M "C 2/C"
_symmetry_group_IT_number 15
_symmetry_cell_setting 'monoclinic'
loop_
_space_group_symop_operation_xyz
x,y,z
-x,y,1/2-z
-x,-y,-z
x,-y,1/2+z
1/2+x,1/2+y,z
1/2-x,1/2+y,1/2-z
1/2-x,1/2-y,-z
1/2+x,1/2-y,1/2+z
loop_
_atom_site_type_symbol
_atom_site_label
_atom_site_fract_x
_atom_site_fract_y
_atom_site_fract_z
Si Si1 0.894940 0.568377 0.708736
Si Si2 0.525855 0.058278 0.390095
Si Si3 0.757775 0.719050 0.622720
Si Si4 0.781575 0.102025 0.437670
Si Si5 0.938803 0.777983 0.688487
Si Si6 0.578358 0.823997 0.601186
Si Si7 0.049294 0.979781 0.139898
O O1 0.619605 0.571546 0.823280
O O2 0.000000 0.581566 0.750000
O O3 0.905046 0.499165 0.683398
O O4 0.053428 0.598752 0.581253
O O5 0.707650 0.086125 0.378288
O O6 0.441348 0.109297 0.367290
O O7 0.309793 0.039374 0.526426
O O8 0.500000 0.701806 0.750000
O O9 0.933467 0.729062 0.623523
O O10 0.735686 0.783429 0.591690
O O11 0.840837 0.678929 0.519909
O O12 0.910623 0.164031 0.388122
O O13 0.942758 0.046284 0.397976
O O14 0.673222 0.796576 0.795894
O O15 0.000000 0.755660 0.750000
O O16 0.000000 0.982660 0.250000
#
# Coordination Sequence:
#
# PCOD9283741 Si02
#       7
#     8   8   8   8   8   8   8
#     4  11  24  38  57  91 135 161 206 265 307 354
#     4  11  21  36  62  90 114 168 217 246 300 384
#     4   9  22  42  62  90 126 157 201 271 318 375
#     4  11  21  38  60  90 125 164 212 255 301 379
#     4  11  21  37  67  92 119 164 207 258 314 374
#     4  10  21  40  64  90 121 160 211 256 317 373
#     4  11  19  35  60  81 121 167 200 245 303 364
#
# _framework density 24.351488
#
# number of rings (size 3 to 8) (size 9 to 14) (size 15 to 20)
#    0.000    1.429    4.286    2.143    0.000    7.429 
#    0.000    0.000    3.143    0.000    0.000    0.000 
#    0.000    0.000    0.000    0.000    0.000    0.000 
#
# Total GULP energy -156565.941610 kJ/mol
# GULP energy per Si atom -5591.640772 kJ/mol
# Density = 2.429606 g / cm^3
# Si number density = 24.351488 Si / 1000 Ang^3
#
#
#
# Elastic Constant Matrix: (Units=GPa)
#
#
# Indices 1 2 3 4 5 6 
#
# 1 94.4253 22.7552 17.7615 0.0000 7.3260 0.0000
# 2 22.7552 72.1391 7.3675 -0.0001 3.1098 0.0000
# 3 17.7615 7.3675 85.0851 -0.0002 -3.2687 0.0001
# 4 0.0000 -0.0001 -0.0002 15.9390 0.0000 -7.4098
# 5 7.3260 3.1098 -3.2687 0.0000 36.5457 0.0000
# 6 0.0000 0.0000 0.0001 -7.4098 0.0000 15.7890
#
#
#
# Elastic Compliance Matrix: (Units=1/GPa)
#
#
# Indices 1 2 3 4 5 6 
#
# 1 0.012038 -0.003462 -0.002302 0.000000 -0.002325 0.000000
# 2 -0.003462 0.015043 -0.000605 0.000000 -0.000640 0.000000
# 3 -0.002302 -0.000605 0.012348 0.000000 0.001617 0.000000
# 4 0.000000 0.000000 0.000000 0.080247 0.000000 0.037660
# 5 -0.002325 -0.000640 0.001617 0.000000 0.028028 0.000000
# 6 0.000000 0.000000 0.000000 0.037660 0.000000 0.081009
#
#
# Mechanical properties :
#
#
# Convention : Reuss Voigt Hill
#
# Bulk Modulus (GPa) = 37.46471 38.60200 38.03335
# Shear Modulus (GPa) = 19.97214 27.23909 23.60562
#
# Velocity S-wave (km/s) = 2.86695 3.34815 3.11685
# Velocity P-wave (km/s) = 5.13591 5.55277 5.34840
#
# Compressibility (1/GPa) = 0.02669179
#
# Stress axis : x y z
#
# Youngs Moduli (GPa) = 83.06958 66.47414 80.98436
#
# Poissons Ratio (x) = 0.23013 0.18647
# Poissons Ratio (y) = 0.28758 0.04896
# Poissons Ratio (z) = 0.19127 0.04019
#
# Static dielectric constant tensor:
#      x y z
#    x 2.016070 0.000000 -0.078110 
#    y 0.000000 1.971850 0.000000 
#    z -0.078110 0.000000 2.008270 
# 
# From -- ./inp_files/81253.got.cif
#   From: 2010.05.17/outbox.cif.g08.bks.cpg/sg15_41_cif.got.tgz:81253.got - 2010.06.03 18:47:42.
