data_PCOD9283874
_publ_section_title
;
Structure prediction by ZEFSAII (Michael W. Deem and Ramdas Pophale) SiO2 
 PCOD9283874
Probable space group: C 2/C
;
_chemical_formula_sum "Si O2"
_cell_formula_units_Z 40
_cell_length_a 22.390794
_cell_length_b 7.371978
_cell_length_c 20.281636
_cell_angle_alpha 90.000000
_cell_angle_beta 25.681181
_cell_angle_gamma 90.000000
_cell_volume 1450.802975
_symmetry_space_group_name_H-M "C 2/C"
_symmetry_group_IT_number 15
_symmetry_cell_setting 'monoclinic'
loop_
_space_group_symop_operation_xyz
x,y,z
-x,y,1/2-z
-x,-y,-z
x,-y,1/2+z
1/2+x,1/2+y,z
1/2-x,1/2+y,1/2-z
1/2-x,1/2-y,-z
1/2+x,1/2-y,1/2+z
loop_
_atom_site_type_symbol
_atom_site_label
_atom_site_fract_x
_atom_site_fract_y
_atom_site_fract_z
Si Si1 0.420377 0.089515 0.001980
Si Si2 0.153952 0.324991 0.785675
Si Si3 0.855581 0.501668 0.927934
Si Si4 0.849392 0.077865 0.975923
Si Si5 0.566712 0.449304 0.861223
O O1 0.547370 0.233315 0.880014
O O2 0.497252 0.896403 0.931931
O O3 0.347679 0.107302 0.004438
O O4 0.322584 0.138837 0.160722
O O5 0.245943 0.423867 0.641033
O O6 0.174843 0.114489 0.750665
O O7 0.726097 0.523835 0.008704
O O8 0.000000 0.551269 0.750000
O O9 0.867075 0.285295 0.933267
O O10 0.985067 0.999817 0.874293
O O11 0.500000 0.500000 0.000000
#
# Coordination Sequence:
#
# PCOD9283874 Si02
#       5
#     8   8   8   8   8
#     4  10  21  40  65  89 135 168 210 288 317 379
#     4  10  21  43  64  94 131 171 220 271 335 379
#     4  11  22  42  66  97 137 177 218 268 329 395
#     4  11  22  40  71  93 131 183 217 263 338 401
#     4  10  22  42  62  97 129 162 221 275 325 388
#
# _framework density 27.57094
#
# number of rings (size 3 to 8) (size 9 to 14) (size 15 to 20)
#    0.000    1.600    4.000    0.000    0.000    4.000 
#    3.600    5.000    0.000    0.000    0.000    0.000 
#    0.000    0.000    0.000    0.000    0.000    0.000 
#
# Total GULP energy -111920.774815 kJ/mol
# GULP energy per Si atom -5596.038741 kJ/mol
# Density = 2.750819 g / cm^3
# Si number density = 27.570940 Si / 1000 Ang^3
#
#
#
# Elastic Constant Matrix: (Units=GPa)
#
#
# Indices 1 2 3 4 5 6 
#
# 1 218.5486 50.0352 25.2911 -0.0001 28.8547 -0.0003
# 2 50.0352 89.1045 3.3258 -0.0017 1.7303 0.0008
# 3 25.2911 3.3258 89.9557 -0.0008 37.4621 0.0005
# 4 -0.0001 -0.0017 -0.0008 37.3927 0.0002 1.3767
# 5 28.8547 1.7303 37.4621 0.0002 36.7751 0.0001
# 6 -0.0003 0.0008 0.0005 1.3767 0.0001 57.2853
#
#
#
# Elastic Compliance Matrix: (Units=1/GPa)
#
#
# Indices 1 2 3 4 5 6 
#
# 1 0.005924 -0.003249 0.000567 0.000000 -0.005073 0.000000
# 2 -0.003249 0.013021 -0.000650 0.000001 0.002599 0.000000
# 3 0.000567 -0.000650 0.019372 0.000001 -0.020148 0.000000
# 4 0.000000 0.000001 0.000001 0.026767 -0.000001 -0.000643
# 5 -0.005073 0.002599 -0.020148 -0.000001 0.051575 0.000000
# 6 0.000000 0.000000 0.000000 -0.000643 0.000000 0.017472
#
#
# Mechanical properties :
#
#
# Convention : Reuss Voigt Hill
#
# Bulk Modulus (GPa) = 31.59316 61.65700 46.62508
# Shear Modulus (GPa) = 33.03709 47.55440 40.29574
#
# Velocity S-wave (km/s) = 3.46534 4.15758 3.82714
# Velocity P-wave (km/s) = 5.24359 6.74232 6.03962
#
# Compressibility (1/GPa) = 0.03165242
#
# Stress axis : x y z
#
# Youngs Moduli (GPa) = 168.81695 76.79912 51.62117
#
# Poissons Ratio (x) = 0.24952 -0.02928
# Poissons Ratio (y) = 0.54848 0.03357
# Poissons Ratio (z) = -0.09576 0.04994
#
# Static dielectric constant tensor:
#      x y z
#    x 2.253620 0.000000 -0.211380 
#    y 0.000000 2.103930 0.000000 
#    z -0.211380 0.000000 2.389150 
# 
# From -- ./inp_files/214149.got.cif
#   From: 2010.05.17/outbox.cif.g08.bks.cpg/sg15_108_cif.got.tgz:214149.got - 2010.06.03 18:47:42.
