data_PCOD9283107
_publ_section_title
;
Structure prediction by ZEFSAII (Michael W. Deem and Ramdas Pophale) SiO2 
 PCOD9283107
Probable space group: C 2/C
;
_chemical_formula_sum "Si O2"
_cell_formula_units_Z 56
_cell_length_a 14.598650
_cell_length_b 19.727342
_cell_length_c 13.639429
_cell_angle_alpha 90.000000
_cell_angle_beta 134.655819
_cell_angle_gamma 90.000000
_cell_volume 2794.188491
_symmetry_space_group_name_H-M "C 2/C"
_symmetry_group_IT_number 15
_symmetry_cell_setting 'monoclinic'
loop_
_space_group_symop_operation_xyz
x,y,z
-x,y,1/2-z
-x,-y,-z
x,-y,1/2+z
1/2+x,1/2+y,z
1/2-x,1/2+y,1/2-z
1/2-x,1/2-y,-z
1/2+x,1/2-y,1/2+z
loop_
_atom_site_type_symbol
_atom_site_label
_atom_site_fract_x
_atom_site_fract_y
_atom_site_fract_z
Si Si1 0.674377 0.112108 0.759526
Si Si2 0.704221 0.814131 0.731938
Si Si3 0.144758 0.748461 0.835201
Si Si4 0.823239 0.860846 0.023210
Si Si5 0.387971 0.674978 0.785651
Si Si6 0.427628 0.932311 0.979825
Si Si7 0.350702 0.006147 0.115045
O O1 0.641650 0.168595 0.813600
O O2 0.797184 0.134751 0.791462
O O3 0.548303 0.114013 0.598069
O O4 0.688974 0.040001 0.822566
O O5 0.801035 0.786381 0.720735
O O6 0.601596 0.752689 0.668808
O O7 0.653084 0.887038 0.656154
O O8 0.765623 0.823846 0.884936
O O9 0.000000 0.772568 0.750000
O O10 0.250000 0.750000 0.000000
O O11 0.820601 0.825641 0.127944
O O12 0.976255 0.863035 0.118654
O O13 0.744245 0.931086 0.971596
O O14 0.352894 0.957727 0.020585
O O15 0.500000 0.000000 0.000000
O O16 0.500000 0.027185 0.250000
#
# Coordination Sequence:
#
# PCOD9283107 Si02
#       7
#     8   8   8   8   8   8   8
#     4  10  21  39  67  93 129 170 220 275 327 385
#     4  11  24  40  70  94 131 172 221 274 338 400
#     4  11  23  39  66  99 138 172 220 278 339 401
#     4  11  24  44  60  95 134 173 224 265 330 407
#     4  10  25  42  63  92 136 173 217 273 336 392
#     4  11  22  41  68  99 126 168 224 278 331 393
#     4  10  21  41  68  97 129 172 226 275 327 392
#
# _framework density 20.041596999999999
#
# number of rings (size 3 to 8) (size 9 to 14) (size 15 to 20)
#    0.000    1.429    0.000    6.000    8.000    0.571 
#    7.714    1.429    3.143    0.000    0.000    0.000 
#    0.000    0.000    0.000    0.000    0.000    0.000 
#
# Total GULP energy -156192.916601 kJ/mol
# GULP energy per Si atom -5578.318450 kJ/mol
# Density = 1.999598 g / cm^3
# Si number density = 20.041597 Si / 1000 Ang^3
#
#
#
# Elastic Constant Matrix: (Units=GPa)
#
#
# Indices 1 2 3 4 5 6 
#
# 1 98.4615 53.5712 24.5203 0.0000 9.5770 0.0000
# 2 53.5712 103.2992 58.0956 0.0000 6.4921 0.0000
# 3 24.5203 58.0956 95.2084 0.0000 5.9260 0.0000
# 4 0.0000 0.0000 0.0000 36.4391 0.0000 -18.0917
# 5 9.5770 6.4921 5.9260 0.0000 21.5966 0.0000
# 6 0.0000 0.0000 0.0000 -18.0917 0.0000 13.0573
#
#
#
# Elastic Compliance Matrix: (Units=1/GPa)
#
#
# Indices 1 2 3 4 5 6 
#
# 1 0.014657 -0.008152 0.001476 0.000000 -0.004454 0.000000
# 2 -0.008152 0.019357 -0.009741 0.000000 0.000469 0.000000
# 3 0.001476 -0.009741 0.016202 0.000000 -0.002172 0.000000
# 4 0.000000 0.000000 0.000000 0.087937 0.000000 0.121842
# 5 -0.004454 0.000469 -0.002172 0.000000 0.048734 0.000000
# 6 0.000000 0.000000 0.000000 0.121842 0.000000 0.245405
#
#
# Mechanical properties :
#
#
# Convention : Reuss Voigt Hill
#
# Bulk Modulus (GPa) = 57.52590 63.26037 60.39313
# Shear Modulus (GPa) = 10.61753 24.93740 17.77746
#
# Velocity S-wave (km/s) = 2.30418 3.53127 2.98153
# Velocity P-wave (km/s) = 5.98703 6.94691 6.48475
#
# Compressibility (1/GPa) = 0.01738348
#
# Stress axis : x y z
#
# Youngs Moduli (GPa) = 68.22707 51.66053 61.71936
#
# Poissons Ratio (x) = 0.42111 -0.09113
# Poissons Ratio (y) = 0.55616 0.60123
# Poissons Ratio (z) = -0.10074 0.50325
#
# Static dielectric constant tensor:
#      x y z
#    x 1.706290 0.000000 -0.064510 
#    y 0.000000 1.709550 0.000000 
#    z -0.064510 0.000000 1.650840 
# 
# From -- ./inp_files/156227.got.cif
#   From: 2010.05.17/outbox.cif.g08.bks.cpg/sg15_79_cif.got.tgz:156227.got - 2010.06.03 18:47:42.
