data_PCOD9283957
_publ_section_title
;
Structure prediction by ZEFSAII (Michael W. Deem and Ramdas Pophale) SiO2 
 PCOD9283957
Probable space group: C 2/C
;
_chemical_formula_sum "Si O2"
_cell_formula_units_Z 52
_cell_length_a 19.951233
_cell_length_b 10.959497
_cell_length_c 17.225353
_cell_angle_alpha 90.000000
_cell_angle_beta 138.804090
_cell_angle_gamma 90.000000
_cell_volume 2480.697404
_symmetry_space_group_name_H-M "C 2/C"
_symmetry_group_IT_number 15
_symmetry_cell_setting 'monoclinic'
loop_
_space_group_symop_operation_xyz
x,y,z
-x,y,1/2-z
-x,-y,-z
x,-y,1/2+z
1/2+x,1/2+y,z
1/2-x,1/2+y,1/2-z
1/2-x,1/2-y,-z
1/2+x,1/2-y,1/2+z
loop_
_atom_site_type_symbol
_atom_site_label
_atom_site_fract_x
_atom_site_fract_y
_atom_site_fract_z
Si Si1 0.500000 0.344462 0.250000
Si Si2 0.656628 0.707647 0.667432
Si Si3 0.360498 0.861830 0.699705
Si Si4 0.371775 0.371940 0.003192
Si Si5 0.430531 0.135152 0.528321
Si Si6 0.000000 0.000000 0.000000
Si Si7 0.000000 0.568840 0.750000
Si Si8 0.123013 0.629313 0.581988
O O1 0.588007 0.255350 0.295085
O O2 0.553776 0.418007 0.364650
O O3 0.640387 0.824559 0.710428
O O4 0.643987 0.761662 0.570339
O O5 0.564782 0.612661 0.597258
O O6 0.765653 0.652433 0.784650
O O7 0.244885 0.880756 0.574064
O O8 0.424393 0.979097 0.731130
O O9 0.390392 0.230467 0.997195
O O10 0.394462 0.449087 0.946539
O O11 0.446970 0.142872 0.634627
O O12 0.536992 0.148695 0.573119
O O13 0.389468 0.002011 0.468307
#
# Coordination Sequence:
#
# PCOD9283957 Si02
#       8
#     4   8   8   8   8   4   4   8
#     4  11  18  38  59  94 126 161 208 269 322 382
#     4  11  24  41  69  95 128 168 225 274 324 383
#     4  10  21  40  65  96 124 165 218 276 317 377
#     4  11  23  39  63  94 131 167 215 266 331 382
#     4  11  22  42  65  98 126 172 217 270 328 387
#     4  12  24  42  60  94 132 172 210 276 320 394
#     4  11  24  40  67  98 140 169 216 271 326 406
#     4  10  22  40  69  92 123 167 223 276 313 381
#
# _framework density 20.961846999999999
#
# number of rings (size 3 to 8) (size 9 to 14) (size 15 to 20)
#    0.000    1.231    3.077    4.154    6.462    1.231 
#    0.000    1.538    0.000    0.000    0.000    0.000 
#    0.000    0.000    0.000    0.000    0.000    0.000 
#
# Total GULP energy -144784.210603 kJ/mol
# GULP energy per Si atom -5568.623485 kJ/mol
# Density = 2.091414 g / cm^3
# Si number density = 20.961847 Si / 1000 Ang^3
#
#
#
# Elastic Constant Matrix: (Units=GPa)
#
#
# Indices 1 2 3 4 5 6 
#
# 1 59.6074 16.0390 41.7527 0.0000 10.5057 0.0000
# 2 16.0390 17.7317 41.2017 0.0000 0.5226 0.0000
# 3 41.7527 41.2017 150.8295 0.0000 -2.5124 0.0000
# 4 0.0000 0.0000 0.0000 21.0705 0.0000 0.0150
# 5 10.5057 0.5226 -2.5124 0.0000 43.4438 0.0000
# 6 0.0000 0.0000 0.0000 0.0150 0.0000 2.6888
#
#
#
# Elastic Compliance Matrix: (Units=1/GPa)
#
#
# Indices 1 2 3 4 5 6 
#
# 1 0.023663 -0.015872 -0.002309 0.000000 -0.005665 0.000000
# 2 -0.015872 0.165851 -0.040920 0.000000 -0.000523 0.000000
# 3 -0.002309 -0.040920 0.018483 0.000000 0.002120 0.000000
# 4 0.000000 0.000000 0.000000 0.047460 0.000000 -0.000265
# 5 -0.005665 -0.000523 0.002120 0.000000 0.024517 0.000000
# 6 0.000000 0.000000 0.000000 -0.000265 0.000000 0.371910
#
#
# Mechanical properties :
#
#
# Convention : Reuss Voigt Hill
#
# Bulk Modulus (GPa) = 11.13652 47.35061 29.24356
# Shear Modulus (GPa) = 6.24986 22.05229 14.15108
#
# Velocity S-wave (km/s) = 1.72859 3.24701 2.60106
# Velocity P-wave (km/s) = 3.05095 6.05767 4.79602
#
# Compressibility (1/GPa) = 0.08979467
#
# Stress axis : x y z
#
# Youngs Moduli (GPa) = 42.25995 6.02951 54.10485
#
# Poissons Ratio (x) = 0.09570 0.12494
# Poissons Ratio (y) = 0.67073 2.21398
# Poissons Ratio (z) = 0.09759 0.24673
#
# Static dielectric constant tensor:
#      x y z
#    x 1.737770 0.000000 0.010630 
#    y 0.000000 1.687100 0.000000 
#    z 0.010630 0.000000 1.783790 
# 
# From -- ./inp_files/167579.got.cif
#   From: 2010.05.17/outbox.cif.g08.bks.cpg/sg15_84_cif.got.tgz:167579.got - 2010.06.03 18:47:42.
