data_PCOD9283545
_publ_section_title
;
Structure prediction by ZEFSAII (Michael W. Deem and Ramdas Pophale) SiO2 
 PCOD9283545
Probable space group: C 2/C
;
_chemical_formula_sum "Si O2"
_cell_formula_units_Z 32
_cell_length_a 11.777505
_cell_length_b 16.175190
_cell_length_c 8.796153
_cell_angle_alpha 90.000000
_cell_angle_beta 95.020861
_cell_angle_gamma 90.000000
_cell_volume 1669.267069
_symmetry_space_group_name_H-M "C 2/C"
_symmetry_group_IT_number 15
_symmetry_cell_setting 'monoclinic'
loop_
_space_group_symop_operation_xyz
x,y,z
-x,y,1/2-z
-x,-y,-z
x,-y,1/2+z
1/2+x,1/2+y,z
1/2-x,1/2+y,1/2-z
1/2-x,1/2-y,-z
1/2+x,1/2-y,1/2+z
loop_
_atom_site_type_symbol
_atom_site_label
_atom_site_fract_x
_atom_site_fract_y
_atom_site_fract_z
Si Si1 0.618929 0.344969 0.685476
Si Si2 0.673072 0.114997 0.104785
Si Si3 0.298336 0.954704 0.575532
Si Si4 0.543797 0.831083 0.084804
O O1 0.500000 0.367725 0.750000
O O2 0.716106 0.334628 0.827234
O O3 0.672908 0.415439 0.584965
O O4 0.600858 0.258984 0.597084
O O5 0.645204 0.061557 0.253169
O O6 0.566222 0.167105 0.037108
O O7 0.702418 0.048344 0.978766
O O8 0.130910 0.600699 0.534189
O O9 0.500000 0.848323 0.250000
#
# Coordination Sequence:
#
# PCOD9283545 Si02
#       4
#     8   8   8   8
#     4   9  23  39  62  90 127 164 203 249 311 372
#     4  10  22  38  66  88 125 160 208 251 309 357
#     4  10  21  40  62  93 124 160 206 256 307 361
#     4  11  21  38  64  93 124 157 208 260 307 358
#
# _framework density 19.170090999999999
#
# number of rings (size 3 to 8) (size 9 to 14) (size 15 to 20)
#    1.500    0.500    0.000    3.750    0.000    5.000 
#    0.000    0.000    0.000    0.000    0.000    0.000 
#    0.000    0.000    0.000    0.000    0.000    0.000 
#
# Total GULP energy -89147.088628 kJ/mol
# GULP energy per Si atom -5571.693039 kJ/mol
# Density = 1.912646 g / cm^3
# Si number density = 19.170091 Si / 1000 Ang^3
#
#
#
# Elastic Constant Matrix: (Units=GPa)
#
#
# Indices 1 2 3 4 5 6 
#
# 1 82.6916 34.5887 7.2138 0.0000 22.5358 0.0000
# 2 34.5887 70.9894 31.8581 0.0000 33.9049 0.0000
# 3 7.2138 31.8581 84.9782 0.0000 15.2922 0.0000
# 4 0.0000 0.0000 0.0000 21.8615 0.0000 -10.7269
# 5 22.5358 33.9049 15.2922 0.0000 31.8384 0.0000
# 6 0.0000 0.0000 0.0000 -10.7269 0.0000 -4.8943
#
#
#
# Elastic Compliance Matrix: (Units=1/GPa)
#
#
# Indices 1 2 3 4 5 6 
#
# 1 0.015989 -0.005696 0.001886 0.000000 -0.006158 0.000000
# 2 -0.005696 0.033516 -0.006988 0.000000 -0.028303 0.000000
# 3 0.001886 -0.006988 0.014371 0.000000 -0.000796 0.000000
# 4 0.000000 0.000000 0.000000 0.022040 0.000000 -0.048306
# 5 -0.006158 -0.028303 -0.000796 0.000000 0.066289 0.000000
# 6 0.000000 0.000000 0.000000 -0.048306 0.000000 -0.098448
#
#
# Mechanical properties :
#
#
# Convention : Reuss Voigt Hill
#
# Bulk Modulus (GPa) = 23.65223 42.88672 33.26947
# Shear Modulus (GPa) = 55.89926 20.76102 38.33014
#
# Velocity S-wave (km/s) = 5.40582 3.29445 4.47640
# Velocity P-wave (km/s) = 7.16441 6.07383 6.64155
#
# Compressibility (1/GPa) = 0.04227932
#
# Stress axis : x y z
#
# Youngs Moduli (GPa) = 62.54167 29.83676 69.58635
#
# Poissons Ratio (x) = 0.16996 -0.13126
# Poissons Ratio (y) = 0.35625 0.48628
# Poissons Ratio (z) = -0.11797 0.20851
#
# Static dielectric constant tensor:
#      x y z
#    x 1.670910 0.000000 -0.006660 
#    y 0.000000 1.659670 0.000000 
#    z -0.006660 0.000000 1.687270 
# 
# From -- ./inp_files/84545.got.cif
#   From: 2010.05.17/outbox.cif.g08.bks.cpg/sg15_43_cif.got.tgz:84545.got - 2010.06.03 18:47:42.
