data_PCOD9283294
_publ_section_title
;
Structure prediction by ZEFSAII (Michael W. Deem and Ramdas Pophale) SiO2 
 PCOD9283294
Probable space group: C 2/C
;
_chemical_formula_sum "Si O2"
_cell_formula_units_Z 44
_cell_length_a 7.033840
_cell_length_b 17.264261
_cell_length_c 24.695420
_cell_angle_alpha 90.000000
_cell_angle_beta 51.367008
_cell_angle_gamma 90.000000
_cell_volume 2342.596574
_symmetry_space_group_name_H-M "C 2/C"
_symmetry_group_IT_number 15
_symmetry_cell_setting 'monoclinic'
loop_
_space_group_symop_operation_xyz
x,y,z
-x,y,1/2-z
-x,-y,-z
x,-y,1/2+z
1/2+x,1/2+y,z
1/2-x,1/2+y,1/2-z
1/2-x,1/2-y,-z
1/2+x,1/2-y,1/2+z
loop_
_atom_site_type_symbol
_atom_site_label
_atom_site_fract_x
_atom_site_fract_y
_atom_site_fract_z
Si Si1 0.656762 0.946280 0.431807
Si Si2 0.951899 0.089921 0.353719
Si Si3 0.070180 0.818144 0.049286
Si Si4 0.739678 0.780773 0.813362
Si Si5 0.277123 0.342946 0.000149
Si Si6 0.000000 0.350695 0.750000
O O1 0.805761 0.885924 0.440314
O O2 0.461071 0.890143 0.438031
O O3 0.500000 0.000000 0.500000
O O4 0.841960 0.003620 0.368511
O O5 0.821137 0.141113 0.330648
O O6 0.862701 0.124962 0.427085
O O7 0.245876 0.101098 0.300838
O O8 0.879243 0.776067 0.122198
O O9 0.250000 0.750000 0.000000
O O10 0.971665 0.854616 0.011984
O O11 0.564566 0.800492 0.793072
O O12 0.000000 0.746324 0.750000
O O13 0.250000 0.250000 0.000000
#
# Coordination Sequence:
#
# PCOD9283294 Si02
#       6
#     8   8   8   8   8   4
#     4  10  23  37  56  92 126 153 195 249 300 359
#     4  10  21  40  58  89 124 158 203 248 304 363
#     4  12  21  36  65  95 121 157 204 249 306 361
#     4  10  22  39  61  88 118 159 209 251 297 369
#     4  11  20  36  64  92 122 153 194 256 304 353
#     4  10  22  38  68  78 120 168 206 240 312 360
#
# _framework density 18.782575999999999
#
# number of rings (size 3 to 8) (size 9 to 14) (size 15 to 20)
#    0.000    1.455    3.636    2.182    0.000    4.364 
#    1.636    0.000    6.000    0.000    0.000    0.000 
#    0.000    0.000    0.000    0.000    0.000    0.000 
#
# Total GULP energy -122600.685737 kJ/mol
# GULP energy per Si atom -5572.758443 kJ/mol
# Density = 1.873983 g / cm^3
# Si number density = 18.782576 Si / 1000 Ang^3
#
#
#
# Elastic Constant Matrix: (Units=GPa)
#
#
# Indices 1 2 3 4 5 6 
#
# 1 105.5267 16.9629 14.6860 -0.0002 11.1040 0.0003
# 2 16.9629 90.6097 23.4228 -0.0001 -13.8640 0.0001
# 3 14.6860 23.4228 85.8222 -0.0002 -4.9962 0.0002
# 4 -0.0002 -0.0001 -0.0002 25.8255 0.0002 -2.5396
# 5 11.1040 -13.8640 -4.9962 0.0002 32.3629 -0.0002
# 6 0.0003 0.0001 0.0002 -2.5396 -0.0002 32.0285
#
#
#
# Elastic Compliance Matrix: (Units=1/GPa)
#
#
# Indices 1 2 3 4 5 6 
#
# 1 0.010566 -0.002346 -0.001450 0.000000 -0.004854 0.000000
# 2 -0.002346 0.013124 -0.002832 0.000000 0.005990 0.000000
# 3 -0.001450 -0.002832 0.012746 0.000000 0.001252 0.000000
# 4 0.000000 0.000000 0.000000 0.039026 0.000000 0.003094
# 5 -0.004854 0.005990 0.001252 0.000000 0.035324 0.000000
# 6 0.000000 0.000000 0.000000 0.003094 0.000000 0.031468
#
#
# Mechanical properties :
#
#
# Convention : Reuss Voigt Hill
#
# Bulk Modulus (GPa) = 43.14060 43.56689 43.35375
# Shear Modulus (GPa) = 30.63046 33.16918 31.89982
#
# Velocity S-wave (km/s) = 4.04269 4.20689 4.12560
# Velocity P-wave (km/s) = 6.69398 6.84419 6.76950
#
# Compressibility (1/GPa) = 0.02318002
#
# Stress axis : x y z
#
# Youngs Moduli (GPa) = 94.64336 76.19617 78.45640
#
# Poissons Ratio (x) = 0.17874 0.11380
# Poissons Ratio (y) = 0.22202 0.22217
# Poissons Ratio (z) = 0.13727 0.21577
#
# Static dielectric constant tensor:
#      x y z
#    x 1.666960 0.000000 -0.019130 
#    y 0.000000 1.634610 0.000000 
#    z -0.019130 0.000000 1.700650 
# 
# From -- ./inp_files/260828.got.cif
#   From: 2010.05.17/outbox.cif.g08.bks.cpg/sg15_131_cif.got.tgz:260828.got - 2010.06.03 18:47:42.
