data_PCOD9283856
_publ_section_title
;
Structure prediction by ZEFSAII (Michael W. Deem and Ramdas Pophale) SiO2 
 PCOD9283856
Probable space group: C 2/C
;
_chemical_formula_sum "Si O2"
_cell_formula_units_Z 56
_cell_length_a 21.749274
_cell_length_b 5.491665
_cell_length_c 20.102397
_cell_angle_alpha 90.000000
_cell_angle_beta 68.511485
_cell_angle_gamma 90.000000
_cell_volume 2234.132008
_symmetry_space_group_name_H-M "C 2/C"
_symmetry_group_IT_number 15
_symmetry_cell_setting 'monoclinic'
loop_
_space_group_symop_operation_xyz
x,y,z
-x,y,1/2-z
-x,-y,-z
x,-y,1/2+z
1/2+x,1/2+y,z
1/2-x,1/2+y,1/2-z
1/2-x,1/2-y,-z
1/2+x,1/2-y,1/2+z
loop_
_atom_site_type_symbol
_atom_site_label
_atom_site_fract_x
_atom_site_fract_y
_atom_site_fract_z
Si Si1 0.133505 0.394590 0.627050
Si Si2 0.474560 0.435832 0.323393
Si Si3 0.272520 0.555495 0.548114
Si Si4 0.345389 0.209423 0.127472
Si Si5 0.410431 0.986648 0.718129
Si Si6 0.041984 0.878934 0.909093
Si Si7 0.606438 0.188057 0.997120
O O1 0.210077 0.381970 0.582078
O O2 0.112537 0.554114 0.698616
O O3 0.098651 0.450415 0.570011
O O4 0.099790 0.141706 0.660300
O O5 0.500000 0.586491 0.250000
O O6 0.477328 0.535500 0.396460
O O7 0.527621 0.206604 0.303516
O O8 0.250000 0.750000 0.500000
O O9 0.282532 0.675429 0.616840
O O10 0.340366 0.405116 0.510094
O O11 0.404961 0.405996 0.102566
O O12 0.348058 0.130706 0.203074
O O13 0.360949 0.989809 0.070440
O O14 0.430565 0.198895 0.659357
O O15 0.040515 0.760025 0.982169
#
# Coordination Sequence:
#
# PCOD9283856 Si02
#       7
#     8   8   8   8   8   8   8
#     4  11  22  39  62  96 124 164 209 262 315 380
#     4   9  20  39  60  90 128 156 206 261 309 375
#     4  11  22  40  60  91 128 170 211 260 320 373
#     4   9  19  41  61  84 126 164 206 260 313 373
#     4   9  20  42  60  88 125 159 206 259 315 372
#     4   9  19  40  65  85 123 167 199 259 316 371
#     4  10  21  40  65  86 128 168 209 264 314 373
#
# _framework density 25.065660999999999
#
# number of rings (size 3 to 8) (size 9 to 14) (size 15 to 20)
#    0.000    2.286    1.429    0.429    0.000    2.286 
#   18.000    6.429    0.000    0.000    0.000    0.000 
#    0.000    0.000    0.000    0.000    0.000    0.000 
#
# Total GULP energy -156101.652284 kJ/mol
# GULP energy per Si atom -5575.059010 kJ/mol
# Density = 2.500861 g / cm^3
# Si number density = 25.065661 Si / 1000 Ang^3
#
#
#
# Elastic Constant Matrix: (Units=GPa)
#
#
# Indices 1 2 3 4 5 6 
#
# 1 129.4816 36.4970 60.3226 0.0021 21.7989 -0.0037
# 2 36.4970 56.3087 24.3669 0.0083 14.1462 0.0047
# 3 60.3226 24.3669 180.2482 0.0003 36.7144 0.0017
# 4 0.0021 0.0083 0.0003 21.4751 0.0005 12.1388
# 5 21.7989 14.1462 36.7144 0.0005 46.7419 0.0006
# 6 -0.0037 0.0047 0.0017 12.1388 0.0006 50.0437
#
#
#
# Elastic Compliance Matrix: (Units=1/GPa)
#
#
# Indices 1 2 3 4 5 6 
#
# 1 0.010686 -0.005487 -0.002569 0.000000 -0.001306 0.000001
# 2 -0.005487 0.022476 -0.000402 -0.000008 -0.003928 -0.000001
# 3 -0.002569 -0.000402 0.007373 0.000001 -0.004471 -0.000001
# 4 0.000000 -0.000008 0.000001 0.053965 0.000001 -0.013090
# 5 -0.001306 -0.003928 -0.004471 0.000001 0.026704 0.000000
# 6 0.000001 -0.000001 -0.000001 -0.013090 0.000000 0.023158
#
#
# Mechanical properties :
#
#
# Convention : Reuss Voigt Hill
#
# Bulk Modulus (GPa) = 42.33727 67.60127 54.96927
# Shear Modulus (GPa) = 29.55960 39.97559 34.76759
#
# Velocity S-wave (km/s) = 3.43780 3.99787 3.72837
# Velocity P-wave (km/s) = 5.71709 6.95261 6.36490
#
# Compressibility (1/GPa) = 0.02361985
#
# Stress axis : x y z
#
# Youngs Moduli (GPa) = 93.57941 44.49125 135.63612
#
# Poissons Ratio (x) = 0.24411 0.34839
# Poissons Ratio (y) = 0.51345 0.05456
# Poissons Ratio (z) = 0.24037 0.01790
#
# Static dielectric constant tensor:
#      x y z
#    x 2.035670 0.000000 0.029750 
#    y 0.000000 2.235670 -0.000010 
#    z 0.029750 -0.000010 2.047190 
# 
# From -- ./inp_files/254337.got.cif
#   From: 2010.05.17/outbox.cif.g08.bks.cpg/sg15_128_cif.got.tgz:254337.got - 2010.06.03 18:47:42.
