data_PCOD9283346
_publ_section_title
;
Structure prediction by ZEFSAII (Michael W. Deem and Ramdas Pophale) SiO2 
 PCOD9283346
Probable space group: C 2/C
;
_chemical_formula_sum "Si O2"
_cell_formula_units_Z 32
_cell_length_a 9.242221
_cell_length_b 9.799923
_cell_length_c 15.303852
_cell_angle_alpha 90.000000
_cell_angle_beta 81.643081
_cell_angle_gamma 90.000000
_cell_volume 1371.398683
_symmetry_space_group_name_H-M "C 2/C"
_symmetry_group_IT_number 15
_symmetry_cell_setting 'monoclinic'
loop_
_space_group_symop_operation_xyz
x,y,z
-x,y,1/2-z
-x,-y,-z
x,-y,1/2+z
1/2+x,1/2+y,z
1/2-x,1/2+y,1/2-z
1/2-x,1/2-y,-z
1/2+x,1/2-y,1/2+z
loop_
_atom_site_type_symbol
_atom_site_label
_atom_site_fract_x
_atom_site_fract_y
_atom_site_fract_z
Si Si1 0.453252 0.846113 0.168615
Si Si2 0.960551 0.678733 0.027517
Si Si3 0.882754 0.805052 0.336893
Si Si4 0.635848 0.393088 0.593756
O O1 0.500000 0.931701 0.250000
O O2 0.283963 0.805088 0.181204
O O3 0.559272 0.714848 0.163819
O O4 0.493637 0.896043 0.066750
O O5 0.086045 0.698804 0.087734
O O6 0.809670 0.625786 0.080297
O O7 0.918412 0.831997 0.994328
O O8 0.000000 0.784508 0.250000
O O9 0.903727 0.955819 0.375604
#
# Coordination Sequence:
#
# PCOD9283346 Si02
#       4
#     8   8   8   8
#     4  10  21  40  60  86 125 155 195 251 291 346
#     4   9  21  43  62  86 122 156 197 249 293 354
#     4  12  23  36  63  91 117 159 204 236 298 359
#     4   9  21  41  61  84 121 153 194 248 299 340
#
# _framework density 23.333841
#
# number of rings (size 3 to 8) (size 9 to 14) (size 15 to 20)
#    1.500    0.500    0.000    3.750    0.000    1.000 
#    0.000    6.250    0.000    0.000    0.000    0.000 
#    0.000    0.000    0.000    0.000    0.000    0.000 
#
# Total GULP energy -89246.680787 kJ/mol
# GULP energy per Si atom -5577.917549 kJ/mol
# Density = 2.328073 g / cm^3
# Si number density = 23.333841 Si / 1000 Ang^3
#
#
#
# Elastic Constant Matrix: (Units=GPa)
#
#
# Indices 1 2 3 4 5 6 
#
# 1 123.7647 -4.4768 55.7571 0.0000 -10.0150 0.0000
# 2 -4.4768 60.9830 27.5119 0.0000 -5.0344 0.0000
# 3 55.7571 27.5119 130.5646 0.0000 -5.3591 0.0000
# 4 0.0000 0.0000 0.0000 18.0810 0.0000 -5.0155
# 5 -10.0150 -5.0344 -5.3591 0.0000 48.7013 0.0000
# 6 0.0000 0.0000 0.0000 -5.0155 0.0000 21.8443
#
#
#
# Elastic Compliance Matrix: (Units=1/GPa)
#
#
# Indices 1 2 3 4 5 6 
#
# 1 0.010690 0.003282 -0.005176 0.000000 0.001968 0.000000
# 2 0.003282 0.019232 -0.005369 0.000000 0.002072 0.000000
# 3 -0.005176 -0.005369 0.010984 0.000000 -0.000411 0.000000
# 4 0.000000 0.000000 0.000000 0.059069 0.000000 0.013562
# 5 0.001968 0.002072 -0.000411 0.000000 0.021107 0.000000
# 6 0.000000 0.000000 0.000000 0.013562 0.000000 0.048892
#
#
# Mechanical properties :
#
#
# Convention : Reuss Voigt Hill
#
# Bulk Modulus (GPa) = 37.90713 52.54409 45.22561
# Shear Modulus (GPa) = 25.86751 33.49332 29.68042
#
# Velocity S-wave (km/s) = 3.33315 3.79277 3.57037
# Velocity P-wave (km/s) = 5.57620 6.46123 6.03496
#
# Compressibility (1/GPa) = 0.02638026
#
# Stress axis : x y z
#
# Youngs Moduli (GPa) = 93.54938 51.99594 91.04296
#
# Poissons Ratio (x) = -0.17066 0.47122
# Poissons Ratio (y) = -0.30705 0.48882
# Poissons Ratio (z) = 0.48419 0.27917
#
# Static dielectric constant tensor:
#      x y z
#    x 1.808200 0.000000 0.051870 
#    y 0.000000 1.929260 0.000000 
#    z 0.051870 0.000000 2.016040 
# 
# From -- ./inp_files/131992.got.cif
#   From: 2010.05.17/outbox.cif.g08.bks.cpg/sg15_66_cif.got.tgz:131992.got - 2010.06.03 18:47:42.
