data_PCOD9283860
_publ_section_title
;
Structure prediction by ZEFSAII (Michael W. Deem and Ramdas Pophale) SiO2 
 PCOD9283860
Probable space group: C 2/C
;
_chemical_formula_sum "Si O2"
_cell_formula_units_Z 56
_cell_length_a 8.945898
_cell_length_b 26.236391
_cell_length_c 14.493093
_cell_angle_alpha 90.000000
_cell_angle_beta 118.912571
_cell_angle_gamma 90.000000
_cell_volume 2977.659641
_symmetry_space_group_name_H-M "C 2/C"
_symmetry_group_IT_number 15
_symmetry_cell_setting 'monoclinic'
loop_
_space_group_symop_operation_xyz
x,y,z
-x,y,1/2-z
-x,-y,-z
x,-y,1/2+z
1/2+x,1/2+y,z
1/2-x,1/2+y,1/2-z
1/2-x,1/2-y,-z
1/2+x,1/2-y,1/2+z
loop_
_atom_site_type_symbol
_atom_site_label
_atom_site_fract_x
_atom_site_fract_y
_atom_site_fract_z
Si Si1 0.320599 0.436867 0.730143
Si Si2 0.678471 0.972859 0.073690
Si Si3 0.697179 0.488604 0.575912
Si Si4 0.146399 0.333695 0.718029
Si Si5 0.990193 0.774435 0.855906
Si Si6 0.135474 0.683186 0.008776
Si Si7 0.455399 0.085844 0.635008
O O1 0.500000 0.413453 0.750000
O O2 0.293789 0.482204 0.649001
O O3 0.299729 0.462124 0.824247
O O4 0.189228 0.390807 0.696445
O O5 0.630172 0.933805 0.139124
O O6 0.500000 0.000000 0.000000
O O7 0.745100 0.954453 0.994766
O O8 0.500000 0.500000 0.500000
O O9 0.821088 0.538587 0.608932
O O10 0.316643 0.307302 0.811556
O O11 0.095407 0.309095 0.605072
O O12 0.000000 0.333129 0.750000
O O13 0.012124 0.721702 0.916958
O O14 0.000000 0.763456 0.750000
O O15 0.162284 0.804115 0.937527
O O16 0.114293 0.627841 0.956313
O O17 0.500000 0.105848 0.750000
#
# Coordination Sequence:
#
# PCOD9283860 Si02
#       7
#     8   8   8   8   8   8   8
#     4  12  23  39  58  85 123 164 207 255 289 371
#     4  10  22  36  53  79 118 154 196 242 293 349
#     4  11  23  36  57  82 118 162 200 244 299 344
#     4  11  25  37  62  93 122 158 202 252 315 363
#     4   9  20  42  66  90 117 152 203 255 305 372
#     4  10  21  40  65  88 119 158 203 251 309 367
#     4  11  22  37  58  89 118 156 200 246 299 367
#
# _framework density 18.806716000000002
#
# number of rings (size 3 to 8) (size 9 to 14) (size 15 to 20)
#    0.000    1.429    2.857    3.429    8.000    0.571 
#    0.000    0.000    0.000    0.857    0.000    0.000 
#    0.000    0.000    0.000    0.000    0.000    0.000 
#
# Total GULP energy -156038.863679 kJ/mol
# GULP energy per Si atom -5572.816560 kJ/mol
# Density = 1.876391 g / cm^3
# Si number density = 18.806716 Si / 1000 Ang^3
#
#
#
# Elastic Constant Matrix: (Units=GPa)
#
#
# Indices 1 2 3 4 5 6 
#
# 1 114.5600 17.4645 29.7132 0.0000 -24.2825 0.0000
# 2 17.4645 54.3257 18.6371 0.0000 -3.1873 0.0000
# 3 29.7132 18.6371 79.2927 0.0000 -9.4856 0.0000
# 4 0.0000 0.0000 0.0000 38.2159 0.0000 3.1025
# 5 -24.2825 -3.1873 -9.4856 0.0000 26.5055 0.0000
# 6 0.0000 0.0000 0.0000 3.1025 0.0000 -3.4620
#
#
#
# Elastic Compliance Matrix: (Units=1/GPa)
#
#
# Indices 1 2 3 4 5 6 
#
# 1 0.011819 -0.002297 -0.002744 0.000000 0.009570 0.000000
# 2 -0.002297 0.020483 -0.004086 0.000000 -0.001103 0.000000
# 3 -0.002744 -0.004086 0.014878 0.000000 0.002319 0.000000
# 4 0.000000 0.000000 0.000000 0.024392 0.000000 0.021860
# 5 0.009570 -0.001103 0.002319 0.000000 0.047192 0.000000
# 6 0.000000 0.000000 0.000000 0.021860 0.000000 -0.269261
#
#
# Mechanical properties :
#
#
# Convention : Reuss Voigt Hill
#
# Bulk Modulus (GPa) = 34.57068 42.20088 38.38578
# Shear Modulus (GPa) = -40.78296 24.40945 -8.18675
#
# Velocity S-wave (km/s) = -4.66180 3.60656 -2.08867
# Velocity P-wave (km/s) = 3.24877 6.31118 3.82600
#
# Compressibility (1/GPa) = 0.02892625
#
# Stress axis : x y z
#
# Youngs Moduli (GPa) = 84.60629 48.82162 67.21510
#
# Poissons Ratio (x) = 0.11213 0.18447
# Poissons Ratio (y) = 0.19431 0.27462
# Poissons Ratio (z) = 0.23220 0.19947
#
# Static dielectric constant tensor:
#      x y z
#    x 1.663190 0.000000 -0.030200 
#    y 0.000000 1.640190 0.000000 
#    z -0.030200 0.000000 1.706370 
# 
# From -- ./inp_files/137444.got.cif
#   From: 2010.05.17/outbox.cif.g08.bks.cpg/sg15_69_cif.got.tgz:137444.got - 2010.06.03 18:47:42.
