data_PCOD9283966
_publ_section_title
;
Structure prediction by ZEFSAII (Michael W. Deem and Ramdas Pophale) SiO2 
 PCOD9283966
Probable space group: C 2/C
;
_chemical_formula_sum "Si O2"
_cell_formula_units_Z 64
_cell_length_a 10.894702
_cell_length_b 22.133218
_cell_length_c 11.989724
_cell_angle_alpha 90.000000
_cell_angle_beta 66.779341
_cell_angle_gamma 90.000000
_cell_volume 2656.937989
_symmetry_space_group_name_H-M "C 2/C"
_symmetry_group_IT_number 15
_symmetry_cell_setting 'monoclinic'
loop_
_space_group_symop_operation_xyz
x,y,z
-x,y,1/2-z
-x,-y,-z
x,-y,1/2+z
1/2+x,1/2+y,z
1/2-x,1/2+y,1/2-z
1/2-x,1/2-y,-z
1/2+x,1/2-y,1/2+z
loop_
_atom_site_type_symbol
_atom_site_label
_atom_site_fract_x
_atom_site_fract_y
_atom_site_fract_z
Si Si1 0.582367 0.376671 0.380285
Si Si2 0.368519 0.106981 0.020421
Si Si3 0.886879 0.486330 0.699773
Si Si4 0.189302 0.014261 0.951835
Si Si5 0.255690 0.580489 0.887841
Si Si6 0.644136 0.677629 0.241464
Si Si7 0.198347 0.183879 0.482941
Si Si8 0.820608 0.704234 0.889675
O O1 0.575784 0.437552 0.458904
O O2 0.640146 0.397452 0.241530
O O3 0.451989 0.334963 0.425426
O O4 0.702864 0.337583 0.386901
O O5 0.424193 0.067807 0.103361
O O6 0.250382 0.143051 0.127327
O O7 0.306853 0.057067 0.959502
O O8 0.423129 0.160373 0.919664
O O9 0.748527 0.481263 0.820560
O O10 0.861794 0.546428 0.635790
O O11 0.000000 0.491997 0.750000
O O12 0.171804 0.967566 0.057908
O O13 0.212178 0.635255 0.982491
O O14 0.500000 0.654320 0.250000
O O15 0.688255 0.672719 0.354184
O O16 0.637379 0.749726 0.221432
O O17 0.250000 0.250000 0.500000
O O18 0.750000 0.750000 0.000000
#
# Coordination Sequence:
#
# PCOD9283966 Si02
#       8
#     8   8   8   8   8   8   8   8
#     4  10  21  42  65  91 134 177 216 275 347 411
#     4   9  19  37  60  89 127 167 217 276 332 399
#     4  10  21  40  65  96 136 179 224 278 338 404
#     4   9  19  39  65  95 129 169 222 275 335 408
#     4  10  22  40  65  99 135 176 226 279 340 408
#     4  11  22  40  64  91 127 172 226 282 336 401
#     4  12  25  42  64  94 132 171 221 280 335 401
#     4   9  18  37  61  88 122 171 225 268 326 399
#
# _framework density 24.087878
#
# number of rings (size 3 to 8) (size 9 to 14) (size 15 to 20)
#    0.000    2.000    0.000    4.125    0.000    2.500 
#    0.000   33.750    0.000    0.000    0.000    0.000 
#    0.000    0.000    0.000    0.000    0.000    0.000 
#
# Total GULP energy -178671.912749 kJ/mol
# GULP energy per Si atom -5583.497273 kJ/mol
# Density = 2.403305 g / cm^3
# Si number density = 24.087878 Si / 1000 Ang^3
#
#
#
# Elastic Constant Matrix: (Units=GPa)
#
#
# Indices 1 2 3 4 5 6 
#
# 1 97.2235 43.4464 15.7639 0.0000 22.8836 0.0000
# 2 43.4464 150.6320 58.4933 0.0000 18.4445 0.0000
# 3 15.7639 58.4933 120.2255 0.0000 22.9707 0.0000
# 4 0.0000 0.0000 0.0000 51.5739 0.0000 10.2394
# 5 22.8836 18.4445 22.9707 0.0000 40.3946 0.0000
# 6 0.0000 0.0000 0.0000 10.2394 0.0000 25.2266
#
#
#
# Elastic Compliance Matrix: (Units=1/GPa)
#
#
# Indices 1 2 3 4 5 6 
#
# 1 0.013187 -0.003470 0.001216 0.000000 -0.006578 0.000000
# 2 -0.003470 0.009198 -0.004031 0.000000 0.000059 0.000000
# 3 0.001216 -0.004031 0.011106 0.000000 -0.005164 0.000000
# 4 0.000000 0.000000 0.000000 0.021089 0.000000 -0.008560
# 5 -0.006578 0.000059 -0.005164 0.000000 0.031392 0.000000
# 6 0.000000 0.000000 0.000000 -0.008560 0.000000 0.043115
#
#
# Mechanical properties :
#
#
# Convention : Reuss Voigt Hill
#
# Bulk Modulus (GPa) = 47.80025 67.05424 57.42724
# Shear Modulus (GPa) = 33.64014 40.13085 36.88550
#
# Velocity S-wave (km/s) = 3.74111 4.08612 3.91741
# Velocity P-wave (km/s) = 6.20874 7.08234 6.65988
#
# Compressibility (1/GPa) = 0.02092039
#
# Stress axis : x y z
#
# Youngs Moduli (GPa) = 75.82986 108.72059 90.04004
#
# Poissons Ratio (x) = 0.37731 -0.10950
# Poissons Ratio (y) = 0.26316 0.36297
# Poissons Ratio (z) = -0.09222 0.43827
#
# Static dielectric constant tensor:
#      x y z
#    x 1.205110 0.000000 -0.111450 
#    y 0.000000 1.859370 0.000000 
#    z -0.111450 0.000000 1.959460 
# 
# From -- ./inp_files/91256.got.cif
#   From: 2010.05.17/outbox.cif.g08.bks.cpg/sg15_46_cif.got.tgz:91256.got - 2010.06.03 18:47:42.
