data_PCOD9283877
_publ_section_title
;
Structure prediction by ZEFSAII (Michael W. Deem and Ramdas Pophale) SiO2 
 PCOD9283877
Probable space group: C 2/C
;
_chemical_formula_sum "Si O2"
_cell_formula_units_Z 48
_cell_length_a 20.305154
_cell_length_b 7.552031
_cell_length_c 25.705440
_cell_angle_alpha 90.000000
_cell_angle_beta 149.708230
_cell_angle_gamma 90.000000
_cell_volume 1988.260439
_symmetry_space_group_name_H-M "C 2/C"
_symmetry_group_IT_number 15
_symmetry_cell_setting 'monoclinic'
loop_
_space_group_symop_operation_xyz
x,y,z
-x,y,1/2-z
-x,-y,-z
x,-y,1/2+z
1/2+x,1/2+y,z
1/2-x,1/2+y,1/2-z
1/2-x,1/2-y,-z
1/2+x,1/2-y,1/2+z
loop_
_atom_site_type_symbol
_atom_site_label
_atom_site_fract_x
_atom_site_fract_y
_atom_site_fract_z
Si Si1 0.368779 0.841661 0.627022
Si Si2 0.508406 0.554633 0.862561
Si Si3 0.207222 0.495696 0.158121
Si Si4 0.629203 0.309972 0.541951
Si Si5 0.759890 0.598723 0.699836
Si Si6 0.971918 0.687660 0.671141
O O1 0.500000 0.856427 0.750000
O O2 0.402980 0.687445 0.610235
O O3 0.250908 0.804650 0.584990
O O4 0.362641 0.035475 0.596549
O O5 0.356353 0.555271 0.743001
O O6 0.555003 0.355637 0.883392
O O7 0.516631 0.615127 0.928034
O O8 0.114210 0.381447 0.057620
O O9 0.201225 0.436572 0.214075
O O10 0.198940 0.706913 0.149903
O O11 0.669316 0.446242 0.614421
O O12 0.894944 0.601340 0.759691
O O13 0.000000 0.748027 0.750000
#
# Coordination Sequence:
#
# PCOD9283877 Si02
#       6
#     8   8   8   8   8   8
#     4  11  20  40  68  90 128 166 205 254 311 371
#     4  11  25  39  65  95 128 160 212 257 305 372
#     4  11  24  43  66  87 128 168 205 256 315 363
#     4  12  24  42  64  96 124 166 209 255 312 368
#     4  11  22  41  65  89 120 168 208 252 307 373
#     4  10  21  40  65  90 123 168 205 254 314 364
#
# _framework density 24.141707
#
# number of rings (size 3 to 8) (size 9 to 14) (size 15 to 20)
#    0.000    1.000    6.667    1.000    2.333    2.667 
#    0.000    0.833    0.000    0.000    0.000    0.000 
#    0.000    0.000    0.000    0.000    0.000    0.000 
#
# Total GULP energy -134430.277033 kJ/mol
# GULP energy per Si atom -5601.261543 kJ/mol
# Density = 2.408676 g / cm^3
# Si number density = 24.141707 Si / 1000 Ang^3
#
#
#
# Elastic Constant Matrix: (Units=GPa)
#
#
# Indices 1 2 3 4 5 6 
#
# 1 111.3356 38.9974 -5.6267 -0.0001 -3.2493 0.0001
# 2 38.9974 130.1436 12.3712 -0.0002 -22.4606 0.0011
# 3 -5.6267 12.3712 24.7636 -0.0002 3.3327 -0.0002
# 4 -0.0001 -0.0002 -0.0002 22.1051 -0.0001 -16.4088
# 5 -3.2493 -22.4606 3.3327 -0.0001 28.1238 0.0001
# 6 0.0001 0.0011 -0.0002 -16.4088 0.0001 47.0423
#
#
#
# Elastic Compliance Matrix: (Units=1/GPa)
#
#
# Indices 1 2 3 4 5 6 
#
# 1 0.010574 -0.004072 0.004786 0.000000 -0.002597 0.000000
# 2 -0.004072 0.011283 -0.007836 0.000000 0.009469 0.000000
# 3 0.004786 -0.007836 0.046900 0.000001 -0.011263 0.000001
# 4 0.000000 0.000000 0.000001 0.061044 0.000000 0.021293
# 5 -0.002597 0.009469 -0.011263 0.000000 0.044154 0.000000
# 6 0.000000 0.000000 0.000001 0.021293 0.000000 0.028685
#
#
# Mechanical properties :
#
#
# Convention : Reuss Voigt Hill
#
# Bulk Modulus (GPa) = 18.34401 39.74741 29.04571
# Shear Modulus (GPa) = 21.27168 34.15433 27.71301
#
# Velocity S-wave (km/s) = 2.97158 3.76539 3.39179
# Velocity P-wave (km/s) = 4.40326 5.95014 5.23416
#
# Compressibility (1/GPa) = 0.05451371
#
# Stress axis : x y z
#
# Youngs Moduli (GPa) = 94.57029 88.62876 21.32200
#
# Poissons Ratio (x) = 0.36087 -0.10205
# Poissons Ratio (y) = 0.38507 0.16708
# Poissons Ratio (z) = -0.45264 0.69451
#
# Static dielectric constant tensor:
#      x y z
#    x 1.906920 0.000000 0.031320 
#    y 0.000000 1.940120 0.000000 
#    z 0.031320 0.000000 1.961440 
# 
# From -- ./inp_files/279434.got.cif
#   From: 2010.05.17/outbox.cif.g08.bks.cpg/sg15_140_cif.got.tgz:279434.got - 2010.06.03 18:47:42.
