data_PCOD9283095
_publ_section_title
;
Structure prediction by ZEFSAII (Michael W. Deem and Ramdas Pophale) SiO2 
 PCOD9283095
Probable space group: C 2/C
;
_chemical_formula_sum "Si O2"
_cell_formula_units_Z 56
_cell_length_a 11.727240
_cell_length_b 15.628474
_cell_length_c 18.102683
_cell_angle_alpha 90.000000
_cell_angle_beta 57.764535
_cell_angle_gamma 90.000000
_cell_volume 2806.437964
_symmetry_space_group_name_H-M "C 2/C"
_symmetry_group_IT_number 15
_symmetry_cell_setting 'monoclinic'
loop_
_space_group_symop_operation_xyz
x,y,z
-x,y,1/2-z
-x,-y,-z
x,-y,1/2+z
1/2+x,1/2+y,z
1/2-x,1/2+y,1/2-z
1/2-x,1/2-y,-z
1/2+x,1/2-y,1/2+z
loop_
_atom_site_type_symbol
_atom_site_label
_atom_site_fract_x
_atom_site_fract_y
_atom_site_fract_z
Si Si1 0.644357 0.006291 0.728706
Si Si2 0.320436 0.771276 0.552886
Si Si3 0.824177 0.408155 0.028083
Si Si4 0.622881 0.062122 0.385108
Si Si5 0.862340 0.295442 0.256607
Si Si6 0.353963 0.456755 0.540005
Si Si7 0.367386 0.737142 0.088824
O O1 0.500000 0.975377 0.750000
O O2 0.686172 0.946496 0.782410
O O3 0.749419 0.008534 0.626301
O O4 0.623979 0.103414 0.762896
O O5 0.250000 0.750000 0.500000
O O6 0.310670 0.869377 0.583189
O O7 0.256360 0.720157 0.643529
O O8 0.476166 0.752818 0.484344
O O9 0.861679 0.469621 0.083109
O O10 0.793990 0.312771 0.067942
O O11 0.703180 0.449217 0.023166
O O12 0.964712 0.411740 0.933190
O O13 0.843721 0.250721 0.184174
O O14 0.000000 0.266600 0.250000
O O15 0.500000 0.500000 0.500000
O O16 0.341362 0.359365 0.573482
#
# Coordination Sequence:
#
# PCOD9283095 Si02
#       7
#     8   8   8   8   8   8   8
#     4  11  22  41  67  94 125 168 222 265 313 392
#     4  11  23  37  64  96 128 164 216 274 326 383
#     4  10  22  41  66  94 122 168 215 266 323 391
#     4  10  21  39  67  92 122 165 220 265 315 386
#     4  11  22  37  62  94 127 167 214 268 328 385
#     4  12  26  41  66  95 134 170 216 270 332 393
#     4  11  23  43  63  91 133 174 212 267 333 393
#
# _framework density 19.954121000000001
#
# number of rings (size 3 to 8) (size 9 to 14) (size 15 to 20)
#    0.000    1.143    4.286    2.143    4.000    0.000 
#    0.000    0.714    0.000    0.000    0.000    0.000 
#    0.000    0.000    0.000    0.000    0.000    0.000 
#
# Total GULP energy -156287.282107 kJ/mol
# GULP energy per Si atom -5581.688647 kJ/mol
# Density = 1.990870 g / cm^3
# Si number density = 19.954121 Si / 1000 Ang^3
#
#
#
# Elastic Constant Matrix: (Units=GPa)
#
#
# Indices 1 2 3 4 5 6 
#
# 1 77.8736 12.4881 32.6340 0.0000 2.0755 0.0000
# 2 12.4881 81.4321 1.6018 0.0000 13.8368 0.0000
# 3 32.6340 1.6018 109.8673 0.0000 12.6005 0.0000
# 4 0.0000 0.0000 0.0000 27.3238 0.0000 4.3277
# 5 2.0755 13.8368 12.6005 0.0000 21.8985 0.0000
# 6 0.0000 0.0000 0.0000 4.3277 0.0000 29.8907
#
#
#
# Elastic Compliance Matrix: (Units=1/GPa)
#
#
# Indices 1 2 3 4 5 6 
#
# 1 0.015230 -0.002765 -0.004837 0.000000 0.003087 0.000000
# 2 -0.002765 0.014334 0.001736 0.000000 -0.009794 0.000000
# 3 -0.004837 0.001736 0.011335 0.000000 -0.007160 0.000000
# 4 0.000000 0.000000 0.000000 0.037457 0.000000 -0.005423
# 5 0.003087 -0.009794 -0.007160 0.000000 0.055681 0.000000
# 6 0.000000 0.000000 0.000000 -0.005423 0.000000 0.034240
#
#
# Mechanical properties :
#
#
# Convention : Reuss Voigt Hill
#
# Bulk Modulus (GPa) = 34.28792 40.29119 37.28955
# Shear Modulus (GPa) = 26.35291 30.65253 28.50272
#
# Velocity S-wave (km/s) = 3.63805 3.92363 3.78354
# Velocity P-wave (km/s) = 5.90491 6.38453 6.14940
#
# Compressibility (1/GPa) = 0.02916479
#
# Stress axis : x y z
#
# Youngs Moduli (GPa) = 65.66143 69.76314 88.22508
#
# Poissons Ratio (x) = 0.19289 0.42678
# Poissons Ratio (y) = 0.18155 -0.15312
# Poissons Ratio (z) = 0.31763 -0.12108
#
# Static dielectric constant tensor:
#      x y z
#    x 1.731550 0.000000 -0.012840 
#    y 0.000000 -0.733130 0.000000 
#    z -0.012840 0.000000 1.702550 
# 
# From -- ./inp_files/198236.got.cif
#   From: 2010.05.17/outbox.cif.g08.bks.cpg/sg15_100_cif.got.tgz:198236.got - 2010.06.03 18:47:42.
