data_PCOD9283517
_publ_section_title
;
Structure prediction by ZEFSAII (Michael W. Deem and Ramdas Pophale) SiO2 
 PCOD9283517
Probable space group: C 2/C
;
_chemical_formula_sum "Si O2"
_cell_formula_units_Z 64
_cell_length_a 21.087756
_cell_length_b 18.233862
_cell_length_c 22.775169
_cell_angle_alpha 90.000000
_cell_angle_beta 22.187328
_cell_angle_gamma 90.000000
_cell_volume 3307.074920
_symmetry_space_group_name_H-M "C 2/C"
_symmetry_group_IT_number 15
_symmetry_cell_setting 'monoclinic'
loop_
_space_group_symop_operation_xyz
x,y,z
-x,y,1/2-z
-x,-y,-z
x,-y,1/2+z
1/2+x,1/2+y,z
1/2-x,1/2+y,1/2-z
1/2-x,1/2-y,-z
1/2+x,1/2-y,1/2+z
loop_
_atom_site_type_symbol
_atom_site_label
_atom_site_fract_x
_atom_site_fract_y
_atom_site_fract_z
Si Si1 0.934878 0.917460 0.562645
Si Si2 0.560934 0.667454 0.563935
Si Si3 0.688612 0.576814 0.061405
Si Si4 0.811215 0.667474 0.563902
Si Si5 0.437344 0.667703 0.437329
Si Si6 0.188088 0.667733 0.437223
Si Si7 0.814261 0.587982 0.435740
Si Si8 0.560187 0.917458 0.937327
O O1 0.940067 0.876215 0.496314
O O2 0.744578 0.918420 0.749986
O O3 0.046372 0.874089 0.514851
O O4 0.000000 0.000000 0.500000
O O5 0.375248 0.668402 0.750016
O O6 0.622990 0.749987 0.500000
O O7 0.685251 0.627532 0.502556
O O8 0.500000 0.569680 0.250000
O O9 0.672564 0.621816 0.014761
O O10 0.797894 0.621850 0.014807
O O11 0.761310 0.496434 0.988724
O O12 0.809647 0.627590 0.502521
O O13 0.932727 0.623781 0.503630
O O14 0.624267 0.670838 0.250054
O O15 0.372894 0.749978 0.500097
O O16 0.076121 0.625944 0.485081
O O17 0.000000 0.593086 0.250000
O O18 0.500000 0.000000 0.000000
#
# Coordination Sequence:
#
# PCOD9283517 Si02
#       8
#     8   8   8   8   8   8   8   8
#     4  11  23  40  62  92 125 164 210 258 311 369
#     4  12  25  43  65  91 124 163 205 256 311 370
#     4  10  21  40  62  90 125 162 202 250 305 362
#     4  12  25  43  65  91 124 163 205 256 311 370
#     4  10  22  38  60  88 122 160 203 251 303 359
#     4  10  22  38  60  88 122 160 203 251 303 359
#     4  12  25  42  65  94 123 158 203 252 307 374
#     4  11  23  40  62  92 125 164 210 258 311 369
#
# _framework density 19.352449
#
# number of rings (size 3 to 8) (size 9 to 14) (size 15 to 20)
#    0.000    1.000    0.000    7.125    0.000    7.000 
#    0.000    0.000    0.000    0.000    0.000    0.000 
#    0.000    0.000    0.000    0.000    0.000    0.000 
#
# Total GULP energy -179129.547555 kJ/mol
# GULP energy per Si atom -5597.798361 kJ/mol
# Density = 1.930840 g / cm^3
# Si number density = 19.352449 Si / 1000 Ang^3
#
#
#
# Elastic Constant Matrix: (Units=GPa)
#
#
# Indices 1 2 3 4 5 6 
#
# 1 240.8722 144.4352 79.6802 0.0011 -12.6006 0.0007
# 2 144.4352 238.7084 75.8702 0.0114 -6.2768 -0.0003
# 3 79.6802 75.8702 109.9680 0.0107 0.5882 -0.0044
# 4 0.0011 0.0114 0.0107 44.8526 0.0006 -0.3152
# 5 -12.6006 -6.2768 0.5882 0.0006 13.6215 0.0011
# 6 0.0007 -0.0003 -0.0044 -0.3152 0.0011 48.4442
#
#
#
# Elastic Compliance Matrix: (Units=1/GPa)
#
#
# Indices 1 2 3 4 5 6 
#
# 1 0.007520 -0.003412 -0.003124 0.000001 0.005519 -0.000001
# 2 -0.003412 0.007010 -0.002365 -0.000001 0.000176 0.000000
# 3 -0.003124 -0.002365 0.013013 -0.000002 -0.004542 0.000001
# 4 0.000001 -0.000001 -0.000002 0.022296 0.000000 0.000145
# 5 0.005519 0.000176 -0.004542 0.000000 0.078796 -0.000002
# 6 -0.000001 0.000000 0.000001 0.000145 -0.000002 0.020643
#
#
# Mechanical properties :
#
#
# Convention : Reuss Voigt Hill
#
# Bulk Modulus (GPa) = 102.66293 132.16884 117.41589
# Shear Modulus (GPa) = 29.35523 40.68787 35.02155
#
# Velocity S-wave (km/s) = 3.89893 4.59024 4.25864
# Velocity P-wave (km/s) = 8.56931 9.82536 9.21875
#
# Compressibility (1/GPa) = 0.00974061
#
# Stress axis : x y z
#
# Youngs Moduli (GPa) = 132.98671 142.65402 76.84410
#
# Poissons Ratio (x) = 0.48670 0.24007
# Poissons Ratio (y) = 0.45372 0.18175
# Poissons Ratio (z) = 0.41547 0.33741
#
# Static dielectric constant tensor:
#      x y z
#    x 1.651540 0.000000 0.000130 
#    y 0.000000 1.624440 0.000000 
#    z 0.000130 0.000000 1.653020 
# 
# From -- ./inp_files/280481.got.cif
#   From: 2010.05.17/outbox.cif.g08.bks.cpg/sg15_141_cif.got.tgz:280481.got - 2010.06.03 18:47:42.
