data_PCOD9283440
_publ_section_title
;
Structure prediction by ZEFSAII (Michael W. Deem and Ramdas Pophale) SiO2 
 PCOD9283440
Probable space group: C 2/C
;
_chemical_formula_sum "Si O2"
_cell_formula_units_Z 52
_cell_length_a 15.113485
_cell_length_b 11.458704
_cell_length_c 24.169243
_cell_angle_alpha 90.000000
_cell_angle_beta 35.016220
_cell_angle_gamma 90.000000
_cell_volume 2401.762177
_symmetry_space_group_name_H-M "C 2/C"
_symmetry_group_IT_number 15
_symmetry_cell_setting 'monoclinic'
loop_
_space_group_symop_operation_xyz
x,y,z
-x,y,1/2-z
-x,-y,-z
x,-y,1/2+z
1/2+x,1/2+y,z
1/2-x,1/2+y,1/2-z
1/2-x,1/2-y,-z
1/2+x,1/2-y,1/2+z
loop_
_atom_site_type_symbol
_atom_site_label
_atom_site_fract_x
_atom_site_fract_y
_atom_site_fract_z
Si Si1 0.728418 0.105871 0.820026
Si Si2 0.036420 0.746843 0.139793
Si Si3 0.169265 0.391600 0.476811
Si Si4 0.246019 0.110499 0.005509
Si Si5 0.563061 0.393723 0.777661
Si Si6 0.051452 0.376156 0.298210
Si Si7 0.000000 0.563329 0.250000
O O1 0.662495 0.128259 0.914962
O O2 0.614273 0.122611 0.827838
O O3 0.874842 0.190711 0.734747
O O4 0.790787 0.973290 0.785772
O O5 0.171269 0.841366 0.078854
O O6 0.071262 0.650874 0.168660
O O7 0.045027 0.679765 0.076728
O O8 0.179044 0.529696 0.484718
O O9 0.064490 0.087623 0.108670
O O10 0.250000 0.250000 0.000000
O O11 0.369042 0.089518 0.893600
O O12 0.500000 0.435234 0.750000
O O13 0.584749 0.254607 0.760910
O O14 0.112489 0.479191 0.228158
#
# Coordination Sequence:
#
# PCOD9283440 Si02
#       7
#     8   8   8   8   8   8   4
#     4  12  24  43  68 105 131 173 231 289 324 391
#     4  11  23  40  69  96 132 179 222 269 338 404
#     4  11  21  40  70  96 130 178 228 270 330 406
#     4  10  21  40  61  92 127 175 217 262 328 406
#     4  11  21  43  69  90 131 180 221 265 335 406
#     4  11  27  41  66  98 137 172 223 283 341 387
#     4  12  22  44  62  90 134 180 212 266 340 412
#
# _framework density 21.650767999999999
#
# number of rings (size 3 to 8) (size 9 to 14) (size 15 to 20)
#    0.000    0.923    6.923    0.000    2.154    0.615 
#    2.769    0.000    0.000    3.692    0.000    0.000 
#    0.000    0.000    0.000    0.000    0.000    0.000 
#
# Total GULP energy -144826.922922 kJ/mol
# GULP energy per Si atom -5570.266266 kJ/mol
# Density = 2.160149 g / cm^3
# Si number density = 21.650768 Si / 1000 Ang^3
#
#
#
# Elastic Constant Matrix: (Units=GPa)
#
#
# Indices 1 2 3 4 5 6 
#
# 1 80.3401 28.3498 33.2135 0.0000 29.0206 0.0000
# 2 28.3498 125.3477 38.5345 0.0000 9.7190 0.0000
# 3 33.2135 38.5345 88.7617 -0.0001 32.0528 0.0000
# 4 0.0000 0.0000 -0.0001 27.1496 0.0000 11.5308
# 5 29.0206 9.7190 32.0528 0.0000 27.4539 0.0000
# 6 0.0000 0.0000 0.0000 11.5308 0.0000 19.5325
#
#
#
# Elastic Compliance Matrix: (Units=1/GPa)
#
#
# Indices 1 2 3 4 5 6 
#
# 1 0.021508 -0.003687 0.002232 0.000000 -0.024036 0.000000
# 2 -0.003687 0.009934 -0.005308 0.000000 0.006578 0.000000
# 3 0.002232 -0.005308 0.022318 0.000000 -0.026538 0.000000
# 4 0.000000 0.000000 0.000000 0.049158 0.000000 -0.029020
# 5 -0.024036 0.006578 -0.026538 0.000000 0.090487 0.000000
# 6 0.000000 0.000000 0.000000 -0.029020 0.000000 0.068328
#
#
# Mechanical properties :
#
#
# Convention : Reuss Voigt Hill
#
# Bulk Modulus (GPa) = 24.85486 54.96058 39.90772
# Shear Modulus (GPa) = 17.32085 27.78397 22.55241
#
# Velocity S-wave (km/s) = 2.83151 3.58617 3.23095
# Velocity P-wave (km/s) = 4.71113 6.52592 5.69133
#
# Compressibility (1/GPa) = 0.04023358
#
# Stress axis : x y z
#
# Youngs Moduli (GPa) = 46.49526 100.66905 44.80626
#
# Poissons Ratio (x) = 0.37116 -0.10003
# Poissons Ratio (y) = 0.17143 0.23785
# Poissons Ratio (z) = -0.10380 0.53439
#
# Static dielectric constant tensor:
#      x y z
#    x 1.758180 0.000000 0.000770 
#    y 0.000000 1.818860 0.000000 
#    z 0.000770 0.000000 1.948200 
# 
# From -- ./inp_files/273811.got.cif
#   From: 2010.05.17/outbox.cif.g08.bks.cpg/sg15_137_cif.got.tgz:273811.got - 2010.06.03 18:47:42.
