data_PCOD9283120
_publ_section_title
;
Structure prediction by ZEFSAII (Michael W. Deem and Ramdas Pophale) SiO2 
 PCOD9283120
Probable space group: C 2/C
;
_chemical_formula_sum "Si O2"
_cell_formula_units_Z 60
_cell_length_a 22.489242
_cell_length_b 8.295210
_cell_length_c 19.440439
_cell_angle_alpha 90.000000
_cell_angle_beta 132.752770
_cell_angle_gamma 90.000000
_cell_volume 2663.027811
_symmetry_space_group_name_H-M "C 2/C"
_symmetry_group_IT_number 15
_symmetry_cell_setting 'monoclinic'
loop_
_space_group_symop_operation_xyz
x,y,z
-x,y,1/2-z
-x,-y,-z
x,-y,1/2+z
1/2+x,1/2+y,z
1/2-x,1/2+y,1/2-z
1/2-x,1/2-y,-z
1/2+x,1/2-y,1/2+z
loop_
_atom_site_type_symbol
_atom_site_label
_atom_site_fract_x
_atom_site_fract_y
_atom_site_fract_z
Si Si1 0.906865 0.383734 0.889658
Si Si2 0.998606 0.292914 0.419562
Si Si3 0.669686 0.672707 0.213227
Si Si4 0.213622 0.376581 0.378371
Si Si5 0.853476 0.279166 0.702123
Si Si6 0.621396 0.655871 0.415064
Si Si7 0.000000 0.096962 0.750000
Si Si8 0.722909 0.907520 0.147481
O O1 0.959015 0.529658 0.897350
O O2 0.858382 0.309959 0.788428
O O3 0.850921 0.466239 0.905179
O O4 0.961733 0.260863 0.974930
O O5 0.925220 0.172567 0.346786
O O6 0.063577 0.277669 0.411030
O O7 0.708255 0.798869 0.298271
O O8 0.684635 0.749042 0.150884
O O9 0.711960 0.504247 0.255844
O O10 0.168653 0.547574 0.345898
O O11 0.305158 0.395901 0.477122
O O12 0.165708 0.247981 0.387704
O O13 0.779128 0.154066 0.629566
O O14 0.938840 0.207846 0.745814
O O15 0.561866 0.515588 0.341804
#
# Coordination Sequence:
#
# PCOD9283120 Si02
#       8
#     8   8   8   8   8   8   4   8
#     4  10  22  40  64 105 128 177 218 281 347 399
#     4  10  21  39  67  97 133 165 226 278 348 398
#     4  11  20  39  64  97 129 177 218 284 338 406
#     4  11  24  44  71  95 130 182 236 270 351 402
#     4  12  25  45  68 102 138 181 223 289 336 417
#     4  11  25  46  70  97 130 188 230 286 334 420
#     4  12  30  46  64 104 144 180 236 284 348 402
#     4  11  20  39  66  94 134 176 225 271 343 400
#
# _framework density 22.530743999999999
#
# number of rings (size 3 to 8) (size 9 to 14) (size 15 to 20)
#    0.000    1.067    4.000    3.200    1.867    1.600 
#    9.600    1.333    0.000    0.000    0.000    0.000 
#    0.000    0.000    0.000    0.000    0.000    0.000 
#
# Total GULP energy -167511.441705 kJ/mol
# GULP energy per Si atom -5583.714723 kJ/mol
# Density = 2.247946 g / cm^3
# Si number density = 22.530744 Si / 1000 Ang^3
#
#
#
# Elastic Constant Matrix: (Units=GPa)
#
#
# Indices 1 2 3 4 5 6 
#
# 1 108.5306 26.9333 13.2260 0.0000 21.4190 0.0000
# 2 26.9333 80.3254 11.1008 0.0000 13.5084 0.0000
# 3 13.2260 11.1008 68.5976 0.0000 24.7867 0.0000
# 4 0.0000 0.0000 0.0000 17.0077 0.0000 10.3115
# 5 21.4190 13.5084 24.7867 0.0000 28.7219 0.0000
# 6 0.0000 0.0000 0.0000 10.3115 0.0000 35.8040
#
#
#
# Elastic Compliance Matrix: (Units=1/GPa)
#
#
# Indices 1 2 3 4 5 6 
#
# 1 0.011343 -0.002576 0.001233 0.000000 -0.008312 0.000000
# 2 -0.002576 0.014105 -0.000121 0.000000 -0.004609 0.000000
# 3 0.001233 -0.000121 0.021319 0.000000 -0.019261 0.000000
# 4 0.000000 0.000000 0.000000 0.071235 0.000000 -0.020516
# 5 -0.008312 -0.004609 -0.019261 0.000000 0.059805 0.000000
# 6 0.000000 0.000000 0.000000 -0.020516 0.000000 0.033838
#
#
# Mechanical properties :
#
#
# Convention : Reuss Voigt Hill
#
# Bulk Modulus (GPa) = 22.81003 39.99710 31.40356
# Shear Modulus (GPa) = 21.81630 30.05293 25.93461
#
# Velocity S-wave (km/s) = 3.11511 3.65617 3.39643
# Velocity P-wave (km/s) = 4.80463 5.96776 5.41750
#
# Compressibility (1/GPa) = 0.04384037
#
# Stress axis : x y z
#
# Youngs Moduli (GPa) = 88.15727 70.89769 46.90598
#
# Poissons Ratio (x) = 0.18264 -0.05784
# Poissons Ratio (y) = 0.22710 0.00566
# Poissons Ratio (z) = -0.10871 0.00855
#
# Static dielectric constant tensor:
#      x y z
#    x 1.859320 0.000000 0.013850 
#    y 0.000000 1.828980 0.000000 
#    z 0.013850 0.000000 1.876730 
# 
# From -- ./inp_files/214303.got.cif
#   From: 2010.05.17/outbox.cif.g08.bks.cpg/sg15_108_cif.got.tgz:214303.got - 2010.06.03 18:47:42.
