data_PCOD9283130
_publ_section_title
;
Structure prediction by ZEFSAII (Michael W. Deem and Ramdas Pophale) SiO2 
 PCOD9283130
Probable space group: C 2/C
;
_chemical_formula_sum "Si O2"
_cell_formula_units_Z 56
_cell_length_a 11.202860
_cell_length_b 20.158298
_cell_length_c 14.218345
_cell_angle_alpha 90.000000
_cell_angle_beta 116.783099
_cell_angle_gamma 90.000000
_cell_volume 2866.463975
_symmetry_space_group_name_H-M "C 2/C"
_symmetry_group_IT_number 15
_symmetry_cell_setting 'monoclinic'
loop_
_space_group_symop_operation_xyz
x,y,z
-x,y,1/2-z
-x,-y,-z
x,-y,1/2+z
1/2+x,1/2+y,z
1/2-x,1/2+y,1/2-z
1/2-x,1/2-y,-z
1/2+x,1/2-y,1/2+z
loop_
_atom_site_type_symbol
_atom_site_label
_atom_site_fract_x
_atom_site_fract_y
_atom_site_fract_z
Si Si1 0.578257 0.343705 0.876170
Si Si2 0.986469 0.781248 0.039829
Si Si3 0.094065 0.337254 0.105990
Si Si4 0.870178 0.116572 0.639103
Si Si5 0.887211 0.417004 0.131707
Si Si6 0.712152 0.778785 0.328523
Si Si7 0.632712 0.485548 0.983584
O O1 0.500000 0.350746 0.750000
O O2 0.679223 0.284004 0.882772
O O3 0.622577 0.417819 0.919573
O O4 0.507840 0.319431 0.947869
O O5 0.131756 0.774530 0.140181
O O6 0.892566 0.823533 0.073793
O O7 0.933441 0.709449 0.991963
O O8 0.236738 0.371673 0.150241
O O9 0.111863 0.288872 0.204184
O O10 0.978340 0.391934 0.077112
O O11 0.000000 0.113273 0.750000
O O12 0.856360 0.048752 0.578270
O O13 0.809000 0.348904 0.127803
O O14 0.000000 0.431322 0.250000
O O15 0.774552 0.473113 0.086303
O O16 0.500000 0.500000 0.000000
#
# Coordination Sequence:
#
# PCOD9283130 Si02
#       7
#     8   8   8   8   8   8   8
#     4  12  21  37  65 102 126 161 222 286 326 381
#     4  12  21  40  68  96 130 167 219 275 333 396
#     4  11  23  40  69  97 130 173 222 276 340 396
#     4  12  26  45  65  92 138 188 218 264 343 414
#     4  10  21  39  67  99 129 172 225 277 337 394
#     4  11  19  38  69  98 129 164 215 285 338 380
#     4  12  25  42  68  97 135 180 224 274 330 403
#
# _framework density 19.536263999999999
#
# number of rings (size 3 to 8) (size 9 to 14) (size 15 to 20)
#    0.000    0.571    7.143    2.571    2.000    0.571 
#    0.000    0.000    3.143    0.000    0.000    0.000 
#    0.000    0.000    0.000    0.000    0.000    0.000 
#
# Total GULP energy -156156.104427 kJ/mol
# GULP energy per Si atom -5577.003730 kJ/mol
# Density = 1.949180 g / cm^3
# Si number density = 19.536264 Si / 1000 Ang^3
#
#
#
# Elastic Constant Matrix: (Units=GPa)
#
#
# Indices 1 2 3 4 5 6 
#
# 1 96.6214 45.7174 19.0082 0.0000 18.3089 0.0000
# 2 45.7174 77.0911 32.3191 0.0000 2.0657 0.0000
# 3 19.0082 32.3191 71.5082 0.0000 15.7776 0.0000
# 4 0.0000 0.0000 0.0000 26.6648 0.0000 -4.5870
# 5 18.3089 2.0657 15.7776 0.0000 28.9409 0.0000
# 6 0.0000 0.0000 0.0000 -4.5870 0.0000 22.7457
#
#
#
# Elastic Compliance Matrix: (Units=1/GPa)
#
#
# Indices 1 2 3 4 5 6 
#
# 1 0.017300 -0.011238 0.003090 0.000000 -0.011827 0.000000
# 2 -0.011238 0.023567 -0.010073 0.000000 0.010919 0.000000
# 3 0.003090 -0.010073 0.020448 0.000000 -0.012383 0.000000
# 4 0.000000 0.000000 0.000000 0.038850 0.000000 0.007835
# 5 -0.011827 0.010919 -0.012383 0.000000 0.048007 0.000000
# 6 0.000000 0.000000 0.000000 0.007835 0.000000 0.045544
#
#
# Mechanical properties :
#
#
# Convention : Reuss Voigt Hill
#
# Bulk Modulus (GPa) = 40.20509 48.81224 44.50867
# Shear Modulus (GPa) = 20.96875 25.54869 23.25872
#
# Velocity S-wave (km/s) = 3.27972 3.62022 3.45416
# Velocity P-wave (km/s) = 5.91324 6.52030 6.22418
#
# Compressibility (1/GPa) = 0.02487247
#
# Stress axis : x y z
#
# Youngs Moduli (GPa) = 57.80215 42.43283 48.90461
#
# Poissons Ratio (x) = 0.47687 -0.15112
# Poissons Ratio (y) = 0.64959 0.49262
# Poissons Ratio (z) = -0.17861 0.42743
#
# Static dielectric constant tensor:
#      x y z
#    x 1.721480 0.000000 0.019670 
#    y 0.000000 1.664180 0.000000 
#    z 0.019670 0.000000 1.746330 
# 
# From -- ./inp_files/146179.got.cif
#   From: 2010.05.17/outbox.cif.g08.bks.cpg/sg15_74_cif.got.tgz:146179.got - 2010.06.03 18:47:42.
