data_PCOD9283572
_publ_section_title
;
Structure prediction by ZEFSAII (Michael W. Deem and Ramdas Pophale) SiO2 
 PCOD9283572
Probable space group: C 2/C
;
_chemical_formula_sum "Si O2"
_cell_formula_units_Z 44
_cell_length_a 16.731220
_cell_length_b 15.732720
_cell_length_c 19.419865
_cell_angle_alpha 90.000000
_cell_angle_beta 157.965663
_cell_angle_gamma 90.000000
_cell_volume 1917.770715
_symmetry_space_group_name_H-M "C 2/C"
_symmetry_group_IT_number 15
_symmetry_cell_setting 'monoclinic'
loop_
_space_group_symop_operation_xyz
x,y,z
-x,y,1/2-z
-x,-y,-z
x,-y,1/2+z
1/2+x,1/2+y,z
1/2-x,1/2+y,1/2-z
1/2-x,1/2-y,-z
1/2+x,1/2-y,1/2+z
loop_
_atom_site_type_symbol
_atom_site_label
_atom_site_fract_x
_atom_site_fract_y
_atom_site_fract_z
Si Si1 0.578663 0.143468 0.668499
Si Si2 0.850393 0.998330 0.028652
Si Si3 0.975004 0.320886 0.935699
Si Si4 0.000000 0.643978 0.750000
Si Si5 0.201918 0.478014 0.055756
Si Si6 0.570191 0.640554 0.022773
O O1 0.482750 0.187697 0.524250
O O2 0.506232 0.189270 0.681258
O O3 0.831470 0.131853 0.861244
O O4 0.476866 0.049680 0.588485
O O5 0.752728 0.951654 0.018001
O O6 0.090566 0.018543 0.243297
O O7 0.863249 0.936905 0.973394
O O8 0.704915 0.081540 0.907154
O O9 0.749041 0.347451 0.723866
O O10 0.052964 0.230610 0.968780
O O11 0.133644 0.396682 0.044027
#
# Coordination Sequence:
#
# PCOD9283572 Si02
#       6
#     8   8   8   4   8   8
#     4  11  24  44  63  97 126 168 219 267 312 380
#     4  10  21  40  63 100 130 168 207 263 321 384
#     4  12  24  42  64  97 128 174 209 267 314 390
#     4  10  24  42  66  96 128 166 220 266 322 366
#     4  10  22  40  66  95 135 165 218 258 319 374
#     4  12  24  41  68  91 135 167 212 260 327 378
#
# _framework density 22.943306
#
# number of rings (size 3 to 8) (size 9 to 14) (size 15 to 20)
#    0.000    1.091    3.636    2.727    2.545    2.182 
#    0.000    2.727    0.000    0.000    0.000    0.000 
#    0.000    0.000    0.000    0.000    0.000    0.000 
#
# Total GULP energy -123050.035433 kJ/mol
# GULP energy per Si atom -5593.183429 kJ/mol
# Density = 2.289109 g / cm^3
# Si number density = 22.943306 Si / 1000 Ang^3
#
#
#
# Elastic Constant Matrix: (Units=GPa)
#
#
# Indices 1 2 3 4 5 6 
#
# 1 93.2298 -0.4086 32.9887 -0.0084 -20.8877 -0.0236
# 2 -0.4086 24.7000 4.1050 0.0468 15.3550 -0.0022
# 3 32.9887 4.1050 151.6032 0.0531 3.7347 0.0115
# 4 -0.0084 0.0468 0.0531 22.0719 0.0154 -9.7097
# 5 -20.8877 15.3550 3.7347 0.0154 37.8552 0.0022
# 6 -0.0236 -0.0022 0.0115 -9.7097 0.0022 -5.3945
#
#
#
# Elastic Compliance Matrix: (Units=1/GPa)
#
#
# Indices 1 2 3 4 5 6 
#
# 1 0.014173 -0.005740 -0.003186 -0.000005 0.010463 -0.000053
# 2 -0.005740 0.056593 0.000361 -0.000060 -0.026158 0.000101
# 3 -0.003186 0.000361 0.007344 -0.000003 -0.002629 0.000034
# 4 -0.000005 -0.000060 -0.000003 0.025285 0.000014 -0.045512
# 5 0.010463 -0.026158 -0.002629 0.000014 0.043060 -0.000049
# 6 -0.000053 0.000101 0.000034 -0.045512 -0.000049 -0.103456
#
#
# Mechanical properties :
#
#
# Convention : Reuss Voigt Hill
#
# Bulk Modulus (GPa) = 16.39918 38.10037 27.24978
# Shear Modulus (GPa) = 62.14597 26.42973 44.28785
#
# Velocity S-wave (km/s) = 5.21014 3.39773 4.39830
# Velocity P-wave (km/s) = 6.58463 5.65996 6.13972
#
# Compressibility (1/GPa) = 0.06097865
#
# Stress axis : x y z
#
# Youngs Moduli (GPa) = 70.55852 17.67016 136.15663
#
# Poissons Ratio (x) = 0.10143 0.43383
# Poissons Ratio (y) = 0.40503 -0.04917
# Poissons Ratio (z) = 0.22482 -0.00638
#
# Static dielectric constant tensor:
#      x y z
#    x 1.916560 -0.000010 -0.042330 
#    y -0.000010 1.827870 -0.000020 
#    z -0.042330 -0.000020 1.869730 
# 
# From -- ./inp_files/216116.got.cif
#   From: 2010.05.17/outbox.cif.g08.bks.cpg/sg15_109_cif.got.tgz:216116.got - 2010.06.03 18:47:42.
