data_PCOD9283747
_publ_section_title
;
Structure prediction by ZEFSAII (Michael W. Deem and Ramdas Pophale) SiO2 
 PCOD9283747
Probable space group: C 2/C
;
_chemical_formula_sum "Si O2"
_cell_formula_units_Z 64
_cell_length_a 8.660195
_cell_length_b 17.522124
_cell_length_c 31.787214
_cell_angle_alpha 90.000000
_cell_angle_beta 141.971263
_cell_angle_gamma 90.000000
_cell_volume 2971.580646
_symmetry_space_group_name_H-M "C 2/C"
_symmetry_group_IT_number 15
_symmetry_cell_setting 'monoclinic'
loop_
_space_group_symop_operation_xyz
x,y,z
-x,y,1/2-z
-x,-y,-z
x,-y,1/2+z
1/2+x,1/2+y,z
1/2-x,1/2+y,1/2-z
1/2-x,1/2-y,-z
1/2+x,1/2-y,1/2+z
loop_
_atom_site_type_symbol
_atom_site_label
_atom_site_fract_x
_atom_site_fract_y
_atom_site_fract_z
Si Si1 0.955220 0.960311 0.160082
Si Si2 0.087611 0.854380 0.498502
Si Si3 0.415895 0.015306 0.309552
Si Si4 0.672789 0.735445 0.391348
Si Si5 0.361708 0.134851 0.854978
Si Si6 0.706185 0.637426 0.483105
Si Si7 0.161206 0.394938 0.625735
Si Si8 0.467197 0.514684 0.913695
O O1 0.979743 0.937703 0.116976
O O2 0.896890 0.889298 0.178276
O O3 0.207283 0.001203 0.229914
O O4 0.742842 0.025836 0.120678
O O5 0.382355 0.864881 0.554777
O O6 0.919677 0.789509 0.440103
O O7 0.021991 0.845799 0.533612
O O8 0.978711 0.933651 0.457344
O O9 0.339435 0.082022 0.325399
O O10 0.420779 0.937537 0.338296
O O11 0.694729 0.023782 0.352101
O O12 0.429344 0.789514 0.343493
O O13 0.707267 0.691297 0.443097
O O14 0.662059 0.672608 0.352678
O O15 0.551528 0.141427 0.935330
O O16 0.669815 0.551481 0.460151
#
# Coordination Sequence:
#
# PCOD9283747 Si02
#       8
#     8   8   8   8   8   8   8   8
#     4  11  25  40  68  92 123 174 221 263 304 370
#     4  11  22  38  65  95 130 168 200 265 328 380
#     4  11  22  44  68  88 123 171 223 261 305 364
#     4  11  23  41  63  98 135 160 199 262 337 390
#     4  10  21  40  64  90 127 162 205 259 317 379
#     4  11  21  39  65  94 132 164 200 264 331 377
#     4  11  22  39  66  94 128 160 210 260 318 382
#     4  12  21  40  67  94 126 161 226 264 308 375
#
# _framework density 21.53736
#
# number of rings (size 3 to 8) (size 9 to 14) (size 15 to 20)
#    0.000    1.000    5.000    5.625    1.750    1.000 
#    2.250    0.000   11.000    1.500    0.000    0.000 
#    0.000    0.000    0.000    0.000    0.000    0.000 
#
# Total GULP energy -178616.235118 kJ/mol
# GULP energy per Si atom -5581.757347 kJ/mol
# Density = 2.148834 g / cm^3
# Si number density = 21.537360 Si / 1000 Ang^3
#
#
#
# Elastic Constant Matrix: (Units=GPa)
#
#
# Indices 1 2 3 4 5 6 
#
# 1 57.8391 22.0588 9.9844 0.0001 -3.7602 0.0000
# 2 22.0588 101.4656 18.7110 -0.0001 -4.1884 0.0000
# 3 9.9844 18.7110 24.4406 0.0002 5.9627 0.0001
# 4 0.0001 -0.0001 0.0002 17.7152 0.0001 -0.2302
# 5 -3.7602 -4.1884 5.9627 0.0001 26.7241 0.0000
# 6 0.0000 0.0000 0.0001 -0.2302 0.0000 44.1690
#
#
#
# Elastic Compliance Matrix: (Units=1/GPa)
#
#
# Indices 1 2 3 4 5 6 
#
# 1 0.019821 -0.002891 -0.006825 0.000000 0.003859 0.000000
# 2 -0.002891 0.012311 -0.009111 0.000000 0.003556 0.000000
# 3 -0.006825 -0.009111 0.054213 0.000000 -0.014484 0.000000
# 4 0.000000 0.000000 0.000000 0.056452 0.000000 0.000294
# 5 0.003859 0.003556 -0.014484 0.000000 0.041751 0.000000
# 6 0.000000 0.000000 0.000000 0.000294 0.000000 0.022642
#
#
# Mechanical properties :
#
#
# Convention : Reuss Voigt Hill
#
# Bulk Modulus (GPa) = 20.53834 31.69484 26.11659
# Shear Modulus (GPa) = 19.15155 26.58773 22.86964
#
# Velocity S-wave (km/s) = 2.98522 3.51735 3.26215
# Velocity P-wave (km/s) = 4.63022 5.58962 5.13238
#
# Compressibility (1/GPa) = 0.04868942
#
# Stress axis : x y z
#
# Youngs Moduli (GPa) = 50.45147 81.22769 18.44591
#
# Poissons Ratio (x) = 0.23485 0.12590
# Poissons Ratio (y) = 0.14587 0.16807
# Poissons Ratio (z) = 0.34434 0.74009
#
# Static dielectric constant tensor:
#      x y z
#    x 1.829460 0.000000 0.037090 
#    y 0.000000 1.786400 0.000000 
#    z 0.037090 0.000000 1.764330 
# 
# From -- ./inp_files/308798.got.cif
#   From: 2010.05.17/outbox.cif.g08.bks.cpg/sg15_155_cif.got.tgz:308798.got - 2010.06.03 18:47:42.
