data_PCOD9283540
_publ_section_title
;
Structure prediction by ZEFSAII (Michael W. Deem and Ramdas Pophale) SiO2 
 PCOD9283540
Probable space group: C 2/C
;
_chemical_formula_sum "Si O2"
_cell_formula_units_Z 56
_cell_length_a 14.297414
_cell_length_b 17.929228
_cell_length_c 15.635647
_cell_angle_alpha 90.000000
_cell_angle_beta 142.025515
_cell_angle_gamma 90.000000
_cell_volume 2466.205511
_symmetry_space_group_name_H-M "C 2/C"
_symmetry_group_IT_number 15
_symmetry_cell_setting 'monoclinic'
loop_
_space_group_symop_operation_xyz
x,y,z
-x,y,1/2-z
-x,-y,-z
x,-y,1/2+z
1/2+x,1/2+y,z
1/2-x,1/2+y,1/2-z
1/2-x,1/2-y,-z
1/2+x,1/2-y,1/2+z
loop_
_atom_site_type_symbol
_atom_site_label
_atom_site_fract_x
_atom_site_fract_y
_atom_site_fract_z
Si Si1 0.859184 0.146066 0.201876
Si Si2 0.939751 0.971691 0.548463
Si Si3 0.773453 0.818317 0.114850
Si Si4 0.778973 0.827201 0.818345
Si Si5 0.464246 0.630584 0.600161
Si Si6 0.494177 0.085299 0.146851
Si Si7 0.638322 0.922178 0.404557
O O1 0.803663 0.196722 0.239455
O O2 0.000000 0.178108 0.250000
O O3 0.721903 0.121549 0.041555
O O4 0.937379 0.075865 0.309302
O O5 0.903142 0.048258 0.572115
O O6 0.776108 0.933068 0.435641
O O7 0.000000 0.000000 0.500000
O O8 0.782128 0.740017 0.168817
O O9 0.868821 0.817068 0.095325
O O10 0.864623 0.870580 0.246305
O O11 0.614167 0.857123 0.980800
O O12 0.664687 0.897757 0.737529
O O13 0.932801 0.847278 0.980351
O O14 0.500000 0.108450 0.250000
O O15 0.429724 0.000598 0.105065
O O16 0.500000 0.888566 0.250000
#
# Coordination Sequence:
#
# PCOD9283540 Si02
#       7
#     8   8   8   8   8   8   8
#     4  10  24  42  65  88 125 174 222 274 317 386
#     4  11  20  38  62  94 129 171 218 257 325 396
#     4  11  23  36  60  90 130 171 205 258 318 385
#     4  12  23  39  58  92 129 170 220 254 326 387
#     4  11  21  37  60  91 128 171 209 260 312 397
#     4  11  21  36  59  91 133 164 199 264 328 382
#     4  10  21  40  62  92 131 168 212 273 332 377
#
# _framework density 22.706949000000002
#
# number of rings (size 3 to 8) (size 9 to 14) (size 15 to 20)
#    0.000    1.143    4.286    3.000    6.000    0.571 
#    2.571    0.000    0.000    3.429    0.000    0.000 
#    0.000    0.000    0.000    0.000    0.000    0.000 
#
# Total GULP energy -156244.917279 kJ/mol
# GULP energy per Si atom -5580.175617 kJ/mol
# Density = 2.265527 g / cm^3
# Si number density = 22.706949 Si / 1000 Ang^3
#
#
#
# Elastic Constant Matrix: (Units=GPa)
#
#
# Indices 1 2 3 4 5 6 
#
# 1 89.8342 4.0923 39.4428 0.0003 -14.0868 0.0001
# 2 4.0923 25.7678 3.5150 -0.0001 -3.0595 -0.0002
# 3 39.4428 3.5150 181.7392 0.0003 6.3645 0.0000
# 4 0.0003 -0.0001 0.0003 11.3945 0.0001 -8.7166
# 5 -14.0868 -3.0595 6.3645 0.0001 26.7200 -0.0003
# 6 0.0001 -0.0002 0.0000 -8.7166 -0.0003 14.1875
#
#
#
# Elastic Compliance Matrix: (Units=1/GPa)
#
#
# Indices 1 2 3 4 5 6 
#
# 1 0.013858 -0.000806 -0.003272 -0.000001 0.007993 0.000000
# 2 -0.000806 0.039545 -0.000740 0.000002 0.004280 0.000002
# 3 -0.003272 -0.000740 0.006343 0.000000 -0.003321 0.000000
# 4 -0.000001 0.000002 0.000000 0.165587 0.000001 0.101734
# 5 0.007993 0.004280 -0.003321 0.000001 0.042920 0.000001
# 6 0.000000 0.000002 0.000000 0.101734 0.000001 0.132989
#
#
# Mechanical properties :
#
#
# Convention : Reuss Voigt Hill
#
# Bulk Modulus (GPa) = 19.95543 43.49351 31.72447
# Shear Modulus (GPa) = 11.69368 27.14646 19.42007
#
# Velocity S-wave (km/s) = 2.27178 3.46137 2.92763
# Velocity P-wave (km/s) = 3.96089 5.93048 5.04278
#
# Compressibility (1/GPa) = 0.05011166
#
# Stress axis : x y z
#
# Youngs Moduli (GPa) = 72.15871 25.28762 157.65129
#
# Poissons Ratio (x) = 0.02037 0.51584
# Poissons Ratio (y) = 0.05812 0.11664
# Poissons Ratio (z) = 0.23610 0.01871
#
# Static dielectric constant tensor:
#      x y z
#    x 1.920750 0.000000 0.028520 
#    y 0.000000 1.931680 0.000000 
#    z 0.028520 0.000000 1.868770 
# 
# From -- ./inp_files/156213.got.cif
#   From: 2010.05.17/outbox.cif.g08.bks.cpg/sg15_79_cif.got.tgz:156213.got - 2010.06.03 18:47:42.
