data_PCOD9283925
_publ_section_title
;
Structure prediction by ZEFSAII (Michael W. Deem and Ramdas Pophale) SiO2 
 PCOD9283925
Probable space group: C 2/C
;
_chemical_formula_sum "Si O2"
_cell_formula_units_Z 52
_cell_length_a 8.188189
_cell_length_b 17.501890
_cell_length_c 18.110304
_cell_angle_alpha 90.000000
_cell_angle_beta 122.067203
_cell_angle_gamma 90.000000
_cell_volume 2199.380219
_symmetry_space_group_name_H-M "C 2/C"
_symmetry_group_IT_number 15
_symmetry_cell_setting 'monoclinic'
loop_
_space_group_symop_operation_xyz
x,y,z
-x,y,1/2-z
-x,-y,-z
x,-y,1/2+z
1/2+x,1/2+y,z
1/2-x,1/2+y,1/2-z
1/2-x,1/2-y,-z
1/2+x,1/2-y,1/2+z
loop_
_atom_site_type_symbol
_atom_site_label
_atom_site_fract_x
_atom_site_fract_y
_atom_site_fract_z
Si Si1 0.160350 0.892660 0.510086
Si Si2 0.767898 0.954149 0.698447
Si Si3 0.278675 0.058917 0.561523
Si Si4 0.704490 0.831674 0.570171
Si Si5 0.307627 0.379254 0.154467
Si Si6 0.500000 0.979337 0.250000
Si Si7 0.927628 0.764976 0.913544
O O1 0.164328 0.867691 0.426255
O O2 0.207856 0.828234 0.581645
O O3 0.941544 0.918060 0.475339
O O4 0.286848 0.968469 0.549387
O O5 0.729011 0.034219 0.645921
O O6 0.670313 0.970534 0.753837
O O7 0.000000 0.946608 0.750000
O O8 0.687333 0.878134 0.641033
O O9 0.335079 0.106337 0.503655
O O10 0.401937 0.072067 0.664059
O O11 0.557845 0.764612 0.514453
O O12 0.920289 0.801138 0.607089
O O13 0.500000 0.377922 0.250000
O O14 0.179522 0.307054 0.146438
#
# Coordination Sequence:
#
# PCOD9283925 Si02
#       7
#     8   8   8   8   8   4   8
#     4  10  21  40  65  93 140 185 216 287 347 409
#     4  11  25  45  71 104 144 177 235 293 345 404
#     4  10  21  40  68  97 135 176 236 279 342 407
#     4  10  22  45  69  93 131 192 223 287 348 412
#     4  11  22  41  68  99 139 183 228 289 350 410
#     4  12  26  38  70 116 126 176 240 294 334 412
#     4  10  23  40  66  97 135 178 238 272 354 424
#
# _framework density 23.643025000000002
#
# number of rings (size 3 to 8) (size 9 to 14) (size 15 to 20)
#    0.000    1.538    1.538    3.231    6.462    1.231 
#    4.154    0.000    3.385    0.000    0.000    0.000 
#    0.000    0.000    0.000    0.000    0.000    0.000 
#
# Total GULP energy -145461.554862 kJ/mol
# GULP energy per Si atom -5594.675187 kJ/mol
# Density = 2.358921 g / cm^3
# Si number density = 23.643025 Si / 1000 Ang^3
#
#
#
# Elastic Constant Matrix: (Units=GPa)
#
#
# Indices 1 2 3 4 5 6 
#
# 1 76.7301 16.5303 -4.0660 0.0000 -9.7603 0.0000
# 2 16.5303 119.9066 4.3010 0.0000 1.1482 0.0000
# 3 -4.0660 4.3010 33.8411 0.0000 -0.7055 0.0000
# 4 0.0000 0.0000 0.0000 28.2182 0.0000 -10.2998
# 5 -9.7603 1.1482 -0.7055 0.0000 27.0016 0.0000
# 6 0.0000 0.0000 0.0000 -10.2998 0.0000 18.9837
#
#
#
# Elastic Compliance Matrix: (Units=1/GPa)
#
#
# Indices 1 2 3 4 5 6 
#
# 1 0.014269 -0.002093 0.002091 0.000000 0.005301 0.000000
# 2 -0.002093 0.008689 -0.001380 0.000000 -0.001162 0.000000
# 3 0.002091 -0.001380 0.030010 0.000000 0.001599 0.000000
# 4 0.000000 0.000000 0.000000 0.044189 0.000000 0.023975
# 5 0.005301 -0.001162 0.001599 0.000000 0.039042 0.000000
# 6 0.000000 0.000000 0.000000 0.023975 0.000000 0.065685
#
#
# Mechanical properties :
#
#
# Convention : Reuss Voigt Hill
#
# Bulk Modulus (GPa) = 19.91889 29.33424 24.62657
# Shear Modulus (GPa) = 22.58539 29.08822 25.83680
#
# Velocity S-wave (km/s) = 3.09409 3.51138 3.30932
# Velocity P-wave (km/s) = 4.60518 5.37344 5.00407
#
# Compressibility (1/GPa) = 0.05020361
#
# Stress axis : x y z
#
# Youngs Moduli (GPa) = 70.08340 115.08840 33.32241
#
# Poissons Ratio (x) = 0.24086 -0.06967
# Poissons Ratio (y) = 0.14667 0.04598
# Poissons Ratio (z) = -0.14654 0.15882
#
# Static dielectric constant tensor:
#      x y z
#    x 1.966750 0.000000 0.039240 
#    y 0.000000 1.892380 0.000000 
#    z 0.039240 0.000000 1.870700 
# 
# From -- ./inp_files/191151.got.cif
#   From: 2010.05.17/outbox.cif.g08.bks.cpg/sg15_96_cif.got.tgz:191151.got - 2010.06.03 18:47:42.
