data_PCOD9283731
_publ_section_title
;
Structure prediction by ZEFSAII (Michael W. Deem and Ramdas Pophale) SiO2 
 PCOD9283731
Probable space group: C 2/C
;
_chemical_formula_sum "Si O2"
_cell_formula_units_Z 60
_cell_length_a 14.848133
_cell_length_b 19.688399
_cell_length_c 8.844985
_cell_angle_alpha 90.000000
_cell_angle_beta 74.677238
_cell_angle_gamma 90.000000
_cell_volume 2493.791848
_symmetry_space_group_name_H-M "C 2/C"
_symmetry_group_IT_number 15
_symmetry_cell_setting 'monoclinic'
loop_
_space_group_symop_operation_xyz
x,y,z
-x,y,1/2-z
-x,-y,-z
x,-y,1/2+z
1/2+x,1/2+y,z
1/2-x,1/2+y,1/2-z
1/2-x,1/2-y,-z
1/2+x,1/2-y,1/2+z
loop_
_atom_site_type_symbol
_atom_site_label
_atom_site_fract_x
_atom_site_fract_y
_atom_site_fract_z
Si Si1 0.220975 0.423450 0.188128
Si Si2 0.406590 0.590195 0.058729
Si Si3 0.222932 0.321766 0.588245
Si Si4 0.339180 0.512325 0.369003
Si Si5 0.744194 0.238202 0.679810
Si Si6 0.959404 0.226452 0.105378
Si Si7 0.970215 0.643265 0.431393
Si Si8 0.500000 0.080915 0.750000
O O1 0.271067 0.466217 0.297120
O O2 0.242777 0.343000 0.202157
O O3 0.110336 0.441631 0.218266
O O4 0.275267 0.445846 0.012618
O O5 0.308804 0.627117 0.059246
O O6 0.392041 0.560440 0.230017
O O7 0.480299 0.650783 0.039365
O O8 0.413069 0.531926 0.932243
O O9 0.250000 0.250000 0.500000
O O10 0.187215 0.291719 0.765724
O O11 0.141759 0.360053 0.535020
O O12 0.750000 0.250000 0.500000
O O13 0.648019 0.264396 0.796774
O O14 0.000000 0.244448 0.250000
O O15 0.984859 0.277187 0.961024
O O16 0.000000 0.620013 0.250000
O O17 0.006170 0.610690 0.572613
#
# Coordination Sequence:
#
# PCOD9283731 Si02
#       8
#     8   8   8   8   8   8   8   4
#     4  11  22  41  61  89 128 170 214 272 316 383
#     4  10  21  40  64  89 123 166 216 270 314 376
#     4  11  20  38  62  92 124 163 210 266 326 382
#     4  10  23  40  62  89 119 169 233 258 302 381
#     4  11  22  36  67  96 126 167 213 267 337 392
#     4  11  22  42  63  95 133 163 202 275 339 395
#     4  12  25  38  62 101 137 170 203 259 345 397
#     4  12  24  44  62  90 142 166 210 276 322 394
#
# _framework density 24.059747999999999
#
# number of rings (size 3 to 8) (size 9 to 14) (size 15 to 20)
#    0.000    1.067    4.667    3.200    5.600    0.533 
#    0.000    0.667    0.000    0.000    0.000    0.000 
#    0.000    0.000    0.000    0.000    0.000    0.000 
#
# Total GULP energy -167253.638740 kJ/mol
# GULP energy per Si atom -5575.121291 kJ/mol
# Density = 2.400499 g / cm^3
# Si number density = 24.059748 Si / 1000 Ang^3
#
#
#
# Elastic Constant Matrix: (Units=GPa)
#
#
# Indices 1 2 3 4 5 6 
#
# 1 53.7933 -13.0616 19.3819 0.0000 11.2945 0.0000
# 2 -13.0616 21.8368 3.2218 0.0000 -0.9388 0.0000
# 3 19.3819 3.2218 140.2740 0.0000 19.9083 0.0000
# 4 0.0000 0.0000 0.0000 21.2135 0.0000 8.8858
# 5 11.2945 -0.9388 19.9083 0.0000 36.1711 0.0000
# 6 0.0000 0.0000 0.0000 8.8858 0.0000 15.6194
#
#
#
# Elastic Compliance Matrix: (Units=1/GPa)
#
#
# Indices 1 2 3 4 5 6 
#
# 1 0.024414 0.014791 -0.002913 0.000000 -0.005636 0.000000
# 2 0.014791 0.055034 -0.003097 0.000000 -0.001485 0.000000
# 3 -0.002913 -0.003097 0.008119 0.000000 -0.003639 0.000000
# 4 0.000000 0.000000 0.000000 0.061887 0.000000 -0.035208
# 5 -0.005636 -0.001485 -0.003639 0.000000 0.031371 0.000000
# 6 0.000000 0.000000 0.000000 -0.035208 0.000000 0.084053
#
#
# Mechanical properties :
#
#
# Convention : Reuss Voigt Hill
#
# Bulk Modulus (GPa) = 9.51217 26.10981 17.81099
# Shear Modulus (GPa) = 17.70790 28.35826 23.03308
#
# Velocity S-wave (km/s) = 2.71587 3.43689 3.09743
# Velocity P-wave (km/s) = 3.71440 5.15996 4.49566
#
# Compressibility (1/GPa) = 0.10512844
#
# Stress axis : x y z
#
# Youngs Moduli (GPa) = 40.96017 18.17052 123.16685
#
# Poissons Ratio (x) = -0.26875 0.35880
# Poissons Ratio (y) = -0.60582 0.38143
# Poissons Ratio (z) = 0.11932 0.05627
#
# Static dielectric constant tensor:
#      x y z
#    x 2.183500 0.000000 0.178010 
#    y 0.000000 1.990870 0.000000 
#    z 0.178010 0.000000 1.859680 
# 
# From -- ./inp_files/50214.got.cif
#   From: 2010.05.17/outbox.cif.g08.bks.cpg/sg15_26_cif.got.tgz:50214.got - 2010.06.03 18:47:42.
