data_PCOD9283950
_publ_section_title
;
Structure prediction by ZEFSAII (Michael W. Deem and Ramdas Pophale) SiO2 
 PCOD9283950
Probable space group: C 2/C
;
_chemical_formula_sum "Si O2"
_cell_formula_units_Z 32
_cell_length_a 9.935355
_cell_length_b 10.031278
_cell_length_c 13.656566
_cell_angle_alpha 90.000000
_cell_angle_beta 110.401838
_cell_angle_gamma 90.000000
_cell_volume 1275.693240
_symmetry_space_group_name_H-M "C 2/C"
_symmetry_group_IT_number 15
_symmetry_cell_setting 'monoclinic'
loop_
_space_group_symop_operation_xyz
x,y,z
-x,y,1/2-z
-x,-y,-z
x,-y,1/2+z
1/2+x,1/2+y,z
1/2-x,1/2+y,1/2-z
1/2-x,1/2-y,-z
1/2+x,1/2-y,1/2+z
loop_
_atom_site_type_symbol
_atom_site_label
_atom_site_fract_x
_atom_site_fract_y
_atom_site_fract_z
Si Si1 0.658521 0.951362 0.436641
Si Si2 0.690266 0.497848 0.208896
Si Si3 0.098665 0.091844 0.895813
Si Si4 0.095270 0.349575 0.625443
O O1 0.720708 0.911906 0.347320
O O2 0.652395 0.854223 0.528297
O O3 0.773627 0.065123 0.497543
O O4 0.503675 0.018327 0.387629
O O5 0.528061 0.519664 0.129015
O O6 0.665704 0.422732 0.305345
O O7 0.780642 0.627226 0.263085
O O8 0.010345 0.226651 0.886177
#
# Coordination Sequence:
#
# PCOD9283950 Si02
#       4
#     8   8   8   8
#     4  10  21  40  65  95 133 165 217 269 312 385
#     4  10  22  37  65  98 130 167 218 263 313 388
#     4  10  22  41  65  93 130 176 208 263 334 370
#     4  10  22  41  66  98 131 167 216 270 316 383
#
# _framework density 25.084399999999999
#
# number of rings (size 3 to 8) (size 9 to 14) (size 15 to 20)
#    0.000    2.000    0.000    2.250    7.000    1.000 
#    0.000    0.000    5.500    0.000    0.000    0.000 
#    0.000    0.000    0.000    0.000    0.000    0.000 
#
# Total GULP energy -89475.427552 kJ/mol
# GULP energy per Si atom -5592.214222 kJ/mol
# Density = 2.502731 g / cm^3
# Si number density = 25.084400 Si / 1000 Ang^3
#
#
#
# Elastic Constant Matrix: (Units=GPa)
#
#
# Indices 1 2 3 4 5 6 
#
# 1 156.3792 26.4222 51.9378 0.0000 -29.6299 0.0000
# 2 26.4222 63.4118 12.9915 0.0000 3.5360 0.0000
# 3 51.9378 12.9915 84.1440 0.0000 -4.2676 0.0000
# 4 0.0000 0.0000 0.0000 18.2172 0.0000 5.5062
# 5 -29.6299 3.5360 -4.2676 0.0000 75.5324 0.0000
# 6 0.0000 0.0000 0.0000 5.5062 0.0000 53.5624
#
#
#
# Elastic Compliance Matrix: (Units=1/GPa)
#
#
# Indices 1 2 3 4 5 6 
#
# 1 0.009245 -0.003009 -0.005065 0.000000 0.003481 0.000000
# 2 -0.003009 0.017326 -0.000922 0.000000 -0.002043 0.000000
# 3 -0.005065 -0.000922 0.015098 0.000000 -0.001091 0.000000
# 4 0.000000 0.000000 0.000000 0.056653 0.000000 -0.005824
# 5 0.003481 -0.002043 -0.001091 0.000000 0.014639 0.000000
# 6 0.000000 0.000000 0.000000 -0.005824 0.000000 0.019268
#
#
# Mechanical properties :
#
#
# Convention : Reuss Voigt Hill
#
# Bulk Modulus (GPa) = 42.23335 54.07088 48.15211
# Shear Modulus (GPa) = 31.62271 43.63465 37.62868
#
# Velocity S-wave (km/s) = 3.55442 4.17527 3.87729
# Velocity P-wave (km/s) = 5.80674 6.69673 6.26755
#
# Compressibility (1/GPa) = 0.02367797
#
# Stress axis : x y z
#
# Youngs Moduli (GPa) = 108.16639 57.71575 66.23396
#
# Poissons Ratio (x) = 0.17364 0.33550
# Poissons Ratio (y) = 0.32542 0.06105
# Poissons Ratio (z) = 0.54791 0.05320
#
# Static dielectric constant tensor:
#      x y z
#    x 1.969550 0.000000 -0.015510 
#    y 0.000000 2.044830 0.000000 
#    z -0.015510 0.000000 1.994040 
# 
# From -- ./inp_files/131920.got.cif
#   From: 2010.05.17/outbox.cif.g08.bks.cpg/sg15_66_cif.got.tgz:131920.got - 2010.06.03 18:47:42.
