data_PCOD9283197
_publ_section_title
;
Structure prediction by ZEFSAII (Michael W. Deem and Ramdas Pophale) SiO2 
 PCOD9283197
Probable space group: C 2/C
;
_chemical_formula_sum "Si O2"
_cell_formula_units_Z 48
_cell_length_a 23.185953
_cell_length_b 5.328811
_cell_length_c 19.433514
_cell_angle_alpha 90.000000
_cell_angle_beta 122.765375
_cell_angle_gamma 90.000000
_cell_volume 2019.053208
_symmetry_space_group_name_H-M "C 2/C"
_symmetry_group_IT_number 15
_symmetry_cell_setting 'monoclinic'
loop_
_space_group_symop_operation_xyz
x,y,z
-x,y,1/2-z
-x,-y,-z
x,-y,1/2+z
1/2+x,1/2+y,z
1/2-x,1/2+y,1/2-z
1/2-x,1/2-y,-z
1/2+x,1/2-y,1/2+z
loop_
_atom_site_type_symbol
_atom_site_label
_atom_site_fract_x
_atom_site_fract_y
_atom_site_fract_z
Si Si1 0.323265 0.209759 0.012655
Si Si2 0.088573 0.887032 0.984580
Si Si3 0.663665 0.439062 0.695888
Si Si4 0.962993 0.478364 0.153171
Si Si5 0.791714 0.441169 0.856487
Si Si6 0.035170 0.774400 0.086424
O O1 0.341691 0.467443 0.985367
O O2 0.390885 0.137542 0.101578
O O3 0.250000 0.250000 0.000000
O O4 0.313862 0.993646 0.948816
O O5 0.061595 0.782432 0.895337
O O6 0.070138 0.699250 0.036304
O O7 0.039433 0.115065 0.976359
O O8 0.709149 0.457283 0.793859
O O9 0.676933 0.171102 0.668663
O O10 0.584606 0.512347 0.650429
O O11 0.691381 0.673032 0.667206
O O12 0.000000 0.470759 0.250000
O O13 0.019793 0.576071 0.135381
#
# Coordination Sequence:
#
# PCOD9283197 Si02
#       6
#     8   8   8   8   8   8
#     4  11  25  44  67  93 143 187 235 291 367 440
#     4  10  22  43  68  99 126 184 245 290 363 430
#     4  10  21  39  69 100 140 173 241 299 359 419
#     4  11  26  44  65 102 141 183 237 300 374 439
#     4  10  22  41  63 104 137 183 232 298 356 433
#     4  10  21  39  72  95 132 178 238 304 351 424
#
# _framework density 23.773516999999998
#
# number of rings (size 3 to 8) (size 9 to 14) (size 15 to 20)
#    0.000    1.667    1.667    1.500    4.667    3.333 
#    0.000    0.000    0.000    0.000    0.000    0.000 
#    0.000    0.000    0.000    0.000    0.000    0.000 
#
# Total GULP energy -133854.601181 kJ/mol
# GULP energy per Si atom -5577.275049 kJ/mol
# Density = 2.371941 g / cm^3
# Si number density = 23.773517 Si / 1000 Ang^3
#
#
#
# Elastic Constant Matrix: (Units=GPa)
#
#
# Indices 1 2 3 4 5 6 
#
# 1 158.9709 33.1448 35.8654 0.0003 -3.2771 -0.0003
# 2 33.1448 118.1040 29.7481 0.0000 -9.4717 0.0001
# 3 35.8654 29.7481 171.7330 0.0004 10.6478 -0.0001
# 4 0.0003 0.0000 0.0004 25.4039 0.0001 9.7730
# 5 -3.2771 -9.4717 10.6478 0.0001 37.9101 0.0001
# 6 -0.0003 0.0001 -0.0001 9.7730 0.0001 22.3265
#
#
#
# Elastic Compliance Matrix: (Units=1/GPa)
#
#
# Indices 1 2 3 4 5 6 
#
# 1 0.006904 -0.001593 -0.001199 0.000000 0.000536 0.000000
# 2 -0.001593 0.009499 -0.001477 0.000000 0.002650 0.000000
# 3 -0.001199 -0.001477 0.006471 0.000000 -0.002290 0.000000
# 4 0.000000 0.000000 0.000000 0.047335 0.000000 -0.020720
# 5 0.000536 0.002650 -0.002290 0.000000 0.027730 0.000000
# 6 0.000000 0.000000 0.000000 -0.020720 0.000000 0.053860
#
#
# Mechanical properties :
#
#
# Convention : Reuss Voigt Hill
#
# Bulk Modulus (GPa) = 69.75308 71.81383 70.78346
# Shear Modulus (GPa) = 30.28189 40.46475 35.37332
#
# Velocity S-wave (km/s) = 3.57286 4.13012 3.86155
# Velocity P-wave (km/s) = 6.81357 7.28127 7.05130
#
# Compressibility (1/GPa) = 0.01433628
#
# Stress axis : x y z
#
# Youngs Moduli (GPa) = 144.84150 105.27799 154.52790
#
# Poissons Ratio (x) = 0.16766 0.18531
# Poissons Ratio (y) = 0.23067 0.22826
# Poissons Ratio (z) = 0.17370 0.15551
#
# Static dielectric constant tensor:
#      x y z
#    x 1.980570 0.000000 0.099530 
#    y 0.000000 1.974510 0.000000 
#    z 0.099530 0.000000 2.022090 
# 
# From -- ./inp_files/217802.got.cif
#   From: 2010.05.17/outbox.cif.g08.bks.cpg/sg15_109_cif.got.tgz:217802.got - 2010.06.03 18:47:42.
