data_PCOD9283606
_publ_section_title
;
Structure prediction by ZEFSAII (Michael W. Deem and Ramdas Pophale) SiO2 
 PCOD9283606
Probable space group: C 2/C
;
_chemical_formula_sum "Si O2"
_cell_formula_units_Z 48
_cell_length_a 7.885927
_cell_length_b 15.913101
_cell_length_c 23.953471
_cell_angle_alpha 90.000000
_cell_angle_beta 133.761300
_cell_angle_gamma 90.000000
_cell_volume 2170.951327
_symmetry_space_group_name_H-M "C 2/C"
_symmetry_group_IT_number 15
_symmetry_cell_setting 'monoclinic'
loop_
_space_group_symop_operation_xyz
x,y,z
-x,y,1/2-z
-x,-y,-z
x,-y,1/2+z
1/2+x,1/2+y,z
1/2-x,1/2+y,1/2-z
1/2-x,1/2-y,-z
1/2+x,1/2-y,1/2+z
loop_
_atom_site_type_symbol
_atom_site_label
_atom_site_fract_x
_atom_site_fract_y
_atom_site_fract_z
Si Si1 0.270099 0.618639 0.663241
Si Si2 0.801764 0.051371 0.423630
Si Si3 0.361555 0.106898 0.662070
Si Si4 0.476249 0.269335 0.922966
Si Si5 0.374605 0.287872 0.661151
Si Si6 0.111437 0.457794 0.580786
O O1 0.500000 0.642604 0.750000
O O2 0.301405 0.527397 0.643107
O O3 0.045280 0.606216 0.652684
O O4 0.186489 0.689189 0.600221
O O5 0.584666 0.054965 0.416349
O O6 0.892394 0.143115 0.429001
O O7 0.750559 0.985270 0.362370
O O8 0.000000 0.000000 0.500000
O O9 0.500000 0.116929 0.750000
O O10 0.234009 0.198139 0.628867
O O11 0.442415 0.277309 0.848026
O O12 0.750000 0.250000 0.000000
O O13 0.500000 0.301846 0.750000
O O14 0.228228 0.366779 0.605581
O O15 0.000000 0.500000 0.500000
#
# Coordination Sequence:
#
# PCOD9283606 Si02
#       6
#     8   8   8   8   8   8
#     4  10  22  39  60  88 124 162 204 260 322 381
#     4  11  23  39  62  88 117 162 208 255 315 384
#     4   9  21  39  60  86 119 155 201 253 311 378
#     4  11  23  43  65  90 129 172 216 269 325 396
#     4  10  21  40  63  89 124 163 205 267 328 381
#     4  11  23  40  62  91 124 162 210 264 324 390
#
# _framework density 22.110123000000002
#
# number of rings (size 3 to 8) (size 9 to 14) (size 15 to 20)
#    0.000    1.667    0.000    5.500    0.000   10.000 
#    0.000    7.500    0.000    0.000    0.000    0.000 
#    0.000    0.000    0.000    0.000    0.000    0.000 
#
# Total GULP energy -133743.540409 kJ/mol
# GULP energy per Si atom -5572.647517 kJ/mol
# Density = 2.205980 g / cm^3
# Si number density = 22.110123 Si / 1000 Ang^3
#
#
#
# Elastic Constant Matrix: (Units=GPa)
#
#
# Indices 1 2 3 4 5 6 
#
# 1 33.4809 38.9790 0.7115 0.0000 -8.0534 0.0000
# 2 38.9790 222.0924 51.0498 0.0000 11.2898 0.0000
# 3 0.7115 51.0498 78.9395 0.0000 -1.6400 0.0000
# 4 0.0000 0.0000 0.0000 44.3730 0.0000 1.7839
# 5 -8.0534 11.2898 -1.6400 0.0000 34.8533 0.0000
# 6 0.0000 0.0000 0.0000 1.7839 0.0000 36.2666
#
#
#
# Elastic Compliance Matrix: (Units=1/GPa)
#
#
# Indices 1 2 3 4 5 6 
#
# 1 0.044738 -0.010021 0.006366 0.000000 0.013883 0.000000
# 2 -0.010021 0.007659 -0.004967 0.000000 -0.005030 0.000000
# 3 0.006366 -0.004967 0.015902 0.000000 0.003828 0.000000
# 4 0.000000 0.000000 0.000000 0.022581 0.000000 -0.001111
# 5 0.013883 -0.005030 0.003828 0.000000 0.033709 0.000000
# 6 0.000000 0.000000 0.000000 -0.001111 0.000000 0.027628
#
#
# Mechanical properties :
#
#
# Convention : Reuss Voigt Hill
#
# Bulk Modulus (GPa) = 19.58679 57.33259 38.45969
# Shear Modulus (GPa) = 26.81246 39.35009 33.08127
#
# Velocity S-wave (km/s) = 3.48613 4.22326 3.87228
# Velocity P-wave (km/s) = 5.00820 7.05465 6.11760
#
# Compressibility (1/GPa) = 0.05105481
#
# Stress axis : x y z
#
# Youngs Moduli (GPa) = 22.35217 130.56886 62.88408
#
# Poissons Ratio (x) = 1.30841 -0.40030
# Poissons Ratio (y) = 0.22399 0.31235
# Poissons Ratio (z) = -0.14229 0.64855
#
# Static dielectric constant tensor:
#      x y z
#    x 1.796730 0.000000 0.036770 
#    y 0.000000 -1.375670 0.000000 
#    z 0.036770 0.000000 2.030680 
# 
# From -- ./inp_files/289136.got.cif
#   From: 2010.05.17/outbox.cif.g08.bks.cpg/sg15_145_cif.got.tgz:289136.got - 2010.06.03 18:47:42.
