data_PCOD9283460
_publ_section_title
;
Structure prediction by ZEFSAII (Michael W. Deem and Ramdas Pophale) SiO2 
 PCOD9283460
Probable space group: C 2/C
;
_chemical_formula_sum "Si O2"
_cell_formula_units_Z 40
_cell_length_a 11.688181
_cell_length_b 8.049871
_cell_length_c 26.401877
_cell_angle_alpha 90.000000
_cell_angle_beta 136.752799
_cell_angle_gamma 90.000000
_cell_volume 1701.980858
_symmetry_space_group_name_H-M "C 2/C"
_symmetry_group_IT_number 15
_symmetry_cell_setting 'monoclinic'
loop_
_space_group_symop_operation_xyz
x,y,z
-x,y,1/2-z
-x,-y,-z
x,-y,1/2+z
1/2+x,1/2+y,z
1/2-x,1/2+y,1/2-z
1/2-x,1/2-y,-z
1/2+x,1/2-y,1/2+z
loop_
_atom_site_type_symbol
_atom_site_label
_atom_site_fract_x
_atom_site_fract_y
_atom_site_fract_z
Si Si1 0.298344 0.285698 0.733139
Si Si2 0.900827 0.863838 0.499532
Si Si3 0.515590 0.137987 0.888145
Si Si4 0.303372 0.919817 0.896384
Si Si5 0.508158 0.371281 0.194253
O O1 0.416643 0.166216 0.804250
O O2 0.293966 0.285250 0.670756
O O3 0.375713 0.465851 0.768551
O O4 0.109751 0.255372 0.692481
O O5 0.707264 0.913680 0.442945
O O6 0.975987 0.814475 0.578345
O O7 0.895757 0.689520 0.467379
O O8 0.000000 0.000000 0.500000
O O9 0.419461 0.014137 0.894140
O O10 0.174795 0.056061 0.877197
O O11 0.500000 0.310362 0.250000
#
# Coordination Sequence:
#
# PCOD9283460 Si02
#       5
#     8   8   8   8   8
#     4  11  21  39  68  95 123 160 206 255 315 373
#     4  11  27  43  64  90 126 171 214 255 308 368
#     4  11  24  44  62  92 129 165 209 258 308 375
#     4  11  24  43  66  92 131 163 203 262 317 363
#     4  10  21  40  61  95 127 159 197 261 316 361
#
# _framework density 23.502025
#
# number of rings (size 3 to 8) (size 9 to 14) (size 15 to 20)
#    0.000    1.200    6.000    0.600    2.800    2.400 
#    0.000    3.000    0.000    0.000    0.000    0.000 
#    0.000    0.000    0.000    0.000    0.000    0.000 
#
# Total GULP energy -111750.089993 kJ/mol
# GULP energy per Si atom -5587.504500 kJ/mol
# Density = 2.344853 g / cm^3
# Si number density = 23.502025 Si / 1000 Ang^3
#
#
#
# Elastic Constant Matrix: (Units=GPa)
#
#
# Indices 1 2 3 4 5 6 
#
# 1 141.9263 46.5868 22.7783 0.0000 35.8176 0.0000
# 2 46.5868 28.4213 12.9711 0.0000 16.2787 0.0000
# 3 22.7783 12.9711 88.8850 0.0000 -14.9740 0.0000
# 4 0.0000 0.0000 0.0000 25.8514 0.0000 1.8926
# 5 35.8176 16.2787 -14.9740 0.0000 36.1750 0.0000
# 6 0.0000 0.0000 0.0000 1.8926 0.0000 76.0638
#
#
#
# Elastic Compliance Matrix: (Units=1/GPa)
#
#
# Indices 1 2 3 4 5 6 
#
# 1 0.016351 -0.021444 -0.002325 0.000000 -0.007502 0.000000
# 2 -0.021444 0.089107 -0.011487 0.000000 -0.023620 0.000000
# 3 -0.002325 -0.011487 0.015889 0.000000 0.014048 0.000000
# 4 0.000000 0.000000 0.000000 0.038753 0.000000 -0.000964
# 5 -0.007502 -0.023620 0.014048 0.000000 0.051516 0.000000
# 6 0.000000 0.000000 0.000000 -0.000964 0.000000 0.013171
#
#
# Mechanical properties :
#
#
# Convention : Reuss Voigt Hill
#
# Bulk Modulus (GPa) = 19.67155 47.10055 33.38605
# Shear Modulus (GPa) = 16.01309 39.41114 27.71212
#
# Velocity S-wave (km/s) = 2.61310 4.09947 3.43758
# Velocity P-wave (km/s) = 4.18243 6.51860 5.47653
#
# Compressibility (1/GPa) = 0.05083483
#
# Stress axis : x y z
#
# Youngs Moduli (GPa) = 61.15687 11.22247 62.93592
#
# Poissons Ratio (x) = 0.24066 0.14631
# Poissons Ratio (y) = 1.31147 0.72295
# Poissons Ratio (z) = 0.14218 0.12891
#
# Static dielectric constant tensor:
#      x y z
#    x 1.879630 0.000000 -0.001380 
#    y 0.000000 1.892250 0.000000 
#    z -0.001380 0.000000 2.053420 
# 
# From -- ./inp_files/195228.got.cif
#   From: 2010.05.17/outbox.cif.g08.bks.cpg/sg15_98_cif.got.tgz:195228.got - 2010.06.03 18:47:42.
