data_PCOD9283138
_publ_section_title
;
Structure prediction by ZEFSAII (Michael W. Deem and Ramdas Pophale) SiO2 
 PCOD9283138
Probable space group: C 2/C
;
_chemical_formula_sum "Si O2"
_cell_formula_units_Z 32
_cell_length_a 31.196368
_cell_length_b 9.106046
_cell_length_c 8.062176
_cell_angle_alpha 90.000000
_cell_angle_beta 30.112737
_cell_angle_gamma 90.000000
_cell_volume 1149.034029
_symmetry_space_group_name_H-M "C 2/C"
_symmetry_group_IT_number 15
_symmetry_cell_setting 'monoclinic'
loop_
_space_group_symop_operation_xyz
x,y,z
-x,y,1/2-z
-x,-y,-z
x,-y,1/2+z
1/2+x,1/2+y,z
1/2-x,1/2+y,1/2-z
1/2-x,1/2-y,-z
1/2+x,1/2-y,1/2+z
loop_
_atom_site_type_symbol
_atom_site_label
_atom_site_fract_x
_atom_site_fract_y
_atom_site_fract_z
Si Si1 0.000000 0.524595 0.250000
Si Si2 0.000000 0.966416 0.750000
Si Si3 0.431537 0.202795 0.770736
Si Si4 0.686140 0.541781 0.144236
Si Si5 0.258248 0.286342 0.715857
O O1 0.073794 0.406939 0.051366
O O2 0.993820 0.627448 0.429449
O O3 0.973408 0.854317 0.691807
O O4 0.086289 0.057744 0.433699
O O5 0.243980 0.380348 0.209841
O O6 0.342123 0.195493 0.976738
O O7 0.702168 0.618737 0.265721
O O8 0.699556 0.365845 0.084201
#
# Coordination Sequence:
#
# PCOD9283138 Si02
#       5
#     4   4   8   8   8
#     4   9  20  37  64 104 144 184 234 294 362 424
#     4  11  26  47  72 104 144 192 242 294 356 428
#     4  10  21  39  68 101 142 189 238 294 357 428
#     4  11  27  47  72 106 145 191 240 295 359 428
#     4  11  25  45  72 103 143 187 240 296 357 426
#
# _framework density 27.849478999999999
#
# number of rings (size 3 to 8) (size 9 to 14) (size 15 to 20)
#    0.000    1.500    0.000    3.000    0.000   19.000 
#    0.000    0.000    0.000    1.500    0.000    0.000 
#    0.000    0.000    0.000    0.000    0.000    0.000 
#
# Total GULP energy -89472.385628 kJ/mol
# GULP energy per Si atom -5592.024102 kJ/mol
# Density = 2.778609 g / cm^3
# Si number density = 27.849479 Si / 1000 Ang^3
#
#
#
# Elastic Constant Matrix: (Units=GPa)
#
#
# Indices 1 2 3 4 5 6 
#
# 1 156.4471 71.0970 30.5343 0.0000 -31.1155 0.0000
# 2 71.0970 142.9658 55.7546 0.0000 -4.3144 0.0000
# 3 30.5343 55.7546 91.7312 0.0000 -24.4646 0.0000
# 4 0.0000 0.0000 0.0000 47.7806 0.0000 3.3001
# 5 -31.1155 -4.3144 -24.4646 0.0000 48.7672 0.0000
# 6 0.0000 0.0000 0.0000 3.3001 0.0000 56.7152
#
#
#
# Elastic Compliance Matrix: (Units=1/GPa)
#
#
# Indices 1 2 3 4 5 6 
#
# 1 0.009815 -0.005374 0.001781 0.000000 0.006680 0.000000
# 2 -0.005374 0.012337 -0.007311 0.000000 -0.006005 0.000000
# 3 0.001781 -0.007311 0.017182 0.000000 0.009109 0.000000
# 4 0.000000 0.000000 0.000000 0.021013 0.000000 -0.001223
# 5 0.006680 -0.006005 0.009109 0.000000 0.028806 0.000000
# 6 0.000000 0.000000 0.000000 -0.001223 0.000000 0.017703
#
#
# Mechanical properties :
#
#
# Convention : Reuss Voigt Hill
#
# Bulk Modulus (GPa) = 57.06054 78.43510 67.74782
# Shear Modulus (GPa) = 37.17244 46.23648 41.70446
#
# Velocity S-wave (km/s) = 3.65740 4.07901 3.87395
# Velocity P-wave (km/s) = 6.19426 7.09997 6.66252
#
# Compressibility (1/GPa) = 0.01752525
#
# Stress axis : x y z
#
# Youngs Moduli (GPa) = 101.88228 81.05488 58.20087
#
# Poissons Ratio (x) = 0.43559 -0.10365
# Poissons Ratio (y) = 0.54752 0.42553
# Poissons Ratio (z) = -0.18144 0.59263
#
# Static dielectric constant tensor:
#      x y z
#    x 2.215170 0.000000 0.112600 
#    y 0.000000 2.187840 0.000000 
#    z 0.112600 0.000000 2.150390 
# 
# From -- ./inp_files/36591.got.cif
#   From: 2010.05.17/outbox.cif.g08.bks.cpg/sg15_19_cif.got.tgz:36591.got - 2010.06.03 18:47:42.
