data_PCOD9283763
_publ_section_title
;
Structure prediction by ZEFSAII (Michael W. Deem and Ramdas Pophale) SiO2 
 PCOD9283763
Probable space group: C 2/C
;
_chemical_formula_sum "Si O2"
_cell_formula_units_Z 56
_cell_length_a 17.502485
_cell_length_b 9.605108
_cell_length_c 16.493323
_cell_angle_alpha 90.000000
_cell_angle_beta 106.860434
_cell_angle_gamma 90.000000
_cell_volume 2653.557289
_symmetry_space_group_name_H-M "C 2/C"
_symmetry_group_IT_number 15
_symmetry_cell_setting 'monoclinic'
loop_
_space_group_symop_operation_xyz
x,y,z
-x,y,1/2-z
-x,-y,-z
x,-y,1/2+z
1/2+x,1/2+y,z
1/2-x,1/2+y,1/2-z
1/2-x,1/2-y,-z
1/2+x,1/2-y,1/2+z
loop_
_atom_site_type_symbol
_atom_site_label
_atom_site_fract_x
_atom_site_fract_y
_atom_site_fract_z
Si Si1 0.573925 0.083480 0.409104
Si Si2 0.419797 0.584143 0.390068
Si Si3 0.339114 0.729047 0.696695
Si Si4 0.419119 0.762310 0.070051
Si Si5 0.585633 0.740398 0.610101
Si Si6 0.188831 0.731875 0.554199
Si Si7 0.095989 0.925414 0.790737
O O1 0.620382 0.152775 0.347323
O O2 0.489828 0.160344 0.396362
O O3 0.626631 0.116155 0.505631
O O4 0.565412 0.919146 0.396770
O O5 0.497133 0.681504 0.418040
O O6 0.441327 0.421979 0.397389
O O7 0.361725 0.629333 0.444140
O O8 0.375034 0.610258 0.290711
O O9 0.355459 0.757122 0.795917
O O10 0.246542 0.706148 0.647408
O O11 0.382616 0.584835 0.686195
O O12 0.377638 0.674491 0.128608
O O13 0.379951 0.765868 0.969023
O O14 0.250000 0.750000 0.500000
O O15 0.000000 0.913996 0.750000
#
# Coordination Sequence:
#
# PCOD9283763 Si02
#       7
#     8   8   8   8   8   8   8
#     4  11  22  40  61  95 125 159 202 257 317 364
#     4  10  21  40  64  92 120 164 212 253 306 364
#     4  10  22  42  63  86 124 171 210 242 306 377
#     4  11  22  37  64 100 124 152 201 269 315 353
#     4  11  22  38  66  96 116 160 214 258 302 364
#     4  10  23  40  63  84 123 168 204 246 305 373
#     4   9  20  39  65  92 120 159 213 260 305 361
#
# _framework density 21.103746000000001
#
# number of rings (size 3 to 8) (size 9 to 14) (size 15 to 20)
#    0.000    1.714    1.429    3.857    4.000    3.429 
#    5.143    3.571    0.000    0.000    0.000    0.000 
#    0.000    0.000    0.000    0.000    0.000    0.000 
#
# Total GULP energy -156302.540433 kJ/mol
# GULP energy per Si atom -5582.233587 kJ/mol
# Density = 2.105571 g / cm^3
# Si number density = 21.103746 Si / 1000 Ang^3
#
#
#
# Elastic Constant Matrix: (Units=GPa)
#
#
# Indices 1 2 3 4 5 6 
#
# 1 20.5090 5.5108 19.4218 0.0000 -2.7904 0.0000
# 2 5.5108 103.0914 55.5626 0.0000 -12.4510 0.0000
# 3 19.4218 55.5626 145.0047 0.0000 2.4433 0.0000
# 4 0.0000 0.0000 0.0000 23.9719 0.0000 -4.3057
# 5 -2.7904 -12.4510 2.4433 0.0000 38.3613 0.0000
# 6 0.0000 0.0000 0.0000 -4.3057 0.0000 6.0999
#
#
#
# Elastic Compliance Matrix: (Units=1/GPa)
#
#
# Indices 1 2 3 4 5 6 
#
# 1 0.057027 0.002233 -0.008585 0.000000 0.005420 0.000000
# 2 0.002233 0.013054 -0.005381 0.000000 0.004742 0.000000
# 3 -0.008585 -0.005381 0.010159 0.000000 -0.003018 0.000000
# 4 0.000000 0.000000 0.000000 0.047772 0.000000 0.033720
# 5 0.005420 0.004742 -0.003018 0.000000 0.028193 0.000000
# 6 0.000000 0.000000 0.000000 0.033720 0.000000 0.187740
#
#
# Mechanical properties :
#
#
# Convention : Reuss Voigt Hill
#
# Bulk Modulus (GPa) = 17.61383 47.73281 32.67332
# Shear Modulus (GPa) = 12.94216 26.22728 19.58472
#
# Velocity S-wave (km/s) = 2.47910 3.52913 3.04965
# Velocity P-wave (km/s) = 4.06928 6.26687 5.28359
#
# Compressibility (1/GPa) = 0.05677357
#
# Stress axis : x y z
#
# Youngs Moduli (GPa) = 17.53570 76.60748 98.43596
#
# Poissons Ratio (x) = -0.17109 0.84509
# Poissons Ratio (y) = -0.03916 0.52967
# Poissons Ratio (z) = 0.15055 0.41221
#
# Static dielectric constant tensor:
#      x y z
#    x 1.763980 0.000000 -0.010020 
#    y 0.000000 1.727150 0.000000 
#    z -0.010020 0.000000 1.863740 
# 
# From -- ./inp_files/209628.got.cif
#   From: 2010.05.17/outbox.cif.g08.bks.cpg/sg15_105_cif.got.tgz:209628.got - 2010.06.03 18:47:42.
