data_PCOD9283850
_publ_section_title
;
Structure prediction by ZEFSAII (Michael W. Deem and Ramdas Pophale) SiO2 
 PCOD9283850
Probable space group: C 2/C
;
_chemical_formula_sum "Si O2"
_cell_formula_units_Z 52
_cell_length_a 5.424012
_cell_length_b 19.216737
_cell_length_c 25.385379
_cell_angle_alpha 90.000000
_cell_angle_beta 60.905416
_cell_angle_gamma 90.000000
_cell_volume 2312.091523
_symmetry_space_group_name_H-M "C 2/C"
_symmetry_group_IT_number 15
_symmetry_cell_setting 'monoclinic'
loop_
_space_group_symop_operation_xyz
x,y,z
-x,y,1/2-z
-x,-y,-z
x,-y,1/2+z
1/2+x,1/2+y,z
1/2-x,1/2+y,1/2-z
1/2-x,1/2-y,-z
1/2+x,1/2-y,1/2+z
loop_
_atom_site_type_symbol
_atom_site_label
_atom_site_fract_x
_atom_site_fract_y
_atom_site_fract_z
Si Si1 0.304607 0.290581 0.382454
Si Si2 0.500000 0.976591 0.750000
Si Si3 0.500000 0.683696 0.250000
Si Si4 0.360994 0.637243 0.078319
Si Si5 0.526284 0.992698 0.131080
Si Si6 0.080771 0.914076 0.654886
Si Si7 0.000000 0.228156 0.750000
Si Si8 0.187351 0.146772 0.935734
O O1 0.302231 0.207345 0.389985
O O2 0.414386 0.310524 0.312669
O O3 0.506098 0.322582 0.406158
O O4 0.976237 0.312358 0.419150
O O5 0.542216 0.018011 0.799910
O O6 0.763785 0.929384 0.706729
O O7 0.321893 0.634605 0.307637
O O8 0.721258 0.728140 0.261508
O O9 0.189315 0.565164 0.101967
O O10 0.597709 0.626758 0.098851
O O11 0.491603 0.644716 0.007375
O O12 0.228014 0.011089 0.135424
O O13 0.703012 0.929872 0.090484
#
# Coordination Sequence:
#
# PCOD9283850 Si02
#       8
#     8   4   4   8   8   8   4   8
#     4  12  28  49  74 106 147 196 241 308 374 438
#     4  10  21  40  65 108 145 185 240 302 376 427
#     4  12  20  40  70 110 142 170 250 312 360 414
#     4  11  26  47  77 105 141 197 258 303 353 442
#     4  11  25  43  75 105 145 196 244 310 366 443
#     4  11  22  38  74 110 144 189 246 319 369 425
#     4  12  25  44  75 104 143 187 248 300 368 445
#     4  12  30  50  70 108 156 198 239 296 378 449
#
# _framework density 22.490458
#
# number of rings (size 3 to 8) (size 9 to 14) (size 15 to 20)
#    0.000    0.615    3.077    3.692    8.615    1.846 
#    0.000    0.000    0.000    0.000    0.000    0.000 
#    0.000    0.000    0.000    0.000    0.000    0.000 
#
# Total GULP energy -145288.773912 kJ/mol
# GULP energy per Si atom -5588.029766 kJ/mol
# Density = 2.243927 g / cm^3
# Si number density = 22.490458 Si / 1000 Ang^3
#
#
#
# Elastic Constant Matrix: (Units=GPa)
#
#
# Indices 1 2 3 4 5 6 
#
# 1 125.1733 41.9026 37.2696 0.0000 11.9353 0.0000
# 2 41.9026 79.2669 15.8278 0.0000 5.8328 0.0000
# 3 37.2696 15.8278 140.3709 0.0000 21.1910 0.0000
# 4 0.0000 0.0000 0.0000 23.6059 0.0000 -14.4086
# 5 11.9353 5.8328 21.1910 0.0000 38.4038 0.0000
# 6 0.0000 0.0000 0.0000 -14.4086 0.0000 25.1790
#
#
#
# Elastic Compliance Matrix: (Units=1/GPa)
#
#
# Indices 1 2 3 4 5 6 
#
# 1 0.010382 -0.004990 -0.001987 0.000000 -0.001372 0.000000
# 2 -0.004990 0.015361 -0.000315 0.000000 -0.000608 0.000000
# 3 -0.001987 -0.000315 0.008276 0.000000 -0.003901 0.000000
# 4 0.000000 0.000000 0.000000 0.065101 0.000000 0.037254
# 5 -0.001372 -0.000608 -0.003901 0.000000 0.028711 0.000000
# 6 0.000000 0.000000 0.000000 0.037254 0.000000 0.061034
#
#
# Mechanical properties :
#
#
# Convention : Reuss Voigt Hill
#
# Bulk Modulus (GPa) = 51.45471 59.42344 55.43907
# Shear Modulus (GPa) = 23.81766 34.09181 28.95473
#
# Velocity S-wave (km/s) = 3.25778 3.89760 3.59196
# Velocity P-wave (km/s) = 6.08925 6.83623 6.47352
#
# Compressibility (1/GPa) = 0.01943457
#
# Stress axis : x y z
#
# Youngs Moduli (GPa) = 96.32180 65.09814 120.83203
#
# Poissons Ratio (x) = 0.32487 0.24004
# Poissons Ratio (y) = 0.48069 0.03810
# Poissons Ratio (z) = 0.19135 0.02052
#
# Static dielectric constant tensor:
#      x y z
#    x 2.032240 0.000000 0.009170 
#    y 0.000000 1.832360 0.000000 
#    z 0.009170 0.000000 1.795110 
# 
# From -- ./inp_files/286004.got.cif
#   From: 2010.05.17/outbox.cif.g08.bks.cpg/sg15_144_cif.got.tgz:286004.got - 2010.06.03 18:47:42.
