data_PCOD9283244
_publ_section_title
;
Structure prediction by ZEFSAII (Michael W. Deem and Ramdas Pophale) SiO2 
 PCOD9283244
Probable space group: C 2/C
;
_chemical_formula_sum "Si O2"
_cell_formula_units_Z 48
_cell_length_a 9.079110
_cell_length_b 16.724193
_cell_length_c 20.478410
_cell_angle_alpha 90.000000
_cell_angle_beta 40.123867
_cell_angle_gamma 90.000000
_cell_volume 2003.865920
_symmetry_space_group_name_H-M "C 2/C"
_symmetry_group_IT_number 15
_symmetry_cell_setting 'monoclinic'
loop_
_space_group_symop_operation_xyz
x,y,z
-x,y,1/2-z
-x,-y,-z
x,-y,1/2+z
1/2+x,1/2+y,z
1/2-x,1/2+y,1/2-z
1/2-x,1/2-y,-z
1/2+x,1/2-y,1/2+z
loop_
_atom_site_type_symbol
_atom_site_label
_atom_site_fract_x
_atom_site_fract_y
_atom_site_fract_z
Si Si1 0.357979 0.058035 0.622412
Si Si2 0.852155 0.691693 0.020323
Si Si3 0.774091 0.927378 0.667539
Si Si4 0.843483 0.181259 0.026952
Si Si5 0.337640 0.869139 0.661340
Si Si6 0.963101 0.090417 0.653762
O O1 0.588564 0.105444 0.529784
O O2 0.232902 0.101571 0.725538
O O3 0.190317 0.068844 0.617548
O O4 0.376927 0.963868 0.631296
O O5 0.743360 0.673895 0.128567
O O6 0.750000 0.750000 0.000000
O O7 0.087350 0.736529 0.962189
O O8 0.500000 0.935889 0.750000
O O9 0.881228 0.885055 0.569378
O O10 0.799948 0.874086 0.724244
O O11 0.885270 0.012300 0.641353
O O12 0.580478 0.170538 0.096449
O O13 0.992690 0.159476 0.913162
#
# Coordination Sequence:
#
# PCOD9283244 Si02
#       6
#     8   8   8   8   8   8
#     4  10  23  43  67  95 127 178 220 267 328 392
#     4  12  27  42  64 101 134 170 217 272 336 391
#     4   9  21  39  64 101 126 170 222 276 319 389
#     4  11  23  40  66  96 132 170 213 269 336 385
#     4  10  22  45  69  88 131 174 223 265 321 394
#     4  10  21  39  70  94 130 169 225 268 327 392
#
# _framework density 23.953697999999999
#
# number of rings (size 3 to 8) (size 9 to 14) (size 15 to 20)
#    0.000    1.667    1.667    1.500    2.333    5.333 
#    6.000    1.667    0.000    0.000    0.000    0.000 
#    0.000    0.000    0.000    0.000    0.000    0.000 
#
# Total GULP energy -134226.625419 kJ/mol
# GULP energy per Si atom -5592.776059 kJ/mol
# Density = 2.389918 g / cm^3
# Si number density = 23.953698 Si / 1000 Ang^3
#
#
#
# Elastic Constant Matrix: (Units=GPa)
#
#
# Indices 1 2 3 4 5 6 
#
# 1 130.3295 52.4611 35.9676 0.0073 21.5865 -0.0012
# 2 52.4611 79.9602 27.3362 0.0008 19.3485 -0.0023
# 3 35.9676 27.3362 82.9389 0.0295 35.1514 -0.0097
# 4 0.0073 0.0008 0.0295 23.7079 -0.0086 15.7578
# 5 21.5865 19.3485 35.1514 -0.0086 41.1791 0.0012
# 6 -0.0012 -0.0023 -0.0097 15.7578 0.0012 51.3540
#
#
#
# Elastic Compliance Matrix: (Units=1/GPa)
#
#
# Indices 1 2 3 4 5 6 
#
# 1 0.010947 -0.006176 -0.002365 0.000000 -0.000818 0.000000
# 2 -0.006176 0.018049 -0.001643 0.000002 -0.003841 0.000000
# 3 -0.002365 -0.001643 0.020011 -0.000040 -0.015070 0.000016
# 4 0.000000 0.000002 -0.000040 0.052987 0.000045 -0.016259
# 5 -0.000818 -0.003841 -0.015070 0.000045 0.039382 -0.000018
# 6 0.000000 0.000000 0.000016 -0.016259 -0.000018 0.024462
#
#
# Mechanical properties :
#
#
# Convention : Reuss Voigt Hill
#
# Bulk Modulus (GPa) = 34.91632 58.30648 46.61140
# Shear Modulus (GPa) = 25.54252 35.07910 30.31081
#
# Velocity S-wave (km/s) = 3.26901 3.83097 3.56109
# Velocity P-wave (km/s) = 5.37185 6.63043 6.03405
#
# Compressibility (1/GPa) = 0.02863991
#
# Stress axis : x y z
#
# Youngs Moduli (GPa) = 91.34986 55.40449 49.97130
#
# Poissons Ratio (x) = 0.34216 0.11819
# Poissons Ratio (y) = 0.56415 0.08210
# Poissons Ratio (z) = 0.21606 0.09102
#
# Static dielectric constant tensor:
#      x y z
#    x 1.929340 0.000000 -0.005980 
#    y 0.000000 1.872730 0.000000 
#    z -0.005980 0.000000 1.952180 
# 
# From -- ./inp_files/232519.got.cif
#   From: 2010.05.17/outbox.cif.g08.bks.cpg/sg15_117_cif.got.tgz:232519.got - 2010.06.03 18:47:42.
