data_PCOD9283451
_publ_section_title
;
Structure prediction by ZEFSAII (Michael W. Deem and Ramdas Pophale) SiO2 
 PCOD9283451
Probable space group: C 2/C
;
_chemical_formula_sum "Si O2"
_cell_formula_units_Z 56
_cell_length_a 19.970221
_cell_length_b 22.169775
_cell_length_c 9.143470
_cell_angle_alpha 90.000000
_cell_angle_beta 43.569658
_cell_angle_gamma 90.000000
_cell_volume 2790.121540
_symmetry_space_group_name_H-M "C 2/C"
_symmetry_group_IT_number 15
_symmetry_cell_setting 'monoclinic'
loop_
_space_group_symop_operation_xyz
x,y,z
-x,y,1/2-z
-x,-y,-z
x,-y,1/2+z
1/2+x,1/2+y,z
1/2-x,1/2+y,1/2-z
1/2-x,1/2-y,-z
1/2+x,1/2-y,1/2+z
loop_
_atom_site_type_symbol
_atom_site_label
_atom_site_fract_x
_atom_site_fract_y
_atom_site_fract_z
Si Si1 0.718712 0.555308 0.198385
Si Si2 0.500000 0.645844 0.250000
Si Si3 0.496930 0.571406 0.523259
Si Si4 0.180875 0.675173 0.476251
Si Si5 0.500000 0.236383 0.250000
Si Si6 0.702376 0.569313 0.553530
Si Si7 0.889947 0.769702 0.706704
Si Si8 0.317745 0.809102 0.868715
O O1 0.610846 0.585423 0.355419
O O2 0.794630 0.605736 0.025997
O O3 0.736633 0.548967 0.340916
O O4 0.717779 0.489371 0.129264
O O5 0.455320 0.602619 0.443195
O O6 0.574031 0.687436 0.220001
O O7 0.500000 0.500000 0.500000
O O8 0.413330 0.583702 0.772509
O O9 0.114281 0.704865 0.706161
O O10 0.283121 0.711272 0.324700
O O11 0.151964 0.684305 0.351321
O O12 0.459405 0.272566 0.455323
O O13 0.589573 0.198877 0.173905
O O14 0.757677 0.630745 0.504274
O O15 0.250000 0.750000 0.000000
#
# Coordination Sequence:
#
# PCOD9283451 Si02
#       8
#     8   4   8   8   4   8   8   8
#     4  10  21  40  61  93 129 173 220 264 333 383
#     4  12  24  38  57  91 128 174 210 260 320 392
#     4  10  23  34  57  90 130 171 218 256 319 397
#     4  10  22  42  62  95 131 166 215 272 327 391
#     4  12  26  44  67  97 130 174 220 270 332 406
#     4  10  24  37  64  90 131 172 215 276 321 398
#     4  11  24  38  66  93 128 172 214 268 329 388
#     4  11  24  43  65  97 134 171 218 273 333 390
#
# _framework density 20.070809000000001
#
# number of rings (size 3 to 8) (size 9 to 14) (size 15 to 20)
#    0.000    1.429    2.857    1.286   12.000    1.143 
#    0.000    0.000    0.000    8.571    0.000    0.000 
#    0.000    0.000    0.000    0.000    0.000    0.000 
#
# Total GULP energy -156188.190026 kJ/mol
# GULP energy per Si atom -5578.149644 kJ/mol
# Density = 2.002513 g / cm^3
# Si number density = 20.070809 Si / 1000 Ang^3
#
#
#
# Elastic Constant Matrix: (Units=GPa)
#
#
# Indices 1 2 3 4 5 6 
#
# 1 111.7174 48.6022 8.7199 0.0000 3.2125 0.0000
# 2 48.6022 130.9937 41.1238 0.0000 7.6316 0.0000
# 3 8.7199 41.1238 66.4967 0.0000 8.2945 0.0000
# 4 0.0000 0.0000 0.0000 32.8659 0.0000 4.4862
# 5 3.2125 7.6316 8.2945 0.0000 22.1065 0.0000
# 6 0.0000 0.0000 0.0000 4.4862 0.0000 36.9184
#
#
#
# Elastic Compliance Matrix: (Units=1/GPa)
#
#
# Indices 1 2 3 4 5 6 
#
# 1 0.010772 -0.004396 0.001376 0.000000 -0.000564 0.000000
# 2 -0.004396 0.011294 -0.006296 0.000000 -0.000898 0.000000
# 3 0.001376 -0.006296 0.019414 0.000000 -0.005311 0.000000
# 4 0.000000 0.000000 0.000000 0.030940 0.000000 -0.003760
# 5 -0.000564 -0.000898 -0.005311 0.000000 0.047620 0.000000
# 6 0.000000 0.000000 0.000000 -0.003760 0.000000 0.027544
#
#
# Mechanical properties :
#
#
# Convention : Reuss Voigt Hill
#
# Bulk Modulus (GPa) = 43.76579 56.23330 49.99955
# Shear Modulus (GPa) = 28.76345 32.42896 30.59621
#
# Velocity S-wave (km/s) = 3.78974 4.02397 3.90861
# Velocity P-wave (km/s) = 6.40332 7.04756 6.73315
#
# Compressibility (1/GPa) = 0.02284889
#
# Stress axis : x y z
#
# Youngs Moduli (GPa) = 92.82929 88.54328 51.50924
#
# Poissons Ratio (x) = 0.38925 -0.07090
# Poissons Ratio (y) = 0.40809 0.32431
# Poissons Ratio (z) = -0.12778 0.55748
#
# Static dielectric constant tensor:
#      x y z
#    x 1.706180 0.000000 -0.017700 
#    y 0.000000 1.733800 0.000000 
#    z -0.017700 0.000000 1.717430 
# 
# From -- ./inp_files/57822.got.cif
#   From: 2010.05.17/outbox.cif.g08.bks.cpg/sg15_29_cif.got.tgz:57822.got - 2010.06.03 18:47:42.
