data_PCOD9283940
_publ_section_title
;
Structure prediction by ZEFSAII (Michael W. Deem and Ramdas Pophale) SiO2 
 PCOD9283940
Probable space group: C 2/C
;
_chemical_formula_sum "Si O2"
_cell_formula_units_Z 40
_cell_length_a 16.369322
_cell_length_b 8.579084
_cell_length_c 26.666074
_cell_angle_alpha 90.000000
_cell_angle_beta 154.505805
_cell_angle_gamma 90.000000
_cell_volume 1611.843157
_symmetry_space_group_name_H-M "C 2/C"
_symmetry_group_IT_number 15
_symmetry_cell_setting 'monoclinic'
loop_
_space_group_symop_operation_xyz
x,y,z
-x,y,1/2-z
-x,-y,-z
x,-y,1/2+z
1/2+x,1/2+y,z
1/2-x,1/2+y,1/2-z
1/2-x,1/2-y,-z
1/2+x,1/2-y,1/2+z
loop_
_atom_site_type_symbol
_atom_site_label
_atom_site_fract_x
_atom_site_fract_y
_atom_site_fract_z
Si Si1 0.968607 0.183771 0.974967
Si Si2 0.617312 0.770196 0.763231
Si Si3 0.166572 0.848352 0.876042
Si Si4 0.398657 0.057589 0.597227
Si Si5 0.580882 0.647033 0.930719
O O1 0.164817 0.252030 0.104452
O O2 0.970822 0.213991 0.916683
O O3 0.791271 0.253789 0.905009
O O4 0.000000 0.000000 0.000000
O O5 0.500000 0.777764 0.750000
O O6 0.556048 0.632495 0.691918
O O7 0.561112 0.933031 0.702732
O O8 0.068938 0.727158 0.861392
O O9 0.000000 0.924822 0.750000
O O10 0.322712 0.936771 0.997604
O O11 0.202926 0.999791 0.515458
O O12 0.750000 0.750000 0.000000
#
# Coordination Sequence:
#
# PCOD9283940 Si02
#       5
#     8   8   8   8   8
#     4  12  22  40  68  98 124 178 220 263 333 389
#     4  11  21  40  69  91 131 169 217 273 322 393
#     4  11  24  41  65  94 140 169 216 270 328 385
#     4  10  21  42  64  96 126 175 216 265 327 392
#     4  10  21  40  65  95 125 167 223 260 329 394
#
# _framework density 24.816310000000001
#
# number of rings (size 3 to 8) (size 9 to 14) (size 15 to 20)
#    0.000    1.200    6.000    1.800    0.000    5.600 
#    0.000    4.000    0.000    0.000    0.000    0.000 
#    0.000    0.000    0.000    0.000    0.000    0.000 
#
# Total GULP energy -111655.177991 kJ/mol
# GULP energy per Si atom -5582.758900 kJ/mol
# Density = 2.475983 g / cm^3
# Si number density = 24.816310 Si / 1000 Ang^3
#
#
#
# Elastic Constant Matrix: (Units=GPa)
#
#
# Indices 1 2 3 4 5 6 
#
# 1 124.6091 18.1570 40.7903 -0.0001 -27.4472 -0.0001
# 2 18.1570 49.9161 1.5688 0.0004 -14.7259 -0.0001
# 3 40.7903 1.5688 137.6497 0.0037 -32.6572 -0.0003
# 4 -0.0001 0.0004 0.0037 33.2243 -0.0001 -17.8243
# 5 -27.4472 -14.7259 -32.6572 -0.0001 40.8732 -0.0001
# 6 -0.0001 -0.0001 -0.0003 -17.8243 -0.0001 23.1807
#
#
#
# Elastic Compliance Matrix: (Units=1/GPa)
#
#
# Indices 1 2 3 4 5 6 
#
# 1 0.009930 -0.002272 -0.001886 0.000001 0.004343 0.000000
# 2 -0.002272 0.023414 0.002524 -0.000001 0.008927 0.000000
# 3 -0.001886 0.002524 0.009514 -0.000002 0.007244 -0.000001
# 4 0.000001 -0.000001 -0.000002 0.051233 -0.000001 0.039395
# 5 0.004343 0.008927 0.007244 -0.000001 0.036386 0.000000
# 6 0.000000 0.000000 -0.000001 0.039395 0.000000 0.073431
#
#
# Mechanical properties :
#
#
# Convention : Reuss Voigt Hill
#
# Bulk Modulus (GPa) = 25.25874 48.13411 36.69643
# Shear Modulus (GPa) = 22.68880 36.23289 29.46085
#
# Velocity S-wave (km/s) = 3.02697 3.82520 3.44925
# Velocity P-wave (km/s) = 4.73467 6.24082 5.53917
#
# Compressibility (1/GPa) = 0.03959025
#
# Stress axis : x y z
#
# Youngs Moduli (GPa) = 100.70320 42.70912 105.11168
#
# Poissons Ratio (x) = 0.09702 0.19829
# Poissons Ratio (y) = 0.22877 -0.26533
# Poissons Ratio (z) = 0.18997 -0.10781
#
# Static dielectric constant tensor:
#      x y z
#    x 1.981290 0.000000 0.034540 
#    y 0.000000 2.228870 0.000000 
#    z 0.034540 0.000000 2.168340 
# 
# From -- ./inp_files/273931.got.cif
#   From: 2010.05.17/outbox.cif.g08.bks.cpg/sg15_137_cif.got.tgz:273931.got - 2010.06.03 18:47:42.
