data_PCOD9283550
_publ_section_title
;
Structure prediction by ZEFSAII (Michael W. Deem and Ramdas Pophale) SiO2 
 PCOD9283550
Probable space group: C 2/C
;
_chemical_formula_sum "Si O2"
_cell_formula_units_Z 56
_cell_length_a 31.102637
_cell_length_b 11.511195
_cell_length_c 9.467306
_cell_angle_alpha 90.000000
_cell_angle_beta 56.099575
_cell_angle_gamma 90.000000
_cell_volume 2813.367025
_symmetry_space_group_name_H-M "C 2/C"
_symmetry_group_IT_number 15
_symmetry_cell_setting 'monoclinic'
loop_
_space_group_symop_operation_xyz
x,y,z
-x,y,1/2-z
-x,-y,-z
x,-y,1/2+z
1/2+x,1/2+y,z
1/2-x,1/2+y,1/2-z
1/2-x,1/2-y,-z
1/2+x,1/2-y,1/2+z
loop_
_atom_site_type_symbol
_atom_site_label
_atom_site_fract_x
_atom_site_fract_y
_atom_site_fract_z
Si Si1 0.178452 0.505552 0.882051
Si Si2 0.200349 0.670615 0.582186
Si Si3 0.367715 0.146633 0.273856
Si Si4 0.496971 0.318196 0.597402
Si Si5 0.486211 0.109540 0.116616
Si Si6 0.383012 0.603517 0.638878
Si Si7 0.879239 0.122688 0.317447
O O1 0.202191 0.585307 0.714738
O O2 0.138929 0.430282 0.856376
O O3 0.203946 0.404922 0.931630
O O4 0.161591 0.593456 0.037852
O O5 0.250000 0.750000 0.500000
O O6 0.149042 0.755563 0.673829
O O7 0.426459 0.135320 0.211216
O O8 0.358794 0.281390 0.254626
O O9 0.500000 0.264465 0.750000
O O10 0.487710 0.222859 0.495373
O O11 0.553141 0.379941 0.472341
O O12 0.442300 0.383476 0.696754
O O13 0.500000 0.087603 0.250000
O O14 0.500000 0.000000 0.000000
O O15 0.367150 0.603324 0.504252
O O16 0.364051 0.486461 0.748721
#
# Coordination Sequence:
#
# PCOD9283550 Si02
#       7
#     8   8   8   8   8   8   8
#     4  10  23  45  71  91 134 163 209 274 326 391
#     4  11  26  47  71 101 126 170 219 273 342 393
#     4  10  21  40  62  93 130 174 209 262 327 376
#     4   9  21  38  55  86 128 172 216 272 322 382
#     4  11  22  30  52  90 128 170 222 255 306 386
#     4  10  22  39  60  97 129 172 223 264 319 400
#     4  11  23  39  65  88 133 171 220 269 332 389
#
# _framework density 19.904975
#
# number of rings (size 3 to 8) (size 9 to 14) (size 15 to 20)
#    0.000    1.714    1.429    1.714    8.000    2.286 
#    0.000    2.143    0.000    0.000    0.000    0.000 
#    0.000    0.000    0.000    0.000    0.000    0.000 
#
# Total GULP energy -155904.828468 kJ/mol
# GULP energy per Si atom -5568.029588 kJ/mol
# Density = 1.985967 g / cm^3
# Si number density = 19.904975 Si / 1000 Ang^3
#
#
#
# Elastic Constant Matrix: (Units=GPa)
#
#
# Indices 1 2 3 4 5 6 
#
# 1 43.5320 33.6149 44.3508 0.0000 27.3742 0.0000
# 2 33.6149 108.2325 51.8843 0.0000 24.8374 0.0000
# 3 44.3508 51.8843 79.5981 0.0000 46.9467 0.0000
# 4 0.0000 0.0000 0.0000 34.6022 0.0000 15.0612
# 5 27.3742 24.8374 46.9467 0.0000 36.0801 0.0000
# 6 0.0000 0.0000 0.0000 15.0612 0.0000 28.3180
#
#
#
# Elastic Compliance Matrix: (Units=1/GPa)
#
#
# Indices 1 2 3 4 5 6 
#
# 1 0.054920 -0.004320 -0.021340 0.000000 -0.010928 0.000000
# 2 -0.004320 0.014533 -0.013324 0.000000 0.010609 0.000000
# 3 -0.021340 -0.013324 0.078167 0.000000 -0.076347 0.000000
# 4 0.000000 0.000000 0.000000 0.037606 0.000000 -0.020001
# 5 -0.010928 0.010609 -0.076347 0.000000 0.128045 0.000000
# 6 0.000000 0.000000 0.000000 -0.020001 0.000000 0.045951
#
#
# Mechanical properties :
#
#
# Convention : Reuss Voigt Hill
#
# Bulk Modulus (GPa) = 14.35657 54.56252 34.45954
# Shear Modulus (GPa) = 10.85997 26.56756 18.71377
#
# Velocity S-wave (km/s) = 2.33832 3.65735 3.06952
# Velocity P-wave (km/s) = 3.81032 6.73097 5.46921
#
# Compressibility (1/GPa) = 0.06965453
#
# Stress axis : x y z
#
# Youngs Moduli (GPa) = 18.20837 68.80672 12.79307
#
# Poissons Ratio (x) = 0.29721 0.27300
# Poissons Ratio (y) = 0.07865 0.17045
# Poissons Ratio (z) = 0.38856 0.91677
#
# Static dielectric constant tensor:
#      x y z
#    x 1.697130 0.000000 -0.008390 
#    y 0.000000 1.767240 0.000000 
#    z -0.008390 0.000000 1.761130 
# 
# From -- ./inp_files/69285.got.cif
#   From: 2010.05.17/outbox.cif.g08.bks.cpg/sg15_35_cif.got.tgz:69285.got - 2010.06.03 18:47:42.
