data_PCOD9283177
_publ_section_title
;
Structure prediction by ZEFSAII (Michael W. Deem and Ramdas Pophale) SiO2 
 PCOD9283177
Probable space group: C 2/C
;
_chemical_formula_sum "Si O2"
_cell_formula_units_Z 56
_cell_length_a 12.338973
_cell_length_b 14.084900
_cell_length_c 22.119538
_cell_angle_alpha 90.000000
_cell_angle_beta 139.095514
_cell_angle_gamma 90.000000
_cell_volume 2517.198700
_symmetry_space_group_name_H-M "C 2/C"
_symmetry_group_IT_number 15
_symmetry_cell_setting 'monoclinic'
loop_
_space_group_symop_operation_xyz
x,y,z
-x,y,1/2-z
-x,-y,-z
x,-y,1/2+z
1/2+x,1/2+y,z
1/2-x,1/2+y,1/2-z
1/2-x,1/2-y,-z
1/2+x,1/2-y,1/2+z
loop_
_atom_site_type_symbol
_atom_site_label
_atom_site_fract_x
_atom_site_fract_y
_atom_site_fract_z
Si Si1 0.119551 0.709227 0.037235
Si Si2 0.072921 0.440775 0.626342
Si Si3 0.722519 0.825463 0.785969
Si Si4 0.066569 0.105580 0.014290
Si Si5 0.462940 0.634894 0.163253
Si Si6 0.778235 0.367349 0.347080
Si Si7 0.302944 0.559806 0.558459
O O1 0.114303 0.637886 0.092725
O O2 0.299695 0.698220 0.084881
O O3 0.076680 0.816451 0.037023
O O4 0.964700 0.674049 0.932080
O O5 0.087983 0.391492 0.697500
O O6 0.198141 0.529259 0.672203
O O7 0.886051 0.472636 0.534072
O O8 0.788986 0.865582 0.877610
O O9 0.676242 0.714893 0.771468
O O10 0.878854 0.831279 0.806549
O O11 0.131575 0.110990 0.973374
O O12 0.000000 0.000000 0.000000
O O13 0.500000 0.633054 0.250000
O O14 0.414172 0.530993 0.119361
O O15 0.290562 0.380232 0.114432
#
# Coordination Sequence:
#
# PCOD9283177 Si02
#       7
#     8   8   8   8   8   8   8
#     4  10  21  39  68  96 129 175 224 274 334 401
#     4  11  21  43  70  99 135 174 235 284 333 405
#     4  11  25  39  66 103 140 168 232 286 334 400
#     4  11  25  42  64  98 142 176 216 282 341 399
#     4  12  21  42  72 104 126 180 235 282 333 409
#     4  10  21  41  70  97 128 180 228 278 334 405
#     4  11  22  44  75  92 136 190 222 269 354 407
#
# _framework density 22.246952
#
# number of rings (size 3 to 8) (size 9 to 14) (size 15 to 20)
#    0.000    1.143    5.714    0.857    0.000   10.286 
#    2.571    0.000    3.143    0.000    0.000    0.000 
#    0.000    0.000    0.000    0.000    0.000    0.000 
#
# Total GULP energy -156692.823577 kJ/mol
# GULP energy per Si atom -5596.172271 kJ/mol
# Density = 2.219632 g / cm^3
# Si number density = 22.246952 Si / 1000 Ang^3
#
#
#
# Elastic Constant Matrix: (Units=GPa)
#
#
# Indices 1 2 3 4 5 6 
#
# 1 74.6855 8.4686 18.8489 0.0000 -7.0966 0.0000
# 2 8.4686 132.2200 27.1862 0.0000 -14.4447 0.0000
# 3 18.8489 27.1862 64.2140 0.0000 -14.6869 0.0000
# 4 0.0000 0.0000 0.0000 9.5656 0.0000 -7.0790
# 5 -7.0966 -14.4447 -14.6869 0.0000 38.4156 0.0000
# 6 0.0000 0.0000 0.0000 -7.0790 0.0000 27.9043
#
#
#
# Elastic Compliance Matrix: (Units=1/GPa)
#
#
# Indices 1 2 3 4 5 6 
#
# 1 0.014507 0.000020 -0.004002 0.000000 0.001157 0.000000
# 2 0.000020 0.008419 -0.003118 0.000000 0.001977 0.000000
# 3 -0.004002 -0.003118 0.019320 0.000000 0.005475 0.000000
# 4 0.000000 0.000000 0.000000 0.128704 0.000000 0.032650
# 5 0.001157 0.001977 0.005475 0.000000 0.029081 0.000000
# 6 0.000000 0.000000 0.000000 0.032650 0.000000 0.044120
#
#
# Mechanical properties :
#
#
# Convention : Reuss Voigt Hill
#
# Bulk Modulus (GPa) = 35.65558 42.23633 38.94595
# Shear Modulus (GPa) = 18.67766 29.61817 24.14791
#
# Velocity S-wave (km/s) = 2.90066 3.65271 3.29819
# Velocity P-wave (km/s) = 5.22306 6.06763 5.66112
#
# Compressibility (1/GPa) = 0.02804610
#
# Stress axis : x y z
#
# Youngs Moduli (GPa) = 68.93121 118.77919 51.76009
#
# Poissons Ratio (x) = -0.00240 0.20715
# Poissons Ratio (y) = -0.00139 0.16139
# Poissons Ratio (z) = 0.27587 0.37036
#
# Static dielectric constant tensor:
#      x y z
#    x 1.815080 0.000000 -0.002740 
#    y 0.000000 1.816460 0.000000 
#    z -0.002740 0.000000 1.852370 
# 
# From -- ./inp_files/296590.got.cif
#   From: 2010.05.17/outbox.cif.g08.bks.cpg/sg15_149_cif.got.tgz:296590.got - 2010.06.03 18:47:42.
