data_PCOD9283339
_publ_section_title
;
Structure prediction by ZEFSAII (Michael W. Deem and Ramdas Pophale) SiO2 
 PCOD9283339
Probable space group: C 2/C
;
_chemical_formula_sum "Si O2"
_cell_formula_units_Z 40
_cell_length_a 17.499328
_cell_length_b 13.392186
_cell_length_c 11.842873
_cell_angle_alpha 90.000000
_cell_angle_beta 130.897552
_cell_angle_gamma 90.000000
_cell_volume 2097.894282
_symmetry_space_group_name_H-M "C 2/C"
_symmetry_group_IT_number 15
_symmetry_cell_setting 'monoclinic'
loop_
_space_group_symop_operation_xyz
x,y,z
-x,y,1/2-z
-x,-y,-z
x,-y,1/2+z
1/2+x,1/2+y,z
1/2-x,1/2+y,1/2-z
1/2-x,1/2-y,-z
1/2+x,1/2-y,1/2+z
loop_
_atom_site_type_symbol
_atom_site_label
_atom_site_fract_x
_atom_site_fract_y
_atom_site_fract_z
Si Si1 0.996069 0.870500 0.112655
Si Si2 0.457555 0.157343 0.443916
Si Si3 0.131618 0.463028 0.238815
Si Si4 0.165321 0.020891 0.187495
Si Si5 0.289720 0.152432 0.472406
O O1 0.011872 0.758165 0.087121
O O2 0.086354 0.938431 0.151612
O O3 0.000000 0.876852 0.250000
O O4 0.891845 0.913431 0.961668
O O5 0.552622 0.109850 0.601144
O O6 0.370211 0.177823 0.452219
O O7 0.416340 0.073457 0.317371
O O8 0.235584 0.470220 0.269323
O O9 0.156472 0.421322 0.386183
O O10 0.200086 0.092441 0.323458
O O11 0.250000 0.250000 0.500000
#
# Coordination Sequence:
#
# PCOD9283339 Si02
#       5
#     8   8   8   8   8
#     4  11  23  40  60  85 118 155 192 245 299 343
#     4  10  23  38  60  91 119 152 199 239 288 357
#     4  10  21  40  60  85 120 156 194 243 289 342
#     4  10  23  40  59  87 117 152 202 240 285 357
#     4  11  21  38  64  90 118 156 193 240 295 344
#
# _framework density 19.066738999999998
#
# number of rings (size 3 to 8) (size 9 to 14) (size 15 to 20)
#    0.000    1.600    0.000    4.200    0.000    8.000 
#    0.000    6.000    0.000    0.000    0.000    0.000 
#    0.000    0.000    0.000    0.000    0.000    0.000 
#
# Total GULP energy -111814.593670 kJ/mol
# GULP energy per Si atom -5590.729684 kJ/mol
# Density = 1.902334 g / cm^3
# Si number density = 19.066739 Si / 1000 Ang^3
#
#
#
# Elastic Constant Matrix: (Units=GPa)
#
#
# Indices 1 2 3 4 5 6 
#
# 1 30.2910 27.8880 18.1405 0.0000 10.2874 0.0000
# 2 27.8880 105.4059 56.0924 0.0000 -4.2305 0.0000
# 3 18.1405 56.0924 127.4660 0.0000 -0.9456 0.0000
# 4 0.0000 0.0000 0.0000 17.1139 0.0000 -7.1465
# 5 10.2874 -4.2305 -0.9456 0.0000 36.4328 0.0000
# 6 0.0000 0.0000 0.0000 -7.1465 0.0000 25.6796
#
#
#
# Elastic Compliance Matrix: (Units=1/GPa)
#
#
# Indices 1 2 3 4 5 6 
#
# 1 0.051978 -0.013587 -0.001539 0.000000 -0.016295 0.000000
# 2 -0.013587 0.016002 -0.005067 0.000000 0.005563 0.000000
# 3 -0.001539 -0.005067 0.010295 0.000000 0.000113 0.000000
# 4 0.000000 0.000000 0.000000 0.066115 0.000000 0.018399
# 5 -0.016295 0.005563 0.000113 0.000000 0.032698 0.000000
# 6 0.000000 0.000000 0.000000 0.018399 0.000000 0.044062
#
#
# Mechanical properties :
#
#
# Convention : Reuss Voigt Hill
#
# Bulk Modulus (GPa) = 26.39317 51.93386 39.16352
# Shear Modulus (GPa) = 18.23720 26.58139 22.40929
#
# Velocity S-wave (km/s) = 3.09608 3.73785 3.43200
# Velocity P-wave (km/s) = 5.16270 6.77685 6.02409
#
# Compressibility (1/GPa) = 0.03788859
#
# Stress axis : x y z
#
# Youngs Moduli (GPa) = 19.23884 62.49410 97.13710
#
# Poissons Ratio (x) = 0.84912 0.14950
# Poissons Ratio (y) = 0.26140 0.49216
# Poissons Ratio (z) = 0.02961 0.31664
#
# Static dielectric constant tensor:
#      x y z
#    x 1.647810 0.000000 0.008150 
#    y 0.000000 1.637050 0.000000 
#    z 0.008150 0.000000 1.641520 
# 
# From -- ./inp_files/96012.got.cif
#   From: 2010.05.17/outbox.cif.g08.bks.cpg/sg15_49_cif.got.tgz:96012.got - 2010.06.03 18:47:42.
