data_PCOD9283889
_publ_section_title
;
Structure prediction by ZEFSAII (Michael W. Deem and Ramdas Pophale) SiO2 
 PCOD9283889
Probable space group: C 2/C
;
_chemical_formula_sum "Si O2"
_cell_formula_units_Z 48
_cell_length_a 8.199018
_cell_length_b 32.811639
_cell_length_c 8.759360
_cell_angle_alpha 90.000000
_cell_angle_beta 87.982387
_cell_angle_gamma 90.000000
_cell_volume 2355.010331
_symmetry_space_group_name_H-M "C 2/C"
_symmetry_group_IT_number 15
_symmetry_cell_setting 'monoclinic'
loop_
_space_group_symop_operation_xyz
x,y,z
-x,y,1/2-z
-x,-y,-z
x,-y,1/2+z
1/2+x,1/2+y,z
1/2-x,1/2+y,1/2-z
1/2-x,1/2-y,-z
1/2+x,1/2-y,1/2+z
loop_
_atom_site_type_symbol
_atom_site_label
_atom_site_fract_x
_atom_site_fract_y
_atom_site_fract_z
Si Si1 0.784696 0.297619 0.499124
Si Si2 0.500000 0.840814 0.250000
Si Si3 0.284319 0.468660 0.398986
Si Si4 0.691844 0.112771 0.005667
Si Si5 0.169851 0.049449 0.946590
Si Si6 0.500000 0.837053 0.750000
Si Si7 0.548281 0.369228 0.570817
O O1 0.750000 0.250000 0.500000
O O2 0.868011 0.312911 0.340522
O O3 0.627425 0.325600 0.537831
O O4 0.910122 0.309438 0.629241
O O5 0.412135 0.868823 0.128312
O O6 0.186408 0.436100 0.503137
O O7 0.258166 0.515616 0.441931
O O8 0.256116 0.457161 0.223583
O O9 0.476318 0.460434 0.429916
O O10 0.626867 0.133800 0.160075
O O11 0.881148 0.125241 0.982595
O O12 0.172176 0.095159 0.011740
O O13 0.500000 0.375157 0.750000
#
# Coordination Sequence:
#
# PCOD9283889 Si02
#       7
#     8   4   8   8   8   4   8
#     4  11  25  42  66  93 127 163 212 263 320 382
#     4  10  24  42  64  91 132 170 202 265 328 380
#     4   9  18  32  54  89 123 159 201 255 310 357
#     4  10  21  40  65  91 128 169 211 259 315 383
#     4   9  19  30  55  89 124 153 202 261 309 352
#     4  10  22  42  62  93 128 172 204 255 332 384
#     4  11  22  38  66  96 122 163 217 265 313 376
#
# _framework density 20.382075
#
# number of rings (size 3 to 8) (size 9 to 14) (size 15 to 20)
#    0.000    2.000    1.667    1.000    8.167    3.333 
#    0.000    3.333    0.000   17.000    0.000    0.000 
#    0.000    0.000    0.000    0.000    0.000    0.000 
#
# Total GULP energy -134087.141689 kJ/mol
# GULP energy per Si atom -5586.964237 kJ/mol
# Density = 2.033568 g / cm^3
# Si number density = 20.382075 Si / 1000 Ang^3
#
#
#
# Elastic Constant Matrix: (Units=GPa)
#
#
# Indices 1 2 3 4 5 6 
#
# 1 38.2458 30.8221 2.6805 0.0000 1.5208 0.0000
# 2 30.8221 175.4745 39.4181 0.0000 -13.2499 0.0000
# 3 2.6805 39.4181 73.7228 0.0000 -9.5914 0.0000
# 4 0.0000 0.0000 0.0000 16.9325 0.0000 -4.4549
# 5 1.5208 -13.2499 -9.5914 0.0000 17.2220 0.0000
# 6 0.0000 0.0000 0.0000 -4.4549 0.0000 23.1546
#
#
#
# Elastic Compliance Matrix: (Units=1/GPa)
#
#
# Indices 1 2 3 4 5 6 
#
# 1 0.031443 -0.006348 0.001352 0.000000 -0.006907 0.000000
# 2 -0.006348 0.007936 -0.003391 0.000000 0.004778 0.000000
# 3 0.001352 -0.003391 0.016143 0.000000 0.006262 0.000000
# 4 0.000000 0.000000 0.000000 0.062207 0.000000 0.011969
# 5 -0.006907 0.004778 0.006262 0.000000 0.065839 0.000000
# 6 0.000000 0.000000 0.000000 0.011969 0.000000 0.045491
#
#
# Mechanical properties :
#
#
# Convention : Reuss Voigt Hill
#
# Bulk Modulus (GPa) = 25.80766 48.14274 36.97520
# Shear Modulus (GPa) = 19.32381 25.76332 22.54356
#
# Velocity S-wave (km/s) = 3.08243 3.55916 3.32934
# Velocity P-wave (km/s) = 5.03566 6.36880 5.74106
#
# Compressibility (1/GPa) = 0.03874818
#
# Stress axis : x y z
#
# Youngs Moduli (GPa) = 31.80401 126.00111 61.94646
#
# Poissons Ratio (x) = 0.79989 -0.08377
# Poissons Ratio (y) = 0.20190 0.21006
# Poissons Ratio (z) = -0.04301 0.42727
#
# Static dielectric constant tensor:
#      x y z
#    x 1.749150 0.000000 -0.002470 
#    y 0.000000 1.689900 0.000000 
#    z -0.002470 0.000000 1.728280 
# 
# From -- ./inp_files/26168.got.cif
#   From: 2010.05.17/outbox.cif.g08.bks.cpg/sg15_14_cif.got.tgz:26168.got - 2010.06.03 18:47:42.
