data_PCOD9283438
_publ_section_title
;
Structure prediction by ZEFSAII (Michael W. Deem and Ramdas Pophale) SiO2 
 PCOD9283438
Probable space group: C 2/C
;
_chemical_formula_sum "Si O2"
_cell_formula_units_Z 36
_cell_length_a 8.325541
_cell_length_b 11.835531
_cell_length_c 17.765236
_cell_angle_alpha 90.000000
_cell_angle_beta 121.520926
_cell_angle_gamma 90.000000
_cell_volume 1492.243648
_symmetry_space_group_name_H-M "C 2/C"
_symmetry_group_IT_number 15
_symmetry_cell_setting 'monoclinic'
loop_
_space_group_symop_operation_xyz
x,y,z
-x,y,1/2-z
-x,-y,-z
x,-y,1/2+z
1/2+x,1/2+y,z
1/2-x,1/2+y,1/2-z
1/2-x,1/2-y,-z
1/2+x,1/2-y,1/2+z
loop_
_atom_site_type_symbol
_atom_site_label
_atom_site_fract_x
_atom_site_fract_y
_atom_site_fract_z
Si Si1 0.921293 0.303233 0.993773
Si Si2 0.385857 0.523123 0.794581
Si Si3 0.000000 0.759675 0.250000
Si Si4 0.687358 0.614727 0.087847
Si Si5 0.047244 0.511315 0.115747
O O1 0.046907 0.392362 0.072791
O O2 0.056315 0.198164 0.009095
O O3 0.750000 0.250000 0.000000
O O4 0.869395 0.383228 0.910985
O O5 0.500000 0.476227 0.750000
O O6 0.429645 0.655676 0.798559
O O7 0.429462 0.462897 0.882991
O O8 0.167638 0.504469 0.720193
O O9 0.170883 0.688903 0.325658
O O10 0.829115 0.539245 0.074905
#
# Coordination Sequence:
#
# PCOD9283438 Si02
#       5
#     8   8   4   8   8
#     4  11  25  42  62  92 128 166 202 253 312 364
#     4  10  21  40  61  92 124 156 210 258 299 369
#     4  10  22  38  64  90 124 156 204 262 304 350
#     4  12  22  43  65  92 123 167 205 254 315 355
#     4  11  23  41  62  92 126 160 212 252 299 382
#
# _framework density 24.124745999999998
#
# number of rings (size 3 to 8) (size 9 to 14) (size 15 to 20)
#    0.667    0.444    4.444    2.000    0.000    2.667 
#    4.000    0.000    0.000    0.000    0.000    0.000 
#    0.000    0.000    0.000    0.000    0.000    0.000 
#
# Total GULP energy -100623.593559 kJ/mol
# GULP energy per Si atom -5590.199642 kJ/mol
# Density = 2.406984 g / cm^3
# Si number density = 24.124746 Si / 1000 Ang^3
#
#
#
# Elastic Constant Matrix: (Units=GPa)
#
#
# Indices 1 2 3 4 5 6 
#
# 1 84.8473 10.5549 -9.5581 0.0000 -3.2244 0.0000
# 2 10.5549 98.4495 31.1922 0.0000 -4.5932 0.0000
# 3 -9.5581 31.1922 48.9160 0.0000 5.4266 0.0000
# 4 0.0000 0.0000 0.0000 8.2544 0.0000 -1.5775
# 5 -3.2244 -4.5932 5.4266 0.0000 31.7120 0.0000
# 6 0.0000 0.0000 0.0000 -1.5775 0.0000 44.9017
#
#
#
# Elastic Compliance Matrix: (Units=1/GPa)
#
#
# Indices 1 2 3 4 5 6 
#
# 1 0.012587 -0.002648 0.004127 0.000000 0.000190 0.000000
# 2 -0.002648 0.013633 -0.009582 0.000000 0.003345 0.000000
# 3 0.004127 -0.009582 0.027999 0.000000 -0.005759 0.000000
# 4 0.000000 0.000000 0.000000 0.121966 0.000000 0.004285
# 5 0.000190 0.003345 -0.005759 0.000000 0.033023 0.000000
# 6 0.000000 0.000000 0.000000 0.004285 0.000000 0.022421
#
#
# Mechanical properties :
#
#
# Convention : Reuss Voigt Hill
#
# Bulk Modulus (GPa) = 26.30665 32.95454 29.63060
# Shear Modulus (GPa) = 19.19328 30.30853 24.75091
#
# Velocity S-wave (km/s) = 2.82367 3.54831 3.20653
# Velocity P-wave (km/s) = 4.64316 5.52061 5.10078
#
# Compressibility (1/GPa) = 0.03801320
#
# Stress axis : x y z
#
# Youngs Moduli (GPa) = 79.44408 73.34903 35.71581
#
# Poissons Ratio (x) = 0.19425 -0.14741
# Poissons Ratio (y) = 0.21039 0.34223
# Poissons Ratio (z) = -0.32788 0.70284
#
# Static dielectric constant tensor:
#      x y z
#    x 1.981470 0.000000 -0.094500 
#    y 0.000000 1.879640 0.000000 
#    z -0.094500 0.000000 2.093660 
# 
# From -- ./inp_files/187602.got.cif
#   From: 2010.05.17/outbox.cif.g08.bks.cpg/sg15_94_cif.got.tgz:187602.got - 2010.06.03 18:47:42.
