data_PCOD9283213
_publ_section_title
;
Structure prediction by ZEFSAII (Michael W. Deem and Ramdas Pophale) SiO2 
 PCOD9283213
Probable space group: C 2/C
;
_chemical_formula_sum "Si O2"
_cell_formula_units_Z 48
_cell_length_a 18.743670
_cell_length_b 8.850848
_cell_length_c 30.051104
_cell_angle_alpha 90.000000
_cell_angle_beta 28.123682
_cell_angle_gamma 90.000000
_cell_volume 2349.999795
_symmetry_space_group_name_H-M "C 2/C"
_symmetry_group_IT_number 15
_symmetry_cell_setting 'monoclinic'
loop_
_space_group_symop_operation_xyz
x,y,z
-x,y,1/2-z
-x,-y,-z
x,-y,1/2+z
1/2+x,1/2+y,z
1/2-x,1/2+y,1/2-z
1/2-x,1/2-y,-z
1/2+x,1/2-y,1/2+z
loop_
_atom_site_type_symbol
_atom_site_label
_atom_site_fract_x
_atom_site_fract_y
_atom_site_fract_z
Si Si1 0.620113 0.339322 0.546276
Si Si2 0.891088 0.929950 0.523001
Si Si3 0.059284 0.269125 0.857997
Si Si4 0.575201 0.600626 0.639796
Si Si5 0.365770 0.893609 0.154726
Si Si6 0.232016 0.151138 0.638078
O O1 0.750000 0.250000 0.500000
O O2 0.668168 0.441286 0.477675
O O3 0.560839 0.458318 0.615406
O O4 0.494583 0.223433 0.598174
O O5 0.760300 0.829912 0.617120
O O6 0.990614 0.813017 0.438907
O O7 0.000000 0.000000 0.500000
O O8 0.209173 0.177764 0.759752
O O9 0.102166 0.441285 0.843406
O O10 0.935096 0.245668 0.887054
O O11 0.715993 0.590696 0.596339
O O12 0.425771 0.613224 0.751747
O O13 0.352812 0.904037 0.108026
#
# Coordination Sequence:
#
# PCOD9283213 Si02
#       6
#     8   8   8   8   8   8
#     4  11  25  42  64  95 132 163 215 266 321 379
#     4  11  23  41  62  99 128 164 214 271 314 381
#     4  10  23  38  69  90 127 168 213 258 321 380
#     4   9  22  42  64  90 127 170 207 263 320 384
#     4  11  22  42  64  93 124 171 209 258 318 385
#     4  10  21  39  69  86 129 163 214 259 320 374
#
# _framework density 20.425533000000001
#
# number of rings (size 3 to 8) (size 9 to 14) (size 15 to 20)
#    0.000    1.667    1.667    3.000    7.000    3.333 
#    0.000    0.000    0.000    0.000    0.000    0.000 
#    0.000    0.000    0.000    0.000    0.000    0.000 
#
# Total GULP energy -133950.360008 kJ/mol
# GULP energy per Si atom -5581.265000 kJ/mol
# Density = 2.037904 g / cm^3
# Si number density = 20.425533 Si / 1000 Ang^3
#
#
#
# Elastic Constant Matrix: (Units=GPa)
#
#
# Indices 1 2 3 4 5 6 
#
# 1 184.5700 67.1692 22.8821 -0.0017 0.1916 0.0035
# 2 67.1692 129.1927 18.6073 -0.0012 1.9420 0.0020
# 3 22.8821 18.6073 43.6396 0.0002 -3.0328 -0.0005
# 4 -0.0017 -0.0012 0.0002 34.4734 0.0004 -7.3444
# 5 0.1916 1.9420 -3.0328 0.0004 27.4684 -0.0007
# 6 0.0035 0.0020 -0.0005 -7.3444 -0.0007 31.8045
#
#
#
# Elastic Compliance Matrix: (Units=1/GPa)
#
#
# Indices 1 2 3 4 5 6 
#
# 1 0.006878 -0.003255 -0.002223 0.000000 -0.000063 -0.000001
# 2 -0.003255 0.009813 -0.002544 0.000000 -0.000952 0.000000
# 3 -0.002223 -0.002544 0.025374 0.000000 0.002997 0.000001
# 4 0.000000 0.000000 0.000000 0.030509 0.000000 0.007045
# 5 -0.000063 -0.000952 0.002997 0.000000 0.036804 0.000001
# 6 -0.000001 0.000000 0.000001 0.007045 0.000001 0.033069
#
#
# Mechanical properties :
#
#
# Convention : Reuss Voigt Hill
#
# Bulk Modulus (GPa) = 38.42966 63.85774 51.14370
# Shear Modulus (GPa) = 29.91066 35.33216 32.62141
#
# Velocity S-wave (km/s) = 3.83087 4.16360 4.00070
# Velocity P-wave (km/s) = 6.19861 7.37873 6.81427
#
# Compressibility (1/GPa) = 0.02602156
#
# Stress axis : x y z
#
# Youngs Moduli (GPa) = 145.38644 101.90206 39.41118
#
# Poissons Ratio (x) = 0.33169 0.08761
# Poissons Ratio (y) = 0.47323 0.10025
# Poissons Ratio (z) = 0.32321 0.25921
#
# Static dielectric constant tensor:
#      x y z
#    x 1.779950 0.000000 0.007990 
#    y 0.000000 1.705250 0.000000 
#    z 0.007990 0.000000 1.721420 
# 
# From -- ./inp_files/209289.got.cif
#   From: 2010.05.17/outbox.cif.g08.bks.cpg/sg15_105_cif.got.tgz:209289.got - 2010.06.03 18:47:42.
