data_PCOD9283249
_publ_section_title
;
Structure prediction by ZEFSAII (Michael W. Deem and Ramdas Pophale) SiO2 
 PCOD9283249
Probable space group: C 2/C
;
_chemical_formula_sum "Si O2"
_cell_formula_units_Z 48
_cell_length_a 14.577208
_cell_length_b 12.585615
_cell_length_c 12.707171
_cell_angle_alpha 90.000000
_cell_angle_beta 73.751778
_cell_angle_gamma 90.000000
_cell_volume 2238.181910
_symmetry_space_group_name_H-M "C 2/C"
_symmetry_group_IT_number 15
_symmetry_cell_setting 'monoclinic'
loop_
_space_group_symop_operation_xyz
x,y,z
-x,y,1/2-z
-x,-y,-z
x,-y,1/2+z
1/2+x,1/2+y,z
1/2-x,1/2+y,1/2-z
1/2-x,1/2-y,-z
1/2+x,1/2-y,1/2+z
loop_
_atom_site_type_symbol
_atom_site_label
_atom_site_fract_x
_atom_site_fract_y
_atom_site_fract_z
Si Si1 0.467503 0.833434 0.011552
Si Si2 0.379976 0.021436 0.152640
Si Si3 0.895146 0.179853 0.755841
Si Si4 0.184698 0.628202 0.122368
Si Si5 0.190273 0.007386 0.575560
Si Si6 0.555241 0.612408 0.990551
O O1 0.558556 0.886166 0.923635
O O2 0.383188 0.841210 0.953099
O O3 0.436888 0.912484 0.114340
O O4 0.488404 0.713080 0.035808
O O5 0.362200 0.046911 0.279984
O O6 0.118187 0.919439 0.163533
O O7 0.280008 0.014597 0.122115
O O8 0.811710 0.263295 0.811274
O O9 0.897055 0.140798 0.636513
O O10 0.000000 0.227589 0.750000
O O11 0.274618 0.574135 0.038006
O O12 0.136414 0.904300 0.551506
O O13 0.500000 0.500000 0.000000
#
# Coordination Sequence:
#
# PCOD9283249 Si02
#       6
#     8   8   8   8   8   8
#     4  10  21  39  70  96 124 172 224 262 323 397
#     4  10  21  40  66  95 130 167 219 271 325 380
#     4  12  21  40  67  91 124 176 224 264 317 392
#     4  11  20  42  69  95 126 173 224 270 317 394
#     4  11  25  38  63  98 139 163 216 275 336 386
#     4  12  23  41  67  94 130 174 214 270 329 393
#
# _framework density 21.445979000000001
#
# number of rings (size 3 to 8) (size 9 to 14) (size 15 to 20)
#    0.000    1.000    5.000    2.000    0.000    2.000 
#    0.000    0.000   22.000    0.000    0.000    0.000 
#    0.000    0.000    0.000    0.000    0.000    0.000 
#
# Total GULP energy -134174.154019 kJ/mol
# GULP energy per Si atom -5590.589751 kJ/mol
# Density = 2.139717 g / cm^3
# Si number density = 21.445979 Si / 1000 Ang^3
#
#
#
# Elastic Constant Matrix: (Units=GPa)
#
#
# Indices 1 2 3 4 5 6 
#
# 1 61.8709 29.6783 -6.0372 0.0000 -1.6823 0.0000
# 2 29.6783 137.7003 40.5900 0.0000 7.2931 0.0000
# 3 -6.0372 40.5900 78.7874 0.0000 -2.1653 0.0000
# 4 0.0000 0.0000 0.0000 24.9416 0.0000 17.3663
# 5 -1.6823 7.2931 -2.1653 0.0000 10.2056 0.0000
# 6 0.0000 0.0000 0.0000 17.3663 0.0000 16.9096
#
#
#
# Elastic Compliance Matrix: (Units=1/GPa)
#
#
# Indices 1 2 3 4 5 6 
#
# 1 0.019863 -0.006207 0.004961 0.000000 0.008763 0.000000
# 2 -0.006207 0.011046 -0.006449 0.000000 -0.010285 0.000000
# 3 0.004961 -0.006449 0.016641 0.000000 0.008957 0.000000
# 4 0.000000 0.000000 0.000000 0.140722 0.000000 -0.144523
# 5 0.008763 -0.010285 0.008957 0.000000 0.108680 0.000000
# 6 0.000000 0.000000 0.000000 -0.144523 0.000000 0.207564
#
#
# Mechanical properties :
#
#
# Convention : Reuss Voigt Hill
#
# Bulk Modulus (GPa) = 31.09616 45.20232 38.14924
# Shear Modulus (GPa) = 9.42285 24.68654 17.05469
#
# Velocity S-wave (km/s) = 2.09840 3.39647 2.82306
# Velocity P-wave (km/s) = 4.51689 6.04189 5.33417
#
# Compressibility (1/GPa) = 0.03215831
#
# Stress axis : x y z
#
# Youngs Moduli (GPa) = 50.34610 90.53334 60.09248
#
# Poissons Ratio (x) = 0.56197 -0.29810
# Poissons Ratio (y) = 0.31251 0.38753
# Poissons Ratio (z) = -0.24975 0.58384
#
# Static dielectric constant tensor:
#      x y z
#    x 1.818710 0.000000 -0.004460 
#    y 0.000000 1.805790 0.000000 
#    z -0.004460 0.000000 1.768260 
# 
# From -- ./inp_files/196052.got.cif
#   From: 2010.05.17/outbox.cif.g08.bks.cpg/sg15_99_cif.got.tgz:196052.got - 2010.06.03 18:47:42.
