data_PCOD9283141
_publ_section_title
;
Structure prediction by ZEFSAII (Michael W. Deem and Ramdas Pophale) SiO2 
 PCOD9283141
Probable space group: C 2/C
;
_chemical_formula_sum "Si O2"
_cell_formula_units_Z 60
_cell_length_a 7.021164
_cell_length_b 16.588755
_cell_length_c 24.147413
_cell_angle_alpha 90.000000
_cell_angle_beta 88.772469
_cell_angle_gamma 90.000000
_cell_volume 2811.860951
_symmetry_space_group_name_H-M "C 2/C"
_symmetry_group_IT_number 15
_symmetry_cell_setting 'monoclinic'
loop_
_space_group_symop_operation_xyz
x,y,z
-x,y,1/2-z
-x,-y,-z
x,-y,1/2+z
1/2+x,1/2+y,z
1/2-x,1/2+y,1/2-z
1/2-x,1/2-y,-z
1/2+x,1/2-y,1/2+z
loop_
_atom_site_type_symbol
_atom_site_label
_atom_site_fract_x
_atom_site_fract_y
_atom_site_fract_z
Si Si1 0.248124 0.231943 0.821901
Si Si2 0.110581 0.567969 0.965914
Si Si3 0.500000 0.107079 0.750000
Si Si4 0.008516 0.891001 0.811350
Si Si5 0.362337 0.225642 0.944373
Si Si6 0.574842 0.841521 0.653739
Si Si7 0.288699 0.677673 0.041824
Si Si8 0.691786 0.001408 0.345573
O O1 0.344282 0.162564 0.783902
O O2 0.383856 0.309629 0.812769
O O3 0.256054 0.210729 0.887323
O O4 0.033722 0.267135 0.816284
O O5 0.164912 0.541773 0.904273
O O6 0.974186 0.644671 0.958574
O O7 0.280854 0.598097 0.004758
O O8 0.000000 0.500000 0.000000
O O9 0.382607 0.054282 0.705011
O O10 0.000000 0.924736 0.750000
O O11 0.223580 0.866814 0.822506
O O12 0.905341 0.962076 0.845270
O O13 0.510752 0.299097 0.932402
O O14 0.250000 0.250000 0.000000
O O15 0.626887 0.823251 0.589544
O O16 0.439992 0.919035 0.656463
O O17 0.250000 0.750000 0.000000
#
# Coordination Sequence:
#
# PCOD9283141 Si02
#       8
#     8   8   4   8   8   8   8   8
#     4  11  23  42  74 103 141 185 241 300 355 431
#     4  11  22  41  67 105 141 184 234 291 359 430
#     4  12  24  50  70 114 148 188 244 312 368 432
#     4  11  24  46  69  99 135 190 240 286 359 440
#     4  11  23  43  68 101 146 184 232 301 357 432
#     4  11  23  45  73 103 138 195 237 289 368 439
#     4  10  21  39  68 102 142 180 237 288 359 428
#     4  11  25  45  71  99 153 184 231 300 368 437
#
# _framework density 21.338182
#
# number of rings (size 3 to 8) (size 9 to 14) (size 15 to 20)
#    0.000    1.067    4.667    2.400    1.867    1.600 
#    2.400    9.333    0.000    0.000    0.000    0.000 
#    0.000    0.000    0.000    0.000    0.000    0.000 
#
# Total GULP energy -167465.177764 kJ/mol
# GULP energy per Si atom -5582.172592 kJ/mol
# Density = 2.128961 g / cm^3
# Si number density = 21.338182 Si / 1000 Ang^3
#
#
#
# Elastic Constant Matrix: (Units=GPa)
#
#
# Indices 1 2 3 4 5 6 
#
# 1 117.2393 46.3098 42.9102 0.0000 -2.0119 0.0000
# 2 46.3098 103.3705 52.1365 0.0000 -9.2374 0.0000
# 3 42.9102 52.1365 138.7721 0.0000 -13.0093 0.0000
# 4 0.0000 0.0000 0.0000 35.9718 0.0000 -17.1453
# 5 -2.0119 -9.2374 -13.0093 0.0000 27.8435 0.0000
# 6 0.0000 0.0000 0.0000 -17.1453 0.0000 37.8065
#
#
#
# Elastic Compliance Matrix: (Units=1/GPa)
#
#
# Indices 1 2 3 4 5 6 
#
# 1 0.010798 -0.003967 -0.001986 0.000000 -0.001464 0.000000
# 2 -0.003967 0.013495 -0.003609 0.000000 0.002504 0.000000
# 3 -0.001986 -0.003609 0.009465 0.000000 0.003082 0.000000
# 4 0.000000 0.000000 0.000000 0.035465 0.000000 0.016084
# 5 -0.001464 0.002504 0.003082 0.000000 0.038080 0.000000
# 6 0.000000 0.000000 0.000000 0.016084 0.000000 0.033744
#
#
# Mechanical properties :
#
#
# Convention : Reuss Voigt Hill
#
# Bulk Modulus (GPa) = 68.32794 71.34388 69.83591
# Shear Modulus (GPa) = 30.29410 34.85938 32.57674
#
# Velocity S-wave (km/s) = 3.77200 4.04624 3.91152
# Velocity P-wave (km/s) = 7.14574 7.43888 7.29378
#
# Compressibility (1/GPa) = 0.01463530
#
# Stress axis : x y z
#
# Youngs Moduli (GPa) = 92.60847 74.10188 105.65508
#
# Poissons Ratio (x) = 0.29394 0.20981
# Poissons Ratio (y) = 0.36736 0.38128
# Poissons Ratio (z) = 0.18390 0.26741
#
# Static dielectric constant tensor:
#      x y z
#    x 1.805240 0.000000 0.074460 
#    y 0.000000 1.704610 0.000000 
#    z 0.074460 0.000000 1.766320 
# 
# From -- ./inp_files/286089.got.cif
#   From: 2010.05.17/outbox.cif.g08.bks.cpg/sg15_144_cif.got.tgz:286089.got - 2010.06.03 18:47:42.
