data_PCOD9283608
_publ_section_title
;
Structure prediction by ZEFSAII (Michael W. Deem and Ramdas Pophale) SiO2 
 PCOD9283608
Probable space group: C 2/C
;
_chemical_formula_sum "Si O2"
_cell_formula_units_Z 44
_cell_length_a 23.380334
_cell_length_b 6.869250
_cell_length_c 14.730256
_cell_angle_alpha 90.000000
_cell_angle_beta 58.527292
_cell_angle_gamma 90.000000
_cell_volume 2017.728911
_symmetry_space_group_name_H-M "C 2/C"
_symmetry_group_IT_number 15
_symmetry_cell_setting 'monoclinic'
loop_
_space_group_symop_operation_xyz
x,y,z
-x,y,1/2-z
-x,-y,-z
x,-y,1/2+z
1/2+x,1/2+y,z
1/2-x,1/2+y,1/2-z
1/2-x,1/2-y,-z
1/2+x,1/2-y,1/2+z
loop_
_atom_site_type_symbol
_atom_site_label
_atom_site_fract_x
_atom_site_fract_y
_atom_site_fract_z
Si Si1 0.500000 0.398117 0.250000
Si Si2 0.346399 0.380677 0.119752
Si Si3 0.884328 0.165735 0.385086
Si Si4 0.048883 0.457492 0.593784
Si Si5 0.594569 0.006712 0.361664
Si Si6 0.700560 0.281619 0.706728
O O1 0.438541 0.543322 0.282776
O O2 0.468860 0.246566 0.347020
O O3 0.326635 0.562732 0.197774
O O4 0.278130 0.259371 0.158651
O O5 0.396100 0.238148 0.133722
O O6 0.375336 0.416433 0.994831
O O7 0.912346 0.384898 0.377436
O O8 0.817166 0.157216 0.381193
O O9 0.090825 0.429681 0.467561
O O10 0.976337 0.543002 0.625032
O O11 0.656764 0.912290 0.259602
#
# Coordination Sequence:
#
# PCOD9283608 Si02
#       6
#     4   8   8   8   8   8
#     4  12  20  38  60  92 122 158 206 254 318 372
#     4  11  24  42  63  94 127 170 215 256 317 378
#     4  11  25  40  64  96 128 163 212 267 315 379
#     4  10  22  39  62  92 125 164 207 264 318 372
#     4  10  21  40  63  89 125 165 211 258 315 377
#     4  12  22  42  64  89 128 170 210 262 315 376
#
# _framework density 21.806695999999999
#
# number of rings (size 3 to 8) (size 9 to 14) (size 15 to 20)
#    0.000    1.091    1.818    5.455    0.000    0.000 
#    0.000    8.182    0.000    0.000    0.000    0.000 
#    0.000    0.000    0.000    0.000    0.000    0.000 
#
# Total GULP energy -122906.612393 kJ/mol
# GULP energy per Si atom -5586.664200 kJ/mol
# Density = 2.175706 g / cm^3
# Si number density = 21.806696 Si / 1000 Ang^3
#
#
#
# Elastic Constant Matrix: (Units=GPa)
#
#
# Indices 1 2 3 4 5 6 
#
# 1 87.7117 21.1835 2.3665 0.0000 8.0955 0.0001
# 2 21.1835 64.2155 26.1046 -0.0001 12.2616 0.0008
# 3 2.3665 26.1046 65.8705 0.0000 0.9856 0.0001
# 4 0.0000 -0.0001 0.0000 50.3768 0.0000 -8.8625
# 5 8.0955 12.2616 0.9856 0.0000 29.7074 0.0000
# 6 0.0001 0.0008 0.0001 -8.8625 0.0000 21.7632
#
#
#
# Elastic Compliance Matrix: (Units=1/GPa)
#
#
# Indices 1 2 3 4 5 6 
#
# 1 0.012572 -0.004357 0.001300 0.000000 -0.001671 0.000000
# 2 -0.004357 0.021866 -0.008396 0.000000 -0.007559 -0.000001
# 3 0.001300 -0.008396 0.018425 0.000000 0.002500 0.000000
# 4 0.000000 0.000000 0.000000 0.021382 0.000000 0.008707
# 5 -0.001671 -0.007559 0.002500 0.000000 0.037154 0.000000
# 6 0.000000 -0.000001 0.000000 0.008707 0.000000 0.049495
#
#
# Mechanical properties :
#
#
# Convention : Reuss Voigt Hill
#
# Bulk Modulus (GPa) = 33.38066 35.23411 34.30739
# Shear Modulus (GPa) = 25.80162 31.57902 28.69032
#
# Velocity S-wave (km/s) = 3.44349 3.80956 3.63115
# Velocity P-wave (km/s) = 5.58131 5.96179 5.77468
#
# Compressibility (1/GPa) = 0.02995746
#
# Stress axis : x y z
#
# Youngs Moduli (GPa) = 79.53960 45.73240 54.27540
#
# Poissons Ratio (x) = 0.19925 -0.07055
# Poissons Ratio (y) = 0.34654 0.45570
# Poissons Ratio (z) = -0.10339 0.38397
#
# Static dielectric constant tensor:
#      x y z
#    x 1.776690 0.000000 0.029220 
#    y 0.000000 1.808900 0.000000 
#    z 0.029220 0.000000 1.801280 
# 
# From -- ./inp_files/175769.got.cif
#   From: 2010.05.17/outbox.cif.g08.bks.cpg/sg15_88_cif.got.tgz:175769.got - 2010.06.03 18:47:42.
