data_PCOD9283840
_publ_section_title
;
Structure prediction by ZEFSAII (Michael W. Deem and Ramdas Pophale) SiO2 
 PCOD9283840
Probable space group: C 2/C
;
_chemical_formula_sum "Si O2"
_cell_formula_units_Z 64
_cell_length_a 21.635349
_cell_length_b 17.039901
_cell_length_c 25.992338
_cell_angle_alpha 90.000000
_cell_angle_beta 161.842150
_cell_angle_gamma 90.000000
_cell_volume 2986.234533
_symmetry_space_group_name_H-M "C 2/C"
_symmetry_group_IT_number 15
_symmetry_cell_setting 'monoclinic'
loop_
_space_group_symop_operation_xyz
x,y,z
-x,y,1/2-z
-x,-y,-z
x,-y,1/2+z
1/2+x,1/2+y,z
1/2-x,1/2+y,1/2-z
1/2-x,1/2-y,-z
1/2+x,1/2-y,1/2+z
loop_
_atom_site_type_symbol
_atom_site_label
_atom_site_fract_x
_atom_site_fract_y
_atom_site_fract_z
Si Si1 0.969682 0.342491 0.330448
Si Si2 0.470566 0.988741 0.575481
Si Si3 0.506058 0.835212 0.837674
Si Si4 0.611518 0.546480 0.133969
Si Si5 0.125648 0.134967 0.399863
Si Si6 0.963360 0.013343 0.813955
Si Si7 0.547669 0.302481 0.950111
Si Si8 0.336957 0.326431 0.009810
O O1 0.154635 0.335447 0.437904
O O2 0.998019 0.288935 0.403884
O O3 0.970100 0.433196 0.346719
O O4 0.769899 0.316666 0.144893
O O5 0.453245 0.913085 0.598169
O O6 0.655705 0.971650 0.684734
O O7 0.258919 0.001668 0.381447
O O8 0.665462 0.827063 0.917662
O O9 0.286214 0.840360 0.639801
O O10 0.545704 0.755180 0.899970
O O11 0.520030 0.514187 0.114252
O O12 0.500000 0.500000 0.000000
O O13 0.579662 0.640592 0.113728
O O14 0.035837 0.169136 0.381215
O O15 0.000000 0.154728 0.250000
O O16 0.110426 0.040765 0.396483
O O17 0.018655 0.104127 0.858559
#
# Coordination Sequence:
#
# PCOD9283840 Si02
#       8
#     8   8   8   8   8   8   8   8
#     4  12  24  43  69 101 139 180 226 289 352 418
#     4  12  24  44  69  96 136 177 230 280 348 405
#     4  10  22  39  66  98 133 178 215 281 340 403
#     4  11  24  48  68  91 128 181 235 288 332 403
#     4  11  22  41  68 103 140 180 223 280 352 427
#     4  11  24  41  69 100 136 177 227 280 345 417
#     4  11  26  44  69  98 138 183 235 286 353 418
#     4  10  21  40  64  99 139 168 226 274 339 408
#
# _framework density 21.431673
#
# number of rings (size 3 to 8) (size 9 to 14) (size 15 to 20)
#    0.000    1.000    2.500    4.125    3.500    1.000 
#    2.250    0.000    0.000    0.000    0.000    0.000 
#    0.000    0.000    0.000    0.000    0.000    0.000 
#
# Total GULP energy -178874.281077 kJ/mol
# GULP energy per Si atom -5589.821284 kJ/mol
# Density = 2.138289 g / cm^3
# Si number density = 21.431673 Si / 1000 Ang^3
#
#
#
# Elastic Constant Matrix: (Units=GPa)
#
#
# Indices 1 2 3 4 5 6 
#
# 1 43.6021 7.9621 13.8342 -0.0242 -5.3776 -0.0049
# 2 7.9621 129.5137 16.1711 -0.0300 -3.5121 -0.0063
# 3 13.8342 16.1711 90.5804 -0.0944 -16.7597 -0.0155
# 4 -0.0242 -0.0300 -0.0944 27.0395 0.0158 -4.4819
# 5 -5.3776 -3.5121 -16.7597 0.0158 31.5678 0.0038
# 6 -0.0049 -0.0063 -0.0155 -4.4819 0.0038 28.5905
#
#
#
# Elastic Compliance Matrix: (Units=1/GPa)
#
#
# Indices 1 2 3 4 5 6 
#
# 1 0.024404 -0.001049 -0.003097 0.000009 0.002397 0.000003
# 2 -0.001049 0.007943 -0.001250 0.000004 0.000041 0.000001
# 3 -0.003097 -0.001250 0.012878 0.000039 0.006170 0.000011
# 4 0.000009 0.000004 0.000039 0.037970 0.000003 0.005952
# 5 0.002397 0.000041 0.006170 0.000003 0.035367 -0.000001
# 6 0.000003 0.000001 0.000011 0.005952 -0.000001 0.035910
#
#
# Mechanical properties :
#
#
# Convention : Reuss Voigt Hill
#
# Bulk Modulus (GPa) = 29.04104 37.73677 33.38890
# Shear Modulus (GPa) = 28.29019 32.48816 30.38917
#
# Velocity S-wave (km/s) = 3.63715 3.89767 3.76966
# Velocity P-wave (km/s) = 5.58734 6.15646 5.87879
#
# Compressibility (1/GPa) = 0.03443403
#
# Stress axis : x y z
#
# Youngs Moduli (GPa) = 40.97646 125.89892 77.65328
#
# Poissons Ratio (x) = 0.13203 0.24046
# Poissons Ratio (y) = 0.04297 0.09708
# Poissons Ratio (z) = 0.12689 0.15740
#
# Static dielectric constant tensor:
#      x y z
#    x 1.773820 0.000010 0.002040 
#    y 0.000010 1.845380 -0.000010 
#    z 0.002040 -0.000010 1.755690 
# 
# From -- ./inp_files/280506.got.cif
#   From: 2010.05.17/outbox.cif.g08.bks.cpg/sg15_141_cif.got.tgz:280506.got - 2010.06.03 18:47:42.
