data_PCOD9283000
_publ_section_title
;
Structure prediction by ZEFSAII (Michael W. Deem and Ramdas Pophale) SiO2 
 PCOD9283000
Probable space group: C 2/C
;
_chemical_formula_sum "Si O2"
_cell_formula_units_Z 40
_cell_length_a 22.909713
_cell_length_b 13.872058
_cell_length_c 12.127514
_cell_angle_alpha 90.000000
_cell_angle_beta 151.921849
_cell_angle_gamma 90.000000
_cell_volume 1814.069345
_symmetry_space_group_name_H-M "C 2/C"
_symmetry_group_IT_number 15
_symmetry_cell_setting 'monoclinic'
loop_
_space_group_symop_operation_xyz
x,y,z
-x,y,1/2-z
-x,-y,-z
x,-y,1/2+z
1/2+x,1/2+y,z
1/2-x,1/2+y,1/2-z
1/2-x,1/2-y,-z
1/2+x,1/2-y,1/2+z
loop_
_atom_site_type_symbol
_atom_site_label
_atom_site_fract_x
_atom_site_fract_y
_atom_site_fract_z
Si Si1 0.027706 0.155775 0.061288
Si Si2 0.594590 0.973739 0.325343
Si Si3 0.652800 0.494995 0.126739
Si Si4 0.237668 0.880251 0.076724
Si Si5 0.466376 0.176572 0.072388
O O1 0.135304 0.172072 0.331896
O O2 0.086925 0.092309 0.059846
O O3 0.978216 0.253824 0.927645
O O4 0.924934 0.091021 0.947961
O O5 0.500000 0.919953 0.250000
O O6 0.655776 0.917208 0.327804
O O7 0.711065 0.004057 0.593839
O O8 0.522588 0.068838 0.163630
O O9 0.669721 0.468835 0.026499
O O10 0.318186 0.822885 0.301032
O O11 0.500000 0.212765 0.250000
#
# Coordination Sequence:
#
# PCOD9283000 Si02
#       5
#     8   8   8   8   8
#     4  10  24  39  63  94 128 166 208 260 320 370
#     4  10  21  39  66  93 122 165 211 259 311 377
#     4  10  21  42  64  90 123 172 210 252 315 384
#     4  11  21  42  66  90 128 166 216 257 312 380
#     4  11  22  40  62  93 130 159 210 265 312 366
#
# _framework density 22.049875
#
# number of rings (size 3 to 8) (size 9 to 14) (size 15 to 20)
#    0.000    1.600    4.000    1.800    0.000    5.600 
#    3.600    2.000    0.000    0.000    0.000    0.000 
#    0.000    0.000    0.000    0.000    0.000    0.000 
#
# Total GULP energy -111686.544626 kJ/mol
# GULP energy per Si atom -5584.327231 kJ/mol
# Density = 2.199969 g / cm^3
# Si number density = 22.049875 Si / 1000 Ang^3
#
#
#
# Elastic Constant Matrix: (Units=GPa)
#
#
# Indices 1 2 3 4 5 6 
#
# 1 125.8085 19.8382 33.3312 0.0000 2.6804 0.0000
# 2 19.8382 27.5682 -0.3924 0.0000 -4.3104 0.0000
# 3 33.3312 -0.3924 93.1324 0.0000 -8.6607 0.0000
# 4 0.0000 0.0000 0.0000 20.3681 0.0000 -3.8589
# 5 2.6804 -4.3104 -8.6607 0.0000 41.8575 0.0000
# 6 0.0000 0.0000 0.0000 -3.8589 0.0000 22.6072
#
#
#
# Elastic Compliance Matrix: (Units=1/GPa)
#
#
# Indices 1 2 3 4 5 6 
#
# 1 0.010264 -0.007797 -0.003918 0.000000 -0.002271 0.000000
# 2 -0.007797 0.042815 0.003495 0.000000 0.005631 0.000000
# 3 -0.003918 0.003495 0.012451 0.000000 0.003187 0.000000
# 4 0.000000 0.000000 0.000000 0.050737 0.000000 0.008661
# 5 -0.002271 0.005631 0.003187 0.000000 0.025275 0.000000
# 6 0.000000 0.000000 0.000000 0.008661 0.000000 0.045712
#
#
# Mechanical properties :
#
#
# Convention : Reuss Voigt Hill
#
# Bulk Modulus (GPa) = 20.37093 39.11812 29.74452
# Shear Modulus (GPa) = 22.72133 29.88203 26.30168
#
# Velocity S-wave (km/s) = 3.21355 3.68530 3.45748
# Velocity P-wave (km/s) = 4.79873 5.99065 5.42751
#
# Compressibility (1/GPa) = 0.04908956
#
# Stress axis : x y z
#
# Youngs Moduli (GPa) = 97.42458 23.35643 80.31783
#
# Poissons Ratio (x) = 0.18211 0.31465
# Poissons Ratio (y) = 0.75963 -0.28068
# Poissons Ratio (z) = 0.38166 -0.08162
#
# Static dielectric constant tensor:
#      x y z
#    x 1.876530 0.000000 -0.040970 
#    y 0.000000 1.862650 0.000000 
#    z -0.040970 0.000000 1.819320 
# 
# From -- ./inp_files/112530.got.cif
#   From: 2010.05.17/outbox.cif.g08.bks.cpg/sg15_57_cif.got.tgz:112530.got - 2010.06.03 18:47:42.
