data_PCOD9283815
_publ_section_title
;
Structure prediction by ZEFSAII (Michael W. Deem and Ramdas Pophale) SiO2 
 PCOD9283815
Probable space group: C 2/C
;
_chemical_formula_sum "Si O2"
_cell_formula_units_Z 48
_cell_length_a 13.782806
_cell_length_b 11.427127
_cell_length_c 24.761972
_cell_angle_alpha 90.000000
_cell_angle_beta 28.509629
_cell_angle_gamma 90.000000
_cell_volume 1861.475072
_symmetry_space_group_name_H-M "C 2/C"
_symmetry_group_IT_number 15
_symmetry_cell_setting 'monoclinic'
loop_
_space_group_symop_operation_xyz
x,y,z
-x,y,1/2-z
-x,-y,-z
x,-y,1/2+z
1/2+x,1/2+y,z
1/2-x,1/2+y,1/2-z
1/2-x,1/2-y,-z
1/2+x,1/2-y,1/2+z
loop_
_atom_site_type_symbol
_atom_site_label
_atom_site_fract_x
_atom_site_fract_y
_atom_site_fract_z
Si Si1 0.794515 0.499360 0.680693
Si Si2 0.195986 0.746156 0.691969
Si Si3 0.031090 0.711579 0.586435
Si Si4 0.077673 0.837571 0.131842
Si Si5 0.780625 0.619464 0.300975
Si Si6 0.369983 0.334941 0.520065
O O1 0.781032 0.378359 0.655323
O O2 0.580035 0.563715 0.773833
O O3 0.795930 0.468662 0.744162
O O4 0.985202 0.587504 0.580402
O O5 0.390674 0.666649 0.585739
O O6 0.000000 0.738634 0.750000
O O7 0.112406 0.713103 0.791262
O O8 0.250000 0.750000 0.500000
O O9 0.935834 0.815025 0.598248
O O10 0.142321 0.863136 0.038230
O O11 0.944953 0.719023 0.205297
O O12 0.275657 0.797821 0.068200
O O13 0.765450 0.588739 0.372036
#
# Coordination Sequence:
#
# PCOD9283815 Si02
#       6
#     8   8   8   8   8   8
#     4  10  21  42  65  94 137 168 224 277 328 404
#     4  11  23  41  62  98 134 172 230 277 330 404
#     4  10  21  42  61  89 139 179 212 282 338 391
#     4  10  22  42  64  94 134 171 222 278 329 400
#     4  10  21  40  64  95 130 171 223 273 331 397
#     4  11  21  41  69  90 133 178 218 276 339 386
#
# _framework density 25.786000999999999
#
# number of rings (size 3 to 8) (size 9 to 14) (size 15 to 20)
#    0.000    1.667    5.000    1.500    0.000    6.000 
#    0.000    6.667    0.000    0.000    0.000    0.000 
#    0.000    0.000    0.000    0.000    0.000    0.000 
#
# Total GULP energy -134054.818967 kJ/mol
# GULP energy per Si atom -5585.617457 kJ/mol
# Density = 2.572731 g / cm^3
# Si number density = 25.786001 Si / 1000 Ang^3
#
#
#
# Elastic Constant Matrix: (Units=GPa)
#
#
# Indices 1 2 3 4 5 6 
#
# 1 97.9242 -5.5192 34.8679 0.0002 -1.6451 -0.0001
# 2 -5.5192 52.5497 -12.7062 -0.0001 -7.3026 -0.0001
# 3 34.8679 -12.7062 134.0289 -0.0036 2.5454 -0.0005
# 4 0.0002 -0.0001 -0.0036 -0.8585 -0.0002 -4.6992
# 5 -1.6451 -7.3026 2.5454 -0.0002 58.4386 0.0002
# 6 -0.0001 -0.0001 -0.0005 -4.6992 0.0002 17.9060
#
#
#
# Elastic Compliance Matrix: (Units=1/GPa)
#
#
# Indices 1 2 3 4 5 6 
#
# 1 0.011282 0.000557 -0.002892 0.000006 0.000513 0.000002
# 2 0.000557 0.019833 0.001689 -0.000005 0.002420 -0.000001
# 3 -0.002892 0.001689 0.008378 -0.000015 -0.000235 -0.000004
# 4 0.000006 -0.000005 -0.000015 -0.478072 -0.000001 -0.125464
# 5 0.000513 0.002420 -0.000235 -0.000001 0.017439 0.000000
# 6 0.000002 -0.000001 -0.000004 -0.125464 0.000000 0.022921
#
#
# Mechanical properties :
#
#
# Convention : Reuss Voigt Hill
#
# Bulk Modulus (GPa) = 26.17700 35.30975 30.74337
# Shear Modulus (GPa) = -13.01424 32.95457 9.97017
#
# Velocity S-wave (km/s) = -2.24899 3.57879 1.96848
# Velocity P-wave (km/s) = 1.85195 5.54979 4.13702
#
# Compressibility (1/GPa) = 0.03820148
#
# Stress axis : x y z
#
# Youngs Moduli (GPa) = 88.63900 50.42116 119.35976
#
# Poissons Ratio (x) = -0.02808 0.34518
# Poissons Ratio (y) = -0.04937 -0.20164
# Poissons Ratio (z) = 0.25634 -0.08518
#
# Static dielectric constant tensor:
#      x y z
#    x 2.581490 0.000000 -0.030950 
#    y 0.000000 2.165590 0.000000 
#    z -0.030950 0.000000 2.056170 
# 
# From -- ./inp_files/296045.got.cif
#   From: 2010.05.17/outbox.cif.g08.bks.cpg/sg15_149_cif.got.tgz:296045.got - 2010.06.03 18:47:42.
