data_PCOD9283684
_publ_section_title
;
Structure prediction by ZEFSAII (Michael W. Deem and Ramdas Pophale) SiO2 
 PCOD9283684
Probable space group: C 2/C
;
_chemical_formula_sum "Si O2"
_cell_formula_units_Z 64
_cell_length_a 11.391646
_cell_length_b 25.648966
_cell_length_c 22.431805
_cell_angle_alpha 90.000000
_cell_angle_beta 150.840866
_cell_angle_gamma 90.000000
_cell_volume 3193.454690
_symmetry_space_group_name_H-M "C 2/C"
_symmetry_group_IT_number 15
_symmetry_cell_setting 'monoclinic'
loop_
_space_group_symop_operation_xyz
x,y,z
-x,y,1/2-z
-x,-y,-z
x,-y,1/2+z
1/2+x,1/2+y,z
1/2-x,1/2+y,1/2-z
1/2-x,1/2-y,-z
1/2+x,1/2-y,1/2+z
loop_
_atom_site_type_symbol
_atom_site_label
_atom_site_fract_x
_atom_site_fract_y
_atom_site_fract_z
Si Si1 0.085268 0.658065 0.682536
Si Si2 0.073516 0.537558 0.712650
Si Si3 0.227966 0.379022 0.887760
Si Si4 0.643294 0.261678 0.752798
Si Si5 0.046135 0.800848 0.957657
Si Si6 0.729580 0.202293 0.622306
Si Si7 0.088471 0.018203 0.974731
Si Si8 0.861687 0.307093 0.542303
O O1 0.820102 0.680246 0.580983
O O2 0.098711 0.598610 0.707678
O O3 0.240304 0.702295 0.785645
O O4 0.150516 0.666334 0.642328
O O5 0.345072 0.513422 0.826729
O O6 0.000000 0.534290 0.750000
O O7 0.844176 0.511376 0.576370
O O8 0.395619 0.350485 0.913848
O O9 0.150956 0.336057 0.901333
O O10 0.000000 0.401177 0.750000
O O11 0.351326 0.421836 0.984277
O O12 0.500000 0.263917 0.750000
O O13 0.503633 0.280678 0.631478
O O14 0.861509 0.300950 0.851320
O O15 0.954784 0.751443 0.956454
O O16 0.745140 0.171571 0.566865
O O17 0.000000 0.224367 0.750000
O O18 0.000000 0.000000 0.000000
O O19 0.750000 0.250000 0.500000
#
# Coordination Sequence:
#
# PCOD9283684 Si02
#       8
#     8   8   8   8   8   8   8   8
#     4  11  23  36  62  86 123 166 216 257 318 376
#     4  10  21  40  63  96 122 162 204 279 334 386
#     4  12  23  38  62  94 126 164 205 262 330 385
#     4  11  22  35  54  85 127 169 212 249 301 376
#     4  11  20  37  54  87 127 166 204 256 308 374
#     4  11  23  39  55  83 128 167 216 259 300 371
#     4  10  22  39  64  92 130 153 213 268 340 378
#     4  12  23  36  60  85 127 172 208 256 306 380
#
# _framework density 20.040991999999999
#
# number of rings (size 3 to 8) (size 9 to 14) (size 15 to 20)
#    0.000    1.000    2.500    7.875    3.500    0.000 
#    0.000    0.000    0.000    0.750    0.000    0.000 
#    0.000    0.000    0.000    0.000    0.000    0.000 
#
# Total GULP energy -178472.238073 kJ/mol
# GULP energy per Si atom -5577.257440 kJ/mol
# Density = 1.999538 g / cm^3
# Si number density = 20.040992 Si / 1000 Ang^3
#
#
#
# Elastic Constant Matrix: (Units=GPa)
#
#
# Indices 1 2 3 4 5 6 
#
# 1 101.4723 11.7858 22.3472 -0.0031 -1.2773 -0.0011
# 2 11.7858 65.7632 20.5037 -0.0013 10.3417 -0.0015
# 3 22.3472 20.5037 105.6312 0.0138 18.9458 -0.0020
# 4 -0.0031 -0.0013 0.0138 26.0756 -0.0018 -0.1882
# 5 -1.2773 10.3417 18.9458 -0.0018 25.7958 -0.0018
# 6 -0.0011 -0.0015 -0.0020 -0.1882 -0.0018 20.2624
#
#
#
# Elastic Compliance Matrix: (Units=1/GPa)
#
#
# Indices 1 2 3 4 5 6 
#
# 1 0.010623 -0.001602 -0.002471 0.000003 0.002984 0.000000
# 2 -0.001602 0.016964 -0.001981 0.000001 -0.005426 0.000000
# 3 -0.002471 -0.001981 0.011809 -0.000007 -0.008002 0.000000
# 4 0.000003 0.000001 -0.000007 0.038353 0.000008 0.000356
# 5 0.002984 -0.005426 -0.008002 0.000008 0.046966 0.000003
# 6 0.000000 0.000000 0.000000 0.000356 0.000003 0.049356
#
#
# Mechanical properties :
#
#
# Convention : Reuss Voigt Hill
#
# Bulk Modulus (GPa) = 36.64729 42.46002 39.55365
# Shear Modulus (GPa) = 25.60486 28.97542 27.29014
#
# Velocity S-wave (km/s) = 3.57827 3.80650 3.69415
# Velocity P-wave (km/s) = 5.94961 6.36803 6.16237
#
# Compressibility (1/GPa) = 0.02728715
#
# Stress axis : x y z
#
# Youngs Moduli (GPa) = 94.13651 58.94833 84.67826
#
# Poissons Ratio (x) = 0.09446 0.20928
# Poissons Ratio (y) = 0.15085 0.16772
# Poissons Ratio (z) = 0.23265 0.11676
#
# Static dielectric constant tensor:
#      x y z
#    x 1.685280 0.000000 0.002400 
#    y 0.000000 1.641320 -0.000020 
#    z 0.002400 -0.000020 1.895310 
# 
# From -- ./inp_files/271219.got.cif
#   From: 2010.05.17/outbox.cif.g08.bks.cpg/sg15_136_cif.got.tgz:271219.got - 2010.06.03 18:47:42.
