data_PCOD9283828
_publ_section_title
;
Structure prediction by ZEFSAII (Michael W. Deem and Ramdas Pophale) SiO2 
 PCOD9283828
Probable space group: C 2/C
;
_chemical_formula_sum "Si O2"
_cell_formula_units_Z 40
_cell_length_a 17.436521
_cell_length_b 17.601473
_cell_length_c 5.639317
_cell_angle_alpha 90.000000
_cell_angle_beta 98.617374
_cell_angle_gamma 90.000000
_cell_volume 1711.215562
_symmetry_space_group_name_H-M "C 2/C"
_symmetry_group_IT_number 15
_symmetry_cell_setting 'monoclinic'
loop_
_space_group_symop_operation_xyz
x,y,z
-x,y,1/2-z
-x,-y,-z
x,-y,1/2+z
1/2+x,1/2+y,z
1/2-x,1/2+y,1/2-z
1/2-x,1/2-y,-z
1/2+x,1/2-y,1/2+z
loop_
_atom_site_type_symbol
_atom_site_label
_atom_site_fract_x
_atom_site_fract_y
_atom_site_fract_z
Si Si1 0.383547 0.836414 0.841307
Si Si2 0.610748 0.518011 0.910483
Si Si3 0.500000 0.762888 0.250000
Si Si4 0.782684 0.538663 0.493586
Si Si5 0.912897 0.187801 0.595559
Si Si6 0.500000 0.046010 0.250000
O O1 0.314815 0.877866 0.948192
O O2 0.368673 0.758266 0.695398
O O3 0.424503 0.899933 0.699308
O O4 0.453713 0.814747 0.048276
O O5 0.571919 0.497300 0.644738
O O6 0.689746 0.468969 0.951404
O O7 0.628505 0.607729 0.907613
O O8 0.434789 0.711078 0.340360
O O9 0.806659 0.511312 0.769848
O O10 0.000000 0.180167 0.750000
O O11 0.500000 0.000000 0.500000
#
# Coordination Sequence:
#
# PCOD9283828 Si02
#       6
#     8   8   4   8   8   4
#     4  11  22  39  63  99 137 176 220 272 333 407
#     4  10  24  46  68  95 134 175 230 279 330 396
#     4  10  21  40  64  97 138 170 222 268 347 392
#     4  10  23  43  65  91 135 179 224 271 324 394
#     4  10  23  41  68  99 136 174 220 279 340 403
#     4  12  23  34  58  95 132 172 206 258 327 392
#
# _framework density 23.375195999999999
#
# number of rings (size 3 to 8) (size 9 to 14) (size 15 to 20)
#    0.000    1.600    3.000    1.800    8.400    0.800 
#    0.000    8.000    0.000    0.000    0.000    0.000 
#    0.000    0.000    0.000    0.000    0.000    0.000 
#
# Total GULP energy -111644.234873 kJ/mol
# GULP energy per Si atom -5582.211744 kJ/mol
# Density = 2.332199 g / cm^3
# Si number density = 23.375196 Si / 1000 Ang^3
#
#
#
# Elastic Constant Matrix: (Units=GPa)
#
#
# Indices 1 2 3 4 5 6 
#
# 1 72.6989 31.6707 16.6163 0.0000 -10.6052 0.0000
# 2 31.6707 127.3842 59.4114 0.0000 -15.7363 0.0000
# 3 16.6163 59.4114 169.3251 0.0000 -22.0137 0.0000
# 4 0.0000 0.0000 0.0000 34.2374 0.0000 -20.6576
# 5 -10.6052 -15.7363 -22.0137 0.0000 30.2890 0.0000
# 6 0.0000 0.0000 0.0000 -20.6576 0.0000 56.2291
#
#
#
# Elastic Compliance Matrix: (Units=1/GPa)
#
#
# Indices 1 2 3 4 5 6 
#
# 1 0.015817 -0.003548 0.000191 0.000000 0.003834 0.000000
# 2 -0.003548 0.010393 -0.003046 0.000000 0.001944 0.000000
# 3 0.000191 -0.003046 0.007464 0.000000 0.003909 0.000000
# 4 0.000000 0.000000 0.000000 0.037526 0.000000 0.013786
# 5 0.003834 0.001944 0.003909 0.000000 0.038209 0.000000
# 6 0.000000 0.000000 0.000000 0.013786 0.000000 0.022849
#
#
# Mechanical properties :
#
#
# Convention : Reuss Voigt Hill
#
# Bulk Modulus (GPa) = 47.91935 64.97833 56.44884
# Shear Modulus (GPa) = 32.89074 41.59843 37.24458
#
# Velocity S-wave (km/s) = 3.75517 4.22310 3.99599
# Velocity P-wave (km/s) = 6.27267 7.18594 6.74478
#
# Compressibility (1/GPa) = 0.02086839
#
# Stress axis : x y z
#
# Youngs Moduli (GPa) = 63.22503 96.21854 133.97739
#
# Poissons Ratio (x) = 0.34138 -0.02561
# Poissons Ratio (y) = 0.22432 0.40806
# Poissons Ratio (z) = -0.01209 0.29306
#
# Static dielectric constant tensor:
#      x y z
#    x 1.903840 0.000000 -0.059260 
#    y 0.000000 1.872660 0.000000 
#    z -0.059260 0.000000 2.031830 
# 
# From -- ./inp_files/9840.got.cif
#   From: 2010.05.17/outbox.cif.g08.bks.cpg/sg15_5_cif.got.tgz:9840.got - 2010.06.03 18:47:42.
