data_PCOD9283473
_publ_section_title
;
Structure prediction by ZEFSAII (Michael W. Deem and Ramdas Pophale) SiO2 
 PCOD9283473
Probable space group: C 2/C
;
_chemical_formula_sum "Si O2"
_cell_formula_units_Z 56
_cell_length_a 8.644223
_cell_length_b 18.763455
_cell_length_c 27.624884
_cell_angle_alpha 90.000000
_cell_angle_beta 38.400524
_cell_angle_gamma 90.000000
_cell_volume 2783.166472
_symmetry_space_group_name_H-M "C 2/C"
_symmetry_group_IT_number 15
_symmetry_cell_setting 'monoclinic'
loop_
_space_group_symop_operation_xyz
x,y,z
-x,y,1/2-z
-x,-y,-z
x,-y,1/2+z
1/2+x,1/2+y,z
1/2-x,1/2+y,1/2-z
1/2-x,1/2-y,-z
1/2+x,1/2-y,1/2+z
loop_
_atom_site_type_symbol
_atom_site_label
_atom_site_fract_x
_atom_site_fract_y
_atom_site_fract_z
Si Si1 0.258824 0.344080 0.417610
Si Si2 0.014512 0.805070 0.986767
Si Si3 0.660021 0.434691 0.018608
Si Si4 0.625783 0.990566 0.125567
Si Si5 0.440453 0.142299 0.319969
Si Si6 0.252992 0.767186 0.278975
Si Si7 0.059436 0.655868 0.859695
O O1 0.223339 0.413967 0.458790
O O2 0.546452 0.320126 0.351504
O O3 0.204528 0.352696 0.374173
O O4 0.090553 0.276809 0.475665
O O5 0.160798 0.832537 0.902999
O O6 0.719899 0.817768 0.058456
O O7 0.122476 0.858509 0.000867
O O8 0.387115 0.469925 0.086883
O O9 0.813208 0.484489 0.944449
O O10 0.464324 0.919851 0.161588
O O11 0.521877 0.059647 0.177362
O O12 0.500000 0.155792 0.250000
O O13 0.619653 0.190919 0.308670
O O14 0.500000 0.767227 0.250000
O O15 0.318033 0.791125 0.208590
#
# Coordination Sequence:
#
# PCOD9283473 Si02
#       7
#     8   8   8   8   8   8   8
#     4  11  21  35  60  89 117 153 196 243 287 335
#     4   9  19  37  60  87 115 151 193 240 291 341
#     4   9  18  35  58  83 116 155 195 235 286 348
#     4   9  20  37  56  83 119 157 191 235 292 350
#     4  10  21  40  62  85 115 150 193 242 292 345
#     4  11  23  40  60  84 115 152 193 241 294 347
#     4  11  22  38  60  88 121 153 195 241 287 345
#
# _framework density 20.120965000000002
#
# number of rings (size 3 to 8) (size 9 to 14) (size 15 to 20)
#    0.000    2.000    0.000    5.571    0.000    4.571 
#    0.000    2.857    0.000    0.000    0.000    0.000 
#    0.000    0.000    0.000    0.000    0.000    0.000 
#
# Total GULP energy -156398.476504 kJ/mol
# GULP energy per Si atom -5585.659875 kJ/mol
# Density = 2.007517 g / cm^3
# Si number density = 20.120965 Si / 1000 Ang^3
#
#
#
# Elastic Constant Matrix: (Units=GPa)
#
#
# Indices 1 2 3 4 5 6 
#
# 1 51.8829 15.3838 16.5273 0.0087 6.7300 -0.0042
# 2 15.3838 88.4885 21.1032 0.0158 -3.3755 -0.0076
# 3 16.5273 21.1032 68.9045 -0.0137 2.1581 0.0021
# 4 0.0087 0.0158 -0.0137 30.2537 -0.0075 1.0883
# 5 6.7300 -3.3755 2.1581 -0.0075 26.1067 -0.0010
# 6 -0.0042 -0.0076 0.0021 1.0883 -0.0010 12.1911
#
#
#
# Elastic Compliance Matrix: (Units=1/GPa)
#
#
# Indices 1 2 3 4 5 6 
#
# 1 0.022286 -0.003090 -0.004218 -0.000008 -0.005796 0.000007
# 2 -0.003090 0.012713 -0.003237 -0.000007 0.002708 0.000008
# 3 -0.004218 -0.003237 0.016538 0.000010 -0.000698 -0.000007
# 4 -0.000008 -0.000007 0.000010 0.033160 0.000010 -0.002960
# 5 -0.005796 0.002708 -0.000698 0.000010 0.040206 0.000002
# 6 0.000007 0.000008 -0.000007 -0.002960 0.000002 0.082292
#
#
# Mechanical properties :
#
#
# Convention : Reuss Voigt Hill
#
# Bulk Modulus (GPa) = 32.84338 35.03382 33.93860
# Shear Modulus (GPa) = 20.97021 24.12773 22.54897
#
# Velocity S-wave (km/s) = 3.23182 3.46661 3.35127
# Velocity P-wave (km/s) = 5.50315 5.78555 5.64611
#
# Compressibility (1/GPa) = 0.03044754
#
# Stress axis : x y z
#
# Youngs Moduli (GPa) = 44.87208 78.65711 60.46731
#
# Poissons Ratio (x) = 0.24302 0.25503
# Poissons Ratio (y) = 0.13864 0.19576
# Poissons Ratio (z) = 0.18925 0.25465
#
# Static dielectric constant tensor:
#      x y z
#    x 1.714310 0.000000 0.020300 
#    y 0.000000 1.703860 0.000010 
#    z 0.020300 0.000010 1.730440 
# 
# From -- ./inp_files/289712.got.cif
#   From: 2010.05.17/outbox.cif.g08.bks.cpg/sg15_145_cif.got.tgz:289712.got - 2010.06.03 18:47:42.
