data_PCOD9283923
_publ_section_title
;
Structure prediction by ZEFSAII (Michael W. Deem and Ramdas Pophale) SiO2 
 PCOD9283923
Probable space group: C 2/C
;
_chemical_formula_sum "Si O2"
_cell_formula_units_Z 40
_cell_length_a 16.147624
_cell_length_b 9.285363
_cell_length_c 24.186674
_cell_angle_alpha 90.000000
_cell_angle_beta 25.867102
_cell_angle_gamma 90.000000
_cell_volume 1582.173683
_symmetry_space_group_name_H-M "C 2/C"
_symmetry_group_IT_number 15
_symmetry_cell_setting 'monoclinic'
loop_
_space_group_symop_operation_xyz
x,y,z
-x,y,1/2-z
-x,-y,-z
x,-y,1/2+z
1/2+x,1/2+y,z
1/2-x,1/2+y,1/2-z
1/2-x,1/2-y,-z
1/2+x,1/2-y,1/2+z
loop_
_atom_site_type_symbol
_atom_site_label
_atom_site_fract_x
_atom_site_fract_y
_atom_site_fract_z
Si Si1 0.325670 0.332442 0.008832
Si Si2 0.758802 0.908833 0.742195
Si Si3 0.111090 0.649889 0.895583
Si Si4 0.182512 0.864185 0.116337
Si Si5 0.065507 0.440276 0.637628
O O1 0.516591 0.428658 0.885435
O O2 0.405377 0.216498 0.005067
O O3 0.250000 0.250000 0.000000
O O4 0.161207 0.444621 0.120147
O O5 0.757774 0.738014 0.728352
O O6 0.646537 0.970077 0.756291
O O7 0.651878 0.984103 0.856982
O O8 0.185742 0.680011 0.911474
O O9 0.094724 0.719641 0.142652
O O10 0.000000 0.948801 0.250000
O O11 0.305224 0.940721 0.995843
#
# Coordination Sequence:
#
# PCOD9283923 Si02
#       5
#     8   8   8   8   8
#     4  10  21  40  65  93 137 174 215 280 332 377
#     4  10  21  40  66  95 128 181 215 275 323 402
#     4  10  22  40  67  92 135 166 223 270 321 394
#     4  11  22  39  65 100 125 176 222 276 322 405
#     4  11  22  39  69  93 131 173 222 268 338 384
#
# _framework density 25.281675
#
# number of rings (size 3 to 8) (size 9 to 14) (size 15 to 20)
#    1.200    0.400    4.000    1.200    2.800    1.600 
#    0.000    0.000    0.000    0.000    0.000    0.000 
#    0.000    0.000    0.000    0.000    0.000    0.000 
#
# Total GULP energy -111551.517855 kJ/mol
# GULP energy per Si atom -5577.575893 kJ/mol
# Density = 2.522413 g / cm^3
# Si number density = 25.281675 Si / 1000 Ang^3
#
#
#
# Elastic Constant Matrix: (Units=GPa)
#
#
# Indices 1 2 3 4 5 6 
#
# 1 162.0000 23.6157 60.5914 0.0104 -46.2084 -0.0056
# 2 23.6157 68.9743 30.2191 0.0076 -13.8556 -0.0033
# 3 60.5914 30.2191 131.4123 0.0140 -35.0832 -0.0089
# 4 0.0104 0.0076 0.0140 15.3628 -0.0067 -24.2917
# 5 -46.2084 -13.8556 -35.0832 -0.0067 60.5961 0.0070
# 6 -0.0056 -0.0033 -0.0089 -24.2917 0.0070 18.1360
#
#
#
# Elastic Compliance Matrix: (Units=1/GPa)
#
#
# Indices 1 2 3 4 5 6 
#
# 1 0.008635 -0.000885 -0.002453 0.000002 0.004962 0.000002
# 2 -0.000885 0.016385 -0.003004 0.000003 0.001332 0.000004
# 3 -0.002453 -0.003004 0.010348 0.000001 0.003434 0.000004
# 4 0.000002 0.000003 0.000001 -0.058228 0.000005 -0.077991
# 5 0.004962 0.001332 0.003434 0.000005 0.022579 0.000001
# 6 0.000002 0.000004 0.000004 -0.077991 0.000001 -0.049324
#
#
# Mechanical properties :
#
#
# Convention : Reuss Voigt Hill
#
# Bulk Modulus (GPa) = 44.08453 65.69323 54.88888
# Shear Modulus (GPa) = -170.30290 35.34968 -67.47661
#
# Velocity S-wave (km/s) = -8.21635 3.74335 -5.17183
# Velocity P-wave (km/s) = 8.51681 6.68764 3.72904
#
# Compressibility (1/GPa) = 0.02268369
#
# Stress axis : x y z
#
# Youngs Moduli (GPa) = 115.81244 61.03162 96.63484
#
# Poissons Ratio (x) = 0.05400 0.23706
# Poissons Ratio (y) = 0.10248 0.29030
# Poissons Ratio (z) = 0.28410 0.18335
#
# Static dielectric constant tensor:
#      x y z
#    x 1.971980 0.000000 0.046580 
#    y 0.000000 2.037960 0.000000 
#    z 0.046580 0.000000 2.060400 
# 
# From -- ./inp_files/295693.got.cif
#   From: 2010.05.17/outbox.cif.g08.bks.cpg/sg15_148_cif.got.tgz:295693.got - 2010.06.03 18:47:42.
