data_PCOD9283070
_publ_section_title
;
Structure prediction by ZEFSAII (Michael W. Deem and Ramdas Pophale) SiO2 
 PCOD9283070
Probable space group: C 2/C
;
_chemical_formula_sum "Si O2"
_cell_formula_units_Z 52
_cell_length_a 17.854426
_cell_length_b 20.900814
_cell_length_c 8.675641
_cell_angle_alpha 90.000000
_cell_angle_beta 132.247361
_cell_angle_gamma 90.000000
_cell_volume 2396.561349
_symmetry_space_group_name_H-M "C 2/C"
_symmetry_group_IT_number 15
_symmetry_cell_setting 'monoclinic'
loop_
_space_group_symop_operation_xyz
x,y,z
-x,y,1/2-z
-x,-y,-z
x,-y,1/2+z
1/2+x,1/2+y,z
1/2-x,1/2+y,1/2-z
1/2-x,1/2-y,-z
1/2+x,1/2-y,1/2+z
loop_
_atom_site_type_symbol
_atom_site_label
_atom_site_fract_x
_atom_site_fract_y
_atom_site_fract_z
Si Si1 0.164137 0.708646 0.217600
Si Si2 0.672136 0.714641 0.284562
Si Si3 0.799076 0.020126 0.866999
Si Si4 0.931820 0.159127 0.799654
Si Si5 0.000000 0.723085 0.750000
Si Si6 0.099040 0.918778 0.712570
Si Si7 0.767407 0.412113 0.514266
O O1 0.278716 0.724001 0.315982
O O2 0.122216 0.777654 0.211187
O O3 0.168128 0.649312 0.341932
O O4 0.087336 0.689037 0.971730
O O5 0.750000 0.750000 0.500000
O O6 0.565249 0.737961 0.209505
O O7 0.678668 0.639093 0.312521
O O8 0.733637 0.066848 0.666298
O O9 0.866292 0.975382 0.850017
O O10 0.880241 0.054953 0.088865
O O11 0.726068 0.974887 0.869171
O O12 0.847536 0.111274 0.621049
O O13 0.000000 0.178834 0.750000
O O14 0.999260 0.116912 0.011141
#
# Coordination Sequence:
#
# PCOD9283070 Si02
#       7
#     8   8   8   8   4   8   8
#     4  11  23  43  67 101 142 177 231 287 357 402
#     4  10  21  39  67 100 133 180 226 289 342 406
#     4  10  24  41  67  96 139 195 221 278 340 419
#     4  12  24  40  65 100 147 178 225 288 341 415
#     4  10  22  40  72 100 132 176 222 288 358 404
#     4  11  22  43  64 100 142 181 234 269 341 424
#     4  11  24  42  64  98 136 181 229 287 334 418
#
# _framework density 21.697754
#
# number of rings (size 3 to 8) (size 9 to 14) (size 15 to 20)
#    0.000    1.231    4.615    0.462    4.308    4.308 
#    0.000    0.000    0.000    0.923    0.000    0.000 
#    0.000    0.000    0.000    0.000    0.000    0.000 
#
# Total GULP energy -144907.875587 kJ/mol
# GULP energy per Si atom -5573.379830 kJ/mol
# Density = 2.164837 g / cm^3
# Si number density = 21.697754 Si / 1000 Ang^3
#
#
#
# Elastic Constant Matrix: (Units=GPa)
#
#
# Indices 1 2 3 4 5 6 
#
# 1 78.1518 40.4290 25.2155 0.0000 -8.3897 0.0000
# 2 40.4290 110.9864 60.1711 0.0000 -12.3717 0.0000
# 3 25.2155 60.1711 130.9659 0.0000 -16.7077 0.0000
# 4 0.0000 0.0000 0.0000 53.1523 0.0000 -16.3960
# 5 -8.3897 -12.3717 -16.7077 0.0000 32.1862 0.0000
# 6 0.0000 0.0000 0.0000 -16.3960 0.0000 58.2811
#
#
#
# Elastic Compliance Matrix: (Units=1/GPa)
#
#
# Indices 1 2 3 4 5 6 
#
# 1 0.015900 -0.005396 -0.000340 0.000000 0.001894 0.000000
# 2 -0.005396 0.013937 -0.005205 0.000000 0.001249 0.000000
# 3 -0.000340 -0.005205 0.010523 0.000000 0.003373 0.000000
# 4 0.000000 0.000000 0.000000 0.020602 0.000000 0.005796
# 5 0.001894 0.001249 0.003373 0.000000 0.033794 0.000000
# 6 0.000000 0.000000 0.000000 0.005796 0.000000 0.018789
#
#
# Mechanical properties :
#
#
# Convention : Reuss Voigt Hill
#
# Bulk Modulus (GPa) = 54.12277 63.52614 58.82445
# Shear Modulus (GPa) = 35.31414 41.67647 38.49531
#
# Velocity S-wave (km/s) = 4.03867 4.38742 4.21665
# Velocity P-wave (km/s) = 6.83709 7.41669 7.13278
#
# Compressibility (1/GPa) = 0.01847651
#
# Stress axis : x y z
#
# Youngs Moduli (GPa) = 62.89166 71.75227 95.03208
#
# Poissons Ratio (x) = 0.38720 0.03236
# Poissons Ratio (y) = 0.33938 0.49463
# Poissons Ratio (z) = 0.02141 0.37346
#
# Static dielectric constant tensor:
#      x y z
#    x 1.919200 0.000000 -0.056420 
#    y 0.000000 1.778260 0.000000 
#    z -0.056420 0.000000 1.876390 
# 
# From -- ./inp_files/50711.got.cif
#   From: 2010.05.17/outbox.cif.g08.bks.cpg/sg15_26_cif.got.tgz:50711.got - 2010.06.03 18:47:42.
