data_PCOD9283342
_publ_section_title
;
Structure prediction by ZEFSAII (Michael W. Deem and Ramdas Pophale) SiO2 
 PCOD9283342
Probable space group: C 2/C
;
_chemical_formula_sum "Si O2"
_cell_formula_units_Z 40
_cell_length_a 17.872870
_cell_length_b 7.048115
_cell_length_c 15.900307
_cell_angle_alpha 90.000000
_cell_angle_beta 99.799303
_cell_angle_gamma 90.000000
_cell_volume 1973.739076
_symmetry_space_group_name_H-M "C 2/C"
_symmetry_group_IT_number 15
_symmetry_cell_setting 'monoclinic'
loop_
_space_group_symop_operation_xyz
x,y,z
-x,y,1/2-z
-x,-y,-z
x,-y,1/2+z
1/2+x,1/2+y,z
1/2-x,1/2+y,1/2-z
1/2-x,1/2-y,-z
1/2+x,1/2-y,1/2+z
loop_
_atom_site_type_symbol
_atom_site_label
_atom_site_fract_x
_atom_site_fract_y
_atom_site_fract_z
Si Si1 0.306884 0.105332 0.692008
Si Si2 0.295771 0.255399 0.871003
Si Si3 0.210991 0.632008 0.065844
Si Si4 0.927795 0.556058 0.570918
Si Si5 0.048606 0.190178 0.019719
O O1 0.324500 0.149548 0.791890
O O2 0.242871 0.259702 0.652638
O O3 0.379291 0.108112 0.643840
O O4 0.267083 0.905751 0.665790
O O5 0.367209 0.351528 0.930314
O O6 0.264035 0.086602 0.923096
O O7 0.250000 0.750000 0.000000
O O8 0.123570 0.617820 0.020477
O O9 0.942815 0.331792 0.559141
O O10 0.003834 0.676941 0.577612
O O11 0.000000 0.000000 0.000000
#
# Coordination Sequence:
#
# PCOD9283342 Si02
#       5
#     8   8   8   8   8
#     4  11  21  37  59  90 121 158 197 258 315 362
#     4  11  22  36  61  88 124 156 205 258 311 364
#     4   9  19  36  58  86 117 155 202 248 300 364
#     4   9  21  37  60  84 118 157 201 249 302 365
#     4  10  21  40  60  86 115 161 209 249 297 376
#
# _framework density 20.266103000000001
#
# number of rings (size 3 to 8) (size 9 to 14) (size 15 to 20)
#    0.000    2.000    2.000    1.200    0.000   11.200 
#    0.000    0.000    0.000    0.000    0.000    0.000 
#    0.000    0.000    0.000    0.000    0.000    0.000 
#
# Total GULP energy -111515.527098 kJ/mol
# GULP energy per Si atom -5575.776355 kJ/mol
# Density = 2.021998 g / cm^3
# Si number density = 20.266103 Si / 1000 Ang^3
#
#
#
# Elastic Constant Matrix: (Units=GPa)
#
#
# Indices 1 2 3 4 5 6 
#
# 1 63.7824 21.9258 11.9700 0.0000 -10.0863 0.0000
# 2 21.9258 96.9720 19.7886 0.0000 4.1023 0.0000
# 3 11.9700 19.7886 41.7445 0.0000 -0.0465 0.0000
# 4 0.0000 0.0000 0.0000 24.4424 0.0000 3.6992
# 5 -10.0863 4.1023 -0.0465 0.0000 23.9542 0.0000
# 6 0.0000 0.0000 0.0000 3.6992 0.0000 41.7283
#
#
#
# Elastic Compliance Matrix: (Units=1/GPa)
#
#
# Indices 1 2 3 4 5 6 
#
# 1 0.019087 -0.003951 -0.003590 0.000000 0.008707 0.000000
# 2 -0.003951 0.012328 -0.004715 0.000000 -0.003784 0.000000
# 3 -0.003590 -0.004715 0.027219 0.000000 -0.000651 0.000000
# 4 0.000000 0.000000 0.000000 0.041469 0.000000 -0.003676
# 5 0.008707 -0.003784 -0.000651 0.000000 0.046059 0.000000
# 6 0.000000 0.000000 0.000000 -0.003676 0.000000 0.024290
#
#
# Mechanical properties :
#
#
# Convention : Reuss Voigt Hill
#
# Bulk Modulus (GPa) = 29.30770 34.42973 31.86871
# Shear Modulus (GPa) = 24.23182 27.94595 26.08888
#
# Velocity S-wave (km/s) = 3.46162 3.71745 3.59181
# Velocity P-wave (km/s) = 5.51995 5.95413 5.74115
#
# Compressibility (1/GPa) = 0.03412073
#
# Stress axis : x y z
#
# Youngs Moduli (GPa) = 52.39096 81.11640 36.73877
#
# Poissons Ratio (x) = 0.32052 0.13190
# Poissons Ratio (y) = 0.20702 0.17323
# Poissons Ratio (z) = 0.18810 0.38248
#
# Static dielectric constant tensor:
#      x y z
#    x 1.710650 0.000000 0.008870 
#    y 0.000000 1.746260 0.000000 
#    z 0.008870 0.000000 1.782130 
# 
# From -- ./inp_files/208002.got.cif
#   From: 2010.05.17/outbox.cif.g08.bks.cpg/sg15_105_cif.got.tgz:208002.got - 2010.06.03 18:47:42.
