data_PCOD9283597
_publ_section_title
;
Structure prediction by ZEFSAII (Michael W. Deem and Ramdas Pophale) SiO2 
 PCOD9283597
Probable space group: C 2/C
;
_chemical_formula_sum "Si O2"
_cell_formula_units_Z 52
_cell_length_a 11.414164
_cell_length_b 9.523851
_cell_length_c 28.499727
_cell_angle_alpha 90.000000
_cell_angle_beta 66.959430
_cell_angle_gamma 90.000000
_cell_volume 2850.971147
_symmetry_space_group_name_H-M "C 2/C"
_symmetry_group_IT_number 15
_symmetry_cell_setting 'monoclinic'
loop_
_space_group_symop_operation_xyz
x,y,z
-x,y,1/2-z
-x,-y,-z
x,-y,1/2+z
1/2+x,1/2+y,z
1/2-x,1/2+y,1/2-z
1/2-x,1/2-y,-z
1/2+x,1/2-y,1/2+z
loop_
_atom_site_type_symbol
_atom_site_label
_atom_site_fract_x
_atom_site_fract_y
_atom_site_fract_z
Si Si1 0.621404 0.554889 0.430435
Si Si2 0.500000 0.064714 0.250000
Si Si3 0.841137 0.883013 0.985425
Si Si4 0.058494 0.035134 0.612474
Si Si5 0.807838 0.251358 0.841915
Si Si6 0.086870 0.061892 0.280689
Si Si7 0.310826 0.866029 0.228055
O O1 0.681499 0.484655 0.466725
O O2 0.494828 0.645381 0.464068
O O3 0.555644 0.438486 0.406714
O O4 0.718111 0.644858 0.385006
O O5 0.601252 0.161178 0.207080
O O6 0.427580 0.965309 0.224095
O O7 0.833727 0.965929 0.937158
O O8 0.750000 0.750000 0.000000
O O9 0.999746 0.927325 0.659582
O O10 0.109047 0.162976 0.634664
O O11 0.724358 0.150030 0.821313
O O12 0.157938 0.208357 0.260544
O O13 0.000000 0.027089 0.250000
O O14 0.188255 0.937585 0.271190
#
# Coordination Sequence:
#
# PCOD9283597 Si02
#       7
#     8   4   8   8   8   8   8
#     4   9  21  41  63  89 120 162 203 272 316 375
#     4  12  26  38  60  94 132 174 212 260 308 388
#     4   9  20  44  66  88 121 161 212 270 327 375
#     4  10  21  40  63  88 123 166 202 264 321 371
#     4  12  23  40  61  94 131 165 217 259 323 380
#     4  12  23  40  62  90 131 168 216 257 315 383
#     4  12  23  39  60  90 126 175 210 259 310 376
#
# _framework density 18.239398999999999
#
# number of rings (size 3 to 8) (size 9 to 14) (size 15 to 20)
#    0.923    0.308    5.385    0.923    0.000    3.077 
#    5.538    0.769    0.000    0.000    0.000    0.000 
#    0.000    0.000    0.000    0.000    0.000    0.000 
#
# Total GULP energy -144846.341994 kJ/mol
# GULP energy per Si atom -5571.013154 kJ/mol
# Density = 1.819789 g / cm^3
# Si number density = 18.239399 Si / 1000 Ang^3
#
#
#
# Elastic Constant Matrix: (Units=GPa)
#
#
# Indices 1 2 3 4 5 6 
#
# 1 87.6082 57.5684 37.8075 0.0000 9.2288 0.0000
# 2 57.5684 95.0207 56.5527 0.0000 -3.8215 0.0000
# 3 37.8075 56.5527 115.8945 0.0000 8.9244 0.0000
# 4 0.0000 0.0000 0.0000 19.3928 0.0000 6.7076
# 5 9.2288 -3.8215 8.9244 0.0000 22.8673 0.0000
# 6 0.0000 0.0000 0.0000 6.7076 0.0000 38.6967
#
#
#
# Elastic Compliance Matrix: (Units=1/GPa)
#
#
# Indices 1 2 3 4 5 6 
#
# 1 0.021366 -0.013749 0.000598 0.000000 -0.011154 0.000000
# 2 -0.013749 0.024373 -0.008401 0.000000 0.012901 0.000000
# 3 0.000598 -0.008401 0.013052 0.000000 -0.006739 0.000000
# 4 0.000000 0.000000 0.000000 0.054854 0.000000 -0.009508
# 5 -0.011154 0.012901 -0.006739 0.000000 0.053018 0.000000
# 6 0.000000 0.000000 0.000000 -0.009508 0.000000 0.027490
#
#
# Mechanical properties :
#
#
# Convention : Reuss Voigt Hill
#
# Bulk Modulus (GPa) = 63.75126 66.93118 65.34122
# Shear Modulus (GPa) = 20.61964 25.96435 23.29200
#
# Velocity S-wave (km/s) = 3.36594 3.77706 3.57741
# Velocity P-wave (km/s) = 7.08057 7.46975 7.27776
#
# Compressibility (1/GPa) = 0.01568596
#
# Stress axis : x y z
#
# Youngs Moduli (GPa) = 46.80304 41.02917 76.61670
#
# Poissons Ratio (x) = 0.56411 -0.04581
# Poissons Ratio (y) = 0.64350 0.64368
# Poissons Ratio (z) = -0.02798 0.34470
#
# Static dielectric constant tensor:
#      x y z
#    x 1.663850 0.000000 0.002500 
#    y 0.000000 1.616130 0.000000 
#    z 0.002500 0.000000 1.637960 
# 
# From -- ./inp_files/291093.got.cif
#   From: 2010.05.17/outbox.cif.g08.bks.cpg/sg15_146_cif.got.tgz:291093.got - 2010.06.03 18:47:42.
