data_PCOD9283619
_publ_section_title
;
Structure prediction by ZEFSAII (Michael W. Deem and Ramdas Pophale) SiO2 
 PCOD9283619
Probable space group: C 2/C
;
_chemical_formula_sum "Si O2"
_cell_formula_units_Z 64
_cell_length_a 11.968566
_cell_length_b 30.143554
_cell_length_c 14.552496
_cell_angle_alpha 90.000000
_cell_angle_beta 40.123857
_cell_angle_gamma 90.000000
_cell_volume 3383.435875
_symmetry_space_group_name_H-M "C 2/C"
_symmetry_group_IT_number 15
_symmetry_cell_setting 'monoclinic'
loop_
_space_group_symop_operation_xyz
x,y,z
-x,y,1/2-z
-x,-y,-z
x,-y,1/2+z
1/2+x,1/2+y,z
1/2-x,1/2+y,1/2-z
1/2-x,1/2-y,-z
1/2+x,1/2-y,1/2+z
loop_
_atom_site_type_symbol
_atom_site_label
_atom_site_fract_x
_atom_site_fract_y
_atom_site_fract_z
Si Si1 0.802432 0.381644 0.684973
Si Si2 0.222958 0.987111 0.932218
Si Si3 0.605311 0.795307 0.776119
Si Si4 0.233671 0.159922 0.856975
Si Si5 0.513385 0.257818 0.982553
Si Si6 0.009357 0.527967 0.400719
Si Si7 0.476110 0.426042 0.978079
Si Si8 0.101682 0.322980 0.047997
O O1 0.853101 0.346788 0.732404
O O2 0.934642 0.422544 0.606102
O O3 0.614248 0.402258 0.824207
O O4 0.813350 0.352729 0.585328
O O5 0.346832 0.989317 0.763590
O O6 0.334203 0.974278 0.951047
O O7 0.082907 0.950074 0.992211
O O8 0.130281 0.034383 0.002778
O O9 0.500000 0.788456 0.750000
O O10 0.791294 0.770918 0.664749
O O11 0.489012 0.775463 0.930357
O O12 0.300872 0.168613 0.918335
O O13 0.401208 0.163207 0.687314
O O14 0.092517 0.197905 0.926836
O O15 0.149398 0.111773 0.905958
O O16 0.412198 0.228962 0.969560
O O17 0.000000 0.500000 0.500000
#
# Coordination Sequence:
#
# PCOD9283619 Si02
#       8
#     8   8   8   8   8   8   8   8
#     4  10  23  40  61  92 124 156 213 251 310 381
#     4   9  22  42  62  89 127 162 207 263 321 375
#     4  11  23  39  66  88 122 165 208 256 310 375
#     4  11  22  38  66  84 125 166 201 253 318 366
#     4  11  21  43  58  91 124 157 207 256 307 369
#     4  10  22  39  66  89 123 169 208 262 318 380
#     4  10  21  40  63  90 120 163 203 259 317 370
#     4  10  24  39  59  91 124 163 205 253 306 382
#
# _framework density 18.915683000000001
#
# number of rings (size 3 to 8) (size 9 to 14) (size 15 to 20)
#    0.000    1.750    2.500    0.750    7.000    1.500 
#    2.250    1.875    0.000    0.000    0.000    0.000 
#    0.000    0.000    0.000    0.000    0.000    0.000 
#
# Total GULP energy -178636.976368 kJ/mol
# GULP energy per Si atom -5582.405512 kJ/mol
# Density = 1.887263 g / cm^3
# Si number density = 18.915683 Si / 1000 Ang^3
#
#
#
# Elastic Constant Matrix: (Units=GPa)
#
#
# Indices 1 2 3 4 5 6 
#
# 1 39.8472 2.0596 -4.1468 0.0000 0.9586 0.0000
# 2 2.0596 106.9912 18.8725 0.0000 -8.7227 0.0000
# 3 -4.1468 18.8725 26.2637 0.0000 3.0568 0.0000
# 4 0.0000 0.0000 0.0000 41.6443 0.0000 -10.8420
# 5 0.9586 -8.7227 3.0568 0.0000 19.5114 0.0000
# 6 0.0000 0.0000 0.0000 -10.8420 0.0000 9.2461
#
#
#
# Elastic Compliance Matrix: (Units=1/GPa)
#
#
# Indices 1 2 3 4 5 6 
#
# 1 0.025846 -0.001737 0.005671 0.000000 -0.002935 0.000000
# 2 -0.001737 0.011584 -0.009382 0.000000 0.006734 0.000000
# 3 0.005671 -0.009382 0.047092 0.000000 -0.011851 0.000000
# 4 0.000000 0.000000 0.000000 0.034565 0.000000 0.040531
# 5 -0.002935 0.006734 -0.011851 0.000000 0.056263 0.000000
# 6 0.000000 0.000000 0.000000 0.040531 0.000000 0.155680
#
#
# Mechanical properties :
#
#
# Convention : Reuss Voigt Hill
#
# Bulk Modulus (GPa) = 13.58226 22.96363 18.27295
# Shear Modulus (GPa) = 13.64371 24.50148 19.07260
#
# Velocity S-wave (km/s) = 2.68860 3.60293 3.17881
# Velocity P-wave (km/s) = 4.10294 5.42904 4.81189
#
# Compressibility (1/GPa) = 0.07362543
#
# Stress axis : x y z
#
# Youngs Moduli (GPa) = 38.69006 86.32668 21.23518
#
# Poissons Ratio (x) = 0.14996 -0.12042
# Poissons Ratio (y) = 0.06721 0.19923
# Poissons Ratio (z) = -0.21940 0.80991
#
# Static dielectric constant tensor:
#      x y z
#    x 1.643880 0.000000 -0.001690 
#    y 0.000000 1.640170 0.000000 
#    z -0.001690 0.000000 1.665180 
# 
# From -- ./inp_files/148748.got.cif
#   From: 2010.05.17/outbox.cif.g08.bks.cpg/sg15_75_cif.got.tgz:148748.got - 2010.06.03 18:47:42.
