data_PCOD9283704
_publ_section_title
;
Structure prediction by ZEFSAII (Michael W. Deem and Ramdas Pophale) SiO2 
 PCOD9283704
Probable space group: C 2/C
;
_chemical_formula_sum "Si O2"
_cell_formula_units_Z 56
_cell_length_a 25.993305
_cell_length_b 16.327147
_cell_length_c 16.826758
_cell_angle_alpha 90.000000
_cell_angle_beta 159.271617
_cell_angle_gamma 90.000000
_cell_volume 2527.549615
_symmetry_space_group_name_H-M "C 2/C"
_symmetry_group_IT_number 15
_symmetry_cell_setting 'monoclinic'
loop_
_space_group_symop_operation_xyz
x,y,z
-x,y,1/2-z
-x,-y,-z
x,-y,1/2+z
1/2+x,1/2+y,z
1/2-x,1/2+y,1/2-z
1/2-x,1/2-y,-z
1/2+x,1/2-y,1/2+z
loop_
_atom_site_type_symbol
_atom_site_label
_atom_site_fract_x
_atom_site_fract_y
_atom_site_fract_z
Si Si1 0.500000 0.199634 0.750000
Si Si2 0.298083 0.252790 0.869339
Si Si3 0.299076 0.626324 0.229957
Si Si4 0.208319 0.019508 0.660396
Si Si5 0.516891 0.323179 0.914387
Si Si6 0.516692 0.087346 0.364219
Si Si7 0.221007 0.838895 0.496471
Si Si8 0.500000 0.573743 0.750000
O O1 0.367628 0.142549 0.533600
O O2 0.461756 0.261891 0.766778
O O3 0.330088 0.296349 0.832670
O O4 0.128758 0.228760 0.629268
O O5 0.311872 0.316817 0.959522
O O6 0.399254 0.174268 0.026938
O O7 0.322623 0.541791 0.310493
O O8 0.393680 0.635760 0.288315
O O9 0.123617 0.105372 0.539222
O O10 0.138945 0.979000 0.481991
O O11 0.379274 0.038866 0.923688
O O12 0.500000 0.052776 0.250000
O O13 0.359055 0.107103 0.172608
O O14 0.250000 0.750000 0.500000
O O15 0.068809 0.886185 0.267283
#
# Coordination Sequence:
#
# PCOD9283704 Si02
#       8
#     4   8   8   8   8   8   8   4
#     4  10  23  42  66 101 130 176 238 282 343 424
#     4  10  21  40  64 103 128 168 233 285 349 405
#     4  11  22  41  66  98 134 174 231 290 342 412
#     4  11  26  44  64 100 142 184 231 282 347 435
#     4  10  22  41  68  89 136 185 223 277 344 421
#     4  11  24  42  67 101 140 179 229 286 360 418
#     4  12  23  41  74  98 134 172 226 300 351 410
#     4  12  27  46  66 103 138 182 238 280 353 424
#
# _framework density 22.155846
#
# number of rings (size 3 to 8) (size 9 to 14) (size 15 to 20)
#    0.000    1.143    2.857    3.000    3.000    1.714 
#    0.000    1.429    0.000    0.000    0.000    0.000 
#    0.000    0.000    0.000    0.000    0.000    0.000 
#
# Total GULP energy -156142.922861 kJ/mol
# GULP energy per Si atom -5576.532959 kJ/mol
# Density = 2.210542 g / cm^3
# Si number density = 22.155846 Si / 1000 Ang^3
#
#
#
# Elastic Constant Matrix: (Units=GPa)
#
#
# Indices 1 2 3 4 5 6 
#
# 1 35.6328 -35.2344 44.1418 0.0000 32.4472 0.0000
# 2 -35.2344 11.8062 23.4409 0.0000 15.6332 0.0000
# 3 44.1418 23.4409 110.3184 0.0000 -2.1138 0.0000
# 4 0.0000 0.0000 0.0000 27.1657 0.0000 -9.2062
# 5 32.4472 15.6332 -2.1138 0.0000 22.8862 0.0000
# 6 0.0000 0.0000 0.0000 -9.2062 0.0000 -0.8046
#
#
#
# Elastic Compliance Matrix: (Units=1/GPa)
#
#
# Indices 1 2 3 4 5 6 
#
# 1 0.001001 -0.015144 0.002994 0.000000 0.009203 0.000000
# 2 -0.015144 0.006798 0.004946 0.000000 0.017284 0.000000
# 3 0.002994 0.004946 0.006681 0.000000 -0.007006 0.000000
# 4 0.000000 0.000000 0.000000 0.007547 0.000000 -0.086352
# 5 0.009203 0.017284 -0.007006 0.000000 0.018194 0.000000
# 6 0.000000 0.000000 0.000000 -0.086352 0.000000 -0.254808
#
#
# Mechanical properties :
#
#
# Convention : Reuss Voigt Hill
#
# Bulk Modulus (GPa) = 13834.61626 24.71712 6929.66669
# Shear Modulus (GPa) = -24.98062 18.21008 -3.38527
#
# Velocity S-wave (km/s) = -3.36146 2.87001 -1.23744
# Velocity P-wave (km/s) = 79.01087 4.70774 55.96821
#
# Compressibility (1/GPa) = 0.00007228
#
# Stress axis : x y z
#
# Youngs Moduli (GPa) = 999.48105 147.10042 149.66769
#
# Poissons Ratio (x) = 2.22770 -0.44809
# Poissons Ratio (y) = 15.13620 -0.74030
# Poissons Ratio (z) = -2.99232 -0.72760
#
# Static dielectric constant tensor:
#      x y z
#    x 1.864650 0.000000 -0.092430 
#    y 0.000000 1.972150 0.000000 
#    z -0.092430 0.000000 1.950580 
# 
# From -- ./inp_files/222999.got.cif
#   From: 2010.05.17/outbox.cif.g08.bks.cpg/sg15_112_cif.got.tgz:222999.got - 2010.06.03 18:47:42.
