data_PCOD9283849
_publ_section_title
;
Structure prediction by ZEFSAII (Michael W. Deem and Ramdas Pophale) SiO2 
 PCOD9283849
Probable space group: C 2/C
;
_chemical_formula_sum "Si O2"
_cell_formula_units_Z 56
_cell_length_a 14.336849
_cell_length_b 13.281158
_cell_length_c 14.393296
_cell_angle_alpha 90.000000
_cell_angle_beta 82.301190
_cell_angle_gamma 90.000000
_cell_volume 2715.922810
_symmetry_space_group_name_H-M "C 2/C"
_symmetry_group_IT_number 15
_symmetry_cell_setting 'monoclinic'
loop_
_space_group_symop_operation_xyz
x,y,z
-x,y,1/2-z
-x,-y,-z
x,-y,1/2+z
1/2+x,1/2+y,z
1/2-x,1/2+y,1/2-z
1/2-x,1/2-y,-z
1/2+x,1/2-y,1/2+z
loop_
_atom_site_type_symbol
_atom_site_label
_atom_site_fract_x
_atom_site_fract_y
_atom_site_fract_z
Si Si1 0.153926 0.479936 0.440390
Si Si2 0.000000 0.575152 0.750000
Si Si3 0.679900 0.176258 0.794588
Si Si4 0.519899 0.088169 0.112623
Si Si5 0.650286 0.596626 0.831141
Si Si6 0.613898 0.619206 0.241643
Si Si7 0.000000 0.766112 0.250000
Si Si8 0.299331 0.640554 0.478127
O O1 0.210068 0.394327 0.376526
O O2 0.077501 0.420487 0.511348
O O3 0.221886 0.551846 0.488213
O O4 0.089696 0.557452 0.387990
O O5 0.072677 0.641878 0.794766
O O6 0.055608 0.501046 0.674420
O O7 0.745325 0.138628 0.702623
O O8 0.669920 0.295619 0.793320
O O9 0.531842 0.192045 0.163321
O O10 0.636778 0.485615 0.790453
O O11 0.582145 0.666531 0.779759
O O12 0.633676 0.614863 0.943045
O O13 0.500000 0.630888 0.250000
O O14 0.652216 0.631289 0.130247
O O15 0.250000 0.750000 0.500000
#
# Coordination Sequence:
#
# PCOD9283849 Si02
#       8
#     8   4   8   8   8   8   4   8
#     4  10  21  40  65 107 134 174 239 299 360 428
#     4   9  18  35  62  98 130 181 228 289 350 410
#     4  11  22  41  69  97 141 182 234 296 349 419
#     4   9  20  36  66  95 136 171 225 300 362 414
#     4  12  26  46  70  99 142 189 240 293 352 433
#     4  12  27  48  71 106 147 192 241 292 364 435
#     4  11  24  45  64  96 142 187 236 295 362 426
#     4  12  25  44  76 103 139 194 247 292 363 435
#
# _framework density 20.619142
#
# number of rings (size 3 to 8) (size 9 to 14) (size 15 to 20)
#    0.000    1.143    4.286    1.714    0.000    5.143 
#    2.571    1.429    0.000    0.000    0.000    0.000 
#    0.000    0.000    0.000    0.000    0.000    0.000 
#
# Total GULP energy -156151.299328 kJ/mol
# GULP energy per Si atom -5576.832119 kJ/mol
# Density = 2.057221 g / cm^3
# Si number density = 20.619142 Si / 1000 Ang^3
#
#
#
# Elastic Constant Matrix: (Units=GPa)
#
#
# Indices 1 2 3 4 5 6 
#
# 1 47.8653 32.0563 16.2637 0.0000 3.4946 0.0000
# 2 32.0563 158.6711 49.5683 0.0000 14.6152 0.0000
# 3 16.2637 49.5683 101.5967 0.0000 3.3710 0.0000
# 4 0.0000 0.0000 0.0000 30.1548 0.0000 8.9470
# 5 3.4946 14.6152 3.3710 0.0000 31.6319 0.0000
# 6 0.0000 0.0000 0.0000 8.9470 0.0000 17.0037
#
#
#
# Elastic Compliance Matrix: (Units=1/GPa)
#
#
# Indices 1 2 3 4 5 6 
#
# 1 0.024436 -0.004334 -0.001780 0.000000 -0.000507 0.000000
# 2 -0.004334 0.008512 -0.003356 0.000000 -0.003096 0.000000
# 3 -0.001780 -0.003356 0.011749 0.000000 0.000495 0.000000
# 4 0.000000 0.000000 0.000000 0.039297 0.000000 -0.020677
# 5 -0.000507 -0.003096 0.000495 0.000000 0.033048 0.000000
# 6 0.000000 0.000000 0.000000 -0.020677 0.000000 0.069691
#
#
# Mechanical properties :
#
#
# Convention : Reuss Voigt Hill
#
# Bulk Modulus (GPa) = 38.82638 55.98998 47.40818
# Shear Modulus (GPa) = 23.33624 29.77440 26.55532
#
# Velocity S-wave (km/s) = 3.36784 3.80415 3.59262
# Velocity P-wave (km/s) = 5.83046 6.81973 6.34440
#
# Compressibility (1/GPa) = 0.02575568
#
# Stress axis : x y z
#
# Youngs Moduli (GPa) = 40.92240 117.48664 85.11422
#
# Poissons Ratio (x) = 0.50918 0.15154
# Poissons Ratio (y) = 0.17736 0.28566
# Poissons Ratio (z) = 0.07286 0.39431
#
# Static dielectric constant tensor:
#      x y z
#    x 1.805790 0.000000 -0.083360 
#    y 0.000000 1.739770 0.000000 
#    z -0.083360 0.000000 2.117490 
# 
# From -- ./inp_files/152649.got.cif
#   From: 2010.05.17/outbox.cif.g08.bks.cpg/sg15_77_cif.got.tgz:152649.got - 2010.06.03 18:47:42.
