data_PCOD9283040
_publ_section_title
;
Structure prediction by ZEFSAII (Michael W. Deem and Ramdas Pophale) SiO2 
 PCOD9283040
Probable space group: C 2/C
;
_chemical_formula_sum "Si O2"
_cell_formula_units_Z 56
_cell_length_a 14.719027
_cell_length_b 20.666758
_cell_length_c 14.221168
_cell_angle_alpha 90.000000
_cell_angle_beta 139.717974
_cell_angle_gamma 90.000000
_cell_volume 2796.978778
_symmetry_space_group_name_H-M "C 2/C"
_symmetry_group_IT_number 15
_symmetry_cell_setting 'monoclinic'
loop_
_space_group_symop_operation_xyz
x,y,z
-x,y,1/2-z
-x,-y,-z
x,-y,1/2+z
1/2+x,1/2+y,z
1/2-x,1/2+y,1/2-z
1/2-x,1/2-y,-z
1/2+x,1/2-y,1/2+z
loop_
_atom_site_type_symbol
_atom_site_label
_atom_site_fract_x
_atom_site_fract_y
_atom_site_fract_z
Si Si1 0.000492 0.711300 0.041786
Si Si2 0.522611 0.133289 0.657200
Si Si3 0.373205 0.891622 0.579748
Si Si4 0.863330 0.068420 0.332006
Si Si5 0.223888 0.532614 0.035770
Si Si6 0.256689 0.687239 0.357201
Si Si7 0.188192 0.065855 0.605185
O O1 0.935101 0.649060 0.043075
O O2 0.134335 0.728211 0.211330
O O3 0.023542 0.688834 0.952477
O O4 0.894123 0.770095 0.965368
O O5 0.500000 0.150885 0.750000
O O6 0.685207 0.113569 0.765792
O O7 0.423345 0.070253 0.563299
O O8 0.500000 0.912632 0.750000
O O9 0.297303 0.955538 0.482953
O O10 0.282096 0.842533 0.572065
O O11 0.772363 0.126124 0.301094
O O12 0.025002 0.085794 0.482581
O O13 0.833668 0.056561 0.199701
O O14 0.812163 0.002334 0.340747
O O15 0.277624 0.551685 0.975976
#
# Coordination Sequence:
#
# PCOD9283040 Si02
#       7
#     8   8   8   8   8   8   8
#     4  11  24  42  64  89 126 172 220 254 309 372
#     4  10  22  39  65  93 122 163 215 264 313 376
#     4  10  21  39  66  96 126 163 207 266 321 379
#     4  11  22  38  60  90 129 165 198 260 326 377
#     4  11  20  38  65  96 125 158 206 265 325 380
#     4  11  24  43  63  91 127 171 214 260 307 379
#     4  10  22  37  59  92 129 155 199 262 328 379
#
# _framework density 20.021604
#
# number of rings (size 3 to 8) (size 9 to 14) (size 15 to 20)
#    0.000    1.429    2.857    3.000    4.000    1.143 
#    0.000    2.143    0.000    0.000    0.000    0.000 
#    0.000    0.000    0.000    0.000    0.000    0.000 
#
# Total GULP energy -156354.222657 kJ/mol
# GULP energy per Si atom -5584.079381 kJ/mol
# Density = 1.997603 g / cm^3
# Si number density = 20.021604 Si / 1000 Ang^3
#
#
#
# Elastic Constant Matrix: (Units=GPa)
#
#
# Indices 1 2 3 4 5 6 
#
# 1 58.2634 13.6517 21.7884 0.0000 9.3106 0.0000
# 2 13.6517 24.1198 27.5609 0.0000 11.4763 0.0000
# 3 21.7884 27.5609 74.2991 0.0000 2.5026 0.0000
# 4 0.0000 0.0000 0.0000 7.9081 0.0000 3.9233
# 5 9.3106 11.4763 2.5026 0.0000 18.5542 0.0000
# 6 0.0000 0.0000 0.0000 3.9233 0.0000 20.7622
#
#
#
# Elastic Compliance Matrix: (Units=1/GPa)
#
#
# Indices 1 2 3 4 5 6 
#
# 1 0.020906 -0.001783 -0.005177 0.000000 -0.008690 0.000000
# 2 -0.001783 0.127177 -0.044235 0.000000 -0.071802 0.000000
# 3 -0.005177 -0.044235 0.030515 0.000000 0.025842 0.000000
# 4 0.000000 0.000000 0.000000 0.139533 0.000000 -0.026367
# 5 -0.008690 -0.071802 0.025842 0.000000 0.099182 0.000000
# 6 0.000000 0.000000 0.000000 -0.026367 0.000000 0.053147
#
#
# Mechanical properties :
#
#
# Convention : Reuss Voigt Hill
#
# Bulk Modulus (GPa) = 13.12156 31.40937 22.26547
# Shear Modulus (GPa) = 8.35769 15.69035 12.02402
#
# Velocity S-wave (km/s) = 2.04534 2.80245 2.45328
# Velocity P-wave (km/s) = 3.48508 5.11795 4.37831
#
# Compressibility (1/GPa) = 0.07621042
#
# Stress axis : x y z
#
# Youngs Moduli (GPa) = 47.83397 7.86304 32.77033
#
# Poissons Ratio (x) = 0.01402 0.16964
# Poissons Ratio (y) = 0.08527 1.44958
# Poissons Ratio (z) = 0.24762 0.34782
#
# Static dielectric constant tensor:
#      x y z
#    x 1.702110 0.000000 0.030190 
#    y 0.000000 1.664140 0.000000 
#    z 0.030190 0.000000 1.821300 
# 
# From -- ./inp_files/156237.got.cif
#   From: 2010.05.17/outbox.cif.g08.bks.cpg/sg15_79_cif.got.tgz:156237.got - 2010.06.03 18:47:42.
