data_PCOD9283322
_publ_section_title
;
Structure prediction by ZEFSAII (Michael W. Deem and Ramdas Pophale) SiO2 
 PCOD9283322
Probable space group: C 2/C
;
_chemical_formula_sum "Si O2"
_cell_formula_units_Z 64
_cell_length_a 14.564697
_cell_length_b 12.557724
_cell_length_c 27.561323
_cell_angle_alpha 90.000000
_cell_angle_beta 39.525651
_cell_angle_gamma 90.000000
_cell_volume 3208.180024
_symmetry_space_group_name_H-M "C 2/C"
_symmetry_group_IT_number 15
_symmetry_cell_setting 'monoclinic'
loop_
_space_group_symop_operation_xyz
x,y,z
-x,y,1/2-z
-x,-y,-z
x,-y,1/2+z
1/2+x,1/2+y,z
1/2-x,1/2+y,1/2-z
1/2-x,1/2-y,-z
1/2+x,1/2-y,1/2+z
loop_
_atom_site_type_symbol
_atom_site_label
_atom_site_fract_x
_atom_site_fract_y
_atom_site_fract_z
Si Si1 0.098038 0.856491 0.336496
Si Si2 0.301258 0.950428 0.372765
Si Si3 0.580688 0.504380 0.665707
Si Si4 0.627168 0.966288 0.266809
Si Si5 0.138884 0.875766 0.998615
Si Si6 0.884181 0.627877 0.144705
Si Si7 0.674992 0.131582 0.977446
Si Si8 0.652345 0.716348 0.163993
O O1 0.057252 0.732723 0.350655
O O2 0.024979 0.933314 0.327491
O O3 0.026042 0.890354 0.416972
O O4 0.269880 0.865928 0.264645
O O5 0.271604 0.823624 0.385193
O O6 0.456049 0.955944 0.336837
O O7 0.329160 0.991496 0.306462
O O8 0.192553 0.029421 0.443338
O O9 0.500000 0.508087 0.750000
O O10 0.733233 0.566020 0.599176
O O11 0.612954 0.379326 0.643222
O O12 0.664357 0.048414 0.293945
O O13 0.159862 0.756275 0.969646
O O14 0.232026 0.876776 0.010616
O O15 0.754575 0.662872 0.162681
O O16 0.016528 0.590429 0.056833
O O17 0.500000 0.751635 0.250000
#
# Coordination Sequence:
#
# PCOD9283322 Si02
#       8
#     8   8   8   8   8   8   8   8
#     4  10  21  40  59  88 118 160 200 236 309 360
#     4  11  21  37  61  89 121 152 206 246 297 347
#     4  10  22  37  63  86 120 158 197 247 296 357
#     4  11  21  35  61  93 112 154 203 251 282 356
#     4   9  19  37  61  83 124 156 192 252 305 348
#     4  11  21  39  66  84 121 160 197 244 303 353
#     4   9  19  38  58  89 117 158 197 243 309 350
#     4  11  21  40  58  86 123 164 190 240 304 363
#
# _framework density 19.949006000000001
#
# number of rings (size 3 to 8) (size 9 to 14) (size 15 to 20)
#    0.000    1.750    3.750    2.250    0.000    2.000 
#    0.000    2.500    2.750    0.000    0.000    0.000 
#    0.000    0.000    0.000    0.000    0.000    0.000 
#
# Total GULP energy -178379.589899 kJ/mol
# GULP energy per Si atom -5574.362184 kJ/mol
# Density = 1.990360 g / cm^3
# Si number density = 19.949006 Si / 1000 Ang^3
#
#
#
# Elastic Constant Matrix: (Units=GPa)
#
#
# Indices 1 2 3 4 5 6 
#
# 1 41.5195 -1.9179 2.2291 0.0000 -9.9682 0.0000
# 2 -1.9179 80.9685 48.8647 0.0000 12.1054 0.0000
# 3 2.2291 48.8647 94.1273 0.0000 -6.2241 0.0000
# 4 0.0000 0.0000 0.0000 14.3515 0.0000 -8.7180
# 5 -9.9682 12.1054 -6.2241 0.0000 23.5362 0.0000
# 6 0.0000 0.0000 0.0000 -8.7180 0.0000 27.3745
#
#
#
# Elastic Compliance Matrix: (Units=1/GPa)
#
#
# Indices 1 2 3 4 5 6 
#
# 1 0.027001 -0.002043 0.001269 0.000000 0.012822 0.000000
# 2 -0.002043 0.022167 -0.012489 0.000000 -0.015569 0.000000
# 3 0.001269 -0.012489 0.017850 0.000000 0.011681 0.000000
# 4 0.000000 0.000000 0.000000 0.086392 0.000000 0.027513
# 5 0.012822 -0.015569 0.011681 0.000000 0.059015 0.000000
# 6 0.000000 0.000000 0.000000 0.027513 0.000000 0.045293
#
#
# Mechanical properties :
#
#
# Convention : Reuss Voigt Hill
#
# Bulk Modulus (GPa) = 24.69647 34.99634 29.84641
# Shear Modulus (GPa) = 16.79320 24.21507 20.50413
#
# Velocity S-wave (km/s) = 2.90454 3.48781 3.20945
# Velocity P-wave (km/s) = 4.86365 5.81384 5.35985
#
# Compressibility (1/GPa) = 0.04049161
#
# Stress axis : x y z
#
# Youngs Moduli (GPa) = 37.03570 45.11277 56.02397
#
# Poissons Ratio (x) = 0.09219 -0.07111
# Poissons Ratio (y) = 0.07568 0.69966
# Poissons Ratio (z) = -0.04701 0.56339
#
# Static dielectric constant tensor:
#      x y z
#    x 1.768530 0.000000 -0.032420 
#    y 0.000000 1.720150 0.000000 
#    z -0.032420 0.000000 1.706360 
# 
# From -- ./inp_files/296128.got.cif
#   From: 2010.05.17/outbox.cif.g08.bks.cpg/sg15_149_cif.got.tgz:296128.got - 2010.06.03 18:47:42.
