data_PCOD9283360
_publ_section_title
;
Structure prediction by ZEFSAII (Michael W. Deem and Ramdas Pophale) SiO2 
 PCOD9283360
Probable space group: C 2/C
;
_chemical_formula_sum "Si O2"
_cell_formula_units_Z 56
_cell_length_a 23.503471
_cell_length_b 11.008703
_cell_length_c 14.361348
_cell_angle_alpha 90.000000
_cell_angle_beta 43.811113
_cell_angle_gamma 90.000000
_cell_volume 2572.451098
_symmetry_space_group_name_H-M "C 2/C"
_symmetry_group_IT_number 15
_symmetry_cell_setting 'monoclinic'
loop_
_space_group_symop_operation_xyz
x,y,z
-x,y,1/2-z
-x,-y,-z
x,-y,1/2+z
1/2+x,1/2+y,z
1/2-x,1/2+y,1/2-z
1/2-x,1/2-y,-z
1/2+x,1/2-y,1/2+z
loop_
_atom_site_type_symbol
_atom_site_label
_atom_site_fract_x
_atom_site_fract_y
_atom_site_fract_z
Si Si1 0.497715 0.444741 0.899249
Si Si2 0.900862 0.277189 0.868392
Si Si3 0.751663 0.519529 0.809283
Si Si4 0.682127 0.740825 0.335410
Si Si5 0.517828 0.194181 0.929382
Si Si6 0.871271 0.982463 0.392888
Si Si7 0.420167 0.952106 0.692222
O O1 0.470172 0.305419 0.940276
O O2 0.584122 0.447878 0.742527
O O3 0.435596 0.515877 0.904684
O O4 0.500000 0.500000 0.000000
O O5 0.864074 0.155406 0.866411
O O6 0.884062 0.395217 0.827625
O O7 0.000000 0.266112 0.750000
O O8 0.859472 0.277596 0.017521
O O9 0.713240 0.398821 0.806025
O O10 0.750701 0.653558 0.764789
O O11 0.847036 0.487643 0.709689
O O12 0.710199 0.528134 0.960670
O O13 0.607623 0.753876 0.350147
O O14 0.527830 0.074289 0.855330
O O15 0.474677 0.147406 0.074434
#
# Coordination Sequence:
#
# PCOD9283360 Si02
#       7
#     8   8   8   8   8   8   8
#     4  11  20  38  65  91 119 166 205 255 318 359
#     4  11  18  39  63  86 114 160 211 258 297 355
#     4  10  23  43  58  93 129 162 202 261 316 374
#     4  10  22  41  64  87 127 163 207 254 312 377
#     4  10  21  40  60  90 123 162 207 251 304 373
#     4  10  23  39  60  95 127 149 211 266 297 376
#     4  10  22  39  61  88 124 161 208 253 304 379
#
# _framework density 21.769121999999999
#
# number of rings (size 3 to 8) (size 9 to 14) (size 15 to 20)
#    0.000    1.714    2.857    2.571    2.000    2.286 
#   12.857    1.429    0.000    0.000    0.000    0.000 
#    0.000    0.000    0.000    0.000    0.000    0.000 
#
# Total GULP energy -156211.179935 kJ/mol
# GULP energy per Si atom -5578.970712 kJ/mol
# Density = 2.171957 g / cm^3
# Si number density = 21.769122 Si / 1000 Ang^3
#
#
#
# Elastic Constant Matrix: (Units=GPa)
#
#
# Indices 1 2 3 4 5 6 
#
# 1 23.5860 7.1006 9.7872 0.0000 1.7653 0.0000
# 2 7.1006 97.3045 55.4933 0.0000 10.3731 0.0000
# 3 9.7872 55.4933 101.6542 0.0000 1.6782 0.0000
# 4 0.0000 0.0000 0.0000 37.3485 0.0000 -1.8671
# 5 1.7653 10.3731 1.6782 0.0000 29.3583 0.0000
# 6 0.0000 0.0000 0.0000 -1.8671 0.0000 18.9374
#
#
#
# Elastic Compliance Matrix: (Units=1/GPa)
#
#
# Indices 1 2 3 4 5 6 
#
# 1 0.044382 -0.000861 -0.003768 0.000000 -0.002149 0.000000
# 2 -0.000861 0.015651 -0.008379 0.000000 -0.004999 0.000000
# 3 -0.003768 -0.008379 0.014735 0.000000 0.002345 0.000000
# 4 0.000000 0.000000 0.000000 0.026907 0.000000 0.002653
# 5 -0.002149 -0.004999 0.002345 0.000000 0.035824 0.000000
# 6 0.000000 0.000000 0.000000 0.002653 0.000000 0.053067
#
#
# Mechanical properties :
#
#
# Convention : Reuss Voigt Hill
#
# Bulk Modulus (GPa) = 20.51122 40.81186 30.66154
# Shear Modulus (GPa) = 21.47479 27.13975 24.30727
#
# Velocity S-wave (km/s) = 3.14423 3.53471 3.34517
# Velocity P-wave (km/s) = 4.75649 5.95375 5.38848
#
# Compressibility (1/GPa) = 0.04875381
#
# Stress axis : x y z
#
# Youngs Moduli (GPa) = 22.53190 63.89323 67.86483
#
# Poissons Ratio (x) = 0.05500 0.25569
# Poissons Ratio (y) = 0.01940 0.56861
# Poissons Ratio (z) = 0.08489 0.53533
#
# Static dielectric constant tensor:
#      x y z
#    x 1.841510 0.000000 -0.015940 
#    y 0.000000 1.823500 0.000000 
#    z -0.015940 0.000000 1.806460 
# 
# From -- ./inp_files/181556.got.cif
#   From: 2010.05.17/outbox.cif.g08.bks.cpg/sg15_91_cif.got.tgz:181556.got - 2010.06.03 18:47:42.
