data_PCOD9283257
_publ_section_title
;
Structure prediction by ZEFSAII (Michael W. Deem and Ramdas Pophale) SiO2 
 PCOD9283257
Probable space group: C 2/C
;
_chemical_formula_sum "Si O2"
_cell_formula_units_Z 56
_cell_length_a 17.316812
_cell_length_b 26.524681
_cell_length_c 8.673678
_cell_angle_alpha 90.000000
_cell_angle_beta 142.021102
_cell_angle_gamma 90.000000
_cell_volume 2451.650626
_symmetry_space_group_name_H-M "C 2/C"
_symmetry_group_IT_number 15
_symmetry_cell_setting 'monoclinic'
loop_
_space_group_symop_operation_xyz
x,y,z
-x,y,1/2-z
-x,-y,-z
x,-y,1/2+z
1/2+x,1/2+y,z
1/2-x,1/2+y,1/2-z
1/2-x,1/2-y,-z
1/2+x,1/2-y,1/2+z
loop_
_atom_site_type_symbol
_atom_site_label
_atom_site_fract_x
_atom_site_fract_y
_atom_site_fract_z
Si Si1 0.283464 0.406634 0.132453
Si Si2 0.000000 0.195472 0.250000
Si Si3 0.500000 0.864613 0.250000
Si Si4 0.899449 0.999082 0.208133
Si Si5 0.409198 0.869066 0.455321
Si Si6 0.243300 0.839426 0.694972
Si Si7 0.743214 0.764827 0.308813
Si Si8 0.576526 0.607280 0.167922
O O1 0.284744 0.461967 0.055591
O O2 0.199262 0.405460 0.150719
O O3 0.429167 0.397911 0.400721
O O4 0.241982 0.362026 0.951921
O O5 0.110935 0.224923 0.511093
O O6 0.081821 0.158264 0.273694
O O7 0.458720 0.885187 0.360648
O O8 0.626995 0.838032 0.505435
O O9 0.873938 0.058695 0.160683
O O10 0.000000 0.976446 0.250000
O O11 0.000000 0.000000 0.500000
O O12 0.345691 0.813596 0.342967
O O13 0.500000 0.868573 0.750000
O O14 0.192677 0.782748 0.631106
O O15 0.155896 0.880496 0.642052
O O16 0.750000 0.750000 0.500000
#
# Coordination Sequence:
#
# PCOD9283257 Si02
#       8
#     8   4   4   8   8   8   8   8
#     4  11  24  45  69 104 142 184 241 308 370 439
#     4  12  21  40  66 104 138 182 250 296 359 432
#     4  12  25  46  70  96 136 202 246 284 357 436
#     4  10  21  39  71 108 142 176 226 297 375 434
#     4  12  26  47  70 101 143 199 246 298 363 437
#     4  12  25  43  68 100 148 191 244 302 362 436
#     4  12  25  41  67 101 139 197 245 303 361 435
#     4  11  22  41  72 108 140 180 237 306 371 430
#
# _framework density 22.841754000000002
#
# number of rings (size 3 to 8) (size 9 to 14) (size 15 to 20)
#    0.000    0.571    6.429    2.571    0.000    1.714 
#    0.000    0.000    1.571    1.714    0.000    0.000 
#    0.000    0.000    0.000    0.000    0.000    0.000 
#
# Total GULP energy -155903.862293 kJ/mol
# GULP energy per Si atom -5567.995082 kJ/mol
# Density = 2.278977 g / cm^3
# Si number density = 22.841754 Si / 1000 Ang^3
#
#
#
# Elastic Constant Matrix: (Units=GPa)
#
#
# Indices 1 2 3 4 5 6 
#
# 1 156.1571 38.8231 11.2541 0.0000 -9.6860 0.0000
# 2 38.8231 108.9293 22.2924 0.0000 1.4129 0.0000
# 3 11.2541 22.2924 105.3391 0.0000 -6.3365 0.0000
# 4 0.0000 0.0000 0.0000 26.4808 0.0000 -2.4941
# 5 -9.6860 1.4129 -6.3365 0.0000 37.5401 0.0000
# 6 0.0000 0.0000 0.0000 -2.4941 0.0000 26.7440
#
#
#
# Elastic Compliance Matrix: (Units=1/GPa)
#
#
# Indices 1 2 3 4 5 6 
#
# 1 0.007167 -0.002557 -0.000109 0.000000 0.001927 0.000000
# 2 -0.002557 0.010527 -0.002039 0.000000 -0.001400 0.000000
# 3 -0.000109 -0.002039 0.010041 0.000000 0.001744 0.000000
# 4 0.000000 0.000000 0.000000 0.038098 0.000000 0.003553
# 5 0.001927 -0.001400 0.001744 0.000000 0.027482 0.000000
# 6 0.000000 0.000000 0.000000 0.003553 0.000000 0.037723
#
#
# Mechanical properties :
#
#
# Convention : Reuss Voigt Hill
#
# Bulk Modulus (GPa) = 54.56738 57.24054 55.90396
# Shear Modulus (GPa) = 34.11665 38.02336 36.07000
#
# Velocity S-wave (km/s) = 3.86892 4.08443 3.97813
# Velocity P-wave (km/s) = 6.62565 6.88167 6.75487
#
# Compressibility (1/GPa) = 0.01832597
#
# Stress axis : x y z
#
# Youngs Moduli (GPa) = 139.53032 94.99346 99.59066
#
# Poissons Ratio (x) = 0.24291 0.01082
# Poissons Ratio (y) = 0.35679 0.20305
# Poissons Ratio (z) = 0.01516 0.19367
#
# Static dielectric constant tensor:
#      x y z
#    x 1.959330 0.000000 -0.005880 
#    y 0.000000 1.916520 0.000000 
#    z -0.005880 0.000000 1.956820 
# 
# From -- ./inp_files/52392.got.cif
#   From: 2010.05.17/outbox.cif.g08.bks.cpg/sg15_27_cif.got.tgz:52392.got - 2010.06.03 18:47:42.
