data_PCOD9283528
_publ_section_title
;
Structure prediction by ZEFSAII (Michael W. Deem and Ramdas Pophale) SiO2 
 PCOD9283528
Probable space group: C 2/C
;
_chemical_formula_sum "Si O2"
_cell_formula_units_Z 60
_cell_length_a 12.165432
_cell_length_b 27.810262
_cell_length_c 8.064808
_cell_angle_alpha 90.000000
_cell_angle_beta 92.485424
_cell_angle_gamma 90.000000
_cell_volume 2725.950148
_symmetry_space_group_name_H-M "C 2/C"
_symmetry_group_IT_number 15
_symmetry_cell_setting 'monoclinic'
loop_
_space_group_symop_operation_xyz
x,y,z
-x,y,1/2-z
-x,-y,-z
x,-y,1/2+z
1/2+x,1/2+y,z
1/2-x,1/2+y,1/2-z
1/2-x,1/2-y,-z
1/2+x,1/2-y,1/2+z
loop_
_atom_site_type_symbol
_atom_site_label
_atom_site_fract_x
_atom_site_fract_y
_atom_site_fract_z
Si Si1 0.500000 0.346613 0.750000
Si Si2 0.575138 0.395531 0.091308
Si Si3 0.109867 0.653125 0.346212
Si Si4 0.606859 0.899374 0.191201
Si Si5 0.273184 0.820223 0.120310
Si Si6 0.759571 0.469236 0.125195
Si Si7 0.370705 0.945363 0.793904
Si Si8 0.720428 0.283874 0.754914
O O1 0.483985 0.378910 0.583217
O O2 0.604873 0.311337 0.735609
O O3 0.500000 0.399671 0.250000
O O4 0.663217 0.352380 0.131231
O O5 0.642839 0.445569 0.070212
O O6 0.090191 0.624315 0.513599
O O7 0.155735 0.610630 0.232254
O O8 0.197059 0.694958 0.375097
O O9 0.000000 0.671229 0.250000
O O10 0.500000 0.926041 0.250000
O O11 0.631416 0.856531 0.321252
O O12 0.704486 0.937261 0.212871
O O13 0.282388 0.773253 0.235079
O O14 0.274506 0.800742 0.933679
O O15 0.785728 0.523242 0.179810
O O16 0.842891 0.458283 0.980180
O O17 0.500000 0.952280 0.750000
#
# Coordination Sequence:
#
# PCOD9283528 Si02
#       8
#     4   8   8   8   8   8   8   8
#     4  10  22  40  68  92 128 184 218 270 330 386
#     4  10  23  45  67  92 132 178 225 270 324 386
#     4  11  23  38  61  91 124 167 204 262 321 391
#     4  11  21  36  59  88 127 159 204 255 320 379
#     4   9  21  39  60  91 123 165 209 273 312 378
#     4  11  23  41  64  97 125 166 209 267 324 393
#     4  11  21  39  66  95 129 159 206 262 337 394
#     4  10  21  40  62  91 128 166 219 262 326 384
#
# _framework density 22.010674000000002
#
# number of rings (size 3 to 8) (size 9 to 14) (size 15 to 20)
#    0.000    1.600    0.000    6.400    4.667    1.067 
#    4.800    0.667    1.467    0.000    0.000    0.000 
#    0.000    0.000    0.000    0.000    0.000    0.000 
#
# Total GULP energy -167495.217704 kJ/mol
# GULP energy per Si atom -5583.173923 kJ/mol
# Density = 2.196058 g / cm^3
# Si number density = 22.010674 Si / 1000 Ang^3
#
#
#
# Elastic Constant Matrix: (Units=GPa)
#
#
# Indices 1 2 3 4 5 6 
#
# 1 57.6692 26.3315 35.6663 0.0000 10.2285 0.0000
# 2 26.3315 102.6245 7.5768 0.0000 2.9363 0.0000
# 3 35.6663 7.5768 102.3913 0.0000 3.9153 0.0000
# 4 0.0000 0.0000 0.0000 26.9386 0.0000 4.0335
# 5 10.2285 2.9363 3.9153 0.0000 33.7797 0.0000
# 6 0.0000 0.0000 0.0000 4.0335 0.0000 2.9800
#
#
#
# Elastic Compliance Matrix: (Units=1/GPa)
#
#
# Indices 1 2 3 4 5 6 
#
# 1 0.026513 -0.005985 -0.008543 0.000000 -0.006518 0.000000
# 2 -0.005985 0.011169 0.001232 0.000000 0.000699 0.000000
# 3 -0.008543 0.001232 0.012612 0.000000 0.001018 0.000000
# 4 0.000000 0.000000 0.000000 0.046557 0.000000 -0.063017
# 5 -0.006518 0.000699 0.001018 0.000000 0.031398 0.000000
# 6 0.000000 0.000000 0.000000 -0.063017 0.000000 0.420869
#
#
# Mechanical properties :
#
#
# Convention : Reuss Voigt Hill
#
# Bulk Modulus (GPa) = 42.19346 44.64826 43.42086
# Shear Modulus (GPa) = 8.56733 25.61368 17.09050
#
# Velocity S-wave (km/s) = 1.97505 3.41500 2.78953
# Velocity P-wave (km/s) = 4.94087 5.98986 5.49048
#
# Compressibility (1/GPa) = 0.02370035
#
# Stress axis : x y z
#
# Youngs Moduli (GPa) = 37.71757 89.53283 79.28798
#
# Poissons Ratio (x) = 0.53590 0.67737
# Poissons Ratio (y) = 0.22576 -0.09766
# Poissons Ratio (z) = 0.32223 -0.11028
#
# Static dielectric constant tensor:
#      x y z
#    x 1.826750 0.000000 0.015260 
#    y 0.000000 1.789130 0.000000 
#    z 0.015260 0.000000 1.859710 
# 
# From -- ./inp_files/35219.got.cif
#   From: 2010.05.17/outbox.cif.g08.bks.cpg/sg15_18_cif.got.tgz:35219.got - 2010.06.03 18:47:42.
