data_PCOD9283404
_publ_section_title
;
Structure prediction by ZEFSAII (Michael W. Deem and Ramdas Pophale) SiO2 
 PCOD9283404
Probable space group: C 2/C
;
_chemical_formula_sum "Si O2"
_cell_formula_units_Z 60
_cell_length_a 22.923815
_cell_length_b 11.728274
_cell_length_c 17.708012
_cell_angle_alpha 90.000000
_cell_angle_beta 38.156846
_cell_angle_gamma 90.000000
_cell_volume 2941.373589
_symmetry_space_group_name_H-M "C 2/C"
_symmetry_group_IT_number 15
_symmetry_cell_setting 'monoclinic'
loop_
_space_group_symop_operation_xyz
x,y,z
-x,y,1/2-z
-x,-y,-z
x,-y,1/2+z
1/2+x,1/2+y,z
1/2-x,1/2+y,1/2-z
1/2-x,1/2-y,-z
1/2+x,1/2-y,1/2+z
loop_
_atom_site_type_symbol
_atom_site_label
_atom_site_fract_x
_atom_site_fract_y
_atom_site_fract_z
Si Si1 0.139677 0.055016 0.982602
Si Si2 0.611749 0.001010 0.885188
Si Si3 0.815211 0.297894 0.291913
Si Si4 0.223799 0.147489 0.311486
Si Si5 0.000000 0.732586 0.250000
Si Si6 0.840455 0.356632 0.017756
Si Si7 0.152777 0.080927 0.626367
Si Si8 0.449789 0.630917 0.219985
O O1 0.214476 0.155821 0.921373
O O2 0.171943 0.972008 0.882303
O O3 0.037341 0.110341 0.074909
O O4 0.143776 0.971915 0.051487
O O5 0.639408 0.093846 0.794658
O O6 0.665704 0.885716 0.806375
O O7 0.648732 0.047473 0.928522
O O8 0.500000 0.000000 0.000000
O O9 0.803260 0.201886 0.240366
O O10 0.887162 0.242789 0.276777
O O11 0.193941 0.241500 0.404009
O O12 0.939352 0.663365 0.373567
O O13 0.920721 0.814976 0.293663
O O14 0.758327 0.386115 0.041684
O O15 0.116719 0.979336 0.716200
O O16 0.500000 0.630986 0.250000
#
# Coordination Sequence:
#
# PCOD9283404 Si02
#       8
#     8   8   8   8   4   8   8   8
#     4  10  21  40  61  88 125 157 205 264 303 365
#     4  10  24  42  58  92 130 162 206 266 307 377
#     4  10  23  39  62  87 119 166 204 252 316 366
#     4  10  21  42  62  89 126 161 208 257 314 380
#     4  12  22  38  64  98 124 164 210 266 316 384
#     4  11  24  39  68  95 122 175 209 253 335 372
#     4  11  21  40  62  93 126 158 208 265 303 376
#     4  10  21  40  62  90 120 162 208 252 309 375
#
# _framework density 20.398634000000001
#
# number of rings (size 3 to 8) (size 9 to 14) (size 15 to 20)
#    0.000    1.600    3.333    1.200    3.733    3.733 
#    2.400    0.000    0.000    0.000    0.000    0.000 
#    0.000    0.000    0.000    0.000    0.000    0.000 
#
# Total GULP energy -167426.719135 kJ/mol
# GULP energy per Si atom -5580.890638 kJ/mol
# Density = 2.035221 g / cm^3
# Si number density = 20.398634 Si / 1000 Ang^3
#
#
#
# Elastic Constant Matrix: (Units=GPa)
#
#
# Indices 1 2 3 4 5 6 
#
# 1 31.2477 17.4267 9.9447 0.0000 -5.7335 0.0000
# 2 17.4267 48.2473 28.0363 0.0000 -4.8365 0.0000
# 3 9.9447 28.0363 123.9002 0.0000 -7.1849 0.0000
# 4 0.0000 0.0000 0.0000 20.5112 0.0000 -17.7599
# 5 -5.7335 -4.8365 -7.1849 0.0000 20.0477 0.0000
# 6 0.0000 0.0000 0.0000 -17.7599 0.0000 9.8484
#
#
#
# Elastic Compliance Matrix: (Units=1/GPa)
#
#
# Indices 1 2 3 4 5 6 
#
# 1 0.041442 -0.014355 0.000417 0.000000 0.008539 0.000000
# 2 -0.014355 0.029140 -0.005384 0.000000 0.000995 0.000000
# 3 0.000417 -0.005384 0.009382 0.000000 0.002183 0.000000
# 4 0.000000 0.000000 0.000000 -0.086837 0.000000 -0.156597
# 5 0.008539 0.000995 0.002183 0.000000 0.053345 0.000000
# 6 0.000000 0.000000 0.000000 -0.156597 0.000000 -0.180856
#
#
# Mechanical properties :
#
#
# Convention : Reuss Voigt Hill
#
# Bulk Modulus (GPa) = 24.20104 34.91230 29.55667
# Shear Modulus (GPa) = -61.00047 19.94729 -20.52659
#
# Velocity S-wave (km/s) = -5.47441 3.13049 -3.17562
# Velocity P-wave (km/s) = 5.29802 5.49716 1.03677
#
# Compressibility (1/GPa) = 0.04132054
#
# Stress axis : x y z
#
# Youngs Moduli (GPa) = 24.13004 34.31724 106.58259
#
# Poissons Ratio (x) = 0.49263 -0.04446
# Poissons Ratio (y) = 0.34639 0.57383
# Poissons Ratio (z) = -0.01007 0.18476
#
# Static dielectric constant tensor:
#      x y z
#    x 1.727600 0.000000 0.016690 
#    y 0.000000 1.719180 0.000000 
#    z 0.016690 0.000000 1.796160 
# 
# From -- ./inp_files/255552.got.cif
#   From: 2010.05.17/outbox.cif.g08.bks.cpg/sg15_128_cif.got.tgz:255552.got - 2010.06.03 18:47:42.
