data_PCOD9283097
_publ_section_title
;
Structure prediction by ZEFSAII (Michael W. Deem and Ramdas Pophale) SiO2 
 PCOD9283097
Probable space group: C 2/C
;
_chemical_formula_sum "Si O2"
_cell_formula_units_Z 40
_cell_length_a 11.214462
_cell_length_b 16.763411
_cell_length_c 13.298871
_cell_angle_alpha 90.000000
_cell_angle_beta 46.913252
_cell_angle_gamma 90.000000
_cell_volume 1825.866321
_symmetry_space_group_name_H-M "C 2/C"
_symmetry_group_IT_number 15
_symmetry_cell_setting 'monoclinic'
loop_
_space_group_symop_operation_xyz
x,y,z
-x,y,1/2-z
-x,-y,-z
x,-y,1/2+z
1/2+x,1/2+y,z
1/2-x,1/2+y,1/2-z
1/2-x,1/2-y,-z
1/2+x,1/2-y,1/2+z
loop_
_atom_site_type_symbol
_atom_site_label
_atom_site_fract_x
_atom_site_fract_y
_atom_site_fract_z
Si Si1 0.985432 0.669444 0.020599
Si Si2 0.152242 0.435098 0.593009
Si Si3 0.817117 0.823363 0.666756
Si Si4 0.346168 0.175532 0.900318
Si Si5 0.588190 0.557209 0.028034
O O1 0.828468 0.697662 0.174476
O O2 0.080441 0.608825 0.037500
O O3 0.919363 0.631022 0.955881
O O4 0.092483 0.745398 0.926412
O O5 0.237571 0.370761 0.618568
O O6 0.295103 0.496538 0.479269
O O7 0.000000 0.467906 0.750000
O O8 0.944917 0.883955 0.647731
O O9 0.500000 0.203849 0.750000
O O10 0.223924 0.119448 0.909283
O O11 0.250000 0.250000 0.000000
O O12 0.500000 0.500000 0.000000
#
# Coordination Sequence:
#
# PCOD9283097 Si02
#       5
#     8   8   8   8   8
#     4  11  22  39  66  95 122 162 211 256 303 367
#     4   9  20  40  63  94 128 163 201 256 312 367
#     4  10  21  39  67  92 128 161 204 254 312 365
#     4  12  25  41  67  92 124 164 212 257 306 364
#     4  10  22  41  64  90 129 166 200 251 318 363
#
# _framework density 21.907409999999999
#
# number of rings (size 3 to 8) (size 9 to 14) (size 15 to 20)
#    0.000    1.600    2.000    2.400    0.000    0.800 
#    0.000    2.000    0.000    0.000    0.000    0.000 
#    0.000    0.000    0.000    0.000    0.000    0.000 
#
# Total GULP energy -111602.873603 kJ/mol
# GULP energy per Si atom -5580.143680 kJ/mol
# Density = 2.185755 g / cm^3
# Si number density = 21.907410 Si / 1000 Ang^3
#
#
#
# Elastic Constant Matrix: (Units=GPa)
#
#
# Indices 1 2 3 4 5 6 
#
# 1 128.1505 50.5481 51.2684 0.0001 -15.1614 -0.0001
# 2 50.5481 88.5333 46.9486 0.0000 -18.1626 0.0000
# 3 51.2684 46.9486 123.9753 0.0001 -23.1769 0.0000
# 4 0.0001 0.0000 0.0001 12.2820 -0.0001 -13.4472
# 5 -15.1614 -18.1626 -23.1769 -0.0001 36.2959 0.0000
# 6 -0.0001 0.0000 0.0000 -13.4472 0.0000 44.9658
#
#
#
# Elastic Compliance Matrix: (Units=1/GPa)
#
#
# Indices 1 2 3 4 5 6 
#
# 1 0.010732 -0.004655 -0.002581 0.000000 0.000506 0.000000
# 2 -0.004655 0.016726 -0.003642 0.000000 0.004099 0.000000
# 3 -0.002581 -0.003642 0.011322 0.000000 0.004329 0.000000
# 4 0.000000 0.000000 0.000000 0.121057 0.000000 0.036203
# 5 0.000506 0.004099 0.004329 0.000000 0.032578 0.000000
# 6 0.000000 0.000000 0.000000 0.036203 0.000000 0.033066
#
#
# Mechanical properties :
#
#
# Convention : Reuss Voigt Hill
#
# Bulk Modulus (GPa) = 58.74443 70.90991 64.82717
# Shear Modulus (GPa) = 19.76983 31.50168 25.63575
#
# Velocity S-wave (km/s) = 3.00730 3.79614 3.42451
# Velocity P-wave (km/s) = 6.23952 7.18697 6.72994
#
# Compressibility (1/GPa) = 0.01702289
#
# Stress axis : x y z
#
# Youngs Moduli (GPa) = 93.18184 59.78893 88.32370
#
# Poissons Ratio (x) = 0.27832 0.22793
# Poissons Ratio (y) = 0.43377 0.32172
# Poissons Ratio (z) = 0.24047 0.21778
#
# Static dielectric constant tensor:
#      x y z
#    x 1.840470 0.000000 -0.023010 
#    y 0.000000 1.818320 0.000000 
#    z -0.023010 0.000000 1.782390 
# 
# From -- ./inp_files/29225.got.cif
#   From: 2010.05.17/outbox.cif.g08.bks.cpg/sg15_15_cif.got.tgz:29225.got - 2010.06.03 18:47:42.
