data_PCOD9283987
_publ_section_title
;
Structure prediction by ZEFSAII (Michael W. Deem and Ramdas Pophale) SiO2 
 PCOD9283987
Probable space group: C 2/C
;
_chemical_formula_sum "Si O2"
_cell_formula_units_Z 48
_cell_length_a 14.830577
_cell_length_b 13.249354
_cell_length_c 13.735924
_cell_angle_alpha 90.000000
_cell_angle_beta 134.847657
_cell_angle_gamma 90.000000
_cell_volume 1913.583019
_symmetry_space_group_name_H-M "C 2/C"
_symmetry_group_IT_number 15
_symmetry_cell_setting 'monoclinic'
loop_
_space_group_symop_operation_xyz
x,y,z
-x,y,1/2-z
-x,-y,-z
x,-y,1/2+z
1/2+x,1/2+y,z
1/2-x,1/2+y,1/2-z
1/2-x,1/2-y,-z
1/2+x,1/2-y,1/2+z
loop_
_atom_site_type_symbol
_atom_site_label
_atom_site_fract_x
_atom_site_fract_y
_atom_site_fract_z
Si Si1 0.000000 0.988288 0.750000
Si Si2 0.500000 0.138515 0.750000
Si Si3 0.321792 0.349418 0.171357
Si Si4 0.091797 0.648892 0.615858
Si Si5 0.643691 0.871016 0.865202
Si Si6 0.648354 0.089563 0.162675
Si Si7 0.243743 0.867916 0.965078
O O1 0.892048 0.918952 0.619029
O O2 0.929054 0.067023 0.768916
O O3 0.541668 0.191292 0.680264
O O4 0.366556 0.088157 0.616006
O O5 0.232356 0.317684 0.192864
O O6 0.366329 0.250807 0.148521
O O7 0.221512 0.398807 0.019409
O O8 0.106869 0.527576 0.635635
O O9 0.979432 0.658463 0.450053
O O10 0.500000 0.909561 0.750000
O O11 0.711549 0.895498 0.815114
O O12 0.729358 0.113931 0.128953
O O13 0.250000 0.750000 0.000000
#
# Coordination Sequence:
#
# PCOD9283987 Si02
#       7
#     4   4   8   8   8   8   8
#     4  12  25  48  71 106 146 178 242 299 356 423
#     4  10  25  42  71  98 128 192 238 281 348 433
#     4  11  24  44  67 102 148 184 231 304 356 416
#     4  10  21  40  66 100 133 176 246 294 337 419
#     4  11  23  41  70 101 141 191 235 289 361 426
#     4  10  22  39  68  98 132 181 238 290 344 420
#     4  11  25  47  69 100 142 185 231 299 355 426
#
# _framework density 25.083832999999998
#
# number of rings (size 3 to 8) (size 9 to 14) (size 15 to 20)
#    0.000    1.333    4.167    0.500    5.833    0.000 
#    0.000    3.333    0.000    0.000    0.000    0.000 
#    0.000    0.000    0.000    0.000    0.000    0.000 
#
# Total GULP energy -134031.485598 kJ/mol
# GULP energy per Si atom -5584.645233 kJ/mol
# Density = 2.502674 g / cm^3
# Si number density = 25.083833 Si / 1000 Ang^3
#
#
#
# Elastic Constant Matrix: (Units=GPa)
#
#
# Indices 1 2 3 4 5 6 
#
# 1 143.2832 19.3414 47.7773 0.0000 4.2359 0.0000
# 2 19.3414 95.5388 17.0282 0.0000 19.3617 0.0000
# 3 47.7773 17.0282 99.9954 0.0000 9.0032 0.0000
# 4 0.0000 0.0000 0.0000 29.6290 0.0000 7.1865
# 5 4.2359 19.3617 9.0032 0.0000 57.2595 0.0000
# 6 0.0000 0.0000 0.0000 7.1865 0.0000 33.2657
#
#
#
# Elastic Compliance Matrix: (Units=1/GPa)
#
#
# Indices 1 2 3 4 5 6 
#
# 1 0.008403 -0.001084 -0.003862 0.000000 0.000352 0.000000
# 2 -0.001084 0.011633 -0.001132 0.000000 -0.003675 0.000000
# 3 -0.003862 -0.001132 0.012150 0.000000 -0.001242 0.000000
# 4 0.000000 0.000000 0.000000 0.035617 0.000000 -0.007695
# 5 0.000352 -0.003675 -0.001242 0.000000 0.018876 0.000000
# 6 0.000000 0.000000 0.000000 -0.007695 0.000000 0.031723
#
#
# Mechanical properties :
#
#
# Convention : Reuss Voigt Hill
#
# Bulk Modulus (GPa) = 49.92549 56.34570 53.13559
# Shear Modulus (GPa) = 36.43364 41.00887 38.72126
#
# Velocity S-wave (km/s) = 3.81527 4.04774 3.93322
# Velocity P-wave (km/s) = 6.27336 6.66013 6.46964
#
# Compressibility (1/GPa) = 0.02002985
#
# Stress axis : x y z
#
# Youngs Moduli (GPa) = 119.00687 85.96193 82.30268
#
# Poissons Ratio (x) = 0.09320 0.31785
# Poissons Ratio (y) = 0.12902 0.09317
# Poissons Ratio (z) = 0.45960 0.09731
#
# Static dielectric constant tensor:
#      x y z
#    x 2.051950 0.000000 0.056430 
#    y 0.000000 2.060730 0.000000 
#    z 0.056430 0.000000 1.967040 
# 
# From -- ./inp_files/154125.got.cif
#   From: 2010.05.17/outbox.cif.g08.bks.cpg/sg15_78_cif.got.tgz:154125.got - 2010.06.03 18:47:42.
