data_PCOD9283669
_publ_section_title
;
Structure prediction by ZEFSAII (Michael W. Deem and Ramdas Pophale) SiO2 
 PCOD9283669
Probable space group: C 2/C
;
_chemical_formula_sum "Si O2"
_cell_formula_units_Z 60
_cell_length_a 32.738407
_cell_length_b 17.645678
_cell_length_c 11.906250
_cell_angle_alpha 90.000000
_cell_angle_beta 24.578007
_cell_angle_gamma 90.000000
_cell_volume 2860.836020
_symmetry_space_group_name_H-M "C 2/C"
_symmetry_group_IT_number 15
_symmetry_cell_setting 'monoclinic'
loop_
_space_group_symop_operation_xyz
x,y,z
-x,y,1/2-z
-x,-y,-z
x,-y,1/2+z
1/2+x,1/2+y,z
1/2-x,1/2+y,1/2-z
1/2-x,1/2-y,-z
1/2+x,1/2-y,1/2+z
loop_
_atom_site_type_symbol
_atom_site_label
_atom_site_fract_x
_atom_site_fract_y
_atom_site_fract_z
Si Si1 0.576455 0.017578 0.661517
Si Si2 0.632289 0.759127 0.810950
Si Si3 0.967730 0.626970 0.109860
Si Si4 0.714446 0.859866 0.781080
Si Si5 0.000000 0.282588 0.750000
Si Si6 0.697282 0.693484 0.216992
Si Si7 0.581633 0.391993 0.351195
Si Si8 0.432569 0.561117 0.030564
O O1 0.500000 0.008372 0.750000
O O2 0.674434 0.055448 0.373315
O O3 0.597092 0.938547 0.670370
O O4 0.534836 0.077901 0.857126
O O5 0.750000 0.750000 0.500000
O O6 0.590040 0.811438 0.817759
O O7 0.633722 0.808081 0.920611
O O8 0.575464 0.679464 0.950812
O O9 0.014702 0.668593 0.099857
O O10 0.729904 0.827043 0.865160
O O11 0.822113 0.866507 0.458327
O O12 0.098336 0.232605 0.513339
O O13 0.660554 0.615051 0.254443
O O14 0.750000 0.750000 0.000000
O O15 0.593388 0.473584 0.380242
O O16 0.493942 0.404274 0.481699
O O17 0.500000 0.563562 0.750000
#
# Coordination Sequence:
#
# PCOD9283669 Si02
#       8
#     8   8   8   8   4   8   8   8
#     4  11  23  43  61  94 133 175 225 280 340 406
#     4  10  21  40  63  94 128 172 224 277 336 400
#     4  11  23  40  67  91 130 184 218 271 357 401
#     4  11  22  42  66  94 135 173 222 285 327 408
#     4  12  22  42  68  96 140 174 220 288 334 402
#     4  12  25  43  70 103 135 177 229 278 346 411
#     4  10  23  43  71  94 130 183 218 276 355 400
#     4  11  22  47  68  97 138 176 225 287 342 408
#
# _framework density 20.97289
#
# number of rings (size 3 to 8) (size 9 to 14) (size 15 to 20)
#    0.000    1.067    4.000    3.200    0.000    3.200 
#    7.200    0.000    0.000    0.000    0.000    0.000 
#    0.000    0.000    0.000    0.000    0.000    0.000 
#
# Total GULP energy -167516.414602 kJ/mol
# GULP energy per Si atom -5583.880487 kJ/mol
# Density = 2.092515 g / cm^3
# Si number density = 20.972890 Si / 1000 Ang^3
#
#
#
# Elastic Constant Matrix: (Units=GPa)
#
#
# Indices 1 2 3 4 5 6 
#
# 1 143.9480 81.5581 18.8208 0.0000 -10.0169 0.0000
# 2 81.5581 165.8931 21.0282 0.0000 -10.2848 0.0000
# 3 18.8208 21.0282 28.2538 0.0000 2.6128 0.0000
# 4 0.0000 0.0000 0.0000 35.2626 0.0000 6.7407
# 5 -10.0169 -10.2848 2.6128 0.0000 18.1320 0.0000
# 6 0.0000 0.0000 0.0000 6.7407 0.0000 -28.4604
#
#
#
# Elastic Compliance Matrix: (Units=1/GPa)
#
#
# Indices 1 2 3 4 5 6 
#
# 1 0.010130 -0.004249 -0.003932 0.000000 0.003753 0.000000
# 2 -0.004249 0.008830 -0.004042 0.000000 0.003244 0.000000
# 3 -0.003932 -0.004042 0.041993 0.000000 -0.010516 0.000000
# 4 0.000000 0.000000 0.000000 0.027130 0.000000 0.006426
# 5 0.003753 0.003244 -0.010516 0.000000 0.060579 0.000000
# 6 0.000000 0.000000 0.000000 0.006426 0.000000 -0.033615
#
#
# Mechanical properties :
#
#
# Convention : Reuss Voigt Hill
#
# Bulk Modulus (GPa) = 27.39169 64.54547 45.96858
# Shear Modulus (GPa) = 32.96772 19.43269 26.20021
#
# Velocity S-wave (km/s) = 3.96905 3.04725 3.53830
# Velocity P-wave (km/s) = 5.83895 6.57446 6.21759
#
# Compressibility (1/GPa) = 0.03650742
#
# Stress axis : x y z
#
# Youngs Moduli (GPa) = 98.72084 113.24673 23.81324
#
# Poissons Ratio (x) = 0.48117 0.09364
# Poissons Ratio (y) = 0.41945 0.09624
# Poissons Ratio (z) = 0.38821 0.45770
#
# Static dielectric constant tensor:
#      x y z
#    x 1.765530 0.000000 0.047080 
#    y 0.000000 1.822520 0.000000 
#    z 0.047080 0.000000 1.810130 
# 
# From -- ./inp_files/127220.got.cif
#   From: 2010.05.17/outbox.cif.g08.bks.cpg/sg15_64_cif.got.tgz:127220.got - 2010.06.03 18:47:42.
