data_PCOD9283665
_publ_section_title
;
Structure prediction by ZEFSAII (Michael W. Deem and Ramdas Pophale) SiO2 
 PCOD9283665
Probable space group: C 2/C
;
_chemical_formula_sum "Si O2"
_cell_formula_units_Z 40
_cell_length_a 7.749046
_cell_length_b 15.394585
_cell_length_c 13.869627
_cell_angle_alpha 90.000000
_cell_angle_beta 78.479708
_cell_angle_gamma 90.000000
_cell_volume 1621.221639
_symmetry_space_group_name_H-M "C 2/C"
_symmetry_group_IT_number 15
_symmetry_cell_setting 'monoclinic'
loop_
_space_group_symop_operation_xyz
x,y,z
-x,y,1/2-z
-x,-y,-z
x,-y,1/2+z
1/2+x,1/2+y,z
1/2-x,1/2+y,1/2-z
1/2-x,1/2-y,-z
1/2+x,1/2-y,1/2+z
loop_
_atom_site_type_symbol
_atom_site_label
_atom_site_fract_x
_atom_site_fract_y
_atom_site_fract_z
Si Si1 0.496011 0.678057 0.109466
Si Si2 0.144939 0.360059 0.152527
Si Si3 0.165101 0.569528 0.451884
Si Si4 0.776631 0.378361 0.024894
Si Si5 0.185500 0.242919 0.716409
O O1 0.578886 0.776075 0.098186
O O2 0.667604 0.621364 0.101367
O O3 0.346442 0.690910 0.206790
O O4 0.379226 0.637254 0.034823
O O5 0.306660 0.327270 0.198305
O O6 0.000000 0.381658 0.250000
O O7 0.178741 0.430764 0.068373
O O8 0.203917 0.469837 0.420570
O O9 0.974099 0.614869 0.453307
O O10 0.728841 0.305489 0.110705
O O11 0.000000 0.286806 0.750000
#
# Coordination Sequence:
#
# PCOD9283665 Si02
#       5
#     8   8   8   8   8
#     4  11  23  40  67  92 127 170 222 269 315 392
#     4  10  21  40  63  93 134 169 208 276 332 376
#     4  11  23  42  69  97 132 171 225 263 329 395
#     4  11  24  42  68  99 129 177 221 263 328 404
#     4  11  24  41  67  95 133 174 222 271 336 381
#
# _framework density 24.672750000000001
#
# number of rings (size 3 to 8) (size 9 to 14) (size 15 to 20)
#    0.000    1.200    4.000    3.000    2.800    0.000 
#    0.000   10.000    0.000    0.000    0.000    0.000 
#    0.000    0.000    0.000    0.000    0.000    0.000 
#
# Total GULP energy -111392.124344 kJ/mol
# GULP energy per Si atom -5569.606217 kJ/mol
# Density = 2.461659 g / cm^3
# Si number density = 24.672750 Si / 1000 Ang^3
#
#
#
# Elastic Constant Matrix: (Units=GPa)
#
#
# Indices 1 2 3 4 5 6 
#
# 1 152.3111 33.5046 40.7743 0.0000 -40.0985 0.0000
# 2 33.5046 64.5692 40.0062 0.0000 -28.0951 0.0000
# 3 40.7743 40.0062 83.2633 0.0000 -5.9145 0.0000
# 4 0.0000 0.0000 0.0000 27.3775 0.0000 -3.4301
# 5 -40.0985 -28.0951 -5.9145 0.0000 44.8595 0.0000
# 6 0.0000 0.0000 0.0000 -3.4301 0.0000 20.3303
#
#
#
# Elastic Compliance Matrix: (Units=1/GPa)
#
#
# Indices 1 2 3 4 5 6 
#
# 1 0.010049 0.002343 -0.005354 0.000000 0.009744 0.000000
# 2 0.002343 0.032808 -0.015447 0.000000 0.020605 0.000000
# 3 -0.005354 -0.015447 0.021226 0.000000 -0.011662 0.000000
# 4 0.000000 0.000000 0.000000 0.037315 0.000000 0.006296
# 5 0.009744 0.020605 -0.011662 0.000000 0.042368 0.000000
# 6 0.000000 0.000000 0.000000 0.006296 0.000000 0.050250
#
#
# Mechanical properties :
#
#
# Convention : Reuss Voigt Hill
#
# Bulk Modulus (GPa) = 36.81207 58.74598 47.77902
# Shear Modulus (GPa) = 20.83434 30.90401 25.86918
#
# Velocity S-wave (km/s) = 2.90906 3.54299 3.24156
# Velocity P-wave (km/s) = 5.12211 6.37172 5.78078
#
# Compressibility (1/GPa) = 0.02716501
#
# Stress axis : x y z
#
# Youngs Moduli (GPa) = 99.51527 30.48046 47.11247
#
# Poissons Ratio (x) = -0.07141 0.25226
# Poissons Ratio (y) = -0.23316 0.72775
# Poissons Ratio (z) = 0.53285 0.47084
#
# Static dielectric constant tensor:
#      x y z
#    x 2.060020 0.000000 0.057250 
#    y 0.000000 1.991880 0.000000 
#    z 0.057250 0.000000 1.977040 
# 
# From -- ./inp_files/133104.got.cif
#   From: 2010.05.17/outbox.cif.g08.bks.cpg/sg15_67_cif.got.tgz:133104.got - 2010.06.03 18:47:42.
