data_PCOD9283711
_publ_section_title
;
Structure prediction by ZEFSAII (Michael W. Deem and Ramdas Pophale) SiO2 
 PCOD9283711
Probable space group: C 2/C
;
_chemical_formula_sum "Si O2"
_cell_formula_units_Z 44
_cell_length_a 9.417257
_cell_length_b 24.540032
_cell_length_c 11.528362
_cell_angle_alpha 90.000000
_cell_angle_beta 49.904828
_cell_angle_gamma 90.000000
_cell_volume 2038.049735
_symmetry_space_group_name_H-M "C 2/C"
_symmetry_group_IT_number 15
_symmetry_cell_setting 'monoclinic'
loop_
_space_group_symop_operation_xyz
x,y,z
-x,y,1/2-z
-x,-y,-z
x,-y,1/2+z
1/2+x,1/2+y,z
1/2-x,1/2+y,1/2-z
1/2-x,1/2-y,-z
1/2+x,1/2-y,1/2+z
loop_
_atom_site_type_symbol
_atom_site_label
_atom_site_fract_x
_atom_site_fract_y
_atom_site_fract_z
Si Si1 0.640118 0.424538 0.978961
Si Si2 0.000000 0.634025 0.250000
Si Si3 0.909360 0.705572 0.522451
Si Si4 0.568551 0.318639 0.374207
Si Si5 0.342080 0.854648 0.427879
Si Si6 0.859036 0.961661 0.929095
O O1 0.819143 0.402037 0.817615
O O2 0.478476 0.445175 0.979161
O O3 0.544821 0.373536 0.093404
O O4 0.706257 0.476215 0.019385
O O5 0.940758 0.669396 0.391830
O O6 0.935627 0.767741 0.469473
O O7 0.075508 0.686783 0.521648
O O8 0.721635 0.695902 0.695860
O O9 0.674187 0.329853 0.440964
O O10 0.500000 0.865393 0.250000
O O11 0.287333 0.913120 0.509373
O O12 0.000000 0.961166 0.750000
#
# Coordination Sequence:
#
# PCOD9283711 Si02
#       6
#     8   4   8   8   8   8
#     4  10  24  41  58  90 122 160 205 245 303 365
#     4  12  26  40  58  90 124 164 202 242 302 372
#     4  11  23  39  63  92 124 162 200 253 304 364
#     4  10  22  41  64  89 123 159 205 252 304 359
#     4   9  20  40  65  94 120 154 205 256 304 355
#     4  10  21  40  64  86 119 161 201 254 301 354
#
# _framework density 21.589267
#
# number of rings (size 3 to 8) (size 9 to 14) (size 15 to 20)
#    0.000    1.818    0.000    2.727    3.818    4.364 
#    0.000    2.727    0.000    0.000    0.000    0.000 
#    0.000    0.000    0.000    0.000    0.000    0.000 
#
# Total GULP energy -122941.516109 kJ/mol
# GULP energy per Si atom -5588.250732 kJ/mol
# Density = 2.154013 g / cm^3
# Si number density = 21.589267 Si / 1000 Ang^3
#
#
#
# Elastic Constant Matrix: (Units=GPa)
#
#
# Indices 1 2 3 4 5 6 
#
# 1 48.7094 26.1628 17.8179 0.0000 -3.4299 0.0000
# 2 26.1628 165.5680 53.3978 0.0000 -4.9192 0.0000
# 3 17.8179 53.3978 77.3681 0.0000 7.1381 0.0000
# 4 0.0000 0.0000 0.0000 49.3274 0.0000 -15.7228
# 5 -3.4299 -4.9192 7.1381 0.0000 33.9959 0.0000
# 6 0.0000 0.0000 0.0000 -15.7228 0.0000 8.9006
#
#
#
# Elastic Compliance Matrix: (Units=1/GPa)
#
#
# Indices 1 2 3 4 5 6 
#
# 1 0.023464 -0.002307 -0.004079 0.000000 0.002890 0.000000
# 2 -0.002307 0.008175 -0.005302 0.000000 0.002063 0.000000
# 3 -0.004079 -0.005302 0.017981 0.000000 -0.004954 0.000000
# 4 0.000000 0.000000 0.000000 0.046396 0.000000 0.081958
# 5 0.002890 0.002063 -0.004954 0.000000 0.031046 0.000000
# 6 0.000000 0.000000 0.000000 0.081958 0.000000 0.257129
#
#
# Mechanical properties :
#
#
# Convention : Reuss Voigt Hill
#
# Bulk Modulus (GPa) = 38.09985 54.04473 46.07229
# Shear Modulus (GPa) = 12.01018 31.39592 21.70305
#
# Velocity S-wave (km/s) = 2.36117 3.81758 3.17404
# Velocity P-wave (km/s) = 5.01192 6.67229 5.90080
#
# Compressibility (1/GPa) = 0.02624682
#
# Stress axis : x y z
#
# Youngs Moduli (GPa) = 42.61808 122.31723 55.61519
#
# Poissons Ratio (x) = 0.28213 0.22683
# Poissons Ratio (y) = 0.09830 0.29486
# Poissons Ratio (z) = 0.17382 0.64849
#
# Static dielectric constant tensor:
#      x y z
#    x 1.886310 0.000000 0.013280 
#    y 0.000000 1.807190 0.000000 
#    z 0.013280 0.000000 1.731360 
# 
# From -- ./inp_files/30687.got.cif
#   From: 2010.05.17/outbox.cif.g08.bks.cpg/sg15_16_cif.got.tgz:30687.got - 2010.06.03 18:47:42.
