data_PCOD9283038
_publ_section_title
;
Structure prediction by ZEFSAII (Michael W. Deem and Ramdas Pophale) SiO2 
 PCOD9283038
Probable space group: C 2/C
;
_chemical_formula_sum "Si O2"
_cell_formula_units_Z 56
_cell_length_a 7.977041
_cell_length_b 26.720239
_cell_length_c 11.594569
_cell_angle_alpha 90.000000
_cell_angle_beta 82.883579
_cell_angle_gamma 90.000000
_cell_volume 2452.326096
_symmetry_space_group_name_H-M "C 2/C"
_symmetry_group_IT_number 15
_symmetry_cell_setting 'monoclinic'
loop_
_space_group_symop_operation_xyz
x,y,z
-x,y,1/2-z
-x,-y,-z
x,-y,1/2+z
1/2+x,1/2+y,z
1/2-x,1/2+y,1/2-z
1/2-x,1/2-y,-z
1/2+x,1/2-y,1/2+z
loop_
_atom_site_type_symbol
_atom_site_label
_atom_site_fract_x
_atom_site_fract_y
_atom_site_fract_z
Si Si1 0.745180 0.140680 0.191749
Si Si2 0.676362 0.952238 0.302518
Si Si3 0.828565 0.087561 0.567960
Si Si4 0.467757 0.309046 0.996023
Si Si5 0.143891 0.048127 0.157525
Si Si6 0.533510 0.114948 0.001236
Si Si7 0.378478 0.789003 0.601542
O O1 0.810184 0.100346 0.280745
O O2 0.656191 0.183812 0.274086
O O3 0.882257 0.169006 0.097749
O O4 0.619608 0.109626 0.118692
O O5 0.500000 0.956138 0.250000
O O6 0.806230 0.937125 0.191836
O O7 0.659517 0.907641 0.396466
O O8 0.715849 0.005133 0.357032
O O9 0.897957 0.143153 0.570026
O O10 0.932722 0.058839 0.461742
O O11 0.645868 0.089917 0.516712
O O12 0.315137 0.288667 0.928394
O O13 0.480584 0.262772 0.083689
O O14 0.000000 0.026282 0.250000
O O15 0.484207 0.173386 0.009391
#
# Coordination Sequence:
#
# PCOD9283038 Si02
#       7
#     8   8   8   8   8   8   8
#     4  12  22  40  66  98 131 163 218 278 325 388
#     4  10  26  42  63  93 134 176 220 268 325 393
#     4  10  22  44  64  93 129 170 220 264 325 394
#     4  10  21  40  66  92 128 171 214 267 326 389
#     4  12  24  40  67  95 129 172 222 269 329 388
#     4  10  23  41  63  95 132 167 214 267 327 386
#     4  10  21  39  66  96 124 174 218 264 330 390
#
# _framework density 22.835462
#
# number of rings (size 3 to 8) (size 9 to 14) (size 15 to 20)
#    0.000    1.429    4.286    0.857    4.000    4.571 
#    0.000    5.714    0.000    0.000    0.000    0.000 
#    0.000    0.000    0.000    0.000    0.000    0.000 
#
# Total GULP energy -156126.837671 kJ/mol
# GULP energy per Si atom -5575.958488 kJ/mol
# Density = 2.278349 g / cm^3
# Si number density = 22.835462 Si / 1000 Ang^3
#
#
#
# Elastic Constant Matrix: (Units=GPa)
#
#
# Indices 1 2 3 4 5 6 
#
# 1 38.5657 28.1640 13.6272 0.0000 -4.1424 0.0000
# 2 28.1640 155.5497 92.5958 0.0000 -17.8903 0.0000
# 3 13.6272 92.5958 114.7786 0.0000 -18.7891 0.0000
# 4 0.0000 0.0000 0.0000 1.4963 0.0000 25.1738
# 5 -4.1424 -17.8903 -18.7891 0.0000 24.0158 0.0000
# 6 0.0000 0.0000 0.0000 25.1738 0.0000 3.1136
#
#
#
# Elastic Compliance Matrix: (Units=1/GPa)
#
#
# Indices 1 2 3 4 5 6 
#
# 1 0.030106 -0.006329 0.001846 0.000000 0.001922 0.000000
# 2 -0.006329 0.013754 -0.010145 0.000000 0.001217 0.000000
# 3 0.001846 -0.010145 0.017768 0.000000 0.006662 0.000000
# 4 0.000000 0.000000 0.000000 -0.004950 0.000000 0.040018
# 5 0.001922 0.001217 0.006662 0.000000 0.048090 0.000000
# 6 0.000000 0.000000 0.000000 0.040018 0.000000 -0.002379
#
#
# Mechanical properties :
#
#
# Convention : Reuss Voigt Hill
#
# Bulk Modulus (GPa) = 30.89074 64.18533 47.53803
# Shear Modulus (GPa) = 35.10355 17.35894 26.23124
#
# Velocity S-wave (km/s) = 3.92502 2.76012 3.39293
# Velocity P-wave (km/s) = 5.83934 6.19083 6.01765
#
# Compressibility (1/GPa) = 0.03237216
#
# Stress axis : x y z
#
# Youngs Moduli (GPa) = 33.21621 72.70686 56.28024
#
# Poissons Ratio (x) = 0.46014 -0.10389
# Poissons Ratio (y) = 0.21022 0.57097
# Poissons Ratio (z) = -0.06132 0.73762
#
# Static dielectric constant tensor:
#      x y z
#    x 2.000850 0.000000 -0.012940 
#    y 0.000000 1.821480 0.000000 
#    z -0.012940 0.000000 1.945740 
# 
# From -- ./inp_files/81233.got.cif
#   From: 2010.05.17/outbox.cif.g08.bks.cpg/sg15_41_cif.got.tgz:81233.got - 2010.06.03 18:47:42.
