data_PCOD9283461
_publ_section_title
;
Structure prediction by ZEFSAII (Michael W. Deem and Ramdas Pophale) SiO2 
 PCOD9283461
Probable space group: C 2/C
;
_chemical_formula_sum "Si O2"
_cell_formula_units_Z 40
_cell_length_a 15.392075
_cell_length_b 10.515477
_cell_length_c 15.102960
_cell_angle_alpha 90.000000
_cell_angle_beta 39.770243
_cell_angle_gamma 90.000000
_cell_volume 1563.766004
_symmetry_space_group_name_H-M "C 2/C"
_symmetry_group_IT_number 15
_symmetry_cell_setting 'monoclinic'
loop_
_space_group_symop_operation_xyz
x,y,z
-x,y,1/2-z
-x,-y,-z
x,-y,1/2+z
1/2+x,1/2+y,z
1/2-x,1/2+y,1/2-z
1/2-x,1/2-y,-z
1/2+x,1/2-y,1/2+z
loop_
_atom_site_type_symbol
_atom_site_label
_atom_site_fract_x
_atom_site_fract_y
_atom_site_fract_z
Si Si1 0.518483 0.586993 0.376632
Si Si2 0.803991 0.509262 0.676397
Si Si3 0.715691 0.013359 0.599115
Si Si4 0.498286 0.222181 0.049258
Si Si5 0.500000 0.795532 0.250000
Si Si6 0.000000 0.701429 0.250000
O O1 0.650390 0.501520 0.266679
O O2 0.374716 0.528336 0.460074
O O3 0.510072 0.652445 0.480205
O O4 0.545458 0.706200 0.292637
O O5 0.808797 0.538477 0.777262
O O6 0.880573 0.621106 0.564847
O O7 0.872157 0.368346 0.618305
O O8 0.624760 0.117653 0.620458
O O9 0.638492 0.883217 0.639327
O O10 0.494887 0.257267 0.155357
#
# Coordination Sequence:
#
# PCOD9283461 Si02
#       6
#     8   8   8   8   4   4
#     4  12  23  37  69  98 130 164 222 266 319 382
#     4  10  22  41  63  91 132 174 205 267 330 377
#     4  10  21  40  61  95 131 168 210 267 319 383
#     4  10  22  42  64  92 130 177 212 261 327 387
#     4  11  22  36  60 103 126 164 211 270 322 379
#     4   9  22  42  68  85 134 178 213 254 326 385
#
# _framework density 25.579274999999999
#
# number of rings (size 3 to 8) (size 9 to 14) (size 15 to 20)
#    0.000    1.600    2.000    2.400    5.600    0.000 
#    0.000    4.000    0.000    0.000    0.000    0.000 
#    0.000    0.000    0.000    0.000    0.000    0.000 
#
# Total GULP energy -112061.240433 kJ/mol
# GULP energy per Si atom -5603.062022 kJ/mol
# Density = 2.552106 g / cm^3
# Si number density = 25.579275 Si / 1000 Ang^3
#
#
#
# Elastic Constant Matrix: (Units=GPa)
#
#
# Indices 1 2 3 4 5 6 
#
# 1 126.9913 44.3970 53.5108 0.0000 -23.5947 0.0000
# 2 44.3970 82.8011 38.4511 0.0000 -29.0811 0.0000
# 3 53.5108 38.4511 91.6580 0.0000 -35.0774 0.0000
# 4 0.0000 0.0000 0.0000 18.2330 0.0000 6.2173
# 5 -23.5947 -29.0811 -35.0774 0.0000 63.2640 0.0000
# 6 0.0000 0.0000 0.0000 6.2173 0.0000 32.9943
#
#
#
# Elastic Compliance Matrix: (Units=1/GPa)
#
#
# Indices 1 2 3 4 5 6 
#
# 1 0.011303 -0.003805 -0.005152 0.000000 -0.000390 0.000000
# 2 -0.003805 0.017273 -0.003210 0.000000 0.004741 0.000000
# 3 -0.005152 -0.003210 0.017726 0.000000 0.006431 0.000000
# 4 0.000000 0.000000 0.000000 0.058612 0.000000 -0.011045
# 5 -0.000390 0.004741 0.006431 0.000000 0.021406 0.000000
# 6 0.000000 0.000000 0.000000 -0.011045 0.000000 0.032389
#
#
# Mechanical properties :
#
#
# Convention : Reuss Voigt Hill
#
# Bulk Modulus (GPa) = 45.52205 63.79645 54.65925
# Shear Modulus (GPa) = 26.26497 33.90437 30.08467
#
# Velocity S-wave (km/s) = 3.20786 3.64464 3.43320
# Velocity P-wave (km/s) = 5.61743 6.53498 6.09350
#
# Compressibility (1/GPa) = 0.02196738
#
# Stress axis : x y z
#
# Youngs Moduli (GPa) = 88.46967 57.89238 56.41486
#
# Poissons Ratio (x) = 0.22030 0.29065
# Poissons Ratio (y) = 0.33665 0.18111
# Poissons Ratio (z) = 0.45579 0.18586
#
# Static dielectric constant tensor:
#      x y z
#    x 1.976500 0.000000 0.024830 
#    y 0.000000 1.997040 0.000000 
#    z 0.024830 0.000000 2.046870 
# 
# From -- ./inp_files/37913.got.cif
#   From: 2010.05.17/outbox.cif.g08.bks.cpg/sg15_19_cif.got.tgz:37913.got - 2010.06.03 18:47:42.
