data_PCOD9283147
_publ_section_title
;
Structure prediction by ZEFSAII (Michael W. Deem and Ramdas Pophale) SiO2 
 PCOD9283147
Probable space group: C 2/C
;
_chemical_formula_sum "Si O2"
_cell_formula_units_Z 40
_cell_length_a 21.640687
_cell_length_b 11.248113
_cell_length_c 18.918310
_cell_angle_alpha 90.000000
_cell_angle_beta 20.633914
_cell_angle_gamma 90.000000
_cell_volume 1622.794741
_symmetry_space_group_name_H-M "C 2/C"
_symmetry_group_IT_number 15
_symmetry_cell_setting 'monoclinic'
loop_
_space_group_symop_operation_xyz
x,y,z
-x,y,1/2-z
-x,-y,-z
x,-y,1/2+z
1/2+x,1/2+y,z
1/2-x,1/2+y,1/2-z
1/2-x,1/2-y,-z
1/2+x,1/2-y,1/2+z
loop_
_atom_site_type_symbol
_atom_site_label
_atom_site_fract_x
_atom_site_fract_y
_atom_site_fract_z
Si Si1 0.793053 0.859955 0.129668
Si Si2 0.981318 0.537570 0.133799
Si Si3 0.324602 0.393355 0.765902
Si Si4 0.812958 0.862686 0.477701
Si Si5 0.350315 0.268814 0.595953
O O1 0.748133 0.738050 0.136047
O O2 0.795040 0.813032 0.208485
O O3 0.628155 0.945500 0.296387
O O4 0.982896 0.910623 0.908089
O O5 0.854097 0.551369 0.337528
O O6 0.174731 0.488003 0.941923
O O7 0.004159 0.664893 0.071417
O O8 0.353801 0.375693 0.649679
O O9 0.750000 0.750000 0.500000
O O10 0.841439 0.820559 0.527644
O O11 0.000000 0.907082 0.250000
#
# Coordination Sequence:
#
# PCOD9283147 Si02
#       5
#     8   8   8   8   8
#     4  10  21  39  68 110 149 177 227 298 368 428
#     4  12  24  43  72 102 150 192 229 296 373 415
#     4  10  22  40  68 110 148 182 229 301 366 427
#     4  12  27  47  70 100 145 196 247 289 339 438
#     4  10  23  41  71 105 151 182 236 293 359 432
#
# _framework density 24.648834000000001
#
# number of rings (size 3 to 8) (size 9 to 14) (size 15 to 20)
#    1.200    0.000    4.000    1.800    5.600    2.400 
#    0.000    2.000    0.000    1.200    0.000    0.000 
#    0.000    0.000    0.000    0.000    0.000    0.000 
#
# Total GULP energy -111601.023147 kJ/mol
# GULP energy per Si atom -5580.051157 kJ/mol
# Density = 2.459273 g / cm^3
# Si number density = 24.648834 Si / 1000 Ang^3
#
#
#
# Elastic Constant Matrix: (Units=GPa)
#
#
# Indices 1 2 3 4 5 6 
#
# 1 25.5381 -3.2581 -0.7152 -0.0008 7.9955 0.0005
# 2 -3.2581 71.0182 22.9431 -0.0070 1.3245 0.0043
# 3 -0.7152 22.9431 188.8426 -0.0056 -4.0530 0.0040
# 4 -0.0008 -0.0070 -0.0056 56.2651 0.0027 -4.6419
# 5 7.9955 1.3245 -4.0530 0.0027 30.6156 -0.0015
# 6 0.0005 0.0043 0.0040 -4.6419 -0.0015 24.2254
#
#
#
# Elastic Compliance Matrix: (Units=1/GPa)
#
#
# Indices 1 2 3 4 5 6 
#
# 1 0.043003 0.002302 -0.000361 0.000001 -0.011378 -0.000002
# 2 0.002302 0.014803 -0.001822 0.000002 -0.001483 -0.000002
# 3 -0.000361 -0.001822 0.005535 0.000000 0.000906 0.000000
# 4 0.000001 0.000002 0.000000 0.018058 -0.000002 0.003460
# 5 -0.011378 -0.001483 0.000906 -0.000002 0.035819 0.000002
# 6 -0.000002 -0.000002 0.000000 0.003460 0.000002 0.041942
#
#
# Mechanical properties :
#
#
# Convention : Reuss Voigt Hill
#
# Bulk Modulus (GPa) = 15.72856 35.92648 25.82752
# Shear Modulus (GPa) = 27.76025 39.98318 33.87172
#
# Velocity S-wave (km/s) = 3.35958 4.03192 3.71100
# Velocity P-wave (km/s) = 4.63076 6.02346 5.37243
#
# Compressibility (1/GPa) = 0.06357860
#
# Stress axis : x y z
#
# Youngs Moduli (GPa) = 23.25428 67.55572 180.67535
#
# Poissons Ratio (x) = -0.15549 0.06522
# Poissons Ratio (y) = -0.05352 0.32910
# Poissons Ratio (z) = 0.00839 0.12305
#
# Static dielectric constant tensor:
#      x y z
#    x 2.095780 0.000000 -0.099940 
#    y 0.000000 2.006480 0.000000 
#    z -0.099940 0.000000 2.059500 
# 
# From -- ./inp_files/255401.got.cif
#   From: 2010.05.17/outbox.cif.g08.bks.cpg/sg15_128_cif.got.tgz:255401.got - 2010.06.03 18:47:42.
