data_PCOD9283454
_publ_section_title
;
Structure prediction by ZEFSAII (Michael W. Deem and Ramdas Pophale) SiO2 
 PCOD9283454
Probable space group: C 2/C
;
_chemical_formula_sum "Si O2"
_cell_formula_units_Z 40
_cell_length_a 9.253000
_cell_length_b 10.408473
_cell_length_c 21.915249
_cell_angle_alpha 90.000000
_cell_angle_beta 102.432013
_cell_angle_gamma 90.000000
_cell_volume 2061.158694
_symmetry_space_group_name_H-M "C 2/C"
_symmetry_group_IT_number 15
_symmetry_cell_setting 'monoclinic'
loop_
_space_group_symop_operation_xyz
x,y,z
-x,y,1/2-z
-x,-y,-z
x,-y,1/2+z
1/2+x,1/2+y,z
1/2-x,1/2+y,1/2-z
1/2-x,1/2-y,-z
1/2+x,1/2-y,1/2+z
loop_
_atom_site_type_symbol
_atom_site_label
_atom_site_fract_x
_atom_site_fract_y
_atom_site_fract_z
Si Si1 0.381837 0.193984 0.970622
Si Si2 0.838953 0.398133 0.932025
Si Si3 0.986300 0.133757 0.115827
Si Si4 0.223000 0.189830 0.298929
Si Si5 0.629873 0.545477 0.713325
O O1 0.403314 0.283558 0.913759
O O2 0.357754 0.048957 0.945378
O O3 0.250000 0.250000 0.000000
O O4 0.534655 0.181297 0.022574
O O5 0.668210 0.372997 0.934954
O O6 0.838305 0.361823 0.860480
O O7 0.055105 0.998019 0.142686
O O8 0.429411 0.693411 0.175191
O O9 0.269020 0.330259 0.282550
O O10 0.211729 0.081324 0.246422
O O11 0.500000 0.573745 0.750000
#
# Coordination Sequence:
#
# PCOD9283454 Si02
#       5
#     8   8   8   8   8
#     4  11  23  39  64  90 125 165 210 252 309 367
#     4   9  23  40  58  92 125 159 210 255 302 376
#     4   9  22  40  64  85 129 158 209 250 313 362
#     4   9  22  41  63  88 129 156 209 254 313 366
#     4  10  21  40  61  94 120 166 205 260 309 379
#
# _framework density 19.406561
#
# number of rings (size 3 to 8) (size 9 to 14) (size 15 to 20)
#    1.200    1.200    0.000    0.600    5.600    4.000 
#    3.600    0.000    0.000    0.000    0.000    0.000 
#    0.000    0.000    0.000    0.000    0.000    0.000 
#
# Total GULP energy -111346.871882 kJ/mol
# GULP energy per Si atom -5567.343594 kJ/mol
# Density = 1.936239 g / cm^3
# Si number density = 19.406561 Si / 1000 Ang^3
#
#
#
# Elastic Constant Matrix: (Units=GPa)
#
#
# Indices 1 2 3 4 5 6 
#
# 1 56.9826 61.9818 30.8650 0.0000 -4.1734 0.0000
# 2 61.9818 123.3669 45.9949 0.0000 -3.2492 0.0000
# 3 30.8650 45.9949 66.9836 0.0000 3.0921 0.0000
# 4 0.0000 0.0000 0.0000 24.1098 0.0000 6.8543
# 5 -4.1734 -3.2492 3.0921 0.0000 19.0405 0.0000
# 6 0.0000 0.0000 0.0000 6.8543 0.0000 21.8977
#
#
#
# Elastic Compliance Matrix: (Units=1/GPa)
#
#
# Indices 1 2 3 4 5 6 
#
# 1 0.041528 -0.018035 -0.007083 0.000000 0.007175 0.000000
# 2 -0.018035 0.018912 -0.004677 0.000000 0.000034 0.000000
# 3 -0.007083 -0.004677 0.021675 0.000000 -0.005871 0.000000
# 4 0.000000 0.000000 0.000000 0.045529 0.000000 -0.014251
# 5 0.007175 0.000034 -0.005871 0.000000 0.055051 0.000000
# 6 0.000000 0.000000 0.000000 -0.014251 0.000000 0.050128
#
#
# Mechanical properties :
#
#
# Convention : Reuss Voigt Hill
#
# Bulk Modulus (GPa) = 44.39469 58.33515 51.36492
# Shear Modulus (GPa) = 16.67100 20.24235 18.45668
#
# Velocity S-wave (km/s) = 2.93412 3.23316 3.08726
# Velocity P-wave (km/s) = 5.86554 6.63796 6.26367
#
# Compressibility (1/GPa) = 0.02252522
#
# Stress axis : x y z
#
# Youngs Moduli (GPa) = 24.07988 52.87737 46.13522
#
# Poissons Ratio (x) = 0.95364 0.32678
# Poissons Ratio (y) = 0.43428 0.21578
# Poissons Ratio (z) = 0.17056 0.24732
#
# Static dielectric constant tensor:
#      x y z
#    x 1.704350 0.000000 0.047190 
#    y 0.000000 1.651470 0.000000 
#    z 0.047190 0.000000 1.724180 
# 
# From -- ./inp_files/262564.got.cif
#   From: 2010.05.17/outbox.cif.g08.bks.cpg/sg15_132_cif.got.tgz:262564.got - 2010.06.03 18:47:42.
