data_PCOD9283591
_publ_section_title
;
Structure prediction by ZEFSAII (Michael W. Deem and Ramdas Pophale) SiO2 
 PCOD9283591
Probable space group: C 2/C
;
_chemical_formula_sum "Si O2"
_cell_formula_units_Z 52
_cell_length_a 8.815181
_cell_length_b 11.579456
_cell_length_c 26.167287
_cell_angle_alpha 90.000000
_cell_angle_beta 61.235303
_cell_angle_gamma 90.000000
_cell_volume 2341.430189
_symmetry_space_group_name_H-M "C 2/C"
_symmetry_group_IT_number 15
_symmetry_cell_setting 'monoclinic'
loop_
_space_group_symop_operation_xyz
x,y,z
-x,y,1/2-z
-x,-y,-z
x,-y,1/2+z
1/2+x,1/2+y,z
1/2-x,1/2+y,1/2-z
1/2-x,1/2-y,-z
1/2+x,1/2-y,1/2+z
loop_
_atom_site_type_symbol
_atom_site_label
_atom_site_fract_x
_atom_site_fract_y
_atom_site_fract_z
Si Si1 0.981387 0.867340 0.642947
Si Si2 0.130568 0.352886 0.539705
Si Si3 0.878075 0.116518 0.682678
Si Si4 0.889088 0.333566 0.836313
Si Si5 0.849558 0.063003 0.491679
Si Si6 0.000000 0.540423 0.750000
Si Si7 0.791222 0.223914 0.592478
O O1 0.790155 0.818280 0.664867
O O2 0.064968 0.890267 0.573500
O O3 0.116267 0.776722 0.643838
O O4 0.962643 0.989785 0.674915
O O5 0.250000 0.250000 0.500000
O O6 0.149830 0.354251 0.597823
O O7 0.203029 0.469242 0.504268
O O8 0.932305 0.323601 0.560736
O O9 0.872306 0.140716 0.622397
O O10 0.985955 0.222738 0.688145
O O11 0.677308 0.108664 0.730907
O O12 0.969938 0.451486 0.801678
O O13 0.770591 0.156813 0.543072
O O14 0.000000 0.000000 0.500000
#
# Coordination Sequence:
#
# PCOD9283591 Si02
#       7
#     8   8   8   8   8   4   8
#     4  11  22  37  59  90 122 157 204 242 299 359
#     4  11  20  36  62  88 121 163 201 241 307 364
#     4  10  22  42  62  82 118 152 191 251 306 353
#     4  10  21  40  63  88 119 157 198 250 300 365
#     4  12  18  34  58  84 123 164 197 244 293 351
#     4  10  22  40  64  90 112 154 202 248 308 360
#     4  11  23  36  58  88 118 159 202 247 292 358
#
# _framework density 22.208648
#
# number of rings (size 3 to 8) (size 9 to 14) (size 15 to 20)
#    0.000    1.231    4.615    2.308    0.000    4.308 
#    0.000    3.077    0.000    0.000    0.000    0.000 
#    0.000    0.000    0.000    0.000    0.000    0.000 
#
# Total GULP energy -145433.494296 kJ/mol
# GULP energy per Si atom -5593.595934 kJ/mol
# Density = 2.215810 g / cm^3
# Si number density = 22.208648 Si / 1000 Ang^3
#
#
#
# Elastic Constant Matrix: (Units=GPa)
#
#
# Indices 1 2 3 4 5 6 
#
# 1 76.3610 59.1846 15.1833 0.0000 -38.3039 0.0000
# 2 59.1846 86.2860 9.3674 0.0000 -22.5160 0.0000
# 3 15.1833 9.3674 69.3812 0.0000 -15.5114 0.0000
# 4 0.0000 0.0000 0.0000 39.4911 0.0000 -14.0811
# 5 -38.3039 -22.5160 -15.5114 0.0000 40.8920 0.0000
# 6 0.0000 0.0000 0.0000 -14.0811 0.0000 46.0403
#
#
#
# Elastic Compliance Matrix: (Units=1/GPa)
#
#
# Indices 1 2 3 4 5 6 
#
# 1 0.047982 -0.024736 -0.000172 0.000000 0.031260 0.000000
# 2 -0.024736 0.026288 -0.000088 0.000000 -0.008729 0.000000
# 3 -0.000172 -0.000088 0.015752 0.000000 0.005766 0.000000
# 4 0.000000 0.000000 0.000000 0.028422 0.000000 0.008693
# 5 0.031260 -0.008729 0.005766 0.000000 0.051117 0.000000
# 6 0.000000 0.000000 0.000000 0.008693 0.000000 0.024379
#
#
# Mechanical properties :
#
#
# Convention : Reuss Voigt Hill
#
# Bulk Modulus (GPa) = 24.98060 44.38879 34.68469
# Shear Modulus (GPa) = 19.43461 35.17087 27.30274
#
# Velocity S-wave (km/s) = 2.96140 3.98384 3.51005
# Velocity P-wave (km/s) = 4.79226 6.41808 5.66381
#
# Compressibility (1/GPa) = 0.04003106
#
# Stress axis : x y z
#
# Youngs Moduli (GPa) = 20.84105 38.04073 63.48561
#
# Poissons Ratio (x) = 0.94096 0.01091
# Poissons Ratio (y) = 0.51552 0.00556
# Poissons Ratio (z) = 0.00358 0.00333
#
# Static dielectric constant tensor:
#      x y z
#    x 1.842150 0.000000 -0.016170 
#    y 0.000000 1.842480 0.000000 
#    z -0.016170 0.000000 1.795200 
# 
# From -- ./inp_files/287569.got.cif
#   From: 2010.05.17/outbox.cif.g08.bks.cpg/sg15_144_cif.got.tgz:287569.got - 2010.06.03 18:47:42.
