data_PCOD9283756
_publ_section_title
;
Structure prediction by ZEFSAII (Michael W. Deem and Ramdas Pophale) SiO2 
 PCOD9283756
Probable space group: C 2/C
;
_chemical_formula_sum "Si O2"
_cell_formula_units_Z 40
_cell_length_a 27.949086
_cell_length_b 5.069574
_cell_length_c 14.459410
_cell_angle_alpha 90.000000
_cell_angle_beta 46.736061
_cell_angle_gamma 90.000000
_cell_volume 1491.910815
_symmetry_space_group_name_H-M "C 2/C"
_symmetry_group_IT_number 15
_symmetry_cell_setting 'monoclinic'
loop_
_space_group_symop_operation_xyz
x,y,z
-x,y,1/2-z
-x,-y,-z
x,-y,1/2+z
1/2+x,1/2+y,z
1/2-x,1/2+y,1/2-z
1/2-x,1/2-y,-z
1/2+x,1/2-y,1/2+z
loop_
_atom_site_type_symbol
_atom_site_label
_atom_site_fract_x
_atom_site_fract_y
_atom_site_fract_z
Si Si1 0.689187 0.378672 0.631710
Si Si2 0.266202 0.183387 0.671559
Si Si3 0.111289 0.571698 0.900468
Si Si4 0.440112 0.236648 0.760181
Si Si5 0.964023 0.228536 0.621268
O O1 0.750000 0.250000 0.500000
O O2 0.722805 0.629257 0.638277
O O3 0.653576 0.214788 0.762784
O O4 0.630930 0.373130 0.632266
O O5 0.237157 0.981320 0.787801
O O6 0.342031 0.088562 0.572254
O O7 0.087903 0.288341 0.892133
O O8 0.039587 0.686341 0.015218
O O9 0.500000 0.262366 0.750000
O O10 0.464445 0.425479 0.645156
O O11 0.436385 0.931286 0.735985
#
# Coordination Sequence:
#
# PCOD9283756 Si02
#       5
#     8   8   8   8   8
#     4  10  23  43  65 101 136 173 215 275 329 390
#     4  10  21  40  64  91 128 170 217 263 321 389
#     4   9  21  41  68  96 127 173 220 272 324 389
#     4  11  24  43  66  96 134 172 216 271 331 386
#     4  10  22  41  69  95 126 171 225 269 317 392
#
# _framework density 26.811254000000002
#
# number of rings (size 3 to 8) (size 9 to 14) (size 15 to 20)
#    0.000    2.000    0.000    1.800    2.800   10.400 
#    7.200    8.000    0.000    0.000    0.000    0.000 
#    0.000    0.000    0.000    0.000    0.000    0.000 
#
# Total GULP energy -111585.095489 kJ/mol
# GULP energy per Si atom -5579.254774 kJ/mol
# Density = 2.675023 g / cm^3
# Si number density = 26.811254 Si / 1000 Ang^3
#
#
#
# Elastic Constant Matrix: (Units=GPa)
#
#
# Indices 1 2 3 4 5 6 
#
# 1 220.4942 20.3765 28.6817 -0.0016 -52.9043 -0.0019
# 2 20.3765 54.4948 9.9839 -0.0263 1.7120 0.0040
# 3 28.6817 9.9839 77.8315 -0.0122 -32.4308 0.0061
# 4 -0.0016 -0.0263 -0.0122 32.4618 0.0045 -6.2882
# 5 -52.9043 1.7120 -32.4308 0.0045 43.2712 -0.0024
# 6 -0.0019 0.0040 0.0061 -6.2882 -0.0024 37.1306
#
#
#
# Elastic Compliance Matrix: (Units=1/GPa)
#
#
# Indices 1 2 3 4 5 6 
#
# 1 0.007054 -0.003358 0.002152 -0.000003 0.010370 0.000001
# 2 -0.003358 0.020809 -0.005068 0.000016 -0.008727 0.000001
# 3 0.002152 -0.005068 0.020191 0.000001 0.017964 -0.000001
# 4 -0.000003 0.000016 0.000001 0.031850 -0.000007 0.005394
# 5 0.010370 -0.008727 0.017964 -0.000007 0.049598 0.000001
# 6 0.000001 0.000001 -0.000001 0.005394 0.000001 0.027845
#
#
# Mechanical properties :
#
#
# Convention : Reuss Voigt Hill
#
# Bulk Modulus (GPa) = 28.16441 52.32276 40.24358
# Shear Modulus (GPa) = 27.51355 42.15794 34.83574
#
# Velocity S-wave (km/s) = 3.20690 3.96965 3.60848
# Velocity P-wave (km/s) = 4.92339 6.36933 5.69246
#
# Compressibility (1/GPa) = 0.03550580
#
# Stress axis : x y z
#
# Youngs Moduli (GPa) = 141.76987 48.05719 49.52790
#
# Poissons Ratio (x) = 0.16136 -0.10660
# Poissons Ratio (y) = 0.47600 0.25102
# Poissons Ratio (z) = -0.30513 0.24356
#
# Static dielectric constant tensor:
#      x y z
#    x 2.316800 0.000010 0.109280 
#    y 0.000010 2.107240 0.000010 
#    z 0.109280 0.000010 2.247920 
# 
# From -- ./inp_files/179579.got.cif
#   From: 2010.05.17/outbox.cif.g08.bks.cpg/sg15_90_cif.got.tgz:179579.got - 2010.06.03 18:47:42.
