data_PCOD9283275
_publ_section_title
;
Structure prediction by ZEFSAII (Michael W. Deem and Ramdas Pophale) SiO2 
 PCOD9283275
Probable space group: C 2/C
;
_chemical_formula_sum "Si O2"
_cell_formula_units_Z 56
_cell_length_a 8.570795
_cell_length_b 25.505887
_cell_length_c 11.737607
_cell_angle_alpha 90.000000
_cell_angle_beta 77.765989
_cell_angle_gamma 90.000000
_cell_volume 2507.637074
_symmetry_space_group_name_H-M "C 2/C"
_symmetry_group_IT_number 15
_symmetry_cell_setting 'monoclinic'
loop_
_space_group_symop_operation_xyz
x,y,z
-x,y,1/2-z
-x,-y,-z
x,-y,1/2+z
1/2+x,1/2+y,z
1/2-x,1/2+y,1/2-z
1/2-x,1/2-y,-z
1/2+x,1/2-y,1/2+z
loop_
_atom_site_type_symbol
_atom_site_label
_atom_site_fract_x
_atom_site_fract_y
_atom_site_fract_z
Si Si1 0.838291 0.128013 0.313036
Si Si2 0.474973 0.587218 0.625274
Si Si3 0.997206 0.375795 0.544136
Si Si4 0.724345 0.563897 0.394666
Si Si5 0.590347 0.681768 0.973793
Si Si6 0.123897 0.549558 0.629310
Si Si7 0.952512 0.283340 0.387327
O O1 0.649954 0.142041 0.351405
O O2 0.838129 0.079662 0.222423
O O3 0.877226 0.134422 0.440805
O O4 0.000000 0.158507 0.250000
O O5 0.500000 0.568495 0.750000
O O6 0.589449 0.559920 0.513865
O O7 0.501730 0.650079 0.608633
O O8 0.288634 0.577432 0.634567
O O9 0.155680 0.389926 0.587079
O O10 0.940587 0.426978 0.479896
O O11 0.025762 0.331421 0.446005
O O12 0.828445 0.511399 0.379342
O O13 0.509369 0.730471 0.048990
O O14 0.762174 0.704900 0.914436
O O15 0.000000 0.559239 0.750000
O O16 0.000000 0.281305 0.250000
#
# Coordination Sequence:
#
# PCOD9283275 Si02
#       7
#     8   8   8   8   8   8   8
#     4  11  20  41  67  92 137 173 221 272 327 398
#     4  12  26  45  68  99 140 174 225 280 339 400
#     4  11  23  41  65 101 136 175 227 276 335 401
#     4  12  26  41  68 102 137 178 222 279 332 396
#     4  10  22  43  67 101 129 180 224 278 334 407
#     4  12  24  45  68  97 136 184 224 273 335 401
#     4  10  21  39  73  96 130 180 229 269 343 401
#
# _framework density 22.331778
#
# number of rings (size 3 to 8) (size 9 to 14) (size 15 to 20)
#    0.000    0.857    4.286    3.857    2.000    1.714 
#    0.000    5.000    0.000    0.000    0.000    0.000 
#    0.000    0.000    0.000    0.000    0.000    0.000 
#
# Total GULP energy -155936.689945 kJ/mol
# GULP energy per Si atom -5569.167498 kJ/mol
# Density = 2.228095 g / cm^3
# Si number density = 22.331778 Si / 1000 Ang^3
#
#
#
# Elastic Constant Matrix: (Units=GPa)
#
#
# Indices 1 2 3 4 5 6 
#
# 1 78.1111 3.4238 39.9479 0.0000 -14.3615 0.0000
# 2 3.4238 84.6679 21.9141 0.0000 16.0941 0.0000
# 3 39.9479 21.9141 133.5932 0.0000 -13.2330 0.0000
# 4 0.0000 0.0000 0.0000 7.2176 0.0000 -10.9368
# 5 -14.3615 16.0941 -13.2330 0.0000 39.9877 0.0000
# 6 0.0000 0.0000 0.0000 -10.9368 0.0000 -0.5167
#
#
#
# Elastic Compliance Matrix: (Units=1/GPa)
#
#
# Indices 1 2 3 4 5 6 
#
# 1 0.015792 -0.000389 -0.004219 0.000000 0.004432 0.000000
# 2 -0.000389 0.013813 -0.002806 0.000000 -0.006627 0.000000
# 3 -0.004219 -0.002806 0.009480 0.000000 0.002751 0.000000
# 4 0.000000 0.000000 0.000000 0.004189 0.000000 -0.088670
# 5 0.004432 -0.006627 0.002751 0.000000 0.030177 0.000000
# 6 0.000000 0.000000 0.000000 -0.088670 0.000000 -0.058517
#
#
# Mechanical properties :
#
#
# Convention : Reuss Voigt Hill
#
# Bulk Modulus (GPa) = 41.22701 47.43820 44.33260
# Shear Modulus (GPa) = 132.10921 24.74349 78.42635
#
# Velocity S-wave (km/s) = 7.69974 3.33227 5.93253
# Velocity P-wave (km/s) = 9.87670 6.00782 8.17444
#
# Compressibility (1/GPa) = 0.02425594
#
# Stress axis : x y z
#
# Youngs Moduli (GPa) = 63.32283 72.39764 105.48617
#
# Poissons Ratio (x) = 0.02816 0.44509
# Poissons Ratio (y) = 0.02463 0.29599
# Poissons Ratio (z) = 0.26719 0.20314
#
# Static dielectric constant tensor:
#      x y z
#    x 1.883250 0.000000 -0.008040 
#    y 0.000000 1.875800 0.000000 
#    z -0.008040 0.000000 1.862620 
# 
# From -- ./inp_files/81248.got.cif
#   From: 2010.05.17/outbox.cif.g08.bks.cpg/sg15_41_cif.got.tgz:81248.got - 2010.06.03 18:47:42.
