data_PCOD9283852
_publ_section_title
;
Structure prediction by ZEFSAII (Michael W. Deem and Ramdas Pophale) SiO2 
 PCOD9283852
Probable space group: C 2/C
;
_chemical_formula_sum "Si O2"
_cell_formula_units_Z 52
_cell_length_a 9.770715
_cell_length_b 26.097395
_cell_length_c 11.295291
_cell_angle_alpha 90.000000
_cell_angle_beta 54.026970
_cell_angle_gamma 90.000000
_cell_volume 2330.918164
_symmetry_space_group_name_H-M "C 2/C"
_symmetry_group_IT_number 15
_symmetry_cell_setting 'monoclinic'
loop_
_space_group_symop_operation_xyz
x,y,z
-x,y,1/2-z
-x,-y,-z
x,-y,1/2+z
1/2+x,1/2+y,z
1/2-x,1/2+y,1/2-z
1/2-x,1/2-y,-z
1/2+x,1/2-y,1/2+z
loop_
_atom_site_type_symbol
_atom_site_label
_atom_site_fract_x
_atom_site_fract_y
_atom_site_fract_z
Si Si1 0.000000 0.077441 0.750000
Si Si2 0.000000 0.328920 0.250000
Si Si3 0.712138 0.606916 0.028669
Si Si4 0.818266 0.507890 0.525239
Si Si5 0.500000 0.068536 0.250000
Si Si6 0.949611 0.853091 0.503243
Si Si7 0.157134 0.346512 0.806762
Si Si8 0.421017 0.757979 0.492184
O O1 0.829129 0.042094 0.837498
O O2 0.014995 0.116542 0.633056
O O3 0.849103 0.365898 0.371018
O O4 0.038019 0.290446 0.340628
O O5 0.753306 0.549075 0.037037
O O6 0.532003 0.610627 0.060188
O O7 0.725636 0.639648 0.141171
O O8 0.000000 0.500000 0.500000
O O9 0.854162 0.532930 0.377652
O O10 0.459963 0.104843 0.158162
O O11 0.028139 0.797692 0.489376
O O12 0.755392 0.844054 0.633765
O O13 0.085380 0.293234 0.887990
O O14 0.250000 0.750000 0.500000
#
# Coordination Sequence:
#
# PCOD9283852 Si02
#       8
#     4   4   8   8   4   8   8   8
#     4  12  32  49  71 114 153 203 260 308 386 450
#     4  10  21  40  65 116 131 174 249 294 360 444
#     4  11  25  40  75 101 141 189 242 309 364 439
#     4  12  28  49  75 106 149 203 253 308 379 456
#     4  12  25  49  70 108 150 189 247 316 376 456
#     4  12  26  47  70 105 152 185 250 321 362 458
#     4  11  24  45  69 109 142 189 243 310 380 445
#     4  11  22  41  73 105 139 189 241 299 377 452
#
# _framework density 22.308805
#
# number of rings (size 3 to 8) (size 9 to 14) (size 15 to 20)
#    0.000    0.615    6.154    1.846    6.462    1.231 
#    0.000    1.538    0.000    0.000    0.000    0.000 
#    0.000    0.000    0.000    0.000    0.000    0.000 
#
# Total GULP energy -145074.185531 kJ/mol
# GULP energy per Si atom -5579.776367 kJ/mol
# Density = 2.225803 g / cm^3
# Si number density = 22.308805 Si / 1000 Ang^3
#
#
#
# Elastic Constant Matrix: (Units=GPa)
#
#
# Indices 1 2 3 4 5 6 
#
# 1 43.4936 23.0764 19.0951 0.0000 11.4560 0.0000
# 2 23.0764 168.3344 51.0676 0.0000 1.5977 0.0000
# 3 19.0951 51.0676 128.5723 0.0000 -12.0521 0.0000
# 4 0.0000 0.0000 0.0000 34.2845 0.0000 13.8915
# 5 11.4560 1.5977 -12.0521 0.0000 25.0221 0.0000
# 6 0.0000 0.0000 0.0000 13.8915 0.0000 20.9346
#
#
#
# Elastic Compliance Matrix: (Units=1/GPa)
#
#
# Indices 1 2 3 4 5 6 
#
# 1 0.030923 -0.002526 -0.005133 0.000000 -0.016469 0.000000
# 2 -0.002526 0.007039 -0.002466 0.000000 -0.000481 0.000000
# 3 -0.005133 -0.002466 0.010216 0.000000 0.007428 0.000000
# 4 0.000000 0.000000 0.000000 0.039894 0.000000 -0.026472
# 5 -0.016469 -0.000481 0.007428 0.000000 0.051113 0.000000
# 6 0.000000 0.000000 0.000000 -0.026472 0.000000 0.065334
#
#
# Mechanical properties :
#
#
# Convention : Reuss Voigt Hill
#
# Bulk Modulus (GPa) = 35.80500 58.54205 47.17353
# Shear Modulus (GPa) = 21.36028 32.52564 26.94296
#
# Velocity S-wave (km/s) = 3.09768 3.82248 3.47901
# Velocity P-wave (km/s) = 5.37389 6.76613 6.10980
#
# Compressibility (1/GPa) = 0.02792906
#
# Stress axis : x y z
#
# Youngs Moduli (GPa) = 32.33791 142.05648 97.88691
#
# Poissons Ratio (x) = 0.35878 0.50248
# Poissons Ratio (y) = 0.08167 0.24139
# Poissons Ratio (z) = 0.16600 0.35031
#
# Static dielectric constant tensor:
#      x y z
#    x 1.916990 0.000000 -0.081610 
#    y 0.000000 2.110050 0.000000 
#    z -0.081610 0.000000 1.924110 
# 
# From -- ./inp_files/91209.got.cif
#   From: 2010.05.17/outbox.cif.g08.bks.cpg/sg15_46_cif.got.tgz:91209.got - 2010.06.03 18:47:42.
