data_PCOD9283818
_publ_section_title
;
Structure prediction by ZEFSAII (Michael W. Deem and Ramdas Pophale) SiO2 
 PCOD9283818
Probable space group: C 2/C
;
_chemical_formula_sum "Si O2"
_cell_formula_units_Z 56
_cell_length_a 28.291902
_cell_length_b 7.645668
_cell_length_c 29.457155
_cell_angle_alpha 90.000000
_cell_angle_beta 160.408930
_cell_angle_gamma 90.000000
_cell_volume 2136.525456
_symmetry_space_group_name_H-M "C 2/C"
_symmetry_group_IT_number 15
_symmetry_cell_setting 'monoclinic'
loop_
_space_group_symop_operation_xyz
x,y,z
-x,y,1/2-z
-x,-y,-z
x,-y,1/2+z
1/2+x,1/2+y,z
1/2-x,1/2+y,1/2-z
1/2-x,1/2-y,-z
1/2+x,1/2-y,1/2+z
loop_
_atom_site_type_symbol
_atom_site_label
_atom_site_fract_x
_atom_site_fract_y
_atom_site_fract_z
Si Si1 0.429523 0.131690 0.735365
Si Si2 0.117658 0.043478 0.254690
Si Si3 0.671415 0.446825 0.463258
Si Si4 0.498084 0.041087 0.552389
Si Si5 0.190448 0.440450 0.000475
Si Si6 0.983125 0.144351 0.922472
Si Si7 0.688174 0.642105 0.637893
O O1 0.500000 0.178991 0.750000
O O2 0.316449 0.984299 0.620234
O O3 0.344802 0.269836 0.689166
O O4 0.556658 0.063332 0.881298
O O5 0.489990 0.846332 0.566631
O O6 0.222354 0.915028 0.375568
O O7 0.103595 0.972387 0.191565
O O8 0.958665 0.033241 0.130123
O O9 0.700027 0.511349 0.438223
O O10 0.638830 0.242340 0.433667
O O11 0.373835 0.185828 0.443983
O O12 0.645259 0.127833 0.702019
O O13 0.500000 0.000000 0.500000
O O14 0.890253 0.147874 0.884159
O O15 0.127236 0.036389 0.060976
#
# Coordination Sequence:
#
# PCOD9283818 Si02
#       7
#     8   8   8   8   8   8   8
#     4  10  21  40  67  99 139 190 246 297 355 431
#     4  12  23  41  62 102 136 178 227 296 360 419
#     4  10  21  40  66  91 134 189 239 283 349 424
#     4  10  24  45  81 106 140 186 239 302 356 440
#     4  10  21  40  64  95 132 187 241 289 345 423
#     4  10  26  44  70 107 148 181 234 301 368 438
#     4  10  24  50  75 105 138 195 248 287 371 449
#
# _framework density 26.21078
#
# number of rings (size 3 to 8) (size 9 to 14) (size 15 to 20)
#    0.000    1.714    0.000    3.000   12.000    5.714 
#   10.286    0.000    0.000    0.000    0.000    0.000 
#    0.000    0.000    0.000    0.000    0.000    0.000 
#
# Total GULP energy -156797.412930 kJ/mol
# GULP energy per Si atom -5599.907605 kJ/mol
# Density = 2.615112 g / cm^3
# Si number density = 26.210780 Si / 1000 Ang^3
#
#
#
# Elastic Constant Matrix: (Units=GPa)
#
#
# Indices 1 2 3 4 5 6 
#
# 1 87.7067 32.7231 36.3178 0.0025 -10.1427 0.0007
# 2 32.7231 165.5444 63.5533 -0.0002 3.0887 0.0017
# 3 36.3178 63.5533 161.7564 -0.0135 -16.9646 -0.0012
# 4 0.0025 -0.0002 -0.0135 38.9495 -0.0007 -8.7475
# 5 -10.1427 3.0887 -16.9646 -0.0007 40.6519 0.0006
# 6 0.0007 0.0017 -0.0012 -8.7475 0.0006 23.2588
#
#
#
# Elastic Compliance Matrix: (Units=1/GPa)
#
#
# Indices 1 2 3 4 5 6 
#
# 1 0.013225 -0.001919 -0.001939 -0.000002 0.002636 -0.000001
# 2 -0.001919 0.007518 -0.002754 -0.000001 -0.002199 -0.000001
# 3 -0.001939 -0.002754 0.008022 0.000003 0.003073 0.000002
# 4 -0.000002 -0.000001 0.000003 0.028043 0.000001 0.010547
# 5 0.002636 -0.002199 0.003073 0.000001 0.026706 0.000000
# 6 -0.000001 -0.000001 0.000002 0.010547 0.000000 0.046961
#
#
# Mechanical properties :
#
#
# Convention : Reuss Voigt Hill
#
# Bulk Modulus (GPa) = 64.34177 75.57734 69.95955
# Shear Modulus (GPa) = 33.58424 39.39959 36.49192
#
# Velocity S-wave (km/s) = 3.58343 3.88130 3.73533
# Velocity P-wave (km/s) = 6.45929 6.99879 6.73444
#
# Compressibility (1/GPa) = 0.01554200
#
# Stress axis : x y z
#
# Youngs Moduli (GPa) = 75.61206 133.01082 124.66290
#
# Poissons Ratio (x) = 0.25526 0.24171
# Poissons Ratio (y) = 0.14511 0.34327
# Poissons Ratio (z) = 0.14660 0.36626
#
# Static dielectric constant tensor:
#      x y z
#    x 2.104300 0.000000 0.039670 
#    y 0.000000 2.113770 0.000000 
#    z 0.039670 0.000000 1.950680 
# 
# From -- ./inp_files/63616.got.cif
#   From: 2010.05.17/outbox.cif.g08.bks.cpg/sg15_32_cif.got.tgz:63616.got - 2010.06.03 18:47:42.
