data_PCOD9283286
_publ_section_title
;
Structure prediction by ZEFSAII (Michael W. Deem and Ramdas Pophale) SiO2 
 PCOD9283286
Probable space group: C 2/C
;
_chemical_formula_sum "Si O2"
_cell_formula_units_Z 56
_cell_length_a 22.787739
_cell_length_b 14.225519
_cell_length_c 8.220085
_cell_angle_alpha 90.000000
_cell_angle_beta 55.329445
_cell_angle_gamma 90.000000
_cell_volume 2191.533113
_symmetry_space_group_name_H-M "C 2/C"
_symmetry_group_IT_number 15
_symmetry_cell_setting 'monoclinic'
loop_
_space_group_symop_operation_xyz
x,y,z
-x,y,1/2-z
-x,-y,-z
x,-y,1/2+z
1/2+x,1/2+y,z
1/2-x,1/2+y,1/2-z
1/2-x,1/2-y,-z
1/2+x,1/2-y,1/2+z
loop_
_atom_site_type_symbol
_atom_site_label
_atom_site_fract_x
_atom_site_fract_y
_atom_site_fract_z
Si Si1 0.500000 0.497111 0.250000
Si Si2 0.775860 0.878497 0.817981
Si Si3 0.350410 0.267729 0.988175
Si Si4 0.363799 0.915908 0.038393
Si Si5 0.000000 0.536745 0.750000
Si Si6 0.428667 0.365352 0.127353
Si Si7 0.734004 0.053159 0.076798
Si Si8 0.466417 0.800740 0.085478
O O1 0.439273 0.429711 0.269209
O O2 0.464320 0.565567 0.437150
O O3 0.821998 0.826311 0.879268
O O4 0.787767 0.891901 0.608378
O O5 0.700140 0.823181 0.927813
O O6 0.773024 0.982202 0.895493
O O7 0.428453 0.237724 0.807945
O O8 0.358864 0.324748 0.143070
O O9 0.315040 0.885250 0.964267
O O10 0.428324 0.977117 0.865455
O O11 0.401075 0.829933 0.071181
O O12 0.317358 0.982768 0.233549
O O13 0.001068 0.601627 0.587497
O O14 0.479410 0.274078 0.071609
#
# Coordination Sequence:
#
# PCOD9283286 Si02
#       8
#     4   8   8   8   4   8   8   8
#     4  10  23  43  60  92 112 156 206 253 315 348
#     4  10  23  39  65  84 119 157 215 240 313 351
#     4  11  21  41  63  87 116 167 197 258 303 367
#     4  11  22  35  62  90 135 160 199 238 302 381
#     4  12  21  35  58 100 128 170 188 237 307 392
#     4  11  23  41  66  85 123 156 200 262 305 374
#     4  10  21  40  57  90 118 165 195 260 282 372
#     4  12  21  38  61  94 124 160 201 246 316 365
#
# _framework density 25.552887999999999
#
# number of rings (size 3 to 8) (size 9 to 14) (size 15 to 20)
#    0.000    1.143    5.714    1.286    0.000    2.857 
#    0.000    0.714    0.000    0.000    0.000    0.000 
#    0.000    0.000    0.000    0.000    0.000    0.000 
#
# Total GULP energy -156618.464098 kJ/mol
# GULP energy per Si atom -5593.516575 kJ/mol
# Density = 2.549473 g / cm^3
# Si number density = 25.552888 Si / 1000 Ang^3
#
#
#
# Elastic Constant Matrix: (Units=GPa)
#
#
# Indices 1 2 3 4 5 6 
#
# 1 86.3118 -2.6152 14.4260 0.0000 22.0339 0.0000
# 2 -2.6152 65.3163 -3.5183 0.0000 7.3478 0.0000
# 3 14.4260 -3.5183 27.4547 0.0000 11.8385 0.0000
# 4 0.0000 0.0000 0.0000 4.3804 0.0000 25.0118
# 5 22.0339 7.3478 11.8385 0.0000 44.4877 0.0000
# 6 0.0000 0.0000 0.0000 25.0118 0.0000 34.9579
#
#
#
# Elastic Compliance Matrix: (Units=1/GPa)
#
#
# Indices 1 2 3 4 5 6 
#
# 1 0.013873 0.000955 -0.004672 0.000000 -0.005785 0.000000
# 2 0.000955 0.015972 0.003261 0.000000 -0.003978 0.000000
# 3 -0.004672 0.003261 0.043525 0.000000 -0.009807 0.000000
# 4 0.000000 0.000000 0.000000 -0.073991 0.000000 0.052939
# 5 -0.005785 -0.003978 -0.009807 0.000000 0.028610 0.000000
# 6 0.000000 0.000000 0.000000 0.052939 0.000000 -0.009271
#
#
# Mechanical properties :
#
#
# Convention : Reuss Voigt Hill
#
# Bulk Modulus (GPa) = 13.80168 21.74088 17.77128
# Shear Modulus (GPa) = 114.19908 28.15122 71.17515
#
# Velocity S-wave (km/s) = 6.69240 3.32276 5.28342
# Velocity P-wave (km/s) = 8.07036 4.82158 6.64749
#
# Compressibility (1/GPa) = 0.07245494
#
# Stress axis : x y z
#
# Youngs Moduli (GPa) = 72.08445 62.61147 22.97511
#
# Poissons Ratio (x) = -0.05977 0.10735
# Poissons Ratio (y) = -0.06881 -0.07491
# Poissons Ratio (z) = 0.33681 -0.20415
#
# Static dielectric constant tensor:
#      x y z
#    x 2.109740 0.000000 0.005120 
#    y 0.000000 2.000180 0.000000 
#    z 0.005120 0.000000 2.037090 
# 
# From -- ./inp_files/61648.got.cif
#   From: 2010.05.17/outbox.cif.g08.bks.cpg/sg15_31_cif.got.tgz:61648.got - 2010.06.03 18:47:42.
