data_PCOD9283158
_publ_section_title
;
Structure prediction by ZEFSAII (Michael W. Deem and Ramdas Pophale) SiO2 
 PCOD9283158
Probable space group: C 2/C
;
_chemical_formula_sum "Si O2"
_cell_formula_units_Z 56
_cell_length_a 12.388029
_cell_length_b 14.605265
_cell_length_c 27.983274
_cell_angle_alpha 90.000000
_cell_angle_beta 28.628235
_cell_angle_gamma 90.000000
_cell_volume 2425.819742
_symmetry_space_group_name_H-M "C 2/C"
_symmetry_group_IT_number 15
_symmetry_cell_setting 'monoclinic'
loop_
_space_group_symop_operation_xyz
x,y,z
-x,y,1/2-z
-x,-y,-z
x,-y,1/2+z
1/2+x,1/2+y,z
1/2-x,1/2+y,1/2-z
1/2-x,1/2-y,-z
1/2+x,1/2-y,1/2+z
loop_
_atom_site_type_symbol
_atom_site_label
_atom_site_fract_x
_atom_site_fract_y
_atom_site_fract_z
Si Si1 0.463414 0.869331 0.813371
Si Si2 0.962108 0.336188 0.578921
Si Si3 0.709732 0.071280 0.637348
Si Si4 0.091434 0.320159 0.090475
Si Si5 0.631503 0.644149 0.521761
Si Si6 0.605198 0.915474 0.989723
Si Si7 0.110189 0.140160 0.291090
O O1 0.500000 0.817129 0.750000
O O2 0.701642 0.890881 0.744495
O O3 0.346571 0.965899 0.848686
O O4 0.294916 0.823617 0.915378
O O5 0.940826 0.333857 0.530557
O O6 0.734877 0.372354 0.691788
O O7 0.188355 0.388790 0.508909
O O8 0.996785 0.235288 0.586769
O O9 0.500000 0.109957 0.750000
O O10 0.711658 0.122577 0.585710
O O11 0.942119 0.077587 0.575757
O O12 0.929380 0.247650 0.180356
O O13 0.250000 0.250000 0.000000
O O14 0.012207 0.389518 0.078655
O O15 0.877545 0.914608 0.886663
O O16 0.500000 0.000000 0.000000
#
# Coordination Sequence:
#
# PCOD9283158 Si02
#       7
#     8   8   8   8   8   8   8
#     4  10  24  37  64  94 131 170 212 286 346 381
#     4  10  22  41  68  94 128 184 220 272 343 406
#     4  11  23  41  66  97 129 172 226 282 343 403
#     4  10  23  40  69  98 126 179 228 275 337 414
#     4  10  21  39  68  93 129 166 228 276 330 408
#     4  11  25  40  68  99 140 182 222 283 349 412
#     4  10  22  44  66  93 134 177 235 275 334 416
#
# _framework density 23.084980000000002
#
# number of rings (size 3 to 8) (size 9 to 14) (size 15 to 20)
#    0.000    1.714    0.000    3.429   10.000    2.286 
#    0.000    0.000    0.000    0.000    0.000    0.000 
#    0.000    0.000    0.000    0.000    0.000    0.000 
#
# Total GULP energy -156208.429771 kJ/mol
# GULP energy per Si atom -5578.872492 kJ/mol
# Density = 2.303244 g / cm^3
# Si number density = 23.084980 Si / 1000 Ang^3
#
#
#
# Elastic Constant Matrix: (Units=GPa)
#
#
# Indices 1 2 3 4 5 6 
#
# 1 104.0043 2.7554 41.0406 0.0005 -9.3329 -0.0005
# 2 2.7554 58.1007 7.0575 -0.0015 -9.4593 -0.0001
# 3 41.0406 7.0575 101.1322 -0.0031 -20.0938 0.0006
# 4 0.0005 -0.0015 -0.0031 21.6600 0.0002 -4.0023
# 5 -9.3329 -9.4593 -20.0938 0.0002 47.5637 0.0011
# 6 -0.0005 -0.0001 0.0006 -4.0023 0.0011 41.1425
#
#
#
# Elastic Compliance Matrix: (Units=1/GPa)
#
#
# Indices 1 2 3 4 5 6 
#
# 1 0.011453 0.000067 -0.004588 -0.000001 0.000322 0.000000
# 2 0.000067 0.017820 -0.000616 0.000001 0.003297 0.000000
# 3 -0.004588 -0.000616 0.012652 0.000002 0.004322 0.000000
# 4 -0.000001 0.000001 0.000002 0.047013 0.000001 0.004573
# 5 0.000322 0.003297 0.004322 0.000001 0.023569 -0.000001
# 6 0.000000 0.000000 0.000000 0.004573 -0.000001 0.024751
#
#
# Mechanical properties :
#
#
# Convention : Reuss Voigt Hill
#
# Bulk Modulus (GPa) = 31.59564 40.54938 36.07251
# Shear Modulus (GPa) = 31.62925 36.23217 33.93071
#
# Velocity S-wave (km/s) = 3.70553 3.96601 3.83798
# Velocity P-wave (km/s) = 5.65900 6.21093 5.94138
#
# Compressibility (1/GPa) = 0.03164994
#
# Stress axis : x y z
#
# Youngs Moduli (GPa) = 87.31584 56.11712 79.04058
#
# Poissons Ratio (x) = -0.00374 0.36266
# Poissons Ratio (y) = -0.00582 0.04865
# Poissons Ratio (z) = 0.40063 0.03454
#
# Static dielectric constant tensor:
#      x y z
#    x 1.969080 0.000000 0.050660 
#    y 0.000000 1.933160 0.000000 
#    z 0.050660 0.000000 1.914530 
# 
# From -- ./inp_files/311291.got.cif
#   From: 2010.05.17/outbox.cif.g08.bks.cpg/sg15_156_cif.got.tgz:311291.got - 2010.06.03 18:47:42.
