data_PCOD9283510
_publ_section_title
;
Structure prediction by ZEFSAII (Michael W. Deem and Ramdas Pophale) SiO2 
 PCOD9283510
Probable space group: C 2/C
;
_chemical_formula_sum "Si O2"
_cell_formula_units_Z 48
_cell_length_a 27.301501
_cell_length_b 8.156559
_cell_length_c 20.731781
_cell_angle_alpha 90.000000
_cell_angle_beta 30.789604
_cell_angle_gamma 90.000000
_cell_volume 2363.220372
_symmetry_space_group_name_H-M "C 2/C"
_symmetry_group_IT_number 15
_symmetry_cell_setting 'monoclinic'
loop_
_space_group_symop_operation_xyz
x,y,z
-x,y,1/2-z
-x,-y,-z
x,-y,1/2+z
1/2+x,1/2+y,z
1/2-x,1/2+y,1/2-z
1/2-x,1/2-y,-z
1/2+x,1/2-y,1/2+z
loop_
_atom_site_type_symbol
_atom_site_label
_atom_site_fract_x
_atom_site_fract_y
_atom_site_fract_z
Si Si1 0.990802 0.684191 0.037188
Si Si2 0.312966 0.216783 0.328197
Si Si3 0.776335 0.999933 0.966458
Si Si4 0.640803 0.748725 0.924528
Si Si5 0.804979 0.368592 0.156759
Si Si6 0.606439 0.212867 0.610029
O O1 0.915506 0.681386 0.180742
O O2 0.943189 0.784252 0.032400
O O3 0.000000 0.500000 0.000000
O O4 0.097090 0.727852 0.938903
O O5 0.320331 0.353208 0.375555
O O6 0.247984 0.288172 0.344155
O O7 0.263638 0.064405 0.419884
O O8 0.853763 0.859061 0.890384
O O9 0.684784 0.929165 0.031700
O O10 0.733035 0.646048 0.798461
O O11 0.670811 0.940961 0.883027
O O12 0.608395 0.728028 0.034079
O O13 0.500000 0.162133 0.750000
#
# Coordination Sequence:
#
# PCOD9283510 Si02
#       6
#     8   8   8   8   8   8
#     4   9  21  36  64  93 115 159 205 254 309 370
#     4  10  21  42  64  92 125 160 217 252 313 373
#     4  10  24  41  63  89 126 171 203 263 303 374
#     4  10  22  40  61  92 120 158 208 253 314 367
#     4  10  21  40  62  90 120 160 197 262 313 363
#     4  11  25  41  63  91 127 168 208 253 316 377
#
# _framework density 20.311266
#
# number of rings (size 3 to 8) (size 9 to 14) (size 15 to 20)
#    0.000    2.000    1.667    0.000   11.667    2.667 
#    0.000    5.000    0.000    0.000    0.000    0.000 
#    0.000    0.000    0.000    0.000    0.000    0.000 
#
# Total GULP energy -134054.952453 kJ/mol
# GULP energy per Si atom -5585.623019 kJ/mol
# Density = 2.026504 g / cm^3
# Si number density = 20.311266 Si / 1000 Ang^3
#
#
#
# Elastic Constant Matrix: (Units=GPa)
#
#
# Indices 1 2 3 4 5 6 
#
# 1 54.6199 -10.4452 43.3122 0.0010 6.9391 0.0002
# 2 -10.4452 24.6811 2.3395 0.0108 -4.5733 -0.0039
# 3 43.3122 2.3395 104.2108 0.0079 2.1997 -0.0029
# 4 0.0010 0.0108 0.0079 22.6267 -0.0011 11.5167
# 5 6.9391 -4.5733 2.1997 -0.0011 37.5374 0.0000
# 6 0.0002 -0.0039 -0.0029 11.5167 0.0000 14.6135
#
#
#
# Elastic Compliance Matrix: (Units=1/GPa)
#
#
# Indices 1 2 3 4 5 6 
#
# 1 0.032348 0.014352 -0.013694 -0.000007 -0.003429 0.000006
# 2 0.014352 0.047933 -0.007117 -0.000045 0.003604 0.000046
# 3 -0.013694 -0.007117 0.015431 -0.000003 0.000760 0.000004
# 4 -0.000007 -0.000045 -0.000003 0.073798 -0.000002 -0.058159
# 5 -0.003429 0.003604 0.000760 -0.000002 0.027668 0.000003
# 6 0.000006 0.000046 0.000004 -0.058159 0.000003 0.114264
#
#
# Mechanical properties :
#
#
# Convention : Reuss Voigt Hill
#
# Bulk Modulus (GPa) = 12.07815 28.21386 20.14600
# Shear Modulus (GPa) = 14.20619 24.84255 19.52437
#
# Velocity S-wave (km/s) = 2.64753 3.50107 3.10378
# Velocity P-wave (km/s) = 3.91220 5.50129 4.77334
#
# Compressibility (1/GPa) = 0.08279416
#
# Stress axis : x y z
#
# Youngs Moduli (GPa) = 30.91408 20.86232 64.80352
#
# Poissons Ratio (x) = -0.29943 0.88743
# Poissons Ratio (y) = -0.44369 0.46123
# Poissons Ratio (z) = 0.42334 0.14848
#
# Static dielectric constant tensor:
#      x y z
#    x 1.737310 0.000000 -0.006720 
#    y 0.000000 1.791680 0.000000 
#    z -0.006720 0.000000 1.692270 
# 
# From -- ./inp_files/180720.got.cif
#   From: 2010.05.17/outbox.cif.g08.bks.cpg/sg15_91_cif.got.tgz:180720.got - 2010.06.03 18:47:42.
