data_PCOD9283789
_publ_section_title
;
Structure prediction by ZEFSAII (Michael W. Deem and Ramdas Pophale) SiO2 
 PCOD9283789
Probable space group: C 2/C
;
_chemical_formula_sum "Si O2"
_cell_formula_units_Z 32
_cell_length_a 7.774315
_cell_length_b 16.812646
_cell_length_c 9.067534
_cell_angle_alpha 90.000000
_cell_angle_beta 85.731054
_cell_angle_gamma 90.000000
_cell_volume 1181.900250
_symmetry_space_group_name_H-M "C 2/C"
_symmetry_group_IT_number 15
_symmetry_cell_setting 'monoclinic'
loop_
_space_group_symop_operation_xyz
x,y,z
-x,y,1/2-z
-x,-y,-z
x,-y,1/2+z
1/2+x,1/2+y,z
1/2-x,1/2+y,1/2-z
1/2-x,1/2-y,-z
1/2+x,1/2-y,1/2+z
loop_
_atom_site_type_symbol
_atom_site_label
_atom_site_fract_x
_atom_site_fract_y
_atom_site_fract_z
Si Si1 0.625957 0.437306 0.918803
Si Si2 0.418652 0.702549 0.542999
Si Si3 0.692546 0.080264 0.677282
Si Si4 0.978399 0.626271 0.423817
O O1 0.715163 0.496564 0.793530
O O2 0.797663 0.408878 0.992206
O O3 0.500000 0.500000 0.000000
O O4 0.512293 0.356843 0.921420
O O5 0.250000 0.750000 0.500000
O O6 0.336418 0.648880 0.679060
O O7 0.536969 0.778228 0.567794
O O8 0.500000 0.093581 0.750000
O O9 0.635135 0.088650 0.506615
O O10 0.000000 0.608515 0.250000
#
# Coordination Sequence:
#
# PCOD9283789 Si02
#       4
#     8   8   8   8
#     4  10  21  40  64  93 127 169 213 260 317 379
#     4   9  21  40  63  93 128 167 211 263 318 377
#     4  10  22  43  66  93 128 168 211 261 318 383
#     4  11  23  41  64  95 128 166 212 264 318 377
#
# _framework density 27.075040999999999
#
# number of rings (size 3 to 8) (size 9 to 14) (size 15 to 20)
#    0.000    2.000    0.000    2.250    0.000    6.000 
#    0.000   26.250    0.000    0.000    0.000    0.000 
#    0.000    0.000    0.000    0.000    0.000    0.000 
#
# Total GULP energy -89171.435843 kJ/mol
# GULP energy per Si atom -5573.214740 kJ/mol
# Density = 2.701342 g / cm^3
# Si number density = 27.075041 Si / 1000 Ang^3
#
#
#
# Elastic Constant Matrix: (Units=GPa)
#
#
# Indices 1 2 3 4 5 6 
#
# 1 179.2093 76.5157 34.2445 0.0000 -17.8110 0.0000
# 2 76.5157 219.3831 28.4309 0.0000 -42.2579 0.0000
# 3 34.2445 28.4309 79.7106 0.0000 -6.9192 0.0000
# 4 0.0000 0.0000 0.0000 20.4463 0.0000 -20.7308
# 5 -17.8110 -42.2579 -6.9192 0.0000 39.8717 0.0000
# 6 0.0000 0.0000 0.0000 -20.7308 0.0000 77.9379
#
#
#
# Elastic Compliance Matrix: (Units=1/GPa)
#
#
# Indices 1 2 3 4 5 6 
#
# 1 0.006919 -0.002018 -0.002203 0.000000 0.000570 0.000000
# 2 -0.002018 0.006508 -0.000948 0.000000 0.005832 0.000000
# 3 -0.002203 -0.000948 0.013866 0.000000 0.000417 0.000000
# 4 0.000000 0.000000 0.000000 0.066970 0.000000 0.017813
# 5 0.000570 0.005832 0.000417 0.000000 0.031588 0.000000
# 6 0.000000 0.000000 0.000000 0.017813 0.000000 0.017569
#
#
# Mechanical properties :
#
#
# Convention : Reuss Voigt Hill
#
# Bulk Modulus (GPa) = 58.98011 84.07614 71.52813
# Shear Modulus (GPa) = 31.36533 50.25864 40.81198
#
# Velocity S-wave (km/s) = 3.40731 4.31312 3.88669
# Velocity P-wave (km/s) = 6.10826 7.47826 6.82771
#
# Compressibility (1/GPa) = 0.01695487
#
# Stress axis : x y z
#
# Youngs Moduli (GPa) = 144.52231 153.65056 72.11683
#
# Poissons Ratio (x) = 0.31007 0.15890
# Poissons Ratio (y) = 0.29165 0.06838
# Poissons Ratio (z) = 0.31844 0.14569
#
# Static dielectric constant tensor:
#      x y z
#    x 2.135280 0.000000 0.012070 
#    y 0.000000 2.143230 0.000000 
#    z 0.012070 0.000000 2.282800 
# 
# From -- ./inp_files/76029.got.cif
#   From: 2010.05.17/outbox.cif.g08.bks.cpg/sg15_39_cif.got.tgz:76029.got - 2010.06.03 18:47:42.
