data_PCOD9283507
_publ_section_title
;
Structure prediction by ZEFSAII (Michael W. Deem and Ramdas Pophale) SiO2 
 PCOD9283507
Probable space group: C 2/C
;
_chemical_formula_sum "Si O2"
_cell_formula_units_Z 52
_cell_length_a 8.173459
_cell_length_b 18.239558
_cell_length_c 17.195751
_cell_angle_alpha 90.000000
_cell_angle_beta 89.654464
_cell_angle_gamma 90.000000
_cell_volume 2563.500747
_symmetry_space_group_name_H-M "C 2/C"
_symmetry_group_IT_number 15
_symmetry_cell_setting 'monoclinic'
loop_
_space_group_symop_operation_xyz
x,y,z
-x,y,1/2-z
-x,-y,-z
x,-y,1/2+z
1/2+x,1/2+y,z
1/2-x,1/2+y,1/2-z
1/2-x,1/2-y,-z
1/2+x,1/2-y,1/2+z
loop_
_atom_site_type_symbol
_atom_site_label
_atom_site_fract_x
_atom_site_fract_y
_atom_site_fract_z
Si Si1 0.000000 0.599826 0.750000
Si Si2 0.329657 0.211028 0.926623
Si Si3 0.071893 0.521217 0.123059
Si Si4 0.180444 0.806593 0.261977
Si Si5 0.432959 0.361673 0.875083
Si Si6 0.708518 0.936754 0.994840
Si Si7 0.261495 0.140960 0.280220
O O1 0.956991 0.547275 0.820992
O O2 0.839444 0.648484 0.733523
O O3 0.208038 0.199366 0.854748
O O4 0.447961 0.274470 0.894332
O O5 0.250000 0.250000 0.000000
O O6 0.377260 0.132694 0.961383
O O7 0.106530 0.590226 0.178250
O O8 0.914164 0.535308 0.070690
O O9 0.215942 0.498545 0.061675
O O10 0.188275 0.726383 0.222113
O O11 0.000000 0.839122 0.250000
O O12 0.370601 0.406473 0.950737
O O13 0.294439 0.373131 0.808657
O O14 0.602079 0.377708 0.832492
#
# Coordination Sequence:
#
# PCOD9283507 Si02
#       7
#     4   8   8   8   8   8   8
#     4  12  24  48  68  96 140 176 220 284 332 388
#     4   9  18  37  65  91 128 171 210 273 336 381
#     4  11  24  39  63  94 130 177 221 269 337 398
#     4  11  24  42  70  99 131 174 228 272 331 400
#     4   9  19  38  65  91 126 172 214 274 335 386
#     4  10  21  40  62  89 132 182 208 263 349 396
#     4  10  22  39  64  99 124 165 226 274 320 396
#
# _framework density 20.284761
#
# number of rings (size 3 to 8) (size 9 to 14) (size 15 to 20)
#    0.000    1.846    1.538    2.769    7.538    0.615 
#    5.538    6.923    0.000    0.000    0.000    0.000 
#    0.000    0.000    0.000    0.000    0.000    0.000 
#
# Total GULP energy -144846.377514 kJ/mol
# GULP energy per Si atom -5571.014520 kJ/mol
# Density = 2.023859 g / cm^3
# Si number density = 20.284761 Si / 1000 Ang^3
#
#
#
# Elastic Constant Matrix: (Units=GPa)
#
#
# Indices 1 2 3 4 5 6 
#
# 1 67.8953 18.2200 9.6953 0.0000 -12.2271 0.0000
# 2 18.2200 92.0377 32.7064 0.0000 4.9768 0.0000
# 3 9.6953 32.7064 92.7426 0.0000 -16.1181 0.0000
# 4 0.0000 0.0000 0.0000 31.2579 0.0000 4.7530
# 5 -12.2271 4.9768 -16.1181 0.0000 18.4832 0.0000
# 6 0.0000 0.0000 0.0000 4.7530 0.0000 14.3051
#
#
#
# Elastic Compliance Matrix: (Units=1/GPa)
#
#
# Indices 1 2 3 4 5 6 
#
# 1 0.018794 -0.005636 0.002884 0.000000 0.016466 0.000000
# 2 -0.005636 0.015341 -0.007292 0.000000 -0.014218 0.000000
# 3 0.002884 -0.007292 0.016177 0.000000 0.017979 0.000000
# 4 0.000000 0.000000 0.000000 0.033694 0.000000 -0.011195
# 5 0.016466 -0.014218 0.017979 0.000000 0.084502 0.000000
# 6 0.000000 0.000000 0.000000 -0.011195 0.000000 0.073625
#
#
# Mechanical properties :
#
#
# Convention : Reuss Voigt Hill
#
# Bulk Modulus (GPa) = 33.08453 41.54656 37.31555
# Shear Modulus (GPa) = 18.36241 25.61284 21.98763
#
# Velocity S-wave (km/s) = 3.01197 3.55725 3.29591
# Velocity P-wave (km/s) = 5.33305 6.11541 5.73758
#
# Compressibility (1/GPa) = 0.03022560
#
# Stress axis : x y z
#
# Youngs Moduli (GPa) = 53.20745 65.18552 61.81584
#
# Poissons Ratio (x) = 0.36738 -0.17830
# Poissons Ratio (y) = 0.29987 0.45075
# Poissons Ratio (z) = -0.15347 0.47532
#
# Static dielectric constant tensor:
#      x y z
#    x 1.730140 0.000000 -0.033400 
#    y 0.000000 1.770730 0.000000 
#    z -0.033400 0.000000 1.722030 
# 
# From -- ./inp_files/190399.got.cif
#   From: 2010.05.17/outbox.cif.g08.bks.cpg/sg15_96_cif.got.tgz:190399.got - 2010.06.03 18:47:42.
