data_PCOD9283611
_publ_section_title
;
Structure prediction by ZEFSAII (Michael W. Deem and Ramdas Pophale) SiO2 
 PCOD9283611
Probable space group: C 2/C
;
_chemical_formula_sum "Si O2"
_cell_formula_units_Z 48
_cell_length_a 14.852857
_cell_length_b 23.014914
_cell_length_c 12.331466
_cell_angle_alpha 90.000000
_cell_angle_beta 145.307149
_cell_angle_gamma 90.000000
_cell_volume 2399.282356
_symmetry_space_group_name_H-M "C 2/C"
_symmetry_group_IT_number 15
_symmetry_cell_setting 'monoclinic'
loop_
_space_group_symop_operation_xyz
x,y,z
-x,y,1/2-z
-x,-y,-z
x,-y,1/2+z
1/2+x,1/2+y,z
1/2-x,1/2+y,1/2-z
1/2-x,1/2-y,-z
1/2+x,1/2-y,1/2+z
loop_
_atom_site_type_symbol
_atom_site_label
_atom_site_fract_x
_atom_site_fract_y
_atom_site_fract_z
Si Si1 0.154273 0.973304 0.713529
Si Si2 0.700392 0.296758 0.740906
Si Si3 0.829336 0.169477 0.871530
Si Si4 0.800811 0.590827 0.941335
Si Si5 0.170110 0.870497 0.900450
Si Si6 0.826139 0.389389 0.713601
O O1 0.254320 0.026474 0.858741
O O2 0.133733 0.928990 0.795755
O O3 0.246326 0.935681 0.715188
O O4 0.000000 0.000000 0.500000
O O5 0.731693 0.228981 0.779804
O O6 0.515090 0.313571 0.551393
O O7 0.765735 0.329173 0.914022
O O8 0.784753 0.326597 0.722090
O O9 0.793615 0.134628 0.727936
O O10 0.776053 0.128946 0.921609
O O11 0.763965 0.601291 0.030733
O O12 0.986425 0.601252 0.105721
O O13 0.000000 0.840522 0.750000
#
# Coordination Sequence:
#
# PCOD9283611 Si02
#       6
#     8   8   8   8   8   8
#     4  11  23  39  65  90 127 167 206 264 310 381
#     4  10  21  40  63  89 127 162 207 263 311 380
#     4  11  22  39  65  95 124 167 210 260 322 375
#     4  11  24  40  64  88 125 168 209 266 308 381
#     4   9  20  37  59  94 124 161 205 251 311 375
#     4  10  24  44  59  90 124 165 219 254 322 370
#
# _framework density 20.005981999999999
#
# number of rings (size 3 to 8) (size 9 to 14) (size 15 to 20)
#    0.000    1.667    0.000    5.000    4.667    2.667 
#    0.000    5.833    0.000    0.000    0.000    0.000 
#    0.000    0.000    0.000    0.000    0.000    0.000 
#
# Total GULP energy -133875.132420 kJ/mol
# GULP energy per Si atom -5578.130517 kJ/mol
# Density = 1.996045 g / cm^3
# Si number density = 20.005982 Si / 1000 Ang^3
#
#
#
# Elastic Constant Matrix: (Units=GPa)
#
#
# Indices 1 2 3 4 5 6 
#
# 1 124.5335 46.4018 55.4488 0.0000 -32.3669 0.0000
# 2 46.4018 102.1163 37.4821 0.0000 -18.1801 0.0000
# 3 55.4488 37.4821 86.5330 0.0000 -30.0198 0.0000
# 4 0.0000 0.0000 0.0000 31.6912 0.0000 8.8291
# 5 -32.3669 -18.1801 -30.0198 0.0000 28.1107 0.0000
# 6 0.0000 0.0000 0.0000 8.8291 0.0000 21.5783
#
#
#
# Elastic Compliance Matrix: (Units=1/GPa)
#
#
# Indices 1 2 3 4 5 6 
#
# 1 0.013301 -0.002923 -0.004129 0.000000 0.009014 0.000000
# 2 -0.002923 0.012496 -0.003024 0.000000 0.001486 0.000000
# 3 -0.004129 -0.003024 0.020943 0.000000 0.015655 0.000000
# 4 0.000000 0.000000 0.000000 0.035614 0.000000 -0.014572
# 5 0.009014 0.001486 0.015655 0.000000 0.063632 0.000000
# 6 0.000000 0.000000 0.000000 -0.014572 0.000000 0.052305
#
#
# Mechanical properties :
#
#
# Convention : Reuss Voigt Hill
#
# Bulk Modulus (GPa) = 37.61301 65.76093 51.68697
# Shear Modulus (GPa) = 21.99673 27.86603 24.93138
#
# Velocity S-wave (km/s) = 3.31948 3.73619 3.53398
# Velocity P-wave (km/s) = 5.79082 7.18012 6.52257
#
# Compressibility (1/GPa) = 0.02658655
#
# Stress axis : x y z
#
# Youngs Moduli (GPa) = 75.18440 80.02824 47.74820
#
# Poissons Ratio (x) = 0.23395 0.19717
# Poissons Ratio (y) = 0.21979 0.14437
# Poissons Ratio (z) = 0.31047 0.24198
#
# Static dielectric constant tensor:
#      x y z
#    x 1.714180 0.000000 -0.023950 
#    y 0.000000 1.696430 0.000000 
#    z -0.023950 0.000000 1.758170 
# 
# From -- ./inp_files/100069.got.cif
#   From: 2010.05.17/outbox.cif.g08.bks.cpg/sg15_51_cif.got.tgz:100069.got - 2010.06.03 18:47:42.
