data_PCOD9283734
_publ_section_title
;
Structure prediction by ZEFSAII (Michael W. Deem and Ramdas Pophale) SiO2 
 PCOD9283734
Probable space group: C 2/C
;
_chemical_formula_sum "Si O2"
_cell_formula_units_Z 36
_cell_length_a 20.259023
_cell_length_b 8.575232
_cell_length_c 14.461208
_cell_angle_alpha 90.000000
_cell_angle_beta 46.884581
_cell_angle_gamma 90.000000
_cell_volume 1833.913900
_symmetry_space_group_name_H-M "C 2/C"
_symmetry_group_IT_number 15
_symmetry_cell_setting 'monoclinic'
loop_
_space_group_symop_operation_xyz
x,y,z
-x,y,1/2-z
-x,-y,-z
x,-y,1/2+z
1/2+x,1/2+y,z
1/2-x,1/2+y,1/2-z
1/2-x,1/2-y,-z
1/2+x,1/2-y,1/2+z
loop_
_atom_site_type_symbol
_atom_site_label
_atom_site_fract_x
_atom_site_fract_y
_atom_site_fract_z
Si Si1 0.454193 0.365473 0.632914
Si Si2 0.204744 0.337313 0.130238
Si Si3 0.000000 0.897352 0.250000
Si Si4 0.136011 0.848877 0.371427
Si Si5 0.832132 0.697428 0.358313
O O1 0.383522 0.254661 0.750981
O O2 0.495879 0.488200 0.666287
O O3 0.540034 0.283326 0.502351
O O4 0.393798 0.473259 0.622951
O O5 0.282903 0.342710 0.133497
O O6 0.172024 0.511425 0.139295
O O7 0.250000 0.250000 0.000000
O O8 0.084000 0.782347 0.173999
O O9 0.166357 0.763891 0.248086
O O10 0.750000 0.750000 0.500000
#
# Coordination Sequence:
#
# PCOD9283734 Si02
#       5
#     8   8   4   8   8
#     4  10  21  40  64  89 126 167 205 255 309 365
#     4  12  24  39  65  96 125 162 210 258 306 368
#     4  10  22  42  62  88 128 166 204 252 312 370
#     4  10  22  41  63  89 125 166 205 254 313 368
#     4  11  24  41  64  92 126 166 205 254 310 370
#
# _framework density 19.630146
#
# number of rings (size 3 to 8) (size 9 to 14) (size 15 to 20)
#    0.000    1.333    0.000    6.667    0.000    7.111 
#    0.000    0.000    0.000    0.000    0.000    0.000 
#    0.000    0.000    0.000    0.000    0.000    0.000 
#
# Total GULP energy -100531.823216 kJ/mol
# GULP energy per Si atom -5585.101290 kJ/mol
# Density = 1.958547 g / cm^3
# Si number density = 19.630146 Si / 1000 Ang^3
#
#
#
# Elastic Constant Matrix: (Units=GPa)
#
#
# Indices 1 2 3 4 5 6 
#
# 1 142.3159 62.5305 71.4935 0.0000 -5.8378 0.0000
# 2 62.5305 121.8492 84.8053 -0.0002 -0.2271 0.0002
# 3 71.4935 84.8053 207.1004 0.0000 -7.6779 0.0000
# 4 0.0000 -0.0002 0.0000 34.6751 0.0000 -0.9675
# 5 -5.8378 -0.2271 -7.6779 0.0000 16.3848 0.0000
# 6 0.0000 0.0002 0.0000 -0.9675 0.0000 18.2805
#
#
#
# Elastic Compliance Matrix: (Units=1/GPa)
#
#
# Indices 1 2 3 4 5 6 
#
# 1 0.009635 -0.003764 -0.001689 0.000000 0.002589 0.000000
# 2 -0.003764 0.013019 -0.004147 0.000000 -0.003104 0.000000
# 3 -0.001689 -0.004147 0.007210 0.000000 0.002720 0.000000
# 4 0.000000 0.000000 0.000000 0.028882 0.000000 0.001529
# 5 0.002589 -0.003104 0.002720 0.000000 0.063186 0.000000
# 6 0.000000 0.000000 0.000000 0.001529 0.000000 0.054784
#
#
# Mechanical properties :
#
#
# Convention : Reuss Voigt Hill
#
# Bulk Modulus (GPa) = 93.76539 100.99156 97.37847
# Shear Modulus (GPa) = 25.06633 30.69717 27.88175
#
# Velocity S-wave (km/s) = 3.57729 3.95875 3.77285
# Velocity P-wave (km/s) = 8.05806 8.51202 8.28815
#
# Compressibility (1/GPa) = 0.01066492
#
# Stress axis : x y z
#
# Youngs Moduli (GPa) = 103.78636 76.81130 138.68943
#
# Poissons Ratio (x) = 0.28915 0.23420
# Poissons Ratio (y) = 0.39070 0.57510
# Poissons Ratio (z) = 0.17526 0.31851
#
# Static dielectric constant tensor:
#      x y z
#    x 1.672640 0.000000 0.034000 
#    y 0.000000 1.674570 0.000000 
#    z 0.034000 0.000000 1.712550 
# 
# From -- ./inp_files/159581.got.cif
#   From: 2010.05.17/outbox.cif.g08.bks.cpg/sg15_80_cif.got.tgz:159581.got - 2010.06.03 18:47:42.
