data_PCOD9283954
_publ_section_title
;
Structure prediction by ZEFSAII (Michael W. Deem and Ramdas Pophale) SiO2 
 PCOD9283954
Probable space group: C 2/C
;
_chemical_formula_sum "Si O2"
_cell_formula_units_Z 44
_cell_length_a 24.290594
_cell_length_b 8.616586
_cell_length_c 25.284921
_cell_angle_alpha 90.000000
_cell_angle_beta 161.112714
_cell_angle_gamma 90.000000
_cell_volume 1713.119617
_symmetry_space_group_name_H-M "C 2/C"
_symmetry_group_IT_number 15
_symmetry_cell_setting 'monoclinic'
loop_
_space_group_symop_operation_xyz
x,y,z
-x,y,1/2-z
-x,-y,-z
x,-y,1/2+z
1/2+x,1/2+y,z
1/2-x,1/2+y,1/2-z
1/2-x,1/2-y,-z
1/2+x,1/2-y,1/2+z
loop_
_atom_site_type_symbol
_atom_site_label
_atom_site_fract_x
_atom_site_fract_y
_atom_site_fract_z
Si Si1 0.786048 0.694393 0.149795
Si Si2 0.663144 0.465059 0.966685
Si Si3 0.500000 0.283189 0.250000
Si Si4 0.648062 0.806492 0.172218
Si Si5 0.500000 0.500000 0.000000
Si Si6 0.957090 0.430568 0.538660
Si Si7 0.000000 0.273662 0.250000
O O1 0.922991 0.688619 0.227988
O O2 0.880352 0.660715 0.289773
O O3 0.657004 0.554366 0.017543
O O4 0.699098 0.862077 0.069638
O O5 0.637613 0.603672 0.901592
O O6 0.526056 0.337597 0.824694
O O7 0.837901 0.377315 0.114939
O O8 0.621203 0.622774 0.144192
O O9 0.836177 0.874180 0.354783
O O10 0.515367 0.892742 0.091274
O O11 0.591337 0.869198 0.062851
#
# Coordination Sequence:
#
# PCOD9283954 Si02
#       7
#     8   8   4   8   4   8   4
#     4  12  23  42  71 115 150 202 272 325 401 480
#     4  10  21  40  65  95 143 206 256 329 385 466
#     4  11  23  40  70 110 151 201 258 336 374 470
#     4  11  25  49  79 116 159 204 255 340 398 479
#     4  12  24  48  92 116 160 206 256 318 428 472
#     4  11  25  43  72 110 155 203 262 328 401 480
#     4   9  21  40  66  88 143 211 262 314 414 442
#
# _framework density 25.684137
#
# number of rings (size 3 to 8) (size 9 to 14) (size 15 to 20)
#    0.000    1.091    1.818    5.455    2.545    0.000 
#    0.000    5.455    0.000    0.000    0.000    0.000 
#    0.000    0.000    0.000    0.000    0.000    0.182 
#
# Total GULP energy -122515.302242 kJ/mol
# GULP energy per Si atom -5568.877375 kJ/mol
# Density = 2.562568 g / cm^3
# Si number density = 25.684137 Si / 1000 Ang^3
#
#
#
# Elastic Constant Matrix: (Units=GPa)
#
#
# Indices 1 2 3 4 5 6 
#
# 1 49.9335 15.7565 24.5925 0.0001 1.7605 0.0000
# 2 15.7565 147.3648 40.7216 0.0012 23.4024 0.0002
# 3 24.5925 40.7216 138.5387 0.0019 -20.2460 -0.0003
# 4 0.0001 0.0012 0.0019 51.9590 -0.0001 -2.3032
# 5 1.7605 23.4024 -20.2460 -0.0001 27.6448 -0.0006
# 6 0.0000 0.0002 -0.0003 -2.3032 -0.0006 36.8506
#
#
#
# Elastic Compliance Matrix: (Units=1/GPa)
#
#
# Indices 1 2 3 4 5 6 
#
# 1 0.022543 -0.000485 -0.004489 0.000000 -0.004313 0.000000
# 2 -0.000485 0.009961 -0.004558 0.000000 -0.011740 0.000000
# 3 -0.004489 -0.004558 0.011154 0.000000 0.012313 0.000000
# 4 0.000000 0.000000 0.000000 0.019299 0.000000 0.001206
# 5 -0.004313 -0.011740 0.012313 0.000000 0.055404 0.000001
# 6 0.000000 0.000000 0.000000 0.001206 0.000001 0.027212
#
#
# Mechanical properties :
#
#
# Convention : Reuss Voigt Hill
#
# Bulk Modulus (GPa) = 40.65916 55.33090 47.99503
# Shear Modulus (GPa) = 28.92925 40.27530 34.60228
#
# Velocity S-wave (km/s) = 3.35975 3.96422 3.67444
# Velocity P-wave (km/s) = 5.56016 6.52250 6.06046
#
# Compressibility (1/GPa) = 0.02459470
#
# Stress axis : x y z
#
# Youngs Moduli (GPa) = 44.36013 100.38691 89.65226
#
# Poissons Ratio (x) = 0.04867 0.40249
# Poissons Ratio (y) = 0.02150 0.40860
# Poissons Ratio (z) = 0.19915 0.45752
#
# Static dielectric constant tensor:
#      x y z
#    x 2.092250 0.000000 0.015720 
#    y 0.000000 2.049620 0.000000 
#    z 0.015720 0.000000 2.116800 
# 
# From -- ./inp_files/303183.got.cif
#   From: 2010.05.17/outbox.cif.g08.bks.cpg/sg15_152_cif.got.tgz:303183.got - 2010.06.03 18:47:42.
