data_PCOD9283168
_publ_section_title
;
Structure prediction by ZEFSAII (Michael W. Deem and Ramdas Pophale) SiO2 
 PCOD9283168
Probable space group: C 2/C
;
_chemical_formula_sum "Si O2"
_cell_formula_units_Z 32
_cell_length_a 29.281846
_cell_length_b 5.794660
_cell_length_c 18.389749
_cell_angle_alpha 90.000000
_cell_angle_beta 151.433901
_cell_angle_gamma 90.000000
_cell_volume 1492.061121
_symmetry_space_group_name_H-M "C 2/C"
_symmetry_group_IT_number 15
_symmetry_cell_setting 'monoclinic'
loop_
_space_group_symop_operation_xyz
x,y,z
-x,y,1/2-z
-x,-y,-z
x,-y,1/2+z
1/2+x,1/2+y,z
1/2-x,1/2+y,1/2-z
1/2-x,1/2-y,-z
1/2+x,1/2-y,1/2+z
loop_
_atom_site_type_symbol
_atom_site_label
_atom_site_fract_x
_atom_site_fract_y
_atom_site_fract_z
Si Si1 0.463353 0.911036 0.051750
Si Si2 0.670817 0.315272 0.831629
Si Si3 0.445592 0.694638 0.878115
Si Si4 0.270008 0.234974 0.317408
O O1 0.568827 0.803661 0.206800
O O2 0.483162 0.183395 0.078373
O O3 0.422489 0.862015 0.912934
O O4 0.382965 0.807070 0.990250
O O5 0.643889 0.585718 0.787173
O O6 0.710492 0.250685 0.808018
O O7 0.750000 0.250000 0.000000
O O8 0.500000 0.500000 0.000000
O O9 0.259039 0.484276 0.260707
#
# Coordination Sequence:
#
# PCOD9283168 Si02
#       4
#     8   8   8   8
#     4  10  21  39  68  94 135 181 229 287 343 422
#     4  11  25  42  66 101 144 182 229 295 365 415
#     4   9  17  37  63  92 123 174 221 276 335 407
#     4  12  25  43  73 107 132 183 245 289 345 435
#
# _framework density 21.446840999999999
#
# number of rings (size 3 to 8) (size 9 to 14) (size 15 to 20)
#    0.000    1.500    2.500    4.500    3.500    2.000 
#    0.000    0.000    0.000    0.000    0.000    0.000 
#    0.000    0.000    0.000    0.000    0.000    0.000 
#
# Total GULP energy -89103.459187 kJ/mol
# GULP energy per Si atom -5568.966199 kJ/mol
# Density = 2.139803 g / cm^3
# Si number density = 21.446841 Si / 1000 Ang^3
#
#
#
# Elastic Constant Matrix: (Units=GPa)
#
#
# Indices 1 2 3 4 5 6 
#
# 1 78.1663 33.4059 44.9436 0.0000 34.3873 0.0000
# 2 33.4059 104.4280 64.6628 0.0000 1.1331 0.0000
# 3 44.9436 64.6628 151.2343 0.0000 26.0249 0.0000
# 4 0.0000 0.0000 0.0000 40.8817 0.0000 17.4153
# 5 34.3873 1.1331 26.0249 0.0000 38.8023 0.0000
# 6 0.0000 0.0000 0.0000 17.4153 0.0000 29.1371
#
#
#
# Elastic Compliance Matrix: (Units=1/GPa)
#
#
# Indices 1 2 3 4 5 6 
#
# 1 0.026602 -0.007905 -0.000575 0.000000 -0.022959 0.000000
# 2 -0.007905 0.015886 -0.006296 0.000000 0.010764 0.000000
# 3 -0.000575 -0.006296 0.010576 0.000000 -0.006400 0.000000
# 4 0.000000 0.000000 0.000000 0.032816 0.000000 -0.019614
# 5 -0.022959 0.010764 -0.006400 0.000000 0.050097 0.000000
# 6 0.000000 0.000000 0.000000 -0.019614 0.000000 0.046044
#
#
# Mechanical properties :
#
#
# Convention : Reuss Voigt Hill
#
# Bulk Modulus (GPa) = 42.52766 68.87259 55.70012
# Shear Modulus (GPa) = 22.78834 34.48530 28.63682
#
# Velocity S-wave (km/s) = 3.26321 4.01427 3.65807
# Velocity P-wave (km/s) = 5.83699 7.32589 6.62341
#
# Compressibility (1/GPa) = 0.02351411
#
# Stress axis : x y z
#
# Youngs Moduli (GPa) = 37.59079 62.94803 94.55147
#
# Poissons Ratio (x) = 0.49759 0.05436
# Poissons Ratio (y) = 0.29715 0.59525
# Poissons Ratio (z) = 0.02161 0.39629
#
# Static dielectric constant tensor:
#      x y z
#    x 1.833970 0.000000 0.043620 
#    y 0.000000 2.006290 0.000000 
#    z 0.043620 0.000000 1.794800 
# 
# From -- ./inp_files/158188.got.cif
#   From: 2010.05.17/outbox.cif.g08.bks.cpg/sg15_80_cif.got.tgz:158188.got - 2010.06.03 18:47:42.
