data_PCOD9283535
_publ_section_title
;
Structure prediction by ZEFSAII (Michael W. Deem and Ramdas Pophale) SiO2 
 PCOD9283535
Probable space group: C 2/C
;
_chemical_formula_sum "Si O2"
_cell_formula_units_Z 40
_cell_length_a 11.819911
_cell_length_b 10.442183
_cell_length_c 13.359879
_cell_angle_alpha 90.000000
_cell_angle_beta 103.211542
_cell_angle_gamma 90.000000
_cell_volume 1605.309059
_symmetry_space_group_name_H-M "C 2/C"
_symmetry_group_IT_number 15
_symmetry_cell_setting 'monoclinic'
loop_
_space_group_symop_operation_xyz
x,y,z
-x,y,1/2-z
-x,-y,-z
x,-y,1/2+z
1/2+x,1/2+y,z
1/2-x,1/2+y,1/2-z
1/2-x,1/2-y,-z
1/2+x,1/2-y,1/2+z
loop_
_atom_site_type_symbol
_atom_site_label
_atom_site_fract_x
_atom_site_fract_y
_atom_site_fract_z
Si Si1 0.105442 0.419796 0.067807
Si Si2 0.120913 0.606351 0.237374
Si Si3 0.819984 0.220664 0.157258
Si Si4 0.545299 0.351325 0.608138
Si Si5 0.234776 0.006430 0.562052
O O1 0.104899 0.466190 0.183153
O O2 0.077630 0.271504 0.047793
O O3 0.225337 0.460359 0.039401
O O4 0.000000 0.500000 0.000000
O O5 0.191497 0.679623 0.166419
O O6 0.195063 0.591756 0.351563
O O7 0.000000 0.661813 0.250000
O O8 0.892137 0.189706 0.274030
O O9 0.794302 0.358110 0.101798
O O10 0.906093 0.149026 0.096410
O O11 0.606041 0.477998 0.577594
#
# Coordination Sequence:
#
# PCOD9283535 Si02
#       5
#     8   8   8   8   8
#     4  12  21  37  68  88 119 162 210 253 308 376
#     4  11  22  40  61  91 119 160 212 251 306 375
#     4  10  21  40  63  85 128 165 197 261 314 366
#     4  10  21  40  62  92 121 162 211 248 315 376
#     4  11  22  40  65  89 121 164 204 258 308 376
#
# _framework density 24.917321999999999
#
# number of rings (size 3 to 8) (size 9 to 14) (size 15 to 20)
#    0.000    1.200    6.000    0.600    0.000    0.800 
#    7.200    1.000    0.000    0.000    0.000    0.000 
#    0.000    0.000    0.000    0.000    0.000    0.000 
#
# Total GULP energy -111623.826459 kJ/mol
# GULP energy per Si atom -5581.191323 kJ/mol
# Density = 2.486061 g / cm^3
# Si number density = 24.917322 Si / 1000 Ang^3
#
#
#
# Elastic Constant Matrix: (Units=GPa)
#
#
# Indices 1 2 3 4 5 6 
#
# 1 206.1415 43.3959 22.1283 0.0000 -48.4103 0.0000
# 2 43.3959 66.0393 12.4044 0.0000 -36.3808 0.0000
# 3 22.1283 12.4044 76.4227 0.0000 -23.7677 0.0000
# 4 0.0000 0.0000 0.0000 20.1334 0.0000 -9.1646
# 5 -48.4103 -36.3808 -23.7677 0.0000 51.4820 0.0000
# 6 0.0000 0.0000 0.0000 -9.1646 0.0000 40.1288
#
#
#
# Elastic Compliance Matrix: (Units=1/GPa)
#
#
# Indices 1 2 3 4 5 6 
#
# 1 0.006308 -0.001445 -0.000076 0.000000 0.004876 0.000000
# 2 -0.001445 0.025309 0.001693 0.000000 0.017308 0.000000
# 3 -0.000076 0.001693 0.015392 0.000000 0.008232 0.000000
# 4 0.000000 0.000000 0.000000 0.055431 0.000000 0.012659
# 5 0.004876 0.017308 0.008232 0.000000 0.040041 0.000000
# 6 0.000000 0.000000 0.000000 0.012659 0.000000 0.027811
#
#
# Mechanical properties :
#
#
# Convention : Reuss Voigt Hill
#
# Bulk Modulus (GPa) = 21.11719 56.05118 38.58419
# Shear Modulus (GPa) = 26.92053 40.39383 33.65718
#
# Velocity S-wave (km/s) = 3.29050 4.03067 3.67925
# Velocity P-wave (km/s) = 4.78851 6.64872 5.79376
#
# Compressibility (1/GPa) = 0.04735478
#
# Stress axis : x y z
#
# Youngs Moduli (GPa) = 158.51806 39.51171 64.96783
#
# Poissons Ratio (x) = 0.05710 0.00491
# Poissons Ratio (y) = 0.22907 -0.11001
# Poissons Ratio (z) = 0.01199 -0.06690
#
# Static dielectric constant tensor:
#      x y z
#    x 2.025320 0.000000 0.029700 
#    y 0.000000 2.014870 0.000000 
#    z 0.029700 0.000000 2.039540 
# 
# From -- ./inp_files/141758.got.cif
#   From: 2010.05.17/outbox.cif.g08.bks.cpg/sg15_71_cif.got.tgz:141758.got - 2010.06.03 18:47:42.
