data_PCOD9283656
_publ_section_title
;
Structure prediction by ZEFSAII (Michael W. Deem and Ramdas Pophale) SiO2 
 PCOD9283656
Probable space group: C 2/C
;
_chemical_formula_sum "Si O2"
_cell_formula_units_Z 48
_cell_length_a 11.525339
_cell_length_b 11.949850
_cell_length_c 18.167638
_cell_angle_alpha 90.000000
_cell_angle_beta 107.035125
_cell_angle_gamma 90.000000
_cell_volume 2392.376114
_symmetry_space_group_name_H-M "C 2/C"
_symmetry_group_IT_number 15
_symmetry_cell_setting 'monoclinic'
loop_
_space_group_symop_operation_xyz
x,y,z
-x,y,1/2-z
-x,-y,-z
x,-y,1/2+z
1/2+x,1/2+y,z
1/2-x,1/2+y,1/2-z
1/2-x,1/2-y,-z
1/2+x,1/2-y,1/2+z
loop_
_atom_site_type_symbol
_atom_site_label
_atom_site_fract_x
_atom_site_fract_y
_atom_site_fract_z
Si Si1 0.678349 0.211107 0.413553
Si Si2 0.800201 0.838741 0.790372
Si Si3 0.985064 0.137576 0.932549
Si Si4 0.538882 0.618316 0.408705
Si Si5 0.881268 0.495433 0.680526
Si Si6 0.784082 0.724429 0.632799
O O1 0.750000 0.250000 0.500000
O O2 0.749044 0.232813 0.350202
O O3 0.552036 0.275850 0.393050
O O4 0.643402 0.080274 0.396666
O O5 0.768689 0.785602 0.707549
O O6 0.942952 0.853251 0.827605
O O7 0.732875 0.957856 0.789907
O O8 0.841250 0.159417 0.906530
O O9 0.017060 0.158111 0.024018
O O10 0.035157 0.015617 0.919078
O O11 0.663434 0.682520 0.413589
O O12 0.880853 0.624576 0.659763
O O13 0.000000 0.465297 0.750000
#
# Coordination Sequence:
#
# PCOD9283656 Si02
#       6
#     8   8   8   8   8   8
#     4  10  21  42  69  88 130 175 216 277 331 388
#     4  10  22  41  64  94 128 169 215 270 331 392
#     4  11  22  43  68  94 132 171 226 269 330 411
#     4  11  23  42  67  96 133 173 213 280 331 392
#     4  10  21  40  63  92 132 165 215 273 326 393
#     4  12  24  41  67  99 136 170 220 277 341 402
#
# _framework density 20.063735000000001
#
# number of rings (size 3 to 8) (size 9 to 14) (size 15 to 20)
#    1.000    0.333    3.333    3.000    2.333    1.333 
#    3.000    2.500    0.000    0.000    0.000    0.000 
#    0.000    0.000    0.000    0.000    0.000    0.000 
#
# Total GULP energy -133613.226181 kJ/mol
# GULP energy per Si atom -5567.217758 kJ/mol
# Density = 2.001807 g / cm^3
# Si number density = 20.063735 Si / 1000 Ang^3
#
#
#
# Elastic Constant Matrix: (Units=GPa)
#
#
# Indices 1 2 3 4 5 6 
#
# 1 70.9980 41.0614 12.8203 0.0000 -6.4878 0.0000
# 2 41.0614 98.9891 30.3998 0.0000 -18.2526 0.0000
# 3 12.8203 30.3998 71.0487 0.0000 -11.8614 0.0000
# 4 0.0000 0.0000 0.0000 18.7499 0.0000 -5.5393
# 5 -6.4878 -18.2526 -11.8614 0.0000 38.7396 0.0000
# 6 0.0000 0.0000 0.0000 -5.5393 0.0000 35.3640
#
#
#
# Elastic Compliance Matrix: (Units=1/GPa)
#
#
# Indices 1 2 3 4 5 6 
#
# 1 0.018543 -0.007763 -0.000123 0.000000 -0.000590 0.000000
# 2 -0.007763 0.015556 -0.004478 0.000000 0.004658 0.000000
# 3 -0.000123 -0.004478 0.016501 0.000000 0.002922 0.000000
# 4 0.000000 0.000000 0.000000 0.055921 0.000000 0.008759
# 5 -0.000590 0.004658 0.002922 0.000000 0.028804 0.000000
# 6 0.000000 0.000000 0.000000 0.008759 0.000000 0.029649
#
#
# Mechanical properties :
#
#
# Convention : Reuss Voigt Hill
#
# Bulk Modulus (GPa) = 38.65005 45.51097 42.08051
# Shear Modulus (GPa) = 25.21108 29.02097 27.11602
#
# Velocity S-wave (km/s) = 3.54863 3.80733 3.68026
# Velocity P-wave (km/s) = 6.00798 6.48538 6.25124
#
# Compressibility (1/GPa) = 0.02587319
#
# Stress axis : x y z
#
# Youngs Moduli (GPa) = 53.92954 64.28306 60.60346
#
# Poissons Ratio (x) = 0.49901 0.00745
# Poissons Ratio (y) = 0.41864 0.27136
# Poissons Ratio (z) = 0.00663 0.28784
#
# Static dielectric constant tensor:
#      x y z
#    x 1.737560 0.000000 0.045410 
#    y 0.000000 1.708780 0.000000 
#    z 0.045410 0.000000 1.721940 
# 
# From -- ./inp_files/196615.got.cif
#   From: 2010.05.17/outbox.cif.g08.bks.cpg/sg15_99_cif.got.tgz:196615.got - 2010.06.03 18:47:42.
