data_PCOD9283414
_publ_section_title
;
Structure prediction by ZEFSAII (Michael W. Deem and Ramdas Pophale) SiO2 
 PCOD9283414
Probable space group: C 2/C
;
_chemical_formula_sum "Si O2"
_cell_formula_units_Z 48
_cell_length_a 16.752785
_cell_length_b 27.187819
_cell_length_c 5.565016
_cell_angle_alpha 90.000000
_cell_angle_beta 55.991055
_cell_angle_gamma 90.000000
_cell_volume 2101.146214
_symmetry_space_group_name_H-M "C 2/C"
_symmetry_group_IT_number 15
_symmetry_cell_setting 'monoclinic'
loop_
_space_group_symop_operation_xyz
x,y,z
-x,y,1/2-z
-x,-y,-z
x,-y,1/2+z
1/2+x,1/2+y,z
1/2-x,1/2+y,1/2-z
1/2-x,1/2-y,-z
1/2+x,1/2-y,1/2+z
loop_
_atom_site_type_symbol
_atom_site_label
_atom_site_fract_x
_atom_site_fract_y
_atom_site_fract_z
Si Si1 0.360038 0.017431 0.595780
Si Si2 0.142484 0.017577 0.876319
Si Si3 0.000000 0.306526 0.250000
Si Si4 0.000000 0.791986 0.250000
Si Si5 0.552441 0.388019 0.406335
Si Si6 0.150156 0.725078 0.106797
Si Si7 0.103139 0.371043 0.446996
O O1 0.250932 0.998474 0.737669
O O2 0.355065 0.075335 0.656566
O O3 0.403769 0.991311 0.757048
O O4 0.140564 0.074777 0.799201
O O5 0.099306 0.989212 0.717519
O O6 0.929477 0.277079 0.546776
O O7 0.074905 0.342991 0.253932
O O8 0.053373 0.830051 0.342019
O O9 0.089393 0.757700 0.016744
O O10 0.500000 0.407038 0.250000
O O11 0.500000 0.391267 0.750000
O O12 0.162922 0.669146 0.996759
O O13 0.250000 0.750000 0.000000
O O14 0.000000 0.377191 0.750000
#
# Coordination Sequence:
#
# PCOD9283414 Si02
#       7
#     8   8   4   4   8   8   8
#     4  10  24  42  64  97 134 175 227 288 349 423
#     4  10  21  40  61  89 131 171 222 278 338 413
#     4  10  22  46  68  99 143 172 238 296 340 436
#     4  10  24  44  58 103 143 166 236 294 330 432
#     4  10  23  37  61  92 126 173 215 281 336 401
#     4  11  24  45  72 101 141 187 232 292 365 414
#     4  10  23  42  66  99 132 175 232 290 346 427
#
# _framework density 22.844674000000001
#
# number of rings (size 3 to 8) (size 9 to 14) (size 15 to 20)
#    0.500    1.333    2.500    1.000    8.167    3.333 
#    3.000    0.000    0.000    0.000    0.000    0.000 
#    0.000    0.000    0.000    0.000    0.000    0.000 
#
# Total GULP energy -133602.681913 kJ/mol
# GULP energy per Si atom -5566.778413 kJ/mol
# Density = 2.279268 g / cm^3
# Si number density = 22.844674 Si / 1000 Ang^3
#
#
#
# Elastic Constant Matrix: (Units=GPa)
#
#
# Indices 1 2 3 4 5 6 
#
# 1 109.8522 44.3618 44.6674 0.0000 15.1048 0.0000
# 2 44.3618 146.7167 19.7227 0.0000 7.5087 0.0000
# 3 44.6674 19.7227 87.8556 0.0000 30.4649 0.0000
# 4 0.0000 0.0000 0.0000 14.1308 0.0000 -3.2882
# 5 15.1048 7.5087 30.4649 0.0000 34.1901 0.0000
# 6 0.0000 0.0000 0.0000 -3.2882 0.0000 32.2129
#
#
#
# Elastic Compliance Matrix: (Units=1/GPa)
#
#
# Indices 1 2 3 4 5 6 
#
# 1 0.012683 -0.003062 -0.005863 0.000000 0.000293 0.000000
# 2 -0.003062 0.007768 -0.000094 0.000000 -0.000270 0.000000
# 3 -0.005863 -0.000094 0.019506 0.000000 -0.014770 0.000000
# 4 0.000000 0.000000 0.000000 0.072489 0.000000 0.007399
# 5 0.000293 -0.000270 -0.014770 0.000000 0.042339 0.000000
# 6 0.000000 0.000000 0.000000 0.007399 0.000000 0.031799
#
#
# Mechanical properties :
#
#
# Convention : Reuss Voigt Hill
#
# Bulk Modulus (GPa) = 45.61881 62.43648 54.02764
# Shear Modulus (GPa) = 23.59310 31.81825 27.70568
#
# Velocity S-wave (km/s) = 3.21715 3.73608 3.48628
# Velocity P-wave (km/s) = 5.81485 6.78243 6.31719
#
# Compressibility (1/GPa) = 0.02192078
#
# Stress axis : x y z
#
# Youngs Moduli (GPa) = 78.84500 128.73279 51.26742
#
# Poissons Ratio (x) = 0.39416 0.30056
# Poissons Ratio (y) = 0.24141 0.00480
# Poissons Ratio (z) = 0.46224 0.01204
#
# Static dielectric constant tensor:
#      x y z
#    x 1.933110 0.000000 0.105970 
#    y 0.000000 1.908260 0.000000 
#    z 0.105970 0.000000 1.977860 
# 
# From -- ./inp_files/11199.got.cif
#   From: 2010.05.17/outbox.cif.g08.bks.cpg/sg15_6_cif.got.tgz:11199.got - 2010.06.03 18:47:42.
