data_PCOD9283648
_publ_section_title
;
Structure prediction by ZEFSAII (Michael W. Deem and Ramdas Pophale) SiO2 
 PCOD9283648
Probable space group: C 2/C
;
_chemical_formula_sum "Si O2"
_cell_formula_units_Z 48
_cell_length_a 11.197351
_cell_length_b 20.178521
_cell_length_c 13.398504
_cell_angle_alpha 90.000000
_cell_angle_beta 35.095472
_cell_angle_gamma 90.000000
_cell_volume 1740.539590
_symmetry_space_group_name_H-M "C 2/C"
_symmetry_group_IT_number 15
_symmetry_cell_setting 'monoclinic'
loop_
_space_group_symop_operation_xyz
x,y,z
-x,y,1/2-z
-x,-y,-z
x,-y,1/2+z
1/2+x,1/2+y,z
1/2-x,1/2+y,1/2-z
1/2-x,1/2-y,-z
1/2+x,1/2-y,1/2+z
loop_
_atom_site_type_symbol
_atom_site_label
_atom_site_fract_x
_atom_site_fract_y
_atom_site_fract_z
Si Si1 0.351082 0.093684 0.943098
Si Si2 0.442147 0.683521 0.472575
Si Si3 0.748740 0.070546 0.218460
Si Si4 0.855641 0.678187 0.638480
Si Si5 0.500000 0.864562 0.750000
Si Si6 0.523445 0.523024 0.634983
Si Si7 0.250000 0.750000 0.000000
O O1 0.500000 0.072983 0.750000
O O2 0.231903 0.158660 0.984696
O O3 0.495383 0.115206 0.937578
O O4 0.176123 0.037009 0.064724
O O5 0.635455 0.634894 0.318617
O O6 0.341740 0.673494 0.651945
O O7 0.515999 0.757820 0.412410
O O8 0.525994 0.089173 0.328454
O O9 0.806231 0.007794 0.245067
O O10 0.871234 0.055632 0.031295
O O11 0.788327 0.700792 0.573706
O O12 0.314619 0.811452 0.882868
O O13 0.500000 0.566280 0.750000
#
# Coordination Sequence:
#
# PCOD9283648 Si02
#       7
#     8   8   8   8   4   8   4
#     4   9  21  39  66  94 129 168 220 288 337 391
#     4  10  21  40  63  91 132 171 216 280 337 401
#     4  10  24  44  66  96 138 172 223 288 342 393
#     4  11  22  38  60  94 130 173 217 269 339 407
#     4  12  26  44  66  90 138 184 220 272 338 412
#     4  10  23  44  71  97 127 175 234 285 334 399
#     4  12  26  38  62  94 134 176 222 268 332 422
#
# _framework density 27.577656000000001
#
# number of rings (size 3 to 8) (size 9 to 14) (size 15 to 20)
#    0.000    1.667    1.667    1.500    3.500    2.667 
#    0.000    1.667    0.000    0.000    0.000    0.000 
#    0.000    0.000    0.000    0.000    0.000    0.000 
#
# Total GULP energy -133830.176249 kJ/mol
# GULP energy per Si atom -5576.257344 kJ/mol
# Density = 2.751489 g / cm^3
# Si number density = 27.577656 Si / 1000 Ang^3
#
#
#
# Elastic Constant Matrix: (Units=GPa)
#
#
# Indices 1 2 3 4 5 6 
#
# 1 144.3164 38.8257 33.0841 -0.0060 14.8600 0.0022
# 2 38.8257 100.0916 15.6522 -0.0054 -17.2426 -0.0002
# 3 33.0841 15.6522 65.5042 -0.0177 -6.5379 -0.0101
# 4 -0.0060 -0.0054 -0.0177 36.7380 0.0131 -13.0458
# 5 14.8600 -17.2426 -6.5379 0.0131 46.8017 0.0049
# 6 0.0022 -0.0002 -0.0101 -13.0458 0.0049 17.9479
#
#
#
# Elastic Compliance Matrix: (Units=1/GPa)
#
#
# Indices 1 2 3 4 5 6 
#
# 1 0.009493 -0.003868 -0.004374 0.000000 -0.005050 -0.000002
# 2 -0.003868 0.012562 -0.000470 -0.000002 0.005791 -0.000003
# 3 -0.004374 -0.000470 0.017960 0.000013 0.003724 0.000019
# 4 0.000000 -0.000002 0.000013 0.036690 -0.000012 0.026669
# 5 -0.005050 0.005791 0.003724 -0.000012 0.025624 -0.000013
# 6 -0.000002 -0.000003 0.000019 0.026669 -0.000013 0.075102
#
#
# Mechanical properties :
#
#
# Convention : Reuss Voigt Hill
#
# Bulk Modulus (GPa) = 44.26815 53.89291 49.08053
# Shear Modulus (GPa) = 24.70541 35.12087 29.91314
#
# Velocity S-wave (km/s) = 2.99632 3.57252 3.29703
# Velocity P-wave (km/s) = 5.29694 6.04995 5.68593
#
# Compressibility (1/GPa) = 0.02258961
#
# Stress axis : x y z
#
# Youngs Moduli (GPa) = 105.34457 79.60269 55.68071
#
# Poissons Ratio (x) = 0.30792 0.24356
# Poissons Ratio (y) = 0.40749 0.02618
# Poissons Ratio (z) = 0.46080 0.03742
#
# Static dielectric constant tensor:
#      x y z
#    x 2.152080 0.000000 -0.023450 
#    y 0.000000 2.002160 0.000000 
#    z -0.023450 0.000000 2.270690 
# 
# From -- ./inp_files/147392.got.cif
#   From: 2010.05.17/outbox.cif.g08.bks.cpg/sg15_74_cif.got.tgz:147392.got - 2010.06.03 18:47:42.
