data_PCOD9283882
_publ_section_title
;
Structure prediction by ZEFSAII (Michael W. Deem and Ramdas Pophale) SiO2 
 PCOD9283882
Probable space group: C 2/C
;
_chemical_formula_sum "Si O2"
_cell_formula_units_Z 56
_cell_length_a 28.163813
_cell_length_b 8.817267
_cell_length_c 19.142463
_cell_angle_alpha 90.000000
_cell_angle_beta 34.619692
_cell_angle_gamma 90.000000
_cell_volume 2700.650572
_symmetry_space_group_name_H-M "C 2/C"
_symmetry_group_IT_number 15
_symmetry_cell_setting 'monoclinic'
loop_
_space_group_symop_operation_xyz
x,y,z
-x,y,1/2-z
-x,-y,-z
x,-y,1/2+z
1/2+x,1/2+y,z
1/2-x,1/2+y,1/2-z
1/2-x,1/2-y,-z
1/2+x,1/2-y,1/2+z
loop_
_atom_site_type_symbol
_atom_site_label
_atom_site_fract_x
_atom_site_fract_y
_atom_site_fract_z
Si Si1 0.778326 0.928191 0.250255
Si Si2 0.664798 0.843155 0.719027
Si Si3 0.051184 0.167171 0.749588
Si Si4 0.554012 0.406804 0.990108
Si Si5 0.870237 0.355089 0.175249
Si Si6 0.690937 0.538442 0.022735
Si Si7 0.249453 0.839447 0.597974
O O1 0.815675 0.787356 0.248452
O O2 0.710052 0.875559 0.277869
O O3 0.854060 0.018687 0.121969
O O4 0.736371 0.042067 0.357296
O O5 0.616868 0.770351 0.711865
O O6 0.611551 0.980204 0.816677
O O7 0.751176 0.921106 0.589588
O O8 0.000000 0.248327 0.750000
O O9 0.103891 0.035637 0.648171
O O10 0.989738 0.099970 0.882512
O O11 0.562427 0.236438 0.950164
O O12 0.500000 0.500000 0.000000
O O13 0.838052 0.244448 0.276198
O O14 0.738239 0.575551 0.038444
O O15 0.687123 0.699648 0.987773
#
# Coordination Sequence:
#
# PCOD9283882 Si02
#       7
#     8   8   8   8   8   8   8
#     4  11  21  40  68 103 121 170 227 285 328 400
#     4  11  22  41  67  98 131 170 224 284 332 392
#     4  12  26  39  62  97 139 179 216 265 347 404
#     4  11  23  46  68  91 136 177 223 279 345 399
#     4  10  23  38  70  97 126 168 231 279 332 398
#     4  10  21  40  65  90 126 174 219 269 326 403
#     4   9  19  37  64  91 122 162 220 266 325 385
#
# _framework density 20.735745000000001
#
# number of rings (size 3 to 8) (size 9 to 14) (size 15 to 20)
#    0.000    1.429    2.857    3.000    6.000    0.571 
#    0.000    0.000    0.000    6.000    0.000    0.000 
#    0.000    0.000    0.000    0.000    0.000    0.000 
#
# Total GULP energy -156518.484127 kJ/mol
# GULP energy per Si atom -5589.945862 kJ/mol
# Density = 2.068855 g / cm^3
# Si number density = 20.735745 Si / 1000 Ang^3
#
#
#
# Elastic Constant Matrix: (Units=GPa)
#
#
# Indices 1 2 3 4 5 6 
#
# 1 77.7478 21.1031 18.0202 0.0009 8.3111 0.0006
# 2 21.1031 103.0253 49.5945 0.0123 11.3400 0.0003
# 3 18.0202 49.5945 110.4817 0.0136 20.2495 0.0008
# 4 0.0009 0.0123 0.0136 16.1853 0.0098 5.4716
# 5 8.3111 11.3400 20.2495 0.0098 20.4380 0.0015
# 6 0.0006 0.0003 0.0008 5.4716 0.0015 20.3088
#
#
#
# Elastic Compliance Matrix: (Units=1/GPa)
#
#
# Indices 1 2 3 4 5 6 
#
# 1 0.014002 -0.002148 -0.000604 0.000004 -0.003904 -0.000001
# 2 -0.002148 0.012758 -0.005180 -0.000005 -0.001073 0.000001
# 3 -0.000604 -0.005180 0.013323 -0.000001 -0.010080 0.000001
# 4 0.000004 -0.000005 -0.000001 0.067976 -0.000029 -0.018314
# 5 -0.003904 -0.001073 -0.010080 -0.000029 0.061098 0.000004
# 6 -0.000001 0.000001 0.000001 -0.018314 0.000004 0.054174
#
#
# Mechanical properties :
#
#
# Convention : Reuss Voigt Hill
#
# Bulk Modulus (GPa) = 41.28977 52.07674 46.68326
# Shear Modulus (GPa) = 20.22102 24.88888 22.55495
#
# Velocity S-wave (km/s) = 3.12617 3.46828 3.30166
# Velocity P-wave (km/s) = 5.74336 6.41931 6.09072
#
# Compressibility (1/GPa) = 0.02421907
#
# Stress axis : x y z
#
# Youngs Moduli (GPa) = 71.41640 78.38270 75.06068
#
# Poissons Ratio (x) = 0.16833 0.04536
# Poissons Ratio (y) = 0.15337 0.38881
# Poissons Ratio (z) = 0.04316 0.40602
#
# Static dielectric constant tensor:
#      x y z
#    x 1.722190 0.000000 0.006170 
#    y 0.000000 1.757630 0.000000 
#    z 0.006170 0.000000 1.758340 
# 
# From -- ./inp_files/258981.got.cif
#   From: 2010.05.17/outbox.cif.g08.bks.cpg/sg15_130_cif.got.tgz:258981.got - 2010.06.03 18:47:42.
