data_PCOD9283935
_publ_section_title
;
Structure prediction by ZEFSAII (Michael W. Deem and Ramdas Pophale) SiO2 
 PCOD9283935
Probable space group: C 2/C
;
_chemical_formula_sum "Si O2"
_cell_formula_units_Z 60
_cell_length_a 15.969570
_cell_length_b 14.875173
_cell_length_c 22.341286
_cell_angle_alpha 90.000000
_cell_angle_beta 148.139025
_cell_angle_gamma 90.000000
_cell_volume 2801.445258
_symmetry_space_group_name_H-M "C 2/C"
_symmetry_group_IT_number 15
_symmetry_cell_setting 'monoclinic'
loop_
_space_group_symop_operation_xyz
x,y,z
-x,y,1/2-z
-x,-y,-z
x,-y,1/2+z
1/2+x,1/2+y,z
1/2-x,1/2+y,1/2-z
1/2-x,1/2-y,-z
1/2+x,1/2-y,1/2+z
loop_
_atom_site_type_symbol
_atom_site_label
_atom_site_fract_x
_atom_site_fract_y
_atom_site_fract_z
Si Si1 0.362707 0.977566 0.833484
Si Si2 0.298741 0.026932 0.926674
Si Si3 0.339105 0.398295 0.424741
Si Si4 0.715257 0.816811 0.240032
Si Si5 0.500000 0.407144 0.750000
Si Si6 0.705094 0.592531 0.126358
Si Si7 0.339789 0.281374 0.190740
Si Si8 0.917281 0.797061 0.586321
O O1 0.263393 0.911140 0.731222
O O2 0.339376 0.970730 0.890562
O O3 0.304302 0.077239 0.783370
O O4 0.551167 0.973674 0.938523
O O5 0.263358 0.131154 0.890033
O O6 0.143747 0.974529 0.853203
O O7 0.264851 0.318499 0.339786
O O8 0.246929 0.493182 0.367008
O O9 0.516030 0.406835 0.505309
O O10 0.366937 0.372667 0.509283
O O11 0.837441 0.785945 0.262429
O O12 0.545972 0.767709 0.132300
O O13 0.504463 0.341726 0.695658
O O14 0.771026 0.682104 0.136187
O O15 0.500000 0.290369 0.250000
O O16 0.750000 0.750000 0.500000
#
# Coordination Sequence:
#
# PCOD9283935 Si02
#       8
#     8   8   8   8   4   8   8   8
#     4   9  20  40  67  93 124 175 217 271 330 395
#     4  10  21  40  65  94 133 170 220 271 331 391
#     4  10  22  43  70  94 131 177 214 273 339 397
#     4  10  22  42  68  94 134 167 221 278 333 399
#     4  12  24  40  66  98 136 170 214 278 332 406
#     4  10  21  43  66  93 128 178 222 268 327 394
#     4  11  23  44  65  99 134 173 227 274 325 400
#     4  12  24  42  68 101 133 167 222 279 342 400
#
# _framework density 21.417515999999999
#
# number of rings (size 3 to 8) (size 9 to 14) (size 15 to 20)
#    0.000    1.600    2.000    2.400    0.000    2.133 
#    7.200    1.333    0.000    0.000    0.000    0.000 
#    0.000    0.000    0.000    0.000    0.000    0.000 
#
# Total GULP energy -167184.814443 kJ/mol
# GULP energy per Si atom -5572.827148 kJ/mol
# Density = 2.136877 g / cm^3
# Si number density = 21.417516 Si / 1000 Ang^3
#
#
#
# Elastic Constant Matrix: (Units=GPa)
#
#
# Indices 1 2 3 4 5 6 
#
# 1 62.6102 22.6366 7.4506 -0.0003 3.8201 0.0001
# 2 22.6366 83.5276 14.4968 -0.0006 4.4935 0.0000
# 3 7.4506 14.4968 64.0897 -0.0007 4.8147 0.0003
# 4 -0.0003 -0.0006 -0.0007 21.2557 0.0002 9.7780
# 5 3.8201 4.4935 4.8147 0.0002 33.7918 0.0002
# 6 0.0001 0.0000 0.0003 9.7780 0.0002 19.2005
#
#
#
# Elastic Compliance Matrix: (Units=1/GPa)
#
#
# Indices 1 2 3 4 5 6 
#
# 1 0.017824 -0.004600 -0.000936 0.000000 -0.001270 0.000000
# 2 -0.004600 0.013702 -0.002494 0.000000 -0.000947 0.000000
# 3 -0.000936 -0.002494 0.016419 0.000001 -0.001902 -0.000001
# 4 0.000000 0.000000 0.000001 0.061440 0.000000 -0.031289
# 5 -0.001270 -0.000947 -0.001902 0.000000 0.030133 0.000000
# 6 0.000000 0.000000 -0.000001 -0.031289 0.000000 0.068016
#
#
# Mechanical properties :
#
#
# Convention : Reuss Voigt Hill
#
# Bulk Modulus (GPa) = 31.36156 33.26616 32.31386
# Shear Modulus (GPa) = 21.34733 25.89251 23.61992
#
# Velocity S-wave (km/s) = 3.16052 3.48075 3.32449
# Velocity P-wave (km/s) = 5.29086 5.63206 5.46413
#
# Compressibility (1/GPa) = 0.03188617
#
# Stress axis : x y z
#
# Youngs Moduli (GPa) = 56.10514 72.98037 60.90545
#
# Poissons Ratio (x) = 0.33568 0.05702
# Poissons Ratio (y) = 0.25806 0.15187
# Poissons Ratio (z) = 0.05253 0.18198
#
# Static dielectric constant tensor:
#      x y z
#    x 1.871660 0.000000 0.018430 
#    y 0.000000 1.793310 0.000000 
#    z 0.018430 0.000000 1.856950 
# 
# From -- ./inp_files/277581.got.cif
#   From: 2010.05.17/outbox.cif.g08.bks.cpg/sg15_139_cif.got.tgz:277581.got - 2010.06.03 18:47:42.
