data_PCOD9283125
_publ_section_title
;
Structure prediction by ZEFSAII (Michael W. Deem and Ramdas Pophale) SiO2 
 PCOD9283125
Probable space group: C 2/C
;
_chemical_formula_sum "Si O2"
_cell_formula_units_Z 20
_cell_length_a 17.142698
_cell_length_b 13.076717
_cell_length_c 5.266320
_cell_angle_alpha 90.000000
_cell_angle_beta 132.068357
_cell_angle_gamma 90.000000
_cell_volume 876.378086
_symmetry_space_group_name_H-M "C 2/C"
_symmetry_group_IT_number 15
_symmetry_cell_setting 'monoclinic'
loop_
_space_group_symop_operation_xyz
x,y,z
-x,y,1/2-z
-x,-y,-z
x,-y,1/2+z
1/2+x,1/2+y,z
1/2-x,1/2+y,1/2-z
1/2-x,1/2-y,-z
1/2+x,1/2-y,1/2+z
loop_
_atom_site_type_symbol
_atom_site_label
_atom_site_fract_x
_atom_site_fract_y
_atom_site_fract_z
Si Si1 0.383033 0.460693 0.180812
Si Si2 0.000000 0.571242 0.250000
Si Si3 0.821417 0.257737 0.404857
O O1 0.500000 0.500000 0.500000
O O2 0.330654 0.471535 0.344372
O O3 0.385474 0.347594 0.077388
O O4 0.000000 0.500000 0.500000
O O5 0.100597 0.646636 0.448299
O O6 0.750000 0.250000 0.500000
O O7 0.750000 0.250000 0.000000
#
# Coordination Sequence:
#
# PCOD9283125 Si02
#       3
#     8   4   8
#     4  10  21  39  67  98 130 170 224 289 346 401
#     4  12  28  50  72 104 152 198 238 296 368 438
#     4  12  27  46  72 106 143 188 243 297 358 434
#
# _framework density 22.821199
#
# number of rings (size 3 to 8) (size 9 to 14) (size 15 to 20)
#    0.000    0.800    0.000    7.200    0.000   16.000 
#    0.000    0.000    0.000    0.000    0.000    0.000 
#    0.000    0.000    0.000    0.000    0.000    0.000 
#
# Total GULP energy -55894.020265 kJ/mol
# GULP energy per Si atom -5589.402027 kJ/mol
# Density = 2.276926 g / cm^3
# Si number density = 22.821199 Si / 1000 Ang^3
#
#
#
# Elastic Constant Matrix: (Units=GPa)
#
#
# Indices 1 2 3 4 5 6 
#
# 1 171.1418 80.6670 117.4346 0.0000 -23.4892 0.0000
# 2 80.6670 216.3081 127.0243 0.0000 -3.9014 0.0000
# 3 117.4346 127.0243 207.3576 0.0000 -44.7500 0.0000
# 4 0.0000 0.0000 0.0000 49.2104 0.0000 -13.9057
# 5 -23.4892 -3.9014 -44.7500 0.0000 63.2232 0.0000
# 6 0.0000 0.0000 0.0000 -13.9057 0.0000 20.3255
#
#
#
# Elastic Compliance Matrix: (Units=1/GPa)
#
#
# Indices 1 2 3 4 5 6 
#
# 1 0.009608 -0.000593 -0.005093 0.000000 -0.000072 0.000000
# 2 -0.000593 0.007838 -0.005204 0.000000 -0.003420 0.000000
# 3 -0.005093 -0.005204 0.012296 0.000000 0.006489 0.000000
# 4 0.000000 0.000000 0.000000 0.025191 0.000000 0.017234
# 5 -0.000072 -0.003420 0.006489 0.000000 0.020172 0.000000
# 6 0.000000 0.000000 0.000000 0.017234 0.000000 0.060990
#
#
# Mechanical properties :
#
#
# Convention : Reuss Voigt Hill
#
# Bulk Modulus (GPa) = 125.61691 138.33993 131.97842
# Shear Modulus (GPa) = 31.14681 44.53060 37.83871
#
# Velocity S-wave (km/s) = 3.69835 4.42212 4.07633
# Velocity P-wave (km/s) = 8.56741 9.31795 8.95055
#
# Compressibility (1/GPa) = 0.00796071
#
# Stress axis : x y z
#
# Youngs Moduli (GPa) = 104.08119 127.57580 81.33055
#
# Poissons Ratio (x) = 0.07568 0.41426
# Poissons Ratio (y) = 0.06175 0.42323
# Poissons Ratio (z) = 0.53014 0.66388
#
# Static dielectric constant tensor:
#      x y z
#    x 2.223630 0.000000 -0.049090 
#    y 0.000000 1.881190 0.000000 
#    z -0.049090 0.000000 1.803420 
# 
# From -- ./inp_files/6025.got.cif
#   From: 2010.05.17/outbox.cif.g08.bks.cpg/sg15_4_cif.got.tgz:6025.got - 2010.06.03 18:47:42.
