data_PCOD9283487
_publ_section_title
;
Structure prediction by ZEFSAII (Michael W. Deem and Ramdas Pophale) SiO2 
 PCOD9283487
Probable space group: C 2/C
;
_chemical_formula_sum "Si O2"
_cell_formula_units_Z 36
_cell_length_a 24.397949
_cell_length_b 8.079342
_cell_length_c 12.817816
_cell_angle_alpha 90.000000
_cell_angle_beta 38.262445
_cell_angle_gamma 90.000000
_cell_volume 1564.658400
_symmetry_space_group_name_H-M "C 2/C"
_symmetry_group_IT_number 15
_symmetry_cell_setting 'monoclinic'
loop_
_space_group_symop_operation_xyz
x,y,z
-x,y,1/2-z
-x,-y,-z
x,-y,1/2+z
1/2+x,1/2+y,z
1/2-x,1/2+y,1/2-z
1/2-x,1/2-y,-z
1/2+x,1/2-y,1/2+z
loop_
_atom_site_type_symbol
_atom_site_label
_atom_site_fract_x
_atom_site_fract_y
_atom_site_fract_z
Si Si1 0.826732 0.757618 0.623002
Si Si2 0.695335 0.412896 0.058010
Si Si3 0.001760 0.097399 0.629495
Si Si4 0.000000 0.775575 0.750000
Si Si5 0.317092 0.903801 0.521511
O O1 0.820312 0.899090 0.541920
O O2 0.829069 0.577665 0.566433
O O3 0.741041 0.782437 0.820713
O O4 0.918745 0.805190 0.543166
O O5 0.599409 0.397617 0.256172
O O6 0.756266 0.556426 0.012088
O O7 0.750000 0.250000 0.000000
O O8 0.019399 0.903685 0.626125
O O9 0.000000 0.175562 0.750000
O O10 0.086903 0.670483 0.643939
#
# Coordination Sequence:
#
# PCOD9283487 Si02
#       5
#     8   8   8   4   8
#     4  10  21  40  62  87 121 155 200 247 296 357
#     4   9  20  37  65  86 118 156 201 242 300 349
#     4   8  18  38  59  82 120 151 192 245 296 341
#     4  10  22  36  60  90 120 160 194 244 304 344
#     4  11  23  38  63  89 118 160 201 242 301 353
#
# _framework density 23.008217999999999
#
# number of rings (size 3 to 8) (size 9 to 14) (size 15 to 20)
#    0.667    1.778    0.000    1.333    7.778    1.778 
#    0.000    1.111    0.000    0.000    0.000    0.000 
#    0.000    0.000    0.000    0.000    0.000    0.000 
#
# Total GULP energy -100407.807662 kJ/mol
# GULP energy per Si atom -5578.211537 kJ/mol
# Density = 2.295585 g / cm^3
# Si number density = 23.008218 Si / 1000 Ang^3
#
#
#
# Elastic Constant Matrix: (Units=GPa)
#
#
# Indices 1 2 3 4 5 6 
#
# 1 61.0584 23.0034 37.2931 0.0000 -37.3903 0.0000
# 2 23.0034 117.2513 38.4111 -0.0001 -21.1914 0.0000
# 3 37.2931 38.4111 102.4069 -0.0001 -44.7346 0.0000
# 4 0.0000 -0.0001 -0.0001 31.0818 0.0000 -16.1645
# 5 -37.3903 -21.1914 -44.7346 0.0000 50.2264 0.0000
# 6 0.0000 0.0000 0.0000 -16.1645 0.0000 27.0323
#
#
#
# Elastic Compliance Matrix: (Units=1/GPa)
#
#
# Indices 1 2 3 4 5 6 
#
# 1 0.030657 -0.001794 -0.001395 0.000000 0.020822 0.000000
# 2 -0.001794 0.009889 -0.002974 0.000000 0.000188 0.000000
# 3 -0.001395 -0.002974 0.017001 0.000000 0.012849 0.000000
# 4 0.000000 0.000000 0.000000 0.046694 0.000000 0.027922
# 5 0.020822 0.000188 0.012849 0.000000 0.046934 0.000000
# 6 0.000000 0.000000 0.000000 0.027922 0.000000 0.053689
#
#
# Mechanical properties :
#
#
# Convention : Reuss Voigt Hill
#
# Bulk Modulus (GPa) = 22.11365 53.12576 37.61971
# Shear Modulus (GPa) = 21.52719 33.80203 27.66461
#
# Velocity S-wave (km/s) = 3.06213 3.83708 3.47130
# Velocity P-wave (km/s) = 4.70470 6.53995 5.69672
#
# Compressibility (1/GPa) = 0.04522094
#
# Stress axis : x y z
#
# Youngs Moduli (GPa) = 32.61908 101.12426 58.81891
#
# Poissons Ratio (x) = 0.18143 0.08208
# Poissons Ratio (y) = 0.05852 0.17490
# Poissons Ratio (z) = 0.04552 0.30070
#
# Static dielectric constant tensor:
#      x y z
#    x 2.013280 0.000000 0.035150 
#    y 0.000000 1.845180 0.000000 
#    z 0.035150 0.000000 1.926770 
# 
# From -- ./inp_files/171209.got.cif
#   From: 2010.05.17/outbox.cif.g08.bks.cpg/sg15_86_cif.got.tgz:171209.got - 2010.06.03 18:47:42.
