data_PCOD9283080
_publ_section_title
;
Structure prediction by ZEFSAII (Michael W. Deem and Ramdas Pophale) SiO2 
 PCOD9283080
Probable space group: C 2/C
;
_chemical_formula_sum "Si O2"
_cell_formula_units_Z 48
_cell_length_a 11.820672
_cell_length_b 13.160206
_cell_length_c 15.030051
_cell_angle_alpha 90.000000
_cell_angle_beta 101.109216
_cell_angle_gamma 90.000000
_cell_volume 2294.299706
_symmetry_space_group_name_H-M "C 2/C"
_symmetry_group_IT_number 15
_symmetry_cell_setting 'monoclinic'
loop_
_space_group_symop_operation_xyz
x,y,z
-x,y,1/2-z
-x,-y,-z
x,-y,1/2+z
1/2+x,1/2+y,z
1/2-x,1/2+y,1/2-z
1/2-x,1/2-y,-z
1/2+x,1/2-y,1/2+z
loop_
_atom_site_type_symbol
_atom_site_label
_atom_site_fract_x
_atom_site_fract_y
_atom_site_fract_z
Si Si1 0.090639 0.687651 0.838565
Si Si2 0.820985 0.217814 0.922110
Si Si3 0.854369 0.082604 0.557782
Si Si4 0.886121 0.512806 0.040879
Si Si5 0.978776 0.110234 0.067438
Si Si6 0.041797 0.712208 0.356925
O O1 0.222504 0.714618 0.832146
O O2 0.116715 0.591885 0.905436
O O3 0.036480 0.787341 0.878440
O O4 0.000000 0.658021 0.750000
O O5 0.927657 0.283237 0.902874
O O6 0.750000 0.250000 0.000000
O O7 0.888762 0.120448 0.970172
O O8 0.724990 0.040278 0.535770
O O9 0.879425 0.189350 0.609527
O O10 0.899466 0.102287 0.463196
O O11 0.935816 0.991939 0.608128
O O12 0.897209 0.607570 0.109272
O O13 0.000000 0.500000 0.000000
O O14 0.000000 0.716113 0.250000
#
# Coordination Sequence:
#
# PCOD9283080 Si02
#       6
#     8   8   8   8   8   8
#     4  11  23  38  62  94 123 159 212 266 318 363
#     4   9  18  39  66  84 116 170 215 249 298 392
#     4  10  21  39  67  88 121 169 216 251 308 390
#     4  12  24  40  65  92 125 170 216 256 316 395
#     4   9  19  39  66  91 114 164 223 258 292 379
#     4  11  25  41  61  97 136 162 204 277 336 360
#
# _framework density 20.921416000000001
#
# number of rings (size 3 to 8) (size 9 to 14) (size 15 to 20)
#    0.000    1.667    1.667    4.000    2.333    3.333 
#    0.000    0.000    0.000    0.000    0.000    0.000 
#    0.000    0.000    0.000    0.000    0.000    0.000 
#
# Total GULP energy -133681.395176 kJ/mol
# GULP energy per Si atom -5570.058132 kJ/mol
# Density = 2.087380 g / cm^3
# Si number density = 20.921416 Si / 1000 Ang^3
#
#
#
# Elastic Constant Matrix: (Units=GPa)
#
#
# Indices 1 2 3 4 5 6 
#
# 1 98.2188 8.3170 14.7745 0.0000 13.8337 0.0000
# 2 8.3170 158.8847 32.9252 0.0000 -1.3711 0.0000
# 3 14.7745 32.9252 63.2471 0.0000 15.7109 0.0000
# 4 0.0000 0.0000 0.0000 16.4311 0.0000 7.1357
# 5 13.8337 -1.3711 15.7109 0.0000 26.4781 0.0000
# 6 0.0000 0.0000 0.0000 7.1357 0.0000 25.4663
#
#
#
# Elastic Compliance Matrix: (Units=1/GPa)
#
#
# Indices 1 2 3 4 5 6 
#
# 1 0.011109 -0.000397 -0.001104 0.000000 -0.005170 0.000000
# 2 -0.000397 0.007276 -0.004504 0.000000 0.003257 0.000000
# 3 -0.001104 -0.004504 0.021497 0.000000 -0.012412 0.000000
# 4 0.000000 0.000000 0.000000 0.069292 0.000000 -0.019416
# 5 -0.005170 0.003257 -0.012412 0.000000 0.048001 0.000000
# 6 0.000000 0.000000 0.000000 -0.019416 0.000000 0.044708
#
#
# Mechanical properties :
#
#
# Convention : Reuss Voigt Hill
#
# Bulk Modulus (GPa) = 35.87944 48.04267 41.96106
# Shear Modulus (GPa) = 22.40298 31.29735 26.85017
#
# Velocity S-wave (km/s) = 3.27588 3.87194 3.58632
# Velocity P-wave (km/s) = 5.61208 6.55763 6.10319
#
# Compressibility (1/GPa) = 0.02787112
#
# Stress axis : x y z
#
# Youngs Moduli (GPa) = 90.01559 137.43573 46.51873
#
# Poissons Ratio (x) = 0.05461 0.05136
# Poissons Ratio (y) = 0.03577 0.20952
# Poissons Ratio (z) = 0.09939 0.61901
#
# Static dielectric constant tensor:
#      x y z
#    x 1.866330 0.000000 0.030020 
#    y 0.000000 1.838810 0.000000 
#    z 0.030020 0.000000 1.789220 
# 
# From -- ./inp_files/143817.got.cif
#   From: 2010.05.17/outbox.cif.g08.bks.cpg/sg15_72_cif.got.tgz:143817.got - 2010.06.03 18:47:42.
