data_PCOD9283908
_publ_section_title
;
Structure prediction by ZEFSAII (Michael W. Deem and Ramdas Pophale) SiO2 
 PCOD9283908
Probable space group: C 2/C
;
_chemical_formula_sum "Si O2"
_cell_formula_units_Z 48
_cell_length_a 11.901044
_cell_length_b 21.213760
_cell_length_c 13.606172
_cell_angle_alpha 90.000000
_cell_angle_beta 139.913142
_cell_angle_gamma 90.000000
_cell_volume 2212.022686
_symmetry_space_group_name_H-M "C 2/C"
_symmetry_group_IT_number 15
_symmetry_cell_setting 'monoclinic'
loop_
_space_group_symop_operation_xyz
x,y,z
-x,y,1/2-z
-x,-y,-z
x,-y,1/2+z
1/2+x,1/2+y,z
1/2-x,1/2+y,1/2-z
1/2-x,1/2-y,-z
1/2+x,1/2-y,1/2+z
loop_
_atom_site_type_symbol
_atom_site_label
_atom_site_fract_x
_atom_site_fract_y
_atom_site_fract_z
Si Si1 0.177089 0.158172 0.926418
Si Si2 0.706206 0.518735 0.028251
Si Si3 0.491099 0.696865 0.497320
Si Si4 0.625853 0.569311 0.181103
Si Si5 0.139786 0.323880 0.147292
Si Si6 0.071869 0.552497 0.972304
O O1 0.179304 0.084773 0.955433
O O2 0.328657 0.167556 0.949040
O O3 0.000000 0.173227 0.750000
O O4 0.159723 0.194835 0.017907
O O5 0.530483 0.478213 0.900059
O O6 0.726166 0.536998 0.155815
O O7 0.860315 0.481152 0.079945
O O8 0.453550 0.635054 0.408338
O O9 0.677362 0.688860 0.675272
O O10 0.475984 0.760922 0.425826
O O11 0.756503 0.578936 0.357583
O O12 0.057668 0.389084 0.129641
O O13 0.000000 0.500000 0.000000
#
# Coordination Sequence:
#
# PCOD9283908 Si02
#       6
#     8   8   8   8   8   8
#     4   9  17  33  59  89 122 163 204 259 319 374
#     4  10  21  40  65  92 130 167 210 257 321 378
#     4  10  22  40  62  87 125 173 217 258 318 377
#     4  10  23  41  66  91 127 170 214 259 314 380
#     4  11  22  39  60  91 128 165 215 267 316 379
#     4  12  24  38  63  99 132 164 209 263 320 378
#
# _framework density 21.699597000000001
#
# number of rings (size 3 to 8) (size 9 to 14) (size 15 to 20)
#    0.000    1.667    1.667    3.000    7.000    0.667 
#    0.000    2.500    0.000    0.000    0.000    0.000 
#    0.000    0.000    0.000    0.000    0.000    0.000 
#
# Total GULP energy -134169.864351 kJ/mol
# GULP energy per Si atom -5590.411015 kJ/mol
# Density = 2.165021 g / cm^3
# Si number density = 21.699597 Si / 1000 Ang^3
#
#
#
# Elastic Constant Matrix: (Units=GPa)
#
#
# Indices 1 2 3 4 5 6 
#
# 1 70.0239 45.5669 5.6889 0.0000 7.5446 0.0000
# 2 45.5669 121.2272 -5.3852 0.0000 2.6308 0.0000
# 3 5.6889 -5.3852 53.6198 0.0000 -7.2747 0.0000
# 4 0.0000 0.0000 0.0000 31.9966 0.0000 8.9780
# 5 7.5446 2.6308 -7.2747 0.0000 15.6617 0.0000
# 6 0.0000 0.0000 0.0000 8.9780 0.0000 20.1149
#
#
#
# Elastic Compliance Matrix: (Units=1/GPa)
#
#
# Indices 1 2 3 4 5 6 
#
# 1 0.020900 -0.007819 -0.004472 0.000000 -0.010832 0.000000
# 2 -0.007819 0.011228 0.002361 0.000000 0.002977 0.000000
# 3 -0.004472 0.002361 0.020918 0.000000 0.011474 0.000000
# 4 0.000000 0.000000 0.000000 0.035728 0.000000 -0.015947
# 5 -0.010832 0.002977 0.011474 0.000000 0.073897 0.000000
# 6 0.000000 0.000000 0.000000 -0.015947 0.000000 0.056832
#
#
# Mechanical properties :
#
#
# Convention : Reuss Voigt Hill
#
# Bulk Modulus (GPa) = 30.13370 37.40136 33.76753
# Shear Modulus (GPa) = 19.96601 26.82133 23.39367
#
# Velocity S-wave (km/s) = 3.03662 3.51953 3.28696
# Velocity P-wave (km/s) = 5.11973 5.81288 5.47728
#
# Compressibility (1/GPa) = 0.03318544
#
# Stress axis : x y z
#
# Youngs Moduli (GPa) = 47.84799 89.06008 47.80535
#
# Poissons Ratio (x) = 0.69639 0.21380
# Poissons Ratio (y) = 0.37414 -0.11288
# Poissons Ratio (z) = 0.21399 -0.21029
#
# Static dielectric constant tensor:
#      x y z
#    x 1.831550 0.000000 0.000180 
#    y 0.000000 1.771400 0.000000 
#    z 0.000180 0.000000 1.777780 
# 
# From -- ./inp_files/147437.got.cif
#   From: 2010.05.17/outbox.cif.g08.bks.cpg/sg15_74_cif.got.tgz:147437.got - 2010.06.03 18:47:42.
