data_PCOD9283208
_publ_section_title
;
Structure prediction by ZEFSAII (Michael W. Deem and Ramdas Pophale) SiO2 
 PCOD9283208
Probable space group: C 2/C
;
_chemical_formula_sum "Si O2"
_cell_formula_units_Z 60
_cell_length_a 14.825333
_cell_length_b 14.957701
_cell_length_c 25.755880
_cell_angle_alpha 90.000000
_cell_angle_beta 151.441921
_cell_angle_gamma 90.000000
_cell_volume 2730.350648
_symmetry_space_group_name_H-M "C 2/C"
_symmetry_group_IT_number 15
_symmetry_cell_setting 'monoclinic'
loop_
_space_group_symop_operation_xyz
x,y,z
-x,y,1/2-z
-x,-y,-z
x,-y,1/2+z
1/2+x,1/2+y,z
1/2-x,1/2+y,1/2-z
1/2-x,1/2-y,-z
1/2+x,1/2-y,1/2+z
loop_
_atom_site_type_symbol
_atom_site_label
_atom_site_fract_x
_atom_site_fract_y
_atom_site_fract_z
Si Si1 0.058794 0.804110 0.404872
Si Si2 0.290432 0.430855 0.657561
Si Si3 0.180420 0.260583 0.175318
Si Si4 0.253416 0.014641 0.972137
Si Si5 0.598744 0.252972 0.061864
Si Si6 0.106444 0.445195 0.200608
Si Si7 0.094994 0.069320 0.173839
Si Si8 0.000000 0.349581 0.250000
O O1 0.250000 0.750000 0.500000
O O2 0.127386 0.901995 0.424265
O O3 0.905763 0.769778 0.285978
O O4 0.967708 0.792896 0.416350
O O5 0.500000 0.393461 0.750000
O O6 0.239266 0.497874 0.585699
O O7 0.141039 0.352413 0.587035
O O8 0.325292 0.470393 0.731551
O O9 0.125036 0.355407 0.174324
O O10 0.147154 0.172774 0.193975
O O11 0.060811 0.240122 0.063212
O O12 0.130273 0.934904 0.935609
O O13 0.460169 0.013015 0.099833
O O14 0.801402 0.295410 0.148766
O O15 0.296382 0.501829 0.309439
O O16 0.015946 0.409942 0.207411
#
# Coordination Sequence:
#
# PCOD9283208 Si02
#       8
#     8   8   8   8   8   8   8   4
#     4  12  27  51  69 104 160 197 242 310 382 461
#     4  10  21  39  69 105 138 181 235 307 370 422
#     4  12  25  46  75 106 145 197 249 305 379 456
#     4  11  24  42  70 106 142 189 241 308 374 442
#     4  12  24  44  77 110 144 198 251 307 379 451
#     4  12  25  43  70 104 143 190 248 304 375 446
#     4  11  23  44  67 101 146 184 238 307 368 445
#     4  12  24  44  72 106 152 186 246 316 368 438
#
# _framework density 21.975197999999999
#
# number of rings (size 3 to 8) (size 9 to 14) (size 15 to 20)
#    0.000    0.533    6.000    1.600    1.867    4.267 
#    2.400    2.667    0.000    0.000    0.000    0.000 
#    0.000    0.000    0.000    0.000    0.000    0.000 
#
# Total GULP energy -167529.318556 kJ/mol
# GULP energy per Si atom -5584.310619 kJ/mol
# Density = 2.192518 g / cm^3
# Si number density = 21.975198 Si / 1000 Ang^3
#
#
#
# Elastic Constant Matrix: (Units=GPa)
#
#
# Indices 1 2 3 4 5 6 
#
# 1 80.5241 24.8550 31.1049 0.0002 0.2755 0.0001
# 2 24.8550 73.5591 5.0084 0.0001 5.0961 0.0000
# 3 31.1049 5.0084 138.2629 -0.0010 -1.6599 0.0001
# 4 0.0002 0.0001 -0.0010 33.9953 0.0001 12.7676
# 5 0.2755 5.0961 -1.6599 0.0001 37.8423 0.0001
# 6 0.0001 0.0000 0.0001 12.7676 0.0001 35.4587
#
#
#
# Elastic Compliance Matrix: (Units=1/GPa)
#
#
# Indices 1 2 3 4 5 6 
#
# 1 0.015192 -0.004942 -0.003234 0.000000 0.000413 0.000000
# 2 -0.004942 0.015367 0.000531 0.000000 -0.002010 0.000000
# 3 -0.003234 0.000531 0.007944 0.000000 0.000301 0.000000
# 4 0.000000 0.000000 0.000000 0.034016 0.000000 -0.012248
# 5 0.000413 -0.002010 0.000301 0.000000 0.026706 0.000000
# 6 0.000000 0.000000 0.000000 -0.012248 0.000000 0.032612
#
#
# Mechanical properties :
#
#
# Convention : Reuss Voigt Hill
#
# Bulk Modulus (GPa) = 43.07609 46.03140 44.55375
# Shear Modulus (GPa) = 32.28628 36.88444 34.58536
#
# Velocity S-wave (km/s) = 3.83719 4.10134 3.97146
# Velocity P-wave (km/s) = 6.26712 6.58942 6.43029
#
# Compressibility (1/GPa) = 0.02321473
#
# Stress axis : x y z
#
# Youngs Moduli (GPa) = 65.82569 65.07300 125.87400
#
# Poissons Ratio (x) = 0.32156 0.40704
# Poissons Ratio (y) = 0.32528 -0.06683
# Poissons Ratio (z) = 0.21286 -0.03455
#
# Static dielectric constant tensor:
#      x y z
#    x 1.846600 0.000000 0.033860 
#    y 0.000000 1.904790 0.000000 
#    z 0.033860 0.000000 1.864590 
# 
# From -- ./inp_files/296719.got.cif
#   From: 2010.05.17/outbox.cif.g08.bks.cpg/sg15_149_cif.got.tgz:296719.got - 2010.06.03 18:47:42.
