data_PCOD9283921
_publ_section_title
;
Structure prediction by ZEFSAII (Michael W. Deem and Ramdas Pophale) SiO2 
 PCOD9283921
Probable space group: C 2/C
;
_chemical_formula_sum "Si O2"
_cell_formula_units_Z 52
_cell_length_a 11.545150
_cell_length_b 26.967358
_cell_length_c 9.260862
_cell_angle_alpha 90.000000
_cell_angle_beta 55.022465
_cell_angle_gamma 90.000000
_cell_volume 2362.506953
_symmetry_space_group_name_H-M "C 2/C"
_symmetry_group_IT_number 15
_symmetry_cell_setting 'monoclinic'
loop_
_space_group_symop_operation_xyz
x,y,z
-x,y,1/2-z
-x,-y,-z
x,-y,1/2+z
1/2+x,1/2+y,z
1/2-x,1/2+y,1/2-z
1/2-x,1/2-y,-z
1/2+x,1/2-y,1/2+z
loop_
_atom_site_type_symbol
_atom_site_label
_atom_site_fract_x
_atom_site_fract_y
_atom_site_fract_z
Si Si1 0.773218 0.547097 0.929044
Si Si2 0.024215 0.558254 0.960786
Si Si3 0.972411 0.881365 0.921355
Si Si4 0.584935 0.460443 0.039275
Si Si5 0.500000 0.129769 0.250000
Si Si6 0.775634 0.285511 0.842986
Si Si7 0.964269 0.202308 0.606935
O O1 0.891304 0.568043 0.951103
O O2 0.829576 0.560260 0.730525
O O3 0.630578 0.575544 0.061320
O O4 0.733751 0.488451 0.963903
O O5 0.000000 0.500000 0.000000
O O6 0.020551 0.594240 0.098324
O O7 0.000000 0.854627 0.750000
O O8 0.890668 0.844484 0.087399
O O9 0.086236 0.910461 0.941632
O O10 0.500000 0.452682 0.250000
O O11 0.500000 0.500000 0.000000
O O12 0.633551 0.166533 0.178983
O O13 0.872670 0.252190 0.668581
O O14 0.750000 0.250000 0.000000
O O15 0.614624 0.296382 0.915658
O O16 0.000000 0.192905 0.750000
#
# Coordination Sequence:
#
# PCOD9283921 Si02
#       7
#     8   8   8   8   4   8   8
#     4  10  24  43  60  88 144 173 227 279 341 417
#     4  11  27  43  63 100 134 187 227 280 341 428
#     4  11  25  40  65 102 131 177 231 282 348 411
#     4  10  21  40  65  93 128 177 224 284 334 396
#     4  12  24  44  78  96 138 186 234 296 350 396
#     4  10  21  42  71 105 134 168 236 294 347 414
#     4  10  22  41  70 101 134 167 226 294 341 420
#
# _framework density 22.010515999999999
#
# number of rings (size 3 to 8) (size 9 to 14) (size 15 to 20)
#    0.000    1.538    2.308    3.231   12.923    1.231 
#    0.000    0.769    3.385    0.000    0.000    0.000 
#    0.000    0.000    0.000    0.000    0.000    0.000 
#
# Total GULP energy -144986.432794 kJ/mol
# GULP energy per Si atom -5576.401261 kJ/mol
# Density = 2.196042 g / cm^3
# Si number density = 22.010516 Si / 1000 Ang^3
#
#
#
# Elastic Constant Matrix: (Units=GPa)
#
#
# Indices 1 2 3 4 5 6 
#
# 1 55.3787 27.2098 44.7843 0.0000 -9.8191 0.0000
# 2 27.2098 118.0526 53.3525 0.0000 7.9802 0.0000
# 3 44.7843 53.3525 130.1921 0.0000 8.0879 0.0000
# 4 0.0000 0.0000 0.0000 33.4378 0.0000 -5.7869
# 5 -9.8191 7.9802 8.0879 0.0000 36.0006 0.0000
# 6 0.0000 0.0000 0.0000 -5.7869 0.0000 16.5009
#
#
#
# Elastic Compliance Matrix: (Units=1/GPa)
#
#
# Indices 1 2 3 4 5 6 
#
# 1 0.029117 -0.003203 -0.009372 0.000000 0.010757 0.000000
# 2 -0.003203 0.010815 -0.003171 0.000000 -0.002559 0.000000
# 3 -0.009372 -0.003171 0.012494 0.000000 -0.004660 0.000000
# 4 0.000000 0.000000 0.000000 0.031839 0.000000 0.011166
# 5 0.010757 -0.002559 -0.004660 0.000000 0.032325 0.000000
# 6 0.000000 0.000000 0.000000 0.011166 0.000000 0.064519
#
#
# Mechanical properties :
#
#
# Convention : Reuss Voigt Hill
#
# Bulk Modulus (GPa) = 47.76821 61.59073 54.67947
# Shear Modulus (GPa) = 22.77083 29.07299 25.92191
#
# Velocity S-wave (km/s) = 3.21992 3.63832 3.43549
# Velocity P-wave (km/s) = 5.96435 6.75966 6.37442
#
# Compressibility (1/GPa) = 0.02093442
#
# Stress axis : x y z
#
# Youngs Moduli (GPa) = 34.34376 92.46193 80.03983
#
# Poissons Ratio (x) = 0.29615 0.75011
# Poissons Ratio (y) = 0.11000 0.25383
# Poissons Ratio (z) = 0.32186 0.29323
#
# Static dielectric constant tensor:
#      x y z
#    x 1.963000 0.000000 -0.035140 
#    y 0.000000 2.292660 0.000000 
#    z -0.035140 0.000000 1.923630 
# 
# From -- ./inp_files/34111.got.cif
#   From: 2010.05.17/outbox.cif.g08.bks.cpg/sg15_18_cif.got.tgz:34111.got - 2010.06.03 18:47:42.
