data_PCOD9283621
_publ_section_title
;
Structure prediction by ZEFSAII (Michael W. Deem and Ramdas Pophale) SiO2 
 PCOD9283621
Probable space group: C 2/C
;
_chemical_formula_sum "Si O2"
_cell_formula_units_Z 40
_cell_length_a 8.338460
_cell_length_b 31.563279
_cell_length_c 11.725807
_cell_angle_alpha 90.000000
_cell_angle_beta 41.861245
_cell_angle_gamma 90.000000
_cell_volume 2059.447241
_symmetry_space_group_name_H-M "C 2/C"
_symmetry_group_IT_number 15
_symmetry_cell_setting 'monoclinic'
loop_
_space_group_symop_operation_xyz
x,y,z
-x,y,1/2-z
-x,-y,-z
x,-y,1/2+z
1/2+x,1/2+y,z
1/2-x,1/2+y,1/2-z
1/2-x,1/2-y,-z
1/2+x,1/2-y,1/2+z
loop_
_atom_site_type_symbol
_atom_site_label
_atom_site_fract_x
_atom_site_fract_y
_atom_site_fract_z
Si Si1 0.757936 0.274795 0.115413
Si Si2 0.733456 0.300997 0.707318
Si Si3 0.823725 0.895073 0.735367
Si Si4 0.490821 0.546171 0.563001
Si Si5 0.110542 0.546913 0.950636
O O1 0.500000 0.298671 0.250000
O O2 0.765763 0.238811 0.208326
O O3 0.750000 0.250000 0.000000
O O4 0.006557 0.300130 0.992374
O O5 0.500000 0.297288 0.750000
O O6 0.721844 0.346444 0.774611
O O7 0.942341 0.920398 0.569180
O O8 0.000000 0.894374 0.750000
O O9 0.588647 0.919634 0.904337
O O10 0.500000 0.500000 0.500000
O O11 0.241600 0.555291 0.760571
O O12 0.691208 0.546507 0.555198
O O13 0.000000 0.500000 0.000000
#
# Coordination Sequence:
#
# PCOD9283621 Si02
#       5
#     8   8   8   8   8
#     4   9  19  37  62  89 117 156 196 245 306 368
#     4  10  21  40  63  90 123 161 202 252 308 373
#     4  11  24  41  62  90 124 162 206 255 305 364
#     4  11  23  39  62  88 120 164 205 256 309 364
#     4  11  23  39  61  89 119 162 210 252 309 365
#
# _framework density 19.422688000000001
#
# number of rings (size 3 to 8) (size 9 to 14) (size 15 to 20)
#    0.000    1.600    2.000    2.400    0.000    7.200 
#   10.800    0.000    0.000    0.000    0.000    0.000 
#    0.000    0.000    0.000    0.000    0.000    0.000 
#
# Total GULP energy -111612.105724 kJ/mol
# GULP energy per Si atom -5580.605286 kJ/mol
# Density = 1.937848 g / cm^3
# Si number density = 19.422688 Si / 1000 Ang^3
#
#
#
# Elastic Constant Matrix: (Units=GPa)
#
#
# Indices 1 2 3 4 5 6 
#
# 1 70.3292 20.3572 38.8886 0.0000 -13.8015 0.0000
# 2 20.3572 94.4399 43.0126 0.0000 -1.0767 0.0000
# 3 38.8886 43.0126 147.3478 0.0000 -8.1076 0.0000
# 4 0.0000 0.0000 0.0000 29.4331 0.0000 7.1078
# 5 -13.8015 -1.0767 -8.1076 0.0000 38.3619 0.0000
# 6 0.0000 0.0000 0.0000 7.1078 0.0000 17.4245
#
#
#
# Elastic Compliance Matrix: (Units=1/GPa)
#
#
# Indices 1 2 3 4 5 6 
#
# 1 0.018051 -0.002074 -0.003849 0.000000 0.005622 0.000000
# 2 -0.002074 0.012457 -0.003148 0.000000 -0.001062 0.000000
# 3 -0.003849 -0.003148 0.008742 0.000000 0.000374 0.000000
# 4 0.000000 0.000000 0.000000 0.037688 0.000000 -0.015374
# 5 0.005622 -0.001062 0.000374 0.000000 0.028140 0.000000
# 6 0.000000 0.000000 0.000000 -0.015374 0.000000 0.063662
#
#
# Mechanical properties :
#
#
# Convention : Reuss Voigt Hill
#
# Bulk Modulus (GPa) = 47.37327 57.40374 52.38851
# Shear Modulus (GPa) = 25.78423 31.03447 28.40935
#
# Velocity S-wave (km/s) = 3.64748 4.00164 3.82866
# Velocity P-wave (km/s) = 6.49480 7.13933 6.82468
#
# Compressibility (1/GPa) = 0.02110895
#
# Stress axis : x y z
#
# Youngs Moduli (GPa) = 55.39866 80.27499 114.39033
#
# Poissons Ratio (x) = 0.16647 0.44033
# Poissons Ratio (y) = 0.11488 0.36004
# Poissons Ratio (z) = 0.21325 0.25267
#
# Static dielectric constant tensor:
#      x y z
#    x 1.671530 0.000000 -0.031410 
#    y 0.000000 1.649580 0.000000 
#    z -0.031410 0.000000 1.721410 
# 
# From -- ./inp_files/81984.got.cif
#   From: 2010.05.17/outbox.cif.g08.bks.cpg/sg15_41_cif.got.tgz:81984.got - 2010.06.03 18:47:42.
