data_PCOD9283494
_publ_section_title
;
Structure prediction by ZEFSAII (Michael W. Deem and Ramdas Pophale) SiO2 
 PCOD9283494
Probable space group: C 2/C
;
_chemical_formula_sum "Si O2"
_cell_formula_units_Z 60
_cell_length_a 25.101450
_cell_length_b 20.683584
_cell_length_c 9.321181
_cell_angle_alpha 90.000000
_cell_angle_beta 34.716334
_cell_angle_gamma 90.000000
_cell_volume 2756.131009
_symmetry_space_group_name_H-M "C 2/C"
_symmetry_group_IT_number 15
_symmetry_cell_setting 'monoclinic'
loop_
_space_group_symop_operation_xyz
x,y,z
-x,y,1/2-z
-x,-y,-z
x,-y,1/2+z
1/2+x,1/2+y,z
1/2-x,1/2+y,1/2-z
1/2-x,1/2-y,-z
1/2+x,1/2-y,1/2+z
loop_
_atom_site_type_symbol
_atom_site_label
_atom_site_fract_x
_atom_site_fract_y
_atom_site_fract_z
Si Si1 0.096224 0.465604 0.584259
Si Si2 0.837455 0.257670 0.038680
Si Si3 0.418306 0.542794 0.108809
Si Si4 0.070352 0.639315 0.372587
Si Si5 0.299121 0.514811 0.101165
Si Si6 0.500000 0.657857 0.750000
Si Si7 0.636004 0.852405 0.265641
Si Si8 0.785796 0.642337 0.209211
O O1 0.078518 0.428966 0.772476
O O2 0.192897 0.502474 0.383607
O O3 0.114685 0.411698 0.420219
O O4 0.000000 0.500052 0.750000
O O5 0.830215 0.294729 0.206614
O O6 0.748231 0.215519 0.195373
O O7 0.866147 0.310963 0.859313
O O8 0.919428 0.204975 0.872559
O O9 0.373358 0.512956 0.064709
O O10 0.334044 0.537369 0.409173
O O11 0.500000 0.500000 0.000000
O O12 0.459164 0.611076 0.965215
O O13 0.116877 0.633658 0.423929
O O14 0.964176 0.662535 0.586783
O O15 0.288657 0.588901 0.068689
O O16 0.705061 0.866778 0.982278
#
# Coordination Sequence:
#
# PCOD9283494 Si02
#       8
#     8   8   8   8   8   4   8   8
#     4   9  21  40  62  90 122 171 209 254 319 383
#     4  11  21  42  64  86 120 168 211 255 319 381
#     4  12  23  43  65  95 127 172 211 264 315 383
#     4  10  21  40  62  87 126 161 205 264 318 372
#     4  12  24  40  66  94 134 166 216 263 318 387
#     4  12  22  42  72  88 124 170 216 254 326 374
#     4  10  21  40  64  87 122 164 210 257 314 382
#     4  12  23  37  61  96 122 161 205 266 316 370
#
# _framework density 21.769648
#
# number of rings (size 3 to 8) (size 9 to 14) (size 15 to 20)
#    0.000    1.067    4.000    3.600    0.000    1.067 
#    0.000    3.333    2.933    0.000    0.000    0.000 
#    0.000    0.000    0.000    0.000    0.000    0.000 
#
# Total GULP energy -167648.732376 kJ/mol
# GULP energy per Si atom -5588.291079 kJ/mol
# Density = 2.172010 g / cm^3
# Si number density = 21.769648 Si / 1000 Ang^3
#
#
#
# Elastic Constant Matrix: (Units=GPa)
#
#
# Indices 1 2 3 4 5 6 
#
# 1 110.6584 31.4468 1.6969 0.0000 -4.7538 0.0000
# 2 31.4468 77.5416 20.2535 0.0000 0.1288 0.0000
# 3 1.6969 20.2535 52.6977 0.0000 2.3497 0.0000
# 4 0.0000 0.0000 0.0000 30.8999 0.0000 -9.0719
# 5 -4.7538 0.1288 2.3497 0.0000 37.5243 0.0000
# 6 0.0000 0.0000 0.0000 -9.0719 0.0000 25.5162
#
#
#
# Elastic Compliance Matrix: (Units=1/GPa)
#
#
# Indices 1 2 3 4 5 6 
#
# 1 0.010366 -0.004562 0.001364 0.000000 0.001243 0.000000
# 2 -0.004562 0.016347 -0.006124 0.000000 -0.000251 0.000000
# 3 0.001364 -0.006124 0.021337 0.000000 -0.001142 0.000000
# 4 0.000000 0.000000 0.000000 0.036134 0.000000 0.012847
# 5 0.001243 -0.000251 -0.001142 0.000000 0.026879 0.000000
# 6 0.000000 0.000000 0.000000 0.012847 0.000000 0.043758
#
#
# Mechanical properties :
#
#
# Convention : Reuss Voigt Hill
#
# Bulk Modulus (GPa) = 34.00850 38.63245 36.32048
# Shear Modulus (GPa) = 27.28248 31.28810 29.28529
#
# Velocity S-wave (km/s) = 3.54395 3.79520 3.67172
# Velocity P-wave (km/s) = 5.69227 6.08188 5.89030
#
# Compressibility (1/GPa) = 0.02940441
#
# Stress axis : x y z
#
# Youngs Moduli (GPa) = 96.47112 61.17483 46.86691
#
# Poissons Ratio (x) = 0.27909 -0.06393
# Poissons Ratio (y) = 0.44012 0.28704
# Poissons Ratio (z) = -0.13160 0.37466
#
# Static dielectric constant tensor:
#      x y z
#    x 1.772020 0.000000 -0.017580 
#    y 0.000000 1.812420 0.000000 
#    z -0.017580 0.000000 1.842060 
# 
# From -- ./inp_files/63500.got.cif
#   From: 2010.05.17/outbox.cif.g08.bks.cpg/sg15_32_cif.got.tgz:63500.got - 2010.06.03 18:47:42.
