data_PCOD9283079
_publ_section_title
;
Structure prediction by ZEFSAII (Michael W. Deem and Ramdas Pophale) SiO2 
 PCOD9283079
Probable space group: C 2/C
;
_chemical_formula_sum "Si O2"
_cell_formula_units_Z 56
_cell_length_a 16.769988
_cell_length_b 8.703633
_cell_length_c 24.153789
_cell_angle_alpha 90.000000
_cell_angle_beta 129.500803
_cell_angle_gamma 90.000000
_cell_volume 2720.317705
_symmetry_space_group_name_H-M "C 2/C"
_symmetry_group_IT_number 15
_symmetry_cell_setting 'monoclinic'
loop_
_space_group_symop_operation_xyz
x,y,z
-x,y,1/2-z
-x,-y,-z
x,-y,1/2+z
1/2+x,1/2+y,z
1/2-x,1/2+y,1/2-z
1/2-x,1/2-y,-z
1/2+x,1/2-y,1/2+z
loop_
_atom_site_type_symbol
_atom_site_label
_atom_site_fract_x
_atom_site_fract_y
_atom_site_fract_z
Si Si1 0.970349 0.383585 0.081804
Si Si2 0.399597 0.195620 0.236693
Si Si3 0.680153 0.835628 0.118543
Si Si4 0.180664 0.142477 0.008340
Si Si5 0.325798 0.810713 0.919429
Si Si6 0.342182 0.915587 0.130399
Si Si7 0.479962 0.229664 0.394636
O O1 0.933621 0.374918 0.128688
O O2 0.085406 0.323888 0.119665
O O3 0.970022 0.565510 0.065848
O O4 0.888694 0.303334 0.004782
O O5 0.500000 0.264591 0.250000
O O6 0.293971 0.290562 0.188548
O O7 0.431096 0.186810 0.314347
O O8 0.376463 0.037603 0.192436
O O9 0.659600 0.723283 0.057897
O O10 0.682457 0.011215 0.099951
O O11 0.252089 0.997786 0.053640
O O12 0.250000 0.250000 0.000000
O O13 0.068321 0.140628 0.930368
O O14 0.214568 0.733094 0.871771
O O15 0.395095 0.730593 0.902770
#
# Coordination Sequence:
#
# PCOD9283079 Si02
#       7
#     8   8   8   8   8   8   8
#     4  11  19  40  65  94 122 169 201 266 321 384
#     4  11  23  43  65  88 121 176 219 257 309 387
#     4  10  21  39  67  87 122 164 222 248 319 383
#     4  11  18  37  65  95 114 169 218 262 297 374
#     4  11  22  38  64  98 127 161 204 271 332 368
#     4  11  24  38  68  95 134 160 213 265 324 375
#     4  11  20  38  66  87 127 166 219 261 311 374
#
# _framework density 20.585830999999999
#
# number of rings (size 3 to 8) (size 9 to 14) (size 15 to 20)
#    0.000    1.143    5.714    2.143    0.000    2.857 
#    0.000    0.714    6.286    0.000    0.000    0.000 
#    0.000    0.000    0.000    0.000    0.000    0.000 
#
# Total GULP energy -156321.913761 kJ/mol
# GULP energy per Si atom -5582.925491 kJ/mol
# Density = 2.053898 g / cm^3
# Si number density = 20.585831 Si / 1000 Ang^3
#
#
#
# Elastic Constant Matrix: (Units=GPa)
#
#
# Indices 1 2 3 4 5 6 
#
# 1 121.7182 28.5067 38.1831 0.0000 14.5814 0.0000
# 2 28.5067 19.1044 19.5308 0.0000 7.3847 0.0000
# 3 38.1831 19.5308 120.2072 0.0000 8.8684 0.0000
# 4 0.0000 0.0000 0.0000 6.3979 0.0000 10.4269
# 5 14.5814 7.3847 8.8684 0.0000 33.4972 0.0000
# 6 0.0000 0.0000 0.0000 10.4269 0.0000 30.5616
#
#
#
# Elastic Compliance Matrix: (Units=1/GPa)
#
#
# Indices 1 2 3 4 5 6 
#
# 1 0.012824 -0.017415 -0.001138 0.000000 -0.001442 0.000000
# 2 -0.017415 0.090965 -0.008494 0.000000 -0.010224 0.000000
# 3 -0.001138 -0.008494 0.010083 0.000000 -0.000302 0.000000
# 4 0.000000 0.000000 0.000000 0.352048 0.000000 -0.120111
# 5 -0.001442 -0.010224 -0.000302 0.000000 0.032815 0.000000
# 6 0.000000 0.000000 0.000000 -0.120111 0.000000 0.073700
#
#
# Mechanical properties :
#
#
# Convention : Reuss Voigt Hill
#
# Bulk Modulus (GPa) = 16.72818 48.16346 32.44582
# Shear Modulus (GPa) = 7.73451 25.74529 16.73990
#
# Velocity S-wave (km/s) = 1.94045 3.54026 2.85472
# Velocity P-wave (km/s) = 3.62825 6.33707 5.16346
#
# Compressibility (1/GPa) = 0.05977936
#
# Stress axis : x y z
#
# Youngs Moduli (GPa) = 77.97931 10.99322 99.18097
#
# Poissons Ratio (x) = 0.19145 0.11282
# Poissons Ratio (y) = 1.35801 0.84241
# Poissons Ratio (z) = 0.08870 0.09337
#
# Static dielectric constant tensor:
#      x y z
#    x 1.752050 0.000000 0.022440 
#    y 0.000000 1.741500 0.000000 
#    z 0.022440 0.000000 1.784300 
# 
# From -- ./inp_files/295237.got.cif
#   From: 2010.05.17/outbox.cif.g08.bks.cpg/sg15_148_cif.got.tgz:295237.got - 2010.06.03 18:47:42.
