data_PCOD9283162
_publ_section_title
;
Structure prediction by ZEFSAII (Michael W. Deem and Ramdas Pophale) SiO2 
 PCOD9283162
Probable space group: C 2/C
;
_chemical_formula_sum "Si O2"
_cell_formula_units_Z 56
_cell_length_a 20.455413
_cell_length_b 11.779576
_cell_length_c 11.569269
_cell_angle_alpha 90.000000
_cell_angle_beta 107.060241
_cell_angle_gamma 90.000000
_cell_volume 2665.018823
_symmetry_space_group_name_H-M "C 2/C"
_symmetry_group_IT_number 15
_symmetry_cell_setting 'monoclinic'
loop_
_space_group_symop_operation_xyz
x,y,z
-x,y,1/2-z
-x,-y,-z
x,-y,1/2+z
1/2+x,1/2+y,z
1/2-x,1/2+y,1/2-z
1/2-x,1/2-y,-z
1/2+x,1/2-y,1/2+z
loop_
_atom_site_type_symbol
_atom_site_label
_atom_site_fract_x
_atom_site_fract_y
_atom_site_fract_z
Si Si1 0.825453 0.198218 0.051120
Si Si2 0.925071 0.834787 0.215002
Si Si3 0.552036 0.158200 0.473198
Si Si4 0.155888 0.775786 0.675068
Si Si5 0.810108 0.951852 0.006424
Si Si6 0.318960 0.962941 0.394531
Si Si7 0.103400 0.329579 0.596408
O O1 0.840780 0.179438 0.194059
O O2 0.828826 0.079985 0.984285
O O3 0.750000 0.250000 0.000000
O O4 0.876910 0.286345 0.020065
O O5 0.866634 0.908296 0.126335
O O6 0.901080 0.779714 0.322134
O O7 0.000000 0.893210 0.250000
O O8 0.936914 0.726935 0.137995
O O9 0.579623 0.243629 0.588669
O O10 0.608454 0.060754 0.505476
O O11 0.473846 0.124211 0.441030
O O12 0.188125 0.863256 0.598985
O O13 0.191863 0.651021 0.686926
O O14 0.739507 0.963454 0.040149
O O15 0.337051 0.080042 0.338923
#
# Coordination Sequence:
#
# PCOD9283162 Si02
#       7
#     8   8   8   8   8   8   8
#     4  12  27  42  61  98 135 162 217 273 327 378
#     4   9  21  42  66  94 127 173 226 257 316 391
#     4   8  20  42  65  93 129 171 215 259 326 392
#     4   9  24  43  63  95 126 171 218 256 328 388
#     4  11  23  44  67  90 128 177 214 269 316 391
#     4  10  21  39  68  94 129 167 213 266 328 384
#     4  11  22  40  64 100 133 165 212 276 325 384
#
# _framework density 21.012986000000001
#
# number of rings (size 3 to 8) (size 9 to 14) (size 15 to 20)
#    0.857    1.143    1.429    0.857    4.000    1.714 
#    2.571    3.571    0.000    0.000    0.000    0.000 
#    0.000    0.000    0.000    0.000    0.000    0.000 
#
# Total GULP energy -156037.053345 kJ/mol
# GULP energy per Si atom -5572.751905 kJ/mol
# Density = 2.096516 g / cm^3
# Si number density = 21.012986 Si / 1000 Ang^3
#
#
#
# Elastic Constant Matrix: (Units=GPa)
#
#
# Indices 1 2 3 4 5 6 
#
# 1 119.4025 44.5850 39.2162 0.0000 -8.9854 0.0000
# 2 44.5850 93.4468 12.2870 0.0000 -9.8833 0.0000
# 3 39.2162 12.2870 83.2525 0.0000 -2.2394 0.0000
# 4 0.0000 0.0000 0.0000 9.9823 0.0000 -2.1803
# 5 -8.9854 -9.8833 -2.2394 0.0000 23.1570 0.0000
# 6 0.0000 0.0000 0.0000 -2.1803 0.0000 30.4521
#
#
#
# Elastic Compliance Matrix: (Units=1/GPa)
#
#
# Indices 1 2 3 4 5 6 
#
# 1 0.011930 -0.004833 -0.004850 0.000000 0.002098 0.000000
# 2 -0.004833 0.013362 0.000408 0.000000 0.003867 0.000000
# 3 -0.004850 0.000408 0.014227 0.000000 -0.000332 0.000000
# 4 0.000000 0.000000 0.000000 0.101769 0.000000 0.007286
# 5 0.002098 0.003867 -0.000332 0.000000 0.045616 0.000000
# 6 0.000000 0.000000 0.000000 0.007286 0.000000 0.033360
#
#
# Mechanical properties :
#
#
# Convention : Reuss Voigt Hill
#
# Bulk Modulus (GPa) = 47.68497 54.25312 50.96904
# Shear Modulus (GPa) = 20.34146 26.05255 23.19700
#
# Velocity S-wave (km/s) = 3.11471 3.52494 3.32616
# Velocity P-wave (km/s) = 5.97307 6.51474 6.24978
#
# Compressibility (1/GPa) = 0.02097097
#
# Stress axis : x y z
#
# Youngs Moduli (GPa) = 83.81982 74.83736 70.28821
#
# Poissons Ratio (x) = 0.36166 0.34091
# Poissons Ratio (y) = 0.40507 -0.02870
# Poissons Ratio (z) = 0.40654 -0.03056
#
# Static dielectric constant tensor:
#      x y z
#    x 1.755810 0.000000 0.029270 
#    y 0.000000 1.786030 0.000000 
#    z 0.029270 0.000000 1.750590 
# 
# From -- ./inp_files/111143.got.cif
#   From: 2010.05.17/outbox.cif.g08.bks.cpg/sg15_56_cif.got.tgz:111143.got - 2010.06.03 18:47:42.
