data_PCOD9283861
_publ_section_title
;
Structure prediction by ZEFSAII (Michael W. Deem and Ramdas Pophale) SiO2 
 PCOD9283861
Probable space group: C 2/C
;
_chemical_formula_sum "Si O2"
_cell_formula_units_Z 36
_cell_length_a 10.819615
_cell_length_b 28.225540
_cell_length_c 14.040147
_cell_angle_alpha 90.000000
_cell_angle_beta 18.479335
_cell_angle_gamma 90.000000
_cell_volume 1359.044711
_symmetry_space_group_name_H-M "C 2/C"
_symmetry_group_IT_number 15
_symmetry_cell_setting 'monoclinic'
loop_
_space_group_symop_operation_xyz
x,y,z
-x,y,1/2-z
-x,-y,-z
x,-y,1/2+z
1/2+x,1/2+y,z
1/2-x,1/2+y,1/2-z
1/2-x,1/2-y,-z
1/2+x,1/2-y,1/2+z
loop_
_atom_site_type_symbol
_atom_site_label
_atom_site_fract_x
_atom_site_fract_y
_atom_site_fract_z
Si Si1 0.462179 0.024689 0.891942
Si Si2 0.546004 0.126177 0.603867
Si Si3 0.558720 0.925037 0.593982
Si Si4 0.500000 0.338144 0.250000
Si Si5 0.895789 0.781996 0.146074
O O1 0.500000 0.021948 0.750000
O O2 0.628923 0.075550 0.805571
O O3 0.639730 0.974007 0.797710
O O4 0.000000 0.030296 0.250000
O O5 0.500000 0.122959 0.750000
O O6 0.338889 0.173205 0.721473
O O7 0.000000 0.129313 0.250000
O O8 0.500000 0.919515 0.750000
O O9 0.611770 0.871347 0.515388
O O10 0.000000 0.939677 0.250000
O O11 0.603506 0.305433 0.085806
O O12 0.630619 0.741874 0.389310
#
# Coordination Sequence:
#
# PCOD9283861 Si02
#       5
#     8   8   8   4   8
#     4   8  14  29  55  84 116 148 182 237 288 357
#     4  10  21  40  65  88 122 154 198 249 304 352
#     4   8  16  30  57  83 116 151 191 233 287 358
#     4  10  24  40  64  86 126 158 200 246 298 354
#     4  12  27  42  62  88 119 161 209 251 297 346
#
# _framework density 26.489194000000001
#
# number of rings (size 3 to 8) (size 9 to 14) (size 15 to 20)
#    0.667    1.778    0.000    2.000    3.111    2.667 
#    0.000    1.111    0.000    4.000    0.000    0.000 
#    0.000    0.000    0.000    0.000    0.000    0.000 
#
# Total GULP energy -100484.661722 kJ/mol
# GULP energy per Si atom -5582.481207 kJ/mol
# Density = 2.642890 g / cm^3
# Si number density = 26.489194 Si / 1000 Ang^3
#
#
#
# Elastic Constant Matrix: (Units=GPa)
#
#
# Indices 1 2 3 4 5 6 
#
# 1 58.7942 22.1418 34.0855 -0.0007 6.5362 0.0019
# 2 22.1418 217.8348 21.8735 0.0092 -22.0338 -0.0022
# 3 34.0855 21.8735 118.6549 -0.0050 27.1813 0.0137
# 4 -0.0007 0.0092 -0.0050 106.5500 0.0179 -4.5616
# 5 6.5362 -22.0338 27.1813 0.0179 31.9317 -0.0101
# 6 0.0019 -0.0022 0.0137 -4.5616 -0.0101 58.7356
#
#
#
# Elastic Compliance Matrix: (Units=1/GPa)
#
#
# Indices 1 2 3 4 5 6 
#
# 1 0.020920 -0.001639 -0.005550 0.000000 -0.000689 0.000000
# 2 -0.001639 0.005524 -0.001860 -0.000001 0.005730 0.000002
# 3 -0.005550 -0.001860 0.012918 0.000002 -0.011144 -0.000005
# 4 0.000000 -0.000001 0.000002 0.009417 -0.000008 0.000731
# 5 -0.000689 0.005730 -0.011144 -0.000008 0.044898 0.000010
# 6 0.000000 0.000002 -0.000005 0.000731 0.000010 0.017082
#
#
# Mechanical properties :
#
#
# Convention : Reuss Voigt Hill
#
# Bulk Modulus (GPa) = 47.02835 61.27618 54.15227
# Shear Modulus (GPa) = 36.78026 60.58899 48.68463
#
# Velocity S-wave (km/s) = 3.73030 4.78777 4.29173
# Velocity P-wave (km/s) = 6.02875 7.33119 6.71164
#
# Compressibility (1/GPa) = 0.02126377
#
# Stress axis : x y z
#
# Youngs Moduli (GPa) = 47.80222 181.04061 77.41332
#
# Poissons Ratio (x) = 0.29669 0.42961
# Poissons Ratio (y) = 0.07834 0.14400
# Poissons Ratio (z) = 0.26528 0.33677
#
# Static dielectric constant tensor:
#      x y z
#    x 2.087640 0.000000 -0.054450 
#    y 0.000000 2.218230 0.000000 
#    z -0.054450 0.000000 2.099420 
# 
# From -- ./inp_files/149097.got.cif
#   From: 2010.05.17/outbox.cif.g08.bks.cpg/sg15_75_cif.got.tgz:149097.got - 2010.06.03 18:47:42.
