data_PCOD9283652
_publ_section_title
;
Structure prediction by ZEFSAII (Michael W. Deem and Ramdas Pophale) SiO2 
 PCOD9283652
Probable space group: C 2/C
;
_chemical_formula_sum "Si O2"
_cell_formula_units_Z 60
_cell_length_a 27.244271
_cell_length_b 11.354608
_cell_length_c 9.143827
_cell_angle_alpha 90.000000
_cell_angle_beta 84.099548
_cell_angle_gamma 90.000000
_cell_volume 2813.638718
_symmetry_space_group_name_H-M "C 2/C"
_symmetry_group_IT_number 15
_symmetry_cell_setting 'monoclinic'
loop_
_space_group_symop_operation_xyz
x,y,z
-x,y,1/2-z
-x,-y,-z
x,-y,1/2+z
1/2+x,1/2+y,z
1/2-x,1/2+y,1/2-z
1/2-x,1/2-y,-z
1/2+x,1/2-y,1/2+z
loop_
_atom_site_type_symbol
_atom_site_label
_atom_site_fract_x
_atom_site_fract_y
_atom_site_fract_z
Si Si1 0.748763 0.612190 0.480870
Si Si2 0.861835 0.896282 0.411385
Si Si3 0.188060 0.492244 0.785840
Si Si4 0.122104 0.586836 0.556031
Si Si5 0.917064 0.328369 0.948264
Si Si6 0.942752 0.250601 0.258633
Si Si7 0.422141 0.506449 0.650068
Si Si8 0.500000 0.683973 0.750000
O O1 0.750000 0.750000 0.500000
O O2 0.692441 0.570990 0.519685
O O3 0.783209 0.559659 0.596368
O O4 0.772349 0.580267 0.318610
O O5 0.870988 0.756087 0.422591
O O6 0.903668 0.959201 0.499534
O O7 0.875256 0.935534 0.244658
O O8 0.162234 0.576966 0.674316
O O9 0.147710 0.417227 0.889513
O O10 0.091852 0.464461 0.582647
O O11 0.087556 0.698203 0.596017
O O12 0.963106 0.266833 0.853045
O O13 0.923413 0.315551 0.119574
O O14 0.936131 0.112485 0.232650
O O15 0.000000 0.277718 0.250000
O O16 0.467109 0.598898 0.654538
#
# Coordination Sequence:
#
# PCOD9283652 Si02
#       8
#     8   8   8   8   8   8   8   4
#     4  11  23  43  70  96 134 171 224 274 341 395
#     4  10  21  40  63  92 124 165 211 263 323 386
#     4  10  23  43  67  94 127 173 215 278 325 394
#     4  11  22  44  62  94 129 169 223 259 330 384
#     4  10  23  40  65  89 129 170 212 264 319 383
#     4  11  24  38  63  92 132 167 210 268 318 381
#     4  10  22  39  63  92 132 164 209 265 319 387
#     4  10  22  40  66  96 124 170 218 258 324 390
#
# _framework density 21.324701000000001
#
# number of rings (size 3 to 8) (size 9 to 14) (size 15 to 20)
#    0.000    1.600    2.000    2.400    4.667    3.200 
#    7.200    1.333    0.000    0.000    0.000    0.000 
#    0.000    0.000    0.000    0.000    0.000    0.000 
#
# Total GULP energy -167708.213862 kJ/mol
# GULP energy per Si atom -5590.273795 kJ/mol
# Density = 2.127616 g / cm^3
# Si number density = 21.324701 Si / 1000 Ang^3
#
#
#
# Elastic Constant Matrix: (Units=GPa)
#
#
# Indices 1 2 3 4 5 6 
#
# 1 87.4536 12.7760 11.0431 0.0000 -23.7669 0.0000
# 2 12.7760 63.1575 16.9092 0.0000 -0.3343 0.0000
# 3 11.0431 16.9092 71.7820 0.0000 -15.3880 0.0000
# 4 0.0000 0.0000 0.0000 14.2765 0.0000 -56.4573
# 5 -23.7669 -0.3343 -15.3880 0.0000 31.2689 0.0000
# 6 0.0000 0.0000 0.0000 -56.4573 0.0000 -161.1620
#
#
#
# Elastic Compliance Matrix: (Units=1/GPa)
#
#
# Indices 1 2 3 4 5 6 
#
# 1 0.015006 -0.003240 0.000997 0.000000 0.011862 0.000000
# 2 -0.003240 0.017710 -0.004651 0.000000 -0.004562 0.000000
# 3 0.000997 -0.004651 0.016797 0.000000 0.008975 0.000000
# 4 0.000000 0.000000 0.000000 0.029365 0.000000 -0.010287
# 5 0.011862 -0.004562 0.008975 0.000000 0.045364 0.000000
# 6 0.000000 0.000000 0.000000 -0.010287 0.000000 -0.002601
#
#
# Mechanical properties :
#
#
# Convention : Reuss Voigt Hill
#
# Bulk Modulus (GPa) = 27.99122 33.76107 30.87615
# Shear Modulus (GPa) = 33.93590 -11.01235 11.46178
#
# Velocity S-wave (km/s) = 3.99355 -2.27494 2.32089
# Velocity P-wave (km/s) = 5.86679 2.99430 4.65753
#
# Compressibility (1/GPa) = 0.03572548
#
# Stress axis : x y z
#
# Youngs Moduli (GPa) = 66.64190 56.46538 59.53362
#
# Poissons Ratio (x) = 0.18293 -0.05938
# Poissons Ratio (y) = 0.21590 0.27692
# Poissons Ratio (z) = -0.06647 0.26264
#
# Static dielectric constant tensor:
#      x y z
#    x 1.809090 0.000000 -0.009920 
#    y 0.000000 1.760470 0.000000 
#    z -0.009920 0.000000 1.767930 
# 
# From -- ./inp_files/65500.got.cif
#   From: 2010.05.17/outbox.cif.g08.bks.cpg/sg15_33_cif.got.tgz:65500.got - 2010.06.03 18:47:42.
