data_PCOD9283643
_publ_section_title
;
Structure prediction by ZEFSAII (Michael W. Deem and Ramdas Pophale) SiO2 
 PCOD9283643
Probable space group: C 2/C
;
_chemical_formula_sum "Si O2"
_cell_formula_units_Z 64
_cell_length_a 27.599570
_cell_length_b 8.469419
_cell_length_c 15.950183
_cell_angle_alpha 90.000000
_cell_angle_beta 131.964201
_cell_angle_gamma 90.000000
_cell_volume 2772.293685
_symmetry_space_group_name_H-M "C 2/C"
_symmetry_group_IT_number 15
_symmetry_cell_setting 'monoclinic'
loop_
_space_group_symop_operation_xyz
x,y,z
-x,y,1/2-z
-x,-y,-z
x,-y,1/2+z
1/2+x,1/2+y,z
1/2-x,1/2+y,1/2-z
1/2-x,1/2-y,-z
1/2+x,1/2-y,1/2+z
loop_
_atom_site_type_symbol
_atom_site_label
_atom_site_fract_x
_atom_site_fract_y
_atom_site_fract_z
Si Si1 0.749824 0.302495 0.902099
Si Si2 0.875572 0.403893 0.957768
Si Si3 0.369481 0.918057 0.272382
Si Si4 0.510603 0.368529 0.414730
Si Si5 0.640443 0.741813 0.011662
Si Si6 0.770887 0.822706 0.115646
Si Si7 0.897015 0.711217 0.211755
Si Si8 0.998344 0.790845 0.907927
O O1 0.816548 0.296686 0.925003
O O2 0.694068 0.191452 0.798012
O O3 0.736350 0.490077 0.887762
O O4 0.750000 0.250000 0.000000
O O5 0.872874 0.468562 0.858238
O O6 0.873881 0.572105 0.001736
O O7 0.942607 0.315460 0.054309
O O8 0.432599 0.807890 0.338157
O O9 0.373825 0.031110 0.195880
O O10 0.588488 0.347099 0.508210
O O11 0.472442 0.234953 0.318861
O O12 0.483836 0.341313 0.476621
O O13 0.492217 0.539298 0.357275
O O14 0.619361 0.700892 0.893193
O O15 0.718133 0.733193 0.113660
O O16 0.846601 0.792671 0.217839
O O17 0.750000 0.750000 0.000000
#
# Coordination Sequence:
#
# PCOD9283643 Si02
#       8
#     8   8   8   8   8   8   8   8
#     4  11  25  45  68 102 138 174 227 289 339 403
#     4  11  23  43  66  96 134 178 224 276 343 408
#     4  12  23  43  68  96 135 179 225 280 340 411
#     4  11  22  40  62  92 127 164 223 272 333 389
#     4  10  21  40  63  91 127 170 217 268 330 402
#     4   9  20  39  63  90 128 168 210 265 331 396
#     4  11  22  39  66  92 126 175 218 271 335 399
#     4  11  24  42  63  94 131 171 217 284 326 403
#
# _framework density 23.085576
#
# number of rings (size 3 to 8) (size 9 to 14) (size 15 to 20)
#    0.000    1.250    2.500    4.500    0.000    5.000 
#    4.500    5.625    0.000    0.000    0.000    0.000 
#    0.000    0.000    0.000    0.000    0.000    0.000 
#
# Total GULP energy -178482.175054 kJ/mol
# GULP energy per Si atom -5577.567970 kJ/mol
# Density = 2.303303 g / cm^3
# Si number density = 23.085576 Si / 1000 Ang^3
#
#
#
# Elastic Constant Matrix: (Units=GPa)
#
#
# Indices 1 2 3 4 5 6 
#
# 1 106.4520 26.6628 20.6406 0.0000 35.7452 0.0000
# 2 26.6628 61.3458 0.4011 0.0000 14.1202 0.0000
# 3 20.6406 0.4011 34.2771 0.0000 20.4450 0.0000
# 4 0.0000 0.0000 0.0000 31.4717 0.0000 11.6633
# 5 35.7452 14.1202 20.4450 0.0000 32.9549 0.0000
# 6 0.0000 0.0000 0.0000 11.6633 0.0000 36.7568
#
#
#
# Elastic Compliance Matrix: (Units=1/GPa)
#
#
# Indices 1 2 3 4 5 6 
#
# 1 0.015302 -0.003161 -0.000135 0.000000 -0.015160 0.000000
# 2 -0.003161 0.019861 0.007464 0.000000 -0.009712 0.000000
# 3 -0.000135 0.007464 0.049190 0.000000 -0.033568 0.000000
# 4 0.000000 0.000000 0.000000 0.036009 0.000000 -0.011426
# 5 -0.015160 -0.009712 -0.033568 0.000000 0.071775 0.000000
# 6 0.000000 0.000000 0.000000 -0.011426 0.000000 0.030831
#
#
# Mechanical properties :
#
#
# Convention : Reuss Voigt Hill
#
# Bulk Modulus (GPa) = 10.78869 33.05378 21.92123
# Shear Modulus (GPa) = 20.36410 30.52806 25.44608
#
# Velocity S-wave (km/s) = 2.97326 3.64041 3.32362
# Velocity P-wave (km/s) = 4.05839 5.65854 4.92390
#
# Compressibility (1/GPa) = 0.09268963
#
# Stress axis : x y z
#
# Youngs Moduli (GPa) = 65.35016 50.34885 20.32915
#
# Poissons Ratio (x) = 0.15913 0.00275
# Poissons Ratio (y) = 0.20655 -0.15173
# Poissons Ratio (z) = 0.00885 -0.37579
#
# Static dielectric constant tensor:
#      x y z
#    x 2.016090 0.000000 -0.056960 
#    y 0.000000 1.900760 0.000000 
#    z -0.056960 0.000000 1.890750 
# 
# From -- ./inp_files/224651.got.cif
#   From: 2010.05.17/outbox.cif.g08.bks.cpg/sg15_113_cif.got.tgz:224651.got - 2010.06.03 18:47:42.
