data_PCOD9283482
_publ_section_title
;
Structure prediction by ZEFSAII (Michael W. Deem and Ramdas Pophale) SiO2 
 PCOD9283482
Probable space group: C 2/C
;
_chemical_formula_sum "Si O2"
_cell_formula_units_Z 52
_cell_length_a 18.325846
_cell_length_b 15.604191
_cell_length_c 9.510184
_cell_angle_alpha 90.000000
_cell_angle_beta 93.954753
_cell_angle_gamma 90.000000
_cell_volume 2713.056550
_symmetry_space_group_name_H-M "C 2/C"
_symmetry_group_IT_number 15
_symmetry_cell_setting 'monoclinic'
loop_
_space_group_symop_operation_xyz
x,y,z
-x,y,1/2-z
-x,-y,-z
x,-y,1/2+z
1/2+x,1/2+y,z
1/2-x,1/2+y,1/2-z
1/2-x,1/2-y,-z
1/2+x,1/2-y,1/2+z
loop_
_atom_site_type_symbol
_atom_site_label
_atom_site_fract_x
_atom_site_fract_y
_atom_site_fract_z
Si Si1 0.726145 0.152301 0.124454
Si Si2 0.567070 0.891575 0.501563
Si Si3 0.500000 0.001178 0.250000
Si Si4 0.925834 0.944617 0.985096
Si Si5 0.177013 0.170451 0.631093
Si Si6 0.674101 0.493877 0.775638
Si Si7 0.488812 0.718168 0.910133
O O1 0.652149 0.129128 0.032276
O O2 0.705464 0.240227 0.202155
O O3 0.758297 0.071462 0.210736
O O4 0.789064 0.170780 0.019355
O O5 0.550847 0.943334 0.357643
O O6 0.521388 0.802883 0.498484
O O7 0.543269 0.942915 0.639640
O O8 0.889019 0.951648 0.828484
O O9 0.865287 0.983256 0.082906
O O10 0.949875 0.848941 0.033308
O O11 0.000000 0.000000 0.000000
O O12 0.198214 0.084589 0.713816
O O13 0.089747 0.171377 0.604177
O O14 0.500000 0.745050 0.750000
#
# Coordination Sequence:
#
# PCOD9283482 Si02
#       7
#     8   8   4   8   8   8   8
#     4  10  23  41  62  89 126 172 200 252 316 378
#     4  10  23  41  68  86 126 158 213 259 316 363
#     4  10  22  44  62  98 108 160 220 266 302 368
#     4  12  22  37  63  95 129 163 203 259 310 378
#     4  10  21  40  62  86 127 166 206 243 317 375
#     4  12  22  39  62  96 125 165 214 250 313 377
#     4  11  19  39  63  92 126 167 199 260 320 362
#
# _framework density 19.166575000000002
#
# number of rings (size 3 to 8) (size 9 to 14) (size 15 to 20)
#    0.000    1.231    5.385    0.462    2.154    0.000 
#   11.077    0.769    0.000    0.000    0.000    0.000 
#    0.000    0.000    0.000    0.000    0.000    0.000 
#
# Total GULP energy -145065.196345 kJ/mol
# GULP energy per Si atom -5579.430629 kJ/mol
# Density = 1.912295 g / cm^3
# Si number density = 19.166575 Si / 1000 Ang^3
#
#
#
# Elastic Constant Matrix: (Units=GPa)
#
#
# Indices 1 2 3 4 5 6 
#
# 1 64.4971 28.8397 7.6999 0.0000 9.8256 0.0000
# 2 28.8397 139.7906 19.3333 0.0000 21.2378 0.0000
# 3 7.6999 19.3333 49.9223 0.0000 4.4663 0.0000
# 4 0.0000 0.0000 0.0000 17.9695 0.0000 0.4796
# 5 9.8256 21.2378 4.4663 0.0000 18.3036 0.0000
# 6 0.0000 0.0000 0.0000 0.4796 0.0000 39.2387
#
#
#
# Elastic Compliance Matrix: (Units=1/GPa)
#
#
# Indices 1 2 3 4 5 6 
#
# 1 0.017740 -0.002540 -0.001190 0.000000 -0.006285 0.000000
# 2 -0.002540 0.009369 -0.002439 0.000000 -0.008912 0.000000
# 3 -0.001190 -0.002439 0.021314 0.000000 -0.001732 0.000000
# 4 0.000000 0.000000 0.000000 0.055668 0.000000 -0.000680
# 5 -0.006285 -0.008912 -0.001732 0.000000 0.068771 0.000000
# 6 0.000000 0.000000 0.000000 -0.000680 0.000000 0.025493
#
#
# Mechanical properties :
#
#
# Convention : Reuss Voigt Hill
#
# Bulk Modulus (GPa) = 27.71319 40.66179 34.18749
# Shear Modulus (GPa) = 22.44938 28.32482 25.38710
#
# Velocity S-wave (km/s) = 3.42611 3.84842 3.64339
# Velocity P-wave (km/s) = 5.49012 6.40376 5.96446
#
# Compressibility (1/GPa) = 0.03608390
#
# Stress axis : x y z
#
# Youngs Moduli (GPa) = 56.36952 106.73541 46.91698
#
# Poissons Ratio (x) = 0.27116 0.05583
# Poissons Ratio (y) = 0.14320 0.11444
# Poissons Ratio (z) = 0.06708 0.26035
#
# Static dielectric constant tensor:
#      x y z
#    x 1.587690 0.000000 -0.057980 
#    y 0.000000 1.747540 0.000000 
#    z -0.057980 0.000000 1.630910 
# 
# From -- ./inp_files/66319.got.cif
#   From: 2010.05.17/outbox.cif.g08.bks.cpg/sg15_34_cif.got.tgz:66319.got - 2010.06.03 18:47:42.
