data_PCOD9283809
_publ_section_title
;
Structure prediction by ZEFSAII (Michael W. Deem and Ramdas Pophale) SiO2 
 PCOD9283809
Probable space group: C 2/C
;
_chemical_formula_sum "Si O2"
_cell_formula_units_Z 40
_cell_length_a 13.471889
_cell_length_b 14.635517
_cell_length_c 11.599352
_cell_angle_alpha 90.000000
_cell_angle_beta 132.472628
_cell_angle_gamma 90.000000
_cell_volume 1686.907241
_symmetry_space_group_name_H-M "C 2/C"
_symmetry_group_IT_number 15
_symmetry_cell_setting 'monoclinic'
loop_
_space_group_symop_operation_xyz
x,y,z
-x,y,1/2-z
-x,-y,-z
x,-y,1/2+z
1/2+x,1/2+y,z
1/2-x,1/2+y,1/2-z
1/2-x,1/2-y,-z
1/2+x,1/2-y,1/2+z
loop_
_atom_site_type_symbol
_atom_site_label
_atom_site_fract_x
_atom_site_fract_y
_atom_site_fract_z
Si Si1 0.386046 0.427641 0.508241
Si Si2 0.670237 0.070261 0.044577
Si Si3 0.500000 0.417641 0.250000
Si Si4 0.857150 0.200492 0.302063
Si Si5 0.000000 0.682048 0.750000
Si Si6 0.234696 0.623138 0.657935
O O1 0.288560 0.420400 0.541998
O O2 0.465652 0.519091 0.610771
O O3 0.501864 0.352328 0.581280
O O4 0.291993 0.416600 0.324072
O O5 0.734792 0.128854 0.199240
O O6 0.648572 0.962854 0.045503
O O7 0.543785 0.120504 0.891190
O O8 0.635090 0.365701 0.322234
O O9 0.876872 0.256645 0.197968
O O10 0.833140 0.279259 0.376298
#
# Coordination Sequence:
#
# PCOD9283809 Si02
#       6
#     8   8   4   8   4   8
#     4  11  19  41  69  97 125 169 225 273 311 384
#     4  11  23  41  66 102 131 169 223 272 325 385
#     4  10  21  40  64  95 128 170 225 264 312 395
#     4  12  21  38  69 103 126 166 221 281 324 376
#     4  12  21  38  66  95 138 162 217 284 324 373
#     4  11  24  39  67  99 130 176 218 268 333 387
#
# _framework density 23.712033000000002
#
# number of rings (size 3 to 8) (size 9 to 14) (size 15 to 20)
#    0.000    0.800    8.000    2.400    0.000    0.800 
#    0.000    1.000    0.000    1.200    0.000    0.000 
#    0.000    0.000    0.000    0.000    0.000    0.000 
#
# Total GULP energy -111760.508336 kJ/mol
# GULP energy per Si atom -5588.025417 kJ/mol
# Density = 2.365806 g / cm^3
# Si number density = 23.712033 Si / 1000 Ang^3
#
#
#
# Elastic Constant Matrix: (Units=GPa)
#
#
# Indices 1 2 3 4 5 6 
#
# 1 71.5434 49.4803 -15.9226 0.0000 -6.3756 0.0000
# 2 49.4803 104.8484 -1.0486 0.0000 -10.5624 0.0000
# 3 -15.9226 -1.0486 45.2651 0.0000 5.5500 0.0000
# 4 0.0000 0.0000 0.0000 31.5796 0.0000 -4.2055
# 5 -6.3756 -10.5624 5.5500 0.0000 20.9001 0.0000
# 6 0.0000 0.0000 0.0000 -4.2055 0.0000 61.9248
#
#
#
# Elastic Compliance Matrix: (Units=1/GPa)
#
#
# Indices 1 2 3 4 5 6 
#
# 1 0.023298 -0.010972 0.008011 0.000000 -0.000565 0.000000
# 2 -0.010972 0.015223 -0.004176 0.000000 0.005455 0.000000
# 3 0.008011 -0.004176 0.025606 0.000000 -0.006466 0.000000
# 4 0.000000 0.000000 0.000000 0.031955 0.000000 0.002170
# 5 -0.000565 0.005455 -0.006466 0.000000 0.052148 0.000000
# 6 0.000000 0.000000 0.000000 0.002170 0.000000 0.016296
#
#
# Mechanical properties :
#
#
# Convention : Reuss Voigt Hill
#
# Bulk Modulus (GPa) = 20.05871 31.85277 25.95574
# Shear Modulus (GPa) = 25.58615 35.49078 30.53847
#
# Velocity S-wave (km/s) = 3.28843 3.87297 3.59261
# Velocity P-wave (km/s) = 4.78498 5.78465 5.30840
#
# Compressibility (1/GPa) = 0.04985365
#
# Stress axis : x y z
#
# Youngs Moduli (GPa) = 42.92187 65.68938 39.05335
#
# Poissons Ratio (x) = 0.72072 -0.31284
# Poissons Ratio (y) = 0.47093 0.16307
# Poissons Ratio (z) = -0.34383 0.27430
#
# Static dielectric constant tensor:
#      x y z
#    x 1.960080 0.000000 -0.038760 
#    y 0.000000 1.980530 0.000000 
#    z -0.038760 0.000000 1.902870 
# 
# From -- ./inp_files/113343.got.cif
#   From: 2010.05.17/outbox.cif.g08.bks.cpg/sg15_57_cif.got.tgz:113343.got - 2010.06.03 18:47:42.
