data_PCOD9283002
_publ_section_title
;
Structure prediction by ZEFSAII (Michael W. Deem and Ramdas Pophale) SiO2 
 PCOD9283002
Probable space group: C 2/C
;
_chemical_formula_sum "Si O2"
_cell_formula_units_Z 52
_cell_length_a 16.087549
_cell_length_b 10.825578
_cell_length_c 17.639603
_cell_angle_alpha 90.000000
_cell_angle_beta 126.684021
_cell_angle_gamma 90.000000
_cell_volume 2463.615314
_symmetry_space_group_name_H-M "C 2/C"
_symmetry_group_IT_number 15
_symmetry_cell_setting 'monoclinic'
loop_
_space_group_symop_operation_xyz
x,y,z
-x,y,1/2-z
-x,-y,-z
x,-y,1/2+z
1/2+x,1/2+y,z
1/2-x,1/2+y,1/2-z
1/2-x,1/2-y,-z
1/2+x,1/2-y,1/2+z
loop_
_atom_site_type_symbol
_atom_site_label
_atom_site_fract_x
_atom_site_fract_y
_atom_site_fract_z
Si Si1 0.655714 0.219905 0.281354
Si Si2 0.839959 0.434484 0.934115
Si Si3 0.785140 0.878749 0.053419
Si Si4 0.500000 0.963013 0.750000
Si Si5 0.513704 0.582797 0.665877
Si Si6 0.831777 0.859681 0.772107
Si Si7 0.042395 0.614313 0.620949
O O1 0.698213 0.337206 0.349752
O O2 0.596975 0.129739 0.306027
O O3 0.569580 0.285179 0.180731
O O4 0.745065 0.144780 0.289977
O O5 0.796854 0.512971 0.981917
O O6 0.739887 0.368587 0.842360
O O7 0.889848 0.526050 0.897634
O O8 0.936631 0.355403 0.017641
O O9 0.894098 0.917743 0.075027
O O10 0.750000 0.750000 0.000000
O O11 0.514326 0.040525 0.681938
O O12 0.500000 0.571560 0.750000
O O13 0.587918 0.472824 0.679976
O O14 0.894967 0.733944 0.818218
#
# Coordination Sequence:
#
# PCOD9283002 Si02
#       7
#     8   8   8   4   8   8   8
#     4  11  21  39  65  96 128 178 226 272 338 400
#     4  11  23  44  69  99 140 186 225 280 353 405
#     4  11  21  40  69  98 129 173 235 288 326 401
#     4  12  22  40  64 104 136 174 234 282 334 418
#     4  10  21  39  66  93 122 179 224 264 339 402
#     4  12  22  44  68  96 141 180 220 279 350 406
#     4  11  26  40  69 106 138 181 230 282 347 414
#
# _framework density 21.107191
#
# number of rings (size 3 to 8) (size 9 to 14) (size 15 to 20)
#    0.000    0.923    8.462    0.923    1.077    0.000 
#    0.000    5.385    0.000    0.000    0.000    0.000 
#    0.000    0.000    0.000    0.000    0.000    0.000 
#
# Total GULP energy -145023.606988 kJ/mol
# GULP energy per Si atom -5577.831038 kJ/mol
# Density = 2.105915 g / cm^3
# Si number density = 21.107191 Si / 1000 Ang^3
#
#
#
# Elastic Constant Matrix: (Units=GPa)
#
#
# Indices 1 2 3 4 5 6 
#
# 1 131.0427 52.2657 29.4768 0.0000 32.4363 0.0000
# 2 52.2657 86.8977 48.7989 0.0000 20.0024 0.0000
# 3 29.4768 48.7989 98.2352 0.0000 30.8145 0.0000
# 4 0.0000 0.0000 0.0000 40.3974 0.0000 11.1313
# 5 32.4363 20.0024 30.8145 0.0000 26.0746 0.0000
# 6 0.0000 0.0000 0.0000 11.1313 0.0000 47.3828
#
#
#
# Elastic Compliance Matrix: (Units=1/GPa)
#
#
# Indices 1 2 3 4 5 6 
#
# 1 0.013557 -0.006852 0.004731 0.000000 -0.017199 0.000000
# 2 -0.006852 0.019772 -0.009029 0.000000 0.004026 0.000000
# 3 0.004731 -0.009029 0.020529 0.000000 -0.023219 0.000000
# 4 0.000000 0.000000 0.000000 0.026467 0.000000 -0.006218
# 5 -0.017199 0.004026 -0.023219 0.000000 0.084099 0.000000
# 6 0.000000 0.000000 0.000000 -0.006218 0.000000 0.022565
#
#
# Mechanical properties :
#
#
# Convention : Reuss Voigt Hill
#
# Bulk Modulus (GPa) = 31.68727 64.13981 47.91354
# Shear Modulus (GPa) = 22.74706 35.14659 28.94682
#
# Velocity S-wave (km/s) = 3.28638 4.08505 3.70729
# Velocity P-wave (km/s) = 5.42638 7.25974 6.40895
#
# Compressibility (1/GPa) = 0.03155842
#
# Stress axis : x y z
#
# Youngs Moduli (GPa) = 73.76301 50.57530 48.71240
#
# Poissons Ratio (x) = 0.34652 -0.23044
# Poissons Ratio (y) = 0.50540 0.43982
# Poissons Ratio (z) = -0.34895 0.45664
#
# Static dielectric constant tensor:
#      x y z
#    x 1.765400 0.000000 0.010650 
#    y 0.000000 1.742710 0.000000 
#    z 0.010650 0.000000 1.939690 
# 
# From -- ./inp_files/243791.got.cif
#   From: 2010.05.17/outbox.cif.g08.bks.cpg/sg15_122_cif.got.tgz:243791.got - 2010.06.03 18:47:42.
