data_PCOD9283500
_publ_section_title
;
Structure prediction by ZEFSAII (Michael W. Deem and Ramdas Pophale) SiO2 
 PCOD9283500
Probable space group: C 2/C
;
_chemical_formula_sum "Si O2"
_cell_formula_units_Z 44
_cell_length_a 9.111631
_cell_length_b 16.388267
_cell_length_c 15.487951
_cell_angle_alpha 90.000000
_cell_angle_beta 130.231600
_cell_angle_gamma 90.000000
_cell_volume 1765.623049
_symmetry_space_group_name_H-M "C 2/C"
_symmetry_group_IT_number 15
_symmetry_cell_setting 'monoclinic'
loop_
_space_group_symop_operation_xyz
x,y,z
-x,y,1/2-z
-x,-y,-z
x,-y,1/2+z
1/2+x,1/2+y,z
1/2-x,1/2+y,1/2-z
1/2-x,1/2-y,-z
1/2+x,1/2-y,1/2+z
loop_
_atom_site_type_symbol
_atom_site_label
_atom_site_fract_x
_atom_site_fract_y
_atom_site_fract_z
Si Si1 0.606593 0.614117 0.544831
Si Si2 0.771304 0.951596 0.649648
Si Si3 0.341848 0.621917 0.613357
Si Si4 0.951868 0.710339 0.433963
Si Si5 0.000000 0.684444 0.250000
Si Si6 0.740667 0.539769 0.161523
O O1 0.470900 0.613244 0.578138
O O2 0.633923 0.710474 0.549936
O O3 0.481416 0.569006 0.424903
O O4 0.767988 0.546865 0.625938
O O5 0.671683 0.868049 0.584791
O O6 0.692503 0.968884 0.715769
O O7 0.000000 0.940937 0.750000
O O8 0.738979 0.034728 0.586042
O O9 0.500000 0.632457 0.750000
O O10 0.174304 0.690248 0.544702
O O11 0.941750 0.720573 0.323540
O O12 0.837093 0.620169 0.160191
#
# Coordination Sequence:
#
# PCOD9283500 Si02
#       6
#     8   8   8   8   4   8
#     4  11  22  39  62  91 126 162 208 256 317 360
#     4  10  21  42  64  87 126 172 204 252 312 380
#     4  11  21  38  64  90 123 166 207 253 308 368
#     4  11  24  38  63 101 123 159 212 266 304 365
#     4  10  22  38  66  92 126 158 212 258 310 370
#     4  10  21  40  62  88 125 167 203 252 316 374
#
# _framework density 24.920382
#
# number of rings (size 3 to 8) (size 9 to 14) (size 15 to 20)
#    0.000    1.455    5.455    1.091    1.273    1.455 
#    1.636    0.909    0.000    0.000    0.000    0.000 
#    0.000    0.000    0.000    0.000    0.000    0.000 
#
# Total GULP energy -122751.281600 kJ/mol
# GULP energy per Si atom -5579.603709 kJ/mol
# Density = 2.486366 g / cm^3
# Si number density = 24.920382 Si / 1000 Ang^3
#
#
#
# Elastic Constant Matrix: (Units=GPa)
#
#
# Indices 1 2 3 4 5 6 
#
# 1 30.1770 9.8018 6.0087 0.0000 -1.1813 0.0000
# 2 9.8018 199.6706 32.5063 0.0000 7.9627 0.0000
# 3 6.0087 32.5063 89.6407 0.0000 -1.3689 0.0000
# 4 0.0000 0.0000 0.0000 24.6197 0.0000 -12.0906
# 5 -1.1813 7.9627 -1.3689 0.0000 34.8075 0.0000
# 6 0.0000 0.0000 0.0000 -12.0906 0.0000 21.9216
#
#
#
# Elastic Compliance Matrix: (Units=1/GPa)
#
#
# Indices 1 2 3 4 5 6 
#
# 1 0.034007 -0.001444 -0.001734 0.000000 0.001416 0.000000
# 2 -0.001444 0.005443 -0.001898 0.000000 -0.001369 0.000000
# 3 -0.001734 -0.001898 0.011973 0.000000 0.000846 0.000000
# 4 0.000000 0.000000 0.000000 0.055706 0.000000 0.030724
# 5 0.001416 -0.001369 0.000846 0.000000 0.029124 0.000000
# 6 0.000000 0.000000 0.000000 0.030724 0.000000 0.062563
#
#
# Mechanical properties :
#
#
# Convention : Reuss Voigt Hill
#
# Bulk Modulus (GPa) = 24.22974 46.23577 35.23276
# Shear Modulus (GPa) = 22.44921 34.34786 28.39854
#
# Velocity S-wave (km/s) = 3.00465 3.71658 3.37942
# Velocity P-wave (km/s) = 4.66703 6.08366 5.42182
#
# Compressibility (1/GPa) = 0.04127159
#
# Stress axis : x y z
#
# Youngs Moduli (GPa) = 29.40530 183.73385 83.52109
#
# Poissons Ratio (x) = 0.26523 0.14486
# Poissons Ratio (y) = 0.04245 0.15851
# Poissons Ratio (z) = 0.05100 0.34869
#
# Static dielectric constant tensor:
#      x y z
#    x 2.049010 0.000000 0.061410 
#    y 0.000000 2.090390 0.000000 
#    z 0.061410 0.000000 2.048140 
# 
# From -- ./inp_files/86769.got.cif
#   From: 2010.05.17/outbox.cif.g08.bks.cpg/sg15_44_cif.got.tgz:86769.got - 2010.06.03 18:47:42.
