data_PCOD9283013
_publ_section_title
;
Structure prediction by ZEFSAII (Michael W. Deem and Ramdas Pophale) SiO2 
 PCOD9283013
Probable space group: C 2/C
;
_chemical_formula_sum "Si O2"
_cell_formula_units_Z 40
_cell_length_a 19.057076
_cell_length_b 6.601397
_cell_length_c 15.712177
_cell_angle_alpha 90.000000
_cell_angle_beta 101.556733
_cell_angle_gamma 90.000000
_cell_volume 1936.571227
_symmetry_space_group_name_H-M "C 2/C"
_symmetry_group_IT_number 15
_symmetry_cell_setting 'monoclinic'
loop_
_space_group_symop_operation_xyz
x,y,z
-x,y,1/2-z
-x,-y,-z
x,-y,1/2+z
1/2+x,1/2+y,z
1/2-x,1/2+y,1/2-z
1/2-x,1/2-y,-z
1/2+x,1/2-y,1/2+z
loop_
_atom_site_type_symbol
_atom_site_label
_atom_site_fract_x
_atom_site_fract_y
_atom_site_fract_z
Si Si1 0.152984 0.155918 0.398713
Si Si2 0.721283 0.112011 0.612455
Si Si3 0.296311 0.027518 0.203427
Si Si4 0.080453 0.498739 0.483467
Si Si5 0.424714 0.724815 0.686549
O O1 0.179072 0.327193 0.339373
O O2 0.112395 0.279406 0.463008
O O3 0.222593 0.013242 0.432645
O O4 0.097337 0.002349 0.342048
O O5 0.743477 0.345096 0.630110
O O6 0.640750 0.086137 0.561302
O O7 0.731386 0.024944 0.710220
O O8 0.364379 0.174884 0.230928
O O9 0.078161 0.641436 0.399738
O O10 0.000000 0.500000 0.500000
O O11 0.500000 0.736157 0.750000
#
# Coordination Sequence:
#
# PCOD9283013 Si02
#       5
#     8   8   8   8   8
#     4  10  23  41  63  92 126 172 208 267 319 379
#     4  11  21  40  66  96 127 165 215 258 321 380
#     4  10  21  39  66  94 122 164 210 261 315 379
#     4  11  25  42  63  95 131 168 212 268 316 384
#     4  10  23  42  62  92 126 168 213 259 321 379
#
# _framework density 20.655062000000001
#
# number of rings (size 3 to 8) (size 9 to 14) (size 15 to 20)
#    0.000    1.600    2.000    1.800    0.000   14.400 
#    0.000    0.000    0.000    0.000    0.000    0.000 
#    0.000    0.000    0.000    0.000    0.000    0.000 
#
# Total GULP energy -111724.940855 kJ/mol
# GULP energy per Si atom -5586.247043 kJ/mol
# Density = 2.060805 g / cm^3
# Si number density = 20.655062 Si / 1000 Ang^3
#
#
#
# Elastic Constant Matrix: (Units=GPa)
#
#
# Indices 1 2 3 4 5 6 
#
# 1 123.4896 22.9546 55.8955 0.0000 11.0543 0.0000
# 2 22.9546 99.5958 49.9011 0.0000 -0.6534 0.0000
# 3 55.8955 49.9011 69.5027 0.0000 11.2918 0.0000
# 4 0.0000 0.0000 0.0000 6.3822 0.0000 4.4976
# 5 11.0543 -0.6534 11.2918 0.0000 46.6073 0.0000
# 6 0.0000 0.0000 0.0000 4.4976 0.0000 10.4428
#
#
#
# Elastic Compliance Matrix: (Units=1/GPa)
#
#
# Indices 1 2 3 4 5 6 
#
# 1 0.013531 0.003661 -0.013530 0.000000 0.000120 0.000000
# 2 0.003661 0.017106 -0.015743 0.000000 0.003186 0.000000
# 3 -0.013530 -0.015743 0.037565 0.000000 -0.006113 0.000000
# 4 0.000000 0.000000 0.000000 0.224965 0.000000 -0.096890
# 5 0.000120 0.003186 -0.006113 0.000000 0.022953 0.000000
# 6 0.000000 0.000000 0.000000 -0.096890 0.000000 0.137490
#
#
# Mechanical properties :
#
#
# Convention : Reuss Voigt Hill
#
# Bulk Modulus (GPa) = 58.90083 61.12118 60.01100
# Shear Modulus (GPa) = 9.79448 23.60891 16.70170
#
# Velocity S-wave (km/s) = 2.17996 3.38451 2.84668
# Velocity P-wave (km/s) = 5.90886 6.70290 6.31836
#
# Compressibility (1/GPa) = 0.01697769
#
# Stress axis : x y z
#
# Youngs Moduli (GPa) = 73.90699 58.46035 26.62046
#
# Poissons Ratio (x) = -0.21403 0.36016
# Poissons Ratio (y) = -0.27058 0.41909
# Poissons Ratio (z) = 0.99993 0.92036
#
# Static dielectric constant tensor:
#      x y z
#    x 1.739010 0.000000 -0.033380 
#    y 0.000000 1.767100 0.000000 
#    z -0.033380 0.000000 1.726680 
# 
# From -- ./inp_files/207973.got.cif
#   From: 2010.05.17/outbox.cif.g08.bks.cpg/sg15_104_cif.got.tgz:207973.got - 2010.06.03 18:47:42.
