data_PCOD9283758
_publ_section_title
;
Structure prediction by ZEFSAII (Michael W. Deem and Ramdas Pophale) SiO2 
 PCOD9283758
Probable space group: C 2/C
;
_chemical_formula_sum "Si O2"
_cell_formula_units_Z 48
_cell_length_a 10.685571
_cell_length_b 8.040873
_cell_length_c 21.328879
_cell_angle_alpha 90.000000
_cell_angle_beta 91.409289
_cell_angle_gamma 90.000000
_cell_volume 1832.051089
_symmetry_space_group_name_H-M "C 2/C"
_symmetry_group_IT_number 15
_symmetry_cell_setting 'monoclinic'
loop_
_space_group_symop_operation_xyz
x,y,z
-x,y,1/2-z
-x,-y,-z
x,-y,1/2+z
1/2+x,1/2+y,z
1/2-x,1/2+y,1/2-z
1/2-x,1/2-y,-z
1/2+x,1/2-y,1/2+z
loop_
_atom_site_type_symbol
_atom_site_label
_atom_site_fract_x
_atom_site_fract_y
_atom_site_fract_z
Si Si1 0.865389 0.390204 0.747303
Si Si2 0.855155 0.044545 0.990266
Si Si3 0.566493 0.709819 0.394329
Si Si4 0.611495 0.958302 0.050700
Si Si5 0.315430 0.282418 0.367251
Si Si6 0.885078 0.938577 0.203783
O O1 0.877669 0.244827 0.801471
O O2 0.743995 0.487153 0.768380
O O3 0.000000 0.479422 0.750000
O O4 0.857261 0.258210 0.690481
O O5 0.858151 0.201664 0.038301
O O6 0.741531 0.934693 0.014897
O O7 0.843741 0.076315 0.917000
O O8 0.000000 0.000000 0.000000
O O9 0.439720 0.804925 0.408056
O O10 0.666581 0.808845 0.353027
O O11 0.579594 0.531366 0.361146
O O12 0.639412 0.113135 0.096975
O O13 0.500000 0.000000 0.000000
O O14 0.000000 0.993995 0.250000
#
# Coordination Sequence:
#
# PCOD9283758 Si02
#       6
#     8   8   8   8   8   8
#     4  10  24  44  66  92 129 173 217 270 327 376
#     4  11  23  35  60  97 134 156 205 263 324 376
#     4  10  21  41  64  89 127 169 206 259 321 386
#     4  11  19  40  65  91 123 169 209 248 319 394
#     4  10  21  40  64  91 129 167 205 266 319 383
#     4  10  24  43  66  92 128 167 220 273 316 380
#
# _framework density 26.200140999999999
#
# number of rings (size 3 to 8) (size 9 to 14) (size 15 to 20)
#    0.000    1.667    3.333    1.000    4.667    8.000 
#    0.000    0.000    0.000    0.000    0.000    0.000 
#    0.000    0.000    0.000    0.000    0.000    0.000 
#
# Total GULP energy -133741.648157 kJ/mol
# GULP energy per Si atom -5572.568673 kJ/mol
# Density = 2.614051 g / cm^3
# Si number density = 26.200141 Si / 1000 Ang^3
#
#
#
# Elastic Constant Matrix: (Units=GPa)
#
#
# Indices 1 2 3 4 5 6 
#
# 1 203.3598 36.1899 21.8310 0.0000 -39.7975 0.0000
# 2 36.1899 78.2870 -13.5739 0.0000 -8.2351 0.0000
# 3 21.8310 -13.5739 33.4934 0.0000 -1.9613 0.0000
# 4 0.0000 0.0000 0.0000 43.2457 0.0000 -11.6218
# 5 -39.7975 -8.2351 -1.9613 0.0000 53.0215 0.0000
# 6 0.0000 0.0000 0.0000 -11.6218 0.0000 37.6789
#
#
#
# Elastic Compliance Matrix: (Units=1/GPa)
#
#
# Indices 1 2 3 4 5 6 
#
# 1 0.007127 -0.003847 -0.005939 0.000000 0.004532 0.000000
# 2 -0.003847 0.016113 0.009035 0.000000 -0.000051 0.000000
# 3 -0.005939 0.009035 0.037291 0.000000 -0.001675 0.000000
# 4 0.000000 0.000000 0.000000 0.025214 0.000000 0.007777
# 5 0.004532 -0.000051 -0.001675 0.000000 0.022192 0.000000
# 6 0.000000 0.000000 0.000000 0.007777 0.000000 0.028939
#
#
# Mechanical properties :
#
#
# Convention : Reuss Voigt Hill
#
# Bulk Modulus (GPa) = 16.94105 44.89268 30.91686
# Shear Modulus (GPa) = 31.63472 44.83543 38.23507
#
# Velocity S-wave (km/s) = 3.47857 4.14123 3.82428
# Velocity P-wave (km/s) = 4.75542 6.32757 5.59697
#
# Compressibility (1/GPa) = 0.05902822
#
# Stress axis : x y z
#
# Youngs Moduli (GPa) = 140.32113 62.06079 26.81599
#
# Poissons Ratio (x) = 0.23877 0.15926
# Poissons Ratio (y) = 0.53987 -0.24228
# Poissons Ratio (z) = 0.83336 -0.56072
#
# Static dielectric constant tensor:
#      x y z
#    x 2.233660 0.000000 -0.104040 
#    y 0.000000 2.856990 0.000000 
#    z -0.104040 0.000000 2.363440 
# 
# From -- ./inp_files/267668.got.cif
#   From: 2010.05.17/outbox.cif.g08.bks.cpg/sg15_134_cif.got.tgz:267668.got - 2010.06.03 18:47:42.
