data_PCOD9283281
_publ_section_title
;
Structure prediction by ZEFSAII (Michael W. Deem and Ramdas Pophale) SiO2 
 PCOD9283281
Probable space group: C 2/C
;
_chemical_formula_sum "Si O2"
_cell_formula_units_Z 56
_cell_length_a 14.956386
_cell_length_b 26.051920
_cell_length_c 15.953053
_cell_angle_alpha 90.000000
_cell_angle_beta 151.309295
_cell_angle_gamma 90.000000
_cell_volume 2984.179221
_symmetry_space_group_name_H-M "C 2/C"
_symmetry_group_IT_number 15
_symmetry_cell_setting 'monoclinic'
loop_
_space_group_symop_operation_xyz
x,y,z
-x,y,1/2-z
-x,-y,-z
x,-y,1/2+z
1/2+x,1/2+y,z
1/2-x,1/2+y,1/2-z
1/2-x,1/2-y,-z
1/2+x,1/2-y,1/2+z
loop_
_atom_site_type_symbol
_atom_site_label
_atom_site_fract_x
_atom_site_fract_y
_atom_site_fract_z
Si Si1 0.201035 0.687502 0.021236
Si Si2 0.623313 0.441248 0.267050
Si Si3 0.995859 0.467907 0.839303
Si Si4 0.615618 0.380085 0.103435
Si Si5 0.951899 0.790138 0.573308
Si Si6 0.683198 0.544140 0.212666
Si Si7 0.465641 0.081990 0.584091
O O1 0.368914 0.691101 0.226818
O O2 0.277458 0.700999 0.992111
O O3 0.048983 0.728140 0.930726
O O4 0.129941 0.630293 0.952723
O O5 0.500000 0.445083 0.250000
O O6 0.573910 0.393220 0.166593
O O7 0.611630 0.492434 0.199045
O O8 0.839639 0.441283 0.472909
O O9 0.796472 0.465908 0.720352
O O10 0.042230 0.528431 0.874104
O O11 0.000000 0.445951 0.750000
O O12 0.825646 0.400060 0.263553
O O13 0.579664 0.323266 0.036437
O O14 0.482606 0.416896 0.939605
O O15 0.841617 0.569275 0.400885
#
# Coordination Sequence:
#
# PCOD9283281 Si02
#       7
#     8   8   8   8   8   8   8
#     4  10  21  40  56  91 124 154 201 245 304 375
#     4  11  23  37  57  85 119 161 208 253 294 355
#     4  11  23  39  57  86 123 164 202 255 304 355
#     4  12  22  36  62  85 113 165 199 246 306 354
#     4  10  22  37  61  86 124 160 194 250 306 369
#     4  11  22  41  55  82 124 155 206 245 298 361
#     4  11  22  36  57  83 118 152 200 242 293 363
#
# _framework density 18.765628
#
# number of rings (size 3 to 8) (size 9 to 14) (size 15 to 20)
#    0.000    1.143    4.286    3.000    4.000    2.286 
#    0.000    0.000    0.000    0.000    0.000    5.000 
#    0.000    0.000    0.000    0.000    0.000    0.000 
#
# Total GULP energy -156282.598351 kJ/mol
# GULP energy per Si atom -5581.521370 kJ/mol
# Density = 1.872292 g / cm^3
# Si number density = 18.765628 Si / 1000 Ang^3
#
#
#
# Elastic Constant Matrix: (Units=GPa)
#
#
# Indices 1 2 3 4 5 6 
#
# 1 77.3403 5.9714 1.6538 -0.0001 -3.8171 0.0002
# 2 5.9714 58.5203 2.0139 0.0000 -0.8328 0.0000
# 3 1.6538 2.0139 64.4138 -0.0002 6.9103 0.0002
# 4 -0.0001 0.0000 -0.0002 -2.8203 0.0000 27.5426
# 5 -3.8171 -0.8328 6.9103 0.0000 22.9660 0.0001
# 6 0.0002 0.0000 0.0002 27.5426 0.0001 -1.7075
#
#
#
# Elastic Compliance Matrix: (Units=1/GPa)
#
#
# Indices 1 2 3 4 5 6 
#
# 1 0.013155 -0.001291 -0.000545 0.000000 0.002303 0.000000
# 2 -0.001291 0.017248 -0.000569 0.000000 0.000582 0.000000
# 3 -0.000545 -0.000569 0.016088 0.000000 -0.004952 0.000000
# 4 0.000000 0.000000 0.000000 0.002265 0.000000 0.036539
# 5 0.002303 0.000582 -0.004952 0.000000 0.045437 0.000000
# 6 0.000000 0.000000 0.000000 0.036539 0.000000 0.003742
#
#
# Mechanical properties :
#
#
# Convention : Reuss Voigt Hill
#
# Bulk Modulus (GPa) = 23.99093 24.39474 24.19284
# Shear Modulus (GPa) = 42.86869 16.39667 29.63268
#
# Velocity S-wave (km/s) = 4.78475 2.95915 3.97809
# Velocity P-wave (km/s) = 6.58311 4.97025 5.83270
#
# Compressibility (1/GPa) = 0.04168241
#
# Stress axis : x y z
#
# Youngs Moduli (GPa) = 76.01757 57.97896 62.15963
#
# Poissons Ratio (x) = 0.07484 0.03385
# Poissons Ratio (y) = 0.09812 0.03534
# Poissons Ratio (z) = 0.04139 0.03296
#
# Static dielectric constant tensor:
#      x y z
#    x 1.667200 0.000000 -0.009470 
#    y 0.000000 1.685940 0.000000 
#    z -0.009470 0.000000 1.694000 
# 
# From -- ./inp_files/157190.got.cif
#   From: 2010.05.17/outbox.cif.g08.bks.cpg/sg15_79_cif.got.tgz:157190.got - 2010.06.03 18:47:42.
