data_PCOD9283240
_publ_section_title
;
Structure prediction by ZEFSAII (Michael W. Deem and Ramdas Pophale) SiO2 
 PCOD9283240
Probable space group: C 2/C
;
_chemical_formula_sum "Si O2"
_cell_formula_units_Z 40
_cell_length_a 11.356233
_cell_length_b 12.332979
_cell_length_c 22.811447
_cell_angle_alpha 90.000000
_cell_angle_beta 143.220132
_cell_angle_gamma 90.000000
_cell_volume 1912.912022
_symmetry_space_group_name_H-M "C 2/C"
_symmetry_group_IT_number 15
_symmetry_cell_setting 'monoclinic'
loop_
_space_group_symop_operation_xyz
x,y,z
-x,y,1/2-z
-x,-y,-z
x,-y,1/2+z
1/2+x,1/2+y,z
1/2-x,1/2+y,1/2-z
1/2-x,1/2-y,-z
1/2+x,1/2-y,1/2+z
loop_
_atom_site_type_symbol
_atom_site_label
_atom_site_fract_x
_atom_site_fract_y
_atom_site_fract_z
Si Si1 0.590321 0.098808 0.617739
Si Si2 0.694545 0.926475 0.028015
Si Si3 0.533952 0.298513 0.444141
Si Si4 0.738165 0.821335 0.847330
Si Si5 0.299976 0.052768 0.706524
O O1 0.695267 0.061586 0.598596
O O2 0.631816 0.226798 0.629724
O O3 0.668693 0.065859 0.712049
O O4 0.377052 0.040528 0.526815
O O5 0.536316 0.832228 0.945306
O O6 0.888264 0.867011 0.080891
O O7 0.690350 0.326739 0.557092
O O8 0.324224 0.349731 0.370562
O O9 0.500000 0.801924 0.750000
O O10 0.792383 0.935253 0.840545
O O11 0.500000 0.048262 0.750000
#
# Coordination Sequence:
#
# PCOD9283240 Si02
#       5
#     8   8   8   8   8
#     4  10  22  37  62  90 128 157 207 262 308 365
#     4   9  20  40  62  96 122 158 207 267 309 376
#     4  10  21  39  70  89 126 167 208 254 321 370
#     4  10  22  40  64  92 123 168 214 250 309 384
#     4  11  24  39  61  90 128 166 214 257 307 374
#
# _framework density 20.910526999999998
#
# number of rings (size 3 to 8) (size 9 to 14) (size 15 to 20)
#    0.000    2.000    0.000    3.000   11.200    0.000 
#    0.000   12.000    0.000    0.000    0.000    0.000 
#    0.000    0.000    0.000    0.000    0.000    0.000 
#
# Total GULP energy -111382.628288 kJ/mol
# GULP energy per Si atom -5569.131414 kJ/mol
# Density = 2.086293 g / cm^3
# Si number density = 20.910527 Si / 1000 Ang^3
#
#
#
# Elastic Constant Matrix: (Units=GPa)
#
#
# Indices 1 2 3 4 5 6 
#
# 1 49.3165 25.3813 19.5524 0.0000 -20.4735 0.0000
# 2 25.3813 90.8665 4.0660 0.0000 7.6630 0.0000
# 3 19.5524 4.0660 71.2597 0.0000 -17.5009 0.0000
# 4 0.0000 0.0000 0.0000 13.7830 0.0000 7.1331
# 5 -20.4735 7.6630 -17.5009 0.0000 28.6153 0.0000
# 6 0.0000 0.0000 0.0000 7.1331 0.0000 24.9133
#
#
#
# Elastic Compliance Matrix: (Units=1/GPa)
#
#
# Indices 1 2 3 4 5 6 
#
# 1 0.042237 -0.014400 -0.002823 0.000000 0.032349 0.000000
# 2 -0.014400 0.016331 -0.000689 0.000000 -0.015097 0.000000
# 3 -0.002823 -0.000689 0.016941 0.000000 0.008526 0.000000
# 4 0.000000 0.000000 0.000000 0.085174 0.000000 -0.024387
# 5 0.032349 -0.015097 0.008526 0.000000 0.067349 0.000000
# 6 0.000000 0.000000 0.000000 -0.024387 0.000000 0.047121
#
#
# Mechanical properties :
#
#
# Convention : Reuss Voigt Hill
#
# Bulk Modulus (GPa) = 25.19700 34.38247 29.78973
# Shear Modulus (GPa) = 15.42240 24.29186 19.85713
#
# Velocity S-wave (km/s) = 2.71872 3.41208 3.08494
# Velocity P-wave (km/s) = 4.68309 5.65698 5.19291
#
# Compressibility (1/GPa) = 0.03968727
#
# Stress axis : x y z
#
# Youngs Moduli (GPa) = 23.67597 61.23202 59.02903
#
# Poissons Ratio (x) = 0.88172 0.16662
# Poissons Ratio (y) = 0.34092 0.04065
# Poissons Ratio (z) = 0.06683 0.04217
#
# Static dielectric constant tensor:
#      x y z
#    x 1.819170 0.000000 -0.008270 
#    y 0.000000 1.775740 0.000000 
#    z -0.008270 0.000000 1.767790 
# 
# From -- ./inp_files/237797.got.cif
#   From: 2010.05.17/outbox.cif.g08.bks.cpg/sg15_119_cif.got.tgz:237797.got - 2010.06.03 18:47:42.
