data_PCOD9283496
_publ_section_title
;
Structure prediction by ZEFSAII (Michael W. Deem and Ramdas Pophale) SiO2 
 PCOD9283496
Probable space group: C 2/C
;
_chemical_formula_sum "Si O2"
_cell_formula_units_Z 32
_cell_length_a 12.295535
_cell_length_b 12.868885
_cell_length_c 13.873897
_cell_angle_alpha 90.000000
_cell_angle_beta 35.286149
_cell_angle_gamma 90.000000
_cell_volume 1268.117060
_symmetry_space_group_name_H-M "C 2/C"
_symmetry_group_IT_number 15
_symmetry_cell_setting 'monoclinic'
loop_
_space_group_symop_operation_xyz
x,y,z
-x,y,1/2-z
-x,-y,-z
x,-y,1/2+z
1/2+x,1/2+y,z
1/2-x,1/2+y,1/2-z
1/2-x,1/2-y,-z
1/2+x,1/2-y,1/2+z
loop_
_atom_site_type_symbol
_atom_site_label
_atom_site_fract_x
_atom_site_fract_y
_atom_site_fract_z
Si Si1 0.908377 0.418093 0.209720
Si Si2 0.563938 0.312283 0.104956
Si Si3 0.740954 0.866890 0.725840
Si Si4 0.602559 0.278284 0.523596
O O1 0.863507 0.524745 0.190528
O O2 0.720275 0.354819 0.371448
O O3 0.000000 0.437389 0.250000
O O4 0.026332 0.338378 0.057580
O O5 0.500000 0.368269 0.250000
O O6 0.405662 0.227260 0.189133
O O7 0.750000 0.250000 0.000000
O O8 0.635087 0.377428 0.962961
O O9 0.903350 0.837389 0.685653
O O10 0.750000 0.250000 0.500000
#
# Coordination Sequence:
#
# PCOD9283496 Si02
#       4
#     8   8   8   8
#     4  10  21  40  62  87 127 175 215 262 319 376
#     4   9  19  35  58  93 128 157 207 271 321 374
#     4  11  20  38  64  91 127 173 210 258 321 382
#     4  10  22  39  60  91 129 169 214 259 310 380
#
# _framework density 25.234264
#
# number of rings (size 3 to 8) (size 9 to 14) (size 15 to 20)
#    0.000    2.000    0.000    4.500    0.000    0.000 
#    0.000   16.250    0.000    3.000    0.000    5.250 
#    0.000    0.000    0.000    0.000    0.000    0.000 
#
# Total GULP energy -89288.412305 kJ/mol
# GULP energy per Si atom -5580.525769 kJ/mol
# Density = 2.517683 g / cm^3
# Si number density = 25.234264 Si / 1000 Ang^3
#
#
#
# Elastic Constant Matrix: (Units=GPa)
#
#
# Indices 1 2 3 4 5 6 
#
# 1 122.5530 43.0503 42.1849 -0.0001 -39.1678 0.0000
# 2 43.0503 158.1683 42.3662 -0.0001 -15.6225 0.0002
# 3 42.1849 42.3662 106.5184 -0.0009 -21.7567 0.0007
# 4 -0.0001 -0.0001 -0.0009 48.6889 0.0008 1.8984
# 5 -39.1678 -15.6225 -21.7567 0.0008 55.9802 -0.0003
# 6 0.0000 0.0002 0.0007 1.8984 -0.0003 38.1298
#
#
#
# Elastic Compliance Matrix: (Units=1/GPa)
#
#
# Indices 1 2 3 4 5 6 
#
# 1 0.011870 -0.001872 -0.002571 0.000000 0.006784 0.000000
# 2 -0.001872 0.007419 -0.002231 0.000000 -0.000107 0.000000
# 3 -0.002571 -0.002231 0.011730 0.000000 0.002138 0.000000
# 4 0.000000 0.000000 0.000000 0.020579 0.000000 -0.001025
# 5 0.006784 -0.000107 0.002138 0.000000 0.023411 0.000000
# 6 0.000000 0.000000 0.000000 -0.001025 0.000000 0.026277
#
#
# Mechanical properties :
#
#
# Convention : Reuss Voigt Hill
#
# Bulk Modulus (GPa) = 56.58905 71.38250 63.98578
# Shear Modulus (GPa) = 41.48512 45.86899 43.67705
#
# Velocity S-wave (km/s) = 4.05903 4.26811 4.16488
# Velocity P-wave (km/s) = 6.66646 7.25523 6.96707
#
# Compressibility (1/GPa) = 0.01767126
#
# Stress axis : x y z
#
# Youngs Moduli (GPa) = 84.24289 134.78800 85.25020
#
# Poissons Ratio (x) = 0.25236 0.21916
# Poissons Ratio (y) = 0.15772 0.19020
# Poissons Ratio (z) = 0.21657 0.30073
#
# Static dielectric constant tensor:
#      x y z
#    x 2.122170 0.000000 0.092410 
#    y 0.000000 1.982920 0.000000 
#    z 0.092410 0.000000 2.080820 
# 
# From -- ./inp_files/36536.got.cif
#   From: 2010.05.17/outbox.cif.g08.bks.cpg/sg15_19_cif.got.tgz:36536.got - 2010.06.03 18:47:42.
