data_PCOD9283988
_publ_section_title
;
Structure prediction by ZEFSAII (Michael W. Deem and Ramdas Pophale) SiO2 
 PCOD9283988
Probable space group: C 2/C
;
_chemical_formula_sum "Si O2"
_cell_formula_units_Z 44
_cell_length_a 6.966626
_cell_length_b 8.185652
_cell_length_c 28.660810
_cell_angle_alpha 90.000000
_cell_angle_beta 73.594618
_cell_angle_gamma 90.000000
_cell_volume 1567.880635
_symmetry_space_group_name_H-M "C 2/C"
_symmetry_group_IT_number 15
_symmetry_cell_setting 'monoclinic'
loop_
_space_group_symop_operation_xyz
x,y,z
-x,y,1/2-z
-x,-y,-z
x,-y,1/2+z
1/2+x,1/2+y,z
1/2-x,1/2+y,1/2-z
1/2-x,1/2-y,-z
1/2+x,1/2-y,1/2+z
loop_
_atom_site_type_symbol
_atom_site_label
_atom_site_fract_x
_atom_site_fract_y
_atom_site_fract_z
Si Si1 0.660694 0.082671 0.119592
Si Si2 0.232999 0.919589 0.061512
Si Si3 0.713913 0.083866 0.530268
Si Si4 0.669032 0.250251 0.207549
Si Si5 0.000000 0.289159 0.250000
Si Si6 0.817691 0.064024 0.343646
O O1 0.679670 0.243366 0.085814
O O2 0.751196 0.121775 0.164293
O O3 0.762956 0.940898 0.081595
O O4 0.425089 0.051400 0.144542
O O5 0.473727 0.936330 0.047564
O O6 0.153104 0.059985 0.102382
O O7 0.186410 0.949061 0.010654
O O8 0.750000 0.250000 0.500000
O O9 0.500000 0.167003 0.250000
O O10 0.808462 0.346045 0.234461
O O11 0.589258 0.393932 0.180621
O O12 0.897360 0.194377 0.301305
#
# Coordination Sequence:
#
# PCOD9283988 Si02
#       6
#     8   8   8   8   4   8
#     4  10  21  42  68  95 140 186 224 286 349 409
#     4   9  21  40  65  95 134 180 226 281 344 410
#     4  10  21  40  66 100 137 177 233 284 345 420
#     4  11  23  42  65  97 138 178 233 290 342 410
#     4  12  24  40  68  94 132 188 228 282 352 406
#     4  10  22  41  64  95 134 176 233 285 338 411
#
# _framework density 28.063359999999999
#
# number of rings (size 3 to 8) (size 9 to 14) (size 15 to 20)
#    0.000    1.818    2.727    0.545    0.000    6.545 
#    0.000   12.727    0.000    0.000    0.000    0.000 
#    0.000    0.000    0.000    0.000    0.000    0.000 
#
# Total GULP energy -122989.853025 kJ/mol
# GULP energy per Si atom -5590.447865 kJ/mol
# Density = 2.799949 g / cm^3
# Si number density = 28.063360 Si / 1000 Ang^3
#
#
#
# Elastic Constant Matrix: (Units=GPa)
#
#
# Indices 1 2 3 4 5 6 
#
# 1 72.9704 0.3028 50.0168 0.0000 7.2144 0.0000
# 2 0.3028 70.7073 56.1610 0.0000 0.4040 0.0000
# 3 50.0168 56.1610 226.8388 0.0000 -6.3213 0.0000
# 4 0.0000 0.0000 0.0000 60.4577 0.0000 -5.6626
# 5 7.2144 0.4040 -6.3213 0.0000 63.7765 0.0000
# 6 0.0000 0.0000 0.0000 -5.6626 0.0000 31.3888
#
#
#
# Elastic Compliance Matrix: (Units=1/GPa)
#
#
# Indices 1 2 3 4 5 6 
#
# 1 0.017215 0.003746 -0.004791 0.000000 -0.002446 0.000000
# 2 0.003746 0.018439 -0.005421 0.000000 -0.001078 0.000000
# 3 -0.004791 -0.005421 0.006842 0.000000 0.001254 0.000000
# 4 0.000000 0.000000 0.000000 0.016825 0.000000 0.003035
# 5 -0.002446 -0.001078 0.001254 0.000000 0.016088 0.000000
# 6 0.000000 0.000000 0.000000 0.003035 0.000000 0.032406
#
#
# Mechanical properties :
#
#
# Convention : Reuss Voigt Hill
#
# Bulk Modulus (GPa) = 33.82684 64.83089 49.32886
# Shear Modulus (GPa) = 38.28458 48.72700 43.50579
#
# Velocity S-wave (km/s) = 3.69754 4.17144 3.94162
# Velocity P-wave (km/s) = 5.50536 6.80830 6.19120
#
# Compressibility (1/GPa) = 0.02956232
#
# Stress axis : x y z
#
# Youngs Moduli (GPa) = 58.09018 54.23363 146.15630
#
# Poissons Ratio (x) = -0.20315 0.70028
# Poissons Ratio (y) = -0.21760 0.79232
# Poissons Ratio (z) = 0.27833 0.29400
#
# Static dielectric constant tensor:
#      x y z
#    x 2.348690 0.000000 0.033900 
#    y 0.000000 2.236730 0.000000 
#    z 0.033900 0.000000 2.160130 
# 
# From -- ./inp_files/306468.got.cif
#   From: 2010.05.17/outbox.cif.g08.bks.cpg/sg15_154_cif.got.tgz:306468.got - 2010.06.03 18:47:42.
