data_PCOD9283104
_publ_section_title
;
Structure prediction by ZEFSAII (Michael W. Deem and Ramdas Pophale) SiO2 
 PCOD9283104
Probable space group: C 2/C
;
_chemical_formula_sum "Si O2"
_cell_formula_units_Z 56
_cell_length_a 13.804150
_cell_length_b 9.698270
_cell_length_c 20.675656
_cell_angle_alpha 90.000000
_cell_angle_beta 113.309755
_cell_angle_gamma 90.000000
_cell_volume 2542.056471
_symmetry_space_group_name_H-M "C 2/C"
_symmetry_group_IT_number 15
_symmetry_cell_setting 'monoclinic'
loop_
_space_group_symop_operation_xyz
x,y,z
-x,y,1/2-z
-x,-y,-z
x,-y,1/2+z
1/2+x,1/2+y,z
1/2-x,1/2+y,1/2-z
1/2-x,1/2-y,-z
1/2+x,1/2-y,1/2+z
loop_
_atom_site_type_symbol
_atom_site_label
_atom_site_fract_x
_atom_site_fract_y
_atom_site_fract_z
Si Si1 0.475988 0.961979 0.390636
Si Si2 0.394676 0.207925 0.762952
Si Si3 0.809211 0.596186 0.092669
Si Si4 0.696118 0.620395 0.638212
Si Si5 0.642569 0.617963 0.943202
Si Si6 0.964252 0.276232 0.977528
Si Si7 0.971242 0.994435 0.315388
O O1 0.390184 0.907116 0.317629
O O2 0.509632 0.834951 0.445478
O O3 0.579637 0.018747 0.381767
O O4 0.443275 0.088975 0.427440
O O5 0.500000 0.177330 0.750000
O O6 0.293705 0.206328 0.690581
O O7 0.416216 0.357807 0.797807
O O8 0.740872 0.529060 0.130837
O O9 0.827068 0.759705 0.098479
O O10 0.745882 0.571902 0.008669
O O11 0.637574 0.681485 0.559941
O O12 0.607628 0.609858 0.669978
O O13 0.564236 0.692000 0.974780
O O14 0.575936 0.505295 0.887272
O O15 0.000000 0.954353 0.250000
#
# Coordination Sequence:
#
# PCOD9283104 Si02
#       7
#     8   8   8   8   8   8   8
#     4  10  21  41  61  89 128 170 198 272 312 371
#     4  11  24  42  60  91 130 166 214 259 318 387
#     4  10  21  39  67  93 123 161 208 266 311 382
#     4  11  24  41  65  96 121 172 218 259 320 382
#     4   9  21  43  63  95 121 159 218 256 317 381
#     4   9  22  40  62  92 124 161 219 256 315 377
#     4  10  25  44  61  89 130 166 206 268 318 377
#
# _framework density 22.029408
#
# number of rings (size 3 to 8) (size 9 to 14) (size 15 to 20)
#    0.000    2.000    1.429    0.000    6.000    5.143 
#   10.286    0.000    0.000    0.000    0.000    0.000 
#    0.000    0.000    0.000    0.000    0.000    0.000 
#
# Total GULP energy -156457.334188 kJ/mol
# GULP energy per Si atom -5587.761935 kJ/mol
# Density = 2.197927 g / cm^3
# Si number density = 22.029408 Si / 1000 Ang^3
#
#
#
# Elastic Constant Matrix: (Units=GPa)
#
#
# Indices 1 2 3 4 5 6 
#
# 1 39.1164 0.7619 -5.7868 0.0000 5.4841 0.0000
# 2 0.7619 42.3231 2.1487 0.0000 3.2616 0.0000
# 3 -5.7868 2.1487 16.9315 0.0000 9.3165 0.0000
# 4 0.0000 0.0000 0.0000 33.9788 0.0000 3.5217
# 5 5.4841 3.2616 9.3165 0.0000 36.3304 0.0000
# 6 0.0000 0.0000 0.0000 3.5217 0.0000 13.8620
#
#
#
# Elastic Compliance Matrix: (Units=1/GPa)
#
#
# Indices 1 2 3 4 5 6 
#
# 1 0.028810 -0.000631 0.014307 0.000000 -0.007961 0.000000
# 2 -0.000631 0.023873 -0.002467 0.000000 -0.001415 0.000000
# 3 0.014307 -0.002467 0.076064 0.000000 -0.021444 0.000000
# 4 0.000000 0.000000 0.000000 0.030226 0.000000 -0.007679
# 5 -0.007961 -0.001415 -0.021444 0.000000 0.034353 0.000000
# 6 0.000000 0.000000 0.000000 -0.007679 0.000000 0.074091
#
#
# Mechanical properties :
#
#
# Convention : Reuss Voigt Hill
#
# Bulk Modulus (GPa) = 6.61530 10.29097 8.45314
# Shear Modulus (GPa) = 16.92695 23.58404 20.25549
#
# Velocity S-wave (km/s) = 2.77497 3.27551 3.03557
# Velocity P-wave (km/s) = 3.64373 4.35739 4.01644
#
# Compressibility (1/GPa) = 0.15116464
#
# Stress axis : x y z
#
# Youngs Moduli (GPa) = 34.71051 41.88757 13.14688
#
# Poissons Ratio (x) = 0.02645 -0.18809
# Poissons Ratio (y) = 0.02192 0.03243
# Poissons Ratio (z) = -0.49661 0.10333
#
# Static dielectric constant tensor:
#      x y z
#    x 1.800680 0.000000 -0.018430 
#    y 0.000000 1.812960 0.000000 
#    z -0.018430 0.000000 1.792060 
# 
# From -- ./inp_files/204535.got.cif
#   From: 2010.05.17/outbox.cif.g08.bks.cpg/sg15_103_cif.got.tgz:204535.got - 2010.06.03 18:47:42.
