data_PCOD9283266
_publ_section_title
;
Structure prediction by ZEFSAII (Michael W. Deem and Ramdas Pophale) SiO2 
 PCOD9283266
Probable space group: C 2/C
;
_chemical_formula_sum "Si O2"
_cell_formula_units_Z 48
_cell_length_a 10.446466
_cell_length_b 10.645046
_cell_length_c 20.413134
_cell_angle_alpha 90.000000
_cell_angle_beta 56.293727
_cell_angle_gamma 90.000000
_cell_volume 1888.401285
_symmetry_space_group_name_H-M "C 2/C"
_symmetry_group_IT_number 15
_symmetry_cell_setting 'monoclinic'
loop_
_space_group_symop_operation_xyz
x,y,z
-x,y,1/2-z
-x,-y,-z
x,-y,1/2+z
1/2+x,1/2+y,z
1/2-x,1/2+y,1/2-z
1/2-x,1/2-y,-z
1/2+x,1/2-y,1/2+z
loop_
_atom_site_type_symbol
_atom_site_label
_atom_site_fract_x
_atom_site_fract_y
_atom_site_fract_z
Si Si1 0.520298 0.708203 0.667275
Si Si2 0.066267 0.948979 0.881577
Si Si3 0.553770 0.758711 0.165631
Si Si4 0.634278 0.123625 0.390899
Si Si5 0.752750 0.030948 0.548146
Si Si6 0.852912 0.632378 0.544010
O O1 0.500000 0.706249 0.750000
O O2 0.632868 0.140297 0.596905
O O3 0.702929 0.713039 0.600277
O O4 0.427723 0.820936 0.659188
O O5 0.201019 0.973698 0.894803
O O6 0.074338 0.825950 0.833862
O O7 0.040510 0.076650 0.847071
O O8 0.911932 0.928900 0.968454
O O9 0.500000 0.815200 0.250000
O O10 0.692275 0.664750 0.145393
O O11 0.519580 0.186392 0.478089
O O12 0.633288 0.975072 0.404879
O O13 0.684295 0.938541 0.513599
#
# Coordination Sequence:
#
# PCOD9283266 Si02
#       6
#     8   8   8   8   8   8
#     4  11  22  43  68 100 137 180 225 279 351 414
#     4  10  21  39  72  94 135 178 224 282 343 414
#     4  12  24  43  64  98 140 180 226 289 351 402
#     4  11  23  45  65  96 133 181 229 272 343 418
#     4  10  21  42  67 101 125 175 233 274 333 423
#     4  10  24  44  72  96 138 178 226 290 335 410
#
# _framework density 25.418327000000001
#
# number of rings (size 3 to 8) (size 9 to 14) (size 15 to 20)
#    0.000    1.333    5.000    1.500    0.000    0.000 
#   12.000    0.000    0.000    0.000    0.000    0.000 
#    0.000    0.000    0.000    0.000    0.000    0.000 
#
# Total GULP energy -134498.803948 kJ/mol
# GULP energy per Si atom -5604.116831 kJ/mol
# Density = 2.536047 g / cm^3
# Si number density = 25.418327 Si / 1000 Ang^3
#
#
#
# Elastic Constant Matrix: (Units=GPa)
#
#
# Indices 1 2 3 4 5 6 
#
# 1 110.8033 42.2988 12.7038 0.0000 31.2363 0.0000
# 2 42.2988 91.7068 30.3999 0.0000 39.7113 0.0000
# 3 12.7038 30.3999 70.8638 0.0000 34.6950 0.0000
# 4 0.0000 0.0000 0.0000 30.0940 0.0000 17.1013
# 5 31.2363 39.7113 34.6950 0.0000 47.2079 0.0000
# 6 0.0000 0.0000 0.0000 17.1013 0.0000 44.1093
#
#
#
# Elastic Compliance Matrix: (Units=1/GPa)
#
#
# Indices 1 2 3 4 5 6 
#
# 1 0.012011 -0.003359 0.002804 0.000000 -0.007182 0.000000
# 2 -0.003359 0.018101 -0.001244 0.000000 -0.012090 0.000000
# 3 0.002804 -0.001244 0.022711 0.000000 -0.017500 0.000000
# 4 0.000000 0.000000 0.000000 0.042619 0.000000 -0.016523
# 5 -0.007182 -0.012090 -0.017500 0.000000 0.048967 0.000000
# 6 0.000000 0.000000 0.000000 -0.016523 0.000000 0.029077
#
#
# Mechanical properties :
#
#
# Convention : Reuss Voigt Hill
#
# Bulk Modulus (GPa) = 20.31473 49.35323 34.83398
# Shear Modulus (GPa) = 25.84095 36.81368 31.32732
#
# Velocity S-wave (km/s) = 3.19192 3.80980 3.51446
# Velocity P-wave (km/s) = 4.64693 6.22987 5.49569
#
# Compressibility (1/GPa) = 0.04922537
#
# Stress axis : x y z
#
# Youngs Moduli (GPa) = 83.25948 55.24468 44.03234
#
# Poissons Ratio (x) = 0.18558 -0.12349
# Poissons Ratio (y) = 0.27969 0.05477
# Poissons Ratio (z) = -0.23350 0.06871
#
# Static dielectric constant tensor:
#      x y z
#    x 2.028350 0.000000 -0.012130 
#    y 0.000000 2.011470 0.000000 
#    z -0.012130 0.000000 1.992500 
# 
# From -- ./inp_files/268388.got.cif
#   From: 2010.05.17/outbox.cif.g08.bks.cpg/sg15_135_cif.got.tgz:268388.got - 2010.06.03 18:47:42.
