data_PCOD9283293
_publ_section_title
;
Structure prediction by ZEFSAII (Michael W. Deem and Ramdas Pophale) SiO2 
 PCOD9283293
Probable space group: C 2/C
;
_chemical_formula_sum "Si O2"
_cell_formula_units_Z 48
_cell_length_a 6.315503
_cell_length_b 25.869719
_cell_length_c 17.176214
_cell_angle_alpha 90.000000
_cell_angle_beta 52.774577
_cell_angle_gamma 90.000000
_cell_volume 2234.512844
_symmetry_space_group_name_H-M "C 2/C"
_symmetry_group_IT_number 15
_symmetry_cell_setting 'monoclinic'
loop_
_space_group_symop_operation_xyz
x,y,z
-x,y,1/2-z
-x,-y,-z
x,-y,1/2+z
1/2+x,1/2+y,z
1/2-x,1/2+y,1/2-z
1/2-x,1/2-y,-z
1/2+x,1/2-y,1/2+z
loop_
_atom_site_type_symbol
_atom_site_label
_atom_site_fract_x
_atom_site_fract_y
_atom_site_fract_z
Si Si1 0.949716 0.889013 0.348855
Si Si2 0.500000 0.976958 0.750000
Si Si3 0.343231 0.276050 0.057411
Si Si4 0.139090 0.674648 0.023478
Si Si5 0.500000 0.832938 0.250000
Si Si6 0.939763 0.006756 0.921711
Si Si7 0.712645 0.077530 0.353657
O O1 0.241256 0.868225 0.303242
O O2 0.837456 0.936067 0.425149
O O3 0.000000 0.906379 0.250000
O O4 0.748602 0.841634 0.412797
O O5 0.465277 0.946172 0.676777
O O6 0.229557 0.007860 0.817574
O O7 0.576143 0.319343 0.995195
O O8 0.087172 0.296700 0.159504
O O9 0.250000 0.250000 0.000000
O O10 0.491089 0.228913 0.068206
O O11 0.931449 0.630303 0.091314
O O12 0.773379 0.962493 0.912248
O O13 0.000000 0.000000 0.000000
O O14 0.000000 0.087111 0.250000
#
# Coordination Sequence:
#
# PCOD9283293 Si02
#       7
#     8   4   8   8   4   8   8
#     4  11  22  39  64  93 126 168 217 271 327 395
#     4  10  21  40  58  88 124 162 220 265 318 392
#     4  10  22  42  64  91 128 163 214 278 336 403
#     4  10  23  40  61  94 126 163 218 270 333 398
#     4  10  23  40  66  96 122 168 220 271 344 392
#     4  11  24  39  62  93 131 174 219 272 333 400
#     4  10  23  41  62  91 130 173 220 268 327 399
#
# _framework density 21.481193000000001
#
# number of rings (size 3 to 8) (size 9 to 14) (size 15 to 20)
#    0.000    1.667    0.000    4.000    1.167   10.667 
#    0.000    0.000    0.000    0.000    0.000    0.000 
#    0.000    0.000    0.000    0.000    0.000    0.000 
#
# Total GULP energy -133701.986049 kJ/mol
# GULP energy per Si atom -5570.916085 kJ/mol
# Density = 2.143230 g / cm^3
# Si number density = 21.481193 Si / 1000 Ang^3
#
#
#
# Elastic Constant Matrix: (Units=GPa)
#
#
# Indices 1 2 3 4 5 6 
#
# 1 87.6455 38.3302 37.5682 0.0000 2.9454 0.0000
# 2 38.3302 106.0283 45.2750 0.0000 -4.1454 0.0000
# 3 37.5682 45.2750 87.3616 0.0000 6.8434 0.0000
# 4 0.0000 0.0000 0.0000 22.0929 0.0000 -14.4603
# 5 2.9454 -4.1454 6.8434 0.0000 50.3440 0.0000
# 6 0.0000 0.0000 0.0000 -14.4603 0.0000 31.7134
#
#
#
# Elastic Compliance Matrix: (Units=1/GPa)
#
#
# Indices 1 2 3 4 5 6 
#
# 1 0.014899 -0.003453 -0.004576 0.000000 -0.000534 0.000000
# 2 -0.003453 0.013089 -0.005457 0.000000 0.002022 0.000000
# 3 -0.004576 -0.005457 0.016431 0.000000 -0.002415 0.000000
# 4 0.000000 0.000000 0.000000 0.064518 0.000000 0.029418
# 5 -0.000534 0.002022 -0.002415 0.000000 0.020389 0.000000
# 6 0.000000 0.000000 0.000000 0.029418 0.000000 0.044946
#
#
# Mechanical properties :
#
#
# Convention : Reuss Voigt Hill
#
# Bulk Modulus (GPa) = 57.31180 58.15359 57.73270
# Shear Modulus (GPa) = 24.14760 31.48754 27.81757
#
# Velocity S-wave (km/s) = 3.35644 3.83275 3.60248
# Velocity P-wave (km/s) = 6.46211 6.83501 6.65117
#
# Compressibility (1/GPa) = 0.01744841
#
# Stress axis : x y z
#
# Youngs Moduli (GPa) = 67.11853 76.40076 60.85900
#
# Poissons Ratio (x) = 0.26383 0.27847
# Poissons Ratio (y) = 0.23177 0.33209
# Poissons Ratio (z) = 0.30711 0.41689
#
# Static dielectric constant tensor:
#      x y z
#    x 1.878320 0.000000 0.034150 
#    y 0.000000 1.945780 0.000000 
#    z 0.034150 0.000000 1.799490 
# 
# From -- ./inp_files/130629.got.cif
#   From: 2010.05.17/outbox.cif.g08.bks.cpg/sg15_66_cif.got.tgz:130629.got - 2010.06.03 18:47:42.
