data_PCOD9283222
_publ_section_title
;
Structure prediction by ZEFSAII (Michael W. Deem and Ramdas Pophale) SiO2 
 PCOD9283222
Probable space group: C 2/C
;
_chemical_formula_sum "Si O2"
_cell_formula_units_Z 56
_cell_length_a 16.967783
_cell_length_b 8.179302
_cell_length_c 23.061171
_cell_angle_alpha 90.000000
_cell_angle_beta 56.194855
_cell_angle_gamma 90.000000
_cell_volume 2659.435726
_symmetry_space_group_name_H-M "C 2/C"
_symmetry_group_IT_number 15
_symmetry_cell_setting 'monoclinic'
loop_
_space_group_symop_operation_xyz
x,y,z
-x,y,1/2-z
-x,-y,-z
x,-y,1/2+z
1/2+x,1/2+y,z
1/2-x,1/2+y,1/2-z
1/2-x,1/2-y,-z
1/2+x,1/2-y,1/2+z
loop_
_atom_site_type_symbol
_atom_site_label
_atom_site_fract_x
_atom_site_fract_y
_atom_site_fract_z
Si Si1 0.241923 0.919744 0.808137
Si Si2 0.912116 0.559595 0.322448
Si Si3 0.682415 0.041189 0.842890
Si Si4 0.534705 0.502737 0.419357
Si Si5 0.973796 0.356154 0.400822
Si Si6 0.127197 0.188928 0.560283
Si Si7 0.202555 0.482645 0.464858
O O1 0.327962 0.978113 0.813037
O O2 0.219817 0.728086 0.825578
O O3 0.146488 0.011413 0.866172
O O4 0.270180 0.949803 0.730171
O O5 0.951358 0.407600 0.343994
O O6 0.873729 0.691268 0.384350
O O7 0.000000 0.628591 0.250000
O O8 0.567777 0.044236 0.882747
O O9 0.710347 0.976079 0.894553
O O10 0.500000 0.500000 0.500000
O O11 0.501606 0.671398 0.402969
O O12 0.478703 0.362311 0.409325
O O13 0.878120 0.405486 0.473899
O O14 0.164033 0.296435 0.491044
O O15 0.196336 0.035438 0.544311
#
# Coordination Sequence:
#
# PCOD9283222 Si02
#       7
#     8   8   8   8   8   8   8
#     4  11  25  42  65  92 133 168 216 264 326 381
#     4  11  22  44  69  93 129 175 221 263 316 392
#     4  11  22  42  61  97 125 172 212 269 316 384
#     4  11  26  44  63  98 136 165 208 278 330 381
#     4  10  23  40  67  94 129 168 219 259 328 381
#     4  10  22  40  68  96 126 169 217 266 322 380
#     4  10  21  39  69  94 127 167 221 263 312 390
#
# _framework density 21.057099000000001
#
# number of rings (size 3 to 8) (size 9 to 14) (size 15 to 20)
#    0.000    1.429    2.857    2.143    6.000    2.857 
#    2.571    0.714    0.000    0.000    0.000    0.000 
#    0.000    0.000    0.000    0.000    0.000    0.000 
#
# Total GULP energy -156471.277041 kJ/mol
# GULP energy per Si atom -5588.259894 kJ/mol
# Density = 2.100917 g / cm^3
# Si number density = 21.057099 Si / 1000 Ang^3
#
#
#
# Elastic Constant Matrix: (Units=GPa)
#
#
# Indices 1 2 3 4 5 6 
#
# 1 112.0878 11.8377 28.8274 0.0000 -12.5182 0.0001
# 2 11.8377 13.5237 2.2275 -0.0001 -1.4596 0.0002
# 3 28.8274 2.2275 111.7532 0.0000 2.2563 0.0000
# 4 0.0000 -0.0001 0.0000 27.0816 0.0000 -3.2553
# 5 -12.5182 -1.4596 2.2563 0.0000 41.3033 0.0000
# 6 0.0001 0.0002 0.0000 -3.2553 0.0000 24.3301
#
#
#
# Elastic Compliance Matrix: (Units=1/GPa)
#
#
# Indices 1 2 3 4 5 6 
#
# 1 0.010890 -0.008749 -0.002698 0.000000 0.003139 0.000000
# 2 -0.008749 0.081520 0.000628 0.000000 0.000195 -0.000001
# 3 -0.002698 0.000628 0.009658 0.000000 -0.001323 0.000000
# 4 0.000000 0.000000 0.000000 0.037529 0.000000 0.005021
# 5 0.003139 0.000195 -0.001323 0.000000 0.025242 0.000000
# 6 0.000000 -0.000001 0.000000 0.005021 0.000000 0.041773
#
#
# Mechanical properties :
#
#
# Convention : Reuss Voigt Hill
#
# Bulk Modulus (GPa) = 12.43310 35.90553 24.16931
# Shear Modulus (GPa) = 19.60313 31.50781 25.55547
#
# Velocity S-wave (km/s) = 3.05446 3.87240 3.48749
# Velocity P-wave (km/s) = 4.28450 6.08954 5.26495
#
# Compressibility (1/GPa) = 0.08043045
#
# Stress axis : x y z
#
# Youngs Moduli (GPa) = 91.82690 12.26687 103.53587
#
# Poissons Ratio (x) = 0.10733 0.27935
# Poissons Ratio (y) = 0.80341 -0.06503
# Poissons Ratio (z) = 0.24776 -0.00770
#
# Static dielectric constant tensor:
#      x y z
#    x 1.755800 0.000000 -0.009240 
#    y 0.000000 1.771220 0.000000 
#    z -0.009240 0.000000 1.754180 
# 
# From -- ./inp_files/276515.got.cif
#   From: 2010.05.17/outbox.cif.g08.bks.cpg/sg15_139_cif.got.tgz:276515.got - 2010.06.03 18:47:42.
