data_PCOD9283833
_publ_section_title
;
Structure prediction by ZEFSAII (Michael W. Deem and Ramdas Pophale) SiO2 
 PCOD9283833
Probable space group: C 2/C
;
_chemical_formula_sum "Si O2"
_cell_formula_units_Z 40
_cell_length_a 6.988892
_cell_length_b 12.825991
_cell_length_c 19.312457
_cell_angle_alpha 90.000000
_cell_angle_beta 114.222467
_cell_angle_gamma 90.000000
_cell_volume 1578.745949
_symmetry_space_group_name_H-M "C 2/C"
_symmetry_group_IT_number 15
_symmetry_cell_setting 'monoclinic'
loop_
_space_group_symop_operation_xyz
x,y,z
-x,y,1/2-z
-x,-y,-z
x,-y,1/2+z
1/2+x,1/2+y,z
1/2-x,1/2+y,1/2-z
1/2-x,1/2-y,-z
1/2+x,1/2-y,1/2+z
loop_
_atom_site_type_symbol
_atom_site_label
_atom_site_fract_x
_atom_site_fract_y
_atom_site_fract_z
Si Si1 0.533007 0.493268 0.337847
Si Si2 0.088689 0.217198 0.340034
Si Si3 0.751785 0.564997 0.082189
Si Si4 0.642907 0.734524 0.840360
Si Si5 0.811108 0.850633 0.463052
O O1 0.500000 0.489982 0.250000
O O2 0.660092 0.600109 0.368954
O O3 0.329907 0.519847 0.355085
O O4 0.628740 0.381509 0.368882
O O5 0.262468 0.302505 0.380518
O O6 0.000000 0.218167 0.250000
O O7 0.884657 0.249365 0.353963
O O8 0.899289 0.662860 0.119509
O O9 0.816655 0.459916 0.051681
O O10 0.547261 0.613288 0.013588
O O11 0.500000 0.740378 0.750000
O O12 0.750000 0.750000 0.500000
#
# Coordination Sequence:
#
# PCOD9283833 Si02
#       5
#     8   8   8   8   8
#     4   9  19  38  63  90 130 161 207 269 310 366
#     4  10  22  41  66  93 124 174 212 264 326 372
#     4  10  23  42  63  92 128 174 210 267 318 375
#     4  10  21  40  64  98 131 158 217 266 312 384
#     4  11  21  43  68  87 132 171 214 260 320 384
#
# _framework density 25.336563999999999
#
# number of rings (size 3 to 8) (size 9 to 14) (size 15 to 20)
#    0.000    2.000    4.000    0.000    5.600    0.800 
#   10.800    8.000    0.000    0.000    0.000    0.000 
#    0.000    0.000    0.000    0.000    0.000    0.000 
#
# Total GULP energy -111621.091287 kJ/mol
# GULP energy per Si atom -5581.054564 kJ/mol
# Density = 2.527890 g / cm^3
# Si number density = 25.336564 Si / 1000 Ang^3
#
#
#
# Elastic Constant Matrix: (Units=GPa)
#
#
# Indices 1 2 3 4 5 6 
#
# 1 79.4764 53.9506 5.8305 0.0000 -2.7035 0.0000
# 2 53.9506 325.6463 68.1641 0.0000 19.1377 0.0000
# 3 5.8305 68.1641 102.2170 0.0000 2.8847 0.0000
# 4 0.0000 0.0000 0.0000 67.6013 0.0000 1.9725
# 5 -2.7035 19.1377 2.8847 0.0000 24.0239 0.0000
# 6 0.0000 0.0000 0.0000 1.9725 0.0000 44.7540
#
#
#
# Elastic Compliance Matrix: (Units=1/GPa)
#
#
# Indices 1 2 3 4 5 6 
#
# 1 0.014566 -0.002835 0.000953 0.000000 0.003783 0.000000
# 2 -0.002835 0.004286 -0.002600 0.000000 -0.003421 0.000000
# 3 0.000953 -0.002600 0.011440 0.000000 0.000805 0.000000
# 4 0.000000 0.000000 0.000000 0.014812 0.000000 -0.000653
# 5 0.003783 -0.003421 0.000805 0.000000 0.044679 0.000000
# 6 0.000000 0.000000 0.000000 -0.000653 0.000000 0.022373
#
#
# Mechanical properties :
#
#
# Convention : Reuss Voigt Hill
#
# Bulk Modulus (GPa) = 46.88787 84.80335 65.84561
# Shear Modulus (GPa) = 38.99318 52.56882 45.78100
#
# Velocity S-wave (km/s) = 3.92728 4.55996 4.25539
# Velocity P-wave (km/s) = 6.25387 7.82737 7.08444
#
# Compressibility (1/GPa) = 0.02132748
#
# Stress axis : x y z
#
# Youngs Moduli (GPa) = 68.65531 233.33518 87.41507
#
# Poissons Ratio (x) = 0.66148 -0.08330
# Poissons Ratio (y) = 0.19463 0.22725
# Poissons Ratio (z) = -0.06542 0.60660
#
# Static dielectric constant tensor:
#      x y z
#    x 2.100580 0.000000 -0.058020 
#    y 0.000000 2.003230 0.000000 
#    z -0.058020 0.000000 2.176230 
# 
# From -- ./inp_files/229806.got.cif
#   From: 2010.05.17/outbox.cif.g08.bks.cpg/sg15_115_cif.got.tgz:229806.got - 2010.06.03 18:47:42.
