data_PCOD9283114
_publ_section_title
;
Structure prediction by ZEFSAII (Michael W. Deem and Ramdas Pophale) SiO2 
 PCOD9283114
Probable space group: C 2/C
;
_chemical_formula_sum "Si O2"
_cell_formula_units_Z 48
_cell_length_a 8.400075
_cell_length_b 16.773188
_cell_length_c 14.868683
_cell_angle_alpha 90.000000
_cell_angle_beta 92.776585
_cell_angle_gamma 90.000000
_cell_volume 2092.479091
_symmetry_space_group_name_H-M "C 2/C"
_symmetry_group_IT_number 15
_symmetry_cell_setting 'monoclinic'
loop_
_space_group_symop_operation_xyz
x,y,z
-x,y,1/2-z
-x,-y,-z
x,-y,1/2+z
1/2+x,1/2+y,z
1/2-x,1/2+y,1/2-z
1/2-x,1/2-y,-z
1/2+x,1/2-y,1/2+z
loop_
_atom_site_type_symbol
_atom_site_label
_atom_site_fract_x
_atom_site_fract_y
_atom_site_fract_z
Si Si1 0.000000 0.291794 0.750000
Si Si2 0.959707 0.325448 0.352098
Si Si3 0.500000 0.412925 0.750000
Si Si4 0.939319 0.086273 0.531384
Si Si5 0.805692 0.827391 0.374876
Si Si6 0.786008 0.827899 0.878353
Si Si7 0.771400 0.946676 0.207749
O O1 0.890311 0.239501 0.815389
O O2 0.874492 0.337584 0.683328
O O3 0.824096 0.266320 0.385784
O O4 0.895567 0.416336 0.339371
O O5 0.000000 0.301051 0.250000
O O6 0.127130 0.313013 0.404694
O O7 0.441400 0.360991 0.830783
O O8 0.656827 0.465982 0.775620
O O9 0.795208 0.120692 0.468657
O O10 0.890906 0.083599 0.634201
O O11 0.085129 0.147540 0.539105
O O12 0.000000 0.000000 0.500000
O O13 0.783370 0.900443 0.302470
#
# Coordination Sequence:
#
# PCOD9283114 Si02
#       7
#     4   8   4   8   8   8   8
#     4  12  21  42  66  99 130 178 220 282 335 398
#     4  10  21  39  67  96 122 176 230 268 326 402
#     4  12  21  44  64  93 134 186 212 274 345 394
#     4  12  23  40  65  98 134 178 224 275 346 395
#     4  11  20  42  69  93 132 174 225 270 338 403
#     4  12  24  40  69  98 134 172 228 285 330 404
#     4  11  20  41  67  91 133 181 219 263 339 412
#
# _framework density 22.939297
#
# number of rings (size 3 to 8) (size 9 to 14) (size 15 to 20)
#    0.000    0.667    9.167    0.000    0.000    3.333 
#    7.500    2.500    0.000    0.000    0.000    0.000 
#    0.000    0.000    0.000    0.000    0.000    0.000 
#
# Total GULP energy -133835.252376 kJ/mol
# GULP energy per Si atom -5576.468849 kJ/mol
# Density = 2.288709 g / cm^3
# Si number density = 22.939297 Si / 1000 Ang^3
#
#
#
# Elastic Constant Matrix: (Units=GPa)
#
#
# Indices 1 2 3 4 5 6 
#
# 1 113.2968 30.0719 21.3105 0.0000 32.4994 0.0000
# 2 30.0719 76.1937 20.2406 0.0000 10.9272 0.0000
# 3 21.3105 20.2406 45.5645 0.0000 22.8624 0.0000
# 4 0.0000 0.0000 0.0000 16.5575 0.0000 -16.1008
# 5 32.4994 10.9272 22.8624 0.0000 44.2324 0.0000
# 6 0.0000 0.0000 0.0000 -16.1008 0.0000 20.5946
#
#
#
# Elastic Compliance Matrix: (Units=1/GPa)
#
#
# Indices 1 2 3 4 5 6 
#
# 1 0.012076 -0.003612 -0.000053 0.000000 -0.007953 0.000000
# 2 -0.003612 0.015964 -0.006420 0.000000 0.002028 0.000000
# 3 -0.000053 -0.006420 0.032415 0.000000 -0.015129 0.000000
# 4 0.000000 0.000000 0.000000 0.251890 0.000000 0.196927
# 5 -0.007953 0.002028 -0.015129 0.000000 0.035770 0.000000
# 6 0.000000 0.000000 0.000000 0.196927 0.000000 0.202513
#
#
# Mechanical properties :
#
#
# Convention : Reuss Voigt Hill
#
# Bulk Modulus (GPa) = 24.82248 42.03347 33.42797
# Shear Modulus (GPa) = 8.55830 27.17234 17.86532
#
# Velocity S-wave (km/s) = 1.93364 3.44544 2.79374
# Velocity P-wave (km/s) = 3.97866 5.84736 5.00107
#
# Compressibility (1/GPa) = 0.04028606
#
# Stress axis : x y z
#
# Youngs Moduli (GPa) = 82.80605 62.63900 30.84990
#
# Poissons Ratio (x) = 0.22622 0.00164
# Poissons Ratio (y) = 0.29906 0.19806
# Poissons Ratio (z) = 0.00440 0.40216
#
# Static dielectric constant tensor:
#      x y z
#    x 1.969920 0.000000 0.007590 
#    y 0.000000 1.898020 0.000000 
#    z 0.007590 0.000000 1.873560 
# 
# From -- ./inp_files/134926.got.cif
#   From: 2010.05.17/outbox.cif.g08.bks.cpg/sg15_68_cif.got.tgz:134926.got - 2010.06.03 18:47:42.
