data_PCOD9283032
_publ_section_title
;
Structure prediction by ZEFSAII (Michael W. Deem and Ramdas Pophale) SiO2 
 PCOD9283032
Probable space group: C 2/C
;
_chemical_formula_sum "Si O2"
_cell_formula_units_Z 56
_cell_length_a 14.610089
_cell_length_b 9.740549
_cell_length_c 18.377701
_cell_angle_alpha 90.000000
_cell_angle_beta 87.675336
_cell_angle_gamma 90.000000
_cell_volume 2613.183568
_symmetry_space_group_name_H-M "C 2/C"
_symmetry_group_IT_number 15
_symmetry_cell_setting 'monoclinic'
loop_
_space_group_symop_operation_xyz
x,y,z
-x,y,1/2-z
-x,-y,-z
x,-y,1/2+z
1/2+x,1/2+y,z
1/2-x,1/2+y,1/2-z
1/2-x,1/2-y,-z
1/2+x,1/2-y,1/2+z
loop_
_atom_site_type_symbol
_atom_site_label
_atom_site_fract_x
_atom_site_fract_y
_atom_site_fract_z
Si Si1 0.500000 0.131957 0.750000
Si Si2 0.196303 0.918181 0.206901
Si Si3 0.102874 0.943691 0.999981
Si Si4 0.174529 0.548961 0.658077
Si Si5 0.653918 0.337179 0.599651
Si Si6 0.800202 0.264724 0.920764
Si Si7 0.000000 0.090885 0.750000
Si Si8 0.448429 0.648989 0.143728
O O1 0.572278 0.053272 0.697193
O O2 0.564276 0.233425 0.796151
O O3 0.254286 0.948406 0.276819
O O4 0.242429 0.821786 0.144643
O O5 0.097982 0.844360 0.227038
O O6 0.176813 0.063271 0.167128
O O7 0.109196 0.823926 0.059782
O O8 0.166871 0.066810 0.028295
O O9 0.120730 0.884877 0.918783
O O10 0.000000 0.000000 0.000000
O O11 0.195065 0.688347 0.612023
O O12 0.319302 0.916451 0.892877
O O13 0.545120 0.308882 0.605027
O O14 0.750000 0.250000 0.000000
O O15 0.969126 0.990818 0.685587
#
# Coordination Sequence:
#
# PCOD9283032 Si02
#       8
#     4   8   8   8   8   8   4   8
#     4   9  20  35  60  94 130 166 222 258 336 410
#     4  10  21  39  66  95 129 174 227 273 331 392
#     4   9  18  37  64  87 123 168 215 267 326 390
#     4  11  22  40  65  93 134 175 214 278 335 394
#     4   8  17  36  57  92 120 160 218 262 320 401
#     4  11  26  41  62  97 134 172 225 278 338 404
#     4   9  18  33  64  98 116 156 230 272 302 388
#     4   8  15  31  63  90 112 158 205 266 319 383
#
# _framework density 21.4298
#
# number of rings (size 3 to 8) (size 9 to 14) (size 15 to 20)
#    0.000    2.571    0.000    2.571    4.000    0.571 
#    0.000    9.286    3.143    0.000    0.000    0.000 
#    0.000    0.000    0.000    0.000    0.000    0.000 
#
# Total GULP energy -155966.968414 kJ/mol
# GULP energy per Si atom -5570.248872 kJ/mol
# Density = 2.138102 g / cm^3
# Si number density = 21.429800 Si / 1000 Ang^3
#
#
#
# Elastic Constant Matrix: (Units=GPa)
#
#
# Indices 1 2 3 4 5 6 
#
# 1 77.4862 30.2344 39.3225 0.0000 -4.8873 0.0000
# 2 30.2344 155.3267 83.7065 0.0000 0.8704 0.0000
# 3 39.3225 83.7065 169.8823 0.0000 16.2636 0.0000
# 4 0.0000 0.0000 0.0000 38.7278 0.0000 -8.1910
# 5 -4.8873 0.8704 16.2636 0.0000 38.7113 0.0000
# 6 0.0000 0.0000 0.0000 -8.1910 0.0000 20.9502
#
#
#
# Elastic Compliance Matrix: (Units=1/GPa)
#
#
# Indices 1 2 3 4 5 6 
#
# 1 0.015239 -0.001243 -0.003232 0.000000 0.003310 0.000000
# 2 -0.001243 0.008974 -0.004271 0.000000 0.001436 0.000000
# 3 -0.003232 -0.004271 0.009136 0.000000 -0.004150 0.000000
# 4 0.000000 0.000000 0.000000 0.028149 0.000000 0.011006
# 5 0.003310 0.001436 -0.004150 0.000000 0.027961 0.000000
# 6 0.000000 0.000000 0.000000 0.011006 0.000000 0.052035
#
#
# Mechanical properties :
#
#
# Convention : Reuss Voigt Hill
#
# Bulk Modulus (GPa) = 63.06377 78.80245 70.93311
# Shear Modulus (GPa) = 30.43701 36.30666 33.37184
#
# Velocity S-wave (km/s) = 3.77279 4.12055 3.95050
# Velocity P-wave (km/s) = 6.96208 7.71302 7.34715
#
# Compressibility (1/GPa) = 0.01585696
#
# Stress axis : x y z
#
# Youngs Moduli (GPa) = 65.61934 111.43447 109.45181
#
# Poissons Ratio (x) = 0.13855 0.35371
# Poissons Ratio (y) = 0.08159 0.46751
# Poissons Ratio (z) = 0.21206 0.47598
#
# Static dielectric constant tensor:
#      x y z
#    x 1.930230 0.000000 -0.036630 
#    y 0.000000 1.823120 0.000000 
#    z -0.036630 0.000000 1.826470 
# 
# From -- ./inp_files/244089.got.cif
#   From: 2010.05.17/outbox.cif.g08.bks.cpg/sg15_123_cif.got.tgz:244089.got - 2010.06.03 18:47:42.
