data_PCOD9283675
_publ_section_title
;
Structure prediction by ZEFSAII (Michael W. Deem and Ramdas Pophale) SiO2 
 PCOD9283675
Probable space group: C 2/C
;
_chemical_formula_sum "Si O2"
_cell_formula_units_Z 56
_cell_length_a 27.625105
_cell_length_b 11.224183
_cell_length_c 8.268549
_cell_angle_alpha 90.000000
_cell_angle_beta 66.554371
_cell_angle_gamma 90.000000
_cell_volume 2352.148470
_symmetry_space_group_name_H-M "C 2/C"
_symmetry_group_IT_number 15
_symmetry_cell_setting 'monoclinic'
loop_
_space_group_symop_operation_xyz
x,y,z
-x,y,1/2-z
-x,-y,-z
x,-y,1/2+z
1/2+x,1/2+y,z
1/2-x,1/2+y,1/2-z
1/2-x,1/2-y,-z
1/2+x,1/2-y,1/2+z
loop_
_atom_site_type_symbol
_atom_site_label
_atom_site_fract_x
_atom_site_fract_y
_atom_site_fract_z
Si Si1 0.268943 0.624742 0.388796
Si Si2 0.038110 0.574797 0.337989
Si Si3 0.059548 0.948535 0.098852
Si Si4 0.889700 0.862442 0.791199
Si Si5 0.120643 0.606601 0.805129
Si Si6 0.289730 0.918332 0.848117
Si Si7 0.117563 0.733743 0.156144
O O1 0.250000 0.750000 0.500000
O O2 0.330642 0.595678 0.326483
O O3 0.240335 0.505757 0.490676
O O4 0.250574 0.633448 0.228496
O O5 0.081178 0.473341 0.252412
O O6 0.074704 0.683269 0.340710
O O7 0.000000 0.620406 0.250000
O O8 0.000000 0.500000 0.500000
O O9 0.101126 0.867845 0.145371
O O10 0.000000 0.938275 0.250000
O O11 0.083580 0.080276 0.087600
O O12 0.068524 0.899375 0.905813
O O13 0.876575 0.722781 0.809408
O O14 0.168276 0.515975 0.777316
O O15 0.106635 0.663750 0.998975
O O16 0.324794 0.809699 0.870292
#
# Coordination Sequence:
#
# PCOD9283675 Si02
#       7
#     8   8   8   8   8   8   8
#     4  12  25  45  73 106 144 185 230 290 359 426
#     4  11  21  36  61  96 128 170 223 280 343 401
#     4  11  25  47  69  94 137 187 232 290 346 412
#     4  11  25  46  67  99 135 177 237 283 337 425
#     4  10  21  40  63  94 138 170 221 283 335 409
#     4  11  23  43  70 101 140 177 223 286 352 413
#     4  10  22  40  66  96 133 177 224 279 350 415
#
# _framework density 23.808019999999999
#
# number of rings (size 3 to 8) (size 9 to 14) (size 15 to 20)
#    0.000    1.143    4.286    1.714    2.000    2.857 
#    2.571    2.857    0.000    0.000    0.000    0.000 
#    0.000    0.000    0.000    0.000    0.000    0.000 
#
# Total GULP energy -156014.723066 kJ/mol
# GULP energy per Si atom -5571.954395 kJ/mol
# Density = 2.375383 g / cm^3
# Si number density = 23.808020 Si / 1000 Ang^3
#
#
#
# Elastic Constant Matrix: (Units=GPa)
#
#
# Indices 1 2 3 4 5 6 
#
# 1 100.9681 27.3125 9.7285 0.0000 -11.2461 0.0000
# 2 27.3125 76.3443 4.6783 0.0000 6.2788 0.0000
# 3 9.7285 4.6783 23.3932 0.0000 -9.0392 0.0000
# 4 0.0000 0.0000 0.0000 22.1708 0.0000 10.0830
# 5 -11.2461 6.2788 -9.0392 0.0000 32.0180 0.0000
# 6 0.0000 0.0000 0.0000 10.0830 0.0000 28.3020
#
#
#
# Elastic Compliance Matrix: (Units=1/GPa)
#
#
# Indices 1 2 3 4 5 6 
#
# 1 0.011817 -0.004443 -0.002341 0.000000 0.004361 0.000000
# 2 -0.004443 0.015347 -0.003353 0.000000 -0.005517 0.000000
# 3 -0.002341 -0.003353 0.049756 0.000000 0.013882 0.000000
# 4 0.000000 0.000000 0.000000 0.053825 0.000000 -0.019176
# 5 0.004361 -0.005517 0.013882 0.000000 0.037765 0.000000
# 6 0.000000 0.000000 0.000000 -0.019176 0.000000 0.042165
#
#
# Mechanical properties :
#
#
# Convention : Reuss Voigt Hill
#
# Bulk Modulus (GPa) = 17.65344 31.57159 24.61252
# Shear Modulus (GPa) = 20.01348 27.09727 23.55538
#
# Velocity S-wave (km/s) = 2.90249 3.37732 3.14887
# Velocity P-wave (km/s) = 4.32014 5.33836 4.85601
#
# Compressibility (1/GPa) = 0.05664617
#
# Stress axis : x y z
#
# Youngs Moduli (GPa) = 84.62215 65.15834 20.09825
#
# Poissons Ratio (x) = 0.28949 0.04704
# Poissons Ratio (y) = 0.37597 0.06740
# Poissons Ratio (z) = 0.19808 0.21850
#
# Static dielectric constant tensor:
#      x y z
#    x 1.713900 0.000000 0.030030 
#    y 0.000000 1.946680 0.000000 
#    z 0.030030 0.000000 2.043200 
# 
# From -- ./inp_files/65451.got.cif
#   From: 2010.05.17/outbox.cif.g08.bks.cpg/sg15_33_cif.got.tgz:65451.got - 2010.06.03 18:47:42.
