data_PCOD9283059
_publ_section_title
;
Structure prediction by ZEFSAII (Michael W. Deem and Ramdas Pophale) SiO2 
 PCOD9283059
Probable space group: C 2/C
;
_chemical_formula_sum "Si O2"
_cell_formula_units_Z 32
_cell_length_a 14.155600
_cell_length_b 10.962095
_cell_length_c 11.899590
_cell_angle_alpha 90.000000
_cell_angle_beta 45.438448
_cell_angle_gamma 90.000000
_cell_volume 1315.639546
_symmetry_space_group_name_H-M "C 2/C"
_symmetry_group_IT_number 15
_symmetry_cell_setting 'monoclinic'
loop_
_space_group_symop_operation_xyz
x,y,z
-x,y,1/2-z
-x,-y,-z
x,-y,1/2+z
1/2+x,1/2+y,z
1/2-x,1/2+y,1/2-z
1/2-x,1/2-y,-z
1/2+x,1/2-y,1/2+z
loop_
_atom_site_type_symbol
_atom_site_label
_atom_site_fract_x
_atom_site_fract_y
_atom_site_fract_z
Si Si1 0.994141 0.645483 0.501040
Si Si2 0.724891 0.617986 0.958735
Si Si3 0.500000 0.117758 0.750000
Si Si4 0.706539 0.304903 0.221811
Si Si5 0.000000 0.040745 0.750000
O O1 0.991684 0.686538 0.635772
O O2 0.860394 0.700771 0.556550
O O3 0.000000 0.500000 0.500000
O O4 0.126712 0.685337 0.326212
O O5 0.594537 0.548744 0.101994
O O6 0.750000 0.750000 0.000000
O O7 0.861401 0.547579 0.874866
O O8 0.719612 0.627287 0.830047
O O9 0.605684 0.378014 0.228595
#
# Coordination Sequence:
#
# PCOD9283059 Si02
#       5
#     8   8   4   8   4
#     4  11  25  45  70 105 145 189 243 295 363 434
#     4  11  22  42  72 102 137 187 245 289 353 434
#     4  10  21  39  66  98 132 182 233 295 334 426
#     4  11  27  43  73 103 146 190 242 297 365 426
#     4  12  27  45  70 108 148 186 239 307 370 420
#
# _framework density 24.322772000000001
#
# number of rings (size 3 to 8) (size 9 to 14) (size 15 to 20)
#    0.000    1.000    2.500    3.000    3.500    6.000 
#    0.000    0.000    0.000    0.000    0.000    0.000 
#    0.000    0.000    0.000    0.000    0.000    0.000 
#
# Total GULP energy -89324.126840 kJ/mol
# GULP energy per Si atom -5582.757927 kJ/mol
# Density = 2.426741 g / cm^3
# Si number density = 24.322772 Si / 1000 Ang^3
#
#
#
# Elastic Constant Matrix: (Units=GPa)
#
#
# Indices 1 2 3 4 5 6 
#
# 1 149.6461 20.5743 8.8706 0.0000 -29.8277 0.0000
# 2 20.5743 79.4115 17.4818 0.0000 -10.3594 0.0000
# 3 8.8706 17.4818 77.6918 0.0000 -44.9188 0.0000
# 4 0.0000 0.0000 0.0000 32.2973 0.0000 1.8639
# 5 -29.8277 -10.3594 -44.9188 0.0000 61.2172 0.0000
# 6 0.0000 0.0000 0.0000 1.8639 0.0000 21.9203
#
#
#
# Elastic Compliance Matrix: (Units=1/GPa)
#
#
# Indices 1 2 3 4 5 6 
#
# 1 0.007884 -0.001922 0.002719 0.000000 0.005511 0.000000
# 2 -0.001922 0.013718 -0.003589 0.000000 -0.001249 0.000000
# 3 0.002719 -0.003589 0.023939 0.000000 0.018283 0.000000
# 4 0.000000 0.000000 0.000000 0.031115 0.000000 -0.002646
# 5 0.005511 -0.001249 0.018283 0.000000 0.032224 0.000000
# 6 0.000000 0.000000 0.000000 -0.002646 0.000000 0.045845
#
#
# Mechanical properties :
#
#
# Convention : Reuss Voigt Hill
#
# Bulk Modulus (GPa) = 25.02797 44.51142 34.76970
# Shear Modulus (GPa) = 28.79695 40.40849 34.60272
#
# Velocity S-wave (km/s) = 3.44459 4.08038 3.77589
# Velocity P-wave (km/s) = 5.11200 6.36705 5.77373
#
# Compressibility (1/GPa) = 0.03995529
#
# Stress axis : x y z
#
# Youngs Moduli (GPa) = 126.83893 72.89757 41.77251
#
# Poissons Ratio (x) = 0.14012 -0.11356
# Poissons Ratio (y) = 0.24381 0.14994
# Poissons Ratio (z) = -0.34483 0.26165
#
# Static dielectric constant tensor:
#      x y z
#    x 2.004460 0.000000 -0.012120 
#    y 0.000000 2.026110 0.000000 
#    z -0.012120 0.000000 2.200680 
# 
# From -- ./inp_files/94184.got.cif
#   From: 2010.05.17/outbox.cif.g08.bks.cpg/sg15_48_cif.got.tgz:94184.got - 2010.06.03 18:47:42.
