data_PCOD9283778
_publ_section_title
;
Structure prediction by ZEFSAII (Michael W. Deem and Ramdas Pophale) SiO2 
 PCOD9283778
Probable space group: C 2/C
;
_chemical_formula_sum "Si O2"
_cell_formula_units_Z 36
_cell_length_a 12.482465
_cell_length_b 14.392994
_cell_length_c 17.779365
_cell_angle_alpha 90.000000
_cell_angle_beta 149.091855
_cell_angle_gamma 90.000000
_cell_volume 1640.764394
_symmetry_space_group_name_H-M "C 2/C"
_symmetry_group_IT_number 15
_symmetry_cell_setting 'monoclinic'
loop_
_space_group_symop_operation_xyz
x,y,z
-x,y,1/2-z
-x,-y,-z
x,-y,1/2+z
1/2+x,1/2+y,z
1/2-x,1/2+y,1/2-z
1/2-x,1/2-y,-z
1/2+x,1/2-y,1/2+z
loop_
_atom_site_type_symbol
_atom_site_label
_atom_site_fract_x
_atom_site_fract_y
_atom_site_fract_z
Si Si1 0.905957 0.141900 0.588942
Si Si2 0.000000 0.623262 0.750000
Si Si3 0.515592 0.749627 0.390287
Si Si4 0.304200 0.780577 0.405178
Si Si5 0.442592 0.543750 0.046195
O O1 0.727161 0.149553 0.544138
O O2 0.829485 0.182946 0.463638
O O3 0.093030 0.208273 0.729677
O O4 0.988663 0.038480 0.631691
O O5 0.093098 0.688856 0.739625
O O6 0.806570 0.563177 0.604655
O O7 0.750000 0.750000 0.500000
O O8 0.483764 0.795708 0.452498
O O9 0.455990 0.642047 0.368822
O O10 0.500000 0.500000 0.000000
#
# Coordination Sequence:
#
# PCOD9283778 Si02
#       5
#     8   4   8   8   8
#     4  10  22  39  68  96 125 167 215 272 317 381
#     4  10  24  40  60  92 130 170 214 256 332 384
#     4  10  22  40  62  88 126 171 207 262 324 392
#     4  10  21  40  64  92 129 163 213 262 331 377
#     4  11  21  41  64  93 125 167 221 265 318 383
#
# _framework density 21.940994
#
# number of rings (size 3 to 8) (size 9 to 14) (size 15 to 20)
#    0.000    1.778    2.222    1.333    3.111    5.333 
#    0.000    4.444    0.000    0.000    0.000    0.000 
#    0.000    0.000    0.000    0.000    0.000    0.000 
#
# Total GULP energy -100335.662666 kJ/mol
# GULP energy per Si atom -5574.203481 kJ/mol
# Density = 2.189106 g / cm^3
# Si number density = 21.940994 Si / 1000 Ang^3
#
#
#
# Elastic Constant Matrix: (Units=GPa)
#
#
# Indices 1 2 3 4 5 6 
#
# 1 182.9149 26.1441 4.1915 0.0015 -19.8339 0.0002
# 2 26.1441 83.4633 14.5301 0.0054 -15.1782 0.0013
# 3 4.1915 14.5301 69.5595 0.0100 -2.7248 0.0030
# 4 0.0015 0.0054 0.0100 22.1896 0.0029 -6.3364
# 5 -19.8339 -15.1782 -2.7248 0.0029 26.0454 0.0004
# 6 0.0002 0.0013 0.0030 -6.3364 0.0004 32.4891
#
#
#
# Elastic Compliance Matrix: (Units=1/GPa)
#
#
# Indices 1 2 3 4 5 6 
#
# 1 0.006062 -0.001191 0.000037 -0.000001 0.003926 0.000000
# 2 -0.001191 0.014085 -0.002595 -0.000003 0.007029 -0.000001
# 3 0.000037 -0.002595 0.014919 -0.000007 0.000077 -0.000003
# 4 -0.000001 -0.000003 -0.000007 0.047724 -0.000009 0.009308
# 5 0.003926 0.007029 0.000077 -0.000009 0.045488 -0.000003
# 6 0.000000 -0.000001 -0.000003 0.009308 -0.000003 0.032595
#
#
# Mechanical properties :
#
#
# Convention : Reuss Voigt Hill
#
# Bulk Modulus (GPa) = 36.27438 47.29658 41.78548
# Shear Modulus (GPa) = 28.15942 35.54962 31.85452
#
# Velocity S-wave (km/s) = 3.58637 4.02958 3.81442
# Velocity P-wave (km/s) = 5.80672 6.57671 6.20367
#
# Compressibility (1/GPa) = 0.02756767
#
# Stress axis : x y z
#
# Youngs Moduli (GPa) = 164.95752 70.99972 67.02867
#
# Poissons Ratio (x) = 0.08459 -0.00251
# Poissons Ratio (y) = 0.19654 0.17394
# Poissons Ratio (z) = -0.00617 0.18424
#
# Static dielectric constant tensor:
#      x y z
#    x 1.859610 0.000000 -0.004860 
#    y 0.000000 1.801370 0.000000 
#    z -0.004860 0.000000 1.865620 
# 
# From -- ./inp_files/197506.got.cif
#   From: 2010.05.17/outbox.cif.g08.bks.cpg/sg15_99_cif.got.tgz:197506.got - 2010.06.03 18:47:42.
