data_PCOD9283132
_publ_section_title
;
Structure prediction by ZEFSAII (Michael W. Deem and Ramdas Pophale) SiO2 
 PCOD9283132
Probable space group: C 2/C
;
_chemical_formula_sum "Si O2"
_cell_formula_units_Z 56
_cell_length_a 21.361232
_cell_length_b 13.733026
_cell_length_c 8.960647
_cell_angle_alpha 90.000000
_cell_angle_beta 113.715770
_cell_angle_gamma 90.000000
_cell_volume 2406.660827
_symmetry_space_group_name_H-M "C 2/C"
_symmetry_group_IT_number 15
_symmetry_cell_setting 'monoclinic'
loop_
_space_group_symop_operation_xyz
x,y,z
-x,y,1/2-z
-x,-y,-z
x,-y,1/2+z
1/2+x,1/2+y,z
1/2-x,1/2+y,1/2-z
1/2-x,1/2-y,-z
1/2+x,1/2-y,1/2+z
loop_
_atom_site_type_symbol
_atom_site_label
_atom_site_fract_x
_atom_site_fract_y
_atom_site_fract_z
Si Si1 0.240248 0.606647 0.718323
Si Si2 0.294605 0.343316 0.577425
Si Si3 0.886024 0.892555 0.219628
Si Si4 0.630848 0.186770 0.421121
Si Si5 0.818811 0.590421 0.323969
Si Si6 0.072718 0.904568 0.890911
Si Si7 0.052477 0.515913 0.916842
O O1 0.302898 0.599761 0.660981
O O2 0.188768 0.689343 0.606609
O O3 0.185115 0.523934 0.706795
O O4 0.282054 0.602295 0.910560
O O5 0.250000 0.250000 0.500000
O O6 0.254571 0.391504 0.673133
O O7 0.374796 0.335868 0.651945
O O8 0.900999 0.791387 0.147165
O O9 0.919047 0.893403 0.420214
O O10 0.909452 0.985022 0.145529
O O11 0.669976 0.156903 0.306201
O O12 0.581955 0.091742 0.398512
O O13 0.885423 0.590952 0.493030
O O14 0.000000 0.883200 0.750000
O O15 0.000000 0.559489 0.750000
O O16 0.000000 0.500000 0.000000
#
# Coordination Sequence:
#
# PCOD9283132 Si02
#       7
#     8   8   8   8   8   8   8
#     4  10  21  39  67  99 137 178 231 295 358 420
#     4  11  24  43  69 102 132 181 238 296 352 424
#     4  11  24  44  70 101 142 189 246 295 360 434
#     4  11  24  40  68 107 141 183 244 298 357 433
#     4  11  21  40  68  98 139 181 232 291 357 424
#     4  11  25  47  71 100 144 194 240 301 371 428
#     4  11  23  43  68  98 146 185 228 287 368 437
#
# _framework density 23.268754000000001
#
# number of rings (size 3 to 8) (size 9 to 14) (size 15 to 20)
#    0.000    1.143    2.857    4.286    4.000    1.714 
#    0.000    5.714    0.000    0.000    0.000    0.000 
#    0.000    0.000    0.000    0.000    0.000    0.000 
#
# Total GULP energy -155971.994859 kJ/mol
# GULP energy per Si atom -5570.428388 kJ/mol
# Density = 2.321579 g / cm^3
# Si number density = 23.268754 Si / 1000 Ang^3
#
#
#
# Elastic Constant Matrix: (Units=GPa)
#
#
# Indices 1 2 3 4 5 6 
#
# 1 96.9484 20.4871 32.8553 0.0000 19.7674 0.0000
# 2 20.4871 62.9309 0.5488 0.0000 4.9309 0.0000
# 3 32.8553 0.5488 66.4123 0.0000 13.5452 0.0000
# 4 0.0000 0.0000 0.0000 17.6931 0.0000 -0.1832
# 5 19.7674 4.9309 13.5452 0.0000 40.7207 0.0000
# 6 0.0000 0.0000 0.0000 -0.1832 0.0000 10.6851
#
#
#
# Elastic Compliance Matrix: (Units=1/GPa)
#
#
# Indices 1 2 3 4 5 6 
#
# 1 0.014150 -0.004214 -0.006081 0.000000 -0.004336 0.000000
# 2 -0.004214 0.017302 0.002094 0.000000 -0.000746 0.000000
# 3 -0.006081 0.002094 0.018772 0.000000 -0.003546 0.000000
# 4 0.000000 0.000000 0.000000 0.056529 0.000000 0.000969
# 5 -0.004336 -0.000746 -0.003546 0.000000 0.027932 0.000000
# 6 0.000000 0.000000 0.000000 0.000969 0.000000 0.093605
#
#
# Mechanical properties :
#
#
# Convention : Reuss Voigt Hill
#
# Bulk Modulus (GPa) = 29.56644 37.11934 33.34289
# Shear Modulus (GPa) = 19.53379 25.31315 22.42347
#
# Velocity S-wave (km/s) = 2.90053 3.30185 3.10768
# Velocity P-wave (km/s) = 4.89403 5.52480 5.21895
#
# Compressibility (1/GPa) = 0.03382213
#
# Stress axis : x y z
#
# Youngs Moduli (GPa) = 70.67044 57.79535 53.27148
#
# Poissons Ratio (x) = 0.24354 0.32395
# Poissons Ratio (y) = 0.29779 -0.11154
# Poissons Ratio (z) = 0.42976 -0.12101
#
# Static dielectric constant tensor:
#      x y z
#    x 2.409560 0.000000 0.392060 
#    y 0.000000 1.826070 0.000000 
#    z 0.392060 0.000000 2.061750 
# 
# From -- ./inp_files/61993.got.cif
#   From: 2010.05.17/outbox.cif.g08.bks.cpg/sg15_31_cif.got.tgz:61993.got - 2010.06.03 18:47:42.
