data_PCOD9283310
_publ_section_title
;
Structure prediction by ZEFSAII (Michael W. Deem and Ramdas Pophale) SiO2 
 PCOD9283310
Probable space group: C 2/C
;
_chemical_formula_sum "Si O2"
_cell_formula_units_Z 40
_cell_length_a 8.956319
_cell_length_b 27.396434
_cell_length_c 8.407049
_cell_angle_alpha 90.000000
_cell_angle_beta 85.501329
_cell_angle_gamma 90.000000
_cell_volume 2056.492404
_symmetry_space_group_name_H-M "C 2/C"
_symmetry_group_IT_number 15
_symmetry_cell_setting 'monoclinic'
loop_
_space_group_symop_operation_xyz
x,y,z
-x,y,1/2-z
-x,-y,-z
x,-y,1/2+z
1/2+x,1/2+y,z
1/2-x,1/2+y,1/2-z
1/2-x,1/2-y,-z
1/2+x,1/2-y,1/2+z
loop_
_atom_site_type_symbol
_atom_site_label
_atom_site_fract_x
_atom_site_fract_y
_atom_site_fract_z
Si Si1 0.167806 0.054722 0.806980
Si Si2 0.671612 0.452813 0.683394
Si Si3 0.320028 0.248556 0.310737
Si Si4 0.328712 0.858124 0.814488
Si Si5 0.666435 0.152455 0.804295
O O1 0.254235 0.103959 0.762847
O O2 0.000000 0.059089 0.750000
O O3 0.238258 0.005019 0.730426
O O4 0.169080 0.049453 0.995088
O O5 0.500000 0.453705 0.750000
O O6 0.744355 0.405417 0.757213
O O7 0.500000 0.250425 0.250000
O O8 0.250000 0.250000 0.500000
O O9 0.271611 0.194627 0.255278
O O10 0.249823 0.297756 0.246298
O O11 0.500000 0.863228 0.750000
O O12 0.327994 0.853100 0.005110
O O13 0.500000 0.154732 0.750000
#
# Coordination Sequence:
#
# PCOD9283310 Si02
#       5
#     8   8   8   8   8
#     4  11  22  39  60  87 118 154 197 247 301 364
#     4  11  22  38  61  87 115 155 198 246 301 361
#     4   9  20  39  62  87 122 164 204 251 305 363
#     4  10  21  40  59  85 121 156 197 246 300 360
#     4  11  22  38  60  90 121 159 202 250 302 360
#
# _framework density 19.450593999999999
#
# number of rings (size 3 to 8) (size 9 to 14) (size 15 to 20)
#    0.000    1.600    0.000    6.600    0.000    3.200 
#    0.000   20.000    0.000    0.000    0.000    0.000 
#    0.000    0.000    0.000    0.000    0.000    0.000 
#
# Total GULP energy -111477.343152 kJ/mol
# GULP energy per Si atom -5573.867158 kJ/mol
# Density = 1.940632 g / cm^3
# Si number density = 19.450594 Si / 1000 Ang^3
#
#
#
# Elastic Constant Matrix: (Units=GPa)
#
#
# Indices 1 2 3 4 5 6 
#
# 1 78.5456 82.1802 25.7152 0.0000 1.7542 0.0000
# 2 82.1802 227.7007 41.3762 0.0000 9.4103 0.0000
# 3 25.7152 41.3762 105.7250 0.0000 3.4715 0.0000
# 4 0.0000 0.0000 0.0000 29.5034 0.0000 -5.2488
# 5 1.7542 9.4103 3.4715 0.0000 32.4335 0.0000
# 6 0.0000 0.0000 0.0000 -5.2488 0.0000 38.4540
#
#
#
# Elastic Compliance Matrix: (Units=1/GPa)
#
#
# Indices 1 2 3 4 5 6 
#
# 1 0.021010 -0.007209 -0.002328 0.000000 0.001205 0.000000
# 2 -0.007209 0.007247 -0.001030 0.000000 -0.001603 0.000000
# 3 -0.002328 -0.001030 0.010451 0.000000 -0.000694 0.000000
# 4 0.000000 0.000000 0.000000 0.034738 0.000000 0.004742
# 5 0.001205 -0.001603 -0.000694 0.000000 0.031306 0.000000
# 6 0.000000 0.000000 0.000000 0.004742 0.000000 0.026652
#
#
# Mechanical properties :
#
#
# Convention : Reuss Voigt Hill
#
# Bulk Modulus (GPa) = 56.90824 78.94606 67.92715
# Shear Modulus (GPa) = 31.56623 37.59150 34.57886
#
# Velocity S-wave (km/s) = 4.03288 4.40098 4.22095
# Velocity P-wave (km/s) = 7.14191 8.15481 7.66511
#
# Compressibility (1/GPa) = 0.01757215
#
# Stress axis : x y z
#
# Youngs Moduli (GPa) = 47.59675 137.98601 95.68737
#
# Poissons Ratio (x) = 0.99480 0.22279
# Poissons Ratio (y) = 0.34315 0.09856
# Poissons Ratio (z) = 0.11082 0.14213
#
# Static dielectric constant tensor:
#      x y z
#    x 1.656680 0.000000 -0.019270 
#    y 0.000000 1.714240 0.000000 
#    z -0.019270 0.000000 1.666290 
# 
# From -- ./inp_files/23409.got.cif
#   From: 2010.05.17/outbox.cif.g08.bks.cpg/sg15_12_cif.got.tgz:23409.got - 2010.06.03 18:47:42.
