data_PCOD9283102
_publ_section_title
;
Structure prediction by ZEFSAII (Michael W. Deem and Ramdas Pophale) SiO2 
 PCOD9283102
Probable space group: C 2/C
;
_chemical_formula_sum "Si O2"
_cell_formula_units_Z 44
_cell_length_a 8.234404
_cell_length_b 16.034942
_cell_length_c 17.681719
_cell_angle_alpha 90.000000
_cell_angle_beta 62.725843
_cell_angle_gamma 90.000000
_cell_volume 2075.103812
_symmetry_space_group_name_H-M "C 2/C"
_symmetry_group_IT_number 15
_symmetry_cell_setting 'monoclinic'
loop_
_space_group_symop_operation_xyz
x,y,z
-x,y,1/2-z
-x,-y,-z
x,-y,1/2+z
1/2+x,1/2+y,z
1/2-x,1/2+y,1/2-z
1/2-x,1/2-y,-z
1/2+x,1/2-y,1/2+z
loop_
_atom_site_type_symbol
_atom_site_label
_atom_site_fract_x
_atom_site_fract_y
_atom_site_fract_z
Si Si1 0.762791 0.077116 0.730592
Si Si2 0.500000 0.224081 0.750000
Si Si3 0.818441 0.960661 0.386236
Si Si4 0.204801 0.599565 0.196051
Si Si5 0.233169 0.858703 0.646493
Si Si6 0.170136 0.338383 0.542994
O O1 0.662940 0.163730 0.740423
O O2 0.722199 0.053245 0.826025
O O3 0.979090 0.076759 0.668949
O O4 0.697846 0.000836 0.691683
O O5 0.599429 0.280480 0.665238
O O6 0.723669 0.911488 0.473379
O O7 0.819734 0.061086 0.392424
O O8 0.296598 0.617720 0.257562
O O9 0.260005 0.639049 0.105066
O O10 0.000000 0.632181 0.250000
O O11 0.448034 0.837883 0.593029
O O12 0.250000 0.250000 0.500000
#
# Coordination Sequence:
#
# PCOD9283102 Si02
#       6
#     8   4   8   8   8   8
#     4  10  21  39  67  93 122 171 215 267 317 388
#     4  12  22  38  68  96 120 162 230 264 312 382
#     4  10  22  43  65  92 132 172 214 260 333 382
#     4   9  19  39  63  89 125 167 213 258 322 379
#     4  10  22  41  64  92 131 173 211 265 322 389
#     4  11  23  39  65 100 132 170 216 271 320 380
#
# _framework density 21.203759000000002
#
# number of rings (size 3 to 8) (size 9 to 14) (size 15 to 20)
#    0.000    1.818    0.909    3.818    2.545    0.727 
#    0.000    0.909    0.000    0.000    0.000    0.000 
#    0.000    0.000    0.000    0.000    0.000    0.000 
#
# Total GULP energy -122690.288877 kJ/mol
# GULP energy per Si atom -5576.831313 kJ/mol
# Density = 2.115550 g / cm^3
# Si number density = 21.203759 Si / 1000 Ang^3
#
#
#
# Elastic Constant Matrix: (Units=GPa)
#
#
# Indices 1 2 3 4 5 6 
#
# 1 66.5716 43.5090 27.6883 0.0000 -15.4681 0.0000
# 2 43.5090 152.7695 66.2335 0.0000 -6.2702 0.0000
# 3 27.6883 66.2335 111.5178 0.0000 -0.9833 0.0000
# 4 0.0000 0.0000 0.0000 23.9912 0.0000 -23.4417
# 5 -15.4681 -6.2702 -0.9833 0.0000 31.0701 0.0000
# 6 0.0000 0.0000 0.0000 -23.4417 0.0000 22.2521
#
#
#
# Elastic Compliance Matrix: (Units=1/GPa)
#
#
# Indices 1 2 3 4 5 6 
#
# 1 0.021281 -0.004597 -0.002469 0.000000 0.009589 0.000000
# 2 -0.004597 0.009890 -0.004737 0.000000 -0.000442 0.000000
# 3 -0.002469 -0.004737 0.012378 0.000000 -0.001793 0.000000
# 4 0.000000 0.000000 0.000000 -1.421013 0.000000 -1.496983
# 5 0.009589 -0.000442 -0.001793 0.000000 0.036813 0.000000
# 6 0.000000 0.000000 0.000000 -1.496983 0.000000 -1.532075
#
#
# Mechanical properties :
#
#
# Convention : Reuss Voigt Hill
#
# Bulk Modulus (GPa) = 50.14134 67.30228 58.72181
# Shear Modulus (GPa) = -1.75903 28.35789 13.29943
#
# Velocity S-wave (km/s) = -0.91180 3.66101 2.50715
# Velocity P-wave (km/s) = 4.75292 7.04843 6.01126
#
# Compressibility (1/GPa) = 0.01994362
#
# Stress axis : x y z
#
# Youngs Moduli (GPa) = 46.99131 101.10740 80.79042
#
# Poissons Ratio (x) = 0.46477 0.19947
# Poissons Ratio (y) = 0.21601 0.38269
# Poissons Ratio (z) = 0.11602 0.47893
#
# Static dielectric constant tensor:
#      x y z
#    x 1.842700 0.000000 -0.010760 
#    y 0.000000 1.828730 0.000000 
#    z -0.010760 0.000000 1.753420 
# 
# From -- ./inp_files/182385.got.cif
#   From: 2010.05.17/outbox.cif.g08.bks.cpg/sg15_92_cif.got.tgz:182385.got - 2010.06.03 18:47:42.
