data_PCOD9283782
_publ_section_title
;
Structure prediction by ZEFSAII (Michael W. Deem and Ramdas Pophale) SiO2 
 PCOD9283782
Probable space group: C 2/C
;
_chemical_formula_sum "Si O2"
_cell_formula_units_Z 44
_cell_length_a 14.317295
_cell_length_b 17.033817
_cell_length_c 8.197095
_cell_angle_alpha 90.000000
_cell_angle_beta 77.399858
_cell_angle_gamma 90.000000
_cell_volume 1950.946930
_symmetry_space_group_name_H-M "C 2/C"
_symmetry_group_IT_number 15
_symmetry_cell_setting 'monoclinic'
loop_
_space_group_symop_operation_xyz
x,y,z
-x,y,1/2-z
-x,-y,-z
x,-y,1/2+z
1/2+x,1/2+y,z
1/2-x,1/2+y,1/2-z
1/2-x,1/2-y,-z
1/2+x,1/2-y,1/2+z
loop_
_atom_site_type_symbol
_atom_site_label
_atom_site_fract_x
_atom_site_fract_y
_atom_site_fract_z
Si Si1 0.771591 0.273485 0.180643
Si Si2 0.631253 0.933208 0.422805
Si Si3 0.575384 0.356143 0.864537
Si Si4 0.396460 0.629038 0.630000
Si Si5 0.500000 0.957670 0.750000
Si Si6 0.164065 0.983076 0.048239
O O1 0.828944 0.354771 0.169829
O O2 0.844852 0.207480 0.211265
O O3 0.673430 0.297425 0.308024
O O4 0.750000 0.250000 0.000000
O O5 0.572384 0.987097 0.322672
O O6 0.723647 0.978271 0.457307
O O7 0.561736 0.910385 0.597372
O O8 0.500000 0.366903 0.750000
O O9 0.501655 0.339286 0.043218
O O10 0.634617 0.431353 0.901839
O O11 0.363137 0.571041 0.494218
O O12 0.385795 0.567720 0.786973
#
# Coordination Sequence:
#
# PCOD9283782 Si02
#       6
#     8   8   8   8   4   8
#     4  11  24  45  67  97 142 183 223 282 354 416
#     4  10  21  40  64  92 132 171 231 278 343 402
#     4  12  26  44  68 106 141 181 234 285 354 420
#     4  11  24  44  76 100 140 180 236 292 346 418
#     4  10  22  38  64  96 122 178 232 286 324 404
#     4  11  22  44  70 100 135 178 230 297 347 402
#
# _framework density 22.553152999999998
#
# number of rings (size 3 to 8) (size 9 to 14) (size 15 to 20)
#    0.000    1.091    3.636    4.364    1.273    2.182 
#    0.000    0.000    0.000    0.000    0.000    0.000 
#    0.000    0.000    0.000    0.000    0.000    0.000 
#
# Total GULP energy -122793.307981 kJ/mol
# GULP energy per Si atom -5581.513999 kJ/mol
# Density = 2.250182 g / cm^3
# Si number density = 22.553153 Si / 1000 Ang^3
#
#
#
# Elastic Constant Matrix: (Units=GPa)
#
#
# Indices 1 2 3 4 5 6 
#
# 1 146.4601 50.6045 32.6290 0.0000 8.4454 0.0000
# 2 50.6045 79.5042 5.3702 0.0000 -5.4338 0.0000
# 3 32.6290 5.3702 71.2769 0.0000 -2.5562 0.0000
# 4 0.0000 0.0000 0.0000 22.6558 0.0000 6.8829
# 5 8.4454 -5.4338 -2.5562 0.0000 54.9837 0.0000
# 6 0.0000 0.0000 0.0000 6.8829 0.0000 -9.9300
#
#
#
# Elastic Compliance Matrix: (Units=1/GPa)
#
#
# Indices 1 2 3 4 5 6 
#
# 1 0.010079 -0.006292 -0.004225 0.000000 -0.002366 0.000000
# 2 -0.006292 0.016650 0.001722 0.000000 0.002692 0.000000
# 3 -0.004225 0.001722 0.015890 0.000000 0.001558 0.000000
# 4 0.000000 0.000000 0.000000 0.036461 0.000000 0.025273
# 5 -0.002366 0.002692 0.001558 0.000000 0.018889 0.000000
# 6 0.000000 0.000000 0.000000 0.025273 0.000000 -0.083188
#
#
# Mechanical properties :
#
#
# Convention : Reuss Voigt Hill
#
# Bulk Modulus (GPa) = 39.95076 52.71649 46.33362
# Shear Modulus (GPa) = 122.80420 27.45106 75.12763
#
# Velocity S-wave (km/s) = 7.38710 3.49258 5.77786
# Velocity P-wave (km/s) = 9.51375 6.29994 8.06848
#
# Compressibility (1/GPa) = 0.02503081
#
# Stress axis : x y z
#
# Youngs Moduli (GPa) = 99.21128 60.05845 62.93262
#
# Poissons Ratio (x) = 0.37789 0.26589
# Poissons Ratio (y) = 0.62423 -0.10839
# Poissons Ratio (z) = 0.41917 -0.10344
#
# Static dielectric constant tensor:
#      x y z
#    x 1.847890 0.000000 -0.014830 
#    y 0.000000 1.764080 0.000000 
#    z -0.014830 0.000000 1.987470 
# 
# From -- ./inp_files/39147.got.cif
#   From: 2010.05.17/outbox.cif.g08.bks.cpg/sg15_20_cif.got.tgz:39147.got - 2010.06.03 18:47:42.
