data_PCOD9283875
_publ_section_title
;
Structure prediction by ZEFSAII (Michael W. Deem and Ramdas Pophale) SiO2 
 PCOD9283875
Probable space group: C 2/C
;
_chemical_formula_sum "Si O2"
_cell_formula_units_Z 32
_cell_length_a 17.005810
_cell_length_b 9.094950
_cell_length_c 23.958525
_cell_angle_alpha 90.000000
_cell_angle_beta 158.104859
_cell_angle_gamma 90.000000
_cell_volume 1381.849329
_symmetry_space_group_name_H-M "C 2/C"
_symmetry_group_IT_number 15
_symmetry_cell_setting 'monoclinic'
loop_
_space_group_symop_operation_xyz
x,y,z
-x,y,1/2-z
-x,-y,-z
x,-y,1/2+z
1/2+x,1/2+y,z
1/2-x,1/2+y,1/2-z
1/2-x,1/2-y,-z
1/2+x,1/2-y,1/2+z
loop_
_atom_site_type_symbol
_atom_site_label
_atom_site_fract_x
_atom_site_fract_y
_atom_site_fract_z
Si Si1 0.226989 0.441751 0.131194
Si Si2 0.911946 0.420898 0.067784
Si Si3 0.434461 0.404169 0.567191
Si Si4 0.685021 0.897225 0.824332
O O1 0.397487 0.506794 0.285873
O O2 0.237250 0.266912 0.134585
O O3 0.243083 0.507856 0.079499
O O4 0.000000 0.500000 0.000000
O O5 0.999240 0.265811 0.102689
O O6 0.090376 0.533602 0.205434
O O7 0.778348 0.393848 0.035774
O O8 0.361929 0.493937 0.465469
O O9 0.500000 0.885585 0.750000
#
# Coordination Sequence:
#
# PCOD9283875 Si02
#       4
#     8   8   8   8
#     4  12  25  38  56  88 126 164 199 241 299 361
#     4  10  21  40  65  90 117 154 203 255 301 350
#     4  10  21  40  65  90 117 154 203 255 301 350
#     4  10  21  40  67  92 117 156 206 255 300 353
#
# _framework density 23.157373
#
# number of rings (size 3 to 8) (size 9 to 14) (size 15 to 20)
#    0.000    1.500    0.000    5.250    0.000   12.000 
#    0.000    3.750    0.000    0.000    0.000    0.000 
#    0.000    0.000    0.000    0.000    0.000    0.000 
#
# Total GULP energy -89556.962551 kJ/mol
# GULP energy per Si atom -5597.310159 kJ/mol
# Density = 2.310467 g / cm^3
# Si number density = 23.157373 Si / 1000 Ang^3
#
#
#
# Elastic Constant Matrix: (Units=GPa)
#
#
# Indices 1 2 3 4 5 6 
#
# 1 61.3887 28.3922 11.0582 0.0034 -6.9537 -0.0060
# 2 28.3922 228.5704 77.3968 -0.0041 -14.1474 0.0082
# 3 11.0582 77.3968 129.2034 0.0168 -31.8908 0.0175
# 4 0.0034 -0.0041 0.0168 48.2413 0.0088 -4.7239
# 5 -6.9537 -14.1474 -31.8908 0.0088 29.7667 0.0068
# 6 -0.0060 0.0082 0.0175 -4.7239 0.0068 -2.2134
#
#
#
# Elastic Compliance Matrix: (Units=1/GPa)
#
#
# Indices 1 2 3 4 5 6 
#
# 1 0.017613 -0.002210 0.000779 -0.000005 0.003898 -0.000027
# 2 -0.002210 0.005800 -0.003714 0.000001 -0.001739 -0.000010
# 3 0.000779 -0.003714 0.012925 0.000004 0.012264 0.000115
# 4 -0.000005 0.000001 0.000004 0.017146 0.000007 -0.036593
# 5 0.003898 -0.001739 0.012264 0.000007 0.046818 0.000208
# 6 -0.000027 -0.000010 0.000115 -0.036593 0.000208 -0.373695
#
#
# Mechanical properties :
#
#
# Convention : Reuss Voigt Hill
#
# Bulk Modulus (GPa) = 38.39296 72.53965 55.46630
# Shear Modulus (GPa) = -19.65260 35.31326 7.83033
#
# Velocity S-wave (km/s) = -2.91633 3.90927 1.84084
# Velocity P-wave (km/s) = 2.29678 7.19508 5.34061
#
# Compressibility (1/GPa) = 0.02604644
#
# Stress axis : x y z
#
# Youngs Moduli (GPa) = 56.77565 172.42520 77.36881
#
# Poissons Ratio (x) = 0.38110 -0.06025
# Poissons Ratio (y) = 0.12549 0.28737
# Poissons Ratio (z) = -0.04422 0.64043
#
# Static dielectric constant tensor:
#      x y z
#    x 2.013570 0.000000 0.018600 
#    y 0.000000 1.816410 0.000000 
#    z 0.018600 0.000000 1.805070 
# 
# From -- ./inp_files/109477.got.cif
#   From: 2010.05.17/outbox.cif.g08.bks.cpg/sg15_55_cif.got.tgz:109477.got - 2010.06.03 18:47:42.
