data_PCOD9283488
_publ_section_title
;
Structure prediction by ZEFSAII (Michael W. Deem and Ramdas Pophale) SiO2 
 PCOD9283488
Probable space group: C 2/C
;
_chemical_formula_sum "Si O2"
_cell_formula_units_Z 60
_cell_length_a 15.750000
_cell_length_b 8.340115
_cell_length_c 23.889262
_cell_angle_alpha 90.000000
_cell_angle_beta 114.325990
_cell_angle_gamma 90.000000
_cell_volume 2859.413171
_symmetry_space_group_name_H-M "C 2/C"
_symmetry_group_IT_number 15
_symmetry_cell_setting 'monoclinic'
loop_
_space_group_symop_operation_xyz
x,y,z
-x,y,1/2-z
-x,-y,-z
x,-y,1/2+z
1/2+x,1/2+y,z
1/2-x,1/2+y,1/2-z
1/2-x,1/2-y,-z
1/2+x,1/2-y,1/2+z
loop_
_atom_site_type_symbol
_atom_site_label
_atom_site_fract_x
_atom_site_fract_y
_atom_site_fract_z
Si Si1 0.490113 0.561703 0.870946
Si Si2 0.253999 0.807251 0.937517
Si Si3 0.291082 0.853029 0.695966
Si Si4 0.334797 0.512601 0.742957
Si Si5 0.350832 0.529753 0.927140
Si Si6 0.423185 0.277698 0.673273
Si Si7 0.322601 0.620702 0.540107
Si Si8 0.500000 0.991456 0.750000
O O1 0.408488 0.601671 0.804763
O O2 0.442512 0.513651 0.915633
O O3 0.531364 0.401324 0.856086
O O4 0.580837 0.673314 0.903820
O O5 0.339319 0.723736 0.929934
O O6 0.170784 0.723873 0.881438
O O7 0.232239 0.994735 0.935043
O O8 0.250000 0.750000 0.000000
O O9 0.289203 0.659095 0.696350
O O10 0.239913 0.920801 0.738287
O O11 0.230271 0.934014 0.629468
O O12 0.400877 0.902029 0.724711
O O13 0.389753 0.383384 0.718666
O O14 0.353008 0.465478 0.990644
O O15 0.487885 0.123713 0.697827
O O16 0.250000 0.750000 0.500000
#
# Coordination Sequence:
#
# PCOD9283488 Si02
#       8
#     8   8   8   8   8   8   8   4
#     4  10  22  38  64  86 125 165 209 249 320 372
#     4   9  20  40  62  86 119 166 203 259 311 370
#     4  11  26  38  64  93 129 167 213 264 316 384
#     4  11  24  42  61  92 131 170 212 261 323 377
#     4  10  21  40  62  87 122 163 215 252 316 374
#     4  11  21  40  65  88 127 170 209 254 320 382
#     4  10  22  39  64  91 119 160 213 258 317 380
#     4  12  22  38  62  96 126 164 212 254 318 378
#
# _framework density 20.983326999999999
#
# number of rings (size 3 to 8) (size 9 to 14) (size 15 to 20)
#    0.000    1.600    2.667    1.200    9.333    0.000 
#    0.000    0.667    0.000    0.000    0.000    0.000 
#    0.000    0.000    0.000    0.000    0.000    0.000 
#
# Total GULP energy -167060.286549 kJ/mol
# GULP energy per Si atom -5568.676218 kJ/mol
# Density = 2.093557 g / cm^3
# Si number density = 20.983327 Si / 1000 Ang^3
#
#
#
# Elastic Constant Matrix: (Units=GPa)
#
#
# Indices 1 2 3 4 5 6 
#
# 1 111.8476 23.1811 29.4680 0.0000 -4.8404 0.0000
# 2 23.1811 50.0155 15.9486 0.0000 -1.2041 0.0000
# 3 29.4680 15.9486 74.5223 0.0000 2.8835 0.0000
# 4 0.0000 0.0000 0.0000 31.0061 0.0000 2.9795
# 5 -4.8404 -1.2041 2.8835 0.0000 37.5765 0.0000
# 6 0.0000 0.0000 0.0000 2.9795 0.0000 16.5851
#
#
#
# Elastic Compliance Matrix: (Units=1/GPa)
#
#
# Indices 1 2 3 4 5 6 
#
# 1 0.010715 -0.003820 -0.003478 0.000000 0.001525 0.000000
# 2 -0.003820 0.022861 -0.003401 0.000000 0.000501 0.000000
# 3 -0.003478 -0.003401 0.015590 0.000000 -0.001753 0.000000
# 4 0.000000 0.000000 0.000000 0.032818 0.000000 -0.005896
# 5 0.001525 0.000501 -0.001753 0.000000 0.026959 0.000000
# 6 0.000000 0.000000 0.000000 -0.005896 0.000000 0.061354
#
#
# Mechanical properties :
#
#
# Convention : Reuss Voigt Hill
#
# Bulk Modulus (GPa) = 36.01508 41.50896 38.76202
# Shear Modulus (GPa) = 24.88143 28.21940 26.55041
#
# Velocity S-wave (km/s) = 3.44724 3.67120 3.56098
# Velocity P-wave (km/s) = 5.74852 6.14777 5.95150
#
# Compressibility (1/GPa) = 0.02776614
#
# Stress axis : x y z
#
# Youngs Moduli (GPa) = 93.32771 43.74245 64.14374
#
# Poissons Ratio (x) = 0.16711 0.22312
# Poissons Ratio (y) = 0.35654 0.21817
# Poissons Ratio (z) = 0.32463 0.14878
#
# Static dielectric constant tensor:
#      x y z
#    x 1.749230 0.000000 0.049840 
#    y 0.000000 1.774930 0.000000 
#    z 0.049840 0.000000 1.837330 
# 
# From -- ./inp_files/273208.got.cif
#   From: 2010.05.17/outbox.cif.g08.bks.cpg/sg15_137_cif.got.tgz:273208.got - 2010.06.03 18:47:42.
