data_PCOD9283823
_publ_section_title
;
Structure prediction by ZEFSAII (Michael W. Deem and Ramdas Pophale) SiO2 
 PCOD9283823
Probable space group: C 2/C
;
_chemical_formula_sum "Si O2"
_cell_formula_units_Z 48
_cell_length_a 23.340576
_cell_length_b 10.248867
_cell_length_c 12.800706
_cell_angle_alpha 90.000000
_cell_angle_beta 48.385518
_cell_angle_gamma 90.000000
_cell_volume 2289.329038
_symmetry_space_group_name_H-M "C 2/C"
_symmetry_group_IT_number 15
_symmetry_cell_setting 'monoclinic'
loop_
_space_group_symop_operation_xyz
x,y,z
-x,y,1/2-z
-x,-y,-z
x,-y,1/2+z
1/2+x,1/2+y,z
1/2-x,1/2+y,1/2-z
1/2-x,1/2-y,-z
1/2+x,1/2-y,1/2+z
loop_
_atom_site_type_symbol
_atom_site_label
_atom_site_fract_x
_atom_site_fract_y
_atom_site_fract_z
Si Si1 0.433529 0.268477 0.251783
Si Si2 0.823234 0.406768 0.775738
Si Si3 0.855521 0.684876 0.791119
Si Si4 0.317200 0.237448 0.061521
Si Si5 0.145529 0.964591 0.011577
Si Si6 0.041245 0.138329 0.457705
O O1 0.500000 0.224475 0.250000
O O2 0.362202 0.175749 0.320442
O O3 0.402023 0.408107 0.332253
O O4 0.476295 0.274943 0.089880
O O5 0.863993 0.547661 0.721988
O O6 0.826431 0.332074 0.661249
O O7 0.734798 0.431262 0.911955
O O8 0.773420 0.742347 0.852827
O O9 0.921120 0.788648 0.684613
O O10 0.849517 0.660764 0.922217
O O11 0.356440 0.380851 0.007948
O O12 0.109136 0.886764 0.958766
O O13 0.000000 0.000000 0.500000
#
# Coordination Sequence:
#
# PCOD9283823 Si02
#       6
#     8   8   8   8   8   8
#     4  10  23  39  61  95 132 171 219 273 333 394
#     4  11  22  42  67  95 129 180 223 274 337 399
#     4  10  23  40  62  97 134 169 221 280 324 411
#     4  10  21  40  64  96 129 170 224 278 333 381
#     4  10  21  40  65  95 128 173 228 272 326 407
#     4  11  21  39  63  94 133 170 214 272 332 399
#
# _framework density 20.966842
#
# number of rings (size 3 to 8) (size 9 to 14) (size 15 to 20)
#    0.000    1.667    1.667    2.500    0.000    3.333 
#    9.000    4.167    0.000    0.000    0.000    0.000 
#    0.000    0.000    0.000    0.000    0.000    0.000 
#
# Total GULP energy -133953.153637 kJ/mol
# GULP energy per Si atom -5581.381402 kJ/mol
# Density = 2.091912 g / cm^3
# Si number density = 20.966842 Si / 1000 Ang^3
#
#
#
# Elastic Constant Matrix: (Units=GPa)
#
#
# Indices 1 2 3 4 5 6 
#
# 1 68.1203 30.1943 16.0693 0.0000 -2.6165 0.0000
# 2 30.1943 89.6037 34.9072 0.0000 2.8342 0.0000
# 3 16.0693 34.9072 80.9105 0.0000 11.3366 0.0000
# 4 0.0000 0.0000 0.0000 31.4375 0.0000 0.0368
# 5 -2.6165 2.8342 11.3366 0.0000 23.2717 0.0000
# 6 0.0000 0.0000 0.0000 0.0368 0.0000 35.6187
#
#
#
# Elastic Compliance Matrix: (Units=1/GPa)
#
#
# Indices 1 2 3 4 5 6 
#
# 1 0.017592 -0.005395 -0.001648 0.000000 0.003438 0.000000
# 2 -0.005395 0.015104 -0.005476 0.000000 0.000222 0.000000
# 3 -0.001648 -0.005476 0.016079 0.000000 -0.007351 0.000000
# 4 0.000000 0.000000 0.000000 0.031809 0.000000 -0.000033
# 5 0.003438 0.000222 -0.007351 0.000000 0.046911 0.000000
# 6 0.000000 0.000000 0.000000 -0.000033 0.000000 0.028075
#
#
# Mechanical properties :
#
#
# Convention : Reuss Voigt Hill
#
# Bulk Modulus (GPa) = 42.12706 44.55289 43.33997
# Shear Modulus (GPa) = 26.52213 28.56317 27.54265
#
# Velocity S-wave (km/s) = 3.56048 3.69494 3.62833
# Velocity P-wave (km/s) = 6.08593 6.28481 6.18617
#
# Compressibility (1/GPa) = 0.02373771
#
# Stress axis : x y z
#
# Youngs Moduli (GPa) = 56.84414 66.20544 62.19204
#
# Poissons Ratio (x) = 0.35716 0.10250
# Poissons Ratio (y) = 0.30666 0.34057
# Poissons Ratio (z) = 0.09368 0.36255
#
# Static dielectric constant tensor:
#      x y z
#    x 1.760340 0.000000 0.004900 
#    y 0.000000 1.776280 0.000000 
#    z 0.004900 0.000000 1.746650 
# 
# From -- ./inp_files/104158.got.cif
#   From: 2010.05.17/outbox.cif.g08.bks.cpg/sg15_53_cif.got.tgz:104158.got - 2010.06.03 18:47:42.
