data_PCOD9283245
_publ_section_title
;
Structure prediction by ZEFSAII (Michael W. Deem and Ramdas Pophale) SiO2 
 PCOD9283245
Probable space group: C 2/C
;
_chemical_formula_sum "Si O2"
_cell_formula_units_Z 44
_cell_length_a 9.607090
_cell_length_b 17.259695
_cell_length_c 13.481897
_cell_angle_alpha 90.000000
_cell_angle_beta 120.446282
_cell_angle_gamma 90.000000
_cell_volume 1927.240693
_symmetry_space_group_name_H-M "C 2/C"
_symmetry_group_IT_number 15
_symmetry_cell_setting 'monoclinic'
loop_
_space_group_symop_operation_xyz
x,y,z
-x,y,1/2-z
-x,-y,-z
x,-y,1/2+z
1/2+x,1/2+y,z
1/2-x,1/2+y,1/2-z
1/2-x,1/2-y,-z
1/2+x,1/2-y,1/2+z
loop_
_atom_site_type_symbol
_atom_site_label
_atom_site_fract_x
_atom_site_fract_y
_atom_site_fract_z
Si Si1 0.237695 0.837535 0.332025
Si Si2 0.294003 0.662386 0.316668
Si Si3 0.487457 0.334293 0.070274
Si Si4 0.708717 0.200100 0.081390
Si Si5 0.052754 0.438584 0.438585
Si Si6 0.000000 0.549542 0.250000
O O1 0.237613 0.744518 0.341102
O O2 0.163230 0.856527 0.412839
O O3 0.407571 0.877237 0.372976
O O4 0.130592 0.860479 0.196928
O O5 0.435679 0.635530 0.442437
O O6 0.328266 0.689656 0.217006
O O7 0.142690 0.603618 0.258865
O O8 0.550675 0.245366 0.070460
O O9 0.750000 0.250000 0.000000
O O10 0.689937 0.114545 0.031946
O O11 0.085217 0.490591 0.355994
O O12 0.000000 0.500000 0.500000
#
# Coordination Sequence:
#
# PCOD9283245 Si02
#       6
#     8   8   8   8   8   4
#     4  10  22  40  70 101 134 181 234 283 344 420
#     4  11  21  42  66 101 130 183 235 279 341 428
#     4  10  21  39  70  94 131 176 241 276 333 410
#     4  11  25  42  68 102 139 184 234 287 347 424
#     4  12  25  44  69 105 141 175 229 297 353 411
#     4  12  26  40  74 104 140 178 230 300 358 406
#
# _framework density 22.830568
#
# number of rings (size 3 to 8) (size 9 to 14) (size 15 to 20)
#    0.000    1.091    3.636    3.818    5.091    0.727 
#    0.000    0.909    8.000    0.000    0.000    0.000 
#    0.000    0.000    0.000    0.000    0.000    0.000 
#
# Total GULP energy -122510.890608 kJ/mol
# GULP energy per Si atom -5568.676846 kJ/mol
# Density = 2.277860 g / cm^3
# Si number density = 22.830568 Si / 1000 Ang^3
#
#
#
# Elastic Constant Matrix: (Units=GPa)
#
#
# Indices 1 2 3 4 5 6 
#
# 1 53.5371 6.6193 24.1572 0.0000 -6.9037 0.0000
# 2 6.6193 60.6699 -0.0619 0.0000 -18.0550 0.0000
# 3 24.1572 -0.0619 157.4380 0.0000 -35.0903 0.0000
# 4 0.0000 0.0000 0.0000 32.2682 0.0000 -15.3017
# 5 -6.9037 -18.0550 -35.0903 0.0000 26.9658 0.0000
# 6 0.0000 0.0000 0.0000 -15.3017 0.0000 24.1686
#
#
#
# Elastic Compliance Matrix: (Units=1/GPa)
#
#
# Indices 1 2 3 4 5 6 
#
# 1 0.020370 -0.002426 -0.003277 0.000000 -0.000673 0.000000
# 2 -0.002426 0.023216 0.005222 0.000000 0.021719 0.000000
# 3 -0.003277 0.005222 0.010492 0.000000 0.016311 0.000000
# 4 0.000000 0.000000 0.000000 0.044286 0.000000 0.028039
# 5 -0.000673 0.021719 0.016311 0.000000 0.072678 0.000000
# 6 0.000000 0.000000 0.000000 0.028039 0.000000 0.059128
#
#
# Mechanical properties :
#
#
# Convention : Reuss Voigt Hill
#
# Bulk Modulus (GPa) = 18.82637 37.00826 27.91732
# Shear Modulus (GPa) = 20.09345 32.74256 26.41801
#
# Velocity S-wave (km/s) = 2.96989 3.79113 3.40536
# Velocity P-wave (km/s) = 4.47485 5.95052 5.26465
#
# Compressibility (1/GPa) = 0.05311698
#
# Stress axis : x y z
#
# Youngs Moduli (GPa) = 49.09117 43.07372 95.31187
#
# Poissons Ratio (x) = 0.10450 0.31230
# Poissons Ratio (y) = 0.11910 -0.49773
# Poissons Ratio (z) = 0.16085 -0.22494
#
# Static dielectric constant tensor:
#      x y z
#    x 1.895740 0.000000 0.060320 
#    y 0.000000 1.829460 0.000000 
#    z 0.060320 0.000000 1.839470 
# 
# From -- ./inp_files/145847.got.cif
#   From: 2010.05.17/outbox.cif.g08.bks.cpg/sg15_73_cif.got.tgz:145847.got - 2010.06.03 18:47:42.
