data_PCOD9283506
_publ_section_title
;
Structure prediction by ZEFSAII (Michael W. Deem and Ramdas Pophale) SiO2 
 PCOD9283506
Probable space group: C 2/C
;
_chemical_formula_sum "Si O2"
_cell_formula_units_Z 40
_cell_length_a 20.891204
_cell_length_b 9.534846
_cell_length_c 15.399824
_cell_angle_alpha 90.000000
_cell_angle_beta 144.191958
_cell_angle_gamma 90.000000
_cell_volume 1794.741317
_symmetry_space_group_name_H-M "C 2/C"
_symmetry_group_IT_number 15
_symmetry_cell_setting 'monoclinic'
loop_
_space_group_symop_operation_xyz
x,y,z
-x,y,1/2-z
-x,-y,-z
x,-y,1/2+z
1/2+x,1/2+y,z
1/2-x,1/2+y,1/2-z
1/2-x,1/2-y,-z
1/2+x,1/2-y,1/2+z
loop_
_atom_site_type_symbol
_atom_site_label
_atom_site_fract_x
_atom_site_fract_y
_atom_site_fract_z
Si Si1 0.804870 0.294480 0.678072
Si Si2 0.338823 0.573137 0.856324
Si Si3 0.903879 0.550780 0.831438
Si Si4 0.123650 0.080935 0.883806
Si Si5 0.066229 0.868500 0.686844
O O1 0.837241 0.223148 0.803924
O O2 0.885791 0.422453 0.744905
O O3 0.814378 0.166998 0.622735
O O4 0.686173 0.365781 0.537968
O O5 0.213569 0.557276 0.748776
O O6 0.374070 0.451374 0.826830
O O7 0.438269 0.587690 0.034989
O O8 0.923703 0.702784 0.813229
O O9 0.000000 0.500000 0.000000
O O10 0.000000 0.131526 0.750000
O O11 0.115532 0.926279 0.831765
#
# Coordination Sequence:
#
# PCOD9283506 Si02
#       5
#     8   8   8   8   8
#     4  10  22  39  60  92 117 160 207 245 304 365
#     4  10  21  40  62  89 126 160 200 254 306 375
#     4  12  23  36  62  97 122 150 203 269 305 352
#     4  10  22  41  62  80 122 172 200 240 301 382
#     4  10  22  39  62  90 121 163 204 245 315 361
#
# _framework density 22.287334999999999
#
# number of rings (size 3 to 8) (size 9 to 14) (size 15 to 20)
#    0.000    1.600    2.000    2.400    2.800    0.800 
#    0.000    1.000    0.000    0.000    0.000    0.000 
#    0.000    0.000    0.000    0.000    0.000    0.000 
#
# Total GULP energy -111496.501784 kJ/mol
# GULP energy per Si atom -5574.825089 kJ/mol
# Density = 2.223661 g / cm^3
# Si number density = 22.287335 Si / 1000 Ang^3
#
#
#
# Elastic Constant Matrix: (Units=GPa)
#
#
# Indices 1 2 3 4 5 6 
#
# 1 34.6866 0.6467 -3.9197 0.0000 12.4977 0.0000
# 2 0.6467 157.8223 28.3950 0.0000 -0.6422 0.0000
# 3 -3.9197 28.3950 86.6588 0.0000 14.8847 0.0000
# 4 0.0000 0.0000 0.0000 17.4552 0.0000 15.0548
# 5 12.4977 -0.6422 14.8847 0.0000 35.5832 0.0000
# 6 0.0000 0.0000 0.0000 15.0548 0.0000 14.6553
#
#
#
# Elastic Compliance Matrix: (Units=1/GPa)
#
#
# Indices 1 2 3 4 5 6 
#
# 1 0.034316 -0.000961 0.004245 0.000000 -0.013846 0.000000
# 2 -0.000961 0.006802 -0.002533 0.000000 0.001520 0.000000
# 3 0.004245 -0.002533 0.013818 0.000000 -0.007317 0.000000
# 4 0.000000 0.000000 0.000000 0.502492 0.000000 -0.516188
# 5 -0.013846 0.001520 -0.007317 0.000000 0.036054 0.000000
# 6 0.000000 0.000000 0.000000 -0.516188 0.000000 0.598493
#
#
# Mechanical properties :
#
#
# Convention : Reuss Voigt Hill
#
# Bulk Modulus (GPa) = 17.71843 36.60130 27.15986
# Shear Modulus (GPa) = 4.13467 30.47512 17.30490
#
# Velocity S-wave (km/s) = 1.36352 3.70181 2.78950
# Velocity P-wave (km/s) = 3.23206 5.89316 4.75266
#
# Compressibility (1/GPa) = 0.05643841
#
# Stress axis : x y z
#
# Youngs Moduli (GPa) = 29.14113 147.01222 72.36727
#
# Poissons Ratio (x) = 0.14124 -0.30721
# Poissons Ratio (y) = 0.02800 0.18333
# Poissons Ratio (z) = -0.12371 0.37243
#
# Static dielectric constant tensor:
#      x y z
#    x 1.904060 0.000000 -0.039640 
#    y 0.000000 1.870360 0.000000 
#    z -0.039640 0.000000 1.869410 
# 
# From -- ./inp_files/102842.got.cif
#   From: 2010.05.17/outbox.cif.g08.bks.cpg/sg15_52_cif.got.tgz:102842.got - 2010.06.03 18:47:42.
