data_PCOD9283659
_publ_section_title
;
Structure prediction by ZEFSAII (Michael W. Deem and Ramdas Pophale) SiO2 
 PCOD9283659
Probable space group: C 2/C
;
_chemical_formula_sum "Si O2"
_cell_formula_units_Z 48
_cell_length_a 21.678442
_cell_length_b 11.051812
_cell_length_c 11.577702
_cell_angle_alpha 90.000000
_cell_angle_beta 56.539369
_cell_angle_gamma 90.000000
_cell_volume 2314.130677
_symmetry_space_group_name_H-M "C 2/C"
_symmetry_group_IT_number 15
_symmetry_cell_setting 'monoclinic'
loop_
_space_group_symop_operation_xyz
x,y,z
-x,y,1/2-z
-x,-y,-z
x,-y,1/2+z
1/2+x,1/2+y,z
1/2-x,1/2+y,1/2-z
1/2-x,1/2-y,-z
1/2+x,1/2-y,1/2+z
loop_
_atom_site_type_symbol
_atom_site_label
_atom_site_fract_x
_atom_site_fract_y
_atom_site_fract_z
Si Si1 0.792934 0.412183 0.052227
Si Si2 0.050272 0.817052 0.479261
Si Si3 0.362337 0.693568 0.841018
Si Si4 0.149473 0.317080 0.035082
Si Si5 0.900307 0.089431 0.040503
Si Si6 0.298812 0.241632 0.768340
O O1 0.704996 0.396077 0.123909
O O2 0.826909 0.543180 0.996961
O O3 0.809704 0.363817 0.163636
O O4 0.828041 0.317253 0.925631
O O5 0.086026 0.780468 0.320344
O O6 0.073667 0.721692 0.552364
O O7 0.964399 0.844045 0.547200
O O8 0.086220 0.947439 0.470529
O O9 0.404015 0.632663 0.904924
O O10 0.213973 0.249398 0.895505
O O11 0.156052 0.276277 0.160613
O O12 0.824095 0.137093 0.174822
#
# Coordination Sequence:
#
# PCOD9283659 Si02
#       6
#     8   8   8   8   8   8
#     4  10  22  38  65  93 126 160 209 261 309 372
#     4  11  23  40  65  93 122 167 209 258 319 375
#     4  10  21  40  63  93 123 166 205 259 313 372
#     4  11  24  37  65  94 124 165 208 260 314 374
#     4  10  24  41  63  91 127 161 209 264 312 378
#     4  10  23  40  59  92 124 158 207 257 315 370
#
# _framework density 20.74213
#
# number of rings (size 3 to 8) (size 9 to 14) (size 15 to 20)
#    0.000    1.667    1.667    1.500    9.333    0.667 
#    0.000    3.333    7.333    0.000    0.000    0.000 
#    0.000    0.000    0.000    0.000    0.000    0.000 
#
# Total GULP energy -134153.465675 kJ/mol
# GULP energy per Si atom -5589.727736 kJ/mol
# Density = 2.069492 g / cm^3
# Si number density = 20.742130 Si / 1000 Ang^3
#
#
#
# Elastic Constant Matrix: (Units=GPa)
#
#
# Indices 1 2 3 4 5 6 
#
# 1 74.6251 21.0356 -0.8843 0.0000 11.7624 0.0000
# 2 21.0356 55.7718 22.0021 0.0000 9.0513 0.0000
# 3 -0.8843 22.0021 36.4680 0.0000 7.5358 0.0000
# 4 0.0000 0.0000 0.0000 8.0482 0.0000 -0.8608
# 5 11.7624 9.0513 7.5358 0.0000 25.9767 0.0000
# 6 0.0000 0.0000 0.0000 -0.8608 0.0000 22.7216
#
#
#
# Elastic Compliance Matrix: (Units=1/GPa)
#
#
# Indices 1 2 3 4 5 6 
#
# 1 0.016734 -0.007777 0.006493 0.000000 -0.006751 0.000000
# 2 -0.007777 0.027615 -0.016583 0.000000 -0.001290 0.000000
# 3 0.006493 -0.016583 0.039356 0.000000 -0.008579 0.000000
# 4 0.000000 0.000000 0.000000 0.124757 0.000000 0.004726
# 5 -0.006751 -0.001290 -0.008579 0.000000 0.044491 0.000000
# 6 0.000000 0.000000 0.000000 0.004726 0.000000 0.044190
#
#
# Mechanical properties :
#
#
# Convention : Reuss Voigt Hill
#
# Bulk Modulus (GPa) = 20.84613 27.90797 24.37705
# Shear Modulus (GPa) = 14.33208 19.66339 16.99773
#
# Velocity S-wave (km/s) = 2.63147 3.08229 2.86576
# Velocity P-wave (km/s) = 4.39373 5.11383 4.76739
#
# Compressibility (1/GPa) = 0.04797053
#
# Stress axis : x y z
#
# Youngs Moduli (GPa) = 59.75992 36.21226 25.40883
#
# Poissons Ratio (x) = 0.28164 -0.16498
# Poissons Ratio (y) = 0.46478 0.42135
# Poissons Ratio (z) = -0.38802 0.60050
#
# Static dielectric constant tensor:
#      x y z
#    x 1.755890 0.000000 -0.005520 
#    y 0.000000 1.719240 0.000000 
#    z -0.005520 0.000000 1.714650 
# 
# From -- ./inp_files/110862.got.cif
#   From: 2010.05.17/outbox.cif.g08.bks.cpg/sg15_56_cif.got.tgz:110862.got - 2010.06.03 18:47:42.
