data_PCOD9283106
_publ_section_title
;
Structure prediction by ZEFSAII (Michael W. Deem and Ramdas Pophale) SiO2 
 PCOD9283106
Probable space group: C 2/C
;
_chemical_formula_sum "Si O2"
_cell_formula_units_Z 64
_cell_length_a 30.759430
_cell_length_b 20.287977
_cell_length_c 14.760640
_cell_angle_alpha 90.000000
_cell_angle_beta 21.042112
_cell_angle_gamma 90.000000
_cell_volume 3307.364179
_symmetry_space_group_name_H-M "C 2/C"
_symmetry_group_IT_number 15
_symmetry_cell_setting 'monoclinic'
loop_
_space_group_symop_operation_xyz
x,y,z
-x,y,1/2-z
-x,-y,-z
x,-y,1/2+z
1/2+x,1/2+y,z
1/2-x,1/2+y,1/2-z
1/2-x,1/2-y,-z
1/2+x,1/2-y,1/2+z
loop_
_atom_site_type_symbol
_atom_site_label
_atom_site_fract_x
_atom_site_fract_y
_atom_site_fract_z
Si Si1 0.969344 0.108952 0.207540
Si Si2 0.143741 0.510467 0.452652
Si Si3 0.227320 0.542244 0.599486
Si Si4 0.113089 0.676523 0.797281
Si Si5 0.227948 0.067461 0.637724
Si Si6 0.863410 0.341506 0.556049
Si Si7 0.318158 0.262573 0.008140
Si Si8 0.659110 0.188579 0.187127
O O1 0.000000 0.086700 0.250000
O O2 0.853576 0.074169 0.387822
O O3 0.929322 0.185772 0.291659
O O4 0.090350 0.091841 0.917935
O O5 0.168986 0.491823 0.300084
O O6 0.215194 0.461050 0.379962
O O7 0.183082 0.587075 0.386277
O O8 0.000000 0.506414 0.750000
O O9 0.133722 0.598439 0.748195
O O10 0.257754 0.491266 0.461816
O O11 0.198732 0.697855 0.713150
O O12 0.160150 0.710200 0.613974
O O13 0.978654 0.702311 0.073150
O O14 0.297648 0.129494 0.460839
O O15 0.801642 0.278025 0.631561
O O16 0.852485 0.335113 0.685407
O O17 0.000000 0.337525 0.250000
O O18 0.750000 0.250000 0.000000
#
# Coordination Sequence:
#
# PCOD9283106 Si02
#       8
#     8   8   8   8   8   8   8   8
#     4  11  23  41  68  95 127 177 220 266 328 401
#     4  11  24  41  65  99 130 172 224 270 332 390
#     4  11  23  43  67  98 131 171 220 272 331 397
#     4  10  22  40  64  96 128 169 218 269 328 390
#     4  12  25  42  68  94 138 171 216 280 333 392
#     4  11  22  41  68  94 129 173 223 269 320 406
#     4  10  21  39  67  93 126 171 222 261 323 397
#     4  12  26  41  64  99 136 171 221 277 338 389
#
# _framework density 19.350757000000002
#
# number of rings (size 3 to 8) (size 9 to 14) (size 15 to 20)
#    0.000    1.000    3.750    3.000    3.500    1.000 
#    0.000    3.125    2.750    0.000    0.000    0.000 
#    0.000    0.000    0.000    0.000    0.000    0.000 
#
# Total GULP energy -178749.075223 kJ/mol
# GULP energy per Si atom -5585.908601 kJ/mol
# Density = 1.930671 g / cm^3
# Si number density = 19.350757 Si / 1000 Ang^3
#
#
#
# Elastic Constant Matrix: (Units=GPa)
#
#
# Indices 1 2 3 4 5 6 
#
# 1 52.9230 19.4633 29.7883 0.0000 1.7460 0.0000
# 2 19.4633 101.2842 29.0357 0.0001 -4.1015 0.0000
# 3 29.7883 29.0357 101.1257 0.0004 0.3752 0.0000
# 4 0.0000 0.0001 0.0004 0.5383 -0.0001 1.0733
# 5 1.7460 -4.1015 0.3752 -0.0001 30.9861 0.0001
# 6 0.0000 0.0000 0.0000 1.0733 0.0001 37.1033
#
#
#
# Elastic Compliance Matrix: (Units=1/GPa)
#
#
# Indices 1 2 3 4 5 6 
#
# 1 0.023408 -0.002821 -0.006079 0.000003 -0.001619 0.000000
# 2 -0.002821 0.011165 -0.002381 -0.000001 0.001666 0.000000
# 3 -0.006079 -0.002381 0.012364 -0.000008 -0.000122 0.000000
# 4 0.000003 -0.000001 -0.000008 1.971605 0.000006 -0.057035
# 5 -0.001619 0.001666 -0.000122 0.000006 0.032586 0.000000
# 6 0.000000 0.000000 0.000000 -0.057035 0.000000 0.028602
#
#
# Mechanical properties :
#
#
# Convention : Reuss Voigt Hill
#
# Bulk Modulus (GPa) = 41.02680 45.76751 43.39715
# Shear Modulus (GPa) = 2.36920 25.52857 13.94889
#
# Velocity S-wave (km/s) = 1.10770 3.63609 2.68777
# Velocity P-wave (km/s) = 4.78369 6.42893 5.66634
#
# Compressibility (1/GPa) = 0.02437431
#
# Stress axis : x y z
#
# Youngs Moduli (GPa) = 42.72042 89.56279 80.88293
#
# Poissons Ratio (x) = 0.25266 0.49171
# Poissons Ratio (y) = 0.12051 0.19259
# Poissons Ratio (z) = 0.25971 0.21325
#
# Static dielectric constant tensor:
#      x y z
#    x 1.682840 0.000000 -0.016520 
#    y 0.000000 1.690400 0.000000 
#    z -0.016520 0.000000 1.669520 
# 
# From -- ./inp_files/183113.got.cif
#   From: 2010.05.17/outbox.cif.g08.bks.cpg/sg15_92_cif.got.tgz:183113.got - 2010.06.03 18:47:42.
