data_PCOD9283424
_publ_section_title
;
Structure prediction by ZEFSAII (Michael W. Deem and Ramdas Pophale) SiO2 
 PCOD9283424
Probable space group: C 2/C
;
_chemical_formula_sum "Si O2"
_cell_formula_units_Z 56
_cell_length_a 11.528503
_cell_length_b 30.618427
_cell_length_c 14.347981
_cell_angle_alpha 90.000000
_cell_angle_beta 28.793827
_cell_angle_gamma 90.000000
_cell_volume 2439.419540
_symmetry_space_group_name_H-M "C 2/C"
_symmetry_group_IT_number 15
_symmetry_cell_setting 'monoclinic'
loop_
_space_group_symop_operation_xyz
x,y,z
-x,y,1/2-z
-x,-y,-z
x,-y,1/2+z
1/2+x,1/2+y,z
1/2-x,1/2+y,1/2-z
1/2-x,1/2-y,-z
1/2+x,1/2-y,1/2+z
loop_
_atom_site_type_symbol
_atom_site_label
_atom_site_fract_x
_atom_site_fract_y
_atom_site_fract_z
Si Si1 0.673218 0.785576 0.917086
Si Si2 0.511505 0.607013 0.022891
Si Si3 0.181373 0.557866 0.841972
Si Si4 0.047505 0.390127 0.613524
Si Si5 0.196660 0.189982 0.980797
Si Si6 0.835571 0.035060 0.283948
Si Si7 0.372340 0.796317 0.939484
O O1 0.634029 0.807406 0.046708
O O2 0.492948 0.788634 0.956613
O O3 0.922688 0.805996 0.709311
O O4 0.717874 0.734632 0.907616
O O5 0.628407 0.586874 0.847726
O O6 0.231967 0.623199 0.213513
O O7 0.688072 0.645210 0.931809
O O8 0.485324 0.568535 0.116306
O O9 0.253340 0.507225 0.784598
O O10 0.151895 0.574832 0.968685
O O11 0.901103 0.559164 0.008022
O O12 0.000000 0.408275 0.750000
O O13 0.214098 0.346761 0.489501
O O14 0.000000 0.018097 0.250000
O O15 0.500000 0.803325 0.750000
O O16 0.250000 0.750000 0.000000
#
# Coordination Sequence:
#
# PCOD9283424 Si02
#       7
#     8   8   8   8   8   8   8
#     4  10  21  40  61  90 131 178 225 289 355 412
#     4  11  23  43  72 101 138 181 243 303 356 432
#     4  10  24  46  71 105 140 185 239 289 372 443
#     4  10  24  43  65 102 138 183 241 299 360 434
#     4  10  22  39  66  93 131 178 232 290 358 415
#     4  10  24  45  68 105 145 182 228 302 362 430
#     4  11  23  40  61  91 136 182 234 297 351 420
#
# _framework density 22.95628
#
# number of rings (size 3 to 8) (size 9 to 14) (size 15 to 20)
#    0.000    1.714    1.429    1.286    6.000    2.857 
#    0.000    2.857    0.000    0.000    0.000    0.000 
#    0.000    0.000    0.000    0.000    0.000    0.000 
#
# Total GULP energy -155987.757506 kJ/mol
# GULP energy per Si atom -5570.991339 kJ/mol
# Density = 2.290403 g / cm^3
# Si number density = 22.956280 Si / 1000 Ang^3
#
#
#
# Elastic Constant Matrix: (Units=GPa)
#
#
# Indices 1 2 3 4 5 6 
#
# 1 83.5824 10.2938 -6.6449 0.0000 5.1131 0.0001
# 2 10.2938 107.2952 27.9691 0.0000 5.9262 0.0000
# 3 -6.6449 27.9691 56.9244 0.0000 1.9075 0.0001
# 4 0.0000 0.0000 0.0000 26.9301 0.0000 3.5280
# 5 5.1131 5.9262 1.9075 0.0000 10.6471 0.0000
# 6 0.0001 0.0000 0.0001 3.5280 0.0000 34.6745
#
#
#
# Elastic Compliance Matrix: (Units=1/GPa)
#
#
# Indices 1 2 3 4 5 6 
#
# 1 0.012694 -0.001537 0.002427 0.000000 -0.005675 0.000000
# 2 -0.001537 0.011151 -0.005508 0.000000 -0.004482 0.000000
# 3 0.002427 -0.005508 0.020617 0.000000 -0.001793 0.000000
# 4 0.000000 0.000000 0.000000 0.037635 0.000000 -0.003829
# 5 -0.005675 -0.004482 -0.001793 0.000000 0.099463 0.000000
# 6 0.000000 0.000000 0.000000 -0.003829 0.000000 0.029229
#
#
# Mechanical properties :
#
#
# Convention : Reuss Voigt Hill
#
# Bulk Modulus (GPa) = 28.38852 34.55977 31.47414
# Shear Modulus (GPa) = 21.57342 28.86262 25.21802
#
# Velocity S-wave (km/s) = 3.06888 3.54967 3.31799
# Velocity P-wave (km/s) = 4.99505 5.64690 5.33095
#
# Compressibility (1/GPa) = 0.03522551
#
# Stress axis : x y z
#
# Youngs Moduli (GPa) = 78.77933 89.67894 48.50383
#
# Poissons Ratio (x) = 0.13784 -0.11773
# Poissons Ratio (y) = 0.12109 0.26716
# Poissons Ratio (z) = -0.19121 0.49396
#
# Static dielectric constant tensor:
#      x y z
#    x 1.917360 0.000000 -0.028060 
#    y 0.000000 1.894500 0.000000 
#    z -0.028060 0.000000 1.926300 
# 
# From -- ./inp_files/149283.got.cif
#   From: 2010.05.17/outbox.cif.g08.bks.cpg/sg15_75_cif.got.tgz:149283.got - 2010.06.03 18:47:42.
