data_PCOD9283201
_publ_section_title
;
Structure prediction by ZEFSAII (Michael W. Deem and Ramdas Pophale) SiO2 
 PCOD9283201
Probable space group: C 2/C
;
_chemical_formula_sum "Si O2"
_cell_formula_units_Z 44
_cell_length_a 14.326605
_cell_length_b 17.886063
_cell_length_c 8.062549
_cell_angle_alpha 90.000000
_cell_angle_beta 106.099646
_cell_angle_gamma 90.000000
_cell_volume 1984.973698
_symmetry_space_group_name_H-M "C 2/C"
_symmetry_group_IT_number 15
_symmetry_cell_setting 'monoclinic'
loop_
_space_group_symop_operation_xyz
x,y,z
-x,y,1/2-z
-x,-y,-z
x,-y,1/2+z
1/2+x,1/2+y,z
1/2-x,1/2+y,1/2-z
1/2-x,1/2-y,-z
1/2+x,1/2-y,1/2+z
loop_
_atom_site_type_symbol
_atom_site_label
_atom_site_fract_x
_atom_site_fract_y
_atom_site_fract_z
Si Si1 0.599849 0.424386 0.213118
Si Si2 0.006596 0.685791 0.444306
Si Si3 0.000000 0.213984 0.250000
Si Si4 0.641557 0.591028 0.354617
Si Si5 0.193794 0.599069 0.555243
Si Si6 0.843813 0.563817 0.343354
O O1 0.500000 0.401669 0.250000
O O2 0.615932 0.512985 0.253892
O O3 0.696782 0.386445 0.333449
O O4 0.598870 0.412387 0.017570
O O5 0.971041 0.738244 0.574681
O O6 0.117665 0.665207 0.539978
O O7 0.000000 0.713700 0.250000
O O8 0.942614 0.609475 0.415340
O O9 0.910299 0.160605 0.255452
O O10 0.757874 0.595018 0.417478
O O11 0.192557 0.578696 0.360665
O O12 0.152829 0.524744 0.626015
#
# Coordination Sequence:
#
# PCOD9283201 Si02
#       6
#     8   8   4   8   8   8
#     4  11  22  39  68  99 131 161 220 283 329 378
#     4  10  25  47  63  96 136 180 222 264 328 400
#     4  12  28  42  68  90 144 182 220 256 334 406
#     4  11  24  41  66 102 126 173 220 272 335 389
#     4  10  21  39  69 102 127 167 218 283 332 375
#     4  10  21  40  69  98 130 166 223 278 330 377
#
# _framework density 22.166540000000001
#
# number of rings (size 3 to 8) (size 9 to 14) (size 15 to 20)
#    0.000    1.455    0.909    5.455    7.636    1.455 
#    0.000    1.818    0.000    0.000    0.000    0.000 
#    0.000    0.000    0.000    0.000    0.000    0.000 
#
# Total GULP energy -123079.701769 kJ/mol
# GULP energy per Si atom -5594.531899 kJ/mol
# Density = 2.211609 g / cm^3
# Si number density = 22.166540 Si / 1000 Ang^3
#
#
#
# Elastic Constant Matrix: (Units=GPa)
#
#
# Indices 1 2 3 4 5 6 
#
# 1 85.8415 16.2854 17.6438 0.0000 12.0258 0.0000
# 2 16.2854 30.2178 17.4301 0.0000 12.1333 0.0000
# 3 17.6438 17.4301 65.8700 0.0000 4.1080 0.0000
# 4 0.0000 0.0000 0.0000********** 0.000036802.6801
# 5 12.0258 12.1333 4.1080 0.0000 42.0060 0.0000
# 6 0.0000 0.0000 0.000036802.6801 0.0000 1689.7390
#
#
#
# Elastic Compliance Matrix: (Units=1/GPa)
#
#
# Indices 1 2 3 4 5 6 
#
# 1 0.013351 -0.005136 -0.002084 0.000000 -0.002135 0.000000
# 2 -0.005136 0.046062 -0.010137 0.000000 -0.010843 0.000000
# 3 -0.002084 -0.010137 0.018314 0.000000 0.001734 0.000000
# 4 0.000000 0.000000 0.000000 0.000102 0.000000 -0.002232
# 5 -0.002135 -0.010843 0.001734 0.000000 0.027380 0.000000
# 6 0.000000 0.000000 0.000000 -0.002232 0.000000 0.049205
#
#
# Mechanical properties :
#
#
# Convention : Reuss Voigt Hill
#
# Bulk Modulus (GPa) = 23.24854 31.62755 27.43805
# Shear Modulus (GPa) = 24.57422 162619.87240 81322.22331
#
# Velocity S-wave (km/s) = 3.33320 271.14946 191.74611
# Velocity P-wave (km/s) = 5.03235 313.11926 221.43735
#
# Compressibility (1/GPa) = 0.04301345
#
# Stress axis : x y z
#
# Youngs Moduli (GPa) = 74.89957 21.70993 54.60360
#
# Poissons Ratio (x) = 0.11150 0.11379
# Poissons Ratio (y) = 0.38469 0.55349
# Poissons Ratio (z) = 0.15609 0.22006
#
# Static dielectric constant tensor:
#      x y z
#    x 1.839550 0.000000 -0.009160 
#    y 0.000000 1.803470 0.000000 
#    z -0.009160 0.000000 1.800520 
# 
# From -- ./inp_files/39342.got.cif
#   From: 2010.05.17/outbox.cif.g08.bks.cpg/sg15_20_cif.got.tgz:39342.got - 2010.06.03 18:47:42.
