data_PCOD9283276
_publ_section_title
;
Structure prediction by ZEFSAII (Michael W. Deem and Ramdas Pophale) SiO2 
 PCOD9283276
Probable space group: C 2/C
;
_chemical_formula_sum "Si O2"
_cell_formula_units_Z 40
_cell_length_a 5.671494
_cell_length_b 14.680200
_cell_length_c 19.689800
_cell_angle_alpha 90.000000
_cell_angle_beta 78.117669
_cell_angle_gamma 90.000000
_cell_volume 1604.219436
_symmetry_space_group_name_H-M "C 2/C"
_symmetry_group_IT_number 15
_symmetry_cell_setting 'monoclinic'
loop_
_space_group_symop_operation_xyz
x,y,z
-x,y,1/2-z
-x,-y,-z
x,-y,1/2+z
1/2+x,1/2+y,z
1/2-x,1/2+y,1/2-z
1/2-x,1/2-y,-z
1/2+x,1/2-y,1/2+z
loop_
_atom_site_type_symbol
_atom_site_label
_atom_site_fract_x
_atom_site_fract_y
_atom_site_fract_z
Si Si1 0.898487 0.691869 0.544968
Si Si2 0.729661 0.788251 0.766734
Si Si3 0.717518 0.332969 0.590545
Si Si4 0.769679 0.001416 0.216212
Si Si5 0.956463 0.025947 0.923392
O O1 0.750000 0.750000 0.500000
O O2 0.730794 0.607668 0.573158
O O3 0.131850 0.662202 0.487807
O O4 0.998164 0.762846 0.593567
O O5 0.500000 0.737511 0.750000
O O6 0.651531 0.802477 0.849632
O O7 0.000000 0.749171 0.750000
O O8 0.756551 0.887278 0.727422
O O9 0.644419 0.435943 0.606195
O O10 0.500000 0.970622 0.250000
O O11 0.000000 0.974600 0.250000
O O12 0.810373 0.962067 0.137364
O O13 0.000000 0.000000 0.000000
#
# Coordination Sequence:
#
# PCOD9283276 Si02
#       5
#     8   8   8   8   8
#     4  11  26  43  69 110 157 192 264 326 396 487
#     4  10  21  39  74 105 136 192 264 309 384 481
#     4  11  24  46  71 109 147 206 257 334 399 481
#     4  10  22  41  70 111 141 189 268 317 379 487
#     4  12  24  43  78 113 147 213 258 333 406 479
#
# _framework density 24.934245000000001
#
# number of rings (size 3 to 8) (size 9 to 14) (size 15 to 20)
#    0.000    1.200    6.000    0.600    8.400    1.600 
#    0.000    0.000    4.400    1.200    0.000    0.000 
#    0.000    0.000    0.000    0.000    0.000    0.000 
#
# Total GULP energy -111767.498896 kJ/mol
# GULP energy per Si atom -5588.374945 kJ/mol
# Density = 2.487749 g / cm^3
# Si number density = 24.934245 Si / 1000 Ang^3
#
#
#
# Elastic Constant Matrix: (Units=GPa)
#
#
# Indices 1 2 3 4 5 6 
#
# 1 170.6861 48.5513 45.0746 0.0000 -12.0204 0.0000
# 2 48.5513 138.1804 29.9276 0.0000 -9.9600 0.0000
# 3 45.0746 29.9276 134.4861 0.0000 -7.5970 0.0000
# 4 0.0000 0.0000 0.0000 -1.1367 0.0000 -1.3193
# 5 -12.0204 -9.9600 -7.5970 0.0000 54.0982 0.0000
# 6 0.0000 0.0000 0.0000 -1.3193 0.0000 9.2604
#
#
#
# Elastic Compliance Matrix: (Units=1/GPa)
#
#
# Indices 1 2 3 4 5 6 
#
# 1 0.006975 -0.001985 -0.001844 0.000000 0.000926 0.000000
# 2 -0.001985 0.008243 -0.001117 0.000000 0.000920 0.000000
# 3 -0.001844 -0.001117 0.008334 0.000000 0.000555 0.000000
# 4 0.000000 0.000000 0.000000 -0.754888 0.000000 -0.107549
# 5 0.000926 0.000920 0.000555 0.000000 0.018938 0.000000
# 6 0.000000 0.000000 0.000000 -0.107549 0.000000 0.092664
#
#
# Mechanical properties :
#
#
# Convention : Reuss Voigt Hill
#
# Bulk Modulus (GPa) = 73.20636 76.71773 74.96205
# Shear Modulus (GPa) = -8.26051 33.76432 12.75191
#
# Velocity S-wave (km/s) = -1.82212 3.68385 2.26392
# Velocity P-wave (km/s) = 4.99967 6.99494 6.07971
#
# Compressibility (1/GPa) = 0.01366001
#
# Stress axis : x y z
#
# Youngs Moduli (GPa) = 143.36090 121.32202 119.99540
#
# Poissons Ratio (x) = 0.24080 0.22126
# Poissons Ratio (y) = 0.28454 0.13404
# Poissons Ratio (z) = 0.26435 0.13552
#
# Static dielectric constant tensor:
#      x y z
#    x 0.460410 0.000000 1.635120 
#    y 0.000000 2.158000 0.000000 
#    z 1.635120 0.000000 0.175140 
# 
# From -- ./inp_files/184221.got.cif
#   From: 2010.05.17/outbox.cif.g08.bks.cpg/sg15_93_cif.got.tgz:184221.got - 2010.06.03 18:47:42.
