data_PCOD9283584
_publ_section_title
;
Structure prediction by ZEFSAII (Michael W. Deem and Ramdas Pophale) SiO2 
 PCOD9283584
Probable space group: C 2/C
;
_chemical_formula_sum "Si O2"
_cell_formula_units_Z 40
_cell_length_a 22.646420
_cell_length_b 4.864809
_cell_length_c 23.393956
_cell_angle_alpha 90.000000
_cell_angle_beta 141.107206
_cell_angle_gamma 90.000000
_cell_volume 1618.211990
_symmetry_space_group_name_H-M "C 2/C"
_symmetry_group_IT_number 15
_symmetry_cell_setting 'monoclinic'
loop_
_space_group_symop_operation_xyz
x,y,z
-x,y,1/2-z
-x,-y,-z
x,-y,1/2+z
1/2+x,1/2+y,z
1/2-x,1/2+y,1/2-z
1/2-x,1/2-y,-z
1/2+x,1/2-y,1/2+z
loop_
_atom_site_type_symbol
_atom_site_label
_atom_site_fract_x
_atom_site_fract_y
_atom_site_fract_z
Si Si1 0.211745 0.772773 0.292724
Si Si2 0.445590 0.443616 0.655118
Si Si3 0.047399 0.479609 0.913901
Si Si4 0.624324 0.219264 0.665577
Si Si5 0.758025 0.043415 0.559792
O O1 0.318315 0.810568 0.350154
O O2 0.182151 0.469227 0.253333
O O3 0.205335 0.817105 0.354760
O O4 0.143143 0.975892 0.204717
O O5 0.500000 0.562937 0.750000
O O6 0.447311 0.667189 0.604951
O O7 0.342906 0.356898 0.601573
O O8 0.492257 0.167081 0.667605
O O9 0.979389 0.585988 0.912818
O O10 0.156207 0.568624 0.001435
O O11 0.750000 0.250000 0.500000
#
# Coordination Sequence:
#
# PCOD9283584 Si02
#       5
#     8   8   8   8   8
#     4  10  22  40  62  85 116 152 196 240 283 341
#     4  11  22  37  58  82 115 155 193 234 281 344
#     4  11  22  36  57  85 116 148 192 238 289 342
#     4  10  21  40  63  86 111 153 200 240 281 335
#     4  10  23  39  58  88 123 153 187 237 295 345
#
# _framework density 24.718641000000002
#
# number of rings (size 3 to 8) (size 9 to 14) (size 15 to 20)
#    0.000    1.600    0.000    4.800    0.000    8.800 
#    0.000    0.000    0.000   13.200    0.000    0.000 
#    0.000    0.000    0.000    0.000    0.000    0.000 
#
# Total GULP energy -111638.802029 kJ/mol
# GULP energy per Si atom -5581.940101 kJ/mol
# Density = 2.466238 g / cm^3
# Si number density = 24.718641 Si / 1000 Ang^3
#
#
#
# Elastic Constant Matrix: (Units=GPa)
#
#
# Indices 1 2 3 4 5 6 
#
# 1 177.8524 0.3362 28.0879 -0.0115 39.0770 -0.0005
# 2 0.3362 56.5964 -12.2600 -0.0438 -1.9671 -0.0398
# 3 28.0879 -12.2600 26.7837 -0.0124 1.6829 -0.0107
# 4 -0.0115 -0.0438 -0.0124 9.0988 -0.0077 0.7438
# 5 39.0770 -1.9671 1.6829 -0.0077 61.2333 -0.0049
# 6 -0.0005 -0.0398 -0.0107 0.7438 -0.0049 34.0373
#
#
#
# Elastic Compliance Matrix: (Units=1/GPa)
#
#
# Indices 1 2 3 4 5 6 
#
# 1 0.008209 -0.002243 -0.009318 -0.000017 -0.005055 -0.000006
# 2 -0.002243 0.020236 0.011504 0.000110 0.001765 0.000025
# 3 -0.009318 0.011504 0.052067 0.000116 0.004885 0.000028
# 4 -0.000017 0.000110 0.000116 0.110102 0.000025 -0.002406
# 5 -0.005055 0.001765 0.004885 0.000025 0.019479 0.000006
# 6 -0.000006 0.000025 0.000028 -0.002406 0.000006 0.029432
#
#
# Mechanical properties :
#
#
# Convention : Reuss Voigt Hill
#
# Bulk Modulus (GPa) = 12.43811 32.61783 22.52797
# Shear Modulus (GPa) = 18.76616 37.21179 27.98898
#
# Velocity S-wave (km/s) = 2.75833 3.88418 3.36862
# Velocity P-wave (km/s) = 3.89709 5.77408 4.92582
#
# Compressibility (1/GPa) = 0.08039805
#
# Stress axis : x y z
#
# Youngs Moduli (GPa) = 121.81737 49.41738 19.20618
#
# Poissons Ratio (x) = 0.11084 0.17896
# Poissons Ratio (y) = 0.27323 -0.22095
# Poissons Ratio (z) = 1.13507 -0.56850
#
# Static dielectric constant tensor:
#      x y z
#    x 2.032830 -0.000010 0.080040 
#    y -0.000010 1.912410 -0.000010 
#    z 0.080040 -0.000010 2.001290 
# 
# From -- ./inp_files/212738.got.cif
#   From: 2010.05.17/outbox.cif.g08.bks.cpg/sg15_107_cif.got.tgz:212738.got - 2010.06.03 18:47:42.
