data_PCOD9283071
_publ_section_title
;
Structure prediction by ZEFSAII (Michael W. Deem and Ramdas Pophale) SiO2 
 PCOD9283071
Probable space group: C 2/C
;
_chemical_formula_sum "Si O2"
_cell_formula_units_Z 32
_cell_length_a 18.535039
_cell_length_b 8.535441
_cell_length_c 8.705936
_cell_angle_alpha 90.000000
_cell_angle_beta 86.044143
_cell_angle_gamma 90.000000
_cell_volume 1374.038801
_symmetry_space_group_name_H-M "C 2/C"
_symmetry_group_IT_number 15
_symmetry_cell_setting 'monoclinic'
loop_
_space_group_symop_operation_xyz
x,y,z
-x,y,1/2-z
-x,-y,-z
x,-y,1/2+z
1/2+x,1/2+y,z
1/2-x,1/2+y,1/2-z
1/2-x,1/2-y,-z
1/2+x,1/2-y,1/2+z
loop_
_atom_site_type_symbol
_atom_site_label
_atom_site_fract_x
_atom_site_fract_y
_atom_site_fract_z
Si Si1 0.418561 0.097142 0.367517
Si Si2 0.714711 0.121390 0.899061
Si Si3 0.188208 0.827569 0.614456
Si Si4 0.554990 0.205386 0.474729
O O1 0.347447 0.067341 0.476215
O O2 0.471975 0.229663 0.431879
O O3 0.409397 0.141518 0.191262
O O4 0.454923 0.929261 0.395023
O O5 0.681714 0.211062 0.759056
O O6 0.775112 0.992965 0.845952
O O7 0.750000 0.250000 0.000000
O O8 0.250000 0.750000 0.500000
O O9 0.111405 0.829959 0.536497
#
# Coordination Sequence:
#
# PCOD9283071 Si02
#       4
#     8   8   8   8
#     4  10  21  40  66 100 136 178 234 279 347 407
#     4  12  26  43  67 101 139 183 227 290 354 424
#     4  12  24  41  66  99 140 180 231 287 350 412
#     4  10  21  39  67 100 136 178 233 288 330 419
#
# _framework density 23.289007000000002
#
# number of rings (size 3 to 8) (size 9 to 14) (size 15 to 20)
#    0.000    1.000    2.500    4.500    0.000    3.000 
#    0.000    1.250    0.000    3.000    0.000    0.000 
#    0.000    0.000    0.000    0.000    0.000    0.000 
#
# Total GULP energy -89221.353242 kJ/mol
# GULP energy per Si atom -5576.334578 kJ/mol
# Density = 2.323600 g / cm^3
# Si number density = 23.289007 Si / 1000 Ang^3
#
#
#
# Elastic Constant Matrix: (Units=GPa)
#
#
# Indices 1 2 3 4 5 6 
#
# 1 111.0671 30.2220 35.0814 0.0000 22.3872 0.0000
# 2 30.2220 68.4770 30.1971 0.0000 14.5997 0.0000
# 3 35.0814 30.1971 137.2996 0.0000 13.6462 0.0000
# 4 0.0000 0.0000 0.0000 28.0561 0.0000 10.8160
# 5 22.3872 14.5997 13.6462 0.0000 45.2153 0.0000
# 6 0.0000 0.0000 0.0000 10.8160 0.0000 26.6363
#
#
#
# Elastic Compliance Matrix: (Units=1/GPa)
#
#
# Indices 1 2 3 4 5 6 
#
# 1 0.011269 -0.003357 -0.001746 0.000000 -0.003968 0.000000
# 2 -0.003357 0.018016 -0.002775 0.000000 -0.003318 0.000000
# 3 -0.001746 -0.002775 0.008417 0.000000 -0.000780 0.000000
# 4 0.000000 0.000000 0.000000 0.042258 0.000000 -0.017159
# 5 -0.003968 -0.003318 -0.000780 0.000000 0.025388 0.000000
# 6 0.000000 0.000000 0.000000 -0.017159 0.000000 0.044510
#
#
# Mechanical properties :
#
#
# Convention : Reuss Voigt Hill
#
# Bulk Modulus (GPa) = 45.56824 56.42718 50.99771
# Shear Modulus (GPa) = 28.91341 34.73776 31.82559
#
# Velocity S-wave (km/s) = 3.52732 3.86631 3.70070
# Velocity P-wave (km/s) = 6.01650 6.64927 6.34078
#
# Compressibility (1/GPa) = 0.02194511
#
# Stress axis : x y z
#
# Youngs Moduli (GPa) = 88.74258 55.50595 118.80196
#
# Poissons Ratio (x) = 0.18634 0.20748
# Poissons Ratio (y) = 0.29792 0.32966
# Poissons Ratio (z) = 0.15499 0.15402
#
# Static dielectric constant tensor:
#      x y z
#    x 1.165990 0.000000 -0.109080 
#    y 0.000000 1.846260 0.000000 
#    z -0.109080 0.000000 1.924720 
# 
# From -- ./inp_files/53453.got.cif
#   From: 2010.05.17/outbox.cif.g08.bks.cpg/sg15_27_cif.got.tgz:53453.got - 2010.06.03 18:47:42.
