data_PCOD9283783
_publ_section_title
;
Structure prediction by ZEFSAII (Michael W. Deem and Ramdas Pophale) SiO2 
 PCOD9283783
Probable space group: C 2/C
;
_chemical_formula_sum "Si O2"
_cell_formula_units_Z 56
_cell_length_a 23.598226
_cell_length_b 6.902652
_cell_length_c 14.211465
_cell_angle_alpha 90.000000
_cell_angle_beta 114.210907
_cell_angle_gamma 90.000000
_cell_volume 2111.295656
_symmetry_space_group_name_H-M "C 2/C"
_symmetry_group_IT_number 15
_symmetry_cell_setting 'monoclinic'
loop_
_space_group_symop_operation_xyz
x,y,z
-x,y,1/2-z
-x,-y,-z
x,-y,1/2+z
1/2+x,1/2+y,z
1/2-x,1/2+y,1/2-z
1/2-x,1/2-y,-z
1/2+x,1/2-y,1/2+z
loop_
_atom_site_type_symbol
_atom_site_label
_atom_site_fract_x
_atom_site_fract_y
_atom_site_fract_z
Si Si1 0.353719 0.190563 0.796690
Si Si2 0.284006 0.168927 0.930354
Si Si3 0.964848 0.274709 0.479404
Si Si4 0.092036 0.132562 0.533980
Si Si5 0.927678 0.839471 0.685938
Si Si6 0.165301 0.736837 0.257748
Si Si7 0.906472 0.595347 0.122548
O O1 0.320545 0.272383 0.868218
O O2 0.418829 0.107653 0.881508
O O3 0.376587 0.342164 0.734356
O O4 0.318335 0.997622 0.734725
O O5 0.221740 0.126441 0.828673
O O6 0.250000 0.250000 0.000000
O O7 0.342179 0.057086 0.018463
O O8 0.954055 0.313709 0.581285
O O9 0.034740 0.283144 0.494060
O O10 0.939632 0.057585 0.444532
O O11 0.103837 0.088678 0.432714
O O12 0.144148 0.208674 0.638847
O O13 0.931153 0.606565 0.675995
O O14 0.000000 0.906917 0.750000
O O15 0.111988 0.732166 0.302277
#
# Coordination Sequence:
#
# PCOD9283783 Si02
#       7
#     8   8   8   8   8   8   8
#     4  10  21  40  64  93 122 166 211 259 308 375
#     4   9  19  40  61  86 121 153 199 258 306 355
#     4  10  22  38  56  86 128 164 200 258 314 374
#     4  11  23  37  56  89 129 164 205 252 317 375
#     4  11  22  39  63  96 128 165 209 260 317 378
#     4  10  22  38  64  91 117 165 214 260 308 368
#     4   9  21  38  62  91 121 161 211 260 311 370
#
# _framework density 26.523999
#
# number of rings (size 3 to 8) (size 9 to 14) (size 15 to 20)
#    0.000    2.000    1.429    1.714    4.000    4.571 
#    0.000    3.571    0.000    0.000    0.000    0.000 
#    0.000    0.000    0.000    0.000    0.000    0.000 
#
# Total GULP energy -156119.081039 kJ/mol
# GULP energy per Si atom -5575.681466 kJ/mol
# Density = 2.646363 g / cm^3
# Si number density = 26.523999 Si / 1000 Ang^3
#
#
#
# Elastic Constant Matrix: (Units=GPa)
#
#
# Indices 1 2 3 4 5 6 
#
# 1 123.3070 5.2648 64.6980 0.0000 -14.7915 0.0000
# 2 5.2648 52.0689 12.8283 0.0000 3.0315 0.0000
# 3 64.6980 12.8283 194.4946 0.0000 -21.6317 0.0000
# 4 0.0000 0.0000 0.0000 34.0604 0.0000 -7.6503
# 5 -14.7915 3.0315 -21.6317 0.0000 59.7295 0.0000
# 6 0.0000 0.0000 0.0000 -7.6503 0.0000 21.6129
#
#
#
# Elastic Compliance Matrix: (Units=1/GPa)
#
#
# Indices 1 2 3 4 5 6 
#
# 1 0.009928 -0.000310 -0.003133 0.000000 0.001340 0.000000
# 2 -0.000310 0.019665 -0.001369 0.000000 -0.001571 0.000000
# 3 -0.003133 -0.001369 0.006455 0.000000 0.001632 0.000000
# 4 0.000000 0.000000 0.000000 0.031895 0.000000 0.011290
# 5 0.001340 -0.001571 0.001632 0.000000 0.017744 0.000000
# 6 0.000000 0.000000 0.000000 0.011290 0.000000 0.050265
#
#
# Mechanical properties :
#
#
# Convention : Reuss Voigt Hill
#
# Bulk Modulus (GPa) = 37.84258 59.49475 48.66867
# Shear Modulus (GPa) = 32.38664 42.21918 37.30291
#
# Velocity S-wave (km/s) = 3.49812 3.99398 3.75425
# Velocity P-wave (km/s) = 5.53300 6.61426 6.09764
#
# Compressibility (1/GPa) = 0.02642526
#
# Stress axis : x y z
#
# Youngs Moduli (GPa) = 100.72930 50.85106 154.90840
#
# Poissons Ratio (x) = 0.01576 0.48532
# Poissons Ratio (y) = 0.03122 0.21201
# Poissons Ratio (z) = 0.31558 0.06960
#
# Static dielectric constant tensor:
#      x y z
#    x 2.132980 0.000000 0.026180 
#    y 0.000000 2.173510 0.000000 
#    z 0.026180 0.000000 2.135950 
# 
# From -- ./inp_files/121994.got.cif
#   From: 2010.05.17/outbox.cif.g08.bks.cpg/sg15_61_cif.got.tgz:121994.got - 2010.06.03 18:47:42.
