data_PCOD9283001
_publ_section_title
;
Structure prediction by ZEFSAII (Michael W. Deem and Ramdas Pophale) SiO2 
 PCOD9283001
Probable space group: C 2/C
;
_chemical_formula_sum "Si O2"
_cell_formula_units_Z 64
_cell_length_a 11.510517
_cell_length_b 22.551870
_cell_length_c 12.434698
_cell_angle_alpha 90.000000
_cell_angle_beta 108.583585
_cell_angle_gamma 90.000000
_cell_volume 3059.544079
_symmetry_space_group_name_H-M "C 2/C"
_symmetry_group_IT_number 15
_symmetry_cell_setting 'monoclinic'
loop_
_space_group_symop_operation_xyz
x,y,z
-x,y,1/2-z
-x,-y,-z
x,-y,1/2+z
1/2+x,1/2+y,z
1/2-x,1/2+y,1/2-z
1/2-x,1/2-y,-z
1/2+x,1/2-y,1/2+z
loop_
_atom_site_type_symbol
_atom_site_label
_atom_site_fract_x
_atom_site_fract_y
_atom_site_fract_z
Si Si1 0.727402 0.554517 0.218330
Si Si2 0.729768 0.569186 0.451119
Si Si3 0.202260 0.771336 0.603000
Si Si4 0.399319 0.441306 0.127792
Si Si5 0.015339 0.120965 0.061173
Si Si6 0.388867 0.132082 0.139226
Si Si7 0.130801 0.446896 0.293509
Si Si8 0.168389 0.640843 0.619919
O O1 0.781261 0.577792 0.346448
O O2 0.592288 0.580603 0.168027
O O3 0.795007 0.578731 0.132504
O O4 0.756727 0.485599 0.220207
O O5 0.663269 0.504263 0.422540
O O6 0.625649 0.617688 0.446931
O O7 0.829151 0.568837 0.574538
O O8 0.250000 0.750000 0.500000
O O9 0.084726 0.815480 0.571405
O O10 0.315881 0.812237 0.669008
O O11 0.182797 0.709509 0.656016
O O12 0.500000 0.450280 0.250000
O O13 0.297219 0.391978 0.130492
O O14 0.469292 0.413469 0.046418
O O15 0.500000 0.121593 0.250000
O O16 0.404883 0.138680 0.015923
O O17 0.113162 0.394023 0.203814
O O18 0.000000 0.480164 0.250000
#
# Coordination Sequence:
#
# PCOD9283001 Si02
#       8
#     8   8   8   8   8   8   8   8
#     4  11  22  40  64  93 128 169 212 263 331 398
#     4  12  25  40  62 101 139 173 216 269 347 409
#     4   9  19  41  65  95 128 172 223 276 327 382
#     4  12  21  36  65  99 138 169 208 277 340 402
#     4  11  21  40  64  96 135 166 218 275 331 398
#     4  10  21  39  66  93 122 166 223 275 319 391
#     4  12  27  43  63  92 134 180 217 270 337 411
#     4  11  22  44  63  93 133 171 219 282 330 388
#
# _framework density 20.918150000000001
#
# number of rings (size 3 to 8) (size 9 to 14) (size 15 to 20)
#    0.000    1.000    6.250    2.625    1.750    1.000 
#    4.500    2.500    0.000    3.750    0.000    0.000 
#    0.000    0.000    0.000    0.000    0.000    0.000 
#
# Total GULP energy -178490.336877 kJ/mol
# GULP energy per Si atom -5577.823027 kJ/mol
# Density = 2.087054 g / cm^3
# Si number density = 20.918150 Si / 1000 Ang^3
#
#
#
# Elastic Constant Matrix: (Units=GPa)
#
#
# Indices 1 2 3 4 5 6 
#
# 1 55.1184 19.3786 27.6391 0.0000 17.2593 0.0000
# 2 19.3786 118.0929 20.5244 0.0000 0.2154 0.0000
# 3 27.6391 20.5244 142.1921 0.0000 12.6281 0.0000
# 4 0.0000 0.0000 0.0000 25.1399 0.0000 -4.6055
# 5 17.2593 0.2154 12.6281 0.0000 37.8777 0.0000
# 6 0.0000 0.0000 0.0000 -4.6055 0.0000 16.9033
#
#
#
# Elastic Compliance Matrix: (Units=1/GPa)
#
#
# Indices 1 2 3 4 5 6 
#
# 1 0.024069 -0.003355 -0.003320 0.000000 -0.009841 0.000000
# 2 -0.003355 0.009159 -0.000825 0.000000 0.001752 0.000000
# 3 -0.003320 -0.000825 0.007896 0.000000 -0.001115 0.000000
# 4 0.000000 0.000000 0.000000 0.041867 0.000000 0.011407
# 5 -0.009841 0.001752 -0.001115 0.000000 0.031247 0.000000
# 6 0.000000 0.000000 0.000000 0.011407 0.000000 0.062268
#
#
# Mechanical properties :
#
#
# Convention : Reuss Voigt Hill
#
# Bulk Modulus (GPa) = 38.28041 50.05416 44.16728
# Shear Modulus (GPa) = 24.97331 32.50827 28.74079
#
# Velocity S-wave (km/s) = 3.45897 3.94645 3.71072
# Velocity P-wave (km/s) = 5.85598 6.68928 6.28645
#
# Compressibility (1/GPa) = 0.02612302
#
# Stress axis : x y z
#
# Youngs Moduli (GPa) = 41.54782 109.18631 126.64165
#
# Poissons Ratio (x) = 0.36627 0.42048
# Poissons Ratio (y) = 0.13937 0.10454
# Poissons Ratio (z) = 0.13795 0.09013
#
# Static dielectric constant tensor:
#      x y z
#    x 1.793400 0.000000 -0.000160 
#    y 0.000000 1.816700 0.000000 
#    z -0.000160 0.000000 1.761930 
# 
# From -- ./inp_files/90840.got.cif
#   From: 2010.05.17/outbox.cif.g08.bks.cpg/sg15_46_cif.got.tgz:90840.got - 2010.06.03 18:47:42.
