data_PCOD9283825
_publ_section_title
;
Structure prediction by ZEFSAII (Michael W. Deem and Ramdas Pophale) SiO2 
 PCOD9283825
Probable space group: C 2/C
;
_chemical_formula_sum "Si O2"
_cell_formula_units_Z 60
_cell_length_a 12.540523
_cell_length_b 6.877605
_cell_length_c 25.230366
_cell_angle_alpha 90.000000
_cell_angle_beta 83.691553
_cell_angle_gamma 90.000000
_cell_volume 2162.911155
_symmetry_space_group_name_H-M "C 2/C"
_symmetry_group_IT_number 15
_symmetry_cell_setting 'monoclinic'
loop_
_space_group_symop_operation_xyz
x,y,z
-x,y,1/2-z
-x,-y,-z
x,-y,1/2+z
1/2+x,1/2+y,z
1/2-x,1/2+y,1/2-z
1/2-x,1/2-y,-z
1/2+x,1/2-y,1/2+z
loop_
_atom_site_type_symbol
_atom_site_label
_atom_site_fract_x
_atom_site_fract_y
_atom_site_fract_z
Si Si1 0.500000 0.870944 0.250000
Si Si2 0.751605 0.704722 0.393401
Si Si3 0.474105 0.367208 0.538675
Si Si4 0.560373 0.882725 0.965213
Si Si5 0.708200 0.828656 0.282853
Si Si6 0.289432 0.349689 0.921432
Si Si7 0.170010 0.768137 0.324881
Si Si8 0.524661 0.888692 0.641517
O O1 0.465209 0.994949 0.304064
O O2 0.601064 0.749790 0.262000
O O3 0.643265 0.635761 0.426685
O O4 0.739896 0.702285 0.330834
O O5 0.864818 0.604071 0.396654
O O6 0.782140 0.924339 0.406354
O O7 0.522821 0.381259 0.470622
O O8 0.586207 0.326018 0.566359
O O9 0.458868 0.127755 0.514892
O O10 0.687171 0.843331 0.967418
O O11 0.552008 0.937870 0.903669
O O12 0.790564 0.859796 0.231588
O O13 0.677495 0.039784 0.307277
O O14 0.247541 0.224822 0.872267
O O15 0.042379 0.807255 0.339649
#
# Coordination Sequence:
#
# PCOD9283825 Si02
#       8
#     4   8   8   8   8   8   8   8
#     4  10  22  40  68  94 132 168 220 262 328 404
#     4  11  23  43  67  94 140 174 216 278 337 398
#     4  12  27  43  65  99 131 177 227 273 333 403
#     4  11  23  43  70  91 131 177 215 274 338 386
#     4  10  21  40  64  97 126 170 208 271 330 389
#     4  10  23  44  66  96 131 172 225 278 331 394
#     4   9  21  42  66  95 129 166 219 266 329 396
#     4  10  22  42  66  94 126 177 211 257 334 401
#
# _framework density 27.740393000000001
#
# number of rings (size 3 to 8) (size 9 to 14) (size 15 to 20)
#    0.000    1.600    1.333    3.600    3.733    1.067 
#   14.400    0.000    0.000    0.000    0.000    0.000 
#    0.000    0.000    0.000    0.000    0.000    0.000 
#
# Total GULP energy -167135.886546 kJ/mol
# GULP energy per Si atom -5571.196218 kJ/mol
# Density = 2.767725 g / cm^3
# Si number density = 27.740393 Si / 1000 Ang^3
#
#
#
# Elastic Constant Matrix: (Units=GPa)
#
#
# Indices 1 2 3 4 5 6 
#
# 1 219.8505 46.2104 68.5053 0.0000 -22.4832 0.0000
# 2 46.2104 101.5983 58.2723 0.0000 -8.8040 0.0000
# 3 68.5053 58.2723 161.4315 0.0000 -34.0906 0.0000
# 4 0.0000 0.0000 0.0000 38.4099 0.0000 -4.9491
# 5 -22.4832 -8.8040 -34.0906 0.0000 56.2189 0.0000
# 6 0.0000 0.0000 0.0000 -4.9491 0.0000 36.6846
#
#
#
# Elastic Compliance Matrix: (Units=1/GPa)
#
#
# Indices 1 2 3 4 5 6 
#
# 1 0.005452 -0.001497 -0.001562 0.000000 0.000999 0.000000
# 2 -0.001497 0.012862 -0.004253 0.000000 -0.001164 0.000000
# 3 -0.001562 -0.004253 0.009313 0.000000 0.004356 0.000000
# 4 0.000000 0.000000 0.000000 0.026496 0.000000 0.003574
# 5 0.000999 -0.001164 0.004356 0.000000 0.020646 0.000000
# 6 0.000000 0.000000 0.000000 0.003574 0.000000 0.027742
#
#
# Mechanical properties :
#
#
# Convention : Reuss Voigt Hill
#
# Bulk Modulus (GPa) = 76.91362 92.09513 84.50438
# Shear Modulus (GPa) = 41.16221 46.92217 44.04219
#
# Velocity S-wave (km/s) = 3.85624 4.11722 3.98886
# Velocity P-wave (km/s) = 6.90028 7.47482 7.19329
#
# Compressibility (1/GPa) = 0.01300160
#
# Stress axis : x y z
#
# Youngs Moduli (GPa) = 183.41219 77.74627 107.37817
#
# Poissons Ratio (x) = 0.11640 0.16776
# Poissons Ratio (y) = 0.27461 0.45672
# Poissons Ratio (z) = 0.28656 0.33068
#
# Static dielectric constant tensor:
#      x y z
#    x 2.336320 0.000000 -0.105070 
#    y 0.000000 2.707050 0.000000 
#    z -0.105070 0.000000 2.167820 
# 
# From -- ./inp_files/291990.got.cif
#   From: 2010.05.17/outbox.cif.g08.bks.cpg/sg15_146_cif.got.tgz:291990.got - 2010.06.03 18:47:42.
