data_PCOD9283214
_publ_section_title
;
Structure prediction by ZEFSAII (Michael W. Deem and Ramdas Pophale) SiO2 
 PCOD9283214
Probable space group: C 2/C
;
_chemical_formula_sum "Si O2"
_cell_formula_units_Z 52
_cell_length_a 13.885234
_cell_length_b 9.599745
_cell_length_c 18.075308
_cell_angle_alpha 90.000000
_cell_angle_beta 66.499195
_cell_angle_gamma 90.000000
_cell_volume 2209.498644
_symmetry_space_group_name_H-M "C 2/C"
_symmetry_group_IT_number 15
_symmetry_cell_setting 'monoclinic'
loop_
_space_group_symop_operation_xyz
x,y,z
-x,y,1/2-z
-x,-y,-z
x,-y,1/2+z
1/2+x,1/2+y,z
1/2-x,1/2+y,1/2-z
1/2-x,1/2-y,-z
1/2+x,1/2-y,1/2+z
loop_
_atom_site_type_symbol
_atom_site_label
_atom_site_fract_x
_atom_site_fract_y
_atom_site_fract_z
Si Si1 0.640467 0.178278 0.200066
Si Si2 0.305365 0.413020 0.433657
Si Si3 0.109636 0.780123 0.372808
Si Si4 0.622110 0.596276 0.339913
Si Si5 0.408221 0.226243 0.520683
Si Si6 0.346887 0.680374 0.335206
Si Si7 0.000000 0.418384 0.250000
O O1 0.647457 0.301811 0.139246
O O2 0.599694 0.236304 0.290485
O O3 0.756158 0.122721 0.180945
O O4 0.579053 0.041742 0.197426
O O5 0.348085 0.355735 0.498097
O O6 0.179042 0.394748 0.462290
O O7 0.342273 0.566093 0.400878
O O8 0.228634 0.741879 0.360490
O O9 0.019185 0.704830 0.447369
O O10 0.090015 0.945933 0.379939
O O11 0.572861 0.724037 0.401266
O O12 0.619697 0.603848 0.251974
O O13 0.431577 0.800995 0.315842
#
# Coordination Sequence:
#
# PCOD9283214 Si02
#       7
#     8   8   8   8   8   8   4
#     4  10  21  39  69  89 137 170 230 258 331 386
#     4  10  22  45  65 100 128 183 212 278 317 411
#     4  11  21  41  67 100 128 181 216 273 322 398
#     4  10  21  42  64  99 128 178 214 276 314 404
#     4  10  23  39  70  95 139 169 224 263 345 377
#     4  11  25  41  71  99 133 167 235 262 332 379
#     4  12  24  40  62 106 124 166 210 300 310 374
#
# _framework density 23.534752000000001
#
# number of rings (size 3 to 8) (size 9 to 14) (size 15 to 20)
#    0.000    1.538    3.077    1.385    2.154    1.231 
#    0.000    5.385    0.000    0.000    0.000    0.000 
#    0.000    0.000    0.000    0.000    0.000    0.000 
#
# Total GULP energy -144893.664331 kJ/mol
# GULP energy per Si atom -5572.833244 kJ/mol
# Density = 2.348119 g / cm^3
# Si number density = 23.534752 Si / 1000 Ang^3
#
#
#
# Elastic Constant Matrix: (Units=GPa)
#
#
# Indices 1 2 3 4 5 6 
#
# 1 77.7782 26.3264 37.2753 0.0000 -7.6550 0.0000
# 2 26.3264 74.3810 -5.8123 0.0000 -13.5376 0.0000
# 3 37.2753 -5.8123 107.8862 0.0000 -19.5556 0.0000
# 4 0.0000 0.0000 0.0000 389.7659 0.0000 -850.6219
# 5 -7.6550 -13.5376 -19.5556 0.0000 50.6725 0.0000
# 6 0.0000 0.0000 0.0000 -850.6219 0.0000 2018.2040
#
#
#
# Elastic Compliance Matrix: (Units=1/GPa)
#
#
# Indices 1 2 3 4 5 6 
#
# 1 0.018669 -0.007531 -0.007214 0.000000 -0.001976 0.000000
# 2 -0.007531 0.017416 0.004492 0.000000 0.005249 0.000000
# 3 -0.007214 0.004492 0.012928 0.000000 0.005099 0.000000
# 4 0.000000 0.000000 0.000000 0.032000 0.000000 0.013487
# 5 -0.001976 0.005249 0.005099 0.000000 0.022806 0.000000
# 6 0.000000 0.000000 0.000000 0.013487 0.000000 0.006180
#
#
# Mechanical properties :
#
#
# Convention : Reuss Voigt Hill
#
# Bulk Modulus (GPa) = 35.08038 41.73601 38.40820
# Shear Modulus (GPa) = 35.71228 505.21222 270.46225
#
# Velocity S-wave (km/s) = 3.89964 14.66740 10.73172
# Velocity P-wave (km/s) = 5.93417 17.45324 13.03515
#
# Compressibility (1/GPa) = 0.02850596
#
# Stress axis : x y z
#
# Youngs Moduli (GPa) = 53.56444 57.41822 77.35250
#
# Poissons Ratio (x) = 0.43242 0.55803
# Poissons Ratio (y) = 0.40340 -0.34744
# Poissons Ratio (z) = 0.38642 -0.25790
#
# Static dielectric constant tensor:
#      x y z
#    x 1.972510 0.000000 0.094260 
#    y 0.000000 1.825330 0.000000 
#    z 0.094260 0.000000 2.413010 
# 
# From -- ./inp_files/247755.got.cif
#   From: 2010.05.17/outbox.cif.g08.bks.cpg/sg15_124_cif.got.tgz:247755.got - 2010.06.03 18:47:42.
