data_PCOD9283511
_publ_section_title
;
Structure prediction by ZEFSAII (Michael W. Deem and Ramdas Pophale) SiO2 
 PCOD9283511
Probable space group: C 2/C
;
_chemical_formula_sum "Si O2"
_cell_formula_units_Z 48
_cell_length_a 30.588587
_cell_length_b 5.346004
_cell_length_c 21.660627
_cell_angle_alpha 90.000000
_cell_angle_beta 142.612544
_cell_angle_gamma 90.000000
_cell_volume 2150.764410
_symmetry_space_group_name_H-M "C 2/C"
_symmetry_group_IT_number 15
_symmetry_cell_setting 'monoclinic'
loop_
_space_group_symop_operation_xyz
x,y,z
-x,y,1/2-z
-x,-y,-z
x,-y,1/2+z
1/2+x,1/2+y,z
1/2-x,1/2+y,1/2-z
1/2-x,1/2-y,-z
1/2+x,1/2-y,1/2+z
loop_
_atom_site_type_symbol
_atom_site_label
_atom_site_fract_x
_atom_site_fract_y
_atom_site_fract_z
Si Si1 0.159358 0.427795 0.183370
Si Si2 0.403099 0.915325 0.584218
Si Si3 0.064500 0.648860 0.239533
Si Si4 0.926305 0.872397 0.824699
Si Si5 0.289738 0.676988 0.374114
Si Si6 0.585704 0.293479 0.014513
O O1 0.125997 0.183232 0.177142
O O2 0.211019 0.563116 0.290350
O O3 0.209383 0.379322 0.179741
O O4 0.097259 0.596839 0.083158
O O5 0.403656 0.929381 0.658397
O O6 0.479671 0.783166 0.654874
O O7 0.330087 0.786503 0.478759
O O8 0.411275 0.157735 0.549471
O O9 0.070451 0.399878 0.204916
O O10 0.096726 0.896910 0.244167
O O11 0.008658 0.920700 0.936739
O O12 0.346836 0.474593 0.413727
#
# Coordination Sequence:
#
# PCOD9283511 Si02
#       6
#     8   8   8   8   8   8
#     4  11  24  38  61  91 125 161 202 255 305 372
#     4   9  21  38  64  89 118 160 212 248 295 371
#     4  10  22  40  65  92 122 162 203 257 303 354
#     4  11  24  40  63  96 126 157 202 257 311 354
#     4  11  21  39  62  87 120 164 206 246 309 365
#     4  10  21  40  62  90 120 162 204 251 304 359
#
# _framework density 22.317647000000001
#
# number of rings (size 3 to 8) (size 9 to 14) (size 15 to 20)
#    0.000    1.667    3.333    0.500    4.667    2.000 
#    0.000    1.667    0.000    0.000    0.000    0.000 
#    0.000    0.000    0.000    0.000    0.000    0.000 
#
# Total GULP energy -133964.808828 kJ/mol
# GULP energy per Si atom -5581.867034 kJ/mol
# Density = 2.226685 g / cm^3
# Si number density = 22.317647 Si / 1000 Ang^3
#
#
#
# Elastic Constant Matrix: (Units=GPa)
#
#
# Indices 1 2 3 4 5 6 
#
# 1 59.2272 14.7384 30.7652 0.0006 -5.9825 -0.0004
# 2 14.7384 53.6033 11.3849 -0.0012 -5.7803 -0.0016
# 3 30.7652 11.3849 115.3652 -0.0020 -3.7935 -0.0008
# 4 0.0006 -0.0012 -0.0020 23.7730 -0.0002 3.9093
# 5 -5.9825 -5.7803 -3.7935 -0.0002 20.8631 0.0009
# 6 -0.0004 -0.0016 -0.0008 3.9093 0.0009 25.7277
#
#
#
# Elastic Compliance Matrix: (Units=1/GPa)
#
#
# Indices 1 2 3 4 5 6 
#
# 1 0.020960 -0.004271 -0.005039 -0.000001 0.003911 0.000000
# 2 -0.004271 0.020451 -0.000738 0.000001 0.004307 0.000001
# 3 -0.005039 -0.000738 0.010091 0.000001 0.000185 0.000000
# 4 -0.000001 0.000001 0.000001 0.043142 0.000001 -0.006555
# 5 0.003911 0.004307 0.000185 0.000001 0.050280 -0.000001
# 6 0.000000 0.000001 0.000000 -0.006555 -0.000001 0.039865
#
#
# Mechanical properties :
#
#
# Convention : Reuss Voigt Hill
#
# Bulk Modulus (GPa) = 31.84137 37.99698 34.91917
# Shear Modulus (GPa) = 23.21768 25.49323 24.35545
#
# Velocity S-wave (km/s) = 3.22891 3.38345 3.30708
# Velocity P-wave (km/s) = 5.31032 5.68560 5.50116
#
# Compressibility (1/GPa) = 0.03140569
#
# Stress axis : x y z
#
# Youngs Moduli (GPa) = 47.71082 48.89735 99.09921
#
# Poissons Ratio (x) = 0.20884 0.49940
# Poissons Ratio (y) = 0.20377 0.07310
# Poissons Ratio (z) = 0.24043 0.03607
#
# Static dielectric constant tensor:
#      x y z
#    x 1.816020 0.000000 -0.007640 
#    y 0.000000 1.892970 0.000000 
#    z -0.007640 0.000000 1.853940 
# 
# From -- ./inp_files/220846.got.cif
#   From: 2010.05.17/outbox.cif.g08.bks.cpg/sg15_111_cif.got.tgz:220846.got - 2010.06.03 18:47:42.
