data_PCOD9283563
_publ_section_title
;
Structure prediction by ZEFSAII (Michael W. Deem and Ramdas Pophale) SiO2 
 PCOD9283563
Probable space group: C 2/C
;
_chemical_formula_sum "Si O2"
_cell_formula_units_Z 56
_cell_length_a 26.758444
_cell_length_b 8.025500
_cell_length_c 13.802986
_cell_angle_alpha 90.000000
_cell_angle_beta 128.427462
_cell_angle_gamma 90.000000
_cell_volume 2322.133361
_symmetry_space_group_name_H-M "C 2/C"
_symmetry_group_IT_number 15
_symmetry_cell_setting 'monoclinic'
loop_
_space_group_symop_operation_xyz
x,y,z
-x,y,1/2-z
-x,-y,-z
x,-y,1/2+z
1/2+x,1/2+y,z
1/2-x,1/2+y,1/2-z
1/2-x,1/2-y,-z
1/2+x,1/2-y,1/2+z
loop_
_atom_site_type_symbol
_atom_site_label
_atom_site_fract_x
_atom_site_fract_y
_atom_site_fract_z
Si Si1 0.613660 0.986659 0.666283
Si Si2 0.176730 0.810095 0.147189
Si Si3 0.263834 0.095381 0.587247
Si Si4 0.070404 0.172587 0.156340
Si Si5 0.448728 0.537203 0.048067
Si Si6 0.035443 0.725758 0.209039
Si Si7 0.338897 0.430975 0.151876
O O1 0.665452 0.024397 0.813412
O O2 0.589021 0.170771 0.614513
O O3 0.649867 0.876753 0.630263
O O4 0.554846 0.881847 0.639202
O O5 0.240751 0.839741 0.164913
O O6 0.182547 0.876759 0.265023
O O7 0.122399 0.903142 0.016711
O O8 0.250000 0.250000 0.500000
O O9 0.280392 0.550983 0.509128
O O10 0.001388 0.181948 0.122791
O O11 0.126033 0.111051 0.293344
O O12 0.062387 0.012349 0.077548
O O13 0.483807 0.374518 0.131832
O O14 0.103974 0.810890 0.314302
O O15 0.000000 0.622043 0.250000
#
# Coordination Sequence:
#
# PCOD9283563 Si02
#       7
#     8   8   8   8   8   8   8
#     4  11  24  40  63  99 132 165 225 279 319 391
#     4  10  24  41  68  99 125 176 225 267 331 396
#     4  12  25  43  65  92 133 177 219 271 333 388
#     4   9  17  37  61  90 123 163 208 268 319 387
#     4   9  19  38  66  89 124 170 209 254 339 394
#     4  10  21  40  62  95 133 170 212 271 327 393
#     4   9  20  42  68  89 130 176 222 261 324 399
#
# _framework density 24.115756000000001
#
# number of rings (size 3 to 8) (size 9 to 14) (size 15 to 20)
#    0.000    2.000    1.429    3.429    2.000    4.571 
#    5.143    0.714    0.000    0.000    0.000    0.000 
#    0.000    0.000    0.000    0.000    0.000    0.000 
#
# Total GULP energy -156104.520334 kJ/mol
# GULP energy per Si atom -5575.161441 kJ/mol
# Density = 2.406087 g / cm^3
# Si number density = 24.115756 Si / 1000 Ang^3
#
#
#
# Elastic Constant Matrix: (Units=GPa)
#
#
# Indices 1 2 3 4 5 6 
#
# 1 102.0959 19.2144 11.3371 0.0000 -15.7614 0.0000
# 2 19.2144 83.9002 5.7373 0.0000 5.6080 0.0000
# 3 11.3371 5.7373 95.2527 0.0000 9.8923 0.0000
# 4 0.0000 0.0000 0.0000 28.3355 0.0000 3.4043
# 5 -15.7614 5.6080 9.8923 0.0000 25.2632 0.0000
# 6 0.0000 0.0000 0.0000 3.4043 0.0000 8.2551
#
#
#
# Elastic Compliance Matrix: (Units=1/GPa)
#
#
# Indices 1 2 3 4 5 6 
#
# 1 0.012045 -0.003216 -0.002183 0.000000 0.009083 0.000000
# 2 -0.003216 0.012977 0.000113 0.000000 -0.004932 0.000000
# 3 -0.002183 0.000113 0.011357 0.000000 -0.005834 0.000000
# 4 0.000000 0.000000 0.000000 0.037131 0.000000 -0.015312
# 5 0.009083 -0.004932 -0.005834 0.000000 0.048630 0.000000
# 6 0.000000 0.000000 0.000000 -0.015312 0.000000 0.127452
#
#
# Mechanical properties :
#
#
# Convention : Reuss Voigt Hill
#
# Bulk Modulus (GPa) = 38.74896 39.31406 39.03151
# Shear Modulus (GPa) = 18.60350 28.70141 23.65245
#
# Velocity S-wave (km/s) = 2.78047 3.45360 3.13515
# Velocity P-wave (km/s) = 5.13914 5.67809 5.41533
#
# Compressibility (1/GPa) = 0.02580714
#
# Stress axis : x y z
#
# Youngs Moduli (GPa) = 83.02382 77.05707 88.04875
#
# Poissons Ratio (x) = 0.24784 0.19223
# Poissons Ratio (y) = 0.26703 -0.00998
# Poissons Ratio (z) = 0.18126 -0.00873
#
# Static dielectric constant tensor:
#      x y z
#    x 2.049110 0.000000 -0.011330 
#    y 0.000000 1.995590 0.000000 
#    z -0.011330 0.000000 1.995910 
# 
# From -- ./inp_files/218651.got.cif
#   From: 2010.05.17/outbox.cif.g08.bks.cpg/sg15_110_cif.got.tgz:218651.got - 2010.06.03 18:47:42.
