data_PCOD9283663
_publ_section_title
;
Structure prediction by ZEFSAII (Michael W. Deem and Ramdas Pophale) SiO2 
 PCOD9283663
Probable space group: C 2/C
;
_chemical_formula_sum "Si O2"
_cell_formula_units_Z 52
_cell_length_a 7.292954
_cell_length_b 16.661019
_cell_length_c 19.946400
_cell_angle_alpha 90.000000
_cell_angle_beta 69.128381
_cell_angle_gamma 90.000000
_cell_volume 2264.610871
_symmetry_space_group_name_H-M "C 2/C"
_symmetry_group_IT_number 15
_symmetry_cell_setting 'monoclinic'
loop_
_space_group_symop_operation_xyz
x,y,z
-x,y,1/2-z
-x,-y,-z
x,-y,1/2+z
1/2+x,1/2+y,z
1/2-x,1/2+y,1/2-z
1/2-x,1/2-y,-z
1/2+x,1/2-y,1/2+z
loop_
_atom_site_type_symbol
_atom_site_label
_atom_site_fract_x
_atom_site_fract_y
_atom_site_fract_z
Si Si1 0.000000 0.988795 0.750000
Si Si2 0.457974 0.833364 0.944916
Si Si3 0.309030 0.126232 0.728927
Si Si4 0.851637 0.110354 0.386705
Si Si5 0.952930 0.284415 0.414228
Si Si6 0.342006 0.538026 0.972161
Si Si7 0.062569 0.179290 0.880075
O O1 0.809824 0.046321 0.774107
O O2 0.992559 0.931961 0.815778
O O3 0.654780 0.855759 0.878510
O O4 0.405907 0.748644 0.917976
O O5 0.521354 0.814238 0.013474
O O6 0.305679 0.905140 0.968431
O O7 0.500000 0.108263 0.750000
O O8 0.387020 0.174692 0.654849
O O9 0.162848 0.178379 0.794643
O O10 0.951370 0.187294 0.408782
O O11 0.762735 0.039962 0.444904
O O12 0.742093 0.312204 0.410274
O O13 0.454892 0.595517 0.905817
O O14 0.500000 0.500000 0.000000
#
# Coordination Sequence:
#
# PCOD9283663 Si02
#       7
#     4   8   8   8   8   8   8
#     4  12  24  44  68  98 136 174 222 278 342 402
#     4  11  23  41  66  94 130 175 223 268 334 408
#     4  10  23  43  70  92 133 180 222 271 339 413
#     4  11  24  40  67  98 128 167 221 278 335 392
#     4  10  22  42  70  92 124 175 223 269 336 405
#     4  12  23  39  62  96 136 168 215 280 333 382
#     4  10  21  40  63  93 125 173 219 272 332 407
#
# _framework density 22.962001999999998
#
# number of rings (size 3 to 8) (size 9 to 14) (size 15 to 20)
#    0.000    1.231    1.538    5.538    5.385    2.462 
#    0.000    0.000    1.692    0.000    0.000    0.000 
#    0.000    0.000    0.000    0.000    0.000    0.000 
#
# Total GULP energy -145418.705477 kJ/mol
# GULP energy per Si atom -5593.027134 kJ/mol
# Density = 2.290974 g / cm^3
# Si number density = 22.962002 Si / 1000 Ang^3
#
#
#
# Elastic Constant Matrix: (Units=GPa)
#
#
# Indices 1 2 3 4 5 6 
#
# 1 65.6796 42.4743 17.4985 0.0000 -4.7539 0.0000
# 2 42.4743 167.1420 41.4440 0.0000 -11.2686 0.0000
# 3 17.4985 41.4440 88.8460 0.0000 -22.6054 0.0000
# 4 0.0000 0.0000 0.0000 39.8343 0.0000 -10.5311
# 5 -4.7539 -11.2686 -22.6054 0.0000 32.5569 0.0000
# 6 0.0000 0.0000 0.0000 -10.5311 0.0000 42.1673
#
#
#
# Elastic Compliance Matrix: (Units=1/GPa)
#
#
# Indices 1 2 3 4 5 6 
#
# 1 0.018427 -0.004277 -0.001611 0.000000 0.000092 0.000000
# 2 -0.004277 0.007759 -0.002736 0.000000 0.000161 0.000000
# 3 -0.001611 -0.002736 0.015241 0.000000 0.009400 0.000000
# 4 0.000000 0.000000 0.000000 0.026879 0.000000 0.006713
# 5 0.000092 0.000161 0.009400 0.000000 0.037311 0.000000
# 6 0.000000 0.000000 0.000000 0.006713 0.000000 0.025392
#
#
# Mechanical properties :
#
#
# Convention : Reuss Voigt Hill
#
# Bulk Modulus (GPa) = 41.35784 58.27792 49.81788
# Shear Modulus (GPa) = 31.98651 37.59508 34.79079
#
# Velocity S-wave (km/s) = 3.73637 4.05071 3.89671
# Velocity P-wave (km/s) = 6.05512 6.87844 6.47987
#
# Compressibility (1/GPa) = 0.02417921
#
# Stress axis : x y z
#
# Youngs Moduli (GPa) = 54.26757 128.88045 65.61449
#
# Poissons Ratio (x) = 0.55124 0.10569
# Poissons Ratio (y) = 0.23211 0.17952
# Poissons Ratio (z) = 0.08741 0.35261
#
# Static dielectric constant tensor:
#      x y z
#    x 2.088360 0.000000 -0.110020 
#    y 0.000000 1.993090 0.000000 
#    z -0.110020 0.000000 1.943560 
# 
# From -- ./inp_files/264160.got.cif
#   From: 2010.05.17/outbox.cif.g08.bks.cpg/sg15_133_cif.got.tgz:264160.got - 2010.06.03 18:47:42.
