data_PCOD9283137
_publ_section_title
;
Structure prediction by ZEFSAII (Michael W. Deem and Ramdas Pophale) SiO2 
 PCOD9283137
Probable space group: C 2/C
;
_chemical_formula_sum "Si O2"
_cell_formula_units_Z 56
_cell_length_a 7.039072
_cell_length_b 21.523585
_cell_length_c 18.289755
_cell_angle_alpha 90.000000
_cell_angle_beta 47.724748
_cell_angle_gamma 90.000000
_cell_volume 2050.329607
_symmetry_space_group_name_H-M "C 2/C"
_symmetry_group_IT_number 15
_symmetry_cell_setting 'monoclinic'
loop_
_space_group_symop_operation_xyz
x,y,z
-x,y,1/2-z
-x,-y,-z
x,-y,1/2+z
1/2+x,1/2+y,z
1/2-x,1/2+y,1/2-z
1/2-x,1/2-y,-z
1/2+x,1/2-y,1/2+z
loop_
_atom_site_type_symbol
_atom_site_label
_atom_site_fract_x
_atom_site_fract_y
_atom_site_fract_z
Si Si1 0.639634 0.299583 0.374025
Si Si2 0.657762 0.938076 0.442849
Si Si3 0.575206 0.576061 0.962418
Si Si4 0.592035 0.974354 0.306803
Si Si5 0.964745 0.694897 0.511914
Si Si6 0.700529 0.402712 0.810766
Si Si7 0.700272 0.736540 0.303953
O O1 0.702433 0.357353 0.408967
O O2 0.333649 0.306395 0.437008
O O3 0.642676 0.232778 0.411546
O O4 0.790378 0.289217 0.260444
O O5 0.897238 0.935437 0.436618
O O6 0.721274 0.937010 0.339760
O O7 0.478165 0.877878 0.500944
O O8 0.500000 0.000000 0.500000
O O9 0.437408 0.585818 0.075862
O O10 0.204533 0.476067 0.086883
O O11 0.500000 0.951362 0.250000
O O12 0.770811 0.035231 0.246903
O O13 0.951189 0.735573 0.588427
O O14 0.624411 0.334135 0.802972
O O15 0.000000 0.395810 0.750000
O O16 0.000000 0.732767 0.250000
#
# Coordination Sequence:
#
# PCOD9283137 Si02
#       7
#     8   8   8   8   8   8   8
#     4   9  18  33  66  99 130 184 229 296 354 415
#     4  11  25  41  68 102 142 186 232 290 356 429
#     4  11  24  48  72  99 145 189 234 295 362 421
#     4  11  27  45  67 103 140 186 239 289 351 433
#     4   9  18  34  60 101 132 172 245 282 351 423
#     4  10  21  39  68 101 137 188 239 286 357 426
#     4   9  17  31  61  99 133 171 240 292 340 426
#
# _framework density 27.312681999999999
#
# number of rings (size 3 to 8) (size 9 to 14) (size 15 to 20)
#    0.000    2.000    1.429    1.714   10.000    5.714 
#    0.000    2.143    0.000    0.857    0.000    0.000 
#    0.000    0.000    0.000    0.000    0.000    0.000 
#
# Total GULP energy -156459.602280 kJ/mol
# GULP energy per Si atom -5587.842939 kJ/mol
# Density = 2.725052 g / cm^3
# Si number density = 27.312682 Si / 1000 Ang^3
#
#
#
# Elastic Constant Matrix: (Units=GPa)
#
#
# Indices 1 2 3 4 5 6 
#
# 1 138.4560 15.4919 29.7888 0.0000 15.9703 0.0000
# 2 15.4919 201.7154 59.5295 0.0000 0.8568 0.0000
# 3 29.7888 59.5295 151.3401 0.0000 -2.0934 0.0000
# 4 0.0000 0.0000 0.0000 50.1708 0.0000 -3.8873
# 5 15.9703 0.8568 -2.0934 0.0000 32.4125 0.0000
# 6 0.0000 0.0000 0.0000 -3.8873 0.0000 32.5921
#
#
#
# Elastic Compliance Matrix: (Units=1/GPa)
#
#
# Indices 1 2 3 4 5 6 
#
# 1 0.008048 -0.000132 -0.001588 0.000000 -0.004064 0.000000
# 2 -0.000132 0.005613 -0.002185 0.000000 -0.000224 0.000000
# 3 -0.001588 -0.002185 0.007798 0.000000 0.001344 0.000000
# 4 0.000000 0.000000 0.000000 0.020118 0.000000 0.002399
# 5 -0.004064 -0.000224 0.001344 0.000000 0.032948 0.000000
# 6 0.000000 0.000000 0.000000 0.002399 0.000000 0.030968
#
#
# Mechanical properties :
#
#
# Convention : Reuss Voigt Hill
#
# Bulk Modulus (GPa) = 73.26797 77.90354 75.58575
# Shear Modulus (GPa) = 42.42526 48.81516 45.62021
#
# Velocity S-wave (km/s) = 3.94549 4.23220 4.09136
# Velocity P-wave (km/s) = 6.90215 7.24340 7.07483
#
# Compressibility (1/GPa) = 0.01364853
#
# Stress axis : x y z
#
# Youngs Moduli (GPa) = 124.25699 178.14356 128.23154
#
# Poissons Ratio (x) = 0.02353 0.20368
# Poissons Ratio (y) = 0.01641 0.28021
# Poissons Ratio (z) = 0.19736 0.38927
#
# Static dielectric constant tensor:
#      x y z
#    x 2.284530 0.000000 -0.005300 
#    y 0.000000 2.175320 0.000000 
#    z -0.005300 0.000000 2.116360 
# 
# From -- ./inp_files/199927.got.cif
#   From: 2010.05.17/outbox.cif.g08.bks.cpg/sg15_100_cif.got.tgz:199927.got - 2010.06.03 18:47:42.
