data_PCOD9283051
_publ_section_title
;
Structure prediction by ZEFSAII (Michael W. Deem and Ramdas Pophale) SiO2 
 PCOD9283051
Probable space group: C 2/C
;
_chemical_formula_sum "Si O2"
_cell_formula_units_Z 48
_cell_length_a 14.606266
_cell_length_b 20.143942
_cell_length_c 19.153954
_cell_angle_alpha 90.000000
_cell_angle_beta 156.541108
_cell_angle_gamma 90.000000
_cell_volume 2243.491718
_symmetry_space_group_name_H-M "C 2/C"
_symmetry_group_IT_number 15
_symmetry_cell_setting 'monoclinic'
loop_
_space_group_symop_operation_xyz
x,y,z
-x,y,1/2-z
-x,-y,-z
x,-y,1/2+z
1/2+x,1/2+y,z
1/2-x,1/2+y,1/2-z
1/2-x,1/2-y,-z
1/2+x,1/2-y,1/2+z
loop_
_atom_site_type_symbol
_atom_site_label
_atom_site_fract_x
_atom_site_fract_y
_atom_site_fract_z
Si Si1 0.561096 0.826214 0.932092
Si Si2 0.364501 0.067191 0.921324
Si Si3 0.106093 0.326403 0.490920
Si Si4 0.000000 0.255334 0.750000
Si Si5 0.427952 0.681074 0.341096
Si Si6 0.287531 0.916442 0.056367
Si Si7 0.000000 0.005839 0.750000
O O1 0.580529 0.803509 0.867186
O O2 0.311232 0.807493 0.785347
O O3 0.564687 0.902905 0.954060
O O4 0.784570 0.790422 0.122322
O O5 0.105811 0.047784 0.759641
O O6 0.430139 0.124750 0.911478
O O7 0.500000 0.000000 0.000000
O O8 0.337475 0.329869 0.698889
O O9 0.117158 0.354081 0.420881
O O10 0.055651 0.248787 0.448058
O O11 0.584729 0.615647 0.462534
O O12 0.500000 0.944575 0.250000
O O13 0.184676 0.961246 0.921524
#
# Coordination Sequence:
#
# PCOD9283051 Si02
#       7
#     8   8   8   4   8   8   4
#     4  10  21  39  66  97 133 176 220 282 343 406
#     4  11  22  41  67  90 130 185 225 267 339 401
#     4  11  22  41  67  98 137 177 223 284 346 409
#     4  10  21  40  64 100 135 168 226 280 348 404
#     4  11  21  38  65  99 135 169 222 286 350 401
#     4  12  24  43  69 101 134 179 230 284 344 408
#     4  12  23  48  70  92 139 188 228 282 336 408
#
# _framework density 21.395219999999998
#
# number of rings (size 3 to 8) (size 9 to 14) (size 15 to 20)
#    0.000    1.000    3.333    5.000    0.000    1.333 
#    1.500    0.833    3.667    0.000    0.000    0.000 
#    0.000    0.000    0.000    0.000    0.000    0.000 
#
# Total GULP energy -133620.324078 kJ/mol
# GULP energy per Si atom -5567.513503 kJ/mol
# Density = 2.134652 g / cm^3
# Si number density = 21.395220 Si / 1000 Ang^3
#
#
#
# Elastic Constant Matrix: (Units=GPa)
#
#
# Indices 1 2 3 4 5 6 
#
# 1 64.2803 29.4339 10.7211 0.0121 16.8417 0.0043
# 2 29.4339 84.3870 17.9734 -0.0081 -5.1307 0.0074
# 3 10.7211 17.9734 89.3191 -0.0370 -6.8836 0.0150
# 4 0.0121 -0.0081 -0.0370 21.5829 0.0010 1.9513
# 5 16.8417 -5.1307 -6.8836 0.0010 35.3736 -0.0024
# 6 0.0043 0.0074 0.0150 1.9513 -0.0024 35.0299
#
#
#
# Elastic Compliance Matrix: (Units=1/GPa)
#
#
# Indices 1 2 3 4 5 6 
#
# 1 0.023019 -0.008356 -0.002050 -0.000019 -0.012570 0.000000
# 2 -0.008356 0.015476 -0.001656 0.000008 0.005901 -0.000002
# 3 -0.002050 -0.001656 0.012012 0.000022 0.003073 -0.000006
# 4 -0.000019 0.000008 0.000022 0.046568 0.000013 -0.002594
# 5 -0.012570 0.005901 0.003073 0.000013 0.035709 0.000001
# 6 0.000000 -0.000002 -0.000006 -0.002594 0.000001 0.028692
#
#
# Mechanical properties :
#
#
# Convention : Reuss Voigt Hill
#
# Bulk Modulus (GPa) = 37.90604 39.36036 38.63320
# Shear Modulus (GPa) = 25.72085 30.38781 28.05433
#
# Velocity S-wave (km/s) = 3.47100 3.77279 3.62504
# Velocity P-wave (km/s) = 5.81544 6.11680 5.96803
#
# Compressibility (1/GPa) = 0.02638102
#
# Stress axis : x y z
#
# Youngs Moduli (GPa) = 43.44294 64.61435 83.24943
#
# Poissons Ratio (x) = 0.53995 0.17068
# Poissons Ratio (y) = 0.36303 0.13790
# Poissons Ratio (z) = 0.08907 0.10703
#
# Static dielectric constant tensor:
#      x y z
#    x 1.854940 -0.000030 0.090470 
#    y -0.000030 1.793480 -0.000130 
#    z 0.090470 -0.000130 1.777500 
# 
# From -- ./inp_files/277901.got.cif
#   From: 2010.05.17/outbox.cif.g08.bks.cpg/sg15_139_cif.got.tgz:277901.got - 2010.06.03 18:47:42.
