data_PCOD9283965
_publ_section_title
;
Structure prediction by ZEFSAII (Michael W. Deem and Ramdas Pophale) SiO2 
 PCOD9283965
Probable space group: C 2/C
;
_chemical_formula_sum "Si O2"
_cell_formula_units_Z 64
_cell_length_a 16.686066
_cell_length_b 9.150686
_cell_length_c 29.432615
_cell_angle_alpha 90.000000
_cell_angle_beta 139.553663
_cell_angle_gamma 90.000000
_cell_volume 2915.440421
_symmetry_space_group_name_H-M "C 2/C"
_symmetry_group_IT_number 15
_symmetry_cell_setting 'monoclinic'
loop_
_space_group_symop_operation_xyz
x,y,z
-x,y,1/2-z
-x,-y,-z
x,-y,1/2+z
1/2+x,1/2+y,z
1/2-x,1/2+y,1/2-z
1/2-x,1/2-y,-z
1/2+x,1/2-y,1/2+z
loop_
_atom_site_type_symbol
_atom_site_label
_atom_site_fract_x
_atom_site_fract_y
_atom_site_fract_z
Si Si1 0.469179 0.452656 0.915861
Si Si2 0.462899 0.427627 0.284867
Si Si3 0.393602 0.699028 0.474093
Si Si4 0.530884 0.775670 0.213134
Si Si5 0.798627 0.184034 0.792527
Si Si6 0.514004 0.085771 0.096795
Si Si7 0.108344 0.707760 0.929567
Si Si8 0.659167 0.743938 0.917054
O O1 0.430768 0.347450 0.940279
O O2 0.364596 0.558261 0.851171
O O3 0.525921 0.348999 0.903289
O O4 0.573105 0.560273 0.980286
O O5 0.500000 0.372923 0.250000
O O6 0.446579 0.600981 0.273412
O O7 0.348431 0.350392 0.262699
O O8 0.580143 0.395446 0.368472
O O9 0.465167 0.831863 0.530041
O O10 0.248775 0.724502 0.414450
O O11 0.500000 0.831307 0.250000
O O12 0.653580 0.830160 0.239701
O O13 0.412361 0.818890 0.132322
O O14 0.851680 0.341126 0.834425
O O15 0.442409 0.142712 0.110790
O O16 0.460182 0.921709 0.071896
O O17 0.250000 0.750000 0.000000
O O18 0.750000 0.750000 0.000000
#
# Coordination Sequence:
#
# PCOD9283965 Si02
#       8
#     8   8   8   8   8   8   8   8
#     4  10  21  40  65  96 135 189 232 283 357 420
#     4  10  22  43  70 103 136 183 242 292 355 421
#     4   9  19  36  64  94 136 178 228 287 342 421
#     4  11  27  46  70 102 144 191 234 298 361 421
#     4  10  22  46  72  95 141 189 238 293 355 431
#     4   9  21  37  63 101 132 180 229 286 352 416
#     4  12  26  40  67 103 142 182 236 296 361 424
#     4   9  18  36  66  91 131 178 223 278 351 417
#
# _framework density 21.952086999999999
#
# number of rings (size 3 to 8) (size 9 to 14) (size 15 to 20)
#    0.000    2.000    1.250    1.500    5.250    5.500 
#    2.250    2.500    0.000    0.000    0.000    0.000 
#    0.000    0.000    0.000    0.000    0.000    0.000 
#
# Total GULP energy -178234.086155 kJ/mol
# GULP energy per Si atom -5569.815192 kJ/mol
# Density = 2.190212 g / cm^3
# Si number density = 21.952087 Si / 1000 Ang^3
#
#
#
# Elastic Constant Matrix: (Units=GPa)
#
#
# Indices 1 2 3 4 5 6 
#
# 1 88.7824 34.9232 36.1284 0.0000 -14.6524 0.0000
# 2 34.9232 85.1366 18.7036 0.0000 -5.2866 0.0000
# 3 36.1284 18.7036 79.3953 0.0000 -7.2112 0.0000
# 4 0.0000 0.0000 0.0000 12.0216 0.0000 -8.8308
# 5 -14.6524 -5.2866 -7.2112 0.0000 38.8925 0.0000
# 6 0.0000 0.0000 0.0000 -8.8308 0.0000 23.8764
#
#
#
# Elastic Compliance Matrix: (Units=1/GPa)
#
#
# Indices 1 2 3 4 5 6 
#
# 1 0.016401 -0.005171 -0.005846 0.000000 0.004392 0.000000
# 2 -0.005171 0.014069 -0.000981 0.000000 -0.000218 0.000000
# 3 -0.005846 -0.000981 0.015536 0.000000 0.000545 0.000000
# 4 0.000000 0.000000 0.000000 0.114214 0.000000 0.042243
# 5 0.004392 -0.000218 0.000545 0.000000 0.027438 0.000000
# 6 0.000000 0.000000 0.000000 0.042243 0.000000 0.057506
#
#
# Mechanical properties :
#
#
# Convention : Reuss Voigt Hill
#
# Bulk Modulus (GPa) = 45.43387 48.09163 46.76275
# Shear Modulus (GPa) = 18.08335 25.86206 21.97270
#
# Velocity S-wave (km/s) = 2.87324 3.43609 3.16719
# Velocity P-wave (km/s) = 5.63464 6.13982 5.89264
#
# Compressibility (1/GPa) = 0.02201001
#
# Stress axis : x y z
#
# Youngs Moduli (GPa) = 60.97043 71.07864 64.36608
#
# Poissons Ratio (x) = 0.36753 0.37630
# Poissons Ratio (y) = 0.31526 0.06315
# Poissons Ratio (z) = 0.35645 0.06974
#
# Static dielectric constant tensor:
#      x y z
#    x 1.838460 0.000000 0.001340 
#    y 0.000000 1.898510 0.000000 
#    z 0.001340 0.000000 1.915790 
# 
# From -- ./inp_files/315751.got.cif
#   From: 2010.05.17/outbox.cif.g08.bks.cpg/sg15_158_cif.got.tgz:315751.got - 2010.06.03 18:47:42.
