data_PCOD9283902
_publ_section_title
;
Structure prediction by ZEFSAII (Michael W. Deem and Ramdas Pophale) SiO2 
 PCOD9283902
Probable space group: C 2/C
;
_chemical_formula_sum "Si O2"
_cell_formula_units_Z 48
_cell_length_a 10.160680
_cell_length_b 13.885467
_cell_length_c 30.870560
_cell_angle_alpha 90.000000
_cell_angle_beta 146.812644
_cell_angle_gamma 90.000000
_cell_volume 2384.051045
_symmetry_space_group_name_H-M "C 2/C"
_symmetry_group_IT_number 15
_symmetry_cell_setting 'monoclinic'
loop_
_space_group_symop_operation_xyz
x,y,z
-x,y,1/2-z
-x,-y,-z
x,-y,1/2+z
1/2+x,1/2+y,z
1/2-x,1/2+y,1/2-z
1/2-x,1/2-y,-z
1/2+x,1/2-y,1/2+z
loop_
_atom_site_type_symbol
_atom_site_label
_atom_site_fract_x
_atom_site_fract_y
_atom_site_fract_z
Si Si1 0.387336 0.150614 0.542140
Si Si2 0.538680 0.110237 0.494821
Si Si3 0.802222 0.560989 0.228437
Si Si4 0.945093 0.186047 0.185428
Si Si5 0.960813 0.966298 0.064498
Si Si6 0.585469 0.102932 0.854829
O O1 0.250000 0.250000 0.500000
O O2 0.561770 0.156274 0.548679
O O3 0.490943 0.134680 0.618206
O O4 0.196905 0.062100 0.487068
O O5 0.307353 0.148418 0.404737
O O6 0.770678 0.112824 0.528402
O O7 0.500000 0.000000 0.500000
O O8 0.648886 0.639581 0.211256
O O9 0.630698 0.495469 0.151287
O O10 0.000000 0.603425 0.250000
O O11 0.934009 0.488120 0.297289
O O12 0.946427 0.301584 0.182657
O O13 0.000000 0.156579 0.250000
O O14 0.135215 0.929109 0.074642
#
# Coordination Sequence:
#
# PCOD9283902 Si02
#       6
#     8   8   8   8   8   8
#     4  11  20  40  64  93 123 163 209 255 306 363
#     4  10  21  40  65  92 126 160 206 262 308 365
#     4  10  22  42  65  87 129 164 209 259 310 372
#     4  12  24  43  64  92 127 166 208 257 315 371
#     4  10  21  41  63  94 125 163 205 257 314 367
#     4  11  24  42  64  93 127 168 205 259 311 373
#
# _framework density 20.133797000000001
#
# number of rings (size 3 to 8) (size 9 to 14) (size 15 to 20)
#    0.000    1.333    5.000    2.000    4.667    0.667 
#    0.000    7.500    0.000    0.000    0.000    0.000 
#    0.000    0.000    0.000    0.000    0.000    0.000 
#
# Total GULP energy -133840.668329 kJ/mol
# GULP energy per Si atom -5576.694514 kJ/mol
# Density = 2.008797 g / cm^3
# Si number density = 20.133797 Si / 1000 Ang^3
#
#
#
# Elastic Constant Matrix: (Units=GPa)
#
#
# Indices 1 2 3 4 5 6 
#
# 1 101.2928 23.7308 52.0682 0.0000 -2.6665 0.0000
# 2 23.7308 59.5766 -6.3181 0.0000 10.6548 0.0000
# 3 52.0682 -6.3181 54.6094 0.0001 -2.5397 0.0000
# 4 0.0000 0.0000 0.0001 27.0712 0.0000 -0.2512
# 5 -2.6665 10.6548 -2.5397 0.0000 40.2857 0.0000
# 6 0.0000 0.0000 0.0000 -0.2512 0.0000 27.0589
#
#
#
# Elastic Compliance Matrix: (Units=1/GPa)
#
#
# Indices 1 2 3 4 5 6 
#
# 1 0.027919 -0.014820 -0.028149 0.000000 0.003993 0.000000
# 2 -0.014820 0.025669 0.016788 0.000000 -0.006712 0.000000
# 3 -0.028149 0.016788 0.046938 0.000000 -0.003344 0.000000
# 4 0.000000 0.000000 0.000000 0.036943 0.000000 0.000343
# 5 0.003993 -0.006712 -0.003344 0.000000 0.026651 0.000000
# 6 0.000000 0.000000 0.000000 0.000343 0.000000 0.036960
#
#
# Mechanical properties :
#
#
# Convention : Reuss Voigt Hill
#
# Bulk Modulus (GPa) = 20.76231 39.38230 30.07231
# Shear Modulus (GPa) = 18.55317 28.61634 23.58475
#
# Velocity S-wave (km/s) = 3.03890 3.77411 3.42629
# Velocity P-wave (km/s) = 4.75897 6.21246 5.53365
#
# Compressibility (1/GPa) = 0.04816419
#
# Stress axis : x y z
#
# Youngs Moduli (GPa) = 35.81780 38.95743 21.30486
#
# Poissons Ratio (x) = 0.57736 0.59971
# Poissons Ratio (y) = 0.53083 -0.35767
# Poissons Ratio (z) = 1.00823 -0.65403
#
# Static dielectric constant tensor:
#      x y z
#    x 1.787310 0.000000 -0.014010 
#    y 0.000000 1.698450 0.000000 
#    z -0.014010 0.000000 1.723110 
# 
# From -- ./inp_files/308126.got.cif
#   From: 2010.05.17/outbox.cif.g08.bks.cpg/sg15_155_cif.got.tgz:308126.got - 2010.06.03 18:47:42.
