data_PCOD9283964
_publ_section_title
;
Structure prediction by ZEFSAII (Michael W. Deem and Ramdas Pophale) SiO2 
 PCOD9283964
Probable space group: C 2/C
;
_chemical_formula_sum "Si O2"
_cell_formula_units_Z 44
_cell_length_a 5.609423
_cell_length_b 23.365469
_cell_length_c 12.755636
_cell_angle_alpha 90.000000
_cell_angle_beta 94.698930
_cell_angle_gamma 90.000000
_cell_volume 1666.221188
_symmetry_space_group_name_H-M "C 2/C"
_symmetry_group_IT_number 15
_symmetry_cell_setting 'monoclinic'
loop_
_space_group_symop_operation_xyz
x,y,z
-x,y,1/2-z
-x,-y,-z
x,-y,1/2+z
1/2+x,1/2+y,z
1/2-x,1/2+y,1/2-z
1/2-x,1/2-y,-z
1/2+x,1/2-y,1/2+z
loop_
_atom_site_type_symbol
_atom_site_label
_atom_site_fract_x
_atom_site_fract_y
_atom_site_fract_z
Si Si1 0.000000 0.899021 0.250000
Si Si2 0.356947 0.226062 0.633886
Si Si3 0.313308 0.980504 0.150799
Si Si4 0.500000 0.214274 0.250000
Si Si5 0.901647 0.383607 0.419018
Si Si6 0.500000 0.422757 0.750000
Si Si7 0.591056 0.339111 0.597070
O O1 0.087608 0.939134 0.158039
O O2 0.235871 0.872686 0.309066
O O3 0.500000 0.228250 0.750000
O O4 0.096778 0.244440 0.662230
O O5 0.395806 0.165048 0.582874
O O6 0.466657 0.278353 0.571029
O O7 0.500000 0.971287 0.250000
O O8 0.473106 0.946575 0.068021
O O9 0.191015 0.039742 0.188519
O O10 0.702171 0.176161 0.311074
O O11 0.726299 0.368510 0.506954
O O12 0.411526 0.381875 0.651751
#
# Coordination Sequence:
#
# PCOD9283964 Si02
#       7
#     4   8   8   4   8   4   8
#     4   9  20  43  64  92 134 168 206 280 330 377
#     4  10  21  40  65  96 135 174 216 271 330 398
#     4   9  21  40  65  93 127 176 214 277 329 379
#     4  10  22  42  64  90 133 182 211 262 342 378
#     4  11  23  40  68 101 131 168 229 270 334 393
#     4  11  22  43  66  88 143 170 225 276 324 395
#     4  11  24  41  65  99 131 178 222 270 329 404
#
# _framework density 26.407060999999999
#
# number of rings (size 3 to 8) (size 9 to 14) (size 15 to 20)
#    0.000    1.818    2.727    2.182    1.273   10.182 
#    0.000    8.182    0.000    6.545    0.000    0.000 
#    0.000    0.000    0.000    0.000    0.000    0.000 
#
# Total GULP energy -122595.128601 kJ/mol
# GULP energy per Si atom -5572.505846 kJ/mol
# Density = 2.634696 g / cm^3
# Si number density = 26.407061 Si / 1000 Ang^3
#
#
#
# Elastic Constant Matrix: (Units=GPa)
#
#
# Indices 1 2 3 4 5 6 
#
# 1 68.2047 35.8988 16.8823 0.0000 -13.6528 0.0000
# 2 35.8988 154.3265 66.8496 0.0000 -23.6488 0.0000
# 3 16.8823 66.8496 110.8560 0.0000 -32.9016 0.0000
# 4 0.0000 0.0000 0.0000 41.3730 0.0000 -15.3987
# 5 -13.6528 -23.6488 -32.9016 0.0000 48.9892 0.0000
# 6 0.0000 0.0000 0.0000 -15.3987 0.0000 15.8750
#
#
#
# Elastic Compliance Matrix: (Units=1/GPa)
#
#
# Indices 1 2 3 4 5 6 
#
# 1 0.017158 -0.003756 0.000666 0.000000 0.003416 0.000000
# 2 -0.003756 0.009622 -0.005199 0.000000 0.000107 0.000000
# 3 0.000666 -0.005199 0.014194 0.000000 0.007209 0.000000
# 4 0.000000 0.000000 0.000000 0.037827 0.000000 0.036692
# 5 0.003416 0.000107 0.007209 0.000000 0.026257 0.000000
# 6 0.000000 0.000000 0.000000 0.036692 0.000000 0.098583
#
#
# Mechanical properties :
#
#
# Convention : Reuss Voigt Hill
#
# Bulk Modulus (GPa) = 40.99129 63.62762 52.30945
# Shear Modulus (GPa) = 21.89620 35.49788 28.69704
#
# Velocity S-wave (km/s) = 2.88267 3.67039 3.30012
# Velocity P-wave (km/s) = 5.16103 6.48919 5.86284
#
# Compressibility (1/GPa) = 0.02439543
#
# Stress axis : x y z
#
# Youngs Moduli (GPa) = 58.28297 103.93187 70.45388
#
# Poissons Ratio (x) = 0.39039 -0.04692
# Poissons Ratio (y) = 0.21892 0.36626
# Poissons Ratio (z) = -0.03881 0.54029
#
# Static dielectric constant tensor:
#      x y z
#    x 2.124740 0.000000 -0.051820 
#    y 0.000000 2.221500 0.000000 
#    z -0.051820 0.000000 2.128960 
# 
# From -- ./inp_files/129418.got.cif
#   From: 2010.05.17/outbox.cif.g08.bks.cpg/sg15_65_cif.got.tgz:129418.got - 2010.06.03 18:47:42.
