data_PCOD9283803
_publ_section_title
;
Structure prediction by ZEFSAII (Michael W. Deem and Ramdas Pophale) SiO2 
 PCOD9283803
Probable space group: C 2/C
;
_chemical_formula_sum "Si O2"
_cell_formula_units_Z 64
_cell_length_a 14.121550
_cell_length_b 17.289098
_cell_length_c 16.198847
_cell_angle_alpha 90.000000
_cell_angle_beta 133.384329
_cell_angle_gamma 90.000000
_cell_volume 2874.295131
_symmetry_space_group_name_H-M "C 2/C"
_symmetry_group_IT_number 15
_symmetry_cell_setting 'monoclinic'
loop_
_space_group_symop_operation_xyz
x,y,z
-x,y,1/2-z
-x,-y,-z
x,-y,1/2+z
1/2+x,1/2+y,z
1/2-x,1/2+y,1/2-z
1/2-x,1/2-y,-z
1/2+x,1/2-y,1/2+z
loop_
_atom_site_type_symbol
_atom_site_label
_atom_site_fract_x
_atom_site_fract_y
_atom_site_fract_z
Si Si1 0.512436 0.325072 0.924848
Si Si2 0.620872 0.396502 0.263358
Si Si3 0.187866 0.352186 0.982231
Si Si4 0.513965 0.842102 0.377979
Si Si5 0.963767 0.420556 0.934558
Si Si6 0.922634 0.194957 0.543445
Si Si7 0.698977 0.538521 0.199733
Si Si8 0.716464 0.903898 0.365995
O O1 0.524097 0.251283 0.870666
O O2 0.422728 0.402441 0.862988
O O3 0.441807 0.286993 0.960986
O O4 0.655786 0.355017 0.033893
O O5 0.500000 0.418126 0.250000
O O6 0.728586 0.354821 0.383024
O O7 0.553591 0.341655 0.156306
O O8 0.675391 0.471513 0.252865
O O9 0.298612 0.361456 0.980309
O O10 0.116263 0.270469 0.929063
O O11 0.073103 0.410640 0.929626
O O12 0.535483 0.862457 0.487073
O O13 0.618771 0.891019 0.385771
O O14 0.371756 0.869830 0.261662
O O15 0.827715 0.417710 0.806253
O O16 0.000000 0.500000 0.000000
O O17 0.731232 0.487668 0.136019
#
# Coordination Sequence:
#
# PCOD9283803 Si02
#       8
#     8   8   8   8   8   8   8   8
#     4  12  26  44  72 101 142 187 241 294 361 431
#     4  10  21  40  64  94 135 177 225 297 359 425
#     4  10  21  41  64  98 129 170 228 283 359 418
#     4  11  26  47  74 104 143 193 237 300 361 440
#     4  12  23  43  70  99 138 188 236 289 358 434
#     4  10  22  38  69  94 129 174 220 288 354 425
#     4  12  26  44  70 105 140 192 241 299 358 439
#     4  11  25  49  71 101 150 186 241 301 369 421
#
# _framework density 22.266328999999999
#
# number of rings (size 3 to 8) (size 9 to 14) (size 15 to 20)
#    0.000    1.000    5.000    0.750    1.750    3.000 
#    2.250    1.250    0.000    0.000    0.000    0.000 
#    0.000    0.000    0.000    0.000    0.000    0.000 
#
# Total GULP energy -178444.367286 kJ/mol
# GULP energy per Si atom -5576.386478 kJ/mol
# Density = 2.221565 g / cm^3
# Si number density = 22.266329 Si / 1000 Ang^3
#
#
#
# Elastic Constant Matrix: (Units=GPa)
#
#
# Indices 1 2 3 4 5 6 
#
# 1 61.5796 18.2779 23.6366 0.0000 6.8239 0.0000
# 2 18.2779 108.8768 27.5083 0.0000 0.0170 0.0000
# 3 23.6366 27.5083 65.7114 0.0000 31.4501 0.0000
# 4 0.0000 0.0000 0.0000 -28.0987 0.0000 16.1455
# 5 6.8239 0.0170 31.4501 0.0000 38.1944 0.0000
# 6 0.0000 0.0000 0.0000 16.1455 0.0000 28.0441
#
#
#
# Elastic Compliance Matrix: (Units=1/GPa)
#
#
# Indices 1 2 3 4 5 6 
#
# 1 0.019294 -0.001252 -0.007867 0.000000 0.003031 0.000000
# 2 -0.001252 0.011206 -0.007172 0.000000 0.006124 0.000000
# 3 -0.007867 -0.007172 0.033629 0.000000 -0.026282 0.000000
# 4 0.000000 0.000000 0.000000 -0.026742 0.000000 0.015396
# 5 0.003031 0.006124 -0.026282 0.000000 0.047279 0.000000
# 6 0.000000 0.000000 0.000000 0.015396 0.000000 0.026794
#
#
# Mechanical properties :
#
#
# Convention : Reuss Voigt Hill
#
# Bulk Modulus (GPa) = 31.69766 41.66815 36.68291
# Shear Modulus (GPa) = 32.35037 18.74428 25.54733
#
# Velocity S-wave (km/s) = 3.81581 2.90456 3.39093
# Velocity P-wave (km/s) = 5.80348 5.47748 5.64284
#
# Compressibility (1/GPa) = 0.03154807
#
# Stress axis : x y z
#
# Youngs Moduli (GPa) = 51.82830 89.23877 29.73624
#
# Poissons Ratio (x) = 0.11172 0.23393
# Poissons Ratio (y) = 0.06489 0.21326
# Poissons Ratio (z) = 0.40773 0.64000
#
# Static dielectric constant tensor:
#      x y z
#    x 1.868450 0.000000 -0.015360 
#    y 0.000000 1.901730 0.000000 
#    z -0.015360 0.000000 1.812460 
# 
# From -- ./inp_files/206476.got.cif
#   From: 2010.05.17/outbox.cif.g08.bks.cpg/sg15_104_cif.got.tgz:206476.got - 2010.06.03 18:47:42.
