data_PCOD9283673
_publ_section_title
;
Structure prediction by ZEFSAII (Michael W. Deem and Ramdas Pophale) SiO2 
 PCOD9283673
Probable space group: C 2/C
;
_chemical_formula_sum "Si O2"
_cell_formula_units_Z 56
_cell_length_a 15.038774
_cell_length_b 14.966438
_cell_length_c 15.393124
_cell_angle_alpha 90.000000
_cell_angle_beta 132.761766
_cell_angle_gamma 90.000000
_cell_volume 2543.677416
_symmetry_space_group_name_H-M "C 2/C"
_symmetry_group_IT_number 15
_symmetry_cell_setting 'monoclinic'
loop_
_space_group_symop_operation_xyz
x,y,z
-x,y,1/2-z
-x,-y,-z
x,-y,1/2+z
1/2+x,1/2+y,z
1/2-x,1/2+y,1/2-z
1/2-x,1/2-y,-z
1/2+x,1/2-y,1/2+z
loop_
_atom_site_type_symbol
_atom_site_label
_atom_site_fract_x
_atom_site_fract_y
_atom_site_fract_z
Si Si1 0.292626 0.516705 0.157412
Si Si2 0.039949 0.853567 0.468359
Si Si3 0.023697 0.671288 0.020489
Si Si4 0.500000 0.616736 0.750000
Si Si5 0.912027 0.618078 0.768694
Si Si6 0.833473 0.986854 0.382624
Si Si7 0.280397 0.285970 0.615564
Si Si8 0.000000 0.500000 0.000000
O O1 0.378554 0.442884 0.172289
O O2 0.336023 0.522309 0.285982
O O3 0.319945 0.612078 0.132658
O O4 0.149779 0.497889 0.066783
O O5 0.060865 0.755804 0.521773
O O6 0.000809 0.834696 0.343307
O O7 0.144010 0.927761 0.542373
O O8 0.935285 0.908576 0.451005
O O9 0.973863 0.609432 0.905299
O O10 0.031488 0.587339 0.088079
O O11 0.154824 0.709549 0.085598
O O12 0.791746 0.561621 0.684232
O O13 0.874303 0.721033 0.725731
O O14 0.000000 0.592221 0.750000
O O15 0.250000 0.250000 0.500000
#
# Coordination Sequence:
#
# PCOD9283673 Si02
#       8
#     8   8   8   4   8   8   8   4
#     4  10  22  40  61  92 134 176 220 274 339 397
#     4  10  22  41  68  91 130 174 226 273 321 395
#     4  11  22  41  65  92 129 176 216 270 337 403
#     4  10  24  40  68  96 130 174 234 284 316 398
#     4  12  23  36  62  99 139 163 216 278 337 403
#     4  10  21  40  63  94 130 178 218 261 335 411
#     4  11  23  35  60  97 131 164 215 275 338 402
#     4  10  22  40  66  88 128 176 218 270 334 404
#
# _framework density 22.015370999999998
#
# number of rings (size 3 to 8) (size 9 to 14) (size 15 to 20)
#    0.000    1.429    4.286    0.857    3.000    1.143 
#    0.000    0.714    1.571    0.000    0.000    0.000 
#    0.000    0.000    0.000    0.000    0.000    0.000 
#
# Total GULP energy -155916.269337 kJ/mol
# GULP energy per Si atom -5568.438191 kJ/mol
# Density = 2.196526 g / cm^3
# Si number density = 22.015371 Si / 1000 Ang^3
#
#
#
# Elastic Constant Matrix: (Units=GPa)
#
#
# Indices 1 2 3 4 5 6 
#
# 1 61.2657 13.9520 25.6352 0.0000 7.5905 0.0000
# 2 13.9520 104.7878 12.4572 0.0000 -2.7059 0.0000
# 3 25.6352 12.4572 57.7107 0.0000 8.5396 0.0000
# 4 0.0000 0.0000 0.0000 26.5727 0.0000 8.9024
# 5 7.5905 -2.7059 8.5396 0.0000 36.0428 0.0000
# 6 0.0000 0.0000 0.0000 8.9024 0.0000 20.1394
#
#
#
# Elastic Compliance Matrix: (Units=1/GPa)
#
#
# Indices 1 2 3 4 5 6 
#
# 1 0.020542 -0.001804 -0.008369 0.000000 -0.002479 0.000000
# 2 -0.001804 0.010010 -0.001582 0.000000 0.001506 0.000000
# 3 -0.008369 -0.001582 0.021912 0.000000 -0.003548 0.000000
# 4 0.000000 0.000000 0.000000 0.044174 0.000000 -0.019527
# 5 -0.002479 0.001506 -0.003548 0.000000 0.029221 0.000000
# 6 0.000000 0.000000 0.000000 -0.019527 0.000000 0.058286
#
#
# Mechanical properties :
#
#
# Convention : Reuss Voigt Hill
#
# Bulk Modulus (GPa) = 34.53767 36.42814 35.48291
# Shear Modulus (GPa) = 23.00905 27.99896 25.50400
#
# Velocity S-wave (km/s) = 3.23636 3.57009 3.40731
# Velocity P-wave (km/s) = 5.44862 5.79454 5.62424
#
# Compressibility (1/GPa) = 0.02895389
#
# Stress axis : x y z
#
# Youngs Moduli (GPa) = 48.68088 99.89695 45.63782
#
# Poissons Ratio (x) = 0.18024 0.38192
# Poissons Ratio (y) = 0.08783 0.07221
# Poissons Ratio (z) = 0.40739 0.15806
#
# Static dielectric constant tensor:
#      x y z
#    x 1.669880 0.000000 0.348940 
#    y 0.000000 17.395060 0.000000 
#    z 0.348940 0.000000 1.111760 
# 
# From -- ./inp_files/205515.got.cif
#   From: 2010.05.17/outbox.cif.g08.bks.cpg/sg15_103_cif.got.tgz:205515.got - 2010.06.03 18:47:42.
