data_PCOD9283911
_publ_section_title
;
Structure prediction by ZEFSAII (Michael W. Deem and Ramdas Pophale) SiO2 
 PCOD9283911
Probable space group: C 2/C
;
_chemical_formula_sum "Si O2"
_cell_formula_units_Z 44
_cell_length_a 8.686905
_cell_length_b 17.260933
_cell_length_c 17.202537
_cell_angle_alpha 90.000000
_cell_angle_beta 125.894734
_cell_angle_gamma 90.000000
_cell_volume 2089.575537
_symmetry_space_group_name_H-M "C 2/C"
_symmetry_group_IT_number 15
_symmetry_cell_setting 'monoclinic'
loop_
_space_group_symop_operation_xyz
x,y,z
-x,y,1/2-z
-x,-y,-z
x,-y,1/2+z
1/2+x,1/2+y,z
1/2-x,1/2+y,1/2-z
1/2-x,1/2-y,-z
1/2+x,1/2-y,1/2+z
loop_
_atom_site_type_symbol
_atom_site_label
_atom_site_fract_x
_atom_site_fract_y
_atom_site_fract_z
Si Si1 0.139934 0.713504 0.396450
Si Si2 0.904078 0.574690 0.806469
Si Si3 0.000000 0.137106 0.250000
Si Si4 0.707285 0.041759 0.442039
Si Si5 0.955750 0.008751 0.359494
Si Si6 0.740248 0.245066 0.731495
O O1 0.250000 0.750000 0.500000
O O2 0.100293 0.623591 0.403179
O O3 0.258710 0.714519 0.351992
O O4 0.956936 0.765239 0.322633
O O5 0.696499 0.535647 0.739655
O O6 0.872545 0.665336 0.811110
O O7 0.000000 0.568254 0.750000
O O8 0.051744 0.526671 0.902763
O O9 0.969909 0.082067 0.166922
O O10 0.162722 0.196093 0.272570
O O11 0.832424 0.030854 0.399931
O O12 0.862741 0.039164 0.556575
#
# Coordination Sequence:
#
# PCOD9283911 Si02
#       6
#     8   8   4   8   8   8
#     4  11  24  43  67  93 137 178 224 273 336 400
#     4  10  21  40  65  92 132 170 215 272 333 391
#     4  12  22  42  66 100 130 166 222 284 332 384
#     4  10  21  41  64  94 128 178 216 264 335 399
#     4  10  22  38  65  93 129 169 218 269 329 399
#     4  11  24  42  66  98 132 174 222 278 337 392
#
# _framework density 21.056908
#
# number of rings (size 3 to 8) (size 9 to 14) (size 15 to 20)
#    0.000    1.455    2.727    2.182    5.091    4.364 
#    0.000    4.545    0.000    0.000    0.000    0.000 
#    0.000    0.000    0.000    0.000    0.000    0.000 
#
# Total GULP energy -122791.534394 kJ/mol
# GULP energy per Si atom -5581.433382 kJ/mol
# Density = 2.100898 g / cm^3
# Si number density = 21.056908 Si / 1000 Ang^3
#
#
#
# Elastic Constant Matrix: (Units=GPa)
#
#
# Indices 1 2 3 4 5 6 
#
# 1 69.5103 34.3953 35.5008 0.0000 9.0273 0.0000
# 2 34.3953 114.6935 27.1973 0.0000 12.7278 0.0000
# 3 35.5008 27.1973 93.9800 0.0000 15.4333 0.0000
# 4 0.0000 0.0000 0.0000 27.6733 0.0000 -10.7666
# 5 9.0273 12.7278 15.4333 0.0000 16.4712 0.0000
# 6 0.0000 0.0000 0.0000 -10.7666 0.0000 17.3976
#
#
#
# Elastic Compliance Matrix: (Units=1/GPa)
#
#
# Indices 1 2 3 4 5 6 
#
# 1 0.019794 -0.004316 -0.005903 0.000000 -0.001983 0.000000
# 2 -0.004316 0.010752 -0.000597 0.000000 -0.005384 0.000000
# 3 -0.005903 -0.000597 0.014698 0.000000 -0.010075 0.000000
# 4 0.000000 0.000000 0.000000 0.047596 0.000000 0.029455
# 5 -0.001983 -0.005384 -0.010075 0.000000 0.075399 0.000000
# 6 0.000000 0.000000 0.000000 0.029455 0.000000 0.075707
#
#
# Mechanical properties :
#
#
# Convention : Reuss Voigt Hill
#
# Bulk Modulus (GPa) = 42.35118 52.48562 47.41840
# Shear Modulus (GPa) = 18.28497 24.38111 21.33304
#
# Velocity S-wave (km/s) = 2.94999 3.40644 3.18640
# Velocity P-wave (km/s) = 5.63557 6.36015 6.00879
#
# Compressibility (1/GPa) = 0.02361209
#
# Stress axis : x y z
#
# Youngs Moduli (GPa) = 50.51969 93.00290 68.03865
#
# Poissons Ratio (x) = 0.40144 0.40160
# Poissons Ratio (y) = 0.21806 0.04062
# Poissons Ratio (z) = 0.29819 0.05553
#
# Static dielectric constant tensor:
#      x y z
#    x 1.811680 0.000000 -0.009050 
#    y 0.000000 1.754970 0.000000 
#    z -0.009050 0.000000 1.733510 
# 
# From -- ./inp_files/189336.got.cif
#   From: 2010.05.17/outbox.cif.g08.bks.cpg/sg15_95_cif.got.tgz:189336.got - 2010.06.03 18:47:42.
