data_PCOD9283366
_publ_section_title
;
Structure prediction by ZEFSAII (Michael W. Deem and Ramdas Pophale) SiO2 
 PCOD9283366
Probable space group: C 2/C
;
_chemical_formula_sum "Si O2"
_cell_formula_units_Z 48
_cell_length_a 19.382107
_cell_length_b 4.915408
_cell_length_c 22.397007
_cell_angle_alpha 90.000000
_cell_angle_beta 68.544356
_cell_angle_gamma 90.000000
_cell_volume 1985.915356
_symmetry_space_group_name_H-M "C 2/C"
_symmetry_group_IT_number 15
_symmetry_cell_setting 'monoclinic'
loop_
_space_group_symop_operation_xyz
x,y,z
-x,y,1/2-z
-x,-y,-z
x,-y,1/2+z
1/2+x,1/2+y,z
1/2-x,1/2+y,1/2-z
1/2-x,1/2-y,-z
1/2+x,1/2-y,1/2+z
loop_
_atom_site_type_symbol
_atom_site_label
_atom_site_fract_x
_atom_site_fract_y
_atom_site_fract_z
Si Si1 0.670974 0.753011 0.106442
Si Si2 0.204449 0.328205 0.694702
Si Si3 0.701479 0.042842 0.977611
Si Si4 0.016477 0.178422 0.121350
Si Si5 0.541376 0.179925 0.035270
Si Si6 0.149807 0.826336 0.783688
O O1 0.680557 0.029315 0.140614
O O2 0.746008 0.576290 0.090172
O O3 0.589808 0.620279 0.138237
O O4 0.675833 0.814940 0.033512
O O5 0.176887 0.030868 0.722914
O O6 0.292347 0.364628 0.679959
O O7 0.164562 0.523244 0.755952
O O8 0.750000 0.250000 0.000000
O O9 0.625560 0.187047 0.985102
O O10 0.028643 0.492282 0.098287
O O11 0.936228 0.138045 0.175177
O O12 0.018792 0.978759 0.063286
O O13 0.500000 0.000000 0.000000
#
# Coordination Sequence:
#
# PCOD9283366 Si02
#       6
#     8   8   8   8   8   8
#     4  10  23  39  63  93 125 168 205 259 320 374
#     4  10  23  42  66  92 122 167 214 261 323 379
#     4  10  21  40  60  91 131 162 210 255 308 390
#     4  11  23  42  62  91 132 161 208 270 310 377
#     4  11  24  39  62  95 127 169 212 253 319 377
#     4  10  23  43  63  94 125 161 219 266 311 384
#
# _framework density 24.170211999999999
#
# number of rings (size 3 to 8) (size 9 to 14) (size 15 to 20)
#    0.000    1.667    1.667    1.500    4.667    2.000 
#    0.000    1.667    0.000    0.000    0.000    0.000 
#    0.000    0.000    0.000    0.000    0.000    0.000 
#
# Total GULP energy -134090.264582 kJ/mol
# GULP energy per Si atom -5587.094358 kJ/mol
# Density = 2.411520 g / cm^3
# Si number density = 24.170212 Si / 1000 Ang^3
#
#
#
# Elastic Constant Matrix: (Units=GPa)
#
#
# Indices 1 2 3 4 5 6 
#
# 1 153.6699 4.3226 60.2175 0.0056 -42.9999 0.0105
# 2 4.3226 77.2302 4.4196 0.0069 -9.6393 -0.0025
# 3 60.2175 4.4196 84.9864 -0.0090 -27.6719 0.0039
# 4 0.0056 0.0069 -0.0090 37.1737 0.0031 3.5741
# 5 -42.9999 -9.6393 -27.6719 0.0031 52.5410 0.0107
# 6 0.0105 -0.0025 0.0039 3.5741 0.0107 33.7760
#
#
#
# Elastic Compliance Matrix: (Units=1/GPa)
#
#
# Indices 1 2 3 4 5 6 
#
# 1 0.010174 0.000434 -0.005424 -0.000003 0.005549 -0.000004
# 2 0.000434 0.013271 -0.000107 -0.000003 0.002733 0.000000
# 3 -0.005424 -0.000107 0.017095 0.000005 0.004545 -0.000002
# 4 -0.000003 -0.000003 0.000005 0.027177 -0.000001 -0.002876
# 5 0.005549 0.002733 0.004545 -0.000001 0.026469 -0.000010
# 6 -0.000004 0.000000 -0.000002 -0.002876 -0.000010 0.029911
#
#
# Mechanical properties :
#
#
# Convention : Reuss Voigt Hill
#
# Bulk Modulus (GPa) = 32.95582 50.42288 41.68935
# Shear Modulus (GPa) = 34.62401 41.15993 37.89197
#
# Velocity S-wave (km/s) = 3.78895 4.13112 3.96373
# Velocity P-wave (km/s) = 5.72766 6.60770 6.18336
#
# Compressibility (1/GPa) = 0.03034366
#
# Stress axis : x y z
#
# Youngs Moduli (GPa) = 98.29446 75.35056 58.49534
#
# Poissons Ratio (x) = -0.03267 0.31730
# Poissons Ratio (y) = -0.04261 0.00629
# Poissons Ratio (z) = 0.53318 0.00810
#
# Static dielectric constant tensor:
#      x y z
#    x 1.983390 -0.000010 0.051640 
#    y -0.000010 1.933730 -0.000010 
#    z 0.051640 -0.000010 1.975870 
# 
# From -- ./inp_files/275827.got.cif
#   From: 2010.05.17/outbox.cif.g08.bks.cpg/sg15_138_cif.got.tgz:275827.got - 2010.06.03 18:47:42.
