data_PCOD9283463
_publ_section_title
;
Structure prediction by ZEFSAII (Michael W. Deem and Ramdas Pophale) SiO2 
 PCOD9283463
Probable space group: C 2/C
;
_chemical_formula_sum "Si O2"
_cell_formula_units_Z 48
_cell_length_a 23.645150
_cell_length_b 13.413010
_cell_length_c 20.972868
_cell_angle_alpha 90.000000
_cell_angle_beta 17.262568
_cell_angle_gamma 90.000000
_cell_volume 1973.869407
_symmetry_space_group_name_H-M "C 2/C"
_symmetry_group_IT_number 15
_symmetry_cell_setting 'monoclinic'
loop_
_space_group_symop_operation_xyz
x,y,z
-x,y,1/2-z
-x,-y,-z
x,-y,1/2+z
1/2+x,1/2+y,z
1/2-x,1/2+y,1/2-z
1/2-x,1/2-y,-z
1/2+x,1/2-y,1/2+z
loop_
_atom_site_type_symbol
_atom_site_label
_atom_site_fract_x
_atom_site_fract_y
_atom_site_fract_z
Si Si1 0.892670 0.047872 0.298850
Si Si2 0.096671 0.868360 0.028559
Si Si3 0.783994 0.161136 0.621886
Si Si4 0.222650 0.496753 0.776967
Si Si5 0.102646 0.681594 0.199050
Si Si6 0.880348 0.384196 0.495265
O O1 0.684097 0.089843 0.506967
O O2 0.000000 0.051317 0.250000
O O3 0.027403 0.120636 0.113418
O O4 0.925305 0.936145 0.238662
O O5 0.275134 0.884434 0.884596
O O6 0.167878 0.914431 0.884744
O O7 0.029789 0.754397 0.114181
O O8 0.785705 0.107017 0.688617
O O9 0.794464 0.278862 0.610542
O O10 0.601680 0.123819 0.776865
O O11 0.223548 0.466767 0.849053
O O12 0.000000 0.500000 0.000000
O O13 0.000000 0.628489 0.250000
O O14 0.250000 0.750000 0.000000
#
# Coordination Sequence:
#
# PCOD9283463 Si02
#       6
#     8   8   8   8   8   8
#     4  11  24  43  65  92 131 173 227 273 335 406
#     4  10  21  40  61  96 128 172 219 271 342 407
#     4  10  22  43  64  96 128 167 226 270 336 395
#     4   9  22  42  63  94 133 165 223 270 325 407
#     4   9  18  37  61  90 132 165 213 274 329 409
#     4  11  22  44  67  90 134 176 211 289 332 388
#
# _framework density 24.317716999999998
#
# number of rings (size 3 to 8) (size 9 to 14) (size 15 to 20)
#    0.000    2.000    1.667    1.500    0.000    6.667 
#   30.000    0.000    0.000    0.000    0.000    0.000 
#    0.000    0.000    0.000    0.000    0.000    0.000 
#
# Total GULP energy -133923.967410 kJ/mol
# GULP energy per Si atom -5580.165309 kJ/mol
# Density = 2.426237 g / cm^3
# Si number density = 24.317717 Si / 1000 Ang^3
#
#
#
# Elastic Constant Matrix: (Units=GPa)
#
#
# Indices 1 2 3 4 5 6 
#
# 1 80.4588 21.6324 22.2157 0.0029 -33.5319 -0.0027
# 2 21.6324 98.5341 19.9234 -0.0035 -7.0410 0.0010
# 3 22.2157 19.9234 84.5764 0.0057 -11.0485 -0.0109
# 4 0.0029 -0.0035 0.0057 26.6452 -0.0031 -11.4167
# 5 -33.5319 -7.0410 -11.0485 -0.0031 32.5139 0.0080
# 6 -0.0027 0.0010 -0.0109 -11.4167 0.0080 16.3115
#
#
#
# Elastic Compliance Matrix: (Units=1/GPa)
#
#
# Indices 1 2 3 4 5 6 
#
# 1 0.023323 -0.003009 -0.002470 -0.000005 0.022562 -0.000012
# 2 -0.003009 0.011117 -0.002009 0.000002 -0.001378 -0.000001
# 3 -0.002470 -0.002009 0.013139 0.000001 0.001482 0.000008
# 4 -0.000005 0.000002 0.000001 0.053607 -0.000009 0.037520
# 5 0.022562 -0.001378 0.001482 -0.000009 0.054230 -0.000028
# 6 -0.000012 -0.000001 0.000008 0.037520 -0.000028 0.087567
#
#
# Mechanical properties :
#
#
# Convention : Reuss Voigt Hill
#
# Bulk Modulus (GPa) = 30.67079 43.45691 37.06385
# Shear Modulus (GPa) = 18.59946 28.41397 23.50672
#
# Velocity S-wave (km/s) = 2.76860 3.42196 3.11247
# Velocity P-wave (km/s) = 4.78122 5.78985 5.30954
#
# Compressibility (1/GPa) = 0.03260431
#
# Stress axis : x y z
#
# Youngs Moduli (GPa) = 42.87701 89.95274 76.10787
#
# Poissons Ratio (x) = 0.27064 0.18799
# Poissons Ratio (y) = 0.12900 0.15286
# Poissons Ratio (z) = 0.10591 0.18067
#
# Static dielectric constant tensor:
#      x y z
#    x 2.025440 -0.000020 -0.016050 
#    y -0.000020 2.129240 0.000010 
#    z -0.016050 0.000010 1.962230 
# 
# From -- ./inp_files/255683.got.cif
#   From: 2010.05.17/outbox.cif.g08.bks.cpg/sg15_128_cif.got.tgz:255683.got - 2010.06.03 18:47:42.
