data_PCOD9283627
_publ_section_title
;
Structure prediction by ZEFSAII (Michael W. Deem and Ramdas Pophale) SiO2 
 PCOD9283627
Probable space group: C 2/C
;
_chemical_formula_sum "Si O2"
_cell_formula_units_Z 56
_cell_length_a 8.536099
_cell_length_b 22.152612
_cell_length_c 14.004868
_cell_angle_alpha 90.000000
_cell_angle_beta 68.800544
_cell_angle_gamma 90.000000
_cell_volume 2469.060746
_symmetry_space_group_name_H-M "C 2/C"
_symmetry_group_IT_number 15
_symmetry_cell_setting 'monoclinic'
loop_
_space_group_symop_operation_xyz
x,y,z
-x,y,1/2-z
-x,-y,-z
x,-y,1/2+z
1/2+x,1/2+y,z
1/2-x,1/2+y,1/2-z
1/2-x,1/2-y,-z
1/2+x,1/2-y,1/2+z
loop_
_atom_site_type_symbol
_atom_site_label
_atom_site_fract_x
_atom_site_fract_y
_atom_site_fract_z
Si Si1 0.003853 0.660200 0.468494
Si Si2 0.697773 0.061096 0.708748
Si Si3 0.693901 0.596873 0.598452
Si Si4 0.985052 0.981079 0.638660
Si Si5 0.732215 0.821111 0.079430
Si Si6 0.882824 0.146941 0.365959
Si Si7 0.503064 0.275530 0.359185
O O1 0.053924 0.679576 0.566100
O O2 0.183852 0.639417 0.384458
O O3 0.867716 0.608289 0.506132
O O4 0.931980 0.718687 0.431995
O O5 0.500000 0.052570 0.750000
O O6 0.763900 0.084127 0.798395
O O7 0.739616 0.112749 0.623406
O O8 0.795730 0.000387 0.660296
O O9 0.597080 0.537988 0.581914
O O10 0.586713 0.659017 0.611431
O O11 0.000000 0.980643 0.750000
O O12 0.046684 0.914644 0.602656
O O13 0.802967 0.779573 0.146947
O O14 0.862550 0.810232 0.962764
O O15 0.000000 0.162865 0.250000
O O16 0.500000 0.260360 0.250000
#
# Coordination Sequence:
#
# PCOD9283627 Si02
#       7
#     8   8   8   8   8   8   8
#     4  10  24  40  61  94 129 167 221 263 322 399
#     4  11  18  36  63  96 130 158 218 277 316 383
#     4  11  20  38  63  95 130 162 215 276 322 379
#     4   9  19  36  67  91 126 173 211 269 328 378
#     4  10  21  40  63  90 126 166 227 261 316 401
#     4   9  21  44  64  85 130 174 216 262 326 390
#     4  12  22  42  65  95 130 173 214 273 330 377
#
# _framework density 22.680689000000001
#
# number of rings (size 3 to 8) (size 9 to 14) (size 15 to 20)
#    0.857    0.857    4.286    1.286    0.000    1.143 
#    5.143    0.714    0.000    0.857    0.000    0.000 
#    0.000    0.000    0.000    0.000    0.000    0.000 
#
# Total GULP energy -156098.371107 kJ/mol
# GULP energy per Si atom -5574.941825 kJ/mol
# Density = 2.262907 g / cm^3
# Si number density = 22.680689 Si / 1000 Ang^3
#
#
#
# Elastic Constant Matrix: (Units=GPa)
#
#
# Indices 1 2 3 4 5 6 
#
# 1 89.6620 4.5087 34.4113 0.0000 -11.4620 0.0000
# 2 4.5087 46.1059 -5.6920 0.0000 -2.8629 0.0000
# 3 34.4113 -5.6920 65.3877 0.0000 3.3344 0.0000
# 4 0.0000 0.0000 0.0000 23.8330 0.0000 0.7003
# 5 -11.4620 -2.8629 3.3344 0.0000 35.5861 0.0000
# 6 0.0000 0.0000 0.0000 0.7003 0.0000 16.5209
#
#
#
# Elastic Compliance Matrix: (Units=1/GPa)
#
#
# Indices 1 2 3 4 5 6 
#
# 1 0.015226 -0.002194 -0.008485 0.000000 0.005523 0.000000
# 2 -0.002194 0.022331 0.003057 0.000000 0.000804 0.000000
# 3 -0.008485 0.003057 0.020249 0.000000 -0.004384 0.000000
# 4 0.000000 0.000000 0.000000 0.042011 0.000000 -0.001781
# 5 0.005523 0.000804 -0.004384 0.000000 0.030355 0.000000
# 6 0.000000 0.000000 0.000000 -0.001781 0.000000 0.060605
#
#
# Mechanical properties :
#
#
# Convention : Reuss Voigt Hill
#
# Bulk Modulus (GPa) = 23.49494 29.73459 26.61476
# Shear Modulus (GPa) = 22.70584 26.38317 24.54450
#
# Velocity S-wave (km/s) = 3.16746 3.41434 3.29321
# Velocity P-wave (km/s) = 4.87428 5.35557 5.12058
#
# Compressibility (1/GPa) = 0.04256237
#
# Stress axis : x y z
#
# Youngs Moduli (GPa) = 65.67744 44.78066 49.38585
#
# Poissons Ratio (x) = 0.09823 0.41906
# Poissons Ratio (y) = 0.14407 -0.15099
# Poissons Ratio (z) = 0.55730 -0.13691
#
# Static dielectric constant tensor:
#      x y z
#    x 1.876330 0.000000 -0.004130 
#    y 0.000000 1.883890 0.000000 
#    z -0.004130 0.000000 1.871510 
# 
# From -- ./inp_files/137271.got.cif
#   From: 2010.05.17/outbox.cif.g08.bks.cpg/sg15_69_cif.got.tgz:137271.got - 2010.06.03 18:47:42.
