data_PCOD9283105
_publ_section_title
;
Structure prediction by ZEFSAII (Michael W. Deem and Ramdas Pophale) SiO2 
 PCOD9283105
Probable space group: C 2/C
;
_chemical_formula_sum "Si O2"
_cell_formula_units_Z 56
_cell_length_a 30.348495
_cell_length_b 8.982801
_cell_length_c 19.467088
_cell_angle_alpha 90.000000
_cell_angle_beta 32.867141
_cell_angle_gamma 90.000000
_cell_volume 2880.076490
_symmetry_space_group_name_H-M "C 2/C"
_symmetry_group_IT_number 15
_symmetry_cell_setting 'monoclinic'
loop_
_space_group_symop_operation_xyz
x,y,z
-x,y,1/2-z
-x,-y,-z
x,-y,1/2+z
1/2+x,1/2+y,z
1/2-x,1/2+y,1/2-z
1/2-x,1/2-y,-z
1/2+x,1/2-y,1/2+z
loop_
_atom_site_type_symbol
_atom_site_label
_atom_site_fract_x
_atom_site_fract_y
_atom_site_fract_z
Si Si1 0.050417 0.873593 0.369953
Si Si2 0.642164 0.628307 0.888509
Si Si3 0.045576 0.456294 0.262283
Si Si4 0.217415 0.563322 0.237111
Si Si5 0.186084 0.343587 0.628150
Si Si6 0.552427 0.906335 0.485996
Si Si7 0.995840 0.130028 0.174920
O O1 0.085711 0.918241 0.397933
O O2 0.119653 0.768206 0.246848
O O3 0.973201 0.765604 0.483215
O O4 0.035679 0.000732 0.333506
O O5 0.702521 0.499058 0.832346
O O6 0.690063 0.776411 0.802345
O O7 0.584657 0.666686 0.028100
O O8 0.131478 0.540182 0.156383
O O9 0.000000 0.466417 0.250000
O O10 0.982026 0.530867 0.397802
O O11 0.055193 0.281557 0.265770
O O12 0.225060 0.578934 0.144502
O O13 0.144609 0.448697 0.350265
O O14 0.250000 0.250000 0.500000
O O15 0.500000 0.000000 0.500000
O O16 0.000000 0.088533 0.250000
#
# Coordination Sequence:
#
# PCOD9283105 Si02
#       7
#     8   8   8   8   8   8   8
#     4  10  23  40  68  95 124 174 216 277 313 400
#     4  11  24  42  62  96 130 164 216 265 331 388
#     4  10  21  39  67  93 125 177 214 270 321 395
#     4  11  24  40  67  96 130 172 209 277 326 390
#     4  10  23  43  64  94 133 168 219 269 337 391
#     4  11  18  42  68  89 125 169 223 260 322 390
#     4  11  24  42  64  95 133 172 225 266 325 393
#
# _framework density 19.443926999999999
#
# number of rings (size 3 to 8) (size 9 to 14) (size 15 to 20)
#    0.000    1.429    5.714    0.429    4.000    5.714 
#    0.000    0.714    0.000    0.000    0.000    0.000 
#    0.000    0.000    0.000    0.000    0.000    0.000 
#
# Total GULP energy -156353.721104 kJ/mol
# GULP energy per Si atom -5584.061468 kJ/mol
# Density = 1.939967 g / cm^3
# Si number density = 19.443927 Si / 1000 Ang^3
#
#
#
# Elastic Constant Matrix: (Units=GPa)
#
#
# Indices 1 2 3 4 5 6 
#
# 1 123.3434 90.6888 35.9029 0.0021 6.0222 0.0005
# 2 90.6888 134.8569 39.0937 0.0063 -0.1158 -0.0077
# 3 35.9029 39.0937 63.8352 0.0137 12.8334 -0.0050
# 4 0.0021 0.0063 0.0137 41.2486 -0.0071 -7.8588
# 5 6.0222 -0.1158 12.8334 -0.0071 23.1902 0.0022
# 6 0.0005 -0.0077 -0.0050 -7.8588 0.0022 41.5689
#
#
#
# Elastic Compliance Matrix: (Units=1/GPa)
#
#
# Indices 1 2 3 4 5 6 
#
# 1 0.016695 -0.010565 -0.002292 0.000001 -0.003120 -0.000002
# 2 -0.010565 0.015960 -0.004950 0.000001 0.005563 0.000002
# 3 -0.002292 -0.004950 0.022359 -0.000008 -0.011803 0.000001
# 4 0.000001 0.000001 -0.000008 0.025149 0.000012 0.004755
# 5 -0.003120 0.005563 -0.011803 0.000012 0.050491 -0.000001
# 6 -0.000002 0.000002 0.000001 0.004755 -0.000001 0.024955
#
#
# Mechanical properties :
#
#
# Convention : Reuss Voigt Hill
#
# Bulk Modulus (GPa) = 51.55039 72.60070 62.07554
# Shear Modulus (GPa) = 25.29176 31.62488 28.45832
#
# Velocity S-wave (km/s) = 3.61051 4.03732 3.82987
# Velocity P-wave (km/s) = 6.62955 7.69109 7.17996
#
# Compressibility (1/GPa) = 0.01939850
#
# Stress axis : x y z
#
# Youngs Moduli (GPa) = 59.89701 62.65597 44.72446
#
# Poissons Ratio (x) = 0.66199 0.10252
# Poissons Ratio (y) = 0.63284 0.22140
# Poissons Ratio (z) = 0.13730 0.31017
#
# Static dielectric constant tensor:
#      x y z
#    x 1.655220 0.000000 -0.010880 
#    y 0.000000 1.705490 0.000000 
#    z -0.010880 0.000000 1.703220 
# 
# From -- ./inp_files/258982.got.cif
#   From: 2010.05.17/outbox.cif.g08.bks.cpg/sg15_130_cif.got.tgz:258982.got - 2010.06.03 18:47:42.
