data_PCOD9283368
_publ_section_title
;
Structure prediction by ZEFSAII (Michael W. Deem and Ramdas Pophale) SiO2 
 PCOD9283368
Probable space group: C 2/C
;
_chemical_formula_sum "Si O2"
_cell_formula_units_Z 64
_cell_length_a 8.887827
_cell_length_b 24.550150
_cell_length_c 14.005282
_cell_angle_alpha 90.000000
_cell_angle_beta 90.529610
_cell_angle_gamma 90.000000
_cell_volume 3055.786774
_symmetry_space_group_name_H-M "C 2/C"
_symmetry_group_IT_number 15
_symmetry_cell_setting 'monoclinic'
loop_
_space_group_symop_operation_xyz
x,y,z
-x,y,1/2-z
-x,-y,-z
x,-y,1/2+z
1/2+x,1/2+y,z
1/2-x,1/2+y,1/2-z
1/2-x,1/2-y,-z
1/2+x,1/2-y,1/2+z
loop_
_atom_site_type_symbol
_atom_site_label
_atom_site_fract_x
_atom_site_fract_y
_atom_site_fract_z
Si Si1 0.773837 0.638692 0.196706
Si Si2 0.681421 0.843271 0.253010
Si Si3 0.093356 0.381830 0.598919
Si Si4 0.185836 0.253083 0.106142
Si Si5 0.774181 0.984231 0.577578
Si Si6 0.358038 0.789121 0.057235
Si Si7 0.618834 0.547780 0.079321
Si Si8 0.175889 0.960444 0.230887
O O1 0.795507 0.632301 0.310798
O O2 0.735586 0.700377 0.166544
O O3 0.653471 0.598499 0.147186
O O4 0.929480 0.620657 0.146155
O O5 0.500000 0.845442 0.250000
O O6 0.733529 0.807810 0.162819
O O7 0.723478 0.812107 0.349938
O O8 0.742678 0.903562 0.261772
O O9 0.145292 0.440187 0.557628
O O10 0.098133 0.338019 0.514093
O O11 0.006241 0.257551 0.093504
O O12 0.250000 0.250000 0.000000
O O13 0.939445 0.956861 0.564409
O O14 0.791085 0.041038 0.519291
O O15 0.759451 0.000155 0.687730
O O16 0.250000 0.750000 0.000000
O O17 0.678548 0.493451 0.132995
O O18 0.000000 0.951827 0.250000
#
# Coordination Sequence:
#
# PCOD9283368 Si02
#       8
#     8   8   8   8   8   8   8   8
#     4  11  24  41  65  93 130 169 215 261 325 386
#     4  10  24  42  64  91 128 167 211 265 320 379
#     4  11  23  41  63  95 129 163 214 270 316 386
#     4  11  24  45  63  92 130 172 214 261 319 390
#     4  10  22  39  63  93 127 162 211 261 319 381
#     4  11  24  43  64  94 125 163 219 264 318 379
#     4  10  22  40  63  94 125 167 211 259 317 386
#     4  10  21  40  60  92 127 161 209 255 315 379
#
# _framework density 20.94387
#
# number of rings (size 3 to 8) (size 9 to 14) (size 15 to 20)
#    0.000    1.500    2.500    1.500    3.500    2.500 
#    2.250    0.000    0.000    0.000    0.000    0.000 
#    0.000    0.000    0.000    0.000    0.000    0.000 
#
# Total GULP energy -178760.507349 kJ/mol
# GULP energy per Si atom -5586.265855 kJ/mol
# Density = 2.089620 g / cm^3
# Si number density = 20.943870 Si / 1000 Ang^3
#
#
#
# Elastic Constant Matrix: (Units=GPa)
#
#
# Indices 1 2 3 4 5 6 
#
# 1 25.9653 17.0277 -11.6532 0.0000 4.4076 0.0000
# 2 17.0277 75.5048 -11.4874 0.0000 1.6196 0.0000
# 3 -11.6532 -11.4874 59.3863 0.0000 -4.0971 0.0000
# 4 0.0000 0.0000 0.0000 30.4273 0.0000 10.3393
# 5 4.4076 1.6196 -4.0971 0.0000 25.3070 0.0000
# 6 0.0000 0.0000 0.0000 10.3393 0.0000 34.5038
#
#
#
# Elastic Compliance Matrix: (Units=1/GPa)
#
#
# Indices 1 2 3 4 5 6 
#
# 1 0.049436 -0.009890 0.007319 0.000000 -0.006792 0.000000
# 2 -0.009890 0.015629 0.001145 0.000000 0.000908 0.000000
# 3 0.007319 0.001145 0.018612 0.000000 0.001665 0.000000
# 4 0.000000 0.000000 0.000000 0.036591 0.000000 -0.010965
# 5 -0.006792 0.000908 0.001665 0.000000 0.040909 0.000000
# 6 0.000000 0.000000 0.000000 -0.010965 0.000000 0.032268
#
#
# Mechanical properties :
#
#
# Convention : Reuss Voigt Hill
#
# Bulk Modulus (GPa) = 12.37213 16.51449 14.44331
# Shear Modulus (GPa) = 22.39764 29.17891 25.78828
#
# Velocity S-wave (km/s) = 3.27374 3.73660 3.51280
# Velocity P-wave (km/s) = 4.49554 5.14961 4.83365
#
# Compressibility (1/GPa) = 0.08082685
#
# Stress axis : x y z
#
# Youngs Moduli (GPa) = 20.22806 63.98260 53.73012
#
# Poissons Ratio (x) = 0.63276 -0.39326
# Poissons Ratio (y) = 0.20005 -0.06154
# Poissons Ratio (z) = -0.14805 -0.07328
#
# Static dielectric constant tensor:
#      x y z
#    x 1.744340 0.000000 -0.011880 
#    y 0.000000 1.772310 0.000000 
#    z -0.011880 0.000000 2.007130 
# 
# From -- ./inp_files/137874.got.cif
#   From: 2010.05.17/outbox.cif.g08.bks.cpg/sg15_69_cif.got.tgz:137874.got - 2010.06.03 18:47:42.
