data_PCOD9283004
_publ_section_title
;
Structure prediction by ZEFSAII (Michael W. Deem and Ramdas Pophale) SiO2 
 PCOD9283004
Probable space group: C 2/C
;
_chemical_formula_sum "Si O2"
_cell_formula_units_Z 44
_cell_length_a 19.357913
_cell_length_b 11.744962
_cell_length_c 25.293887
_cell_angle_alpha 90.000000
_cell_angle_beta 160.773328
_cell_angle_gamma 90.000000
_cell_volume 1893.763200
_symmetry_space_group_name_H-M "C 2/C"
_symmetry_group_IT_number 15
_symmetry_cell_setting 'monoclinic'
loop_
_space_group_symop_operation_xyz
x,y,z
-x,y,1/2-z
-x,-y,-z
x,-y,1/2+z
1/2+x,1/2+y,z
1/2-x,1/2+y,1/2-z
1/2-x,1/2-y,-z
1/2+x,1/2-y,1/2+z
loop_
_atom_site_type_symbol
_atom_site_label
_atom_site_fract_x
_atom_site_fract_y
_atom_site_fract_z
Si Si1 0.050942 0.234306 0.465527
Si Si2 0.855671 0.273678 0.436445
Si Si3 0.978349 0.920218 0.649204
Si Si4 0.000000 0.755589 0.750000
Si Si5 0.929149 0.487283 0.009704
Si Si6 0.617298 0.337372 0.438899
O O1 0.950799 0.141622 0.353752
O O2 0.298355 0.205200 0.634555
O O3 0.988267 0.367591 0.406883
O O4 0.989077 0.232263 0.482473
O O5 0.950888 0.380193 0.540432
O O6 0.629049 0.313067 0.250779
O O7 0.834490 0.177610 0.464744
O O8 0.886736 0.828683 0.622555
O O9 0.183752 0.960724 0.828884
O O10 0.838969 0.031078 0.542473
O O11 0.000000 0.500000 0.000000
O O12 0.750000 0.250000 0.500000
#
# Coordination Sequence:
#
# PCOD9283004 Si02
#       6
#     8   8   8   4   8   8
#     4  10  21  39  66  93 126 162 220 267 325 383
#     4  10  23  42  69  96 128 175 218 269 322 401
#     4  10  22  39  63  93 127 170 217 272 319 390
#     4  10  22  40  64  90 136 168 208 258 344 398
#     4   8  18  37  62  89 124 167 211 249 333 385
#     4  11  25  43  66  93 133 174 222 266 330 386
#
# _framework density 23.234162000000001
#
# number of rings (size 3 to 8) (size 9 to 14) (size 15 to 20)
#    0.000    2.182    0.000    1.091   15.273    0.727 
#    3.273    1.818    0.000    0.000    0.000    0.000 
#    0.000    0.000    0.000    0.000    0.000    0.000 
#
# Total GULP energy -122475.754400 kJ/mol
# GULP energy per Si atom -5567.079745 kJ/mol
# Density = 2.318128 g / cm^3
# Si number density = 23.234162 Si / 1000 Ang^3
#
#
#
# Elastic Constant Matrix: (Units=GPa)
#
#
# Indices 1 2 3 4 5 6 
#
# 1 123.4769 15.9354 30.8715 0.0046 11.0806 -0.0014
# 2 15.9354 75.5026 10.1929 -0.0034 -13.9325 -0.0066
# 3 30.8715 10.1929 30.4451 -0.0287 10.5590 -0.0254
# 4 0.0046 -0.0034 -0.0287 22.7937 -0.0007 1.9151
# 5 11.0806 -13.9325 10.5590 -0.0007 35.4990 -0.0008
# 6 -0.0014 -0.0066 -0.0254 1.9151 -0.0008 26.8441
#
#
#
# Elastic Compliance Matrix: (Units=1/GPa)
#
#
# Indices 1 2 3 4 5 6 
#
# 1 0.010914 -0.001013 -0.010490 -0.000015 -0.000684 -0.000009
# 2 -0.001013 0.016093 -0.007426 -0.000006 0.008841 -0.000002
# 3 -0.010490 -0.007426 0.051118 0.000062 -0.014845 0.000041
# 4 -0.000015 -0.000006 0.000062 0.044136 -0.000015 -0.003149
# 5 -0.000684 0.008841 -0.014845 -0.000015 0.036269 -0.000010
# 6 -0.000009 -0.000002 0.000041 -0.003149 -0.000010 0.037477
#
#
# Mechanical properties :
#
#
# Convention : Reuss Voigt Hill
#
# Bulk Modulus (GPa) = 24.83576 38.15825 31.49701
# Shear Modulus (GPa) = 20.21943 28.52235 24.37089
#
# Velocity S-wave (km/s) = 2.95319 3.50752 3.24222
# Velocity P-wave (km/s) = 4.72663 5.73259 5.25374
#
# Compressibility (1/GPa) = 0.04026451
#
# Stress axis : x y z
#
# Youngs Moduli (GPa) = 91.62948 62.14066 19.56264
#
# Poissons Ratio (x) = 0.06298 0.20521
# Poissons Ratio (y) = 0.09287 0.14528
# Poissons Ratio (z) = 0.96118 0.46148
#
# Static dielectric constant tensor:
#      x y z
#    x 1.918250 0.000060 0.043340 
#    y 0.000060 2.068440 0.000050 
#    z 0.043340 0.000050 1.957640 
# 
# From -- ./inp_files/300886.got.cif
#   From: 2010.05.17/outbox.cif.g08.bks.cpg/sg15_151_cif.got.tgz:300886.got - 2010.06.03 18:47:42.
