data_PCOD9283218
_publ_section_title
;
Structure prediction by ZEFSAII (Michael W. Deem and Ramdas Pophale) SiO2 
 PCOD9283218
Probable space group: C 2/C
;
_chemical_formula_sum "Si O2"
_cell_formula_units_Z 60
_cell_length_a 13.847566
_cell_length_b 17.416490
_cell_length_c 18.150695
_cell_angle_alpha 90.000000
_cell_angle_beta 139.214320
_cell_angle_gamma 90.000000
_cell_volume 2859.528184
_symmetry_space_group_name_H-M "C 2/C"
_symmetry_group_IT_number 15
_symmetry_cell_setting 'monoclinic'
loop_
_space_group_symop_operation_xyz
x,y,z
-x,y,1/2-z
-x,-y,-z
x,-y,1/2+z
1/2+x,1/2+y,z
1/2-x,1/2+y,1/2-z
1/2-x,1/2-y,-z
1/2+x,1/2-y,1/2+z
loop_
_atom_site_type_symbol
_atom_site_label
_atom_site_fract_x
_atom_site_fract_y
_atom_site_fract_z
Si Si1 0.970074 0.602775 0.583064
Si Si2 0.621872 0.243522 0.226111
Si Si3 0.256948 0.026613 0.995215
Si Si4 0.970887 0.055534 0.321186
Si Si5 0.792434 0.910749 0.197518
Si Si6 0.000000 0.299517 0.250000
Si Si7 0.741867 0.684865 0.339605
Si Si8 0.308227 0.814040 0.589470
O O1 0.908986 0.518934 0.570274
O O2 0.987406 0.651340 0.667999
O O3 0.847278 0.637150 0.455525
O O4 0.127907 0.601066 0.633600
O O5 0.611279 0.334310 0.234738
O O6 0.663754 0.228400 0.167100
O O7 0.734899 0.214796 0.354144
O O8 0.480276 0.193934 0.166516
O O9 0.215838 0.065827 0.893012
O O10 0.262853 0.098409 0.052666
O O11 0.133016 0.963431 0.946083
O O12 0.872492 0.131125 0.272824
O O13 0.000000 0.057164 0.250000
O O14 0.870247 0.982472 0.281511
O O15 0.142508 0.244676 0.326734
O O16 0.250000 0.750000 0.500000
#
# Coordination Sequence:
#
# PCOD9283218 Si02
#       8
#     8   8   8   8   8   4   8   8
#     4  12  25  43  68  97 130 180 219 276 332 400
#     4  11  25  39  65 102 133 173 221 278 329 399
#     4  11  22  42  69  96 132 179 223 267 339 398
#     4  10  21  39  69  93 125 171 227 268 323 400
#     4  11  21  40  66  98 129 169 223 266 326 400
#     4  12  26  46  66  98 136 168 226 280 334 392
#     4  12  23  45  69  96 129 175 228 276 330 392
#     4  11  23  41  65  96 140 173 217 276 336 394
#
# _framework density 20.982482999999998
#
# number of rings (size 3 to 8) (size 9 to 14) (size 15 to 20)
#    0.000    0.800    6.000    2.400    5.600    1.067 
#    0.000    0.667    0.000    0.000    0.000    0.000 
#    0.000    0.000    0.000    0.000    0.000    0.000 
#
# Total GULP energy -167422.228245 kJ/mol
# GULP energy per Si atom -5580.740941 kJ/mol
# Density = 2.093473 g / cm^3
# Si number density = 20.982483 Si / 1000 Ang^3
#
#
#
# Elastic Constant Matrix: (Units=GPa)
#
#
# Indices 1 2 3 4 5 6 
#
# 1 60.7965 -8.1679 8.5246 0.0000 2.8515 0.0000
# 2 -8.1679 67.8955 -2.0012 0.0000 -3.7479 0.0000
# 3 8.5246 -2.0012 29.5342 -0.0001 4.6760 0.0000
# 4 0.0000 0.0000 -0.0001 14.7220 0.0000 2.7322
# 5 2.8515 -3.7479 4.6760 0.0000 27.5672 0.0000
# 6 0.0000 0.0000 0.0000 2.7322 0.0000 27.5834
#
#
#
# Elastic Compliance Matrix: (Units=1/GPa)
#
#
# Indices 1 2 3 4 5 6 
#
# 1 0.017410 0.001913 -0.004780 0.000000 -0.000730 0.000000
# 2 0.001913 0.015064 0.000180 0.000000 0.001820 0.000000
# 3 -0.004780 0.000180 0.036139 0.000000 -0.005611 0.000000
# 4 0.000000 0.000000 0.000000 0.069197 0.000000 -0.006854
# 5 -0.000730 0.001820 -0.005611 0.000000 0.037550 0.000000
# 6 0.000000 0.000000 0.000000 -0.006854 0.000000 0.036933
#
#
# Mechanical properties :
#
#
# Convention : Reuss Voigt Hill
#
# Bulk Modulus (GPa) = 15.81250 17.21524 16.51387
# Shear Modulus (GPa) = 20.94276 24.63257 22.78767
#
# Velocity S-wave (km/s) = 3.16271 3.43003 3.29908
# Velocity P-wave (km/s) = 4.57049 4.88970 4.73279
#
# Compressibility (1/GPa) = 0.06324111
#
# Stress axis : x y z
#
# Youngs Moduli (GPa) = 57.43887 66.38150 27.67073
#
# Poissons Ratio (x) = -0.12700 0.13226
# Poissons Ratio (y) = -0.10989 -0.00499
# Poissons Ratio (z) = 0.27455 -0.01198
#
# Static dielectric constant tensor:
#      x y z
#    x 1.731780 0.000000 0.015480 
#    y 0.000000 1.758680 0.000000 
#    z 0.015480 0.000000 1.872440 
# 
# From -- ./inp_files/244712.got.cif
#   From: 2010.05.17/outbox.cif.g08.bks.cpg/sg15_123_cif.got.tgz:244712.got - 2010.06.03 18:47:42.
