data_PCOD9283111
_publ_section_title
;
Structure prediction by ZEFSAII (Michael W. Deem and Ramdas Pophale) SiO2 
 PCOD9283111
Probable space group: C 2/C
;
_chemical_formula_sum "Si O2"
_cell_formula_units_Z 48
_cell_length_a 18.596667
_cell_length_b 8.060147
_cell_length_c 16.004938
_cell_angle_alpha 90.000000
_cell_angle_beta 100.135842
_cell_angle_gamma 90.000000
_cell_volume 2361.569415
_symmetry_space_group_name_H-M "C 2/C"
_symmetry_group_IT_number 15
_symmetry_cell_setting 'monoclinic'
loop_
_space_group_symop_operation_xyz
x,y,z
-x,y,1/2-z
-x,-y,-z
x,-y,1/2+z
1/2+x,1/2+y,z
1/2-x,1/2+y,1/2-z
1/2-x,1/2-y,-z
1/2+x,1/2-y,1/2+z
loop_
_atom_site_type_symbol
_atom_site_label
_atom_site_fract_x
_atom_site_fract_y
_atom_site_fract_z
Si Si1 0.830520 0.091557 0.220311
Si Si2 0.909920 0.972324 0.074928
Si Si3 0.042518 0.550362 0.089968
Si Si4 0.921912 0.943513 0.393255
Si Si5 0.565891 0.163702 0.313917
Si Si6 0.669230 0.960905 0.214474
O O1 0.827565 0.283883 0.242072
O O2 0.866167 0.070325 0.136640
O O3 0.876264 0.995555 0.302319
O O4 0.748797 0.020911 0.205771
O O5 0.904850 0.783756 0.108250
O O6 0.996165 0.017966 0.095421
O O7 0.887315 0.995823 0.974109
O O8 0.066222 0.744490 0.095049
O O9 0.115059 0.449451 0.124467
O O10 0.983458 0.524347 0.151919
O O11 0.000000 0.500000 0.000000
O O12 0.500000 0.257587 0.250000
O O13 0.628372 0.091310 0.268104
#
# Coordination Sequence:
#
# PCOD9283111 Si02
#       6
#     8   8   8   8   8   8
#     4  12  24  43  64  93 132 169 216 262 323 391
#     4  10  21  39  67  95 129 167 208 264 319 376
#     4  10  22  40  64  93 132 160 210 268 314 376
#     4  10  23  40  66  98 130 164 217 260 319 385
#     4   9  19  39  60  89 126 166 204 262 318 372
#     4  11  25  41  65  91 128 174 212 263 327 381
#
# _framework density 20.325465000000001
#
# number of rings (size 3 to 8) (size 9 to 14) (size 15 to 20)
#    0.000    1.667    0.000    5.500    9.333    2.667 
#    3.000    3.333    0.000    0.000    0.000    0.000 
#    0.000    0.000    0.000    0.000    0.000    0.000 
#
# Total GULP energy -133969.219153 kJ/mol
# GULP energy per Si atom -5582.050798 kJ/mol
# Density = 2.027920 g / cm^3
# Si number density = 20.325465 Si / 1000 Ang^3
#
#
#
# Elastic Constant Matrix: (Units=GPa)
#
#
# Indices 1 2 3 4 5 6 
#
# 1 123.7844 32.0438 60.1793 0.0000 -16.0105 0.0000
# 2 32.0438 74.6459 22.5044 0.0000 -16.4478 0.0000
# 3 60.1793 22.5044 135.5062 0.0000 -20.5496 0.0000
# 4 0.0000 0.0000 0.0000 26.8435 0.0000 1.3145
# 5 -16.0105 -16.4478 -20.5496 0.0000 25.7696 0.0000
# 6 0.0000 0.0000 0.0000 1.3145 0.0000 26.6956
#
#
#
# Elastic Compliance Matrix: (Units=1/GPa)
#
#
# Indices 1 2 3 4 5 6 
#
# 1 0.011135 -0.003176 -0.004182 0.000000 0.001556 0.000000
# 2 -0.003176 0.016677 -0.000050 0.000000 0.008631 0.000000
# 3 -0.004182 -0.000050 0.010063 0.000000 0.005395 0.000000
# 4 0.000000 0.000000 0.000000 0.037343 0.000000 -0.001839
# 5 0.001556 0.008631 0.005395 0.000000 0.049583 0.000000
# 6 0.000000 0.000000 0.000000 -0.001839 0.000000 0.037550
#
#
# Mechanical properties :
#
#
# Convention : Reuss Voigt Hill
#
# Bulk Modulus (GPa) = 43.36698 62.59905 52.98302
# Shear Modulus (GPa) = 27.04836 30.47568 28.76202
#
# Velocity S-wave (km/s) = 3.65192 3.87639 3.76583
# Velocity P-wave (km/s) = 6.25816 7.13445 6.71063
#
# Compressibility (1/GPa) = 0.02305902
#
# Stress axis : x y z
#
# Youngs Moduli (GPa) = 89.80634 59.96268 99.37126
#
# Poissons Ratio (x) = 0.19047 0.41553
# Poissons Ratio (y) = 0.28527 0.00498
# Poissons Ratio (z) = 0.37554 0.00300
#
# Static dielectric constant tensor:
#      x y z
#    x 1.715160 0.000000 0.003670 
#    y 0.000000 1.777320 0.000000 
#    z 0.003670 0.000000 1.806610 
# 
# From -- ./inp_files/159730.got.cif
#   From: 2010.05.17/outbox.cif.g08.bks.cpg/sg15_80_cif.got.tgz:159730.got - 2010.06.03 18:47:42.
