data_PCOD9283557
_publ_section_title
;
Structure prediction by ZEFSAII (Michael W. Deem and Ramdas Pophale) SiO2 
 PCOD9283557
Probable space group: C 2/C
;
_chemical_formula_sum "Si O2"
_cell_formula_units_Z 40
_cell_length_a 7.524825
_cell_length_b 34.682497
_cell_length_c 10.112109
_cell_angle_alpha 90.000000
_cell_angle_beta 135.497605
_cell_angle_gamma 90.000000
_cell_volume 1849.817045
_symmetry_space_group_name_H-M "C 2/C"
_symmetry_group_IT_number 15
_symmetry_cell_setting 'monoclinic'
loop_
_space_group_symop_operation_xyz
x,y,z
-x,y,1/2-z
-x,-y,-z
x,-y,1/2+z
1/2+x,1/2+y,z
1/2-x,1/2+y,1/2-z
1/2-x,1/2-y,-z
1/2+x,1/2-y,1/2+z
loop_
_atom_site_type_symbol
_atom_site_label
_atom_site_fract_x
_atom_site_fract_y
_atom_site_fract_z
Si Si1 0.548867 0.284478 0.414140
Si Si2 0.808038 0.633572 0.401184
Si Si3 0.504797 0.461810 0.093008
Si Si4 0.239831 0.211533 0.287818
Si Si5 0.500000 0.084896 0.750000
Si Si6 0.000000 0.586301 0.250000
O O1 0.500000 0.305345 0.250000
O O2 0.750000 0.250000 0.500000
O O3 0.317455 0.256109 0.323093
O O4 0.657332 0.304782 0.599954
O O5 0.500000 0.633353 0.250000
O O6 0.907691 0.677859 0.440528
O O7 0.906765 0.611947 0.581971
O O8 0.906337 0.611425 0.324436
O O9 0.500000 0.469093 0.250000
O O10 0.761475 0.439544 0.181855
O O11 0.500000 0.500000 0.000000
O O12 0.246215 0.438504 0.923593
O O13 0.000000 0.212654 0.250000
#
# Coordination Sequence:
#
# PCOD9283557 Si02
#       6
#     8   8   8   8   4   4
#     4   9  19  37  59  87 127 167 222 287 331 400
#     4  11  25  45  70 101 141 186 234 291 352 419
#     4  12  28  46  76 110 140 188 229 281 346 410
#     4  10  21  40  62  94 128 176 227 289 347 401
#     4  12  25  50  70 104 150 178 236 284 348 422
#     4  12  25  46  74 102 150 184 230 288 342 420
#
# _framework density 21.623759
#
# number of rings (size 3 to 8) (size 9 to 14) (size 15 to 20)
#    0.000    1.200    4.000    1.200    7.000    1.600 
#   16.200    1.000    0.000    0.000    0.000    0.000 
#    0.000    0.000    0.000    0.000    0.000    0.000 
#
# Total GULP energy -111520.455793 kJ/mol
# GULP energy per Si atom -5576.022790 kJ/mol
# Density = 2.157454 g / cm^3
# Si number density = 21.623759 Si / 1000 Ang^3
#
#
#
# Elastic Constant Matrix: (Units=GPa)
#
#
# Indices 1 2 3 4 5 6 
#
# 1 144.9880 43.1354 58.0023 0.0000 -10.3625 0.0000
# 2 43.1354 95.1253 46.9086 0.0000 -5.9416 0.0000
# 3 58.0023 46.9086 102.3238 0.0000 -3.5367 0.0000
# 4 0.0000 0.0000 0.0000 24.8276 0.0000 -9.7262
# 5 -10.3625 -5.9416 -3.5367 0.0000 43.0408 0.0000
# 6 0.0000 0.0000 0.0000 -9.7262 0.0000 68.7263
#
#
#
# Elastic Compliance Matrix: (Units=1/GPa)
#
#
# Indices 1 2 3 4 5 6 
#
# 1 0.009336 -0.002003 -0.004318 0.000000 0.001616 0.000000
# 2 -0.002003 0.014094 -0.005290 0.000000 0.001029 0.000000
# 3 -0.004318 -0.005290 0.014626 0.000000 -0.000568 0.000000
# 4 0.000000 0.000000 0.000000 0.042642 0.000000 0.006035
# 5 0.001616 0.001029 -0.000568 0.000000 0.023718 0.000000
# 6 0.000000 0.000000 0.000000 0.006035 0.000000 0.015405
#
#
# Mechanical properties :
#
#
# Convention : Reuss Voigt Hill
#
# Bulk Modulus (GPa) = 67.41499 70.94774 69.18136
# Shear Modulus (GPa) = 33.78679 40.27834 37.03256
#
# Velocity S-wave (km/s) = 3.95712 4.32057 4.14283
# Velocity P-wave (km/s) = 7.21958 7.60073 7.41261
#
# Compressibility (1/GPa) = 0.01483350
#
# Stress axis : x y z
#
# Youngs Moduli (GPa) = 107.11216 70.95382 68.37174
#
# Poissons Ratio (x) = 0.14214 0.29522
# Poissons Ratio (y) = 0.21458 0.36168
# Poissons Ratio (z) = 0.46250 0.37534
#
# Static dielectric constant tensor:
#      x y z
#    x 1.734450 0.000000 -0.061020 
#    y 0.000000 1.470600 0.000000 
#    z -0.061020 0.000000 1.764300 
# 
# From -- ./inp_files/82407.got.cif
#   From: 2010.05.17/outbox.cif.g08.bks.cpg/sg15_42_cif.got.tgz:82407.got - 2010.06.03 18:47:42.
