data_PCOD9283787
_publ_section_title
;
Structure prediction by ZEFSAII (Michael W. Deem and Ramdas Pophale) SiO2 
 PCOD9283787
Probable space group: C 2/C
;
_chemical_formula_sum "Si O2"
_cell_formula_units_Z 36
_cell_length_a 13.505117
_cell_length_b 6.508365
_cell_length_c 18.797716
_cell_angle_alpha 90.000000
_cell_angle_beta 55.322759
_cell_angle_gamma 90.000000
_cell_volume 1358.759677
_symmetry_space_group_name_H-M "C 2/C"
_symmetry_group_IT_number 15
_symmetry_cell_setting 'monoclinic'
loop_
_space_group_symop_operation_xyz
x,y,z
-x,y,1/2-z
-x,-y,-z
x,-y,1/2+z
1/2+x,1/2+y,z
1/2-x,1/2+y,1/2-z
1/2-x,1/2-y,-z
1/2+x,1/2-y,1/2+z
loop_
_atom_site_type_symbol
_atom_site_label
_atom_site_fract_x
_atom_site_fract_y
_atom_site_fract_z
Si Si1 0.500000 0.354409 0.250000
Si Si2 0.770243 0.592939 0.382451
Si Si3 0.864781 0.545049 0.480556
Si Si4 0.880234 0.587383 0.126851
Si Si5 0.370711 0.373746 0.690672
O O1 0.385309 0.200211 0.298236
O O2 0.530195 0.511950 0.302694
O O3 0.812733 0.449853 0.429528
O O4 0.715212 0.784211 0.447724
O O5 0.675101 0.516509 0.363337
O O6 0.882953 0.396997 0.540048
O O7 0.986722 0.664886 0.407838
O O8 0.749649 0.637591 0.211537
O O9 0.898834 0.352518 0.150168
#
# Coordination Sequence:
#
# PCOD9283787 Si02
#       5
#     4   8   8   8   8
#     4  12  22  40  64  96 132 160 210 272 294 390
#     4  10  21  40  65  93 124 173 207 254 326 369
#     4   9  19  39  67  87 127 169 207 259 320 371
#     4  10  21  40  64  93 127 165 212 262 312 377
#     4  11  22  39  63  95 122 170 210 256 315 373
#
# _framework density 26.494748999999999
#
# number of rings (size 3 to 8) (size 9 to 14) (size 15 to 20)
#    0.000    1.778    4.444    1.333    0.000    1.778 
#    0.000   11.111    0.000    0.000    0.000    0.000 
#    0.000    0.000    0.000    0.000    0.000    0.000 
#
# Total GULP energy -100414.187986 kJ/mol
# GULP energy per Si atom -5578.565999 kJ/mol
# Density = 2.643445 g / cm^3
# Si number density = 26.494749 Si / 1000 Ang^3
#
#
#
# Elastic Constant Matrix: (Units=GPa)
#
#
# Indices 1 2 3 4 5 6 
#
# 1 142.1337 1.0959 19.7657 0.0000 40.3743 0.0002
# 2 1.0959 52.2422 5.9914 0.0001 4.6517 0.0005
# 3 19.7657 5.9914 98.3238 0.0000 -2.3523 0.0000
# 4 0.0000 0.0001 0.0000 23.4816 0.0000 3.4316
# 5 40.3743 4.6517 -2.3523 0.0000 67.9191 0.0000
# 6 0.0002 0.0005 0.0000 3.4316 0.0000 26.1020
#
#
#
# Elastic Compliance Matrix: (Units=1/GPa)
#
#
# Indices 1 2 3 4 5 6 
#
# 1 0.008818 0.000512 -0.001932 0.000000 -0.005344 0.000000
# 2 0.000512 0.019433 -0.001327 0.000000 -0.001681 0.000000
# 3 -0.001932 -0.001327 0.010678 0.000000 0.001609 0.000000
# 4 0.000000 0.000000 0.000000 0.043421 0.000000 -0.005708
# 5 -0.005344 -0.001681 0.001609 0.000000 0.018071 0.000000
# 6 0.000000 0.000000 0.000000 -0.005708 0.000000 0.039062
#
#
# Mechanical properties :
#
#
# Convention : Reuss Voigt Hill
#
# Bulk Modulus (GPa) = 29.90808 38.48954 34.19881
# Shear Modulus (GPa) = 32.02631 41.22365 36.62498
#
# Velocity S-wave (km/s) = 3.48052 3.94879 3.72203
# Velocity P-wave (km/s) = 5.24069 5.94553 5.60421
#
# Compressibility (1/GPa) = 0.03343579
#
# Stress axis : x y z
#
# Youngs Moduli (GPa) = 113.40004 51.45933 93.64875
#
# Poissons Ratio (x) = -0.02637 0.18091
# Poissons Ratio (y) = -0.05811 0.12431
# Poissons Ratio (z) = 0.21907 0.06831
#
# Static dielectric constant tensor:
#      x y z
#    x 2.370640 0.000000 0.073010 
#    y 0.000000 2.188140 0.000000 
#    z 0.073010 0.000000 2.117460 
# 
# From -- ./inp_files/150155.got.cif
#   From: 2010.05.17/outbox.cif.g08.bks.cpg/sg15_76_cif.got.tgz:150155.got - 2010.06.03 18:47:42.
