data_PCOD9283347
_publ_section_title
;
Structure prediction by ZEFSAII (Michael W. Deem and Ramdas Pophale) SiO2 
 PCOD9283347
Probable space group: C 2/C
;
_chemical_formula_sum "Si O2"
_cell_formula_units_Z 40
_cell_length_a 15.565126
_cell_length_b 13.654797
_cell_length_c 16.289117
_cell_angle_alpha 90.000000
_cell_angle_beta 148.887428
_cell_angle_gamma 90.000000
_cell_volume 1788.923266
_symmetry_space_group_name_H-M "C 2/C"
_symmetry_group_IT_number 15
_symmetry_cell_setting 'monoclinic'
loop_
_space_group_symop_operation_xyz
x,y,z
-x,y,1/2-z
-x,-y,-z
x,-y,1/2+z
1/2+x,1/2+y,z
1/2-x,1/2+y,1/2-z
1/2-x,1/2-y,-z
1/2+x,1/2-y,1/2+z
loop_
_atom_site_type_symbol
_atom_site_label
_atom_site_fract_x
_atom_site_fract_y
_atom_site_fract_z
Si Si1 0.321530 0.960349 0.085854
Si Si2 0.011155 0.092885 0.445447
Si Si3 0.243796 0.826361 0.569642
Si Si4 0.815959 0.510754 0.387015
Si Si5 0.124178 0.184687 0.689329
O O1 0.500000 0.909843 0.250000
O O2 0.330547 0.070881 0.127863
O O3 0.312756 0.970681 0.981214
O O4 0.153811 0.920038 0.992652
O O5 0.076212 0.183944 0.553936
O O6 0.821241 0.089279 0.258375
O O7 0.000000 0.000000 0.500000
O O8 0.250000 0.750000 0.500000
O O9 0.311856 0.777802 0.708549
O O10 0.049511 0.846822 0.413766
O O11 0.747188 0.403072 0.309732
O O12 0.000000 0.500000 0.500000
#
# Coordination Sequence:
#
# PCOD9283347 Si02
#       5
#     8   8   8   8   8
#     4  12  22  37  64  98 133 171 221 272 340 403
#     4  10  21  40  60  86 134 173 223 270 319 397
#     4  12  23  37  59  95 139 177 204 267 346 409
#     4  11  23  39  64  93 131 176 226 278 331 395
#     4  11  24  39  58  92 139 171 219 264 335 408
#
# _framework density 22.359819000000002
#
# number of rings (size 3 to 8) (size 9 to 14) (size 15 to 20)
#    0.000    0.800    6.000    4.800    0.000    0.000 
#    0.000    0.000    0.000    0.000    0.000   26.600 
#    0.000    0.000    0.000    0.000    0.000    0.000 
#
# Total GULP energy -111549.989767 kJ/mol
# GULP energy per Si atom -5577.499488 kJ/mol
# Density = 2.230893 g / cm^3
# Si number density = 22.359819 Si / 1000 Ang^3
#
#
#
# Elastic Constant Matrix: (Units=GPa)
#
#
# Indices 1 2 3 4 5 6 
#
# 1 188.0596 26.2994 84.9497 0.0001 25.7538 0.0000
# 2 26.2994 21.7704 30.9735 -0.0005 -11.0550 -0.0003
# 3 84.9497 30.9735 164.7626 0.0001 11.1828 0.0000
# 4 0.0001 -0.0005 0.0001 11.2087 0.0000 6.9740
# 5 25.7538 -11.0550 11.1828 0.0000 62.9568 -0.0001
# 6 0.0000 -0.0003 0.0000 6.9740 -0.0001 28.6055
#
#
#
# Elastic Compliance Matrix: (Units=1/GPa)
#
#
# Indices 1 2 3 4 5 6 
#
# 1 0.008214 -0.009084 -0.002218 0.000000 -0.004561 0.000000
# 2 -0.009084 0.086008 -0.012918 0.000004 0.021113 0.000000
# 3 -0.002218 -0.012918 0.009852 -0.000001 -0.003111 0.000000
# 4 0.000000 0.000004 -0.000001 0.105170 0.000001 -0.025640
# 5 -0.004561 0.021113 -0.003111 0.000001 0.022010 0.000000
# 6 0.000000 0.000000 0.000000 -0.025640 0.000000 0.041209
#
#
# Mechanical properties :
#
#
# Convention : Reuss Voigt Hill
#
# Bulk Modulus (GPa) = 17.97430 73.22641 45.60036
# Shear Modulus (GPa) = 14.72978 36.04556 25.38767
#
# Velocity S-wave (km/s) = 2.56942 4.01941 3.37325
# Velocity P-wave (km/s) = 4.10593 7.37300 5.96740
#
# Compressibility (1/GPa) = 0.05563499
#
# Stress axis : x y z
#
# Youngs Moduli (GPa) = 121.73792 11.62686 101.49749
#
# Poissons Ratio (x) = 0.10562 0.22512
# Poissons Ratio (y) = 1.10586 1.31113
# Poissons Ratio (z) = 0.27001 0.15019
#
# Static dielectric constant tensor:
#      x y z
#    x 1.840890 0.000000 -0.011040 
#    y 0.000000 1.452540 0.000000 
#    z -0.011040 0.000000 1.897190 
# 
# From -- ./inp_files/61744.got.cif
#   From: 2010.05.17/outbox.cif.g08.bks.cpg/sg15_31_cif.got.tgz:61744.got - 2010.06.03 18:47:42.
