data_PCOD9283837
_publ_section_title
;
Structure prediction by ZEFSAII (Michael W. Deem and Ramdas Pophale) SiO2 
 PCOD9283837
Probable space group: C 2/C
;
_chemical_formula_sum "Si O2"
_cell_formula_units_Z 48
_cell_length_a 22.019177
_cell_length_b 5.656774
_cell_length_c 23.902551
_cell_angle_alpha 90.000000
_cell_angle_beta 132.350829
_cell_angle_gamma 90.000000
_cell_volume 2200.282464
_symmetry_space_group_name_H-M "C 2/C"
_symmetry_group_IT_number 15
_symmetry_cell_setting 'monoclinic'
loop_
_space_group_symop_operation_xyz
x,y,z
-x,y,1/2-z
-x,-y,-z
x,-y,1/2+z
1/2+x,1/2+y,z
1/2-x,1/2+y,1/2-z
1/2-x,1/2-y,-z
1/2+x,1/2-y,1/2+z
loop_
_atom_site_type_symbol
_atom_site_label
_atom_site_fract_x
_atom_site_fract_y
_atom_site_fract_z
Si Si1 0.979668 0.154365 0.074884
Si Si2 0.145466 0.633714 0.698308
Si Si3 0.777474 0.923506 0.850657
Si Si4 0.934537 0.251209 0.931414
Si Si5 0.342671 0.262278 0.582151
Si Si6 0.697837 0.241210 0.410364
O O1 0.065867 0.206090 0.158906
O O2 0.905574 0.193221 0.070656
O O3 0.994968 0.898754 0.056392
O O4 0.968358 0.324989 0.013602
O O5 0.207049 0.755094 0.692606
O O6 0.196804 0.571178 0.784497
O O7 0.107857 0.415908 0.640460
O O8 0.759135 0.789333 0.896340
O O9 0.858695 0.081235 0.903520
O O10 0.250000 0.250000 0.500000
O O11 0.346213 0.503417 0.620923
O O12 0.354775 0.002751 0.617336
O O13 0.750000 0.250000 0.500000
#
# Coordination Sequence:
#
# PCOD9283837 Si02
#       6
#     8   8   8   8   8   8
#     4  10  23  39  66  97 134 169 232 284 344 407
#     4  11  23  39  66  96 134 177 213 294 349 408
#     4  11  23  40  67  99 135 175 234 277 356 421
#     4  10  21  40  64  99 130 173 220 291 344 407
#     4  10  22  41  65  99 129 179 226 280 332 398
#     4  10  23  39  67  98 129 177 229 280 326 404
#
# _framework density 21.815382
#
# number of rings (size 3 to 8) (size 9 to 14) (size 15 to 20)
#    0.000    1.667    1.667    2.500    9.333    0.000 
#    0.000    0.833    0.000    0.000    0.000    0.000 
#    0.000    0.000    0.000    0.000    0.000    0.000 
#
# Total GULP energy -133904.972849 kJ/mol
# GULP energy per Si atom -5579.373869 kJ/mol
# Density = 2.176573 g / cm^3
# Si number density = 21.815382 Si / 1000 Ang^3
#
#
#
# Elastic Constant Matrix: (Units=GPa)
#
#
# Indices 1 2 3 4 5 6 
#
# 1 138.7776 19.0390 10.6449 -0.0005 7.2309 0.0004
# 2 19.0390 92.2186 -5.9490 -0.0023 6.9114 0.0034
# 3 10.6449 -5.9490 81.0970 -0.0005 11.5883 -0.0007
# 4 -0.0005 -0.0023 -0.0005 25.6303 -0.0004 -2.1689
# 5 7.2309 6.9114 11.5883 -0.0004 21.9225 -0.0001
# 6 0.0004 0.0034 -0.0007 -2.1689 -0.0001 16.7632
#
#
#
# Elastic Compliance Matrix: (Units=1/GPa)
#
#
# Indices 1 2 3 4 5 6 
#
# 1 0.007560 -0.001501 -0.000880 0.000000 -0.001555 0.000000
# 2 -0.001501 0.011558 0.001617 0.000001 -0.004003 -0.000002
# 3 -0.000880 0.001617 0.013626 0.000000 -0.007422 0.000000
# 4 0.000000 0.000001 0.000000 0.039448 0.000000 0.005104
# 5 -0.001555 -0.004003 -0.007422 0.000000 0.051314 0.000001
# 6 0.000000 -0.000002 0.000000 0.005104 0.000001 0.060315
#
#
# Mechanical properties :
#
#
# Convention : Reuss Voigt Hill
#
# Bulk Modulus (GPa) = 32.03569 39.95145 35.99357
# Shear Modulus (GPa) = 25.54217 32.08708 28.81463
#
# Velocity S-wave (km/s) = 3.42546 3.83932 3.63828
# Velocity P-wave (km/s) = 5.51015 6.16499 5.84674
#
# Compressibility (1/GPa) = 0.03121519
#
# Stress axis : x y z
#
# Youngs Moduli (GPa) = 132.27056 86.51972 73.39106
#
# Poissons Ratio (x) = 0.12987 0.06460
# Poissons Ratio (y) = 0.19855 -0.11867
# Poissons Ratio (z) = 0.11643 -0.13990
#
# Static dielectric constant tensor:
#      x y z
#    x 1.743110 0.000000 0.007550 
#    y 0.000000 1.959820 0.000000 
#    z 0.007550 0.000000 1.801690 
# 
# From -- ./inp_files/299999.got.cif
#   From: 2010.05.17/outbox.cif.g08.bks.cpg/sg15_150_cif.got.tgz:299999.got - 2010.06.03 18:47:42.
