data_PCOD9283206
_publ_section_title
;
Structure prediction by ZEFSAII (Michael W. Deem and Ramdas Pophale) SiO2 
 PCOD9283206
Probable space group: C 2/C
;
_chemical_formula_sum "Si O2"
_cell_formula_units_Z 36
_cell_length_a 18.924794
_cell_length_b 13.056209
_cell_length_c 9.968329
_cell_angle_alpha 90.000000
_cell_angle_beta 138.927078
_cell_angle_gamma 90.000000
_cell_volume 1618.261015
_symmetry_space_group_name_H-M "C 2/C"
_symmetry_group_IT_number 15
_symmetry_cell_setting 'monoclinic'
loop_
_space_group_symop_operation_xyz
x,y,z
-x,y,1/2-z
-x,-y,-z
x,-y,1/2+z
1/2+x,1/2+y,z
1/2-x,1/2+y,1/2-z
1/2-x,1/2-y,-z
1/2+x,1/2-y,1/2+z
loop_
_atom_site_type_symbol
_atom_site_label
_atom_site_fract_x
_atom_site_fract_y
_atom_site_fract_z
Si Si1 0.446056 0.570332 0.536094
Si Si2 0.245235 0.406308 0.916971
Si Si3 0.564672 0.047611 0.715285
Si Si4 0.105379 0.790371 0.158710
Si Si5 0.500000 0.249484 0.750000
O O1 0.500000 0.533897 0.750000
O O2 0.500000 0.500000 0.500000
O O3 0.321609 0.576300 0.397310
O O4 0.492549 0.683251 0.569491
O O5 0.185096 0.508263 0.874946
O O6 0.155719 0.321488 0.750908
O O7 0.312706 0.362749 0.140355
O O8 0.500000 0.003744 0.750000
O O9 0.558822 0.169258 0.733304
O O10 0.500000 0.000000 0.500000
O O11 0.081910 0.807328 0.966574
#
# Coordination Sequence:
#
# PCOD9283206 Si02
#       5
#     8   8   8   8   4
#     4  10  24  43  65  96 137 180 228 282 344 416
#     4  10  21  44  70  98 132 192 229 269 374 412
#     4  10  21  39  69 103 138 167 231 294 346 410
#     4  10  22  40  64  95 139 177 227 280 337 426
#     4  10  22  42  66 106 136 168 230 302 336 394
#
# _framework density 22.246100999999999
#
# number of rings (size 3 to 8) (size 9 to 14) (size 15 to 20)
#    0.667    1.333    2.222    0.000    1.556   11.556 
#    4.000    1.111    4.889    0.000    0.000    0.000 
#    0.000    0.000    0.000    0.000    0.000    0.000 
#
# Total GULP energy -100264.940588 kJ/mol
# GULP energy per Si atom -5570.274477 kJ/mol
# Density = 2.219547 g / cm^3
# Si number density = 22.246101 Si / 1000 Ang^3
#
#
#
# Elastic Constant Matrix: (Units=GPa)
#
#
# Indices 1 2 3 4 5 6 
#
# 1 164.8120 58.3028 44.3980 0.0000 0.3518 0.0000
# 2 58.3028 67.8354 26.7754 0.0000 2.7074 0.0000
# 3 44.3980 26.7754 126.0350 0.0000 -38.6051 0.0000
# 4 0.0000 0.0000 0.0000 28.8531 0.0000 -4.9535
# 5 0.3518 2.7074 -38.6051 0.0000 47.0721 0.0000
# 6 0.0000 0.0000 0.0000 -4.9535 0.0000 47.1081
#
#
#
# Elastic Compliance Matrix: (Units=1/GPa)
#
#
# Indices 1 2 3 4 5 6 
#
# 1 0.009101 -0.006899 -0.002190 0.000000 -0.001467 0.000000
# 2 -0.006899 0.022246 -0.003568 0.000000 -0.004154 0.000000
# 3 -0.002190 -0.003568 0.012729 0.000000 0.010661 0.000000
# 4 0.000000 0.000000 0.000000 0.035296 0.000000 0.003711
# 5 -0.001467 -0.004154 0.010661 0.000000 0.030237 0.000000
# 6 0.000000 0.000000 0.000000 0.003711 0.000000 0.021618
#
#
# Mechanical properties :
#
#
# Convention : Reuss Voigt Hill
#
# Bulk Modulus (GPa) = 53.29935 68.62610 60.96272
# Shear Modulus (GPa) = 30.71349 39.88706 35.30028
#
# Velocity S-wave (km/s) = 3.71971 4.23897 3.98780
# Velocity P-wave (km/s) = 6.51608 7.40770 6.97615
#
# Compressibility (1/GPa) = 0.01876196
#
# Stress axis : x y z
#
# Youngs Moduli (GPa) = 109.87551 44.95279 78.55960
#
# Poissons Ratio (x) = 0.31015 0.17202
# Poissons Ratio (y) = 0.75808 0.28029
# Poissons Ratio (z) = 0.24059 0.16039
#
# Static dielectric constant tensor:
#      x y z
#    x 1.813050 0.000000 0.014960 
#    y 0.000000 1.908980 0.000000 
#    z 0.014960 0.000000 1.883320 
# 
# From -- ./inp_files/47326.got.cif
#   From: 2010.05.17/outbox.cif.g08.bks.cpg/sg15_24_cif.got.tgz:47326.got - 2010.06.03 18:47:42.
