data_PCOD9283046
_publ_section_title
;
Structure prediction by ZEFSAII (Michael W. Deem and Ramdas Pophale) SiO2 
 PCOD9283046
Probable space group: C 2/C
;
_chemical_formula_sum "Si O2"
_cell_formula_units_Z 44
_cell_length_a 11.167338
_cell_length_b 16.349794
_cell_length_c 17.846939
_cell_angle_alpha 90.000000
_cell_angle_beta 148.846883
_cell_angle_gamma 90.000000
_cell_volume 1685.740677
_symmetry_space_group_name_H-M "C 2/C"
_symmetry_group_IT_number 15
_symmetry_cell_setting 'monoclinic'
loop_
_space_group_symop_operation_xyz
x,y,z
-x,y,1/2-z
-x,-y,-z
x,-y,1/2+z
1/2+x,1/2+y,z
1/2-x,1/2+y,1/2-z
1/2-x,1/2-y,-z
1/2+x,1/2-y,1/2+z
loop_
_atom_site_type_symbol
_atom_site_label
_atom_site_fract_x
_atom_site_fract_y
_atom_site_fract_z
Si Si1 0.093303 0.640292 0.214555
Si Si2 0.400914 0.676550 0.781740
Si Si3 0.140898 0.867150 0.011182
Si Si4 0.191859 0.033378 0.987067
Si Si5 0.000000 0.927680 0.750000
Si Si6 0.147065 0.691128 0.034890
O O1 0.038315 0.731958 0.158195
O O2 0.364721 0.626932 0.363810
O O3 0.000000 0.637956 0.250000
O O4 0.936337 0.571037 0.094114
O O5 0.500000 0.665813 0.750000
O O6 0.514291 0.609736 0.898146
O O7 0.123696 0.675214 0.622124
O O8 0.235938 0.834654 0.981699
O O9 0.224209 0.960897 0.065921
O O10 0.199117 0.784342 0.087954
O O11 0.082939 0.984811 0.860238
O O12 0.786442 0.870764 0.661905
#
# Coordination Sequence:
#
# PCOD9283046 Si02
#       6
#     8   8   8   8   4   8
#     4  10  23  43  63  90 134 177 220 264 323 390
#     4  10  21  39  66  96 134 170 211 272 329 387
#     4   9  21  40  63  87 127 175 214 260 316 385
#     4  11  22  38  66 100 129 166 219 269 329 384
#     4  10  22  38  66 102 128 166 210 276 330 380
#     4   9  20  41  59  94 136 166 213 257 334 392
#
# _framework density 26.101285000000001
#
# number of rings (size 3 to 8) (size 9 to 14) (size 15 to 20)
#    0.000    2.182    0.909    0.545    5.091    4.364 
#    1.636   16.364    0.000    0.000    0.000    0.000 
#    0.000    0.000    0.000    0.000    0.000    0.000 
#
# Total GULP energy -123014.435922 kJ/mol
# GULP energy per Si atom -5591.565269 kJ/mol
# Density = 2.604188 g / cm^3
# Si number density = 26.101285 Si / 1000 Ang^3
#
#
#
# Elastic Constant Matrix: (Units=GPa)
#
#
# Indices 1 2 3 4 5 6 
#
# 1 95.6166 21.5152 28.5841 -0.0040 27.2566 0.0018
# 2 21.5152 229.3235 68.1827 -0.0411 30.9921 0.0143
# 3 28.5841 68.1827 130.0243 -0.0675 43.9014 0.0215
# 4 -0.0040 -0.0411 -0.0675 336.6141 -0.0280 -100.4931
# 5 27.2566 30.9921 43.9014 -0.0280 53.0256 0.0101
# 6 0.0018 0.0143 0.0215 -100.4931 0.0101 61.8240
#
#
#
# Elastic Compliance Matrix: (Units=1/GPa)
#
#
# Indices 1 2 3 4 5 6 
#
# 1 0.012319 -0.000183 -0.000708 0.000000 -0.005639 0.000000
# 2 -0.000183 0.005214 -0.002355 0.000000 -0.001003 0.000000
# 3 -0.000708 -0.002355 0.011789 0.000001 -0.008020 0.000000
# 4 0.000000 0.000000 0.000001 0.005771 0.000000 0.009381
# 5 -0.005639 -0.001003 -0.008020 0.000000 0.028984 -0.000001
# 6 0.000000 0.000000 0.000000 0.009381 -0.000001 0.031424
#
#
# Mechanical properties :
#
#
# Convention : Reuss Voigt Hill
#
# Bulk Modulus (GPa) = 43.80321 76.83651 60.31986
# Shear Modulus (GPa) = 45.61888 112.73823 79.17855
#
# Velocity S-wave (km/s) = 4.18516 6.57924 5.51371
# Velocity P-wave (km/s) = 6.33818 9.33900 7.98090
#
# Compressibility (1/GPa) = 0.02282938
#
# Stress axis : x y z
#
# Youngs Moduli (GPa) = 81.17703 191.80631 84.82167
#
# Poissons Ratio (x) = 0.03513 0.06007
# Poissons Ratio (y) = 0.01487 0.19974
# Poissons Ratio (z) = 0.05749 0.45168
#
# Static dielectric constant tensor:
#      x y z
#    x 2.295060 0.000000 -0.090130 
#    y 0.000000 2.108250 0.000000 
#    z -0.090130 0.000000 2.032940 
# 
# From -- ./inp_files/274892.got.cif
#   From: 2010.05.17/outbox.cif.g08.bks.cpg/sg15_138_cif.got.tgz:274892.got - 2010.06.03 18:47:42.
