data_PCOD9283697
_publ_section_title
;
Structure prediction by ZEFSAII (Michael W. Deem and Ramdas Pophale) SiO2 
 PCOD9283697
Probable space group: C 2/C
;
_chemical_formula_sum "Si O2"
_cell_formula_units_Z 40
_cell_length_a 5.248023
_cell_length_b 12.583092
_cell_length_c 27.579235
_cell_angle_alpha 90.000000
_cell_angle_beta 82.144979
_cell_angle_gamma 90.000000
_cell_volume 1804.143668
_symmetry_space_group_name_H-M "C 2/C"
_symmetry_group_IT_number 15
_symmetry_cell_setting 'monoclinic'
loop_
_space_group_symop_operation_xyz
x,y,z
-x,y,1/2-z
-x,-y,-z
x,-y,1/2+z
1/2+x,1/2+y,z
1/2-x,1/2+y,1/2-z
1/2-x,1/2-y,-z
1/2+x,1/2-y,1/2+z
loop_
_atom_site_type_symbol
_atom_site_label
_atom_site_fract_x
_atom_site_fract_y
_atom_site_fract_z
Si Si1 0.875462 0.173794 0.633381
Si Si2 0.229447 0.540572 0.460440
Si Si3 0.130491 0.466864 0.358367
Si Si4 0.725080 0.151291 0.282958
Si Si5 0.492125 0.320376 0.475679
O O1 0.648433 0.086775 0.636989
O O2 0.795945 0.260504 0.674770
O O3 0.146706 0.121509 0.641943
O O4 0.906780 0.221011 0.578515
O O5 0.147971 0.538289 0.406679
O O6 0.423612 0.441441 0.460306
O O7 0.000000 0.500000 0.500000
O O8 0.333059 0.648241 0.482542
O O9 0.184292 0.538727 0.310518
O O10 0.500000 0.168054 0.250000
O O11 0.000000 0.155643 0.250000
O O12 0.250000 0.250000 0.500000
#
# Coordination Sequence:
#
# PCOD9283697 Si02
#       5
#     8   8   8   8   8
#     4  11  25  45  69 103 138 180 230 287 346 422
#     4  10  21  40  63  97 138 178 228 274 337 434
#     4  11  25  45  72  99 142 183 228 285 356 413
#     4  12  28  47  72 101 131 179 238 295 354 413
#     4  10  23  38  64  99 139 186 225 277 347 412
#
# _framework density 22.171182000000002
#
# number of rings (size 3 to 8) (size 9 to 14) (size 15 to 20)
#    0.000    1.200    2.000    2.400    2.800   10.400 
#    0.000    0.000    0.000    0.000    0.000    0.000 
#    0.000    0.000    0.000    0.000    0.000    0.000 
#
# Total GULP energy -111831.117289 kJ/mol
# GULP energy per Si atom -5591.555864 kJ/mol
# Density = 2.212072 g / cm^3
# Si number density = 22.171182 Si / 1000 Ang^3
#
#
#
# Elastic Constant Matrix: (Units=GPa)
#
#
# Indices 1 2 3 4 5 6 
#
# 1 102.2923 12.5648 60.6230 0.0000 -5.0087 0.0000
# 2 12.5648 78.1081 50.9135 0.0000 3.7803 0.0000
# 3 60.6230 50.9135 190.4184 0.0000 -6.2925 0.0000
# 4 0.0000 0.0000 0.0000 76.5216 0.0000 -8.8988
# 5 -5.0087 3.7803 -6.2925 0.0000 45.3296 0.0000
# 6 0.0000 0.0000 0.0000 -8.8988 0.0000 57.4399
#
#
#
# Elastic Compliance Matrix: (Units=1/GPa)
#
#
# Indices 1 2 3 4 5 6 
#
# 1 0.012103 0.000622 -0.003995 0.000000 0.000731 0.000000
# 2 0.000622 0.015698 -0.004457 0.000000 -0.001859 0.000000
# 3 -0.003995 -0.004457 0.007748 0.000000 0.001006 0.000000
# 4 0.000000 0.000000 0.000000 0.013308 0.000000 0.002062
# 5 0.000731 -0.001859 0.001006 0.000000 0.022436 0.000000
# 6 0.000000 0.000000 0.000000 0.002062 0.000000 0.017729
#
#
# Mechanical properties :
#
#
# Convention : Reuss Voigt Hill
#
# Bulk Modulus (GPa) = 50.27864 68.78015 59.52940
# Shear Modulus (GPa) = 44.91875 52.30604 48.61239
#
# Velocity S-wave (km/s) = 4.50599 4.86242 4.68759
# Velocity P-wave (km/s) = 7.05682 7.91289 7.49708
#
# Compressibility (1/GPa) = 0.01988916
#
# Stress axis : x y z
#
# Youngs Moduli (GPa) = 82.62310 63.70362 129.05818
#
# Poissons Ratio (x) = -0.03962 0.51564
# Poissons Ratio (y) = -0.05139 0.57517
# Poissons Ratio (z) = 0.33011 0.28391
#
# Static dielectric constant tensor:
#      x y z
#    x 1.934730 0.000000 -0.010710 
#    y 0.000000 1.821590 0.000000 
#    z -0.010710 0.000000 1.808980 
# 
# From -- ./inp_files/285246.got.cif
#   From: 2010.05.17/outbox.cif.g08.bks.cpg/sg15_143_cif.got.tgz:285246.got - 2010.06.03 18:47:42.
