data_PCOD9283732
_publ_section_title
;
Structure prediction by ZEFSAII (Michael W. Deem and Ramdas Pophale) SiO2 
 PCOD9283732
Probable space group: C 2/C
;
_chemical_formula_sum "Si O2"
_cell_formula_units_Z 52
_cell_length_a 10.552341
_cell_length_b 14.052777
_cell_length_c 30.367558
_cell_angle_alpha 90.000000
_cell_angle_beta 139.656130
_cell_angle_gamma 90.000000
_cell_volume 2915.249908
_symmetry_space_group_name_H-M "C 2/C"
_symmetry_group_IT_number 15
_symmetry_cell_setting 'monoclinic'
loop_
_space_group_symop_operation_xyz
x,y,z
-x,y,1/2-z
-x,-y,-z
x,-y,1/2+z
1/2+x,1/2+y,z
1/2-x,1/2+y,1/2-z
1/2-x,1/2-y,-z
1/2+x,1/2-y,1/2+z
loop_
_atom_site_type_symbol
_atom_site_label
_atom_site_fract_x
_atom_site_fract_y
_atom_site_fract_z
Si Si1 0.995242 0.500918 0.551932
Si Si2 0.385693 0.610894 0.349519
Si Si3 0.786116 0.661243 0.633678
Si Si4 0.933340 0.296104 0.074757
Si Si5 0.135007 0.875554 0.826534
Si Si6 0.500000 0.006855 0.750000
Si Si7 0.936949 0.967315 0.032295
O O1 0.172813 0.439160 0.617741
O O2 0.000000 0.500000 0.500000
O O3 0.006864 0.610889 0.569356
O O4 0.793084 0.461109 0.519235
O O5 0.398986 0.717478 0.372432
O O6 0.514049 0.612167 0.339528
O O7 0.487605 0.546016 0.413349
O O8 0.178024 0.562749 0.284399
O O9 0.852278 0.672805 0.600847
O O10 0.813120 0.763501 0.663432
O O11 0.561714 0.627030 0.575349
O O12 0.915938 0.578407 0.690572
O O13 0.750000 0.250000 0.000000
O O14 0.000000 0.903874 0.750000
O O15 0.000000 0.000000 0.000000
#
# Coordination Sequence:
#
# PCOD9283732 Si02
#       7
#     8   8   8   8   8   4   8
#     4  12  23  40  65  95 130 166 212 268 319 374
#     4  10  22  40  62  89 124 165 217 257 313 388
#     4  10  21  40  64  89 124 169 210 258 318 376
#     4  11  20  40  64  89 124 167 205 258 325 370
#     4  11  24  41  59  92 135 173 203 262 336 380
#     4  10  22  40  64  86 118 164 220 262 300 376
#     4  11  20  38  67  95 116 163 218 264 306 377
#
# _framework density 17.837235
#
# number of rings (size 3 to 8) (size 9 to 14) (size 15 to 20)
#    0.000    1.231    5.385    0.923    2.154    0.615 
#    1.385    1.538    0.000    0.000    0.000    0.000 
#    0.000    0.000    0.000    0.000    0.000    0.000 
#
# Total GULP energy -145109.078734 kJ/mol
# GULP energy per Si atom -5581.118413 kJ/mol
# Density = 1.779664 g / cm^3
# Si number density = 17.837235 Si / 1000 Ang^3
#
#
#
# Elastic Constant Matrix: (Units=GPa)
#
#
# Indices 1 2 3 4 5 6 
#
# 1 96.5788 52.8019 66.9562 0.0000 6.3474 0.0000
# 2 52.8019 136.2503 73.0178 0.0000 19.4846 0.0000
# 3 66.9562 73.0178 140.0713 0.0000 14.9770 0.0000
# 4 0.0000 0.0000 0.0000 38.3749 0.0000 5.0301
# 5 6.3474 19.4846 14.9770 0.0000 38.3644 0.0000
# 6 0.0000 0.0000 0.0000 5.0301 0.0000 32.4171
#
#
#
# Elastic Compliance Matrix: (Units=1/GPa)
#
#
# Indices 1 2 3 4 5 6 
#
# 1 0.016376 -0.003147 -0.006333 0.000000 0.001361 0.000000
# 2 -0.003147 0.011189 -0.003941 0.000000 -0.003624 0.000000
# 3 -0.006333 -0.003941 0.012413 0.000000 -0.001796 0.000000
# 4 0.000000 0.000000 0.000000 0.026600 0.000000 -0.004127
# 5 0.001361 -0.003624 -0.001796 0.000000 0.028382 0.000000
# 6 0.000000 0.000000 0.000000 -0.004127 0.000000 0.031488
#
#
# Mechanical properties :
#
#
# Convention : Reuss Voigt Hill
#
# Bulk Modulus (GPa) = 76.12649 84.27248 80.19949
# Shear Modulus (GPa) = 31.71195 33.83957 32.77576
#
# Velocity S-wave (km/s) = 4.22103 4.36033 4.29125
# Velocity P-wave (km/s) = 8.15642 8.52630 8.34341
#
# Compressibility (1/GPa) = 0.01313603
#
# Stress axis : x y z
#
# Youngs Moduli (GPa) = 61.06571 89.37125 80.56067
#
# Poissons Ratio (x) = 0.28125 0.51018
# Poissons Ratio (y) = 0.19217 0.31750
# Poissons Ratio (z) = 0.38672 0.35222
#
# Static dielectric constant tensor:
#      x y z
#    x 1.564580 0.000000 -0.007280 
#    y 0.000000 1.614330 0.000000 
#    z -0.007280 0.000000 1.619060 
# 
# From -- ./inp_files/231155.got.cif
#   From: 2010.05.17/outbox.cif.g08.bks.cpg/sg15_116_cif.got.tgz:231155.got - 2010.06.03 18:47:42.
