data_PCOD9283844
_publ_section_title
;
Structure prediction by ZEFSAII (Michael W. Deem and Ramdas Pophale) SiO2 
 PCOD9283844
Probable space group: C 2/C
;
_chemical_formula_sum "Si O2"
_cell_formula_units_Z 56
_cell_length_a 16.454454
_cell_length_b 15.508944
_cell_length_c 28.099263
_cell_angle_alpha 90.000000
_cell_angle_beta 20.184641
_cell_angle_gamma 90.000000
_cell_volume 2474.220478
_symmetry_space_group_name_H-M "C 2/C"
_symmetry_group_IT_number 15
_symmetry_cell_setting 'monoclinic'
loop_
_space_group_symop_operation_xyz
x,y,z
-x,y,1/2-z
-x,-y,-z
x,-y,1/2+z
1/2+x,1/2+y,z
1/2-x,1/2+y,1/2-z
1/2-x,1/2-y,-z
1/2+x,1/2-y,1/2+z
loop_
_atom_site_type_symbol
_atom_site_label
_atom_site_fract_x
_atom_site_fract_y
_atom_site_fract_z
Si Si1 0.848343 0.087407 0.243315
Si Si2 0.500000 0.526324 0.750000
Si Si3 0.739478 0.078870 0.560275
Si Si4 0.500000 0.929012 0.750000
Si Si5 0.974184 0.103645 0.011759
Si Si6 0.515949 0.681185 0.886603
Si Si7 0.163769 0.373563 0.502128
Si Si8 0.020547 0.724638 0.841327
O O1 0.890156 0.031743 0.267738
O O2 0.593012 0.079512 0.357641
O O3 0.875718 0.189670 0.240397
O O4 0.059628 0.067324 0.090012
O O5 0.700309 0.586603 0.617207
O O6 0.629275 0.991530 0.641571
O O7 0.523969 0.136010 0.661376
O O8 0.865394 0.132692 0.533289
O O9 0.302424 0.875552 0.831202
O O10 0.038194 0.134945 0.924808
O O11 0.000000 0.000000 0.000000
O O12 0.355296 0.625618 0.939685
O O13 0.786778 0.703197 0.723483
O O14 0.392943 0.771951 0.966354
O O15 0.750000 0.750000 0.000000
#
# Coordination Sequence:
#
# PCOD9283844 Si02
#       8
#     8   4   8   4   8   8   8   8
#     4  10  24  44  69  98 133 176 229 292 346 410
#     4  12  26  46  68 102 134 186 242 286 350 420
#     4  10  21  40  65 100 135 172 225 280 348 414
#     4  10  22  36  56 100 134 170 214 258 344 404
#     4  10  22  35  61  99 130 173 214 272 345 403
#     4  10  22  45  71  95 140 180 225 289 345 422
#     4  10  25  48  68  98 135 185 236 280 350 422
#     4   9  19  41  67 100 124 176 226 277 344 406
#
# _framework density 22.633391
#
# number of rings (size 3 to 8) (size 9 to 14) (size 15 to 20)
#    0.000    2.000    0.000    2.143    6.000    3.429 
#   18.000    0.000    0.000    0.000    0.000    0.000 
#    0.000    0.000    0.000    0.000    0.000    0.000 
#
# Total GULP energy -156094.530621 kJ/mol
# GULP energy per Si atom -5574.804665 kJ/mol
# Density = 2.258188 g / cm^3
# Si number density = 22.633391 Si / 1000 Ang^3
#
#
#
# Elastic Constant Matrix: (Units=GPa)
#
#
# Indices 1 2 3 4 5 6 
#
# 1 142.0518 26.4933 80.8960 0.0376 -19.1057 -0.0115
# 2 26.4933 46.3104 31.1840 0.0577 -0.7851 -0.0175
# 3 80.8960 31.1840 152.6590 0.1170 -27.7753 -0.0581
# 4 0.0376 0.0577 0.1170 21.0629 -0.0480 6.9634
# 5 -19.1057 -0.7851 -27.7753 -0.0480 46.6875 0.0275
# 6 -0.0115 -0.0175 -0.0581 6.9634 0.0275 22.8658
#
#
#
# Elastic Compliance Matrix: (Units=1/GPa)
#
#
# Indices 1 2 3 4 5 6 
#
# 1 0.010424 -0.002776 -0.004698 0.000024 0.001424 -0.000018
# 2 -0.002776 0.026142 -0.004481 -0.000059 -0.003362 0.000029
# 3 -0.004698 -0.004481 0.010756 -0.000038 0.004401 0.000028
# 4 0.000024 -0.000059 -0.000038 0.052793 0.000050 -0.016077
# 5 0.001424 -0.003362 0.004401 0.000050 0.024564 -0.000035
# 6 -0.000018 0.000029 0.000028 -0.016077 -0.000035 0.048629
#
#
# Mechanical properties :
#
#
# Convention : Reuss Voigt Hill
#
# Bulk Modulus (GPa) = 42.71105 68.68531 55.69818
# Shear Modulus (GPa) = 24.38773 31.61977 28.00375
#
# Velocity S-wave (km/s) = 3.28611 3.74176 3.52131
# Velocity P-wave (km/s) = 5.77146 7.00574 6.41834
#
# Compressibility (1/GPa) = 0.02341314
#
# Stress axis : x y z
#
# Youngs Moduli (GPa) = 95.92960 38.25299 92.97140
#
# Poissons Ratio (x) = 0.10619 0.43676
# Poissons Ratio (y) = 0.26631 0.41657
# Poissons Ratio (z) = 0.45065 0.17140
#
# Static dielectric constant tensor:
#      x y z
#    x 1.924080 -0.000010 -0.043460 
#    y -0.000010 1.880010 0.000050 
#    z -0.043460 0.000050 1.931450 
# 
# From -- ./inp_files/316570.got.cif
#   From: 2010.05.17/outbox.cif.g08.bks.cpg/sg15_159_cif.got.tgz:316570.got - 2010.06.03 18:47:42.
