data_PCOD9283288
_publ_section_title
;
Structure prediction by ZEFSAII (Michael W. Deem and Ramdas Pophale) SiO2 
 PCOD9283288
Probable space group: C 2/C
;
_chemical_formula_sum "Si O2"
_cell_formula_units_Z 56
_cell_length_a 5.042502
_cell_length_b 24.271595
_cell_length_c 25.132138
_cell_angle_alpha 90.000000
_cell_angle_beta 86.405025
_cell_angle_gamma 90.000000
_cell_volume 3069.858789
_symmetry_space_group_name_H-M "C 2/C"
_symmetry_group_IT_number 15
_symmetry_cell_setting 'monoclinic'
loop_
_space_group_symop_operation_xyz
x,y,z
-x,y,1/2-z
-x,-y,-z
x,-y,1/2+z
1/2+x,1/2+y,z
1/2-x,1/2+y,1/2-z
1/2-x,1/2-y,-z
1/2+x,1/2-y,1/2+z
loop_
_atom_site_type_symbol
_atom_site_label
_atom_site_fract_x
_atom_site_fract_y
_atom_site_fract_z
Si Si1 0.854467 0.328577 0.404445
Si Si2 0.667349 0.672706 0.197446
Si Si3 0.677967 0.153767 0.128716
Si Si4 0.786456 0.439032 0.958543
Si Si5 0.228065 0.935007 0.469155
Si Si6 0.855854 0.762499 0.439954
Si Si7 0.756424 0.197515 0.714870
O O1 0.835087 0.390151 0.426854
O O2 0.635506 0.293415 0.439155
O O3 0.761740 0.325282 0.344420
O O4 0.139711 0.300318 0.411490
O O5 0.500000 0.650585 0.250000
O O6 0.454270 0.669711 0.152877
O O7 0.742865 0.735994 0.209142
O O8 0.942108 0.645742 0.174679
O O9 0.603074 0.205806 0.092693
O O10 0.716122 0.100614 0.091699
O O11 0.562494 0.421213 0.004155
O O12 0.071079 0.435679 0.983441
O O13 0.726066 0.502912 0.946636
O O14 0.750000 0.750000 0.500000
O O15 0.500000 0.178956 0.750000
O O16 0.000000 0.183596 0.750000
#
# Coordination Sequence:
#
# PCOD9283288 Si02
#       7
#     8   8   8   8   8   8   8
#     4  12  22  37  56  83 114 150 184 232 283 335
#     4  11  22  36  56  80 115 147 191 232 277 343
#     4  12  20  37  55  85 114 148 185 230 286 336
#     4  10  22  38  61  82 113 153 193 230 271 339
#     4  10  21  40  58  84 112 152 196 227 271 339
#     4  12  23  34  52  85 121 147 174 226 290 346
#     4  11  21  36  55  79 110 148 189 230 274 334
#
# _framework density 18.241882
#
# number of rings (size 3 to 8) (size 9 to 14) (size 15 to 20)
#    0.000    0.857    2.857    6.857    0.000    0.000 
#    0.000    0.000    0.000    2.571    0.000    0.000 
#    0.000    0.000    0.000    0.000    0.000    0.000 
#
# Total GULP energy -156463.568302 kJ/mol
# GULP energy per Si atom -5587.984582 kJ/mol
# Density = 1.820036 g / cm^3
# Si number density = 18.241882 Si / 1000 Ang^3
#
#
#
# Elastic Constant Matrix: (Units=GPa)
#
#
# Indices 1 2 3 4 5 6 
#
# 1 81.2743 4.2826 0.9477 0.0000 -4.2974 0.0000
# 2 4.2826 59.8081 33.2109 0.0000 -7.1216 0.0000
# 3 0.9477 33.2109 77.8598 0.0000 -7.7916 0.0000
# 4 0.0000 0.0000 0.0000 13.5216 0.0000 1.6305
# 5 -4.2974 -7.1216 -7.7916 0.0000 31.8579 0.0000
# 6 0.0000 0.0000 0.0000 1.6305 0.0000 11.5169
#
#
#
# Elastic Compliance Matrix: (Units=1/GPa)
#
#
# Indices 1 2 3 4 5 6 
#
# 1 0.012431 -0.000926 0.000401 0.000000 0.001568 0.000000
# 2 -0.000926 0.022204 -0.009201 0.000000 0.002588 0.000000
# 3 0.000401 -0.009201 0.016978 0.000000 0.002150 0.000000
# 4 0.000000 0.000000 0.000000 0.075240 0.000000 -0.010652
# 5 0.001568 0.002588 0.002150 0.000000 0.032705 0.000000
# 6 0.000000 0.000000 0.000000 -0.010652 0.000000 0.088337
#
#
# Mechanical properties :
#
#
# Convention : Reuss Voigt Hill
#
# Bulk Modulus (GPa) = 31.09342 32.86940 31.98141
# Shear Modulus (GPa) = 17.98122 23.41267 20.69694
#
# Velocity S-wave (km/s) = 3.14301 3.58642 3.37201
# Velocity P-wave (km/s) = 5.50031 5.93361 5.72106
#
# Compressibility (1/GPa) = 0.03216114
#
# Stress axis : x y z
#
# Youngs Moduli (GPa) = 80.44383 45.03754 58.89853
#
# Poissons Ratio (x) = 0.04170 -0.02359
# Poissons Ratio (y) = 0.07448 0.54190
# Poissons Ratio (z) = -0.03222 0.41437
#
# Static dielectric constant tensor:
#      x y z
#    x 1.631760 0.000000 -0.017520 
#    y 0.000000 1.611060 0.000000 
#    z -0.017520 0.000000 1.624870 
# 
# From -- ./inp_files/227851.got.cif
#   From: 2010.05.17/outbox.cif.g08.bks.cpg/sg15_114_cif.got.tgz:227851.got - 2010.06.03 18:47:42.
