data_PCOD9283042
_publ_section_title
;
Structure prediction by ZEFSAII (Michael W. Deem and Ramdas Pophale) SiO2 
 PCOD9283042
Probable space group: C 2/C
;
_chemical_formula_sum "Si O2"
_cell_formula_units_Z 52
_cell_length_a 13.556299
_cell_length_b 19.099392
_cell_length_c 14.554583
_cell_angle_alpha 90.000000
_cell_angle_beta 136.441700
_cell_angle_gamma 90.000000
_cell_volume 2596.796100
_symmetry_space_group_name_H-M "C 2/C"
_symmetry_group_IT_number 15
_symmetry_cell_setting 'monoclinic'
loop_
_space_group_symop_operation_xyz
x,y,z
-x,y,1/2-z
-x,-y,-z
x,-y,1/2+z
1/2+x,1/2+y,z
1/2-x,1/2+y,1/2-z
1/2-x,1/2-y,-z
1/2+x,1/2-y,1/2+z
loop_
_atom_site_type_symbol
_atom_site_label
_atom_site_fract_x
_atom_site_fract_y
_atom_site_fract_z
Si Si1 0.080269 0.669158 0.574425
Si Si2 0.000000 0.025223 0.750000
Si Si3 0.077746 0.949740 0.978029
Si Si4 0.407230 0.119660 0.281026
Si Si5 0.409717 0.661043 0.772525
Si Si6 0.107514 0.453163 0.237247
Si Si7 0.086055 0.177918 0.079165
O O1 0.247170 0.682251 0.665138
O O2 0.065467 0.602302 0.630474
O O3 0.045607 0.745830 0.590791
O O4 0.993185 0.653752 0.423216
O O5 0.089137 0.984276 0.885673
O O6 0.096469 0.078332 0.756210
O O7 0.978792 0.882303 0.901252
O O8 0.233273 0.933513 0.122280
O O9 0.000000 0.000000 0.000000
O O10 0.500000 0.126596 0.250000
O O11 0.251393 0.156707 0.171454
O O12 0.389381 0.035815 0.286860
O O13 0.500000 0.693875 0.750000
O O14 0.499080 0.671600 0.924670
O O15 0.000000 0.446852 0.250000
#
# Coordination Sequence:
#
# PCOD9283042 Si02
#       7
#     8   4   8   8   8   8   8
#     4  12  25  42  65  97 140 177 215 273 343 387
#     4  10  22  36  72  98 120 172 222 266 324 384
#     4  12  21  45  68  96 131 172 226 275 319 402
#     4  11  25  40  66 103 132 170 223 273 335 398
#     4  10  21  39  66  96 129 173 215 265 334 396
#     4  11  25  45  69  92 134 175 229 283 321 379
#     4  12  24  42  66  94 138 179 215 269 333 402
#
# _framework density 20.024677000000001
#
# number of rings (size 3 to 8) (size 9 to 14) (size 15 to 20)
#    0.462    0.308    4.615    2.308    4.308    4.923 
#    1.385    0.769    0.000    0.000    0.000    0.000 
#    0.000    0.000    0.000    0.000    0.000    0.000 
#
# Total GULP energy -145125.294572 kJ/mol
# GULP energy per Si atom -5581.742099 kJ/mol
# Density = 1.997910 g / cm^3
# Si number density = 20.024677 Si / 1000 Ang^3
#
#
#
# Elastic Constant Matrix: (Units=GPa)
#
#
# Indices 1 2 3 4 5 6 
#
# 1 47.0597 18.3430 24.5105 0.0000 18.8009 0.0000
# 2 18.3430 136.9844 23.4465 0.0000 0.8291 0.0000
# 3 24.5105 23.4465 115.4456 0.0000 13.5626 0.0000
# 4 0.0000 0.0000 0.0000 68.5635 0.0000 -9.4431
# 5 18.8009 0.8291 13.5626 0.0000 29.0181 0.0000
# 6 0.0000 0.0000 0.0000 -9.4431 0.0000 17.0457
#
#
#
# Elastic Compliance Matrix: (Units=1/GPa)
#
#
# Indices 1 2 3 4 5 6 
#
# 1 0.032232 -0.003534 -0.003898 0.000000 -0.018961 0.000000
# 2 -0.003534 0.007958 -0.001173 0.000000 0.002610 0.000000
# 3 -0.003898 -0.001173 0.009975 0.000000 -0.002103 0.000000
# 4 0.000000 0.000000 0.000000 0.015790 0.000000 0.008747
# 5 -0.018961 0.002610 -0.002103 0.000000 0.047654 0.000000
# 6 0.000000 0.000000 0.000000 0.008747 0.000000 0.063512
#
#
# Mechanical properties :
#
#
# Convention : Reuss Voigt Hill
#
# Bulk Modulus (GPa) = 30.34361 48.00999 39.17680
# Shear Modulus (GPa) = 24.35269 38.47145 31.41207
#
# Velocity S-wave (km/s) = 3.49109 4.38791 3.96494
# Velocity P-wave (km/s) = 5.60681 7.04976 6.36928
#
# Compressibility (1/GPa) = 0.03295587
#
# Stress axis : x y z
#
# Youngs Moduli (GPa) = 31.02470 125.65572 100.25149
#
# Poissons Ratio (x) = 0.44409 0.39079
# Poissons Ratio (y) = 0.10965 0.11756
# Poissons Ratio (z) = 0.12094 0.14735
#
# Static dielectric constant tensor:
#      x y z
#    x 1.717680 0.000000 0.034060 
#    y 0.000000 1.777500 0.000000 
#    z 0.034060 0.000000 1.654850 
# 
# From -- ./inp_files/155533.got.cif
#   From: 2010.05.17/outbox.cif.g08.bks.cpg/sg15_78_cif.got.tgz:155533.got - 2010.06.03 18:47:42.
