data_PCOD9283709
_publ_section_title
;
Structure prediction by ZEFSAII (Michael W. Deem and Ramdas Pophale) SiO2 
 PCOD9283709
Probable space group: C 2/C
;
_chemical_formula_sum "Si O2"
_cell_formula_units_Z 56
_cell_length_a 9.428319
_cell_length_b 17.867645
_cell_length_c 14.776524
_cell_angle_alpha 90.000000
_cell_angle_beta 65.328408
_cell_angle_gamma 90.000000
_cell_volume 2262.047307
_symmetry_space_group_name_H-M "C 2/C"
_symmetry_group_IT_number 15
_symmetry_cell_setting 'monoclinic'
loop_
_space_group_symop_operation_xyz
x,y,z
-x,y,1/2-z
-x,-y,-z
x,-y,1/2+z
1/2+x,1/2+y,z
1/2-x,1/2+y,1/2-z
1/2-x,1/2-y,-z
1/2+x,1/2-y,1/2+z
loop_
_atom_site_type_symbol
_atom_site_label
_atom_site_fract_x
_atom_site_fract_y
_atom_site_fract_z
Si Si1 0.257670 0.478960 0.377146
Si Si2 0.477139 0.145889 0.522199
Si Si3 0.110224 0.375692 0.653550
Si Si4 0.737384 0.276077 0.199012
Si Si5 0.500000 0.717186 0.250000
Si Si6 0.186245 0.135781 0.042063
Si Si7 0.500000 0.411340 0.250000
Si Si8 0.559353 0.420253 0.016365
O O1 0.098063 0.432998 0.421841
O O2 0.260175 0.552969 0.435506
O O3 0.357836 0.480746 0.261258
O O4 0.395926 0.423609 0.388270
O O5 0.486758 0.139568 0.411819
O O6 0.341370 0.203541 0.583195
O O7 0.642939 0.170791 0.517542
O O8 0.156451 0.301833 0.696854
O O9 0.273725 0.407413 0.574731
O O10 0.000000 0.422825 0.750000
O O11 0.624429 0.343479 0.251331
O O12 0.862967 0.265345 0.243565
O O13 0.581184 0.668562 0.150036
O O14 0.074639 0.133837 0.984497
O O15 0.500000 0.500000 0.000000
#
# Coordination Sequence:
#
# PCOD9283709 Si02
#       8
#     8   8   8   8   4   8   4   8
#     4   9  20  40  63  89 116 164 208 255 310 375
#     4  10  23  37  62  90 124 166 205 262 315 371
#     4  11  20  40  62  92 123 165 217 258 301 375
#     4  11  23  40  57  90 129 165 214 249 316 376
#     4  12  25  38  58  94 127 162 206 266 314 374
#     4  11  21  38  61  90 122 156 206 259 317 370
#     4  10  21  40  64  84 119 164 210 254 300 372
#     4   9  20  38  62  87 125 160 204 256 314 374
#
# _framework density 24.756336000000001
#
# number of rings (size 3 to 8) (size 9 to 14) (size 15 to 20)
#    0.000    1.714    2.143    2.143    0.000    1.714 
#    0.000    0.000    0.000    0.000    0.000    0.000 
#    0.000    0.000    0.000    0.000    0.000    0.000 
#
# Total GULP energy -156221.314642 kJ/mol
# GULP energy per Si atom -5579.332666 kJ/mol
# Density = 2.469999 g / cm^3
# Si number density = 24.756336 Si / 1000 Ang^3
#
#
#
# Elastic Constant Matrix: (Units=GPa)
#
#
# Indices 1 2 3 4 5 6 
#
# 1 149.3451 6.0402 40.0000 0.0000 -16.4373 0.0000
# 2 6.0402 46.8209 9.2332 0.0000 -7.1678 0.0000
# 3 40.0000 9.2332 125.6121 0.0000 -20.0162 0.0000
# 4 0.0000 0.0000 0.0000 14.7800 0.0000 -5.4842
# 5 -16.4373 -7.1678 -20.0162 0.0000 47.4642 0.0000
# 6 0.0000 0.0000 0.0000 -5.4842 0.0000 34.8560
#
#
#
# Elastic Compliance Matrix: (Units=1/GPa)
#
#
# Indices 1 2 3 4 5 6 
#
# 1 0.007449 -0.000296 -0.002087 0.000000 0.001655 0.000000
# 2 -0.000296 0.022034 -0.001084 0.000000 0.002768 0.000000
# 3 -0.002087 -0.001084 0.009181 0.000000 0.002985 0.000000
# 4 0.000000 0.000000 0.000000 0.071854 0.000000 0.011305
# 5 0.001655 0.002768 0.002985 0.000000 0.023319 0.000000
# 6 0.000000 0.000000 0.000000 0.011305 0.000000 0.030468
#
#
# Mechanical properties :
#
#
# Convention : Reuss Voigt Hill
#
# Bulk Modulus (GPa) = 31.51636 48.03610 39.77623
# Shear Modulus (GPa) = 27.50057 37.18703 32.34380
#
# Velocity S-wave (km/s) = 3.33656 3.87993 3.61846
# Velocity P-wave (km/s) = 5.25374 6.28629 5.79306
#
# Compressibility (1/GPa) = 0.03172955
#
# Stress axis : x y z
#
# Youngs Moduli (GPa) = 134.24839 45.38504 108.92216
#
# Poissons Ratio (x) = 0.01344 0.22727
# Poissons Ratio (y) = 0.03975 0.11810
# Poissons Ratio (z) = 0.28011 0.04921
#
# Static dielectric constant tensor:
#      x y z
#    x 2.005230 0.000000 -0.000790 
#    y 0.000000 2.042160 0.000000 
#    z -0.000790 0.000000 2.101660 
# 
# From -- ./inp_files/192047.got.cif
#   From: 2010.05.17/outbox.cif.g08.bks.cpg/sg15_97_cif.got.tgz:192047.got - 2010.06.03 18:47:42.
