data_PCOD9283434
_publ_section_title
;
Structure prediction by ZEFSAII (Michael W. Deem and Ramdas Pophale) SiO2 
 PCOD9283434
Probable space group: C 2/C
;
_chemical_formula_sum "Si O2"
_cell_formula_units_Z 52
_cell_length_a 8.283720
_cell_length_b 22.443800
_cell_length_c 18.074654
_cell_angle_alpha 90.000000
_cell_angle_beta 45.568486
_cell_angle_gamma 90.000000
_cell_volume 2399.624959
_symmetry_space_group_name_H-M "C 2/C"
_symmetry_group_IT_number 15
_symmetry_cell_setting 'monoclinic'
loop_
_space_group_symop_operation_xyz
x,y,z
-x,y,1/2-z
-x,-y,-z
x,-y,1/2+z
1/2+x,1/2+y,z
1/2-x,1/2+y,1/2-z
1/2-x,1/2-y,-z
1/2+x,1/2-y,1/2+z
loop_
_atom_site_type_symbol
_atom_site_label
_atom_site_fract_x
_atom_site_fract_y
_atom_site_fract_z
Si Si1 0.500000 0.242233 0.750000
Si Si2 0.816826 0.377508 0.045882
Si Si3 0.409555 0.587870 0.497727
Si Si4 0.307479 0.363545 0.195378
Si Si5 0.746368 0.309373 0.548222
Si Si6 0.088008 0.579254 0.142875
Si Si7 0.567686 0.962678 0.373811
O O1 0.342040 0.196068 0.755216
O O2 0.658662 0.286081 0.653855
O O3 0.564284 0.354674 0.139207
O O4 0.834125 0.443619 0.077637
O O5 0.875702 0.378818 0.939969
O O6 0.007995 0.338918 0.024203
O O7 0.336114 0.613827 0.601438
O O8 0.416665 0.643196 0.438796
O O9 0.653977 0.557842 0.423806
O O10 0.200539 0.548993 0.537445
O O11 0.186156 0.415421 0.280702
O O12 0.750000 0.250000 0.500000
O O13 0.000000 0.602586 0.250000
O O14 0.920335 0.527754 0.166252
#
# Coordination Sequence:
#
# PCOD9283434 Si02
#       7
#     4   8   8   8   8   8   8
#     4  12  22  38  72  90 128 170 222 264 338 380
#     4  10  25  42  64  97 138 162 222 276 325 389
#     4  10  21  40  61  91 132 164 220 263 320 391
#     4  11  20  41  68  99 123 167 220 276 313 398
#     4  11  23  43  65  93 129 177 217 276 332 385
#     4  11  24  40  62  95 131 178 211 261 327 392
#     4  11  20  40  67  94 126 169 215 267 326 384
#
# _framework density 21.670052999999999
#
# number of rings (size 3 to 8) (size 9 to 14) (size 15 to 20)
#    0.000    1.231    3.077    3.231    2.154    1.846 
#    0.000    3.077    0.000    0.000    0.000    0.000 
#    0.000    0.000    0.000    0.000    0.000    0.000 
#
# Total GULP energy -145182.675577 kJ/mol
# GULP energy per Si atom -5583.949061 kJ/mol
# Density = 2.162073 g / cm^3
# Si number density = 21.670053 Si / 1000 Ang^3
#
#
#
# Elastic Constant Matrix: (Units=GPa)
#
#
# Indices 1 2 3 4 5 6 
#
# 1 104.5563 18.2841 33.8734 0.0000 -15.1570 0.0000
# 2 18.2841 63.1431 21.9700 0.0000 -5.9083 0.0000
# 3 33.8734 21.9700 85.9513 0.0000 -5.3684 0.0000
# 4 0.0000 0.0000 0.0000 29.4909 0.0000 6.2802
# 5 -15.1570 -5.9083 -5.3684 0.0000 33.5084 0.0000
# 6 0.0000 0.0000 0.0000 6.2802 0.0000 24.5122
#
#
#
# Elastic Compliance Matrix: (Units=1/GPa)
#
#
# Indices 1 2 3 4 5 6 
#
# 1 0.011765 -0.001621 -0.003947 0.000000 0.004403 0.000000
# 2 -0.001621 0.017796 -0.003798 0.000000 0.001796 0.000000
# 3 -0.003947 -0.003798 0.014149 0.000000 -0.000188 0.000000
# 4 0.000000 0.000000 0.000000 0.035866 0.000000 -0.009189
# 5 0.004403 0.001796 -0.000188 0.000000 0.032122 0.000000
# 6 0.000000 0.000000 0.000000 -0.009189 0.000000 0.043150
#
#
# Mechanical properties :
#
#
# Convention : Reuss Voigt Hill
#
# Bulk Modulus (GPa) = 40.03581 44.65620 42.34600
# Shear Modulus (GPa) = 27.48681 29.47050 28.47866
#
# Velocity S-wave (km/s) = 3.56536 3.69177 3.62911
# Velocity P-wave (km/s) = 5.95519 6.23091 6.09461
#
# Compressibility (1/GPa) = 0.02497764
#
# Stress axis : x y z
#
# Youngs Moduli (GPa) = 84.99902 56.19256 70.67637
#
# Poissons Ratio (x) = 0.09111 0.27896
# Poissons Ratio (y) = 0.13781 0.26841
# Poissons Ratio (z) = 0.33550 0.21340
#
# Static dielectric constant tensor:
#      x y z
#    x 1.807010 0.000000 0.023140 
#    y 0.000000 1.842420 0.000000 
#    z 0.023140 0.000000 1.751050 
# 
# From -- ./inp_files/192462.got.cif
#   From: 2010.05.17/outbox.cif.g08.bks.cpg/sg15_97_cif.got.tgz:192462.got - 2010.06.03 18:47:42.
