data_PCOD9283571
_publ_section_title
;
Structure prediction by ZEFSAII (Michael W. Deem and Ramdas Pophale) SiO2 
 PCOD9283571
Probable space group: C 2/C
;
_chemical_formula_sum "Si O2"
_cell_formula_units_Z 60
_cell_length_a 7.933663
_cell_length_b 12.254254
_cell_length_c 30.587729
_cell_angle_alpha 90.000000
_cell_angle_beta 108.142537
_cell_angle_gamma 90.000000
_cell_volume 2825.931644
_symmetry_space_group_name_H-M "C 2/C"
_symmetry_group_IT_number 15
_symmetry_cell_setting 'monoclinic'
loop_
_space_group_symop_operation_xyz
x,y,z
-x,y,1/2-z
-x,-y,-z
x,-y,1/2+z
1/2+x,1/2+y,z
1/2-x,1/2+y,1/2-z
1/2-x,1/2-y,-z
1/2+x,1/2-y,1/2+z
loop_
_atom_site_type_symbol
_atom_site_label
_atom_site_fract_x
_atom_site_fract_y
_atom_site_fract_z
Si Si1 0.899708 0.120029 0.044258
Si Si2 0.400875 0.176182 0.332940
Si Si3 0.794488 0.611637 0.656083
Si Si4 0.184060 0.500016 0.603175
Si Si5 0.178472 0.375158 0.443347
Si Si6 0.000000 0.722391 0.250000
Si Si7 0.703060 0.380185 0.627570
Si Si8 0.181403 0.326379 0.172726
O O1 0.789307 0.049336 0.070913
O O2 0.876784 0.251118 0.048493
O O3 0.101356 0.098646 0.074511
O O4 0.826106 0.092748 0.990616
O O5 0.306467 0.292893 0.327540
O O6 0.312422 0.092236 0.358915
O O7 0.418104 0.151643 0.282785
O O8 0.604189 0.169967 0.365296
O O9 0.759730 0.630846 0.601604
O O10 0.724772 0.489779 0.657224
O O11 0.008151 0.615827 0.678892
O O12 0.248196 0.604637 0.636246
O O13 0.989413 0.541760 0.571397
O O14 0.156765 0.796155 0.282951
O O15 0.606331 0.288344 0.648167
#
# Coordination Sequence:
#
# PCOD9283571 Si02
#       8
#     8   8   8   8   8   4   8   8
#     4  11  22  37  67  96 135 177 218 262 317 383
#     4  11  23  44  66  94 128 168 218 267 335 386
#     4  11  22  43  70  90 129 183 205 262 333 386
#     4  11  20  43  69  92 132 179 208 265 337 387
#     4  10  21  40  62  99 133 171 226 262 305 396
#     4  10  26  44  64  98 128 156 224 280 312 410
#     4  11  22  40  67  93 132 173 212 268 322 380
#     4  10  22  46  64  98 128 163 219 267 332 391
#
# _framework density 21.231936999999999
#
# number of rings (size 3 to 8) (size 9 to 14) (size 15 to 20)
#    0.000    1.333    6.667    0.400    3.733    1.067 
#    4.800    0.667    0.000    0.000    0.000    0.000 
#    0.000    0.000    0.000    0.000    0.000    0.000 
#
# Total GULP energy -167307.299628 kJ/mol
# GULP energy per Si atom -5576.909988 kJ/mol
# Density = 2.118361 g / cm^3
# Si number density = 21.231937 Si / 1000 Ang^3
#
#
#
# Elastic Constant Matrix: (Units=GPa)
#
#
# Indices 1 2 3 4 5 6 
#
# 1 28.7719 13.6597 35.5785 0.0000 4.1046 0.0000
# 2 13.6597 112.0121 7.1276 0.0000 4.0963 0.0000
# 3 35.5785 7.1276 126.2657 0.0000 24.8918 0.0000
# 4 0.0000 0.0000 0.0000 14.7517 0.0000 3.5962
# 5 4.1046 4.0963 24.8918 0.0000 39.7147 0.0000
# 6 0.0000 0.0000 0.0000 3.5962 0.0000 26.4417
#
#
#
# Elastic Compliance Matrix: (Units=1/GPa)
#
#
# Indices 1 2 3 4 5 6 
#
# 1 0.058013 -0.006185 -0.017048 0.000000 0.005327 0.000000
# 2 -0.006185 0.009636 0.001448 0.000000 -0.001262 0.000000
# 3 -0.017048 0.001448 0.014061 0.000000 -0.007200 0.000000
# 4 0.000000 0.000000 0.000000 0.070113 0.000000 -0.009536
# 5 0.005327 -0.001262 -0.007200 0.000000 0.029272 0.000000
# 6 0.000000 0.000000 0.000000 -0.009536 0.000000 0.039116
#
#
# Mechanical properties :
#
#
# Convention : Reuss Voigt Hill
#
# Bulk Modulus (GPa) = 26.21883 42.19792 34.20837
# Shear Modulus (GPa) = 18.08355 30.22724 24.15540
#
# Velocity S-wave (km/s) = 2.92158 3.77725 3.37663
# Velocity P-wave (km/s) = 4.87406 6.24030 5.59901
#
# Compressibility (1/GPa) = 0.03814053
#
# Stress axis : x y z
#
# Youngs Moduli (GPa) = 17.23752 103.77905 71.11793
#
# Poissons Ratio (x) = 0.64184 1.21239
# Poissons Ratio (y) = 0.10661 -0.10294
# Poissons Ratio (z) = 0.29386 -0.15022
#
# Static dielectric constant tensor:
#      x y z
#    x 1.808210 0.000000 -0.001510 
#    y 0.000000 1.843240 0.000000 
#    z -0.001510 0.000000 1.767430 
# 
# From -- ./inp_files/307203.got.cif
#   From: 2010.05.17/outbox.cif.g08.bks.cpg/sg15_154_cif.got.tgz:307203.got - 2010.06.03 18:47:42.
