data_PCOD9283769
_publ_section_title
;
Structure prediction by ZEFSAII (Michael W. Deem and Ramdas Pophale) SiO2 
 PCOD9283769
Probable space group: C 2/C
;
_chemical_formula_sum "Si O2"
_cell_formula_units_Z 48
_cell_length_a 7.642362
_cell_length_b 30.084583
_cell_length_c 18.576147
_cell_angle_alpha 90.000000
_cell_angle_beta 35.500686
_cell_angle_gamma 90.000000
_cell_volume 2480.210644
_symmetry_space_group_name_H-M "C 2/C"
_symmetry_group_IT_number 15
_symmetry_cell_setting 'monoclinic'
loop_
_space_group_symop_operation_xyz
x,y,z
-x,y,1/2-z
-x,-y,-z
x,-y,1/2+z
1/2+x,1/2+y,z
1/2-x,1/2+y,1/2-z
1/2-x,1/2-y,-z
1/2+x,1/2-y,1/2+z
loop_
_atom_site_type_symbol
_atom_site_label
_atom_site_fract_x
_atom_site_fract_y
_atom_site_fract_z
Si Si1 0.807049 0.536799 0.605837
Si Si2 0.892791 0.399998 0.389922
Si Si3 0.919516 0.703190 0.453822
Si Si4 0.019993 0.886474 0.102337
Si Si5 0.309248 0.190688 0.979174
Si Si6 0.724611 0.260403 0.794279
O O1 0.500000 0.521827 0.750000
O O2 0.711612 0.577342 0.583647
O O3 0.000000 0.500000 0.500000
O O4 0.018957 0.556369 0.597266
O O5 0.624538 0.405334 0.422867
O O6 0.801177 0.361253 0.473963
O O7 0.208399 0.381103 0.251402
O O8 0.750000 0.750000 0.500000
O O9 0.702298 0.659413 0.525941
O O10 0.070837 0.701879 0.481519
O O11 0.168839 0.709229 0.307489
O O12 0.514248 0.217254 0.852599
O O13 0.975019 0.209242 0.086606
O O14 0.000000 0.243674 0.750000
#
# Coordination Sequence:
#
# PCOD9283769 Si02
#       6
#     8   8   8   8   8   8
#     4  10  22  44  70  96 126 159 210 266 326 393
#     4  10  21  40  64  92 124 163 212 257 312 384
#     4  12  22  37  59  87 124 171 217 259 309 369
#     4  10  22  39  65  94 125 168 210 257 313 381
#     4  11  23  39  57  85 124 169 216 260 313 370
#     4  11  23  37  53  82 123 167 212 265 309 362
#
# _framework density 19.353193999999998
#
# number of rings (size 3 to 8) (size 9 to 14) (size 15 to 20)
#    0.000    1.333    3.333    2.500    2.333    0.667 
#    3.000    0.000    0.000    0.000    0.000    0.000 
#    0.000    0.000    0.000    0.000    0.000    0.000 
#
# Total GULP energy -133768.844329 kJ/mol
# GULP energy per Si atom -5573.701847 kJ/mol
# Density = 1.930915 g / cm^3
# Si number density = 19.353194 Si / 1000 Ang^3
#
#
#
# Elastic Constant Matrix: (Units=GPa)
#
#
# Indices 1 2 3 4 5 6 
#
# 1 71.5760 17.6861 31.7611 0.0000 5.9458 0.0000
# 2 17.6861 78.3084 53.5430 0.0000 2.0296 0.0000
# 3 31.7611 53.5430 97.3671 -0.0003 -1.3616 0.0002
# 4 0.0000 0.0000 -0.0003 38.2136 0.0001 3.8005
# 5 5.9458 2.0296 -1.3616 0.0001 25.6181 0.0000
# 6 0.0000 0.0000 0.0002 3.8005 0.0000 19.1861
#
#
#
# Elastic Compliance Matrix: (Units=1/GPa)
#
#
# Indices 1 2 3 4 5 6 
#
# 1 0.016774 0.000163 -0.005620 0.000000 -0.004205 0.000000
# 2 0.000163 0.020593 -0.011410 0.000000 -0.002276 0.000000
# 3 -0.005620 -0.011410 0.018423 0.000000 0.003188 0.000000
# 4 0.000000 0.000000 0.000000 0.026695 0.000000 -0.005288
# 5 -0.004205 -0.002276 0.003188 0.000000 0.040361 0.000000
# 6 0.000000 0.000000 0.000000 -0.005288 0.000000 0.053169
#
#
# Mechanical properties :
#
#
# Convention : Reuss Voigt Hill
#
# Bulk Modulus (GPa) = 45.33721 50.35908 47.84814
# Shear Modulus (GPa) = 23.03096 26.22098 24.62597
#
# Velocity S-wave (km/s) = 3.45343 3.68484 3.57101
# Velocity P-wave (km/s) = 6.27524 6.64693 6.46376
#
# Compressibility (1/GPa) = 0.02205694
#
# Stress axis : x y z
#
# Youngs Moduli (GPa) = 59.61586 48.55933 54.28121
#
# Poissons Ratio (x) = -0.00794 0.30508
# Poissons Ratio (y) = -0.00974 0.61933
# Poissons Ratio (z) = 0.33506 0.55404
#
# Static dielectric constant tensor:
#      x y z
#    x 1.726210 0.000000 0.002050 
#    y 0.000000 1.663570 0.000000 
#    z 0.002050 0.000000 1.773200 
# 
# From -- ./inp_files/234750.got.cif
#   From: 2010.05.17/outbox.cif.g08.bks.cpg/sg15_118_cif.got.tgz:234750.got - 2010.06.03 18:47:42.
