data_PCOD9283972
_publ_section_title
;
Structure prediction by ZEFSAII (Michael W. Deem and Ramdas Pophale) SiO2 
 PCOD9283972
Probable space group: C 2/C
;
_chemical_formula_sum "Si O2"
_cell_formula_units_Z 60
_cell_length_a 9.047709
_cell_length_b 19.167507
_cell_length_c 16.676257
_cell_angle_alpha 90.000000
_cell_angle_beta 86.082850
_cell_angle_gamma 90.000000
_cell_volume 2885.274126
_symmetry_space_group_name_H-M "C 2/C"
_symmetry_group_IT_number 15
_symmetry_cell_setting 'monoclinic'
loop_
_space_group_symop_operation_xyz
x,y,z
-x,y,1/2-z
-x,-y,-z
x,-y,1/2+z
1/2+x,1/2+y,z
1/2-x,1/2+y,1/2-z
1/2-x,1/2-y,-z
1/2+x,1/2-y,1/2+z
loop_
_atom_site_type_symbol
_atom_site_label
_atom_site_fract_x
_atom_site_fract_y
_atom_site_fract_z
Si Si1 0.835851 0.881238 0.222955
Si Si2 0.899030 0.527046 0.677128
Si Si3 0.763592 0.103251 0.381196
Si Si4 0.683128 0.342133 0.445040
Si Si5 0.019957 0.340645 0.429655
Si Si6 0.011098 0.293127 0.900173
Si Si7 0.000000 0.138203 0.250000
Si Si8 0.728242 0.748178 0.312245
O O1 0.740238 0.935677 0.275760
O O2 0.838509 0.894217 0.128349
O O3 0.762149 0.805482 0.242561
O O4 0.000000 0.878216 0.250000
O O5 0.839785 0.463908 0.626000
O O6 0.000000 0.505935 0.750000
O O7 0.973527 0.585849 0.617628
O O8 0.817715 0.121058 0.468851
O O9 0.655852 0.167788 0.361238
O O10 0.904026 0.096399 0.317997
O O11 0.851124 0.313341 0.429399
O O12 0.565448 0.280491 0.435719
O O13 0.047280 0.340700 0.523856
O O14 0.139338 0.291084 0.383719
O O15 0.882332 0.279584 0.841810
O O16 0.118727 0.187879 0.288924
#
# Coordination Sequence:
#
# PCOD9283972 Si02
#       8
#     8   8   8   8   8   8   4   8
#     4  11  22  41  71  94 130 178 221 267 326 402
#     4  11  25  45  67  90 129 184 236 265 323 399
#     4  11  27  43  65  93 133 180 223 277 336 390
#     4  11  21  43  67 103 134 171 214 275 344 399
#     4  10  21  40  65  97 135 172 215 275 332 396
#     4  11  22  39  70 104 136 166 219 277 345 403
#     4  12  26  42  62  94 142 168 220 278 352 388
#     4  11  22  37  68 101 132 170 216 270 344 400
#
# _framework density 20.795252000000001
#
# number of rings (size 3 to 8) (size 9 to 14) (size 15 to 20)
#    0.000    1.067    2.667    5.200    4.667    2.133 
#    0.000    0.667    0.000    0.000    0.000    0.000 
#    0.000    0.000    0.000    0.000    0.000    0.000 
#
# Total GULP energy -167670.653557 kJ/mol
# GULP energy per Si atom -5589.021785 kJ/mol
# Density = 2.074792 g / cm^3
# Si number density = 20.795252 Si / 1000 Ang^3
#
#
#
# Elastic Constant Matrix: (Units=GPa)
#
#
# Indices 1 2 3 4 5 6 
#
# 1 61.2407 2.5255 32.9812 0.0000 -6.4335 0.0000
# 2 2.5255 50.9477 22.8326 0.0000 8.1105 0.0000
# 3 32.9812 22.8326 100.4581 0.0000 -5.6546 0.0000
# 4 0.0000 0.0000 0.0000 15.3110 0.0000 -0.1053
# 5 -6.4335 8.1105 -5.6546 0.0000 32.8608 0.0000
# 6 0.0000 0.0000 0.0000 -0.1053 0.0000 14.2697
#
#
#
# Elastic Compliance Matrix: (Units=1/GPa)
#
#
# Indices 1 2 3 4 5 6 
#
# 1 0.020219 0.001714 -0.006895 0.000000 0.002349 0.000000
# 2 0.001714 0.023377 -0.006242 0.000000 -0.006508 0.000000
# 3 -0.006895 -0.006242 0.013781 0.000000 0.002562 0.000000
# 4 0.000000 0.000000 0.000000 0.065316 0.000000 0.000482
# 5 0.002349 -0.006508 0.002562 0.000000 0.032938 0.000000
# 6 0.000000 0.000000 0.000000 0.000482 0.000000 0.070082
#
#
# Mechanical properties :
#
#
# Convention : Reuss Voigt Hill
#
# Bulk Modulus (GPa) = 28.96089 36.59166 32.77628
# Shear Modulus (GPa) = 19.22564 22.77545 21.00054
#
# Velocity S-wave (km/s) = 3.04389 3.31301 3.18130
# Velocity P-wave (km/s) = 5.12939 5.68058 5.41201
#
# Compressibility (1/GPa) = 0.03452933
#
# Stress axis : x y z
#
# Youngs Moduli (GPa) = 49.45962 42.77794 72.56298
#
# Poissons Ratio (x) = -0.07332 0.50034
# Poissons Ratio (y) = -0.08477 0.45295
# Poissons Ratio (z) = 0.34104 0.26703
#
# Static dielectric constant tensor:
#      x y z
#    x 1.723960 0.000000 -0.015250 
#    y 0.000000 1.744090 0.000000 
#    z -0.015250 0.000000 1.781460 
# 
# From -- ./inp_files/190993.got.cif
#   From: 2010.05.17/outbox.cif.g08.bks.cpg/sg15_96_cif.got.tgz:190993.got - 2010.06.03 18:47:42.
