data_PCOD9283123
_publ_section_title
;
Structure prediction by ZEFSAII (Michael W. Deem and Ramdas Pophale) SiO2 
 PCOD9283123
Probable space group: C 2/C
;
_chemical_formula_sum "Si O2"
_cell_formula_units_Z 40
_cell_length_a 24.847311
_cell_length_b 5.426064
_cell_length_c 13.292389
_cell_angle_alpha 90.000000
_cell_angle_beta 114.525566
_cell_angle_gamma 90.000000
_cell_volume 1630.429005
_symmetry_space_group_name_H-M "C 2/C"
_symmetry_group_IT_number 15
_symmetry_cell_setting 'monoclinic'
loop_
_space_group_symop_operation_xyz
x,y,z
-x,y,1/2-z
-x,-y,-z
x,-y,1/2+z
1/2+x,1/2+y,z
1/2-x,1/2+y,1/2-z
1/2-x,1/2-y,-z
1/2+x,1/2-y,1/2+z
loop_
_atom_site_type_symbol
_atom_site_label
_atom_site_fract_x
_atom_site_fract_y
_atom_site_fract_z
Si Si1 0.032355 0.745736 0.991918
Si Si2 0.197913 0.512937 0.407040
Si Si3 0.906334 0.129258 0.144305
Si Si4 0.682048 0.371922 0.564486
Si Si5 0.633263 0.617449 0.706970
O O1 0.096884 0.732244 0.095679
O O2 0.042843 0.745364 0.880177
O O3 0.000000 0.500000 0.000000
O O4 0.000000 0.000000 0.000000
O O5 0.146614 0.314084 0.369572
O O6 0.263664 0.445716 0.421707
O O7 0.201707 0.624094 0.523167
O O8 0.176141 0.720363 0.309468
O O9 0.916133 0.989790 0.255539
O O10 0.877464 0.938160 0.042488
O O11 0.667563 0.407361 0.669915
#
# Coordination Sequence:
#
# PCOD9283123 Si02
#       5
#     8   8   8   8   8
#     4  11  28  50  73  97 137 182 232 300 354 394
#     4  10  21  39  67  97 138 181 217 276 339 422
#     4  10  23  42  69  97 134 174 230 280 340 419
#     4   9  21  40  62 100 142 174 217 271 346 410
#     4  10  24  41  66 103 131 176 232 281 337 420
#
# _framework density 24.533421000000001
#
# number of rings (size 3 to 8) (size 9 to 14) (size 15 to 20)
#    0.000    2.000    0.000    0.600   14.000    2.400 
#    3.600    0.000    0.000    0.000    0.000    0.000 
#    0.000    0.000    0.000    0.000    0.000    0.000 
#
# Total GULP energy -111708.232559 kJ/mol
# GULP energy per Si atom -5585.411628 kJ/mol
# Density = 2.447758 g / cm^3
# Si number density = 24.533421 Si / 1000 Ang^3
#
#
#
# Elastic Constant Matrix: (Units=GPa)
#
#
# Indices 1 2 3 4 5 6 
#
# 1 75.4518 6.1016 31.3712 0.0000 -22.3826 0.0000
# 2 6.1016 58.0691 21.3098 0.0000 -6.6920 0.0000
# 3 31.3712 21.3098 120.8879 0.0000 -24.9509 0.0000
# 4 0.0000 0.0000 0.0000 16.5500 0.0000 1.3778
# 5 -22.3826 -6.6920 -24.9509 0.0000 56.6306 0.0000
# 6 0.0000 0.0000 0.0000 1.3778 0.0000 39.6277
#
#
#
# Elastic Compliance Matrix: (Units=1/GPa)
#
#
# Indices 1 2 3 4 5 6 
#
# 1 0.016027 0.000041 -0.003144 0.000000 0.004954 0.000000
# 2 0.000041 0.018447 -0.003090 0.000000 0.000834 0.000000
# 3 -0.003144 -0.003090 0.010231 0.000000 0.002900 0.000000
# 4 0.000000 0.000000 0.000000 0.060598 0.000000 -0.002107
# 5 0.004954 0.000834 0.002900 0.000000 0.020993 0.000000
# 6 0.000000 0.000000 0.000000 -0.002107 0.000000 0.025308
#
#
# Mechanical properties :
#
#
# Convention : Reuss Voigt Hill
#
# Bulk Modulus (GPa) = 30.94203 41.33043 36.13623
# Shear Modulus (GPa) = 28.61012 35.60340 32.10676
#
# Velocity S-wave (km/s) = 3.41863 3.81362 3.62151
# Velocity P-wave (km/s) = 5.31246 6.02285 5.67878
#
# Compressibility (1/GPa) = 0.03231850
#
# Stress axis : x y z
#
# Youngs Moduli (GPa) = 62.39491 54.21016 97.74000
#
# Poissons Ratio (x) = -0.00220 0.30727
# Poissons Ratio (y) = -0.00253 0.30202
# Poissons Ratio (z) = 0.19615 0.16751
#
# Static dielectric constant tensor:
#      x y z
#    x 2.055500 0.000000 0.026600 
#    y 0.000000 2.018940 0.000000 
#    z 0.026600 0.000000 1.977140 
# 
# From -- ./inp_files/120712.got.cif
#   From: 2010.05.17/outbox.cif.g08.bks.cpg/sg15_61_cif.got.tgz:120712.got - 2010.06.03 18:47:42.
