data_PCOD9283949
_publ_section_title
;
Structure prediction by ZEFSAII (Michael W. Deem and Ramdas Pophale) SiO2 
 PCOD9283949
Probable space group: C 2/C
;
_chemical_formula_sum "Si O2"
_cell_formula_units_Z 40
_cell_length_a 8.666047
_cell_length_b 24.701724
_cell_length_c 7.762719
_cell_angle_alpha 90.000000
_cell_angle_beta 87.902852
_cell_angle_gamma 90.000000
_cell_volume 1660.623540
_symmetry_space_group_name_H-M "C 2/C"
_symmetry_group_IT_number 15
_symmetry_cell_setting 'monoclinic'
loop_
_space_group_symop_operation_xyz
x,y,z
-x,y,1/2-z
-x,-y,-z
x,-y,1/2+z
1/2+x,1/2+y,z
1/2-x,1/2+y,1/2-z
1/2-x,1/2-y,-z
1/2+x,1/2-y,1/2+z
loop_
_atom_site_type_symbol
_atom_site_label
_atom_site_fract_x
_atom_site_fract_y
_atom_site_fract_z
Si Si1 0.831590 0.616079 0.676852
Si Si2 0.168920 0.567975 0.324782
Si Si3 0.675347 0.518979 0.498082
Si Si4 0.160908 0.678004 0.187181
Si Si5 0.320323 0.226114 0.815633
O O1 0.726361 0.563996 0.637773
O O2 0.855393 0.644735 0.488229
O O3 0.756689 0.665333 0.788032
O O4 0.000000 0.601305 0.750000
O O5 0.207174 0.531631 0.485955
O O6 0.191400 0.632065 0.330195
O O7 0.000000 0.558393 0.250000
O O8 0.293039 0.547027 0.184009
O O9 0.500000 0.500000 0.500000
O O10 0.277358 0.726534 0.183525
O O11 0.000000 0.703717 0.250000
O O12 0.500000 0.218066 0.750000
O O13 0.250000 0.250000 0.000000
#
# Coordination Sequence:
#
# PCOD9283949 Si02
#       5
#     8   8   8   8   8
#     4  10  22  41  65  95 134 184 230 277 345 426
#     4  10  22  40  64  89 127 178 220 267 337 421
#     4  11  23  40  63  96 129 166 225 290 342 396
#     4  10  21  40  65  95 132 175 227 281 338 412
#     4  11  24  43  70 103 139 183 230 283 349 417
#
# _framework density 24.087337999999999
#
# number of rings (size 3 to 8) (size 9 to 14) (size 15 to 20)
#    0.000    1.600    0.000    4.800    0.000    8.000 
#    0.000    6.000    0.000    0.000    0.000    0.000 
#    0.000    0.000    0.000    0.000    0.000    0.000 
#
# Total GULP energy -111627.236772 kJ/mol
# GULP energy per Si atom -5581.361839 kJ/mol
# Density = 2.403251 g / cm^3
# Si number density = 24.087338 Si / 1000 Ang^3
#
#
#
# Elastic Constant Matrix: (Units=GPa)
#
#
# Indices 1 2 3 4 5 6 
#
# 1 109.6503 64.8191 18.1151 0.0000 8.7571 0.0000
# 2 64.8191 141.9304 27.9062 0.0000 26.9272 0.0000
# 3 18.1151 27.9062 106.9374 0.0000 2.2033 0.0000
# 4 0.0000 0.0000 0.0000 38.0906 0.0000 -1.7900
# 5 8.7571 26.9272 2.2033 0.0000 40.5975 0.0000
# 6 0.0000 0.0000 0.0000 -1.7900 0.0000 46.0724
#
#
#
# Elastic Compliance Matrix: (Units=1/GPa)
#
#
# Indices 1 2 3 4 5 6 
#
# 1 0.012588 -0.005853 -0.000630 0.000000 0.001201 0.000000
# 2 -0.005853 0.011230 -0.001814 0.000000 -0.006088 0.000000
# 3 -0.000630 -0.001814 0.009915 0.000000 0.000801 0.000000
# 4 0.000000 0.000000 0.000000 0.026301 0.000000 0.001022
# 5 0.001201 -0.006088 0.000801 0.000000 0.028367 0.000000
# 6 0.000000 0.000000 0.000000 0.001022 0.000000 0.021745
#
#
# Mechanical properties :
#
#
# Convention : Reuss Voigt Hill
#
# Bulk Modulus (GPa) = 58.34235 64.46654 61.40445
# Shear Modulus (GPa) = 37.74938 41.46394 39.60666
#
# Velocity S-wave (km/s) = 3.96307 4.15348 4.05939
# Velocity P-wave (km/s) = 6.72421 7.05858 6.89342
#
# Compressibility (1/GPa) = 0.01714021
#
# Stress axis : x y z
#
# Youngs Moduli (GPa) = 79.44115 89.04475 100.85978
#
# Poissons Ratio (x) = 0.52117 0.06352
# Poissons Ratio (y) = 0.46496 0.18293
# Poissons Ratio (z) = 0.05003 0.16150
#
# Static dielectric constant tensor:
#      x y z
#    x 1.927210 0.000000 0.036960 
#    y 0.000000 1.918040 0.000000 
#    z 0.036960 0.000000 2.127990 
# 
# From -- ./inp_files/23661.got.cif
#   From: 2010.05.17/outbox.cif.g08.bks.cpg/sg15_12_cif.got.tgz:23661.got - 2010.06.03 18:47:42.
