data_PCOD9283267
_publ_section_title
;
Structure prediction by ZEFSAII (Michael W. Deem and Ramdas Pophale) SiO2 
 PCOD9283267
Probable space group: C 2/C
;
_chemical_formula_sum "Si O2"
_cell_formula_units_Z 48
_cell_length_a 6.005593
_cell_length_b 23.203136
_cell_length_c 17.093584
_cell_angle_alpha 90.000000
_cell_angle_beta 123.830211
_cell_angle_gamma 90.000000
_cell_volume 1978.678493
_symmetry_space_group_name_H-M "C 2/C"
_symmetry_group_IT_number 15
_symmetry_cell_setting 'monoclinic'
loop_
_space_group_symop_operation_xyz
x,y,z
-x,y,1/2-z
-x,-y,-z
x,-y,1/2+z
1/2+x,1/2+y,z
1/2-x,1/2+y,1/2-z
1/2-x,1/2-y,-z
1/2+x,1/2-y,1/2+z
loop_
_atom_site_type_symbol
_atom_site_label
_atom_site_fract_x
_atom_site_fract_y
_atom_site_fract_z
Si Si1 0.396939 0.966921 0.401694
Si Si2 0.426306 0.824225 0.947628
Si Si3 0.594016 0.389145 0.990559
Si Si4 0.542705 0.925755 0.846219
Si Si5 0.920936 0.858736 0.125067
Si Si6 0.813110 0.752625 0.287907
O O1 0.642685 0.924115 0.436258
O O2 0.145829 0.924207 0.363494
O O3 0.500000 0.000000 0.500000
O O4 0.383444 0.015915 0.333751
O O5 0.148753 0.840647 0.935919
O O6 0.464336 0.878741 0.896057
O O7 0.446348 0.770839 0.894046
O O8 0.637785 0.824831 0.060584
O O9 0.361979 0.432825 0.918450
O O10 0.503524 0.360023 0.051400
O O11 0.500000 0.905865 0.750000
O O12 0.148723 0.821758 0.211240
O O13 0.500000 0.739136 0.250000
O O14 0.000000 0.731237 0.250000
#
# Coordination Sequence:
#
# PCOD9283267 Si02
#       6
#     8   8   8   8   8   8
#     4  11  20  43  67  99 133 188 233 292 355 441
#     4  10  23  43  73 100 139 186 246 295 364 439
#     4  10  21  39  72  95 135 182 239 295 349 447
#     4  11  23  38  65 108 142 178 235 303 375 423
#     4  10  24  45  72  97 138 188 252 285 364 443
#     4  12  30  49  72 106 153 192 238 312 372 430
#
# _framework density 24.258617000000001
#
# number of rings (size 3 to 8) (size 9 to 14) (size 15 to 20)
#    0.000    1.333    5.000    1.500   11.667    0.667 
#    3.000    0.000    0.000    0.000    0.000    0.000 
#    0.000    0.000    0.000    0.000    0.000    0.000 
#
# Total GULP energy -133797.898865 kJ/mol
# GULP energy per Si atom -5574.912453 kJ/mol
# Density = 2.420340 g / cm^3
# Si number density = 24.258617 Si / 1000 Ang^3
#
#
#
# Elastic Constant Matrix: (Units=GPa)
#
#
# Indices 1 2 3 4 5 6 
#
# 1 115.7497 27.1028 21.8718 0.0000 -18.7696 0.0000
# 2 27.1028 100.0122 -0.8359 0.0000 -2.6143 0.0000
# 3 21.8718 -0.8359 59.3846 0.0000 -9.7891 0.0000
# 4 0.0000 0.0000 0.0000 17.7334 0.0000 10.5759
# 5 -18.7696 -2.6143 -9.7891 0.0000 21.4795 0.0000
# 6 0.0000 0.0000 0.0000 10.5759 0.0000 10.2249
#
#
#
# Elastic Compliance Matrix: (Units=1/GPa)
#
#
# Indices 1 2 3 4 5 6 
#
# 1 0.011150 -0.002833 -0.002808 0.000000 0.008119 0.000000
# 2 -0.002833 0.010758 0.001084 0.000000 -0.000672 0.000000
# 3 -0.002808 0.001084 0.018928 0.000000 0.006304 0.000000
# 4 0.000000 0.000000 0.000000 0.147177 0.000000 -0.152230
# 5 0.008119 -0.000672 0.006304 0.000000 0.056442 0.000000
# 6 0.000000 0.000000 0.000000 -0.152230 0.000000 0.255256
#
#
# Mechanical properties :
#
#
# Convention : Reuss Voigt Hill
#
# Bulk Modulus (GPa) = 31.52390 41.26931 36.39660
# Shear Modulus (GPa) = 9.62651 25.02142 17.32396
#
# Velocity S-wave (km/s) = 1.99422 3.21510 2.67523
# Velocity P-wave (km/s) = 4.28085 5.55262 4.95768
#
# Compressibility (1/GPa) = 0.03172196
#
# Stress axis : x y z
#
# Youngs Moduli (GPa) = 89.68841 92.95462 52.83144
#
# Poissons Ratio (x) = 0.26332 0.14836
# Poissons Ratio (y) = 0.25407 -0.05727
# Poissons Ratio (z) = 0.25186 -0.10076
#
# Static dielectric constant tensor:
#      x y z
#    x 2.700400 0.000000 -0.169450 
#    y 0.000000 1.992090 0.000000 
#    z -0.169450 0.000000 2.161680 
# 
# From -- ./inp_files/185542.got.cif
#   From: 2010.05.17/outbox.cif.g08.bks.cpg/sg15_93_cif.got.tgz:185542.got - 2010.06.03 18:47:42.
