data_PCOD9283067
_publ_section_title
;
Structure prediction by ZEFSAII (Michael W. Deem and Ramdas Pophale) SiO2 
 PCOD9283067
Probable space group: C 2/C
;
_chemical_formula_sum "Si O2"
_cell_formula_units_Z 44
_cell_length_a 11.654174
_cell_length_b 14.098475
_cell_length_c 14.245614
_cell_angle_alpha 90.000000
_cell_angle_beta 55.562452
_cell_angle_gamma 90.000000
_cell_volume 1930.427466
_symmetry_space_group_name_H-M "C 2/C"
_symmetry_group_IT_number 15
_symmetry_cell_setting 'monoclinic'
loop_
_space_group_symop_operation_xyz
x,y,z
-x,y,1/2-z
-x,-y,-z
x,-y,1/2+z
1/2+x,1/2+y,z
1/2-x,1/2+y,1/2-z
1/2-x,1/2-y,-z
1/2+x,1/2-y,1/2+z
loop_
_atom_site_type_symbol
_atom_site_label
_atom_site_fract_x
_atom_site_fract_y
_atom_site_fract_z
Si Si1 0.116211 0.344454 0.618069
Si Si2 0.725632 0.949737 0.017223
Si Si3 0.651269 0.209075 0.907084
Si Si4 0.794673 0.498651 0.185711
Si Si5 0.528885 0.377516 0.846223
Si Si6 0.500000 0.941768 0.250000
O O1 0.201523 0.442202 0.563144
O O2 0.222085 0.266705 0.607467
O O3 0.060547 0.318476 0.540332
O O4 0.000000 0.344335 0.750000
O O5 0.884426 0.918311 0.953441
O O6 0.620982 0.891562 0.133466
O O7 0.683953 0.951666 0.926114
O O8 0.711752 0.113472 0.833734
O O9 0.573680 0.280276 0.874199
O O10 0.655935 0.546556 0.291698
O O11 0.918919 0.498176 0.203904
O O12 0.500000 0.361534 0.750000
#
# Coordination Sequence:
#
# PCOD9283067 Si02
#       6
#     8   8   8   8   8   4
#     4  10  21  39  66  99 136 176 227 294 345 400
#     4  10  22  42  68  99 134 183 236 279 345 413
#     4  10  23  41  66 105 136 179 238 283 345 412
#     4  10  24  42  67 101 140 178 234 289 345 412
#     4  10  23  45  72 100 140 186 232 284 345 416
#     4  12  22  38  68  96 138 180 224 284 350 406
#
# _framework density 22.792881000000001
#
# number of rings (size 3 to 8) (size 9 to 14) (size 15 to 20)
#    0.000    1.818    0.909    1.636    1.273    9.455 
#    3.273    0.909    0.000    0.000    0.000    0.000 
#    0.000    0.000    0.000    0.000    0.000    0.000 
#
# Total GULP energy -122851.893302 kJ/mol
# GULP energy per Si atom -5584.176968 kJ/mol
# Density = 2.274100 g / cm^3
# Si number density = 22.792881 Si / 1000 Ang^3
#
#
#
# Elastic Constant Matrix: (Units=GPa)
#
#
# Indices 1 2 3 4 5 6 
#
# 1 97.3264 43.4920 49.4075 0.0000 0.9839 0.0000
# 2 43.4920 107.5015 38.5536 0.0000 -1.9468 0.0000
# 3 49.4075 38.5536 136.6704 0.0000 -28.9325 0.0000
# 4 0.0000 0.0000 0.0000 30.7572 0.0000 21.7388
# 5 0.9839 -1.9468 -28.9325 0.0000 41.7789 0.0000
# 6 0.0000 0.0000 0.0000 21.7388 0.0000 -38.5599
#
#
#
# Elastic Compliance Matrix: (Units=1/GPa)
#
#
# Indices 1 2 3 4 5 6 
#
# 1 0.014740 -0.004252 -0.004974 0.000000 -0.003990 0.000000
# 2 -0.004252 0.011693 -0.001904 0.000000 -0.000674 0.000000
# 3 -0.004974 -0.001904 0.011317 0.000000 0.007866 0.000000
# 4 0.000000 0.000000 0.000000 0.023249 0.000000 0.013107
# 5 -0.003990 -0.000674 0.007866 0.000000 0.029445 0.000000
# 6 0.000000 0.000000 0.000000 0.013107 0.000000 -0.018544
#
#
# Mechanical properties :
#
#
# Convention : Reuss Voigt Hill
#
# Bulk Modulus (GPa) = 64.55426 67.15604 65.85515
# Shear Modulus (GPa) = 50.34090 20.79827 35.56959
#
# Velocity S-wave (km/s) = 4.70470 3.02402 3.95467
# Velocity P-wave (km/s) = 7.60893 6.45914 7.05749
#
# Compressibility (1/GPa) = 0.01549085
#
# Stress axis : x y z
#
# Youngs Moduli (GPa) = 67.84263 85.52117 88.36119
#
# Poissons Ratio (x) = 0.36362 0.43949
# Poissons Ratio (y) = 0.28846 0.16824
# Poissons Ratio (z) = 0.33744 0.16283
#
# Static dielectric constant tensor:
#      x y z
#    x 1.839960 0.000000 -0.008970 
#    y 0.000000 1.906520 0.000000 
#    z -0.008970 0.000000 1.924570 
# 
# From -- ./inp_files/87155.got.cif
#   From: 2010.05.17/outbox.cif.g08.bks.cpg/sg15_44_cif.got.tgz:87155.got - 2010.06.03 18:47:42.
