data_PCOD9283651
_publ_section_title
;
Structure prediction by ZEFSAII (Michael W. Deem and Ramdas Pophale) SiO2 
 PCOD9283651
Probable space group: C 2/C
;
_chemical_formula_sum "Si O2"
_cell_formula_units_Z 64
_cell_length_a 12.411075
_cell_length_b 29.151843
_cell_length_c 15.418706
_cell_angle_alpha 90.000000
_cell_angle_beta 35.031760
_cell_angle_gamma 90.000000
_cell_volume 3202.272237
_symmetry_space_group_name_H-M "C 2/C"
_symmetry_group_IT_number 15
_symmetry_cell_setting 'monoclinic'
loop_
_space_group_symop_operation_xyz
x,y,z
-x,y,1/2-z
-x,-y,-z
x,-y,1/2+z
1/2+x,1/2+y,z
1/2-x,1/2+y,1/2-z
1/2-x,1/2-y,-z
1/2+x,1/2-y,1/2+z
loop_
_atom_site_type_symbol
_atom_site_label
_atom_site_fract_x
_atom_site_fract_y
_atom_site_fract_z
Si Si1 0.181679 0.367616 0.435324
Si Si2 0.806654 0.600428 0.935273
Si Si3 0.931478 0.207939 0.029161
Si Si4 0.216149 0.295605 0.077662
Si Si5 0.484334 0.047644 0.561371
Si Si6 0.031095 0.716156 0.334118
Si Si7 0.118645 0.954471 0.413135
Si Si8 0.964455 0.875804 0.402693
O O1 0.077453 0.410889 0.461822
O O2 0.314537 0.382321 0.426741
O O3 0.340465 0.352761 0.260162
O O4 0.051065 0.327469 0.559107
O O5 0.759546 0.654023 0.983060
O O6 0.652353 0.575331 0.977500
O O7 0.000000 0.601950 0.750000
O O8 0.847127 0.569632 0.993176
O O9 0.753509 0.222352 0.203140
O O10 0.128081 0.206789 0.949199
O O11 0.936188 0.239954 0.941120
O O12 0.883921 0.157242 0.028240
O O13 0.000000 0.294246 0.250000
O O14 0.250000 0.250000 0.000000
O O15 0.323043 0.037291 0.738257
O O16 0.500000 0.000000 0.500000
O O17 0.000000 0.713390 0.250000
O O18 0.017107 0.923338 0.409460
O O19 0.000000 0.000000 0.500000
#
# Coordination Sequence:
#
# PCOD9283651 Si02
#       8
#     8   8   8   8   8   8   8   8
#     4  10  23  40  63  88 127 165 208 258 320 382
#     4   9  20  41  65  89 122 165 211 252 315 385
#     4  12  24  40  63  91 131 162 217 259 316 378
#     4  11  24  43  66  92 125 171 215 264 318 378
#     4  10  23  42  62  92 124 164 205 260 326 378
#     4  12  25  40  61  95 130 171 211 260 319 381
#     4  10  21  40  67  90 120 161 208 262 316 380
#     4  10  21  40  63  92 121 165 209 258 316 383
#
# _framework density 19.985809
#
# number of rings (size 3 to 8) (size 9 to 14) (size 15 to 20)
#    0.000    1.500    2.500    1.875    7.000    1.000 
#    0.000    0.000    0.000    0.000    0.000    0.000 
#    0.000    0.000    0.000    0.000    0.000    0.000 
#
# Total GULP energy -178512.805966 kJ/mol
# GULP energy per Si atom -5578.525186 kJ/mol
# Density = 1.994032 g / cm^3
# Si number density = 19.985809 Si / 1000 Ang^3
#
#
#
# Elastic Constant Matrix: (Units=GPa)
#
#
# Indices 1 2 3 4 5 6 
#
# 1 79.8816 31.0049 14.8727 0.0000 -7.3862 0.0000
# 2 31.0049 110.6934 34.7094 0.0000 7.6168 0.0000
# 3 14.8727 34.7094 55.3106 0.0000 -8.4131 0.0000
# 4 0.0000 0.0000 0.0000 42.4533 0.0000 2.4243
# 5 -7.3862 7.6168 -8.4131 0.0000 24.8328 0.0000
# 6 0.0000 0.0000 0.0000 2.4243 0.0000 20.8263
#
#
#
# Elastic Compliance Matrix: (Units=1/GPa)
#
#
# Indices 1 2 3 4 5 6 
#
# 1 0.014826 -0.004434 -0.000344 0.000000 0.005653 0.000000
# 2 -0.004434 0.013543 -0.008581 0.000000 -0.008380 0.000000
# 3 -0.000344 -0.008581 0.025243 0.000000 0.011082 0.000000
# 4 0.000000 0.000000 0.000000 0.023713 0.000000 -0.002760
# 5 0.005653 -0.008380 0.011082 0.000000 0.048275 0.000000
# 6 0.000000 0.000000 0.000000 -0.002760 0.000000 0.048338
#
#
# Mechanical properties :
#
#
# Convention : Reuss Voigt Hill
#
# Bulk Modulus (GPa) = 37.18380 45.22884 41.20632
# Shear Modulus (GPa) = 23.85242 28.64238 26.24740
#
# Velocity S-wave (km/s) = 3.45841 3.78979 3.62788
# Velocity P-wave (km/s) = 5.88158 6.46758 6.18153
#
# Compressibility (1/GPa) = 0.02689344
#
# Stress axis : x y z
#
# Youngs Moduli (GPa) = 67.44779 73.83739 39.61484
#
# Poissons Ratio (x) = 0.32738 0.01365
# Poissons Ratio (y) = 0.29905 0.33995
# Poissons Ratio (z) = 0.02323 0.63362
#
# Static dielectric constant tensor:
#      x y z
#    x 1.731110 0.000000 -0.009930 
#    y 0.000000 1.688740 0.000000 
#    z -0.009930 0.000000 1.739930 
# 
# From -- ./inp_files/148736.got.cif
#   From: 2010.05.17/outbox.cif.g08.bks.cpg/sg15_75_cif.got.tgz:148736.got - 2010.06.03 18:47:42.
