data_PCOD9283671
_publ_section_title
;
Structure prediction by ZEFSAII (Michael W. Deem and Ramdas Pophale) SiO2 
 PCOD9283671
Probable space group: C 2/C
;
_chemical_formula_sum "Si O2"
_cell_formula_units_Z 48
_cell_length_a 31.032946
_cell_length_b 8.388010
_cell_length_c 16.302702
_cell_angle_alpha 90.000000
_cell_angle_beta 31.992441
_cell_angle_gamma 90.000000
_cell_volume 2248.327314
_symmetry_space_group_name_H-M "C 2/C"
_symmetry_group_IT_number 15
_symmetry_cell_setting 'monoclinic'
loop_
_space_group_symop_operation_xyz
x,y,z
-x,y,1/2-z
-x,-y,-z
x,-y,1/2+z
1/2+x,1/2+y,z
1/2-x,1/2+y,1/2-z
1/2-x,1/2-y,-z
1/2+x,1/2-y,1/2+z
loop_
_atom_site_type_symbol
_atom_site_label
_atom_site_fract_x
_atom_site_fract_y
_atom_site_fract_z
Si Si1 0.829587 0.203829 0.922684
Si Si2 0.803591 0.103834 0.224963
Si Si3 0.922344 0.887937 0.123014
Si Si4 0.430866 0.947020 0.547973
Si Si5 0.747187 0.938114 0.153470
Si Si6 0.418650 0.187511 0.426408
O O1 0.904138 0.191202 0.739860
O O2 0.852493 0.322502 0.959847
O O3 0.750000 0.250000 0.000000
O O4 0.810618 0.032958 0.995283
O O5 0.750607 0.247545 0.347450
O O6 0.843602 0.991153 0.227211
O O7 0.759164 0.002743 0.226746
O O8 0.878599 0.191654 0.056466
O O9 0.931098 0.743890 0.044835
O O10 0.000000 0.000000 0.000000
O O11 0.500000 0.000000 0.500000
O O12 0.343554 0.005373 0.723670
O O13 0.438841 0.031071 0.446795
O O14 0.500000 0.245894 0.250000
#
# Coordination Sequence:
#
# PCOD9283671 Si02
#       6
#     8   8   8   8   8   8
#     4  11  23  41  68  99 134 179 222 282 342 408
#     4  10  22  39  65  94 131 176 218 278 330 403
#     4  12  24  42  66  97 136 171 224 283 348 403
#     4  11  22  39  66  92 125 172 222 270 335 406
#     4  10  21  40  63  94 129 174 226 268 334 403
#     4  10  22  42  65  95 134 176 222 275 337 403
#
# _framework density 21.349205999999999
#
# number of rings (size 3 to 8) (size 9 to 14) (size 15 to 20)
#    0.000    1.333    1.667    5.000    4.667    0.667 
#    0.000    7.500    0.000    0.000    0.000    0.000 
#    0.000    0.000    0.000    0.000    0.000    0.000 
#
# Total GULP energy -134133.759335 kJ/mol
# GULP energy per Si atom -5588.906639 kJ/mol
# Density = 2.130061 g / cm^3
# Si number density = 21.349206 Si / 1000 Ang^3
#
#
#
# Elastic Constant Matrix: (Units=GPa)
#
#
# Indices 1 2 3 4 5 6 
#
# 1 131.9668 53.7972 10.2621 0.0000 -1.1851 0.0000
# 2 53.7972 122.5419 -3.5918 -0.0003 3.8195 0.0002
# 3 10.2621 -3.5918 62.7943 -0.0002 8.1391 0.0001
# 4 0.0000 -0.0003 -0.0002 27.6865 0.0001 -6.3861
# 5 -1.1851 3.8195 8.1391 0.0001 33.8271 0.0000
# 6 0.0000 0.0002 0.0001 -6.3861 0.0000 38.5114
#
#
#
# Elastic Compliance Matrix: (Units=1/GPa)
#
#
# Indices 1 2 3 4 5 6 
#
# 1 0.009477 -0.004258 -0.001959 0.000000 0.001284 0.000000
# 2 -0.004258 0.010125 0.001489 0.000000 -0.001651 0.000000
# 3 -0.001959 0.001489 0.016888 0.000000 -0.004300 0.000000
# 4 0.000000 0.000000 0.000000 0.037555 0.000000 0.006228
# 5 0.001284 -0.001651 -0.004300 0.000000 0.030828 0.000000
# 6 0.000000 0.000000 0.000000 0.006228 0.000000 0.026999
#
#
# Mechanical properties :
#
#
# Convention : Reuss Voigt Hill
#
# Bulk Modulus (GPa) = 36.99045 48.69312 42.84178
# Shear Modulus (GPa) = 33.25806 37.12736 35.19271
#
# Velocity S-wave (km/s) = 3.95120 4.17472 4.06449
# Velocity P-wave (km/s) = 6.17899 6.78934 6.49134
#
# Compressibility (1/GPa) = 0.02703401
#
# Stress axis : x y z
#
# Youngs Moduli (GPa) = 105.51453 98.76618 59.21481
#
# Poissons Ratio (x) = 0.42056 0.11599
# Poissons Ratio (y) = 0.44929 -0.08817
# Poissons Ratio (z) = 0.20669 -0.14706
#
# Static dielectric constant tensor:
#      x y z
#    x 1.795790 0.000000 -0.019930 
#    y 0.000000 1.780270 0.000000 
#    z -0.019930 0.000000 1.772670 
# 
# From -- ./inp_files/176907.got.cif
#   From: 2010.05.17/outbox.cif.g08.bks.cpg/sg15_89_cif.got.tgz:176907.got - 2010.06.03 18:47:42.
