data_PCOD9283755
_publ_section_title
;
Structure prediction by ZEFSAII (Michael W. Deem and Ramdas Pophale) SiO2 
 PCOD9283755
Probable space group: C 2/C
;
_chemical_formula_sum "Si O2"
_cell_formula_units_Z 56
_cell_length_a 7.920019
_cell_length_b 13.933450
_cell_length_c 29.717447
_cell_angle_alpha 90.000000
_cell_angle_beta 132.452113
_cell_angle_gamma 90.000000
_cell_volume 2419.689258
_symmetry_space_group_name_H-M "C 2/C"
_symmetry_group_IT_number 15
_symmetry_cell_setting 'monoclinic'
loop_
_space_group_symop_operation_xyz
x,y,z
-x,y,1/2-z
-x,-y,-z
x,-y,1/2+z
1/2+x,1/2+y,z
1/2-x,1/2+y,1/2-z
1/2-x,1/2-y,-z
1/2+x,1/2-y,1/2+z
loop_
_atom_site_type_symbol
_atom_site_label
_atom_site_fract_x
_atom_site_fract_y
_atom_site_fract_z
Si Si1 0.934531 0.601356 0.692340
Si Si2 0.158810 0.725062 0.904142
Si Si3 0.652848 0.599930 0.347205
Si Si4 0.762189 0.714869 0.114747
Si Si5 0.834229 0.600807 0.278551
Si Si6 0.109651 0.078170 0.903058
Si Si7 0.650006 0.348685 0.502809
O O1 0.982613 0.658204 0.655426
O O2 0.665486 0.580026 0.644647
O O3 0.000000 0.657102 0.750000
O O4 0.071633 0.503110 0.717292
O O5 0.377077 0.666978 0.961018
O O6 0.986651 0.773766 0.907859
O O7 0.260228 0.809128 0.891162
O O8 0.746836 0.591558 0.314071
O O9 0.381983 0.621154 0.291974
O O10 0.685931 0.507567 0.384521
O O11 0.960544 0.677482 0.183394
O O12 0.819131 0.820091 0.105607
O O13 0.751635 0.640811 0.070776
O O14 0.188569 0.075277 0.969579
O O15 0.750000 0.250000 0.500000
#
# Coordination Sequence:
#
# PCOD9283755 Si02
#       7
#     8   8   8   8   8   8   8
#     4  11  22  40  60  88 124 161 206 256 315 372
#     4  11  24  39  65  92 126 166 207 258 317 370
#     4  11  23  40  61  93 126 164 212 255 318 373
#     4  11  23  42  64  94 125 168 213 251 315 369
#     4  11  24  39  62  89 129 164 209 262 307 382
#     4  10  21  40  64  91 126 164 204 259 311 364
#     4   9  20  42  66  90 125 163 211 261 306 370
#
# _framework density 23.143467000000001
#
# number of rings (size 3 to 8) (size 9 to 14) (size 15 to 20)
#    0.000    1.429    1.429    4.714    4.000    0.000 
#    0.000   14.286    0.000    0.000    0.000    0.000 
#    0.000    0.000    0.000    0.000    0.000    0.000 
#
# Total GULP energy -156617.966004 kJ/mol
# GULP energy per Si atom -5593.498786 kJ/mol
# Density = 2.309079 g / cm^3
# Si number density = 23.143467 Si / 1000 Ang^3
#
#
#
# Elastic Constant Matrix: (Units=GPa)
#
#
# Indices 1 2 3 4 5 6 
#
# 1 88.3842 -3.6951 11.2959 0.0000 -3.9034 0.0000
# 2 -3.6951 54.4336 16.8563 0.0000 -4.8619 0.0000
# 3 11.2959 16.8563 89.8427 0.0000 5.6330 0.0000
# 4 0.0000 0.0000 0.0000 23.2386 0.0000 0.0377
# 5 -3.9034 -4.8619 5.6330 0.0000 25.6292 0.0000
# 6 0.0000 0.0000 0.0000 0.0377 0.0000 23.3948
#
#
#
# Elastic Compliance Matrix: (Units=1/GPa)
#
#
# Indices 1 2 3 4 5 6 
#
# 1 0.011741 0.001623 -0.001939 0.000000 0.002522 0.000000
# 2 0.001623 0.020270 -0.004323 0.000000 0.005043 0.000000
# 3 -0.001939 -0.004323 0.012427 0.000000 -0.003847 0.000000
# 4 0.000000 0.000000 0.000000 0.043032 0.000000 -0.000069
# 5 0.002522 0.005043 -0.003847 0.000000 0.041204 0.000000
# 6 0.000000 0.000000 0.000000 -0.000069 0.000000 0.042745
#
#
# Mechanical properties :
#
#
# Convention : Reuss Voigt Hill
#
# Bulk Modulus (GPa) = 28.44189 31.28606 29.86398
# Shear Modulus (GPa) = 25.98514 28.33275 27.15895
#
# Velocity S-wave (km/s) = 3.35443 3.50268 3.42936
# Velocity P-wave (km/s) = 5.22676 5.46864 5.34907
#
# Compressibility (1/GPa) = 0.03515941
#
# Stress axis : x y z
#
# Youngs Moduli (GPa) = 85.16977 49.33316 80.47223
#
# Poissons Ratio (x) = -0.08005 0.15602
# Poissons Ratio (y) = -0.13820 0.34791
# Poissons Ratio (z) = 0.16513 0.21328
#
# Static dielectric constant tensor:
#      x y z
#    x 1.882090 0.000000 -0.011100 
#    y 0.000000 1.836020 0.000000 
#    z -0.011100 0.000000 1.883730 
# 
# From -- ./inp_files/288660.got.cif
#   From: 2010.05.17/outbox.cif.g08.bks.cpg/sg15_145_cif.got.tgz:288660.got - 2010.06.03 18:47:42.
