data_PCOD9283892
_publ_section_title
;
Structure prediction by ZEFSAII (Michael W. Deem and Ramdas Pophale) SiO2 
 PCOD9283892
Probable space group: C 2/C
;
_chemical_formula_sum "Si O2"
_cell_formula_units_Z 52
_cell_length_a 18.768960
_cell_length_b 16.907076
_cell_length_c 7.845199
_cell_angle_alpha 90.000000
_cell_angle_beta 57.920920
_cell_angle_gamma 90.000000
_cell_volume 2109.395568
_symmetry_space_group_name_H-M "C 2/C"
_symmetry_group_IT_number 15
_symmetry_cell_setting 'monoclinic'
loop_
_space_group_symop_operation_xyz
x,y,z
-x,y,1/2-z
-x,-y,-z
x,-y,1/2+z
1/2+x,1/2+y,z
1/2-x,1/2+y,1/2-z
1/2-x,1/2-y,-z
1/2+x,1/2-y,1/2+z
loop_
_atom_site_type_symbol
_atom_site_label
_atom_site_fract_x
_atom_site_fract_y
_atom_site_fract_z
Si Si1 0.682774 0.160488 0.430736
Si Si2 0.762305 0.679161 0.750620
Si Si3 0.970919 0.199403 0.093767
Si Si4 0.340893 0.415150 0.657030
Si Si5 0.440549 0.130219 0.476566
Si Si6 0.500000 0.895071 0.250000
Si Si7 0.885273 0.915707 0.208192
O O1 0.718254 0.235151 0.276288
O O2 0.702896 0.179093 0.601991
O O3 0.740998 0.085806 0.310037
O O4 0.584034 0.143526 0.554217
O O5 0.843593 0.646212 0.545197
O O6 0.687737 0.617759 0.819004
O O7 0.000000 0.211567 0.250000
O O8 0.879199 0.160267 0.205599
O O9 0.032390 0.134999 0.933567
O O10 0.968112 0.280436 0.994560
O O11 0.360246 0.404606 0.434912
O O12 0.388283 0.491725 0.666386
O O13 0.500000 0.100819 0.250000
O O14 0.453475 0.077948 0.632192
#
# Coordination Sequence:
#
# PCOD9283892 Si02
#       7
#     8   8   8   8   8   4   8
#     4  10  21  40  65  91 131 163 222 261 339 373
#     4  10  22  40  64  96 128 171 210 277 317 393
#     4  12  23  41  63  96 135 175 213 265 328 394
#     4  12  25  43  65  94 131 175 216 271 327 399
#     4  11  22  38  64  97 136 167 222 264 332 383
#     4  10  22  38  62  94 126 176 208 282 320 384
#     4  12  26  41  66  94 133 173 221 265 330 393
#
# _framework density 24.651610000000002
#
# number of rings (size 3 to 8) (size 9 to 14) (size 15 to 20)
#    0.000    0.923    2.308    5.538    4.308    0.615 
#    0.000    0.000    1.692    2.769    0.000    0.000 
#    0.000    0.000    0.000    0.000    0.000    0.000 
#
# Total GULP energy -145343.317833 kJ/mol
# GULP energy per Si atom -5590.127609 kJ/mol
# Density = 2.459550 g / cm^3
# Si number density = 24.651610 Si / 1000 Ang^3
#
#
#
# Elastic Constant Matrix: (Units=GPa)
#
#
# Indices 1 2 3 4 5 6 
#
# 1 85.8353 -6.4956 10.7375 0.0000 -22.8674 0.0000
# 2 -6.4956 52.1829 -1.7289 0.0000 -0.6681 0.0000
# 3 10.7375 -1.7289 106.9121 0.0000 -26.9103 0.0000
# 4 0.0000 0.0000 0.0000 29.5160 0.0000 -19.6877
# 5 -22.8674 -0.6681 -26.9103 0.0000 48.5243 0.0000
# 6 0.0000 0.0000 0.0000 -19.6877 0.0000 44.8721
#
#
#
# Elastic Compliance Matrix: (Units=1/GPa)
#
#
# Indices 1 2 3 4 5 6 
#
# 1 0.013492 0.001774 0.000326 0.000000 0.006563 0.000000
# 2 0.001774 0.019418 0.000481 0.000000 0.001370 0.000000
# 3 0.000326 0.000481 0.010889 0.000000 0.006199 0.000000
# 4 0.000000 0.000000 0.000000 0.047898 0.000000 0.021015
# 5 0.006563 0.001370 0.006199 0.000000 0.027158 0.000000
# 6 0.000000 0.000000 0.000000 0.021015 0.000000 0.031506
#
#
# Mechanical properties :
#
#
# Convention : Reuss Voigt Hill
#
# Bulk Modulus (GPa) = 20.42484 27.77292 24.09888
# Shear Modulus (GPa) = 30.95614 40.74362 35.84988
#
# Velocity S-wave (km/s) = 3.54749 4.06985 3.81761
# Velocity P-wave (km/s) = 5.00829 5.77715 5.40641
#
# Compressibility (1/GPa) = 0.04895999
#
# Stress axis : x y z
#
# Youngs Moduli (GPa) = 74.11641 51.49939 91.83755
#
# Poissons Ratio (x) = -0.09138 -0.02991
# Poissons Ratio (y) = -0.13150 -0.04414
# Poissons Ratio (z) = -0.02414 -0.02475
#
# Static dielectric constant tensor:
#      x y z
#    x 1.953000 0.000000 -0.029880 
#    y 0.000000 1.999520 0.000000 
#    z -0.029880 0.000000 1.973970 
# 
# From -- ./inp_files/48957.got.cif
#   From: 2010.05.17/outbox.cif.g08.bks.cpg/sg15_25_cif.got.tgz:48957.got - 2010.06.03 18:47:42.
