data_PCOD9283449
_publ_section_title
;
Structure prediction by ZEFSAII (Michael W. Deem and Ramdas Pophale) SiO2 
 PCOD9283449
Probable space group: C 2/C
;
_chemical_formula_sum "Si O2"
_cell_formula_units_Z 48
_cell_length_a 22.479513
_cell_length_b 10.547943
_cell_length_c 10.932257
_cell_angle_alpha 90.000000
_cell_angle_beta 52.873573
_cell_angle_gamma 90.000000
_cell_volume 2066.756592
_symmetry_space_group_name_H-M "C 2/C"
_symmetry_group_IT_number 15
_symmetry_cell_setting 'monoclinic'
loop_
_space_group_symop_operation_xyz
x,y,z
-x,y,1/2-z
-x,-y,-z
x,-y,1/2+z
1/2+x,1/2+y,z
1/2-x,1/2+y,1/2-z
1/2-x,1/2-y,-z
1/2+x,1/2-y,1/2+z
loop_
_atom_site_type_symbol
_atom_site_label
_atom_site_fract_x
_atom_site_fract_y
_atom_site_fract_z
Si Si1 0.724691 0.455408 0.366489
Si Si2 0.365602 0.876764 0.352977
Si Si3 0.038891 0.201121 0.441670
Si Si4 0.312155 0.196475 0.185971
Si Si5 0.563290 0.528191 0.076371
Si Si6 0.955164 0.408733 0.650746
O O1 0.791196 0.415636 0.373142
O O2 0.714951 0.342629 0.277717
O O3 0.747088 0.593452 0.288854
O O4 0.644683 0.459835 0.531817
O O5 0.407124 0.775138 0.216133
O O6 0.342035 0.826939 0.512539
O O7 0.422112 0.996959 0.293658
O O8 0.968728 0.154926 0.446932
O O9 0.012156 0.291820 0.585474
O O10 0.071259 0.074528 0.459433
O O11 0.379768 0.154843 0.190068
O O12 0.500000 0.488973 0.250000
O O13 0.000000 0.500000 0.500000
#
# Coordination Sequence:
#
# PCOD9283449 Si02
#       6
#     8   8   8   8   8   8
#     4  11  23  41  63  96 129 161 218 258 310 386
#     4  10  22  40  67  89 122 171 208 255 318 377
#     4  10  21  40  61  93 126 160 217 258 304 385
#     4  11  22  41  65  91 127 170 206 264 320 368
#     4  11  23  39  63  91 127 168 204 260 323 367
#     4   9  20  39  60  92 122 157 216 258 302 378
#
# _framework density 23.224796000000001
#
# number of rings (size 3 to 8) (size 9 to 14) (size 15 to 20)
#    0.000    1.667    1.667    2.500    0.000    4.667 
#   12.000    1.667    0.000    0.000    0.000    0.000 
#    0.000    0.000    0.000    0.000    0.000    0.000 
#
# Total GULP energy -134091.031927 kJ/mol
# GULP energy per Si atom -5587.126330 kJ/mol
# Density = 2.317194 g / cm^3
# Si number density = 23.224796 Si / 1000 Ang^3
#
#
#
# Elastic Constant Matrix: (Units=GPa)
#
#
# Indices 1 2 3 4 5 6 
#
# 1 68.8178 3.7861 15.5790 0.0000 -33.4700 0.0000
# 2 3.7861 49.2121 21.1969 0.0000 -17.8347 0.0000
# 3 15.5790 21.1969 91.8776 0.0000 -22.6667 0.0000
# 4 0.0000 0.0000 0.0000 23.2346 0.0000 -8.9074
# 5 -33.4700 -17.8347 -22.6667 0.0000 36.4614 0.0000
# 6 0.0000 0.0000 0.0000 -8.9074 0.0000 20.9778
#
#
#
# Elastic Compliance Matrix: (Units=1/GPa)
#
#
# Indices 1 2 3 4 5 6 
#
# 1 0.029305 0.008906 0.000812 0.000000 0.031762 0.000000
# 2 0.008906 0.028234 -0.003071 0.000000 0.020077 0.000000
# 3 0.000812 -0.003071 0.013309 0.000000 0.007517 0.000000
# 4 0.000000 0.000000 0.000000 0.051407 0.000000 0.021828
# 5 0.031762 0.020077 0.007517 0.000000 0.071076 0.000000
# 6 0.000000 0.000000 0.000000 0.021828 0.000000 0.056938
#
#
# Mechanical properties :
#
#
# Convention : Reuss Voigt Hill
#
# Bulk Modulus (GPa) = 11.88451 32.33683 22.11067
# Shear Modulus (GPa) = 18.86636 27.42446 23.14541
#
# Velocity S-wave (km/s) = 2.85324 3.44004 3.16029
# Velocity P-wave (km/s) = 3.99787 5.45272 4.78096
#
# Compressibility (1/GPa) = 0.08414312
#
# Stress axis : x y z
#
# Youngs Moduli (GPa) = 34.12393 35.41876 75.13492
#
# Poissons Ratio (x) = -0.31545 -0.06101
# Poissons Ratio (y) = -0.30392 0.23073
# Poissons Ratio (z) = -0.02771 0.10877
#
# Static dielectric constant tensor:
#      x y z
#    x 1.976550 0.000000 0.010240 
#    y 0.000000 1.933280 0.000000 
#    z 0.010240 0.000000 1.845810 
# 
# From -- ./inp_files/117440.got.cif
#   From: 2010.05.17/outbox.cif.g08.bks.cpg/sg15_59_cif.got.tgz:117440.got - 2010.06.03 18:47:42.
