data_PCOD9283993
_publ_section_title
;
Structure prediction by ZEFSAII (Michael W. Deem and Ramdas Pophale) SiO2 
 PCOD9283993
Probable space group: C 2/C
;
_chemical_formula_sum "Si O2"
_cell_formula_units_Z 56
_cell_length_a 11.241655
_cell_length_b 21.955473
_cell_length_c 11.484661
_cell_angle_alpha 90.000000
_cell_angle_beta 68.125621
_cell_angle_gamma 90.000000
_cell_volume 2630.513822
_symmetry_space_group_name_H-M "C 2/C"
_symmetry_group_IT_number 15
_symmetry_cell_setting 'monoclinic'
loop_
_space_group_symop_operation_xyz
x,y,z
-x,y,1/2-z
-x,-y,-z
x,-y,1/2+z
1/2+x,1/2+y,z
1/2-x,1/2+y,1/2-z
1/2-x,1/2-y,-z
1/2+x,1/2-y,1/2+z
loop_
_atom_site_type_symbol
_atom_site_label
_atom_site_fract_x
_atom_site_fract_y
_atom_site_fract_z
Si Si1 0.728644 0.895952 0.502726
Si Si2 0.629219 0.009159 0.875094
Si Si3 0.579479 0.332133 0.898155
Si Si4 0.000000 0.400450 0.250000
Si Si5 0.000000 0.365467 0.750000
Si Si6 0.780996 0.816349 0.040976
Si Si7 0.143053 0.308496 0.337572
Si Si8 0.288325 0.126934 0.159292
O O1 0.728573 0.955297 0.422369
O O2 0.847821 0.875620 0.536497
O O3 0.600847 0.899082 0.629384
O O4 0.706718 0.840213 0.423508
O O5 0.599279 0.050272 0.771778
O O6 0.681092 0.943013 0.826034
O O7 0.500000 0.000000 0.000000
O O8 0.929887 0.167272 0.477410
O O9 0.613369 0.260321 0.882538
O O10 0.647506 0.354385 0.754557
O O11 0.979235 0.349372 0.154939
O O12 0.101946 0.335994 0.806204
O O13 0.731189 0.814829 0.190738
O O14 0.750000 0.750000 0.000000
O O15 0.713336 0.863219 0.977485
#
# Coordination Sequence:
#
# PCOD9283993 Si02
#       8
#     8   8   8   4   4   8   8   8
#     4  10  24  41  65 103 139 182 233 289 363 422
#     4  11  21  38  68 101 138 181 236 292 349 420
#     4  11  25  43  68  99 143 183 238 287 361 432
#     4  10  23  38  68 102 136 170 237 298 344 398
#     4  10  21  40  66 100 142 172 229 296 352 424
#     4  12  25  43  68  97 137 187 240 291 345 427
#     4  11  23  42  67 102 137 181 230 296 350 423
#     4  11  23  42  67 104 139 183 236 288 363 419
#
# _framework density 21.288616000000001
#
# number of rings (size 3 to 8) (size 9 to 14) (size 15 to 20)
#    0.000    1.143    2.857    3.000    6.000    0.571 
#    0.000    0.714    6.286    0.000    0.000    0.000 
#    0.000    0.000    0.000    0.000    0.000    0.000 
#
# Total GULP energy -155939.719173 kJ/mol
# GULP energy per Si atom -5569.275685 kJ/mol
# Density = 2.124016 g / cm^3
# Si number density = 21.288616 Si / 1000 Ang^3
#
#
#
# Elastic Constant Matrix: (Units=GPa)
#
#
# Indices 1 2 3 4 5 6 
#
# 1 136.0709 20.3523 47.8904 0.0000 -16.0796 0.0000
# 2 20.3523 100.5172 10.2639 0.0000 -2.3187 0.0000
# 3 47.8904 10.2639 86.3195 0.0000 -3.5416 0.0000
# 4 0.0000 0.0000 0.0000 27.2177 0.0000 10.4286
# 5 -16.0796 -2.3187 -3.5416 0.0000 37.9153 0.0000
# 6 0.0000 0.0000 0.0000 10.4286 0.0000 15.6186
#
#
#
# Elastic Compliance Matrix: (Units=1/GPa)
#
#
# Indices 1 2 3 4 5 6 
#
# 1 0.009779 -0.001375 -0.005115 0.000000 0.003585 0.000000
# 2 -0.001375 0.010274 -0.000459 0.000000 0.000002 0.000000
# 3 -0.005115 -0.000459 0.014442 0.000000 -0.000848 0.000000
# 4 0.000000 0.000000 0.000000 0.049372 0.000000 -0.032966
# 5 0.003585 0.000002 -0.000848 0.000000 0.027816 0.000000
# 6 0.000000 0.000000 0.000000 -0.032966 0.000000 0.086038
#
#
# Mechanical properties :
#
#
# Convention : Reuss Voigt Hill
#
# Bulk Modulus (GPa) = 48.54818 53.32454 50.93636
# Shear Modulus (GPa) = 22.88510 32.44369 27.66440
#
# Velocity S-wave (km/s) = 3.28226 3.90807 3.60876
# Velocity P-wave (km/s) = 6.10071 6.74291 6.42983
#
# Compressibility (1/GPa) = 0.02059810
#
# Stress axis : x y z
#
# Youngs Moduli (GPa) = 102.26503 97.33461 69.24151
#
# Poissons Ratio (x) = 0.13383 0.35414
# Poissons Ratio (y) = 0.14061 0.03176
# Poissons Ratio (z) = 0.52304 0.04465
#
# Static dielectric constant tensor:
#      x y z
#    x 1.824770 0.000000 -0.147700 
#    y 0.000000 1.789830 0.000000 
#    z -0.147700 0.000000 0.850310 
# 
# From -- ./inp_files/106082.got.cif
#   From: 2010.05.17/outbox.cif.g08.bks.cpg/sg15_54_cif.got.tgz:106082.got - 2010.06.03 18:47:42.
