data_PCOD9283423
_publ_section_title
;
Structure prediction by ZEFSAII (Michael W. Deem and Ramdas Pophale) SiO2 
 PCOD9283423
Probable space group: C 2/C
;
_chemical_formula_sum "Si O2"
_cell_formula_units_Z 40
_cell_length_a 13.203070
_cell_length_b 13.808454
_cell_length_c 9.941790
_cell_angle_alpha 90.000000
_cell_angle_beta 105.352894
_cell_angle_gamma 90.000000
_cell_volume 1747.844424
_symmetry_space_group_name_H-M "C 2/C"
_symmetry_group_IT_number 15
_symmetry_cell_setting 'monoclinic'
loop_
_space_group_symop_operation_xyz
x,y,z
-x,y,1/2-z
-x,-y,-z
x,-y,1/2+z
1/2+x,1/2+y,z
1/2-x,1/2+y,1/2-z
1/2-x,1/2-y,-z
1/2+x,1/2-y,1/2+z
loop_
_atom_site_type_symbol
_atom_site_label
_atom_site_fract_x
_atom_site_fract_y
_atom_site_fract_z
Si Si1 0.924311 0.012045 0.345998
Si Si2 0.098214 0.664713 0.201105
Si Si3 0.731222 0.942408 0.925223
Si Si4 0.821153 0.654409 0.548402
Si Si5 0.243597 0.156240 0.794267
O O1 0.852536 0.919037 0.277180
O O2 0.000000 0.040916 0.250000
O O3 0.834356 0.080857 0.374231
O O4 0.000000 0.000000 0.500000
O O5 0.135305 0.566625 0.287622
O O6 0.189935 0.740334 0.265289
O O7 0.000000 0.700949 0.250000
O O8 0.091602 0.656376 0.037722
O O9 0.738001 0.050798 0.990349
O O10 0.717983 0.872194 0.045951
O O11 0.750000 0.750000 0.500000
O O12 0.834851 0.653566 0.713809
#
# Coordination Sequence:
#
# PCOD9283423 Si02
#       5
#     8   8   8   8   8
#     4  11  21  36  63  97 124 159 202 261 323 369
#     4  11  24  40  61  88 126 172 207 250 306 373
#     4  11  22  39  64  91 122 164 209 255 314 370
#     4   9  20  39  62  85 119 157 201 259 310 359
#     4  10  21  40  61  90 128 157 205 261 309 369
#
# _framework density 22.885331000000001
#
# number of rings (size 3 to 8) (size 9 to 14) (size 15 to 20)
#    0.000    1.600    2.000    3.600    2.800    0.800 
#    0.000    1.000    0.000    0.000    5.200    0.000 
#    0.000    0.000    0.000    0.000    0.000    0.000 
#
# Total GULP energy -111430.220833 kJ/mol
# GULP energy per Si atom -5571.511042 kJ/mol
# Density = 2.283324 g / cm^3
# Si number density = 22.885331 Si / 1000 Ang^3
#
#
#
# Elastic Constant Matrix: (Units=GPa)
#
#
# Indices 1 2 3 4 5 6 
#
# 1 53.3292 1.5976 51.0869 0.0000 -36.8319 0.0000
# 2 1.5976 64.8726 20.2914 0.0000 -16.1530 0.0000
# 3 51.0869 20.2914 173.4933 0.0000 -61.5696 0.0000
# 4 0.0000 0.0000 0.0000 25.0231 0.0000 -3.1457
# 5 -36.8319 -16.1530 -61.5696 0.0000 55.2379 0.0000
# 6 0.0000 0.0000 0.0000 -3.1457 0.0000 21.9102
#
#
#
# Elastic Compliance Matrix: (Units=1/GPa)
#
#
# Indices 1 2 3 4 5 6 
#
# 1 0.037961 0.005932 -0.003761 0.000000 0.022854 0.000000
# 2 0.005932 0.017566 -0.000951 0.000000 0.008033 0.000000
# 3 -0.003761 -0.000951 0.009917 0.000000 0.008267 0.000000
# 4 0.000000 0.000000 0.000000 0.040698 0.000000 0.005843
# 5 0.022854 0.008033 0.008267 0.000000 0.044906 0.000000
# 6 0.000000 0.000000 0.000000 0.005843 0.000000 0.046480
#
#
# Mechanical properties :
#
#
# Convention : Reuss Voigt Hill
#
# Bulk Modulus (GPa) = 14.73086 48.62742 31.67914
# Shear Modulus (GPa) = 22.96575 35.01551 28.99063
#
# Velocity S-wave (km/s) = 3.17127 3.91582 3.56304
# Velocity P-wave (km/s) = 4.45646 6.46059 5.54974
#
# Compressibility (1/GPa) = 0.06788468
#
# Stress axis : x y z
#
# Youngs Moduli (GPa) = 26.34260 56.92744 100.84146
#
# Poissons Ratio (x) = -0.33771 0.37930
# Poissons Ratio (y) = -0.15627 0.09587
# Poissons Ratio (z) = 0.09908 0.05412
#
# Static dielectric constant tensor:
#      x y z
#    x 1.970630 0.000000 -0.037490 
#    y 0.000000 1.943300 0.000000 
#    z -0.037490 0.000000 1.864900 
# 
# From -- ./inp_files/37951.got.cif
#   From: 2010.05.17/outbox.cif.g08.bks.cpg/sg15_19_cif.got.tgz:37951.got - 2010.06.03 18:47:42.
