data_PCOD9283903
_publ_section_title
;
Structure prediction by ZEFSAII (Michael W. Deem and Ramdas Pophale) SiO2 
 PCOD9283903
Probable space group: C 2/C
;
_chemical_formula_sum "Si O2"
_cell_formula_units_Z 60
_cell_length_a 8.176749
_cell_length_b 12.835686
_cell_length_c 25.313052
_cell_angle_alpha 90.000000
_cell_angle_beta 97.033168
_cell_angle_gamma 90.000000
_cell_volume 2636.720095
_symmetry_space_group_name_H-M "C 2/C"
_symmetry_group_IT_number 15
_symmetry_cell_setting 'monoclinic'
loop_
_space_group_symop_operation_xyz
x,y,z
-x,y,1/2-z
-x,-y,-z
x,-y,1/2+z
1/2+x,1/2+y,z
1/2-x,1/2+y,1/2-z
1/2-x,1/2-y,-z
1/2+x,1/2-y,1/2+z
loop_
_atom_site_type_symbol
_atom_site_label
_atom_site_fract_x
_atom_site_fract_y
_atom_site_fract_z
Si Si1 0.607339 0.248667 0.934573
Si Si2 0.917190 0.204794 0.327198
Si Si3 0.616326 0.660107 0.986341
Si Si4 0.500000 0.019091 0.250000
Si Si5 0.600140 0.293787 0.117652
Si Si6 0.794120 0.505150 0.144815
Si Si7 0.349018 0.014611 0.532075
Si Si8 0.761769 0.304272 0.779571
O O1 0.472539 0.234977 0.882137
O O2 0.776315 0.280276 0.911706
O O3 0.656192 0.138439 0.961260
O O4 0.525098 0.319478 0.975624
O O5 0.799146 0.252571 0.276854
O O6 0.091749 0.180031 0.305212
O O7 0.819658 0.101548 0.342139
O O8 0.554451 0.681562 0.924670
O O9 0.750000 0.750000 0.000000
O O10 0.696453 0.548264 0.001291
O O11 0.648745 0.090421 0.234175
O O12 0.420102 0.967876 0.195322
O O13 0.683225 0.406229 0.127913
O O14 0.603829 0.249128 0.176872
O O15 0.877291 0.532246 0.092071
O O16 0.500000 0.000000 0.500000
#
# Coordination Sequence:
#
# PCOD9283903 Si02
#       8
#     8   8   8   4   8   8   8   8
#     4  10  21  40  65  92 126 172 214 268 336 396
#     4   9  18  40  65  93 124 173 211 274 336 403
#     4  12  24  41  64  89 135 170 219 275 332 394
#     4  10  22  40  68  94 126 172 210 278 328 400
#     4  10  24  41  61  95 126 168 220 270 330 404
#     4  10  22  41  64  95 133 166 223 272 333 393
#     4  11  23  40  62 100 128 173 224 269 333 406
#     4   9  20  38  66  91 124 164 220 260 340 406
#
# _framework density 22.755545000000001
#
# number of rings (size 3 to 8) (size 9 to 14) (size 15 to 20)
#    0.000    1.867    2.667    0.400    1.867    5.333 
#    7.200    2.667    0.000    0.000    0.000    0.000 
#    0.000    0.000    0.000    0.000    0.000    0.000 
#
# Total GULP energy -167412.453399 kJ/mol
# GULP energy per Si atom -5580.415113 kJ/mol
# Density = 2.270375 g / cm^3
# Si number density = 22.755545 Si / 1000 Ang^3
#
#
#
# Elastic Constant Matrix: (Units=GPa)
#
#
# Indices 1 2 3 4 5 6 
#
# 1 80.8434 37.1794 69.8692 0.0000 22.8767 0.0000
# 2 37.1794 61.4398 34.9009 0.0000 7.7860 0.0000
# 3 69.8692 34.9009 178.9795 0.0000 43.1073 0.0000
# 4 0.0000 0.0000 0.0000 36.0729 0.0000 9.1275
# 5 22.8767 7.7860 43.1073 0.0000 53.4261 0.0000
# 6 0.0000 0.0000 0.0000 9.1275 0.0000 40.3373
#
#
#
# Elastic Compliance Matrix: (Units=1/GPa)
#
#
# Indices 1 2 3 4 5 6 
#
# 1 0.023537 -0.010187 -0.006370 0.000000 -0.003454 0.000000
# 2 -0.010187 0.022716 -0.000876 0.000000 0.001759 0.000000
# 3 -0.006370 -0.000876 0.009380 0.000000 -0.004713 0.000000
# 4 0.000000 0.000000 0.000000 0.029405 0.000000 -0.006654
# 5 -0.003454 0.001759 -0.004713 0.000000 0.023743 0.000000
# 6 0.000000 0.000000 0.000000 -0.006654 0.000000 0.026297
#
#
# Mechanical properties :
#
#
# Convention : Reuss Voigt Hill
#
# Bulk Modulus (GPa) = 48.15534 67.24017 57.69776
# Shear Modulus (GPa) = 28.26996 37.92147 33.09571
#
# Velocity S-wave (km/s) = 3.52850 4.08667 3.81780
# Velocity P-wave (km/s) = 6.14885 7.20284 6.69661
#
# Compressibility (1/GPa) = 0.02076613
#
# Stress axis : x y z
#
# Youngs Moduli (GPa) = 42.48582 44.02267 106.61082
#
# Poissons Ratio (x) = 0.44846 0.67910
# Poissons Ratio (y) = 0.43280 0.09343
# Poissons Ratio (z) = 0.27063 0.03858
#
# Static dielectric constant tensor:
#      x y z
#    x 1.966280 0.000000 0.781000 
#    y 0.000000 1.899990 0.000000 
#    z 0.781000 0.000000 12.448130 
# 
# From -- ./inp_files/264351.got.cif
#   From: 2010.05.17/outbox.cif.g08.bks.cpg/sg15_133_cif.got.tgz:264351.got - 2010.06.03 18:47:42.
