data_PCOD9283574
_publ_section_title
;
Structure prediction by ZEFSAII (Michael W. Deem and Ramdas Pophale) SiO2 
 PCOD9283574
Probable space group: C 2/C
;
_chemical_formula_sum "Si O2"
_cell_formula_units_Z 56
_cell_length_a 18.807736
_cell_length_b 14.671053
_cell_length_c 12.252112
_cell_angle_alpha 90.000000
_cell_angle_beta 44.161208
_cell_angle_gamma 90.000000
_cell_volume 2355.276144
_symmetry_space_group_name_H-M "C 2/C"
_symmetry_group_IT_number 15
_symmetry_cell_setting 'monoclinic'
loop_
_space_group_symop_operation_xyz
x,y,z
-x,y,1/2-z
-x,-y,-z
x,-y,1/2+z
1/2+x,1/2+y,z
1/2-x,1/2+y,1/2-z
1/2-x,1/2-y,-z
1/2+x,1/2-y,1/2+z
loop_
_atom_site_type_symbol
_atom_site_label
_atom_site_fract_x
_atom_site_fract_y
_atom_site_fract_z
Si Si1 0.434545 0.369642 0.167941
Si Si2 0.500000 0.523894 0.250000
Si Si3 0.500000 0.205267 0.250000
Si Si4 0.706667 0.028310 0.246129
Si Si5 0.054314 0.579258 0.792511
Si Si6 0.645735 0.366033 0.468257
Si Si7 0.277956 0.145792 0.487753
Si Si8 0.653662 0.160168 0.489108
O O1 0.494941 0.454232 0.153768
O O2 0.471794 0.275561 0.183007
O O3 0.439753 0.361357 0.032952
O O4 0.315880 0.385904 0.333980
O O5 0.404428 0.590819 0.369107
O O6 0.396678 0.149677 0.392767
O O7 0.728709 0.092923 0.118826
O O8 0.710794 0.087101 0.351107
O O9 0.596988 0.984091 0.338647
O O10 0.778273 0.941700 0.159943
O O11 0.144942 0.629431 0.624962
O O12 0.000000 0.527622 0.750000
O O13 0.965254 0.649881 0.920438
O O14 0.685828 0.263738 0.438417
O O15 0.250000 0.250000 0.500000
#
# Coordination Sequence:
#
# PCOD9283574 Si02
#       8
#     8   4   4   8   8   8   8   8
#     4  10  22  42  63 103 131 182 237 279 356 413
#     4  11  22  46  68  93 138 180 234 289 348 421
#     4   9  20  38  72  93 144 178 222 299 350 405
#     4  12  23  41  70 104 139 184 230 293 350 420
#     4   8  22  43  68  94 139 182 229 283 344 409
#     4  12  25  43  72  97 142 187 229 294 348 428
#     4  10  21  40  63 101 142 175 227 289 351 414
#     4   9  22  44  64 100 139 175 243 274 350 419
#
# _framework density 23.776403999999999
#
# number of rings (size 3 to 8) (size 9 to 14) (size 15 to 20)
#    0.857    0.857    1.429    3.429    3.000    0.571 
#    5.143    1.429    0.000    0.000    0.000    0.000 
#    0.000    0.000    0.000    0.000    0.000    0.000 
#
# Total GULP energy -156229.486767 kJ/mol
# GULP energy per Si atom -5579.624527 kJ/mol
# Density = 2.372229 g / cm^3
# Si number density = 23.776404 Si / 1000 Ang^3
#
#
#
# Elastic Constant Matrix: (Units=GPa)
#
#
# Indices 1 2 3 4 5 6 
#
# 1 51.9659 23.4660 -6.1271 0.0000 -3.7177 0.0000
# 2 23.4660 158.9528 39.8261 0.0000 -1.3717 0.0000
# 3 -6.1271 39.8261 71.3199 0.0000 -8.9998 0.0000
# 4 0.0000 0.0000 0.0000 24.2614 0.0000 -4.4099
# 5 -3.7177 -1.3717 -8.9998 0.0000 28.5721 0.0000
# 6 0.0000 0.0000 0.0000 -4.4099 0.0000 38.5034
#
#
#
# Elastic Compliance Matrix: (Units=1/GPa)
#
#
# Indices 1 2 3 4 5 6 
#
# 1 0.022144 -0.004468 0.004930 0.000000 0.004220 0.000000
# 2 -0.004468 0.008242 -0.005217 0.000000 -0.001829 0.000000
# 3 0.004930 -0.005217 0.018128 0.000000 0.006101 0.000000
# 4 0.000000 0.000000 0.000000 0.042094 0.000000 0.004821
# 5 0.004220 -0.001829 0.006101 0.000000 0.037382 0.000000
# 6 0.000000 0.000000 0.000000 0.004821 0.000000 0.026524
#
#
# Mechanical properties :
#
#
# Convention : Reuss Voigt Hill
#
# Bulk Modulus (GPa) = 25.63854 44.06319 34.85087
# Shear Modulus (GPa) = 28.24443 33.27230 30.75837
#
# Velocity S-wave (km/s) = 3.45036 3.74489 3.60064
# Velocity P-wave (km/s) = 5.16526 6.10504 5.65471
#
# Compressibility (1/GPa) = 0.03900378
#
# Stress axis : x y z
#
# Youngs Moduli (GPa) = 45.15886 121.32738 55.16298
#
# Poissons Ratio (x) = 0.54207 -0.27194
# Poissons Ratio (y) = 0.20176 0.28780
# Poissons Ratio (z) = -0.22262 0.63299
#
# Static dielectric constant tensor:
#      x y z
#    x 1.974890 0.000000 -0.052740 
#    y 0.000000 1.844590 0.000000 
#    z -0.052740 0.000000 2.020200 
# 
# From -- ./inp_files/168474.got.cif
#   From: 2010.05.17/outbox.cif.g08.bks.cpg/sg15_85_cif.got.tgz:168474.got - 2010.06.03 18:47:42.
