data_PCOD9283912
_publ_section_title
;
Structure prediction by ZEFSAII (Michael W. Deem and Ramdas Pophale) SiO2 
 PCOD9283912
Probable space group: C 2/C
;
_chemical_formula_sum "Si O2"
_cell_formula_units_Z 60
_cell_length_a 21.012595
_cell_length_b 24.057041
_cell_length_c 8.441006
_cell_angle_alpha 90.000000
_cell_angle_beta 40.030883
_cell_angle_gamma 90.000000
_cell_volume 2744.494899
_symmetry_space_group_name_H-M "C 2/C"
_symmetry_group_IT_number 15
_symmetry_cell_setting 'monoclinic'
loop_
_space_group_symop_operation_xyz
x,y,z
-x,y,1/2-z
-x,-y,-z
x,-y,1/2+z
1/2+x,1/2+y,z
1/2-x,1/2+y,1/2-z
1/2-x,1/2-y,-z
1/2+x,1/2-y,1/2+z
loop_
_atom_site_type_symbol
_atom_site_label
_atom_site_fract_x
_atom_site_fract_y
_atom_site_fract_z
Si Si1 0.767587 0.838367 0.083135
Si Si2 0.082843 0.164385 0.726980
Si Si3 0.710898 0.148753 0.340186
Si Si4 0.560993 0.580288 0.362610
Si Si5 0.109850 0.422982 0.488757
Si Si6 0.395625 0.746760 0.536773
Si Si7 0.000000 0.014620 0.750000
Si Si8 0.393000 0.962058 0.369623
O O1 0.688099 0.873295 0.334890
O O2 0.719998 0.826289 0.001946
O O3 0.857122 0.879164 0.860913
O O4 0.813392 0.787899 0.094238
O O5 0.185590 0.151750 0.446937
O O6 0.000000 0.172475 0.750000
O O7 0.095296 0.218501 0.810300
O O8 0.040372 0.115565 0.923022
O O9 0.634448 0.189086 0.398345
O O10 0.673758 0.085957 0.427116
O O11 0.574024 0.553874 0.511678
O O12 0.553917 0.526951 0.265271
O O13 0.101569 0.447325 0.325934
O O14 0.142951 0.475051 0.533676
O O15 0.000000 0.405189 0.750000
O O16 0.500000 0.740551 0.250000
O O17 0.500000 0.959468 0.250000
#
# Coordination Sequence:
#
# PCOD9283912 Si02
#       8
#     8   8   8   8   8   8   4   8
#     4  11  23  42  67  93 134 174 218 272 342 395
#     4  12  23  43  65  89 134 175 217 271 337 390
#     4  11  24  42  66  97 128 175 222 279 334 394
#     4  11  20  39  58  90 130 173 210 268 324 378
#     4  10  22  39  65  95 131 173 219 271 333 397
#     4  12  24  43  69  96 128 175 225 275 337 400
#     4  10  22  32  60  94 128 168 228 256 308 402
#     4  10  21  40  65  92 133 171 218 277 333 389
#
# _framework density 21.861946
#
# number of rings (size 3 to 8) (size 9 to 14) (size 15 to 20)
#    0.000    1.067    3.333    3.600    0.000    6.400 
#    0.000    3.333    0.000    0.800    0.000    0.000 
#    0.000    0.000    0.000    0.000    0.000    0.000 
#
# Total GULP energy -167815.497247 kJ/mol
# GULP energy per Si atom -5593.849908 kJ/mol
# Density = 2.181219 g / cm^3
# Si number density = 21.861946 Si / 1000 Ang^3
#
#
#
# Elastic Constant Matrix: (Units=GPa)
#
#
# Indices 1 2 3 4 5 6 
#
# 1 30.5129 11.6070 10.8739 0.0000 -4.6370 0.0000
# 2 11.6070 74.1152 48.7056 0.0000 -12.3315 0.0000
# 3 10.8739 48.7056 137.9784 0.0000 -12.9313 0.0000
# 4 0.0000 0.0000 0.0000 55.3088 0.0000 -31.3600
# 5 -4.6370 -12.3315 -12.9313 0.0000 18.5453 0.0000
# 6 0.0000 0.0000 0.0000 -31.3600 0.0000 65.2823
#
#
#
# Elastic Compliance Matrix: (Units=1/GPa)
#
#
# Indices 1 2 3 4 5 6 
#
# 1 0.035469 -0.004080 -0.000833 0.000000 0.005575 0.000000
# 2 -0.004080 0.019181 -0.005724 0.000000 0.007743 0.000000
# 3 -0.000833 -0.005724 0.009584 0.000000 0.002668 0.000000
# 4 0.000000 0.000000 0.000000 0.024848 0.000000 0.011937
# 5 0.005575 0.007743 0.002668 0.000000 0.062325 0.000000
# 6 0.000000 0.000000 0.000000 0.011937 0.000000 0.021052
#
#
# Mechanical properties :
#
#
# Convention : Reuss Voigt Hill
#
# Bulk Modulus (GPa) = 23.27670 42.77551 33.02611
# Shear Modulus (GPa) = 24.03244 39.25528 31.64386
#
# Velocity S-wave (km/s) = 3.31914 4.24205 3.80865
# Velocity P-wave (km/s) = 5.03579 6.60318 5.87202
#
# Compressibility (1/GPa) = 0.04296141
#
# Stress axis : x y z
#
# Youngs Moduli (GPa) = 28.19367 52.13462 104.34477
#
# Poissons Ratio (x) = 0.21271 0.08687
# Poissons Ratio (y) = 0.11503 0.59723
# Poissons Ratio (z) = 0.02347 0.29840
#
# Static dielectric constant tensor:
#      x y z
#    x 1.834100 0.000000 0.022850 
#    y 0.000000 1.784930 0.000000 
#    z 0.022850 0.000000 1.784960 
# 
# From -- ./inp_files/63504.got.cif
#   From: 2010.05.17/outbox.cif.g08.bks.cpg/sg15_32_cif.got.tgz:63504.got - 2010.06.03 18:47:42.
