data_PCOD9283890
_publ_section_title
;
Structure prediction by ZEFSAII (Michael W. Deem and Ramdas Pophale) SiO2 
 PCOD9283890
Probable space group: C 2/C
;
_chemical_formula_sum "Si O2"
_cell_formula_units_Z 32
_cell_length_a 10.887066
_cell_length_b 27.570179
_cell_length_c 14.098675
_cell_angle_alpha 90.000000
_cell_angle_beta 17.825195
_cell_angle_gamma 90.000000
_cell_volume 1295.423817
_symmetry_space_group_name_H-M "C 2/C"
_symmetry_group_IT_number 15
_symmetry_cell_setting 'monoclinic'
loop_
_space_group_symop_operation_xyz
x,y,z
-x,y,1/2-z
-x,-y,-z
x,-y,1/2+z
1/2+x,1/2+y,z
1/2-x,1/2+y,1/2-z
1/2-x,1/2-y,-z
1/2+x,1/2-y,1/2+z
loop_
_atom_site_type_symbol
_atom_site_label
_atom_site_fract_x
_atom_site_fract_y
_atom_site_fract_z
Si Si1 0.612364 0.123766 0.969576
Si Si2 0.024464 0.579261 0.628520
Si Si3 0.337306 0.219815 0.082659
Si Si4 0.524678 0.977050 0.584427
O O1 0.680512 0.103878 0.811932
O O2 0.380193 0.078425 0.189768
O O3 0.000000 0.133387 0.750000
O O4 0.391685 0.173616 0.109563
O O5 0.870689 0.523415 0.755598
O O6 0.000000 0.603643 0.750000
O O7 0.500000 0.577336 0.250000
O O8 0.000000 0.210429 0.250000
O O9 0.211721 0.263970 0.243560
O O10 0.000000 0.970406 0.250000
O O11 0.500000 0.000000 0.500000
#
# Coordination Sequence:
#
# PCOD9283890 Si02
#       4
#     8   8   8   8
#     4  10  21  40  65  98 132 165 208 266 326 374
#     4  10  21  40  65  91 128 176 220 254 299 374
#     4  10  23  44  68  92 121 162 213 263 315 383
#     4   8  16  34  56  86 123 163 204 248 299 362
#
# _framework density 24.702342000000002
#
# number of rings (size 3 to 8) (size 9 to 14) (size 15 to 20)
#    0.000    2.500    0.000    0.750    0.000    7.000 
#    0.000   56.250    0.000    0.000    0.000    0.000 
#    0.000    0.000    0.000    0.000    0.000    0.000 
#
# Total GULP energy -89276.594853 kJ/mol
# GULP energy per Si atom -5579.787178 kJ/mol
# Density = 2.464612 g / cm^3
# Si number density = 24.702342 Si / 1000 Ang^3
#
#
#
# Elastic Constant Matrix: (Units=GPa)
#
#
# Indices 1 2 3 4 5 6 
#
# 1 170.1936 34.0243 33.0906 0.0001 -4.4873 0.0000
# 2 34.0243 135.8282 20.3002 -0.0007 -13.5522 0.0001
# 3 33.0906 20.3002 78.8699 0.0026 16.0563 -0.0014
# 4 0.0001 -0.0007 0.0026 20.1201 0.0028 -1.7285
# 5 -4.4873 -13.5522 16.0563 0.0028 19.8904 -0.0005
# 6 0.0000 0.0001 -0.0014 -1.7285 -0.0005 36.1827
#
#
#
# Elastic Compliance Matrix: (Units=1/GPa)
#
#
# Indices 1 2 3 4 5 6 
#
# 1 0.006799 -0.000825 -0.003396 0.000000 0.003713 0.000000
# 2 -0.000825 0.009046 -0.003828 0.000000 0.009067 0.000000
# 3 -0.003396 -0.003828 0.018879 0.000000 -0.018614 0.000000
# 4 0.000000 0.000000 0.000000 0.049906 -0.000007 0.002384
# 5 0.003713 0.009067 -0.018614 -0.000007 0.072317 0.000000
# 6 0.000000 0.000000 0.000000 0.002384 0.000000 0.027751
#
#
# Mechanical properties :
#
#
# Convention : Reuss Voigt Hill
#
# Bulk Modulus (GPa) = 53.69138 62.19130 57.94134
# Shear Modulus (GPa) = 24.15407 35.07042 29.61225
#
# Velocity S-wave (km/s) = 3.13038 3.77201 3.46607
# Velocity P-wave (km/s) = 5.90324 6.64843 6.28689
#
# Compressibility (1/GPa) = 0.01862496
#
# Stress axis : x y z
#
# Youngs Moduli (GPa) = 147.08505 110.54983 52.96987
#
# Poissons Ratio (x) = 0.09121 0.17989
# Poissons Ratio (y) = 0.12135 0.20277
# Poissons Ratio (z) = 0.49951 0.42319
#
# Static dielectric constant tensor:
#      x y z
#    x 1.970550 0.000000 -0.063860 
#    y 0.000000 2.014810 0.000000 
#    z -0.063860 0.000000 2.025820 
# 
# From -- ./inp_files/81958.got.cif
#   From: 2010.05.17/outbox.cif.g08.bks.cpg/sg15_41_cif.got.tgz:81958.got - 2010.06.03 18:47:42.
