data_PCOD9283282
_publ_section_title
;
Structure prediction by ZEFSAII (Michael W. Deem and Ramdas Pophale) SiO2 
 PCOD9283282
Probable space group: C 2/C
;
_chemical_formula_sum "Si O2"
_cell_formula_units_Z 56
_cell_length_a 16.263680
_cell_length_b 24.811891
_cell_length_c 8.202251
_cell_angle_alpha 90.000000
_cell_angle_beta 63.366827
_cell_angle_gamma 90.000000
_cell_volume 2958.681205
_symmetry_space_group_name_H-M "C 2/C"
_symmetry_group_IT_number 15
_symmetry_cell_setting 'monoclinic'
loop_
_space_group_symop_operation_xyz
x,y,z
-x,y,1/2-z
-x,-y,-z
x,-y,1/2+z
1/2+x,1/2+y,z
1/2-x,1/2+y,1/2-z
1/2-x,1/2-y,-z
1/2+x,1/2-y,1/2+z
loop_
_atom_site_type_symbol
_atom_site_label
_atom_site_fract_x
_atom_site_fract_y
_atom_site_fract_z
Si Si1 0.926490 0.017304 0.200046
Si Si2 0.485617 0.765120 0.438384
Si Si3 0.604851 0.604402 0.698957
Si Si4 0.341543 0.331752 0.024165
Si Si5 0.311990 0.223262 0.655519
Si Si6 0.336339 0.182399 0.286309
Si Si7 0.303511 0.613134 0.217245
O O1 0.842719 0.053531 0.216216
O O2 0.000000 0.048411 0.250000
O O3 0.889572 0.960773 0.302759
O O4 0.000000 0.000000 0.000000
O O5 0.500000 0.793457 0.250000
O O6 0.419950 0.713848 0.465659
O O7 0.588855 0.751439 0.399332
O O8 0.432408 0.798793 0.623506
O O9 0.500000 0.617820 0.750000
O O10 0.636030 0.627918 0.845000
O O11 0.656994 0.627633 0.496384
O O12 0.239835 0.307986 0.153299
O O13 0.338197 0.356097 0.847165
O O14 0.331458 0.183028 0.486508
O O15 0.238294 0.270197 0.685143
O O16 0.301889 0.129286 0.221868
#
# Coordination Sequence:
#
# PCOD9283282 Si02
#       7
#     8   8   8   8   8   8   8
#     4  11  21  37  54  82 118 156 195 238 289 356
#     4  11  23  37  58  85 120 157 201 244 291 342
#     4  11  24  37  56  84 122 157 197 240 295 355
#     4  11  25  38  59  89 118 160 202 241 291 351
#     4  10  21  40  57  81 123 155 197 248 290 343
#     4  10  22  38  57  86 115 160 200 239 294 351
#     4  12  23  38  60  81 122 155 202 243 287 353
#
# _framework density 18.927351999999999
#
# number of rings (size 3 to 8) (size 9 to 14) (size 15 to 20)
#    0.000    1.143    4.286    3.000    4.000    2.286 
#    0.000    0.000    0.000    0.000    0.000    1.000 
#    4.286    0.143    0.000    0.000    0.000    0.000 
#
# Total GULP energy -156029.622722 kJ/mol
# GULP energy per Si atom -5572.486526 kJ/mol
# Density = 1.888427 g / cm^3
# Si number density = 18.927352 Si / 1000 Ang^3
#
#
#
# Elastic Constant Matrix: (Units=GPa)
#
#
# Indices 1 2 3 4 5 6 
#
# 1 66.8267 15.8360 46.0972 0.0000 -8.5145 0.0000
# 2 15.8360 51.9464 42.0818 0.0000 -1.6988 0.0000
# 3 46.0972 42.0818 109.2488 0.0000 4.0544 0.0000
# 4 0.0000 0.0000 0.0000 23.9506 0.0000 4.1241
# 5 -8.5145 -1.6988 4.0544 0.0000 39.4120 0.0000
# 6 0.0000 0.0000 0.0000 4.1241 0.0000 30.8175
#
#
#
# Elastic Compliance Matrix: (Units=1/GPa)
#
#
# Indices 1 2 3 4 5 6 
#
# 1 0.022473 0.001755 -0.010381 0.000000 0.005999 0.000000
# 2 0.001755 0.028333 -0.011758 0.000000 0.002810 0.000000
# 3 -0.010381 -0.011758 0.018235 0.000000 -0.004625 0.000000
# 4 0.000000 0.000000 0.000000 0.042737 0.000000 -0.005719
# 5 0.005999 0.002810 -0.004625 0.000000 0.027266 0.000000
# 6 0.000000 0.000000 0.000000 -0.005719 0.000000 0.033214
#
#
# Mechanical properties :
#
#
# Convention : Reuss Voigt Hill
#
# Bulk Modulus (GPa) = 35.37109 48.45021 41.91065
# Shear Modulus (GPa) = 22.47672 27.10313 24.78993
#
# Velocity S-wave (km/s) = 3.44979 3.78822 3.62296
# Velocity P-wave (km/s) = 5.88187 6.69237 6.30017
#
# Compressibility (1/GPa) = 0.02827168
#
# Stress axis : x y z
#
# Youngs Moduli (GPa) = 44.49687 35.29451 54.84064
#
# Poissons Ratio (x) = -0.06194 0.56931
# Poissons Ratio (y) = -0.07809 0.64484
# Poissons Ratio (z) = 0.46193 0.41501
#
# Static dielectric constant tensor:
#      x y z
#    x 1.709950 0.000000 0.038190 
#    y 0.000000 1.702460 0.000000 
#    z 0.038190 0.000000 1.736760 
# 
# From -- ./inp_files/43458.got.cif
#   From: 2010.05.17/outbox.cif.g08.bks.cpg/sg15_22_cif.got.tgz:43458.got - 2010.06.03 18:47:42.
