data_PCOD9283189
_publ_section_title
;
Structure prediction by ZEFSAII (Michael W. Deem and Ramdas Pophale) SiO2 
 PCOD9283189
Probable space group: C 2/C
;
_chemical_formula_sum "Si O2"
_cell_formula_units_Z 52
_cell_length_a 17.864236
_cell_length_b 9.069951
_cell_length_c 17.745115
_cell_angle_alpha 90.000000
_cell_angle_beta 134.511175
_cell_angle_gamma 90.000000
_cell_volume 2050.345289
_symmetry_space_group_name_H-M "C 2/C"
_symmetry_group_IT_number 15
_symmetry_cell_setting 'monoclinic'
loop_
_space_group_symop_operation_xyz
x,y,z
-x,y,1/2-z
-x,-y,-z
x,-y,1/2+z
1/2+x,1/2+y,z
1/2-x,1/2+y,1/2-z
1/2-x,1/2-y,-z
1/2+x,1/2-y,1/2+z
loop_
_atom_site_type_symbol
_atom_site_label
_atom_site_fract_x
_atom_site_fract_y
_atom_site_fract_z
Si Si1 0.500000 0.206063 0.250000
Si Si2 0.919745 0.084821 0.331336
Si Si3 0.932675 0.771814 0.358731
Si Si4 0.684134 0.970147 0.390119
Si Si5 0.500000 0.000000 0.500000
Si Si6 0.277267 0.999238 0.915091
Si Si7 0.713768 0.688541 0.141291
Si Si8 0.000000 0.763325 0.750000
O O1 0.477977 0.299585 0.307093
O O2 0.600083 0.103556 0.334970
O O3 0.884195 0.200702 0.370607
O O4 0.003180 0.146566 0.330620
O O5 0.941624 0.936495 0.394118
O O6 0.817517 0.048289 0.206806
O O7 0.813413 0.721575 0.264179
O O8 0.990713 0.631823 0.431786
O O9 0.605747 0.835629 0.315556
O O10 0.735030 0.949167 0.507630
O O11 0.765429 0.032077 0.385043
O O12 0.387662 0.056080 0.459884
O O13 0.282892 0.177853 0.915206
#
# Coordination Sequence:
#
# PCOD9283189 Si02
#       8
#     4   8   8   8   4   8   8   4
#     4   9  17  36  64  96 123 175 228 286 359 425
#     4  11  25  45  67 105 146 200 233 313 367 451
#     4  10  21  39  68  98 143 184 243 291 370 429
#     4  10  22  41  71 102 133 194 239 306 351 450
#     4  12  22  40  72 110 134 190 244 310 358 452
#     4  11  24  41  73 103 146 182 257 311 370 435
#     4  10  23  41  70 102 142 189 245 299 377 434
#     4  11  27  44  76 104 159 195 248 290 397 435
#
# _framework density 25.361583
#
# number of rings (size 3 to 8) (size 9 to 14) (size 15 to 20)
#    0.000    1.538    3.077    0.923    6.462    0.615 
#    2.769    0.769    0.000    0.000    0.000    0.000 
#    0.000    0.000    0.000    0.000    0.000    0.000 
#
# Total GULP energy -144857.001870 kJ/mol
# GULP energy per Si atom -5571.423149 kJ/mol
# Density = 2.530386 g / cm^3
# Si number density = 25.361583 Si / 1000 Ang^3
#
#
#
# Elastic Constant Matrix: (Units=GPa)
#
#
# Indices 1 2 3 4 5 6 
#
# 1 124.3417 9.6461 -1.7129 0.0000 -15.3245 0.0000
# 2 9.6461 37.8051 11.4942 0.0000 -16.2561 0.0000
# 3 -1.7129 11.4942 83.7458 0.0000 -2.0057 0.0000
# 4 0.0000 0.0000 0.0000 39.6189 0.0000 -5.7899
# 5 -15.3245 -16.2561 -2.0057 0.0000 30.4052 0.0000
# 6 0.0000 0.0000 0.0000 -5.7899 0.0000 27.3435
#
#
#
# Elastic Compliance Matrix: (Units=1/GPa)
#
#
# Indices 1 2 3 4 5 6 
#
# 1 0.008590 -0.000554 0.000349 0.000000 0.004057 0.000000
# 2 -0.000554 0.035988 -0.004504 0.000000 0.018665 0.000000
# 3 0.000349 -0.004504 0.012532 0.000000 -0.001405 0.000000
# 4 0.000000 0.000000 0.000000 0.026046 0.000000 0.005515
# 5 0.004057 0.018665 -0.001405 0.000000 0.044820 0.000000
# 6 0.000000 0.000000 0.000000 0.005515 0.000000 0.037740
#
#
# Mechanical properties :
#
#
# Convention : Reuss Voigt Hill
#
# Bulk Modulus (GPa) = 20.96721 31.63861 26.30291
# Shear Modulus (GPa) = 26.17380 34.57121 30.37251
#
# Velocity S-wave (km/s) = 3.21600 3.69607 3.46436
# Velocity P-wave (km/s) = 4.69845 5.54226 5.13771
#
# Compressibility (1/GPa) = 0.04769351
#
# Stress axis : x y z
#
# Youngs Moduli (GPa) = 116.41376 27.78728 79.79258
#
# Poissons Ratio (x) = 0.01538 -0.02783
# Poissons Ratio (y) = 0.06444 0.35936
# Poissons Ratio (z) = -0.04061 0.12514
#
# Static dielectric constant tensor:
#      x y z
#    x 2.017120 0.000000 0.025860 
#    y 0.000000 2.028990 0.000000 
#    z 0.025860 0.000000 1.970640 
# 
# From -- ./inp_files/214370.got.cif
#   From: 2010.05.17/outbox.cif.g08.bks.cpg/sg15_108_cif.got.tgz:214370.got - 2010.06.03 18:47:42.
