data_PCOD9283624
_publ_section_title
;
Structure prediction by ZEFSAII (Michael W. Deem and Ramdas Pophale) SiO2 
 PCOD9283624
Probable space group: C 2/C
;
_chemical_formula_sum "Si O2"
_cell_formula_units_Z 52
_cell_length_a 27.932685
_cell_length_b 17.412280
_cell_length_c 7.628766
_cell_angle_alpha 90.000000
_cell_angle_beta 36.352812
_cell_angle_gamma 90.000000
_cell_volume 2199.370633
_symmetry_space_group_name_H-M "C 2/C"
_symmetry_group_IT_number 15
_symmetry_cell_setting 'monoclinic'
loop_
_space_group_symop_operation_xyz
x,y,z
-x,y,1/2-z
-x,-y,-z
x,-y,1/2+z
1/2+x,1/2+y,z
1/2-x,1/2+y,1/2-z
1/2-x,1/2-y,-z
1/2+x,1/2-y,1/2+z
loop_
_atom_site_type_symbol
_atom_site_label
_atom_site_fract_x
_atom_site_fract_y
_atom_site_fract_z
Si Si1 0.614420 0.751408 0.781585
Si Si2 0.918098 0.542855 0.793314
Si Si3 0.576197 0.553747 0.278003
Si Si4 0.069547 0.285586 0.303763
Si Si5 0.331221 0.912689 0.882348
Si Si6 0.336882 0.414648 0.323185
Si Si7 0.000000 0.816258 0.250000
O O1 0.660683 0.826077 0.573184
O O2 0.646105 0.667071 0.632401
O O3 0.619997 0.759956 0.980701
O O4 0.521714 0.762527 0.992495
O O5 0.916537 0.624543 0.701577
O O6 0.846096 0.482252 0.971066
O O7 0.000000 0.500000 0.500000
O O8 0.905119 0.571975 0.029146
O O9 0.500000 0.500000 0.500000
O O10 0.647237 0.494780 0.124344
O O11 0.544752 0.621039 0.492849
O O12 0.597929 0.585421 0.025050
O O13 0.071057 0.245999 0.489191
O O14 0.249706 0.915189 0.012140
#
# Coordination Sequence:
#
# PCOD9283624 Si02
#       7
#     8   8   8   8   8   8   4
#     4  10  21  40  63  90 123 166 210 253 310 374
#     4  11  22  42  65  93 126 164 216 258 305 376
#     4  12  24  41  64  91 121 167 212 258 309 376
#     4  10  22  36  65  93 120 160 212 264 299 365
#     4  11  24  41  63  96 127 168 205 256 327 369
#     4  12  24  41  64  91 132 164 206 264 315 381
#     4  12  22  38  60  98 116 152 214 256 312 346
#
# _framework density 23.643125999999999
#
# number of rings (size 3 to 8) (size 9 to 14) (size 15 to 20)
#    0.000    0.923    4.615    2.769    4.308    0.000 
#    0.000    0.000    0.000    1.846    0.000    0.000 
#    0.000    0.000    0.000    0.000    0.000    0.000 
#
# Total GULP energy -144742.020720 kJ/mol
# GULP energy per Si atom -5567.000797 kJ/mol
# Density = 2.358931 g / cm^3
# Si number density = 23.643126 Si / 1000 Ang^3
#
#
#
# Elastic Constant Matrix: (Units=GPa)
#
#
# Indices 1 2 3 4 5 6 
#
# 1 53.6321 23.8316 1.0563 0.0000 -15.8821 0.0000
# 2 23.8316 181.2906 9.2849 0.0000 15.2798 0.0000
# 3 1.0563 9.2849 46.2782 0.0000 0.0565 0.0000
# 4 0.0000 0.0000 0.0000 2.9469 0.0000 0.1930
# 5 -15.8821 15.2798 0.0565 0.0000 41.2003 0.0000
# 6 0.0000 0.0000 0.0000 0.1930 0.0000 17.3179
#
#
#
# Elastic Compliance Matrix: (Units=1/GPa)
#
#
# Indices 1 2 3 4 5 6 
#
# 1 0.023543 -0.003998 0.000252 0.000000 0.010558 0.000000
# 2 -0.003998 0.006434 -0.001195 0.000000 -0.003925 0.000000
# 3 0.000252 -0.001195 0.021842 0.000000 0.000510 0.000000
# 4 0.000000 0.000000 0.000000 0.339589 0.000000 -0.003784
# 5 0.010558 -0.003925 0.000510 0.000000 0.029797 0.000000
# 6 0.000000 0.000000 0.000000 -0.003784 0.000000 0.057786
#
#
# Mechanical properties :
#
#
# Convention : Reuss Voigt Hill
#
# Bulk Modulus (GPa) = 23.84492 38.83847 31.34169
# Shear Modulus (GPa) = 9.94331 28.76156 19.35243
#
# Velocity S-wave (km/s) = 2.05298 3.49160 2.86409
# Velocity P-wave (km/s) = 3.96571 5.71994 4.92161
#
# Compressibility (1/GPa) = 0.04193766
#
# Stress axis : x y z
#
# Youngs Moduli (GPa) = 42.47460 155.43515 45.78377
#
# Poissons Ratio (x) = 0.62138 -0.01153
# Poissons Ratio (y) = 0.16980 0.05470
# Poissons Ratio (z) = -0.01070 0.18570
#
# Static dielectric constant tensor:
#      x y z
#    x 2.155190 0.000000 0.051810 
#    y 0.000000 1.939600 0.000000 
#    z 0.051810 0.000000 1.845220 
# 
# From -- ./inp_files/70072.got.cif
#   From: 2010.05.17/outbox.cif.g08.bks.cpg/sg15_36_cif.got.tgz:70072.got - 2010.06.03 18:47:42.
