data_PCOD9283622
_publ_section_title
;
Structure prediction by ZEFSAII (Michael W. Deem and Ramdas Pophale) SiO2 
 PCOD9283622
Probable space group: C 2/C
;
_chemical_formula_sum "Si O2"
_cell_formula_units_Z 32
_cell_length_a 5.566455
_cell_length_b 24.356505
_cell_length_c 9.412318
_cell_angle_alpha 90.000000
_cell_angle_beta 105.879567
_cell_angle_gamma 90.000000
_cell_volume 1227.418383
_symmetry_space_group_name_H-M "C 2/C"
_symmetry_group_IT_number 15
_symmetry_cell_setting 'monoclinic'
loop_
_space_group_symop_operation_xyz
x,y,z
-x,y,1/2-z
-x,-y,-z
x,-y,1/2+z
1/2+x,1/2+y,z
1/2-x,1/2+y,1/2-z
1/2-x,1/2-y,-z
1/2+x,1/2-y,1/2+z
loop_
_atom_site_type_symbol
_atom_site_label
_atom_site_fract_x
_atom_site_fract_y
_atom_site_fract_z
Si Si1 0.394972 0.297181 0.891755
Si Si2 0.780522 0.809199 0.284637
Si Si3 0.278683 0.535188 0.833205
Si Si4 0.390498 0.414584 0.890240
O O1 0.500000 0.303581 0.750000
O O2 0.246416 0.240702 0.838495
O O3 0.260726 0.355844 0.899699
O O4 0.616835 0.294043 0.042883
O O5 0.500000 0.829541 0.250000
O O6 0.000000 0.844851 0.250000
O O7 0.500000 0.532701 0.750000
O O8 0.248853 0.472202 0.886169
O O9 0.000000 0.551216 0.750000
O O10 0.376182 0.576558 0.968209
O O11 0.500000 0.413999 0.750000
#
# Coordination Sequence:
#
# PCOD9283622 Si02
#       4
#     8   8   8   8
#     4  10  21  40  63  90 123 161 203 248 300 356
#     4  11  23  41  62  87 121 161 204 249 298 353
#     4  10  22  42  64  90 123 158 199 248 301 360
#     4   9  21  39  63  92 123 159 200 248 302 358
#
# _framework density 26.070978
#
# number of rings (size 3 to 8) (size 9 to 14) (size 15 to 20)
#    0.000    2.000    0.000    3.750    0.000   12.000 
#    0.000   10.000    0.000    0.000    0.000    0.000 
#    0.000    0.000    0.000    0.000    0.000    0.000 
#
# Total GULP energy -89224.072374 kJ/mol
# GULP energy per Si atom -5576.504523 kJ/mol
# Density = 2.601164 g / cm^3
# Si number density = 26.070978 Si / 1000 Ang^3
#
#
#
# Elastic Constant Matrix: (Units=GPa)
#
#
# Indices 1 2 3 4 5 6 
#
# 1 158.8187 17.1130 75.3179 0.0000 19.8135 0.0000
# 2 17.1130 186.2485 5.8563 0.0000 14.8528 0.0000
# 3 75.3179 5.8563 188.1716 0.0000 44.3889 0.0000
# 4 0.0000 0.0000 0.0000 64.9723 0.0000 -30.8406
# 5 19.8135 14.8528 44.3889 0.0000 41.6443 0.0000
# 6 0.0000 0.0000 0.0000 -30.8406 0.0000 5.8472
#
#
#
# Elastic Compliance Matrix: (Units=1/GPa)
#
#
# Indices 1 2 3 4 5 6 
#
# 1 0.007845 -0.000604 -0.003061 0.000000 -0.000254 0.000000
# 2 -0.000604 0.005595 0.000629 0.000000 -0.002378 0.000000
# 3 -0.003061 0.000629 0.008322 0.000000 -0.007638 0.000000
# 4 0.000000 0.000000 0.000000 -0.010236 0.000000 -0.053989
# 5 -0.000254 -0.002378 -0.007638 0.000000 0.033123 0.000000
# 6 0.000000 0.000000 0.000000 -0.053989 0.000000 -0.113739
#
#
# Mechanical properties :
#
#
# Convention : Reuss Voigt Hill
#
# Bulk Modulus (GPa) = 63.74488 81.09034 72.41761
# Shear Modulus (GPa) = -86.52546 51.48952 -17.51797
#
# Velocity S-wave (km/s) = -5.76719 4.44889 -2.59498
# Velocity P-wave (km/s) = 4.45463 7.58692 4.34268
#
# Compressibility (1/GPa) = 0.01568753
#
# Stress axis : x y z
#
# Youngs Moduli (GPa) = 127.46798 178.74486 120.16522
#
# Poissons Ratio (x) = 0.10802 0.36788
# Poissons Ratio (y) = 0.07703 -0.07555
# Poissons Ratio (z) = 0.39023 -0.11238
#
# Static dielectric constant tensor:
#      x y z
#    x 1.996890 0.000000 -0.017270 
#    y 0.000000 2.219560 0.000000 
#    z -0.017270 0.000000 2.077310 
# 
# From -- ./inp_files/20301.got.cif
#   From: 2010.05.17/outbox.cif.g08.bks.cpg/sg15_11_cif.got.tgz:20301.got - 2010.06.03 18:47:42.
