data_PCOD9283794
_publ_section_title
;
Structure prediction by ZEFSAII (Michael W. Deem and Ramdas Pophale) SiO2 
 PCOD9283794
Probable space group: C 2/C
;
_chemical_formula_sum "Si O2"
_cell_formula_units_Z 44
_cell_length_a 14.519303
_cell_length_b 6.943790
_cell_length_c 21.384686
_cell_angle_alpha 90.000000
_cell_angle_beta 61.251509
_cell_angle_gamma 90.000000
_cell_volume 1890.234823
_symmetry_space_group_name_H-M "C 2/C"
_symmetry_group_IT_number 15
_symmetry_cell_setting 'monoclinic'
loop_
_space_group_symop_operation_xyz
x,y,z
-x,y,1/2-z
-x,-y,-z
x,-y,1/2+z
1/2+x,1/2+y,z
1/2-x,1/2+y,1/2-z
1/2-x,1/2-y,-z
1/2+x,1/2-y,1/2+z
loop_
_atom_site_type_symbol
_atom_site_label
_atom_site_fract_x
_atom_site_fract_y
_atom_site_fract_z
Si Si1 0.814068 0.755282 0.885967
Si Si2 0.500000 0.703578 0.250000
Si Si3 0.066645 0.782924 0.937213
Si Si4 0.658585 0.935610 0.835793
Si Si5 0.150739 0.018601 0.010119
Si Si6 0.861883 0.044565 0.699822
O O1 0.758989 0.597288 0.946772
O O2 0.731886 0.823938 0.861349
O O3 0.843066 0.943399 0.918241
O O4 0.919461 0.681154 0.819170
O O5 0.570515 0.571551 0.271900
O O6 0.087257 0.580228 0.898108
O O7 0.119257 0.818716 0.987708
O O8 0.120656 0.935479 0.871577
O O9 0.944619 0.839320 0.979996
O O10 0.740582 0.042941 0.762771
O O11 0.601483 0.764277 0.818313
#
# Coordination Sequence:
#
# PCOD9283794 Si02
#       6
#     8   4   8   8   8   8
#     4  10  21  40  64  94 127 171 208 265 313 379
#     4  10  22  40  68  86 132 168 216 268 320 374
#     4  11  22  41  65  93 129 174 202 266 315 387
#     4  11  23  39  68  91 127 165 218 262 319 370
#     4  10  22  41  64  95 134 165 212 257 327 376
#     4  11  21  42  61  96 122 167 213 267 313 381
#
# _framework density 23.277529000000001
#
# number of rings (size 3 to 8) (size 9 to 14) (size 15 to 20)
#    0.000    1.455    5.455    0.000    0.000    1.455 
#    0.000   10.000    0.000    0.000    0.000    0.000 
#    0.000    0.000    0.000    0.000    0.000    0.000 
#
# Total GULP energy -122997.524595 kJ/mol
# GULP energy per Si atom -5590.796573 kJ/mol
# Density = 2.322455 g / cm^3
# Si number density = 23.277529 Si / 1000 Ang^3
#
#
#
# Elastic Constant Matrix: (Units=GPa)
#
#
# Indices 1 2 3 4 5 6 
#
# 1 42.7907 -14.9014 6.1022 0.0000 1.8724 0.0000
# 2 -14.9014 40.3203 -14.3801 0.0000 -7.7356 0.0002
# 3 6.1022 -14.3801 88.7876 0.0000 -18.1755 0.0000
# 4 0.0000 0.0000 0.0000 36.9918 0.0000 -0.3756
# 5 1.8724 -7.7356 -18.1755 0.0000 43.9271 0.0000
# 6 0.0000 0.0002 0.0000 -0.3756 0.0000 12.8400
#
#
#
# Elastic Compliance Matrix: (Units=1/GPa)
#
#
# Indices 1 2 3 4 5 6 
#
# 1 0.026839 0.009989 -0.000110 0.000000 0.000569 0.000000
# 2 0.009989 0.032163 0.006113 0.000000 0.007767 0.000000
# 3 -0.000110 0.006113 0.013637 0.000000 0.006724 0.000000
# 4 0.000000 0.000000 0.000000 0.027041 0.000000 0.000791
# 5 0.000569 0.007767 0.006724 0.000000 0.026891 0.000000
# 6 0.000000 0.000000 0.000000 0.000791 0.000000 0.077905
#
#
# Mechanical properties :
#
#
# Convention : Reuss Voigt Hill
#
# Bulk Modulus (GPa) = 9.55823 13.94891 11.75357
# Shear Modulus (GPa) = 24.11188 31.75696 27.93442
#
# Velocity S-wave (km/s) = 3.22194 3.69762 3.46795
# Velocity P-wave (km/s) = 4.23749 4.92293 4.59302
#
# Compressibility (1/GPa) = 0.10462185
#
# Stress axis : x y z
#
# Youngs Moduli (GPa) = 37.25936 31.09128 73.33103
#
# Poissons Ratio (x) = -0.31057 0.00808
# Poissons Ratio (y) = -0.37218 -0.44825
# Poissons Ratio (z) = 0.00411 -0.19005
#
# Static dielectric constant tensor:
#      x y z
#    x 1.883450 0.000000 0.014610 
#    y 0.000000 1.897100 0.000000 
#    z 0.014610 0.000000 1.915490 
# 
# From -- ./inp_files/272931.got.cif
#   From: 2010.05.17/outbox.cif.g08.bks.cpg/sg15_137_cif.got.tgz:272931.got - 2010.06.03 18:47:42.
