data_PCOD9283195
_publ_section_title
;
Structure prediction by ZEFSAII (Michael W. Deem and Ramdas Pophale) SiO2 
 PCOD9283195
Probable space group: C 2/C
;
_chemical_formula_sum "Si O2"
_cell_formula_units_Z 48
_cell_length_a 18.229081
_cell_length_b 8.715327
_cell_length_c 23.614572
_cell_angle_alpha 90.000000
_cell_angle_beta 29.461468
_cell_angle_gamma 90.000000
_cell_volume 1845.230951
_symmetry_space_group_name_H-M "C 2/C"
_symmetry_group_IT_number 15
_symmetry_cell_setting 'monoclinic'
loop_
_space_group_symop_operation_xyz
x,y,z
-x,y,1/2-z
-x,-y,-z
x,-y,1/2+z
1/2+x,1/2+y,z
1/2-x,1/2+y,1/2-z
1/2-x,1/2-y,-z
1/2+x,1/2-y,1/2+z
loop_
_atom_site_type_symbol
_atom_site_label
_atom_site_fract_x
_atom_site_fract_y
_atom_site_fract_z
Si Si1 0.510325 0.035497 0.826416
Si Si2 0.754426 0.392618 0.421350
Si Si3 0.560951 0.404625 0.856414
Si Si4 0.401483 0.081573 0.113994
Si Si5 0.938428 0.824916 0.230342
Si Si6 0.370756 0.677522 0.061598
O O1 0.621791 0.136189 0.711334
O O2 0.346669 0.086996 0.916649
O O3 0.576018 0.023559 0.845390
O O4 0.506998 0.851282 0.814080
O O5 0.595808 0.308537 0.537272
O O6 0.697217 0.553608 0.434384
O O7 0.729459 0.376695 0.721003
O O8 0.519674 0.546159 0.842802
O O9 0.595727 0.400744 0.900628
O O10 0.485094 0.244071 0.061614
O O11 0.500000 0.000000 0.000000
O O12 0.759581 0.803953 0.345397
O O13 0.000000 0.874336 0.250000
#
# Coordination Sequence:
#
# PCOD9283195 Si02
#       6
#     8   8   8   8   8   8
#     4  10  21  42  65 105 138 167 224 295 350 398
#     4  10  21  39  69 100 135 173 217 287 355 405
#     4  12  25  39  66 104 134 182 229 280 347 419
#     4  12  25  40  62  98 139 183 225 284 338 409
#     4  11  21  41  70 104 134 173 226 288 349 406
#     4  11  23  40  62 101 135 177 221 282 343 400
#
# _framework density 26.013005
#
# number of rings (size 3 to 8) (size 9 to 14) (size 15 to 20)
#    0.000    1.000    8.333    1.500    2.333    1.333 
#    0.000    0.000    0.000    4.000    0.000    0.000 
#    0.000    0.000    0.000    0.000    0.000    0.000 
#
# Total GULP energy -133841.944529 kJ/mol
# GULP energy per Si atom -5576.747689 kJ/mol
# Density = 2.595380 g / cm^3
# Si number density = 26.013005 Si / 1000 Ang^3
#
#
#
# Elastic Constant Matrix: (Units=GPa)
#
#
# Indices 1 2 3 4 5 6 
#
# 1 187.7558 56.8327 93.9734 0.0000 -4.9784 0.0000
# 2 56.8327 56.5492 13.4094 0.0000 -3.0825 -0.0001
# 3 93.9734 13.4094 141.5133 -0.0002 -38.8623 0.0000
# 4 0.0000 0.0000 -0.0002 -7.8837 0.0000 -11.3529
# 5 -4.9784 -3.0825 -38.8623 0.0000 49.2655 0.0000
# 6 0.0000 -0.0001 0.0000 -11.3529 0.0000 30.6472
#
#
#
# Elastic Compliance Matrix: (Units=1/GPa)
#
#
# Indices 1 2 3 4 5 6 
#
# 1 0.013678 -0.011781 -0.009944 0.000000 -0.007199 0.000000
# 2 -0.011781 0.028241 0.006773 0.000000 0.005919 0.000000
# 3 -0.009944 0.006773 0.016427 0.000000 0.012377 0.000000
# 4 0.000000 0.000000 0.000000 -0.082718 0.000000 -0.030642
# 5 -0.007199 0.005919 0.012377 0.000000 0.029705 0.000000
# 6 0.000000 0.000000 0.000000 -0.030642 0.000000 0.021278
#
#
# Mechanical properties :
#
#
# Convention : Reuss Voigt Hill
#
# Bulk Modulus (GPa) = 35.15956 79.36103 57.26030
# Shear Modulus (GPa) = 75.76289 29.17934 52.47111
#
# Velocity S-wave (km/s) = 5.40261 3.35284 4.49610
# Velocity P-wave (km/s) = 7.24314 6.75005 7.00094
#
# Compressibility (1/GPa) = 0.02844177
#
# Stress axis : x y z
#
# Youngs Moduli (GPa) = 73.10855 35.40992 60.87552
#
# Poissons Ratio (x) = 0.41718 0.60534
# Poissons Ratio (y) = 0.86132 -0.41231
# Poissons Ratio (z) = 0.72698 -0.23983
#
# Static dielectric constant tensor:
#      x y z
#    x 1.998260 0.000000 0.073190 
#    y 0.000000 2.270350 0.000000 
#    z 0.073190 0.000000 2.278740 
# 
# From -- ./inp_files/277213.got.cif
#   From: 2010.05.17/outbox.cif.g08.bks.cpg/sg15_139_cif.got.tgz:277213.got - 2010.06.03 18:47:42.
