data_PCOD9283188
_publ_section_title
;
Structure prediction by ZEFSAII (Michael W. Deem and Ramdas Pophale) SiO2 
 PCOD9283188
Probable space group: C 2/C
;
_chemical_formula_sum "Si O2"
_cell_formula_units_Z 56
_cell_length_a 9.873994
_cell_length_b 17.058955
_cell_length_c 24.725748
_cell_angle_alpha 90.000000
_cell_angle_beta 35.713770
_cell_angle_gamma 90.000000
_cell_volume 2431.148402
_symmetry_space_group_name_H-M "C 2/C"
_symmetry_group_IT_number 15
_symmetry_cell_setting 'monoclinic'
loop_
_space_group_symop_operation_xyz
x,y,z
-x,y,1/2-z
-x,-y,-z
x,-y,1/2+z
1/2+x,1/2+y,z
1/2-x,1/2+y,1/2-z
1/2-x,1/2-y,-z
1/2+x,1/2-y,1/2+z
loop_
_atom_site_type_symbol
_atom_site_label
_atom_site_fract_x
_atom_site_fract_y
_atom_site_fract_z
Si Si1 0.500000 0.517790 0.750000
Si Si2 0.933095 0.552296 0.673239
Si Si3 0.785590 0.884965 0.882865
Si Si4 0.363156 0.891586 0.932586
Si Si5 0.610115 0.367890 0.350761
Si Si6 0.500000 0.746962 0.250000
Si Si7 0.590403 0.825117 0.050323
Si Si8 0.378125 0.747470 0.844008
O O1 0.737403 0.557407 0.689418
O O2 0.431843 0.461550 0.821633
O O3 0.786768 0.564003 0.775111
O O4 0.070640 0.471906 0.620159
O O5 0.076817 0.630142 0.611900
O O6 0.567314 0.880695 0.911705
O O7 0.956948 0.812347 0.814011
O O8 0.694848 0.884994 0.972628
O O9 0.360789 0.817135 0.893217
O O10 0.110883 0.893771 0.042782
O O11 0.511745 0.324279 0.329310
O O12 0.773649 0.300660 0.322192
O O13 0.359819 0.789604 0.098963
O O14 0.750000 0.750000 0.000000
O O15 0.500000 0.776512 0.750000
#
# Coordination Sequence:
#
# PCOD9283188 Si02
#       8
#     4   8   8   8   8   4   8   8
#     4   9  22  36  64  96 133 176 222 288 349 402
#     4  11  25  43  64 107 142 182 235 293 360 411
#     4  10  21  39  68  98 136 171 232 282 348 414
#     4  11  25  45  72 102 139 188 231 291 365 424
#     4  12  23  45  72  98 137 189 233 288 354 428
#     4  11  22  40  68 100 131 174 238 286 331 420
#     4  12  25  41  67 103 137 181 231 293 341 418
#     4  12  24  46  72 100 139 181 238 289 357 422
#
# _framework density 23.034382000000001
#
# number of rings (size 3 to 8) (size 9 to 14) (size 15 to 20)
#    0.000    0.857    4.286    3.000    2.000    1.143 
#    1.286    1.429    0.000    0.000    0.000    0.000 
#    0.000    0.000    0.000    0.000    0.000    0.000 
#
# Total GULP energy -156582.226895 kJ/mol
# GULP energy per Si atom -5592.222389 kJ/mol
# Density = 2.298195 g / cm^3
# Si number density = 23.034382 Si / 1000 Ang^3
#
#
#
# Elastic Constant Matrix: (Units=GPa)
#
#
# Indices 1 2 3 4 5 6 
#
# 1 41.3138 5.7431 18.6802 -0.0448 -5.0351 0.0373
# 2 5.7431 104.2193 56.1410 -0.0322 -5.4554 0.0178
# 3 18.6802 56.1410 159.4458 -0.0115 17.3089 0.0122
# 4 -0.0448 -0.0322 -0.0115 88.7626 0.0348 -53.6405
# 5 -5.0351 -5.4554 17.3089 0.0348 33.1017 -0.0346
# 6 0.0373 0.0178 0.0122 -53.6405 -0.0346 38.5688
#
#
#
# Elastic Compliance Matrix: (Units=1/GPa)
#
#
# Indices 1 2 3 4 5 6 
#
# 1 0.026753 0.001150 -0.004242 -0.000005 0.006477 -0.000026
# 2 0.001150 0.012521 -0.005075 0.000013 0.004892 0.000017
# 3 -0.004242 -0.005075 0.009241 -0.000010 -0.006314 -0.000016
# 4 -0.000005 0.000013 -0.000010 0.070617 0.000035 0.098213
# 5 0.006477 0.004892 -0.006314 0.000035 0.035303 0.000074
# 6 -0.000026 0.000017 -0.000016 0.098213 0.000074 0.162520
#
#
# Mechanical properties :
#
#
# Convention : Reuss Voigt Hill
#
# Bulk Modulus (GPa) = 31.07389 51.78972 41.43181
# Shear Modulus (GPa) = 14.53421 47.04759 30.79090
#
# Velocity S-wave (km/s) = 2.51465 4.52430 3.66011
# Velocity P-wave (km/s) = 4.68517 7.05867 5.99065
#
# Compressibility (1/GPa) = 0.03218135
#
# Stress axis : x y z
#
# Youngs Moduli (GPa) = 37.37937 79.86282 108.21421
#
# Poissons Ratio (x) = -0.09185 0.45909
# Poissons Ratio (y) = -0.04299 0.54915
# Poissons Ratio (z) = 0.15858 0.40527
#
# Static dielectric constant tensor:
#      x y z
#    x 1.813000 0.000010 -0.120980 
#    y 0.000010 1.852220 0.000000 
#    z -0.120980 0.000000 1.935510 
# 
# From -- ./inp_files/311348.got.cif
#   From: 2010.05.17/outbox.cif.g08.bks.cpg/sg15_156_cif.got.tgz:311348.got - 2010.06.03 18:47:42.
