data_PCOD9283118
_publ_section_title
;
Structure prediction by ZEFSAII (Michael W. Deem and Ramdas Pophale) SiO2 
 PCOD9283118
Probable space group: C 2/C
;
_chemical_formula_sum "Si O2"
_cell_formula_units_Z 36
_cell_length_a 13.434944
_cell_length_b 20.112633
_cell_length_c 11.375796
_cell_angle_alpha 90.000000
_cell_angle_beta 32.871863
_cell_angle_gamma 90.000000
_cell_volume 1668.384199
_symmetry_space_group_name_H-M "C 2/C"
_symmetry_group_IT_number 15
_symmetry_cell_setting 'monoclinic'
loop_
_space_group_symop_operation_xyz
x,y,z
-x,y,1/2-z
-x,-y,-z
x,-y,1/2+z
1/2+x,1/2+y,z
1/2-x,1/2+y,1/2-z
1/2-x,1/2-y,-z
1/2+x,1/2-y,1/2+z
loop_
_atom_site_type_symbol
_atom_site_label
_atom_site_fract_x
_atom_site_fract_y
_atom_site_fract_z
Si Si1 0.283458 0.162386 0.590235
Si Si2 0.715274 0.816075 0.676630
Si Si3 0.778573 0.955254 0.166640
Si Si4 0.166136 0.909672 0.745909
Si Si5 0.500000 0.923433 0.250000
O O1 0.222284 0.159371 0.514540
O O2 0.503217 0.163414 0.386579
O O3 0.220979 0.236703 0.685558
O O4 0.228675 0.101310 0.725844
O O5 0.830308 0.849506 0.665181
O O6 0.608497 0.959353 0.246709
O O7 0.782830 0.025239 0.228108
O O8 0.960638 0.932105 0.914920
O O9 0.325497 0.891936 0.493393
#
# Coordination Sequence:
#
# PCOD9283118 Si02
#       5
#     8   8   8   8   4
#     4  10  21  39  67  97 129 166 213 274 329 380
#     4  10  21  39  67  97 129 166 213 274 329 380
#     4  11  25  42  67  97 131 171 217 267 321 387
#     4  11  25  42  67  97 131 171 217 267 321 387
#     4  12  24  44  64  94 132 182 208 268 310 404
#
# _framework density 21.577763999999998
#
# number of rings (size 3 to 8) (size 9 to 14) (size 15 to 20)
#    0.000    1.333    2.222    2.667    3.111    2.667 
#    0.000    1.111    0.000    0.000    0.000    0.000 
#    0.000    0.000    0.000    0.000    0.000    0.000 
#
# Total GULP energy -100317.541052 kJ/mol
# GULP energy per Si atom -5573.196725 kJ/mol
# Density = 2.152865 g / cm^3
# Si number density = 21.577764 Si / 1000 Ang^3
#
#
#
# Elastic Constant Matrix: (Units=GPa)
#
#
# Indices 1 2 3 4 5 6 
#
# 1 12.3278 -17.8622 -26.3692 0.0126 0.0501 0.0280
# 2 -17.8622 43.2208 3.4702 -0.0080 34.9211 0.0381
# 3 -26.3692 3.4702 82.2041 -0.0068 1.2518 0.0271
# 4 0.0126 -0.0080 -0.0068 16.3468 -0.0223 -36.0288
# 5 0.0501 34.9211 1.2518 -0.0223 39.1672 -0.0394
# 6 0.0280 0.0381 0.0271 -36.0288 -0.0394 -86.0149
#
#
#
# Elastic Compliance Matrix: (Units=1/GPa)
#
#
# Indices 1 2 3 4 5 6 
#
# 1 -0.048513 -0.069234 -0.013587 -0.000048 0.062225 -0.000059
# 2 -0.069234 -0.015598 -0.021774 -0.000020 0.014691 -0.000035
# 3 -0.013587 -0.021774 0.008434 -0.000008 0.019161 -0.000017
# 4 -0.000048 -0.000020 -0.000008 0.031809 0.000023 -0.013324
# 5 0.062225 0.014691 0.019161 0.000023 0.011741 0.000018
# 6 -0.000059 -0.000035 -0.000017 -0.013324 0.000018 -0.006045
#
#
# Mechanical properties :
#
#
# Convention : Reuss Voigt Hill
#
# Bulk Modulus (GPa) = -3.77548 6.24783 1.23617
# Shear Modulus (GPa) = 48.67205 5.80075 27.23640
#
# Velocity S-wave (km/s) = 4.75453 1.64138 3.55666
# Velocity P-wave (km/s) = 5.32797 2.54832 4.17619
#
# Compressibility (1/GPa) = -0.26486690
#
# Stress axis : x y z
#
# Youngs Moduli (GPa) = -20.61286 -64.11245 118.56877
#
# Poissons Ratio (x) = -4.43877 1.61097
# Poissons Ratio (y) = -1.42711 2.58171
# Poissons Ratio (z) = -0.28006 -1.39598
#
# Static dielectric constant tensor:
#      x y z
#    x 1.753150 0.000000 -0.019850 
#    y 0.000000 1.741960 0.000010 
#    z -0.019850 0.000010 1.887920 
# 
# From -- ./inp_files/99619.got.cif
#   From: 2010.05.17/outbox.cif.g08.bks.cpg/sg15_50_cif.got.tgz:99619.got - 2010.06.03 18:47:42.
