data_PCOD9283649
_publ_section_title
;
Structure prediction by ZEFSAII (Michael W. Deem and Ramdas Pophale) SiO2 
 PCOD9283649
Probable space group: C 2/C
;
_chemical_formula_sum "Si O2"
_cell_formula_units_Z 40
_cell_length_a 24.050940
_cell_length_b 16.080139
_cell_length_c 15.542025
_cell_angle_alpha 90.000000
_cell_angle_beta 18.464454
_cell_angle_gamma 90.000000
_cell_volume 1903.705732
_symmetry_space_group_name_H-M "C 2/C"
_symmetry_group_IT_number 15
_symmetry_cell_setting 'monoclinic'
loop_
_space_group_symop_operation_xyz
x,y,z
-x,y,1/2-z
-x,-y,-z
x,-y,1/2+z
1/2+x,1/2+y,z
1/2-x,1/2+y,1/2-z
1/2-x,1/2-y,-z
1/2+x,1/2-y,1/2+z
loop_
_atom_site_type_symbol
_atom_site_label
_atom_site_fract_x
_atom_site_fract_y
_atom_site_fract_z
Si Si1 0.152308 0.556690 0.737651
Si Si2 0.561074 0.752810 0.407627
Si Si3 0.698160 0.416891 0.660175
Si Si4 0.805182 0.033263 0.685788
Si Si5 0.660515 0.207776 0.949719
O O1 0.107895 0.654049 0.811390
O O2 0.190698 0.544733 0.580958
O O3 0.302918 0.533263 0.585699
O O4 0.000000 0.500000 0.000000
O O5 0.680568 0.682832 0.186476
O O6 0.608621 0.746418 0.438162
O O7 0.353619 0.736428 0.697674
O O8 0.748631 0.452619 0.679787
O O9 0.500375 0.444897 0.929041
O O10 0.682994 0.110041 0.894411
O O11 0.500000 0.220000 0.250000
#
# Coordination Sequence:
#
# PCOD9283649 Si02
#       5
#     8   8   8   8   8
#     4  11  24  39  63  96 130 163 217 268 323 383
#     4  10  23  41  62  97 125 174 217 261 330 385
#     4  10  21  43  66  87 127 170 215 262 320 390
#     4   9  22  40  63  92 121 170 209 261 325 379
#     4  10  21  40  63  91 134 163 215 268 322 386
#
# _framework density 21.011651000000001
#
# number of rings (size 3 to 8) (size 9 to 14) (size 15 to 20)
#    0.000    2.000    0.000    1.800    8.400    0.000 
#    3.600    2.000    0.000    0.000    0.000    0.000 
#    0.000    0.000    0.000    0.000    0.000    0.000 
#
# Total GULP energy -111565.036630 kJ/mol
# GULP energy per Si atom -5578.251832 kJ/mol
# Density = 2.096383 g / cm^3
# Si number density = 21.011651 Si / 1000 Ang^3
#
#
#
# Elastic Constant Matrix: (Units=GPa)
#
#
# Indices 1 2 3 4 5 6 
#
# 1 41.1022 56.9470 99.6906 -0.0015 -20.6119 -0.0001
# 2 56.9470 69.7714 -13.1396 -0.0037 23.3130 0.0012
# 3 99.6906 -13.1396 4.5712 -0.0015 40.3457 0.0010
# 4 -0.0015 -0.0037 -0.0015 15.9943 0.0001 -1.8279
# 5 -20.6119 23.3130 40.3457 0.0001 35.1274 -0.0003
# 6 -0.0001 0.0012 0.0010 -1.8279 -0.0003 32.8582
#
#
#
# Elastic Compliance Matrix: (Units=1/GPa)
#
#
# Indices 1 2 3 4 5 6 
#
# 1 0.002709 0.001385 0.006676 0.000001 -0.006998 0.000000
# 2 0.001385 0.011525 -0.006924 0.000002 0.001116 0.000000
# 3 0.006676 -0.006924 0.002394 -0.000001 0.005763 0.000000
# 4 0.000001 0.000002 -0.000001 0.062922 0.000000 0.003500
# 5 -0.006998 0.001116 0.005763 0.000000 0.017002 0.000000
# 6 0.000000 0.000000 0.000000 0.003500 0.000000 0.030629
#
#
# Mechanical properties :
#
#
# Convention : Reuss Voigt Hill
#
# Bulk Modulus (GPa) = 52.90292 44.71567 48.80930
# Shear Modulus (GPa) = 38.10781 14.92577 26.51679
#
# Velocity S-wave (km/s) = 4.26332 2.66814 3.55632
# Velocity P-wave (km/s) = 7.03328 5.55154 6.33588
#
# Compressibility (1/GPa) = 0.01890255
#
# Stress axis : x y z
#
# Youngs Moduli (GPa) = 369.20493 86.76545 417.69353
#
# Poissons Ratio (x) = -0.12016 -2.78866
# Poissons Ratio (y) = -0.51130 2.89207
# Poissons Ratio (z) = -2.46494 0.60076
#
# Static dielectric constant tensor:
#      x y z
#    x 1.932730 0.000000 -0.018530 
#    y 0.000000 1.752450 0.000000 
#    z -0.018530 0.000000 1.751190 
# 
# From -- ./inp_files/85553.got.cif
#   From: 2010.05.17/outbox.cif.g08.bks.cpg/sg15_43_cif.got.tgz:85553.got - 2010.06.03 18:47:42.
