data_PCOD9283867
_publ_section_title
;
Structure prediction by ZEFSAII (Michael W. Deem and Ramdas Pophale) SiO2 
 PCOD9283867
Probable space group: C 2/C
;
_chemical_formula_sum "Si O2"
_cell_formula_units_Z 64
_cell_length_a 24.580931
_cell_length_b 11.395210
_cell_length_c 11.078208
_cell_angle_alpha 90.000000
_cell_angle_beta 93.739782
_cell_angle_gamma 90.000000
_cell_volume 3096.452275
_symmetry_space_group_name_H-M "C 2/C"
_symmetry_group_IT_number 15
_symmetry_cell_setting 'monoclinic'
loop_
_space_group_symop_operation_xyz
x,y,z
-x,y,1/2-z
-x,-y,-z
x,-y,1/2+z
1/2+x,1/2+y,z
1/2-x,1/2+y,1/2-z
1/2-x,1/2-y,-z
1/2+x,1/2-y,1/2+z
loop_
_atom_site_type_symbol
_atom_site_label
_atom_site_fract_x
_atom_site_fract_y
_atom_site_fract_z
Si Si1 0.857749 0.847480 0.166271
Si Si2 0.445213 0.796354 0.812809
Si Si3 0.884245 0.316758 0.026874
Si Si4 0.655632 0.614156 0.311965
Si Si5 0.733930 0.127177 0.063941
Si Si6 0.743261 0.136017 0.582477
Si Si7 0.062594 0.430848 0.236924
Si Si8 0.629301 0.773142 0.091524
O O1 0.896053 0.787178 0.267239
O O2 0.792860 0.845927 0.182416
O O3 0.866819 0.985851 0.163621
O O4 0.869204 0.779451 0.042273
O O5 0.500000 0.760024 0.750000
O O6 0.434260 0.930079 0.774199
O O7 0.438768 0.800257 0.955985
O O8 0.864076 0.195729 0.081766
O O9 0.832102 0.366791 0.944069
O O10 0.899580 0.394641 0.145004
O O11 0.722202 0.622640 0.319448
O O12 0.632028 0.665788 0.185290
O O13 0.750000 0.250000 0.000000
O O14 0.746718 0.992422 0.018513
O O15 0.750000 0.250000 0.500000
O O16 0.683372 0.149825 0.625694
O O17 0.081296 0.360572 0.120688
O O18 0.000000 0.399120 0.250000
#
# Coordination Sequence:
#
# PCOD9283867 Si02
#       8
#     8   8   8   8   8   8   8   8
#     4  10  23  40  63  88 129 162 210 256 314 375
#     4  11  26  40  63  93 122 165 210 265 317 369
#     4  10  22  40  64  90 127 159 214 253 316 376
#     4   9  21  41  61  95 123 171 201 257 318 375
#     4   9  18  36  61  91 129 163 204 254 313 383
#     4   9  19  35  58  93 123 165 201 256 315 370
#     4  10  24  41  66  91 120 164 209 267 318 366
#     4  10  21  40  65  89 125 163 211 257 315 381
#
# _framework density 20.668816
#
# number of rings (size 3 to 8) (size 9 to 14) (size 15 to 20)
#    0.000    2.250    0.000    0.750   10.500    1.000 
#    0.000    4.375    0.000    0.000    0.000    0.000 
#    0.000    0.000    0.000    0.000    0.000    0.000 
#
# Total GULP energy -178155.436167 kJ/mol
# GULP energy per Si atom -5567.357380 kJ/mol
# Density = 2.062177 g / cm^3
# Si number density = 20.668816 Si / 1000 Ang^3
#
#
#
# Elastic Constant Matrix: (Units=GPa)
#
#
# Indices 1 2 3 4 5 6 
#
# 1 74.4704 33.7613 -2.8249 0.0000 -12.4027 0.0000
# 2 33.7613 101.9083 5.5815 0.0000 3.3991 0.0000
# 3 -2.8249 5.5815 28.6952 0.0000 -9.8842 0.0000
# 4 0.0000 0.0000 0.0000 7.7060 0.0000 2.2075
# 5 -12.4027 3.3991 -9.8842 0.0000 23.6413 0.0000
# 6 0.0000 0.0000 0.0000 2.2075 0.0000 20.5881
#
#
#
# Elastic Compliance Matrix: (Units=1/GPa)
#
#
# Indices 1 2 3 4 5 6 
#
# 1 0.019624 -0.007466 0.008528 0.000000 0.014934 0.000000
# 2 -0.007466 0.012899 -0.006112 0.000000 -0.008327 0.000000
# 3 0.008528 -0.006112 0.045236 0.000000 0.024266 0.000000
# 4 0.000000 0.000000 0.000000 0.133882 0.000000 -0.014355
# 5 0.014934 -0.008327 0.024266 0.000000 0.061476 0.000000
# 6 0.000000 0.000000 0.000000 -0.014355 0.000000 0.050111
#
#
# Mechanical properties :
#
#
# Convention : Reuss Voigt Hill
#
# Bulk Modulus (GPa) = 14.78024 30.90108 22.84066
# Shear Modulus (GPa) = 14.04962 21.62414 17.83688
#
# Velocity S-wave (km/s) = 2.61003 3.23804 2.94085
# Velocity P-wave (km/s) = 4.03107 5.38172 4.75460
#
# Compressibility (1/GPa) = 0.06765788
#
# Stress axis : x y z
#
# Youngs Moduli (GPa) = 50.95854 77.52644 22.10627
#
# Poissons Ratio (x) = 0.57884 -0.18853
# Poissons Ratio (y) = 0.38048 0.13512
# Poissons Ratio (z) = -0.43459 0.47387
#
# Static dielectric constant tensor:
#      x y z
#    x 1.846900 0.000000 0.022710 
#    y 0.000000 1.748790 0.000000 
#    z 0.022710 0.000000 1.797170 
# 
# From -- ./inp_files/117579.got.cif
#   From: 2010.05.17/outbox.cif.g08.bks.cpg/sg15_59_cif.got.tgz:117579.got - 2010.06.03 18:47:42.
