data_PCOD9283234
_publ_section_title
;
Structure prediction by ZEFSAII (Michael W. Deem and Ramdas Pophale) SiO2 
 PCOD9283234
Probable space group: C 2/C
;
_chemical_formula_sum "Si O2"
_cell_formula_units_Z 64
_cell_length_a 29.562685
_cell_length_b 9.021859
_cell_length_c 19.433236
_cell_angle_alpha 90.000000
_cell_angle_beta 145.334381
_cell_angle_gamma 90.000000
_cell_volume 2948.044252
_symmetry_space_group_name_H-M "C 2/C"
_symmetry_group_IT_number 15
_symmetry_cell_setting 'monoclinic'
loop_
_space_group_symop_operation_xyz
x,y,z
-x,y,1/2-z
-x,-y,-z
x,-y,1/2+z
1/2+x,1/2+y,z
1/2-x,1/2+y,1/2-z
1/2-x,1/2-y,-z
1/2+x,1/2-y,1/2+z
loop_
_atom_site_type_symbol
_atom_site_label
_atom_site_fract_x
_atom_site_fract_y
_atom_site_fract_z
Si Si1 0.968204 0.552181 0.035822
Si Si2 0.201874 0.693105 0.642729
Si Si3 0.561269 0.431737 0.632335
Si Si4 0.119246 0.900563 0.432316
Si Si5 0.047648 0.819211 0.209180
Si Si6 0.263905 0.376349 0.689175
Si Si7 0.519236 0.206794 0.694660
Si Si8 0.325531 0.266829 0.546802
O O1 0.025872 0.679272 0.136841
O O2 0.973398 0.428673 0.102762
O O3 0.880037 0.622641 0.928196
O O4 0.000000 0.500000 0.000000
O O5 0.179544 0.812400 0.556210
O O6 0.249962 0.550493 0.678947
O O7 0.250278 0.784853 0.759417
O O8 0.500000 0.500000 0.500000
O O9 0.592204 0.566492 0.716818
O O10 0.641430 0.354429 0.706369
O O11 0.516382 0.326765 0.630363
O O12 0.099108 0.798329 0.341391
O O13 0.035375 0.896606 0.369292
O O14 0.146295 0.064313 0.439161
O O15 0.201930 0.313528 0.556670
O O16 0.500000 0.251570 0.750000
O O17 0.611065 0.180151 0.826413
O O18 0.250000 0.250000 0.500000
#
# Coordination Sequence:
#
# PCOD9283234 Si02
#       8
#     8   8   8   8   8   8   8   8
#     4  11  25  44  70 105 144 187 236 303 356 424
#     4  11  26  46  69 102 142 189 237 295 362 436
#     4  12  24  45  70 103 139 184 240 296 353 431
#     4  10  21  43  68  99 137 183 232 290 347 424
#     4  10  21  39  69  98 135 177 237 282 345 412
#     4  12  26  46  68 102 143 188 233 293 369 430
#     4  12  25  43  73 109 141 189 241 292 363 428
#     4  12  24  44  69 102 145 181 230 295 361 427
#
# _framework density 21.709309000000001
#
# number of rings (size 3 to 8) (size 9 to 14) (size 15 to 20)
#    0.000    0.750    2.500    5.250    5.250    3.000 
#    2.250    1.250    0.000    0.000    0.000    0.000 
#    0.000    0.000    0.000    0.000    0.000    0.000 
#
# Total GULP energy -178426.037412 kJ/mol
# GULP energy per Si atom -5575.813669 kJ/mol
# Density = 2.165990 g / cm^3
# Si number density = 21.709309 Si / 1000 Ang^3
#
#
#
# Elastic Constant Matrix: (Units=GPa)
#
#
# Indices 1 2 3 4 5 6 
#
# 1 81.2193 30.7493 23.4344 0.0000 -17.8819 0.0000
# 2 30.7493 108.0183 31.2876 0.0000 -23.5994 0.0000
# 3 23.4344 31.2876 108.8931 0.0000 -32.4544 0.0000
# 4 0.0000 0.0000 0.0000 27.0785 0.0000 -6.3876
# 5 -17.8819 -23.5994 -32.4544 0.0000 28.9286 0.0000
# 6 0.0000 0.0000 0.0000 -6.3876 0.0000 28.6488
#
#
#
# Elastic Compliance Matrix: (Units=1/GPa)
#
#
# Indices 1 2 3 4 5 6 
#
# 1 0.014895 -0.002684 -0.000515 0.000000 0.006440 0.000000
# 2 -0.002684 0.011790 -0.000658 0.000000 0.007221 0.000000
# 3 -0.000515 -0.000658 0.013864 0.000000 0.014699 0.000000
# 4 0.000000 0.000000 0.000000 0.038980 0.000000 0.008691
# 5 0.006440 0.007221 0.014699 0.000000 0.060930 0.000000
# 6 0.000000 0.000000 0.000000 0.008691 0.000000 0.036843
#
#
# Mechanical properties :
#
#
# Convention : Reuss Voigt Hill
#
# Bulk Modulus (GPa) = 30.45500 52.11925 41.28713
# Shear Modulus (GPa) = 25.51539 31.10846 28.31193
#
# Velocity S-wave (km/s) = 3.43201 3.78955 3.61520
# Velocity P-wave (km/s) = 5.45564 6.57324 6.04034
#
# Compressibility (1/GPa) = 0.03283533
#
# Stress axis : x y z
#
# Youngs Moduli (GPa) = 67.13686 84.81863 72.12944
#
# Poissons Ratio (x) = 0.22765 0.03714
# Poissons Ratio (y) = 0.18019 0.04745
# Poissons Ratio (z) = 0.03457 0.05579
#
# Static dielectric constant tensor:
#      x y z
#    x 1.828740 0.000000 -0.186970 
#    y 0.000000 1.822840 0.000000 
#    z -0.186970 0.000000 1.452260 
# 
# From -- ./inp_files/224634.got.cif
#   From: 2010.05.17/outbox.cif.g08.bks.cpg/sg15_113_cif.got.tgz:224634.got - 2010.06.03 18:47:42.
