data_PCOD9283737
_publ_section_title
;
Structure prediction by ZEFSAII (Michael W. Deem and Ramdas Pophale) SiO2 
 PCOD9283737
Probable space group: C 2/C
;
_chemical_formula_sum "Si O2"
_cell_formula_units_Z 28
_cell_length_a 5.915755
_cell_length_b 18.458400
_cell_length_c 11.985696
_cell_angle_alpha 90.000000
_cell_angle_beta 115.418106
_cell_angle_gamma 90.000000
_cell_volume 1182.091993
_symmetry_space_group_name_H-M "C 2/C"
_symmetry_group_IT_number 15
_symmetry_cell_setting 'monoclinic'
loop_
_space_group_symop_operation_xyz
x,y,z
-x,y,1/2-z
-x,-y,-z
x,-y,1/2+z
1/2+x,1/2+y,z
1/2-x,1/2+y,1/2-z
1/2-x,1/2-y,-z
1/2+x,1/2-y,1/2+z
loop_
_atom_site_type_symbol
_atom_site_label
_atom_site_fract_x
_atom_site_fract_y
_atom_site_fract_z
Si Si1 0.480251 0.100105 0.616125
Si Si2 0.500000 0.123060 0.250000
Si Si3 0.238669 0.035230 0.376374
Si Si4 0.750508 0.240556 0.633725
O O1 0.500000 0.083151 0.750000
O O2 0.238492 0.072445 0.497357
O O3 0.529188 0.185158 0.612774
O O4 0.692667 0.049402 0.605001
O O5 0.451908 0.075531 0.347937
O O6 0.733915 0.178357 0.314217
O O7 0.000000 0.043664 0.250000
O O8 0.750000 0.250000 0.500000
O O9 0.000000 0.208287 0.750000
#
# Coordination Sequence:
#
# PCOD9283737 Si02
#       4
#     8   4   8   8
#     4  11  23  42  66 101 130 170 229 266 324 400
#     4  10  22  44  66  92 136 170 220 266 334 386
#     4  11  24  43  67  96 135 176 215 277 329 383
#     4  10  21  40  64  89 132 173 207 268 330 379
#
# _framework density 23.686820999999998
#
# number of rings (size 3 to 8) (size 9 to 14) (size 15 to 20)
#    0.857    0.571    4.286    0.857    0.000    4.571 
#    0.000    4.286    0.000    0.000    0.000    0.000 
#    0.000    0.000    0.000    0.000    0.000    0.000 
#
# Total GULP energy -78051.258859 kJ/mol
# GULP energy per Si atom -5575.089919 kJ/mol
# Density = 2.363291 g / cm^3
# Si number density = 23.686821 Si / 1000 Ang^3
#
#
#
# Elastic Constant Matrix: (Units=GPa)
#
#
# Indices 1 2 3 4 5 6 
#
# 1 13.3902 18.2597 29.5843 0.0000 9.9258 0.0000
# 2 18.2597 92.8632 32.8890 0.0000 -0.2614 0.0000
# 3 29.5843 32.8890 240.8734 0.0000 5.6004 0.0000
# 4 0.0000 0.0000 0.0000 27.6853 0.0000 13.7410
# 5 9.9258 -0.2614 5.6004 0.0000 35.5520 0.0000
# 6 0.0000 0.0000 0.0000 13.7410 0.0000 15.2978
#
#
#
# Elastic Compliance Matrix: (Units=1/GPa)
#
#
# Indices 1 2 3 4 5 6 
#
# 1 0.201152 -0.032988 -0.018960 0.000000 -0.053416 0.000000
# 2 -0.032988 0.016729 0.001556 0.000000 0.009088 0.000000
# 3 -0.018960 0.001556 0.006167 0.000000 0.004333 0.000000
# 4 0.000000 0.000000 0.000000 0.065178 0.000000 -0.058545
# 5 -0.053416 0.009088 0.004333 0.000000 0.042425 0.000000
# 6 0.000000 0.000000 0.000000 -0.058545 0.000000 0.117956
#
#
# Mechanical properties :
#
#
# Convention : Reuss Voigt Hill
#
# Bulk Modulus (GPa) = 8.11258 56.51030 32.31144
# Shear Modulus (GPa) = 8.45338 33.46660 20.95999
#
# Velocity S-wave (km/s) = 1.89118 3.76291 2.97792
# Velocity P-wave (km/s) = 2.86376 6.54128 5.04923
#
# Compressibility (1/GPa) = 0.12326530
#
# Stress axis : x y z
#
# Youngs Moduli (GPa) = 4.97137 59.77494 162.15413
#
# Poissons Ratio (x) = 1.97185 3.07437
# Poissons Ratio (y) = 0.16400 -0.25233
# Poissons Ratio (z) = 0.09425 -0.09301
#
# Static dielectric constant tensor:
#      x y z
#    x 1.965750 0.000000 0.074850 
#    y 0.000000 1.878440 0.000000 
#    z 0.074850 0.000000 1.943210 
# 
# From -- ./inp_files/21691.got.cif
#   From: 2010.05.17/outbox.cif.g08.bks.cpg/sg15_11_cif.got.tgz:21691.got - 2010.06.03 18:47:42.
