data_PCOD9283811
_publ_section_title
;
Structure prediction by ZEFSAII (Michael W. Deem and Ramdas Pophale) SiO2 
 PCOD9283811
Probable space group: C 2/C
;
_chemical_formula_sum "Si O2"
_cell_formula_units_Z 56
_cell_length_a 17.071596
_cell_length_b 9.462696
_cell_length_c 25.617117
_cell_angle_alpha 90.000000
_cell_angle_beta 138.465178
_cell_angle_gamma 90.000000
_cell_volume 2743.986628
_symmetry_space_group_name_H-M "C 2/C"
_symmetry_group_IT_number 15
_symmetry_cell_setting 'monoclinic'
loop_
_space_group_symop_operation_xyz
x,y,z
-x,y,1/2-z
-x,-y,-z
x,-y,1/2+z
1/2+x,1/2+y,z
1/2-x,1/2+y,1/2-z
1/2-x,1/2-y,-z
1/2+x,1/2-y,1/2+z
loop_
_atom_site_type_symbol
_atom_site_label
_atom_site_fract_x
_atom_site_fract_y
_atom_site_fract_z
Si Si1 0.411763 0.875395 0.547747
Si Si2 0.675836 0.418774 0.488328
Si Si3 0.564468 0.547555 0.333930
Si Si4 0.110107 0.211615 0.178000
Si Si5 0.317402 0.091407 0.416111
Si Si6 0.443608 0.367219 0.501684
Si Si7 0.832863 0.474156 0.806717
O O1 0.378466 0.719059 0.511149
O O2 0.312117 0.900516 0.542033
O O3 0.542826 0.892322 0.634683
O O4 0.389492 0.992536 0.492136
O O5 0.604009 0.435955 0.397929
O O6 0.654280 0.559091 0.510266
O O7 0.500000 0.490523 0.250000
O O8 0.475478 0.653691 0.318977
O O9 0.688285 0.614529 0.376717
O O10 0.150704 0.370792 0.208379
O O11 0.223612 0.111641 0.229501
O O12 0.037196 0.201441 0.088053
O O13 0.383616 0.239917 0.440539
O O14 0.306064 0.014487 0.355257
O O15 0.500000 0.500000 0.500000
#
# Coordination Sequence:
#
# PCOD9283811 Si02
#       7
#     8   8   8   8   8   8   8
#     4  10  21  40  64  95 129 165 209 266 321 386
#     4   9  22  38  66  96 126 166 216 266 319 381
#     4  10  21  42  66  92 128 171 219 259 330 393
#     4  11  27  41  64  97 129 173 213 272 326 391
#     4  11  23  40  70  92 124 176 214 263 321 393
#     4  11  24  41  66  96 131 168 224 265 322 394
#     4  12  25  41  65  93 131 166 217 266 332 382
#
# _framework density 20.408263000000002
#
# number of rings (size 3 to 8) (size 9 to 14) (size 15 to 20)
#    0.000    1.429    2.857    1.286   10.000    1.714 
#    0.000    0.000    0.000    0.000    0.000    0.000 
#    0.000    0.000    0.000    0.000    0.000    0.000 
#
# Total GULP energy -156421.473856 kJ/mol
# GULP energy per Si atom -5586.481209 kJ/mol
# Density = 2.036181 g / cm^3
# Si number density = 20.408263 Si / 1000 Ang^3
#
#
#
# Elastic Constant Matrix: (Units=GPa)
#
#
# Indices 1 2 3 4 5 6 
#
# 1 72.5665 31.1706 24.3374 0.0000 24.1280 0.0000
# 2 31.1706 88.5333 7.4851 0.0000 16.1127 0.0000
# 3 24.3374 7.4851 45.7908 0.0000 17.4330 0.0000
# 4 0.0000 0.0000 0.0000 23.4994 0.0000 2.4489
# 5 24.1280 16.1127 17.4330 0.0000 36.3082 0.0000
# 6 0.0000 0.0000 0.0000 2.4489 0.0000 28.2080
#
#
#
# Elastic Compliance Matrix: (Units=1/GPa)
#
#
# Indices 1 2 3 4 5 6 
#
# 1 0.021277 -0.005373 -0.007287 0.000000 -0.008256 0.000000
# 2 -0.005373 0.013644 0.001923 0.000000 -0.003408 0.000000
# 3 -0.007287 0.001923 0.029220 0.000000 -0.010040 0.000000
# 4 0.000000 0.000000 0.000000 0.042943 0.000000 -0.003728
# 5 -0.008256 -0.003408 -0.010040 0.000000 0.039362 0.000000
# 6 0.000000 0.000000 0.000000 -0.003728 0.000000 0.035775
#
#
# Mechanical properties :
#
#
# Convention : Reuss Voigt Hill
#
# Bulk Modulus (GPa) = 23.43738 36.98632 30.21185
# Shear Modulus (GPa) = 22.94448 27.19628 25.07038
#
# Velocity S-wave (km/s) = 3.35666 3.65446 3.50872
# Velocity P-wave (km/s) = 5.15093 5.99744 5.59023
#
# Compressibility (1/GPa) = 0.04266689
#
# Stress axis : x y z
#
# Youngs Moduli (GPa) = 46.99812 73.28996 34.22366
#
# Poissons Ratio (x) = 0.39376 0.24940
# Poissons Ratio (y) = 0.25250 -0.06580
# Poissons Ratio (z) = 0.34249 -0.14090
#
# Static dielectric constant tensor:
#      x y z
#    x 1.752400 0.000000 0.002170 
#    y 0.000000 1.715560 0.000000 
#    z 0.002170 0.000000 1.707350 
# 
# From -- ./inp_files/298586.got.cif
#   From: 2010.05.17/outbox.cif.g08.bks.cpg/sg15_150_cif.got.tgz:298586.got - 2010.06.03 18:47:42.
