data_PCOD9283906
_publ_section_title
;
Structure prediction by ZEFSAII (Michael W. Deem and Ramdas Pophale) SiO2 
 PCOD9283906
Probable space group: C 2/C
;
_chemical_formula_sum "Si O2"
_cell_formula_units_Z 52
_cell_length_a 18.421983
_cell_length_b 14.535753
_cell_length_c 11.073772
_cell_angle_alpha 90.000000
_cell_angle_beta 129.571092
_cell_angle_gamma 90.000000
_cell_volume 2285.760768
_symmetry_space_group_name_H-M "C 2/C"
_symmetry_group_IT_number 15
_symmetry_cell_setting 'monoclinic'
loop_
_space_group_symop_operation_xyz
x,y,z
-x,y,1/2-z
-x,-y,-z
x,-y,1/2+z
1/2+x,1/2+y,z
1/2-x,1/2+y,1/2-z
1/2-x,1/2-y,-z
1/2+x,1/2-y,1/2+z
loop_
_atom_site_type_symbol
_atom_site_label
_atom_site_fract_x
_atom_site_fract_y
_atom_site_fract_z
Si Si1 0.846838 0.641767 0.261744
Si Si2 0.505159 0.174967 0.617563
Si Si3 0.500000 0.060376 0.250000
Si Si4 0.520833 0.624057 0.470076
Si Si5 0.913231 0.050591 0.572817
Si Si6 0.358636 0.954597 0.392121
Si Si7 0.691335 0.343824 0.338200
O O1 0.813994 0.539535 0.269618
O O2 0.794370 0.733250 0.159210
O O3 0.905916 0.668565 0.443558
O O4 0.925139 0.621762 0.242782
O O5 0.500000 0.148711 0.750000
O O6 0.523841 0.283781 0.629415
O O7 0.583236 0.113558 0.633369
O O8 0.563877 0.015448 0.424160
O O9 0.435452 0.579791 0.458465
O O10 0.573732 0.559447 0.428200
O O11 0.601361 0.641902 0.655308
O O12 0.831012 0.102883 0.558502
O O13 0.000000 0.078810 0.750000
O O14 0.278555 0.897343 0.373372
#
# Coordination Sequence:
#
# PCOD9283906 Si02
#       7
#     8   8   4   8   8   8   8
#     4  10  24  41  68  94 129 178 222 277 332 399
#     4  10  21  40  65  92 127 175 231 269 330 395
#     4  10  22  42  72  92 128 172 228 276 328 394
#     4   9  19  38  62  94 129 176 221 268 327 402
#     4   9  18  36  64  90 132 176 222 267 326 402
#     4  11  25  42  66 100 133 174 228 280 333 395
#     4  10  23  42  61  99 135 171 220 278 342 392
#
# _framework density 22.749535999999999
#
# number of rings (size 3 to 8) (size 9 to 14) (size 15 to 20)
#    0.000    2.154    0.000    2.308   11.846    1.846 
#   11.077    1.538    0.000    0.000    0.000    0.000 
#    0.000    0.000    0.000    0.000    0.000    0.000 
#
# Total GULP energy -144872.552654 kJ/mol
# GULP energy per Si atom -5572.021256 kJ/mol
# Density = 2.269776 g / cm^3
# Si number density = 22.749536 Si / 1000 Ang^3
#
#
#
# Elastic Constant Matrix: (Units=GPa)
#
#
# Indices 1 2 3 4 5 6 
#
# 1 107.6685 95.5498 37.3770 0.0000 -22.5798 0.0000
# 2 95.5498 202.4337 56.7243 0.0000 -10.6782 0.0000
# 3 37.3770 56.7243 99.3714 0.0000 -23.2716 0.0000
# 4 0.0000 0.0000 0.0000 116.0164 0.0000 48.3231
# 5 -22.5798 -10.6782 -23.2716 0.0000 26.5939 0.0000
# 6 0.0000 0.0000 0.0000 48.3231 0.0000 38.2569
#
#
#
# Elastic Compliance Matrix: (Units=1/GPa)
#
#
# Indices 1 2 3 4 5 6 
#
# 1 0.019758 -0.008838 0.000894 0.000000 0.014010 0.000000
# 2 -0.008838 0.009844 -0.003933 0.000000 -0.006992 0.000000
# 3 0.000894 -0.003933 0.014816 0.000000 0.012145 0.000000
# 4 0.000000 0.000000 0.000000 0.018189 0.000000 -0.022975
# 5 0.014010 -0.006992 0.012145 0.000000 0.057318 0.000000
# 6 0.000000 0.000000 0.000000 -0.022975 0.000000 0.055159
#
#
# Mechanical properties :
#
#
# Convention : Reuss Voigt Hill
#
# Bulk Modulus (GPa) = 48.38889 87.64174 68.01532
# Shear Modulus (GPa) = 24.30403 50.82825 37.56614
#
# Velocity S-wave (km/s) = 3.27208 4.73192 4.06802
# Velocity P-wave (km/s) = 5.96589 8.27424 7.21300
#
# Compressibility (1/GPa) = 0.02066590
#
# Stress axis : x y z
#
# Youngs Moduli (GPa) = 50.61156 101.57989 67.49290
#
# Poissons Ratio (x) = 0.89771 -0.06033
# Poissons Ratio (y) = 0.44728 0.26545
# Poissons Ratio (z) = -0.04524 0.39951
#
# Static dielectric constant tensor:
#      x y z
#    x 1.837330 0.000000 0.025950 
#    y 0.000000 1.975440 0.000000 
#    z 0.025950 0.000000 1.937720 
# 
# From -- ./inp_files/105483.got.cif
#   From: 2010.05.17/outbox.cif.g08.bks.cpg/sg15_53_cif.got.tgz:105483.got - 2010.06.03 18:47:42.
