data_PCOD9283084
_publ_section_title
;
Structure prediction by ZEFSAII (Michael W. Deem and Ramdas Pophale) SiO2 
 PCOD9283084
Probable space group: C 2/C
;
_chemical_formula_sum "Si O2"
_cell_formula_units_Z 52
_cell_length_a 8.166391
_cell_length_b 24.225999
_cell_length_c 12.469694
_cell_angle_alpha 90.000000
_cell_angle_beta 97.750073
_cell_angle_gamma 90.000000
_cell_volume 2444.457367
_symmetry_space_group_name_H-M "C 2/C"
_symmetry_group_IT_number 15
_symmetry_cell_setting 'monoclinic'
loop_
_space_group_symop_operation_xyz
x,y,z
-x,y,1/2-z
-x,-y,-z
x,-y,1/2+z
1/2+x,1/2+y,z
1/2-x,1/2+y,1/2-z
1/2-x,1/2-y,-z
1/2+x,1/2-y,1/2+z
loop_
_atom_site_type_symbol
_atom_site_label
_atom_site_fract_x
_atom_site_fract_y
_atom_site_fract_z
Si Si1 0.066359 0.578780 0.401765
Si Si2 0.635765 0.177968 0.035782
Si Si3 0.100276 0.116589 0.149274
Si Si4 0.342618 0.413338 0.446005
Si Si5 0.972284 0.234868 0.130945
Si Si6 0.500000 0.453477 0.250000
Si Si7 0.294928 0.994666 0.416808
O O1 0.220671 0.589411 0.338494
O O2 0.140688 0.562286 0.525936
O O3 0.963687 0.635227 0.400577
O O4 0.940095 0.528517 0.371175
O O5 0.725986 0.138935 0.956120
O O6 0.522769 0.222173 0.965335
O O7 0.787091 0.208520 0.108462
O O8 0.000000 0.106450 0.250000
O O9 0.096238 0.182937 0.133656
O O10 0.997402 0.093733 0.039662
O O11 0.401902 0.419407 0.330860
O O12 0.253947 0.467823 0.484461
O O13 0.000000 0.260747 0.250000
O O14 0.636897 0.487142 0.328309
#
# Coordination Sequence:
#
# PCOD9283084 Si02
#       7
#     8   8   8   8   8   4   8
#     4  10  21  42  62  96 126 167 223 267 318 383
#     4   9  20  40  65  87 133 164 212 276 315 385
#     4  10  21  39  67  89 126 173 216 261 325 390
#     4  10  22  40  61  91 124 175 211 254 324 392
#     4   9  19  39  63  91 124 173 209 263 331 382
#     4  12  22  38  66  92 132 176 214 266 322 396
#     4  10  23  40  62  90 134 166 216 268 320 384
#
# _framework density 21.272613
#
# number of rings (size 3 to 8) (size 9 to 14) (size 15 to 20)
#    0.000    2.154    1.538    0.462    1.077    1.846 
#    4.154   27.692    6.769    0.000    0.000    0.000 
#    0.000    0.000    0.000    0.000    0.000    0.000 
#
# Total GULP energy -145271.054080 kJ/mol
# GULP energy per Si atom -5587.348234 kJ/mol
# Density = 2.122420 g / cm^3
# Si number density = 21.272613 Si / 1000 Ang^3
#
#
#
# Elastic Constant Matrix: (Units=GPa)
#
#
# Indices 1 2 3 4 5 6 
#
# 1 94.6706 22.1060 29.8394 0.0000 -18.6123 0.0000
# 2 22.1060 49.4313 26.6410 0.0000 0.1559 0.0000
# 3 29.8394 26.6410 101.1290 0.0000 -6.6341 0.0000
# 4 0.0000 0.0000 0.0000 17.2537 0.0000 6.8618
# 5 -18.6123 0.1559 -6.6341 0.0000 42.0581 0.0000
# 6 0.0000 0.0000 0.0000 6.8618 0.0000 32.7656
#
#
#
# Elastic Compliance Matrix: (Units=1/GPa)
#
#
# Indices 1 2 3 4 5 6 
#
# 1 0.013535 -0.004799 -0.002360 0.000000 0.005635 0.000000
# 2 -0.004799 0.025328 -0.005458 0.000000 -0.003079 0.000000
# 3 -0.002360 -0.005458 0.012080 0.000000 0.000881 0.000000
# 4 0.000000 0.000000 0.000000 0.063224 0.000000 -0.013240
# 5 0.005635 -0.003079 0.000881 0.000000 0.026421 0.000000
# 6 0.000000 0.000000 0.000000 -0.013240 0.000000 0.033293
#
#
# Mechanical properties :
#
#
# Convention : Reuss Voigt Hill
#
# Bulk Modulus (GPa) = 38.89648 44.71152 41.80400
# Shear Modulus (GPa) = 24.07495 29.52513 26.80004
#
# Velocity S-wave (km/s) = 3.36778 3.72955 3.55327
# Velocity P-wave (km/s) = 5.78334 6.29365 6.04388
#
# Compressibility (1/GPa) = 0.02570927
#
# Stress axis : x y z
#
# Youngs Moduli (GPa) = 73.88117 39.48256 82.77903
#
# Poissons Ratio (x) = 0.18948 0.19534
# Poissons Ratio (y) = 0.35456 0.45182
# Poissons Ratio (z) = 0.17435 0.21550
#
# Static dielectric constant tensor:
#      x y z
#    x 1.798840 0.000000 0.016290 
#    y 0.000000 1.788650 0.000000 
#    z 0.016290 0.000000 1.770820 
# 
# From -- ./inp_files/80745.got.cif
#   From: 2010.05.17/outbox.cif.g08.bks.cpg/sg15_41_cif.got.tgz:80745.got - 2010.06.03 18:47:42.
