data_PCOD9283242
_publ_section_title
;
Structure prediction by ZEFSAII (Michael W. Deem and Ramdas Pophale) SiO2 
 PCOD9283242
Probable space group: C 2/C
;
_chemical_formula_sum "Si O2"
_cell_formula_units_Z 52
_cell_length_a 25.245073
_cell_length_b 6.108383
_cell_length_c 15.526798
_cell_angle_alpha 90.000000
_cell_angle_beta 80.508579
_cell_angle_gamma 90.000000
_cell_volume 2361.556626
_symmetry_space_group_name_H-M "C 2/C"
_symmetry_group_IT_number 15
_symmetry_cell_setting 'monoclinic'
loop_
_space_group_symop_operation_xyz
x,y,z
-x,y,1/2-z
-x,-y,-z
x,-y,1/2+z
1/2+x,1/2+y,z
1/2-x,1/2+y,1/2-z
1/2-x,1/2-y,-z
1/2+x,1/2-y,1/2+z
loop_
_atom_site_type_symbol
_atom_site_label
_atom_site_fract_x
_atom_site_fract_y
_atom_site_fract_z
Si Si1 0.090061 0.850883 0.278751
Si Si2 0.964688 0.539613 0.595209
Si Si3 0.640034 0.684871 0.401182
Si Si4 0.000000 0.178044 0.250000
Si Si5 0.691504 0.226133 0.157488
Si Si6 0.272227 0.561081 0.552949
Si Si7 0.273871 0.052763 0.174382
O O1 0.059073 0.675812 0.348649
O O2 0.129409 0.730152 0.200006
O O3 0.124301 0.010480 0.331667
O O4 0.050380 0.012974 0.238835
O O5 0.914677 0.681926 0.572601
O O6 0.994382 0.675171 0.664576
O O7 0.000000 0.500000 0.500000
O O8 0.670870 0.564580 0.471865
O O9 0.683772 0.864395 0.360249
O O10 0.716150 0.468509 0.158149
O O11 0.721366 0.102798 0.072453
O O12 0.720098 0.094284 0.227286
O O13 0.250000 0.750000 0.500000
O O14 0.285863 0.714695 0.630707
#
# Coordination Sequence:
#
# PCOD9283242 Si02
#       7
#     8   8   8   4   8   8   8
#     4  11  22  45  69  99 132 177 237 294 346 431
#     4  11  24  47  74 100 140 189 239 308 372 430
#     4  10  21  39  70  91 131 179 225 276 355 421
#     4  10  26  44  72 104 140 172 250 304 358 438
#     4  11  20  35  70  92 126 181 223 268 347 412
#     4  11  24  39  59 100 145 174 224 286 338 424
#     4  11  19  38  64  95 123 172 220 264 328 419
#
# _framework density 22.019376000000001
#
# number of rings (size 3 to 8) (size 9 to 14) (size 15 to 20)
#    0.000    1.231    4.615    1.385    0.000    4.923 
#    0.000   15.385    0.000    0.000    0.000    0.000 
#    0.000    0.000    0.000    0.000    0.000    0.000 
#
# Total GULP energy -144875.252541 kJ/mol
# GULP energy per Si atom -5572.125098 kJ/mol
# Density = 2.196926 g / cm^3
# Si number density = 22.019376 Si / 1000 Ang^3
#
#
#
# Elastic Constant Matrix: (Units=GPa)
#
#
# Indices 1 2 3 4 5 6 
#
# 1 145.9020 70.0482 73.0714 0.0000 -3.9240 0.0000
# 2 70.0482 106.5276 49.9788 0.0000 -5.9406 0.0000
# 3 73.0714 49.9788 83.6112 0.0000 -12.5540 0.0000
# 4 0.0000 0.0000 0.0000 40.2632 0.0000 9.3918
# 5 -3.9240 -5.9406 -12.5540 0.0000 35.9777 0.0000
# 6 0.0000 0.0000 0.0000 9.3918 0.0000 53.4849
#
#
#
# Elastic Compliance Matrix: (Units=1/GPa)
#
#
# Indices 1 2 3 4 5 6 
#
# 1 0.013942 -0.004742 -0.009750 0.000000 -0.002665 0.000000
# 2 -0.004742 0.014671 -0.004579 0.000000 0.000307 0.000000
# 3 -0.009750 -0.004579 0.024214 0.000000 0.006630 0.000000
# 4 0.000000 0.000000 0.000000 0.025897 0.000000 -0.004548
# 5 -0.002665 0.000307 0.006630 0.000000 0.029868 0.000000
# 6 0.000000 0.000000 0.000000 -0.004548 0.000000 0.019495
#
#
# Mechanical properties :
#
#
# Convention : Reuss Voigt Hill
#
# Bulk Modulus (GPa) = 68.10038 80.24861 74.17449
# Shear Modulus (GPa) = 29.21843 35.47467 32.34655
#
# Velocity S-wave (km/s) = 3.64667 4.01816 3.83692
# Velocity P-wave (km/s) = 6.98037 7.61913 7.30674
#
# Compressibility (1/GPa) = 0.01468421
#
# Stress axis : x y z
#
# Youngs Moduli (GPa) = 71.72615 68.16240 41.29874
#
# Poissons Ratio (x) = 0.32322 0.40267
# Poissons Ratio (y) = 0.34012 0.18912
# Poissons Ratio (z) = 0.69933 0.31213
#
# Static dielectric constant tensor:
#      x y z
#    x 1.755610 0.000000 -0.143960 
#    y 0.000000 1.840240 0.000000 
#    z -0.143960 0.000000 1.701850 
# 
# From -- ./inp_files/220923.got.cif
#   From: 2010.05.17/outbox.cif.g08.bks.cpg/sg15_111_cif.got.tgz:220923.got - 2010.06.03 18:47:42.
