data_PCOD9283348
_publ_section_title
;
Structure prediction by ZEFSAII (Michael W. Deem and Ramdas Pophale) SiO2 
 PCOD9283348
Probable space group: C 2/C
;
_chemical_formula_sum "Si O2"
_cell_formula_units_Z 60
_cell_length_a 29.241479
_cell_length_b 18.258779
_cell_length_c 12.100618
_cell_angle_alpha 90.000000
_cell_angle_beta 153.756488
_cell_angle_gamma 90.000000
_cell_volume 2856.832083
_symmetry_space_group_name_H-M "C 2/C"
_symmetry_group_IT_number 15
_symmetry_cell_setting 'monoclinic'
loop_
_space_group_symop_operation_xyz
x,y,z
-x,y,1/2-z
-x,-y,-z
x,-y,1/2+z
1/2+x,1/2+y,z
1/2-x,1/2+y,1/2-z
1/2-x,1/2-y,-z
1/2+x,1/2-y,1/2+z
loop_
_atom_site_type_symbol
_atom_site_label
_atom_site_fract_x
_atom_site_fract_y
_atom_site_fract_z
Si Si1 0.591200 0.249111 0.030759
Si Si2 0.948869 0.612285 0.426952
Si Si3 0.000000 0.514594 0.750000
Si Si4 0.121450 0.272926 0.023553
Si Si5 0.242875 0.642163 0.219948
Si Si6 0.660991 0.118011 0.795818
Si Si7 0.249967 0.870633 0.370330
Si Si8 0.270180 0.019873 0.739806
O O1 0.500000 0.272116 0.750000
O O2 0.546911 0.198618 0.032705
O O3 0.665000 0.193460 0.121414
O O4 0.659803 0.317687 0.218804
O O5 0.975284 0.566744 0.592979
O O6 0.040172 0.594010 0.539369
O O7 0.832213 0.598061 0.135372
O O8 0.892516 0.473632 0.537892
O O9 0.000000 0.282759 0.750000
O O10 0.155278 0.189600 0.080100
O O11 0.161514 0.307576 0.225462
O O12 0.179719 0.318758 0.055325
O O13 0.257728 0.564907 0.312508
O O14 0.194837 0.626935 0.995090
O O15 0.730456 0.059896 0.879544
O O16 0.210230 0.933800 0.202574
#
# Coordination Sequence:
#
# PCOD9283348 Si02
#       8
#     8   8   4   8   8   8   8   8
#     4  11  20  40  58  86 115 155 201 236 292 345
#     4  12  19  37  58  89 119 152 189 236 306 347
#     4  12  22  34  58  86 124 154 180 238 294 370
#     4  10  21  40  60  87 111 151 204 245 287 339
#     4  11  22  39  61  82 120 158 193 242 288 350
#     4  11  21  36  60  87 119 153 193 237 292 354
#     4  10  24  35  59  84 121 151 192 250 286 350
#     4  11  23  37  52  91 116 153 194 229 296 351
#
# _framework density 21.002284
#
# number of rings (size 3 to 8) (size 9 to 14) (size 15 to 20)
#    0.000    1.067    6.000    1.600    3.733    1.067 
#    0.000    0.667    0.000    0.800    0.000    0.000 
#    0.000    0.000    0.000    0.000    0.000    0.000 
#
# Total GULP energy -167704.625376 kJ/mol
# GULP energy per Si atom -5590.154179 kJ/mol
# Density = 2.095448 g / cm^3
# Si number density = 21.002284 Si / 1000 Ang^3
#
#
#
# Elastic Constant Matrix: (Units=GPa)
#
#
# Indices 1 2 3 4 5 6 
#
# 1 65.0216 29.3329 1.3245 0.0000 -12.2025 0.0000
# 2 29.3329 101.2502 5.4593 0.0000 3.8297 0.0000
# 3 1.3245 5.4593 22.9875 0.0000 -3.0234 0.0000
# 4 0.0000 0.0000 0.0000 28.6554 0.0000 9.9562
# 5 -12.2025 3.8297 -3.0234 0.0000 23.5162 0.0000
# 6 0.0000 0.0000 0.0000 9.9562 0.0000 23.1684
#
#
#
# Elastic Compliance Matrix: (Units=1/GPa)
#
#
# Indices 1 2 3 4 5 6 
#
# 1 0.020515 -0.006500 0.001934 0.000000 0.011953 0.000000
# 2 -0.006500 0.012154 -0.003271 0.000000 -0.005773 0.000000
# 3 0.001934 -0.003271 0.045133 0.000000 0.007339 0.000000
# 4 0.000000 0.000000 0.000000 0.041022 0.000000 -0.017629
# 5 0.011953 -0.005773 0.007339 0.000000 0.050610 0.000000
# 6 0.000000 0.000000 0.000000 -0.017629 0.000000 0.050738
#
#
# Mechanical properties :
#
#
# Convention : Reuss Voigt Hill
#
# Bulk Modulus (GPa) = 16.09593 29.05476 22.57535
# Shear Modulus (GPa) = 19.48888 25.27751 22.38320
#
# Velocity S-wave (km/s) = 3.04952 3.47300 3.26813
# Velocity P-wave (km/s) = 4.48106 5.47233 5.00132
#
# Compressibility (1/GPa) = 0.06212751
#
# Stress axis : x y z
#
# Youngs Moduli (GPa) = 48.74367 82.27536 22.15692
#
# Poissons Ratio (x) = 0.53478 -0.04284
# Poissons Ratio (y) = 0.31683 0.07248
# Poissons Ratio (z) = -0.09426 0.26915
#
# Static dielectric constant tensor:
#      x y z
#    x 1.798870 0.000000 -0.017200 
#    y 0.000000 1.791360 0.000000 
#    z -0.017200 0.000000 1.755730 
# 
# From -- ./inp_files/124024.got.cif
#   From: 2010.05.17/outbox.cif.g08.bks.cpg/sg15_63_cif.got.tgz:124024.got - 2010.06.03 18:47:42.
