data_PCOD9283313
_publ_section_title
;
Structure prediction by ZEFSAII (Michael W. Deem and Ramdas Pophale) SiO2 
 PCOD9283313
Probable space group: C 2/C
;
_chemical_formula_sum "Si O2"
_cell_formula_units_Z 48
_cell_length_a 11.821214
_cell_length_b 26.978977
_cell_length_c 8.926359
_cell_angle_alpha 90.000000
_cell_angle_beta 118.137705
_cell_angle_gamma 90.000000
_cell_volume 2510.384429
_symmetry_space_group_name_H-M "C 2/C"
_symmetry_group_IT_number 15
_symmetry_cell_setting 'monoclinic'
loop_
_space_group_symop_operation_xyz
x,y,z
-x,y,1/2-z
-x,-y,-z
x,-y,1/2+z
1/2+x,1/2+y,z
1/2-x,1/2+y,1/2-z
1/2-x,1/2-y,-z
1/2+x,1/2-y,1/2+z
loop_
_atom_site_type_symbol
_atom_site_label
_atom_site_fract_x
_atom_site_fract_y
_atom_site_fract_z
Si Si1 0.208760 0.801342 0.098034
Si Si2 0.621937 0.561799 0.125206
Si Si3 0.301377 0.800352 0.457080
Si Si4 0.915212 0.302624 0.997047
Si Si5 0.000000 0.978847 0.250000
Si Si6 0.132352 0.384890 0.764493
Si Si7 0.500000 0.647365 0.250000
O O1 0.212006 0.821840 0.268185
O O2 0.352997 0.808338 0.123014
O O3 0.174048 0.743864 0.106419
O O4 0.105000 0.821493 0.912299
O O5 0.594428 0.516258 0.219694
O O6 0.770525 0.571123 0.195776
O O7 0.567617 0.611195 0.171982
O O8 0.561043 0.552111 0.923970
O O9 0.250000 0.750000 0.500000
O O10 0.441672 0.789437 0.470453
O O11 0.316519 0.842470 0.590739
O O12 0.888293 0.354529 0.900455
O O13 0.000000 0.402609 0.750000
#
# Coordination Sequence:
#
# PCOD9283313 Si02
#       7
#     8   8   8   8   4   8   4
#     4  11  23  36  55  82 120 167 215 249 285 339
#     4  10  21  43  64  93 117 147 198 248 322 369
#     4  11  23  37  55  83 121 172 211 250 286 343
#     4  10  22  38  54  79 123 166 210 249 289 327
#     4   9  22  42  72  90 116 144 182 266 322 383
#     4  10  21  40  59  86 124 160 199 249 291 356
#     4  11  24  36  62  90 120 162 206 254 290 365
#
# _framework density 19.120577000000001
#
# number of rings (size 3 to 8) (size 9 to 14) (size 15 to 20)
#    0.000    1.667    3.333    0.500    9.333    0.000 
#    0.000    0.833    0.000    0.000    0.000    0.000 
#    0.000    0.000    0.000    0.000    0.000    0.000 
#
# Total GULP energy -133664.129719 kJ/mol
# GULP energy per Si atom -5569.338738 kJ/mol
# Density = 1.907706 g / cm^3
# Si number density = 19.120577 Si / 1000 Ang^3
#
#
#
# Elastic Constant Matrix: (Units=GPa)
#
#
# Indices 1 2 3 4 5 6 
#
# 1 108.1843 45.7264 45.3796 0.0000 1.4382 0.0000
# 2 45.7264 42.9639 20.3474 0.0000 4.9593 0.0000
# 3 45.3796 20.3474 89.3626 0.0000 -15.4308 0.0000
# 4 0.0000 0.0000 0.0000 15.0192 0.0000 10.5639
# 5 1.4382 4.9593 -15.4308 0.0000 22.1847 0.0000
# 6 0.0000 0.0000 0.0000 10.5639 0.0000 8.7568
#
#
#
# Elastic Compliance Matrix: (Units=1/GPa)
#
#
# Indices 1 2 3 4 5 6 
#
# 1 0.019106 -0.017295 -0.006036 0.000000 -0.001571 0.000000
# 2 -0.017295 0.044513 -0.003270 0.000000 -0.011104 0.000000
# 3 -0.006036 -0.003270 0.017268 0.000000 0.013133 0.000000
# 4 0.000000 0.000000 0.000000 0.439505 0.000000 -0.530203
# 5 -0.001571 -0.011104 0.013133 0.000000 0.056795 0.000000
# 6 0.000000 0.000000 0.000000 -0.530203 0.000000 0.753816
#
#
# Mechanical properties :
#
#
# Convention : Reuss Voigt Hill
#
# Bulk Modulus (GPa) = 36.12026 51.49083 43.80554
# Shear Modulus (GPa) = 3.58826 17.79595 10.69210
#
# Velocity S-wave (km/s) = 1.37139 3.05408 2.36729
# Velocity P-wave (km/s) = 4.63027 6.27890 5.51652
#
# Compressibility (1/GPa) = 0.02768530
#
# Stress axis : x y z
#
# Youngs Moduli (GPa) = 52.33902 22.46542 57.91159
#
# Poissons Ratio (x) = 0.38854 0.34953
# Poissons Ratio (y) = 0.90520 0.18938
# Poissons Ratio (z) = 0.31590 0.07346
#
# Static dielectric constant tensor:
#      x y z
#    x 1.700120 0.000000 0.004610 
#    y 0.000000 1.634780 0.000000 
#    z 0.004610 0.000000 1.765440 
# 
# From -- ./inp_files/32700.got.cif
#   From: 2010.05.17/outbox.cif.g08.bks.cpg/sg15_17_cif.got.tgz:32700.got - 2010.06.03 18:47:42.
