data_PCOD9283486
_publ_section_title
;
Structure prediction by ZEFSAII (Michael W. Deem and Ramdas Pophale) SiO2 
 PCOD9283486
Probable space group: C 2/C
;
_chemical_formula_sum "Si O2"
_cell_formula_units_Z 40
_cell_length_a 7.317488
_cell_length_b 8.390384
_cell_length_c 25.182228
_cell_angle_alpha 90.000000
_cell_angle_beta 102.787783
_cell_angle_gamma 90.000000
_cell_volume 1507.752906
_symmetry_space_group_name_H-M "C 2/C"
_symmetry_group_IT_number 15
_symmetry_cell_setting 'monoclinic'
loop_
_space_group_symop_operation_xyz
x,y,z
-x,y,1/2-z
-x,-y,-z
x,-y,1/2+z
1/2+x,1/2+y,z
1/2-x,1/2+y,1/2-z
1/2-x,1/2-y,-z
1/2+x,1/2-y,1/2+z
loop_
_atom_site_type_symbol
_atom_site_label
_atom_site_fract_x
_atom_site_fract_y
_atom_site_fract_z
Si Si1 0.617931 0.321742 0.068194
Si Si2 0.359319 0.001380 0.864293
Si Si3 0.986888 0.336331 0.466793
Si Si4 0.263019 0.498866 0.832700
Si Si5 0.290084 0.302210 0.231904
O O1 0.813741 0.330107 0.049782
O O2 0.596402 0.461380 0.109756
O O3 0.644902 0.165068 0.105889
O O4 0.468429 0.298357 0.010970
O O5 0.344593 0.137313 0.909366
O O6 0.561070 0.995262 0.848120
O O7 0.216483 0.048512 0.808947
O O8 0.000000 0.500000 0.500000
O O9 0.240380 0.635299 0.786562
O O10 0.317896 0.339506 0.804506
O O11 0.500000 0.238609 0.250000
#
# Coordination Sequence:
#
# PCOD9283486 Si02
#       5
#     8   8   8   8   8
#     4   9  17  35  63  90 118 156 199 245 299 359
#     4  10  21  40  62  87 119 157 199 247 300 357
#     4   8  16  32  61  93 121 156 196 242 301 359
#     4  11  23  40  60  84 119 156 199 249 302 360
#     4  12  25  39  57  85 118 155 200 249 300 355
#
# _framework density 26.529547000000001
#
# number of rings (size 3 to 8) (size 9 to 14) (size 15 to 20)
#    0.000    2.000    0.000    4.200    0.000    4.800 
#    0.000    2.000    0.000   49.200    0.000    0.000 
#    0.000    0.000    0.000    0.000    0.000    0.000 
#
# Total GULP energy -111917.244541 kJ/mol
# GULP energy per Si atom -5595.862227 kJ/mol
# Density = 2.646916 g / cm^3
# Si number density = 26.529547 Si / 1000 Ang^3
#
#
#
# Elastic Constant Matrix: (Units=GPa)
#
#
# Indices 1 2 3 4 5 6 
#
# 1 51.7022 14.0682 37.1015 0.0000 -9.6534 0.0000
# 2 14.0682 85.3016 52.4893 0.0000 -32.6424 0.0000
# 3 37.1015 52.4893 210.3299 0.0000 -25.9136 0.0000
# 4 0.0000 0.0000 0.0000 65.4589 0.0000 -2.1253
# 5 -9.6534 -32.6424 -25.9136 0.0000 38.1729 0.0000
# 6 0.0000 0.0000 0.0000 -2.1253 0.0000 21.1722
#
#
#
# Elastic Compliance Matrix: (Units=1/GPa)
#
#
# Indices 1 2 3 4 5 6 
#
# 1 0.022523 -0.000431 -0.003502 0.000000 0.002950 0.000000
# 2 -0.000431 0.019014 -0.002924 0.000000 0.014165 0.000000
# 3 -0.003502 -0.002924 0.006204 0.000000 0.000825 0.000000
# 4 0.000000 0.000000 0.000000 0.015327 0.000000 0.001538
# 5 0.002950 0.014165 0.000825 0.000000 0.039616 0.000000
# 6 0.000000 0.000000 0.000000 0.001538 0.000000 0.047386
#
#
# Mechanical properties :
#
#
# Convention : Reuss Voigt Hill
#
# Bulk Modulus (GPa) = 29.38834 61.62795 45.50815
# Shear Modulus (GPa) = 28.55113 41.20580 34.87846
#
# Velocity S-wave (km/s) = 3.28411 3.94535 3.62982
# Velocity P-wave (km/s) = 5.04798 6.63587 5.89563
#
# Compressibility (1/GPa) = 0.03402709
#
# Stress axis : x y z
#
# Youngs Moduli (GPa) = 44.39995 52.59282 161.19855
#
# Poissons Ratio (x) = 0.02265 0.56451
# Poissons Ratio (y) = 0.01912 0.47132
# Poissons Ratio (z) = 0.15549 0.15377
#
# Static dielectric constant tensor:
#      x y z
#    x 2.079470 0.000000 0.050620 
#    y 0.000000 2.134230 0.000000 
#    z 0.050620 0.000000 2.058710 
# 
# From -- ./inp_files/262513.got.cif
#   From: 2010.05.17/outbox.cif.g08.bks.cpg/sg15_132_cif.got.tgz:262513.got - 2010.06.03 18:47:42.
