data_PCOD9283827
_publ_section_title
;
Structure prediction by ZEFSAII (Michael W. Deem and Ramdas Pophale) SiO2 
 PCOD9283827
Probable space group: C 2/C
;
_chemical_formula_sum "Si O2"
_cell_formula_units_Z 48
_cell_length_a 20.792493
_cell_length_b 13.703155
_cell_length_c 9.849454
_cell_angle_alpha 90.000000
_cell_angle_beta 139.741305
_cell_angle_gamma 90.000000
_cell_volume 1813.564434
_symmetry_space_group_name_H-M "C 2/C"
_symmetry_group_IT_number 15
_symmetry_cell_setting 'monoclinic'
loop_
_space_group_symop_operation_xyz
x,y,z
-x,y,1/2-z
-x,-y,-z
x,-y,1/2+z
1/2+x,1/2+y,z
1/2-x,1/2+y,1/2-z
1/2-x,1/2-y,-z
1/2+x,1/2-y,1/2+z
loop_
_atom_site_type_symbol
_atom_site_label
_atom_site_fract_x
_atom_site_fract_y
_atom_site_fract_z
Si Si1 0.617440 0.496975 0.424132
Si Si2 0.744177 0.522720 0.883444
Si Si3 0.064533 0.582668 0.730844
Si Si4 0.634806 0.722331 0.488970
Si Si5 0.965259 0.275683 0.905753
Si Si6 0.338163 0.218548 0.944022
O O1 0.500000 0.477808 0.250000
O O2 0.677818 0.472682 0.659009
O O3 0.666060 0.444946 0.372867
O O4 0.633545 0.614118 0.426224
O O5 0.830215 0.468905 0.107292
O O6 0.804965 0.605108 0.899167
O O7 0.000000 0.539554 0.750000
O O8 0.988067 0.610988 0.487842
O O9 0.098206 0.691767 0.833583
O O10 0.566110 0.716524 0.512218
O O11 0.739758 0.759924 0.716844
O O12 0.874846 0.266046 0.655879
O O13 0.067101 0.252107 0.992837
#
# Coordination Sequence:
#
# PCOD9283827 Si02
#       6
#     8   8   8   8   8   8
#     4  11  24  45  68  93 136 177 230 276 336 399
#     4  11  25  41  68 102 133 184 217 286 336 401
#     4  10  22  37  65  98 129 174 225 271 337 395
#     4  10  22  42  67  92 133 177 224 280 321 401
#     4  10  21  40  64  97 129 179 216 273 333 390
#     4  10  23  40  65  96 139 168 222 274 342 394
#
# _framework density 26.467214999999999
#
# number of rings (size 3 to 8) (size 9 to 14) (size 15 to 20)
#    0.000    1.667    0.000    4.500    7.000    4.667 
#    0.000    0.000    0.000    0.000    0.000    0.000 
#    0.000    0.000    0.000    0.000    0.000    0.000 
#
# Total GULP energy -134214.189424 kJ/mol
# GULP energy per Si atom -5592.257893 kJ/mol
# Density = 2.640697 g / cm^3
# Si number density = 26.467215 Si / 1000 Ang^3
#
#
#
# Elastic Constant Matrix: (Units=GPa)
#
#
# Indices 1 2 3 4 5 6 
#
# 1 39.2959 12.6142 1.4190 0.0000 13.0394 0.0000
# 2 12.6142 63.1033 20.1951 0.0000 18.6604 0.0000
# 3 1.4190 20.1951 143.0748 0.0000 24.8233 0.0000
# 4 0.0000 0.0000 0.0000 17.4619 0.0000 -10.4320
# 5 13.0394 18.6604 24.8233 0.0000 48.7180 0.0000
# 6 0.0000 0.0000 0.0000 -10.4320 0.0000 10.3029
#
#
#
# Elastic Compliance Matrix: (Units=1/GPa)
#
#
# Indices 1 2 3 4 5 6 
#
# 1 0.029052 -0.004245 0.001512 0.000000 -0.006920 0.000000
# 2 -0.004245 0.018776 -0.001709 0.000000 -0.005185 0.000000
# 3 0.001512 -0.001709 0.007868 0.000000 -0.003759 0.000000
# 4 0.000000 0.000000 0.000000 0.144945 0.000000 0.146762
# 5 -0.006920 -0.005185 -0.003759 0.000000 0.026280 0.000000
# 6 0.000000 0.000000 0.000000 0.146762 0.000000 0.245661
#
#
# Mechanical properties :
#
#
# Convention : Reuss Voigt Hill
#
# Bulk Modulus (GPa) = 21.36200 34.88118 28.12159
# Shear Modulus (GPa) = 10.05897 29.37960 19.71928
#
# Velocity S-wave (km/s) = 1.95161 3.33534 2.73251
# Velocity P-wave (km/s) = 3.62864 5.29530 4.53912
#
# Compressibility (1/GPa) = 0.04681209
#
# Stress axis : x y z
#
# Youngs Moduli (GPa) = 34.42073 53.26063 127.10182
#
# Poissons Ratio (x) = 0.22609 -0.19214
# Poissons Ratio (y) = 0.14611 0.21716
# Poissons Ratio (z) = -0.05203 0.09100
#
# Static dielectric constant tensor:
#      x y z
#    x 2.038610 0.000000 -0.071090 
#    y 0.000000 2.136750 0.000000 
#    z -0.071090 0.000000 2.016150 
# 
# From -- ./inp_files/112993.got.cif
#   From: 2010.05.17/outbox.cif.g08.bks.cpg/sg15_57_cif.got.tgz:112993.got - 2010.06.03 18:47:42.
