data_PCOD9283647
_publ_section_title
;
Structure prediction by ZEFSAII (Michael W. Deem and Ramdas Pophale) SiO2 
 PCOD9283647
Probable space group: C 2/C
;
_chemical_formula_sum "Si O2"
_cell_formula_units_Z 56
_cell_length_a 17.002368
_cell_length_b 13.027886
_cell_length_c 17.408095
_cell_angle_alpha 90.000000
_cell_angle_beta 41.741243
_cell_angle_gamma 90.000000
_cell_volume 2567.185709
_symmetry_space_group_name_H-M "C 2/C"
_symmetry_group_IT_number 15
_symmetry_cell_setting 'monoclinic'
loop_
_space_group_symop_operation_xyz
x,y,z
-x,y,1/2-z
-x,-y,-z
x,-y,1/2+z
1/2+x,1/2+y,z
1/2-x,1/2+y,1/2-z
1/2-x,1/2-y,-z
1/2+x,1/2-y,1/2+z
loop_
_atom_site_type_symbol
_atom_site_label
_atom_site_fract_x
_atom_site_fract_y
_atom_site_fract_z
Si Si1 0.891738 0.745830 0.585212
Si Si2 0.609040 0.579677 0.715236
Si Si3 0.912510 0.910523 0.094728
Si Si4 0.848399 0.606615 0.484258
Si Si5 0.500000 0.194917 0.750000
Si Si6 0.567515 0.896403 0.043377
Si Si7 0.230492 0.755180 0.674996
Si Si8 0.000000 0.716451 0.250000
O O1 0.831321 0.700386 0.554876
O O2 0.804877 0.790220 0.712871
O O3 0.994213 0.817463 0.478245
O O4 0.954833 0.653701 0.585342
O O5 0.500000 0.528150 0.750000
O O6 0.627114 0.553256 0.791115
O O7 0.717129 0.562526 0.578582
O O8 0.572211 0.700495 0.747316
O O9 0.799155 0.856312 0.134205
O O10 0.000000 0.000000 0.000000
O O11 0.925626 0.518005 0.466803
O O12 0.911045 0.647767 0.363420
O O13 0.441384 0.128716 0.859990
O O14 0.610154 0.251537 0.711975
O O15 0.679516 0.836285 0.927284
#
# Coordination Sequence:
#
# PCOD9283647 Si02
#       8
#     8   8   8   8   4   8   8   4
#     4  10  21  40  63  91 131 170 214 270 324 387
#     4  10  23  41  60  94 133 166 215 267 331 389
#     4  11  23  41  67  98 130 173 224 268 329 396
#     4  12  21  41  64  93 131 170 216 271 326 400
#     4  10  21  44  61  90 130 174 219 268 327 386
#     4  10  23  37  63  96 124 168 220 266 324 386
#     4  10  22  41  64  93 131 173 216 274 328 386
#     4  10  23  40  65  92 126 174 211 272 333 388
#
# _framework density 21.813770000000002
#
# number of rings (size 3 to 8) (size 9 to 14) (size 15 to 20)
#    0.429    1.143    2.857    1.714    2.000    1.143 
#    1.286    2.857    0.000    0.000    0.000    0.000 
#    0.000    0.000    0.000    0.000    0.000    0.000 
#
# Total GULP energy -155966.567593 kJ/mol
# GULP energy per Si atom -5570.234557 kJ/mol
# Density = 2.176412 g / cm^3
# Si number density = 21.813770 Si / 1000 Ang^3
#
#
#
# Elastic Constant Matrix: (Units=GPa)
#
#
# Indices 1 2 3 4 5 6 
#
# 1 48.7551 -10.4747 15.5809 0.0000 2.3452 0.0000
# 2 -10.4747 27.4552 -1.3382 0.0000 6.8391 0.0000
# 3 15.5809 -1.3382 158.5381 0.0000 20.5890 0.0000
# 4 0.0000 0.0000 0.0000 14.7393 0.0000 -2.7473
# 5 2.3452 6.8391 20.5890 0.0000 37.3116 0.0000
# 6 0.0000 0.0000 0.0000 -2.7473 0.0000 11.2787
#
#
#
# Elastic Compliance Matrix: (Units=1/GPa)
#
#
# Indices 1 2 3 4 5 6 
#
# 1 0.023224 0.009289 -0.001932 0.000000 -0.002096 0.000000
# 2 0.009289 0.042141 0.000562 0.000000 -0.008618 0.000000
# 3 -0.001932 0.000562 0.007002 0.000000 -0.003845 0.000000
# 4 0.000000 0.000000 0.000000 0.071073 0.000000 0.017312
# 5 -0.002096 -0.008618 -0.003845 0.000000 0.030635 0.000000
# 6 0.000000 0.000000 0.000000 0.017312 0.000000 0.092880
#
#
# Mechanical properties :
#
#
# Convention : Reuss Voigt Hill
#
# Bulk Modulus (GPa) = 11.33726 26.92051 19.12889
# Shear Modulus (GPa) = 17.82417 28.06461 22.94439
#
# Velocity S-wave (km/s) = 2.86161 3.59075 3.24671
# Velocity P-wave (km/s) = 4.01584 5.43683 4.77944
#
# Compressibility (1/GPa) = 0.08820472
#
# Stress axis : x y z
#
# Youngs Moduli (GPa) = 43.05807 23.72987 142.82460
#
# Poissons Ratio (x) = -0.22042 0.27591
# Poissons Ratio (y) = -0.39995 -0.08028
# Poissons Ratio (z) = 0.08318 -0.01334
#
# Static dielectric constant tensor:
#      x y z
#    x 1.843500 0.000000 -0.035370 
#    y 0.000000 1.828840 0.000000 
#    z -0.035370 0.000000 1.832670 
# 
# From -- ./inp_files/211210.got.cif
#   From: 2010.05.17/outbox.cif.g08.bks.cpg/sg15_106_cif.got.tgz:211210.got - 2010.06.03 18:47:42.
