data_PCOD9283904
_publ_section_title
;
Structure prediction by ZEFSAII (Michael W. Deem and Ramdas Pophale) SiO2 
 PCOD9283904
Probable space group: C 2/C
;
_chemical_formula_sum "Si O2"
_cell_formula_units_Z 48
_cell_length_a 7.590061
_cell_length_b 11.334688
_cell_length_c 25.787829
_cell_angle_alpha 90.000000
_cell_angle_beta 68.694681
_cell_angle_gamma 90.000000
_cell_volume 2066.930640
_symmetry_space_group_name_H-M "C 2/C"
_symmetry_group_IT_number 15
_symmetry_cell_setting 'monoclinic'
loop_
_space_group_symop_operation_xyz
x,y,z
-x,y,1/2-z
-x,-y,-z
x,-y,1/2+z
1/2+x,1/2+y,z
1/2-x,1/2+y,1/2-z
1/2-x,1/2-y,-z
1/2+x,1/2-y,1/2+z
loop_
_atom_site_type_symbol
_atom_site_label
_atom_site_fract_x
_atom_site_fract_y
_atom_site_fract_z
Si Si1 0.106668 0.437508 0.826228
Si Si2 0.000000 0.000086 0.750000
Si Si3 0.585070 0.446855 0.431701
Si Si4 0.536964 0.303278 0.530930
Si Si5 0.498862 0.047572 0.940896
Si Si6 0.000000 0.388543 0.250000
Si Si7 0.597653 0.679666 0.822246
O O1 0.308522 0.429235 0.775939
O O2 0.117687 0.476598 0.885078
O O3 0.000699 0.531475 0.801661
O O4 0.013444 0.309564 0.833110
O O5 0.986872 0.087155 0.799883
O O6 0.473904 0.357936 0.482393
O O7 0.487912 0.575283 0.433659
O O8 0.613473 0.374596 0.377084
O O9 0.787078 0.463867 0.439087
O O10 0.750000 0.250000 0.500000
O O11 0.438677 0.185622 0.563140
O O12 0.500000 0.000000 0.000000
O O13 0.805335 0.319248 0.273985
#
# Coordination Sequence:
#
# PCOD9283904 Si02
#       7
#     8   4   8   8   8   4   8
#     4  11  23  43  66  97 133 172 223 273 334 391
#     4  10  26  40  62 102 124 174 224 276 324 400
#     4  10  21  40  65  92 126 181 212 268 340 396
#     4   9  21  40  62  92 130 167 217 263 327 403
#     4  11  23  39  63  99 133 172 220 278 332 401
#     4  10  22  44  64  92 130 172 220 266 336 386
#     4  11  22  42  66  92 128 168 218 270 330 389
#
# _framework density 23.222840000000001
#
# number of rings (size 3 to 8) (size 9 to 14) (size 15 to 20)
#    0.000    1.667    1.667    2.000    0.000    8.667 
#   12.000    0.000    0.000    0.000    0.000    0.000 
#    0.000    0.000    0.000    0.000    0.000    0.000 
#
# Total GULP energy -133887.662165 kJ/mol
# GULP energy per Si atom -5578.652590 kJ/mol
# Density = 2.316998 g / cm^3
# Si number density = 23.222840 Si / 1000 Ang^3
#
#
#
# Elastic Constant Matrix: (Units=GPa)
#
#
# Indices 1 2 3 4 5 6 
#
# 1 32.6022 5.4752 -11.1289 0.0000 7.9111 0.0000
# 2 5.4752 169.4708 28.8661 0.0000 4.7564 0.0000
# 3 -11.1289 28.8661 101.8814 0.0000 18.5055 0.0000
# 4 0.0000 0.0000 0.0000 21.6612 0.0000 -13.1797
# 5 7.9111 4.7564 18.5055 0.0000 33.0757 0.0000
# 6 0.0000 0.0000 0.0000 -13.1797 0.0000 69.1980
#
#
#
# Elastic Compliance Matrix: (Units=1/GPa)
#
#
# Indices 1 2 3 4 5 6 
#
# 1 0.036249 -0.001976 0.006726 0.000000 -0.012149 0.000000
# 2 -0.001976 0.006308 -0.002142 0.000000 0.000764 0.000000
# 3 0.006726 -0.002142 0.012682 0.000000 -0.008396 0.000000
# 4 0.000000 0.000000 0.000000 0.052217 0.000000 0.009945
# 5 -0.012149 0.000764 -0.008396 0.000000 0.037727 0.000000
# 6 0.000000 0.000000 0.000000 0.009945 0.000000 0.016346
#
#
# Mechanical properties :
#
#
# Convention : Reuss Voigt Hill
#
# Bulk Modulus (GPa) = 16.54110 38.93104 27.73607
# Shear Modulus (GPa) = 28.33457 43.50310 35.91884
#
# Velocity S-wave (km/s) = 3.49681 4.33285 3.93708
# Velocity P-wave (km/s) = 4.84167 6.46776 5.71287
#
# Compressibility (1/GPa) = 0.06045546
#
# Stress axis : x y z
#
# Youngs Moduli (GPa) = 27.58729 158.53057 78.85227
#
# Poissons Ratio (x) = 0.31322 -0.53037
# Poissons Ratio (y) = 0.05451 0.16888
# Poissons Ratio (z) = -0.18555 0.33954
#
# Static dielectric constant tensor:
#      x y z
#    x 1.914640 0.000000 -0.049150 
#    y 0.000000 1.882390 0.000000 
#    z -0.049150 0.000000 1.839390 
# 
# From -- ./inp_files/263525.got.cif
#   From: 2010.05.17/outbox.cif.g08.bks.cpg/sg15_132_cif.got.tgz:263525.got - 2010.06.03 18:47:42.
