data_PCOD9283724
_publ_section_title
;
Structure prediction by ZEFSAII (Michael W. Deem and Ramdas Pophale) SiO2 
 PCOD9283724
Probable space group: C 2/C
;
_chemical_formula_sum "Si O2"
_cell_formula_units_Z 48
_cell_length_a 20.945294
_cell_length_b 10.855982
_cell_length_c 12.639154
_cell_angle_alpha 90.000000
_cell_angle_beta 136.369957
_cell_angle_gamma 90.000000
_cell_volume 1982.997414
_symmetry_space_group_name_H-M "C 2/C"
_symmetry_group_IT_number 15
_symmetry_cell_setting 'monoclinic'
loop_
_space_group_symop_operation_xyz
x,y,z
-x,y,1/2-z
-x,-y,-z
x,-y,1/2+z
1/2+x,1/2+y,z
1/2-x,1/2+y,1/2-z
1/2-x,1/2-y,-z
1/2+x,1/2-y,1/2+z
loop_
_atom_site_type_symbol
_atom_site_label
_atom_site_fract_x
_atom_site_fract_y
_atom_site_fract_z
Si Si1 0.000000 0.433939 0.250000
Si Si2 0.185137 0.800108 0.789351
Si Si3 0.798490 0.540843 0.585157
Si Si4 0.291893 0.705822 0.427739
Si Si5 0.893016 0.820507 0.241186
Si Si6 0.971876 0.220745 0.062652
Si Si7 0.500000 0.529647 0.250000
O O1 0.907067 0.489096 0.191287
O O2 0.043256 0.347533 0.394372
O O3 0.211214 0.659613 0.849551
O O4 0.183789 0.814255 0.662950
O O5 0.080391 0.806712 0.702397
O O6 0.248024 0.902459 0.921032
O O7 0.751002 0.422075 0.579852
O O8 0.212578 0.809221 0.342915
O O9 0.377514 0.740799 0.606334
O O10 0.945746 0.774396 0.408813
O O11 0.942619 0.944052 0.261984
O O12 0.934567 0.111760 0.093849
#
# Coordination Sequence:
#
# PCOD9283724 Si02
#       7
#     4   8   8   8   8   8   4
#     4   9  20  41  66  88 114 159 212 245 288 368
#     4  10  22  42  67  92 118 158 213 253 295 366
#     4  10  22  42  67  90 119 163 206 250 299 359
#     4  11  25  40  59  90 129 163 196 252 311 364
#     4  11  24  39  56  90 128 160 200 249 313 371
#     4  10  21  40  64  89 118 158 209 260 301 352
#     4  11  22  37  64  90 118 159 206 263 312 354
#
# _framework density 24.205780000000001
#
# number of rings (size 3 to 8) (size 9 to 14) (size 15 to 20)
#    0.000    1.667    0.000    3.500    0.000   10.000 
#    0.000    7.500    0.000    0.000    0.000    0.000 
#    0.000    0.000    0.000    0.000    0.000    0.000 
#
# Total GULP energy -133917.855252 kJ/mol
# GULP energy per Si atom -5579.910635 kJ/mol
# Density = 2.415069 g / cm^3
# Si number density = 24.205780 Si / 1000 Ang^3
#
#
#
# Elastic Constant Matrix: (Units=GPa)
#
#
# Indices 1 2 3 4 5 6 
#
# 1 95.9543 38.5725 32.5230 0.0000 -16.1043 0.0000
# 2 38.5725 115.8436 25.1671 0.0000 -5.0545 0.0000
# 3 32.5230 25.1671 140.3168 0.0000 -23.8840 0.0000
# 4 0.0000 0.0000 0.0000 2.1633 0.0000 -0.8730
# 5 -16.1043 -5.0545 -23.8840 0.0000 56.3648 0.0000
# 6 0.0000 0.0000 0.0000 -0.8730 0.0000 -0.6759
#
#
#
# Elastic Compliance Matrix: (Units=1/GPa)
#
#
# Indices 1 2 3 4 5 6 
#
# 1 0.013030 -0.003814 -0.001898 0.000000 0.002577 0.000000
# 2 -0.003814 0.010100 -0.001033 0.000000 -0.000622 0.000000
# 3 -0.001898 -0.001033 0.008238 0.000000 0.002856 0.000000
# 4 0.000000 0.000000 0.000000 0.303868 0.000000 -0.392485
# 5 0.002577 -0.000622 0.002856 0.000000 0.019632 0.000000
# 6 0.000000 0.000000 0.000000 -0.392485 0.000000 -0.972566
#
#
# Mechanical properties :
#
#
# Convention : Reuss Voigt Hill
#
# Bulk Modulus (GPa) = 55.93357 60.51555 58.22456
# Shear Modulus (GPa) = -8.35773 28.62726 10.13477
#
# Velocity S-wave (km/s) = -1.86018 3.44272 2.04842
# Velocity P-wave (km/s) = 4.30627 6.39201 5.44985
#
# Compressibility (1/GPa) = 0.01787835
#
# Stress axis : x y z
#
# Youngs Moduli (GPa) = 76.74305 99.01331 121.38879
#
# Poissons Ratio (x) = 0.37765 0.23034
# Poissons Ratio (y) = 0.29271 0.12543
# Poissons Ratio (z) = 0.14562 0.10231
#
# Static dielectric constant tensor:
#      x y z
#    x 1.947320 0.000000 0.048250 
#    y 0.000000 2.033310 0.000000 
#    z 0.048250 0.000000 1.952710 
# 
# From -- ./inp_files/111831.got.cif
#   From: 2010.05.17/outbox.cif.g08.bks.cpg/sg15_56_cif.got.tgz:111831.got - 2010.06.03 18:47:42.
