data_PCOD9283807
_publ_section_title
;
Structure prediction by ZEFSAII (Michael W. Deem and Ramdas Pophale) SiO2 
 PCOD9283807
Probable space group: C 2/C
;
_chemical_formula_sum "Si O2"
_cell_formula_units_Z 48
_cell_length_a 8.148303
_cell_length_b 11.118290
_cell_length_c 20.806702
_cell_angle_alpha 90.000000
_cell_angle_beta 102.416495
_cell_angle_gamma 90.000000
_cell_volume 1840.898176
_symmetry_space_group_name_H-M "C 2/C"
_symmetry_group_IT_number 15
_symmetry_cell_setting 'monoclinic'
loop_
_space_group_symop_operation_xyz
x,y,z
-x,y,1/2-z
-x,-y,-z
x,-y,1/2+z
1/2+x,1/2+y,z
1/2-x,1/2+y,1/2-z
1/2-x,1/2-y,-z
1/2+x,1/2-y,1/2+z
loop_
_atom_site_type_symbol
_atom_site_label
_atom_site_fract_x
_atom_site_fract_y
_atom_site_fract_z
Si Si1 0.975747 0.696839 0.134499
Si Si2 0.591039 0.724381 0.441534
Si Si3 0.191164 0.851364 0.286714
Si Si4 0.366541 0.632335 0.522503
Si Si5 0.837384 0.796919 0.702170
Si Si6 0.113645 0.528992 0.587797
O O1 0.138794 0.675147 0.192214
O O2 0.989391 0.581866 0.089499
O O3 0.822043 0.731187 0.168183
O O4 0.985499 0.816020 0.090125
O O5 0.750000 0.750000 0.500000
O O6 0.473029 0.624967 0.466527
O O7 0.635808 0.698715 0.371645
O O8 0.491934 0.850373 0.429714
O O9 0.317033 0.830619 0.238439
O O10 0.268207 0.949744 0.340307
O O11 0.000000 0.876969 0.250000
O O12 0.250000 0.750000 0.500000
O O13 0.245796 0.528919 0.539966
O O14 0.000000 0.853938 0.750000
#
# Coordination Sequence:
#
# PCOD9283807 Si02
#       6
#     8   8   8   8   8   8
#     4  10  21  40  64  95 127 170 217 267 327 397
#     4  11  21  39  64  91 126 171 215 264 329 388
#     4   9  20  40  64  90 135 173 211 269 337 381
#     4   9  20  38  64  86 130 167 209 265 324 380
#     4  11  21  40  63  90 130 167 212 270 326 386
#     4  10  21  40  67  94 123 173 221 260 323 405
#
# _framework density 26.07423
#
# number of rings (size 3 to 8) (size 9 to 14) (size 15 to 20)
#    0.000    2.000    3.333    0.000    0.000    3.333 
#    9.000    2.500    0.000    0.000    0.000    0.000 
#    0.000    0.000    0.000    0.000    0.000    0.000 
#
# Total GULP energy -133927.813220 kJ/mol
# GULP energy per Si atom -5580.325551 kJ/mol
# Density = 2.601488 g / cm^3
# Si number density = 26.074230 Si / 1000 Ang^3
#
#
#
# Elastic Constant Matrix: (Units=GPa)
#
#
# Indices 1 2 3 4 5 6 
#
# 1 86.3348 22.3475 48.7631 0.0000 7.9067 0.0000
# 2 22.3475 80.5202 21.4658 0.0000 -8.5553 0.0000
# 3 48.7631 21.4658 175.6583 0.0000 -6.3381 0.0000
# 4 0.0000 0.0000 0.0000 25.1152 0.0000 -7.6114
# 5 7.9067 -8.5553 -6.3381 0.0000 70.1224 0.0000
# 6 0.0000 0.0000 0.0000 -7.6114 0.0000 41.5125
#
#
#
# Elastic Compliance Matrix: (Units=1/GPa)
#
#
# Indices 1 2 3 4 5 6 
#
# 1 0.014814 -0.003359 -0.003789 0.000000 -0.002423 0.000000
# 2 -0.003359 0.013743 -0.000675 0.000000 0.001994 0.000000
# 3 -0.003789 -0.000675 0.006862 0.000000 0.000965 0.000000
# 4 0.000000 0.000000 0.000000 0.042159 0.000000 0.007730
# 5 -0.002423 0.001994 0.000965 0.000000 0.014865 0.000000
# 6 0.000000 0.000000 0.000000 0.007730 0.000000 0.025506
#
#
# Mechanical properties :
#
#
# Convention : Reuss Voigt Hill
#
# Bulk Modulus (GPa) = 50.57346 58.62959 54.60152
# Shear Modulus (GPa) = 35.66643 44.01248 39.83945
#
# Velocity S-wave (km/s) = 3.70250 4.11295 3.91311
# Velocity P-wave (km/s) = 6.14134 6.71488 6.43450
#
# Compressibility (1/GPa) = 0.01977322
#
# Stress axis : x y z
#
# Youngs Moduli (GPa) = 67.50165 72.76261 145.72666
#
# Poissons Ratio (x) = 0.24439 0.55223
# Poissons Ratio (y) = 0.22672 0.09838
# Poissons Ratio (z) = 0.25580 0.04912
#
# Static dielectric constant tensor:
#      x y z
#    x 2.073570 0.000000 0.017980 
#    y 0.000000 2.167820 0.000000 
#    z 0.017980 0.000000 2.211310 
# 
# From -- ./inp_files/263230.got.cif
#   From: 2010.05.17/outbox.cif.g08.bks.cpg/sg15_132_cif.got.tgz:263230.got - 2010.06.03 18:47:42.
