data_PCOD9283180
_publ_section_title
;
Structure prediction by ZEFSAII (Michael W. Deem and Ramdas Pophale) SiO2 
 PCOD9283180
Probable space group: C 2/C
;
_chemical_formula_sum "Si O2"
_cell_formula_units_Z 56
_cell_length_a 17.677713
_cell_length_b 21.526281
_cell_length_c 8.760167
_cell_angle_alpha 90.000000
_cell_angle_beta 128.292778
_cell_angle_gamma 90.000000
_cell_volume 2616.354659
_symmetry_space_group_name_H-M "C 2/C"
_symmetry_group_IT_number 15
_symmetry_cell_setting 'monoclinic'
loop_
_space_group_symop_operation_xyz
x,y,z
-x,y,1/2-z
-x,-y,-z
x,-y,1/2+z
1/2+x,1/2+y,z
1/2-x,1/2+y,1/2-z
1/2-x,1/2-y,-z
1/2+x,1/2-y,1/2+z
loop_
_atom_site_type_symbol
_atom_site_label
_atom_site_fract_x
_atom_site_fract_y
_atom_site_fract_z
Si Si1 0.344448 0.221338 0.426216
Si Si2 0.562060 0.548470 0.674967
Si Si3 0.138168 0.736895 0.687034
Si Si4 0.624543 0.078495 0.095717
Si Si5 0.562259 0.893200 0.983005
Si Si6 0.787994 0.523598 0.985856
Si Si7 0.011792 0.828578 0.944083
O O1 0.245085 0.254144 0.259834
O O2 0.355600 0.222087 0.624066
O O3 0.350895 0.151223 0.379055
O O4 0.427330 0.265551 0.468582
O O5 0.500000 0.556052 0.750000
O O6 0.500000 0.500000 0.500000
O O7 0.672161 0.525828 0.833479
O O8 0.560500 0.614409 0.587906
O O9 0.086520 0.678084 0.548354
O O10 0.088678 0.804649 0.612479
O O11 0.508882 0.077243 0.978590
O O12 0.677135 0.047098 0.305879
O O13 0.666153 0.042877 0.001066
O O14 0.500000 0.896850 0.750000
O O15 0.660254 0.930457 0.072055
O O16 0.000000 0.843779 0.750000
#
# Coordination Sequence:
#
# PCOD9283180 Si02
#       7
#     8   8   8   8   8   8   8
#     4  10  22  41  68 100 132 178 227 278 336 415
#     4  12  27  47  70  99 136 183 230 285 339 404
#     4  10  21  39  68  96 133 177 220 275 343 405
#     4  11  24  45  68 100 138 179 230 281 348 409
#     4  10  22  43  65 101 136 173 223 283 346 410
#     4  11  26  44  66  97 135 182 229 278 345 405
#     4  10  22  43  67 100 133 171 223 276 338 404
#
# _framework density 21.403825999999999
#
# number of rings (size 3 to 8) (size 9 to 14) (size 15 to 20)
#    0.000    1.429    1.429    2.571    6.000    0.571 
#    2.571    2.143    0.000    0.000    0.000    0.000 
#    0.000    0.000    0.000    0.000    0.000    0.000 
#
# Total GULP energy -156531.608984 kJ/mol
# GULP energy per Si atom -5590.414607 kJ/mol
# Density = 2.135511 g / cm^3
# Si number density = 21.403826 Si / 1000 Ang^3
#
#
#
# Elastic Constant Matrix: (Units=GPa)
#
#
# Indices 1 2 3 4 5 6 
#
# 1 107.5733 29.6253 33.2883 0.0000 20.8770 0.0000
# 2 29.6253 119.1581 37.1196 0.0000 -12.9832 0.0000
# 3 33.2883 37.1196 52.0728 0.0000 9.4163 0.0000
# 4 0.0000 0.0000 0.0000 32.6828 0.0000 8.2473
# 5 20.8770 -12.9832 9.4163 0.0000 24.2053 0.0000
# 6 0.0000 0.0000 0.0000 8.2473 0.0000 19.6079
#
#
#
# Elastic Compliance Matrix: (Units=1/GPa)
#
#
# Indices 1 2 3 4 5 6 
#
# 1 0.013937 -0.003491 -0.004205 0.000000 -0.012258 0.000000
# 2 -0.003491 0.014127 -0.010491 0.000000 0.014669 0.000000
# 3 -0.004205 -0.010491 0.031982 0.000000 -0.014442 0.000000
# 4 0.000000 0.000000 0.000000 0.034230 0.000000 -0.014398
# 5 -0.012258 0.014669 -0.014442 0.000000 0.065372 0.000000
# 6 0.000000 0.000000 0.000000 -0.014398 0.000000 0.057056
#
#
# Mechanical properties :
#
#
# Convention : Reuss Voigt Hill
#
# Bulk Modulus (GPa) = 42.24309 53.20784 47.72546
# Shear Modulus (GPa) = 19.15948 27.21726 23.18837
#
# Velocity S-wave (km/s) = 2.99514 3.56983 3.29504
# Velocity P-wave (km/s) = 5.63385 6.47337 6.06815
#
# Compressibility (1/GPa) = 0.02367251
#
# Stress axis : x y z
#
# Youngs Moduli (GPa) = 71.74958 70.78867 31.26786
#
# Poissons Ratio (x) = 0.24711 0.13147
# Poissons Ratio (y) = 0.25047 0.32803
# Poissons Ratio (z) = 0.30169 0.74264
#
# Static dielectric constant tensor:
#      x y z
#    x 1.805880 0.000000 -0.005270 
#    y 0.000000 1.738930 0.000000 
#    z -0.005270 0.000000 1.807150 
# 
# From -- ./inp_files/50316.got.cif
#   From: 2010.05.17/outbox.cif.g08.bks.cpg/sg15_26_cif.got.tgz:50316.got - 2010.06.03 18:47:42.
