data_PCOD9283103
_publ_section_title
;
Structure prediction by ZEFSAII (Michael W. Deem and Ramdas Pophale) SiO2 
 PCOD9283103
Probable space group: C 2/C
;
_chemical_formula_sum "Si O2"
_cell_formula_units_Z 56
_cell_length_a 20.863744
_cell_length_b 9.519521
_cell_length_c 16.972777
_cell_angle_alpha 90.000000
_cell_angle_beta 53.262823
_cell_angle_gamma 90.000000
_cell_volume 2701.487230
_symmetry_space_group_name_H-M "C 2/C"
_symmetry_group_IT_number 15
_symmetry_cell_setting 'monoclinic'
loop_
_space_group_symop_operation_xyz
x,y,z
-x,y,1/2-z
-x,-y,-z
x,-y,1/2+z
1/2+x,1/2+y,z
1/2-x,1/2+y,1/2-z
1/2-x,1/2-y,-z
1/2+x,1/2-y,1/2+z
loop_
_atom_site_type_symbol
_atom_site_label
_atom_site_fract_x
_atom_site_fract_y
_atom_site_fract_z
Si Si1 0.777106 0.092883 0.676656
Si Si2 0.944405 0.015643 0.116175
Si Si3 0.482759 0.763046 0.670658
Si Si4 0.919915 0.503361 0.950694
Si Si5 0.951002 0.283250 0.213541
Si Si6 0.295601 0.123353 0.923401
Si Si7 0.152276 0.611574 0.337400
O O1 0.766703 0.056219 0.591935
O O2 0.790419 0.259952 0.677778
O O3 0.855978 0.025393 0.654809
O O4 0.702927 0.023811 0.776127
O O5 0.944973 0.170835 0.149745
O O6 0.974829 0.900653 0.156774
O O7 0.000000 0.000000 0.000000
O O8 0.500000 0.787851 0.750000
O O9 0.401376 0.832480 0.695719
O O10 0.553316 0.842102 0.571209
O O11 0.841646 0.530886 0.954360
O O12 0.993990 0.587740 0.856249
O O13 0.903127 0.568197 0.048377
O O14 0.866098 0.324150 0.312956
O O15 0.000000 0.217275 0.250000
O O16 0.250000 0.250000 0.000000
#
# Coordination Sequence:
#
# PCOD9283103 Si02
#       7
#     8   8   8   8   8   8   8
#     4  11  23  40  60  93 125 167 206 263 322 374
#     4  11  25  41  63  89 130 170 215 259 322 389
#     4  11  23  41  62  94 130 164 207 268 322 377
#     4  11  22  41  68  98 123 166 222 264 319 382
#     4  10  21  39  67  93 122 171 216 263 315 382
#     4  11  22  39  67  94 128 162 218 268 314 378
#     4  11  23  40  65  91 132 165 212 264 320 385
#
# _framework density 20.729323000000001
#
# number of rings (size 3 to 8) (size 9 to 14) (size 15 to 20)
#    0.000    1.143    1.429    6.429    2.000    2.286 
#    0.000    0.000    0.000    4.286    0.000    0.000 
#    0.000    0.000    0.000    0.000    0.000    0.000 
#
# Total GULP energy -156494.650682 kJ/mol
# GULP energy per Si atom -5589.094667 kJ/mol
# Density = 2.068214 g / cm^3
# Si number density = 20.729323 Si / 1000 Ang^3
#
#
#
# Elastic Constant Matrix: (Units=GPa)
#
#
# Indices 1 2 3 4 5 6 
#
# 1 100.9114 21.3297 17.6158 0.0000 18.2893 -0.0001
# 2 21.3297 37.4777 -5.7831 0.0000 1.8441 -0.0002
# 3 17.6158 -5.7831 88.3515 0.0000 7.2159 -0.0001
# 4 0.0000 0.0000 0.0000 28.5760 0.0000 6.3240
# 5 18.2893 1.8441 7.2159 0.0000 31.0787 0.0000
# 6 -0.0001 -0.0002 -0.0001 6.3240 0.0000 7.5173
#
#
#
# Elastic Compliance Matrix: (Units=1/GPa)
#
#
# Indices 1 2 3 4 5 6 
#
# 1 0.013173 -0.007565 -0.002574 0.000000 -0.006706 0.000000
# 2 -0.007565 0.031427 0.003419 0.000000 0.001793 0.000001
# 3 -0.002574 0.003419 0.012179 0.000000 -0.001516 0.000000
# 4 0.000000 0.000000 0.000000 0.043000 0.000000 -0.036175
# 5 -0.006706 0.001793 -0.001516 0.000000 0.036368 0.000000
# 6 0.000000 0.000001 0.000000 -0.036175 0.000000 0.163460
#
#
# Mechanical properties :
#
#
# Convention : Reuss Voigt Hill
#
# Bulk Modulus (GPa) = 23.07325 32.56283 27.81804
# Shear Modulus (GPa) = 15.26747 26.33961 20.80354
#
# Velocity S-wave (km/s) = 2.71683 3.56848 3.17137
# Velocity P-wave (km/s) = 4.58219 5.72026 5.18256
#
# Compressibility (1/GPa) = 0.04334023
#
# Stress axis : x y z
#
# Youngs Moduli (GPa) = 75.91106 31.81970 82.10700
#
# Poissons Ratio (x) = 0.24070 0.21134
# Poissons Ratio (y) = 0.57423 -0.28071
# Poissons Ratio (z) = 0.19540 -0.10879
#
# Static dielectric constant tensor:
#      x y z
#    x 1.779670 0.000000 0.043830 
#    y 0.000000 1.745290 0.000000 
#    z 0.043830 0.000000 1.642980 
# 
# From -- ./inp_files/213776.got.cif
#   From: 2010.05.17/outbox.cif.g08.bks.cpg/sg15_107_cif.got.tgz:213776.got - 2010.06.03 18:47:42.
