data_PCOD9283205
_publ_section_title
;
Structure prediction by ZEFSAII (Michael W. Deem and Ramdas Pophale) SiO2 
 PCOD9283205
Probable space group: C 2/C
;
_chemical_formula_sum "Si O2"
_cell_formula_units_Z 56
_cell_length_a 11.030061
_cell_length_b 29.720949
_cell_length_c 7.917713
_cell_angle_alpha 90.000000
_cell_angle_beta 108.140210
_cell_angle_gamma 90.000000
_cell_volume 2466.606737
_symmetry_space_group_name_H-M "C 2/C"
_symmetry_group_IT_number 15
_symmetry_cell_setting 'monoclinic'
loop_
_space_group_symop_operation_xyz
x,y,z
-x,y,1/2-z
-x,-y,-z
x,-y,1/2+z
1/2+x,1/2+y,z
1/2-x,1/2+y,1/2-z
1/2-x,1/2-y,-z
1/2+x,1/2-y,1/2+z
loop_
_atom_site_type_symbol
_atom_site_label
_atom_site_fract_x
_atom_site_fract_y
_atom_site_fract_z
Si Si1 0.646177 0.359311 0.764429
Si Si2 0.277581 0.592557 0.856166
Si Si3 0.000000 0.045126 0.750000
Si Si4 0.244132 0.006596 0.453452
Si Si5 0.000000 0.640924 0.250000
Si Si6 0.396765 0.832267 0.357611
Si Si7 0.716767 0.928911 0.841086
Si Si8 0.342362 0.259001 0.701817
O O1 0.500000 0.356236 0.750000
O O2 0.663102 0.395411 0.621336
O O3 0.692695 0.308734 0.746425
O O4 0.706322 0.378831 0.963747
O O5 0.408163 0.576205 0.824265
O O6 0.194759 0.624626 0.700596
O O7 0.221377 0.545182 0.897212
O O8 0.098069 0.012127 0.893129
O O9 0.261732 0.032809 0.288079
O O10 0.316839 0.959569 0.513296
O O11 0.037498 0.667768 0.432146
O O12 0.110788 0.606632 0.247703
O O13 0.500000 0.835961 0.250000
O O14 0.322419 0.785428 0.304233
O O15 0.500000 0.259762 0.750000
O O16 0.250000 0.250000 0.500000
#
# Coordination Sequence:
#
# PCOD9283205 Si02
#       8
#     8   8   4   8   4   8   8   8
#     4  10  21  39  69 103 136 181 237 294 359 433
#     4  11  22  37  64  99 137 184 237 291 362 424
#     4  12  22  36  62  95 142 178 229 294 364 426
#     4  11  23  40  61  95 132 185 232 288 356 428
#     4  12  28  46  70 107 136 192 239 306 352 436
#     4  11  24  48  75 100 143 189 241 293 369 430
#     4  11  25  43  65  95 138 177 241 286 358 421
#     4  10  21  41  77 109 141 190 245 298 368 446
#
# _framework density 22.703254999999999
#
# number of rings (size 3 to 8) (size 9 to 14) (size 15 to 20)
#    0.000    1.143    2.857    3.857    6.000    0.571 
#    1.286    0.714    0.000    6.857    0.000    0.000 
#    0.000    0.000    0.000    0.000    0.000    0.000 
#
# Total GULP energy -156152.658199 kJ/mol
# GULP energy per Si atom -5576.880650 kJ/mol
# Density = 2.265158 g / cm^3
# Si number density = 22.703255 Si / 1000 Ang^3
#
#
#
# Elastic Constant Matrix: (Units=GPa)
#
#
# Indices 1 2 3 4 5 6 
#
# 1 34.1279 10.7339 11.5292 0.0000 -10.3639 0.0000
# 2 10.7339 207.6725 65.8790 0.0000 -5.3522 0.0000
# 3 11.5292 65.8790 126.8457 0.0000 12.4169 0.0000
# 4 0.0000 0.0000 0.0000 15.8146 0.0000 -8.3124
# 5 -10.3639 -5.3522 12.4169 0.0000 25.6576 0.0000
# 6 0.0000 0.0000 0.0000 -8.3124 0.0000 12.8984
#
#
#
# Elastic Compliance Matrix: (Units=1/GPa)
#
#
# Indices 1 2 3 4 5 6 
#
# 1 0.036137 0.000173 -0.005046 0.000000 0.017075 0.000000
# 2 0.000173 0.005962 -0.003402 0.000000 0.002960 0.000000
# 3 -0.005046 -0.003402 0.010894 0.000000 -0.008020 0.000000
# 4 0.000000 0.000000 0.000000 0.095624 0.000000 0.061625
# 5 0.017075 0.002960 -0.008020 0.000000 0.050370 0.000000
# 6 0.000000 0.000000 0.000000 0.061625 0.000000 0.117243
#
#
# Mechanical properties :
#
#
# Convention : Reuss Voigt Hill
#
# Bulk Modulus (GPa) = 27.43976 60.54781 43.99379
# Shear Modulus (GPa) = 14.49580 29.57438 22.03509
#
# Velocity S-wave (km/s) = 2.52958 3.61314 3.11878
# Velocity P-wave (km/s) = 4.54359 6.64330 5.69112
#
# Compressibility (1/GPa) = 0.03644347
#
# Stress axis : x y z
#
# Youngs Moduli (GPa) = 27.67250 167.73625 91.79348
#
# Poissons Ratio (x) = -0.02900 0.46317
# Poissons Ratio (y) = -0.00479 0.31226
# Poissons Ratio (z) = 0.13963 0.57060
#
# Static dielectric constant tensor:
#      x y z
#    x 1.755020 0.000000 0.174560 
#    y 0.000000 1.828590 0.000000 
#    z 0.174560 0.000000 1.901970 
# 
# From -- ./inp_files/34406.got.cif
#   From: 2010.05.17/outbox.cif.g08.bks.cpg/sg15_18_cif.got.tgz:34406.got - 2010.06.03 18:47:42.
