data_PCOD9283751
_publ_section_title
;
Structure prediction by ZEFSAII (Michael W. Deem and Ramdas Pophale) SiO2 
 PCOD9283751
Probable space group: C 2/C
;
_chemical_formula_sum "Si O2"
_cell_formula_units_Z 56
_cell_length_a 13.605150
_cell_length_b 23.329187
_cell_length_c 8.188626
_cell_angle_alpha 90.000000
_cell_angle_beta 113.978567
_cell_angle_gamma 90.000000
_cell_volume 2374.741995
_symmetry_space_group_name_H-M "C 2/C"
_symmetry_group_IT_number 15
_symmetry_cell_setting 'monoclinic'
loop_
_space_group_symop_operation_xyz
x,y,z
-x,y,1/2-z
-x,-y,-z
x,-y,1/2+z
1/2+x,1/2+y,z
1/2-x,1/2+y,1/2-z
1/2-x,1/2-y,-z
1/2+x,1/2-y,1/2+z
loop_
_atom_site_type_symbol
_atom_site_label
_atom_site_fract_x
_atom_site_fract_y
_atom_site_fract_z
Si Si1 0.365094 0.925496 0.553938
Si Si2 0.610055 0.401236 0.762671
Si Si3 0.399085 0.139608 0.760605
Si Si4 0.812536 0.199952 0.953776
Si Si5 0.845588 0.446042 0.921005
Si Si6 0.609643 0.766251 0.761329
Si Si7 0.809088 0.158447 0.476008
O O1 0.424116 0.887913 0.453375
O O2 0.387808 0.931038 0.765250
O O3 0.246338 0.895494 0.471343
O O4 0.371487 0.989229 0.486793
O O5 0.500000 0.428822 0.750000
O O6 0.715555 0.440392 0.823300
O O7 0.604404 0.369177 0.585658
O O8 0.639123 0.350160 0.906848
O O9 0.500000 0.173248 0.750000
O O10 0.288463 0.173550 0.713768
O O11 0.377614 0.093719 0.598608
O O12 0.902967 0.233196 0.915532
O O13 0.750000 0.250000 0.000000
O O14 0.500000 0.792940 0.750000
O O15 0.705309 0.812317 0.815306
O O16 0.642904 0.712940 0.899026
#
# Coordination Sequence:
#
# PCOD9283751 Si02
#       7
#     8   8   8   8   8   8   8
#     4  11  21  44  67  89 135 166 211 275 317 378
#     4  10  21  40  64  91 123 163 210 260 321 381
#     4  11  25  43  66  97 130 174 215 262 326 385
#     4  11  22  41  63  92 129 163 214 266 309 382
#     4  10  23  42  66  94 130 170 212 270 326 375
#     4  11  22  39  61  89 122 165 206 251 319 378
#     4  10  22  40  59  91 125 161 204 264 312 373
#
# _framework density 23.581506999999998
#
# number of rings (size 3 to 8) (size 9 to 14) (size 15 to 20)
#    0.000    1.429    4.286    0.857    0.000    2.857 
#    0.000    3.571    0.000    0.000    0.000    0.000 
#    0.000    0.000    0.000    0.000    0.000    0.000 
#
# Total GULP energy -156226.747332 kJ/mol
# GULP energy per Si atom -5579.526690 kJ/mol
# Density = 2.352783 g / cm^3
# Si number density = 23.581507 Si / 1000 Ang^3
#
#
#
# Elastic Constant Matrix: (Units=GPa)
#
#
# Indices 1 2 3 4 5 6 
#
# 1 128.7287 -2.5692 36.5629 0.0000 -31.5019 0.0000
# 2 -2.5692 66.7150 32.3471 0.0000 -7.7936 0.0000
# 3 36.5629 32.3471 94.2381 0.0000 -21.9601 0.0000
# 4 0.0000 0.0000 0.0000 19.6870 0.0000 -10.7891
# 5 -31.5019 -7.7936 -21.9601 0.0000 27.6133 0.0000
# 6 0.0000 0.0000 0.0000 -10.7891 0.0000 23.5101
#
#
#
# Elastic Compliance Matrix: (Units=1/GPa)
#
#
# Indices 1 2 3 4 5 6 
#
# 1 0.011519 0.003186 -0.002812 0.000000 0.011804 0.000000
# 2 0.003186 0.018864 -0.006903 0.000000 0.003469 0.000000
# 3 -0.002812 -0.006903 0.015798 0.000000 0.007407 0.000000
# 4 0.000000 0.000000 0.000000 0.067862 0.000000 0.031143
# 5 0.011804 0.003469 0.007407 0.000000 0.056551 0.000000
# 6 0.000000 0.000000 0.000000 0.031143 0.000000 0.056827
#
#
# Mechanical properties :
#
#
# Convention : Reuss Voigt Hill
#
# Bulk Modulus (GPa) = 30.19000 46.92928 38.55964
# Shear Modulus (GPa) = 19.87913 29.05147 24.46530
#
# Velocity S-wave (km/s) = 2.90659 3.51374 3.22449
# Velocity P-wave (km/s) = 4.90862 6.03373 5.50002
#
# Compressibility (1/GPa) = 0.03312355
#
# Stress axis : x y z
#
# Youngs Moduli (GPa) = 86.81081 53.01120 63.29941
#
# Poissons Ratio (x) = -0.16890 0.17801
# Poissons Ratio (y) = -0.27659 0.43694
# Poissons Ratio (z) = 0.24413 0.36592
#
# Static dielectric constant tensor:
#      x y z
#    x 1.949890 0.000000 0.036230 
#    y 0.000000 1.833210 0.000000 
#    z 0.036230 0.000000 2.042480 
# 
# From -- ./inp_files/42730.got.cif
#   From: 2010.05.17/outbox.cif.g08.bks.cpg/sg15_22_cif.got.tgz:42730.got - 2010.06.03 18:47:42.
