data_PCOD9283448
_publ_section_title
;
Structure prediction by ZEFSAII (Michael W. Deem and Ramdas Pophale) SiO2 
 PCOD9283448
Probable space group: C 2/C
;
_chemical_formula_sum "Si O2"
_cell_formula_units_Z 44
_cell_length_a 5.202776
_cell_length_b 18.360542
_cell_length_c 20.654898
_cell_angle_alpha 90.000000
_cell_angle_beta 78.331985
_cell_angle_gamma 90.000000
_cell_volume 1932.303492
_symmetry_space_group_name_H-M "C 2/C"
_symmetry_group_IT_number 15
_symmetry_cell_setting 'monoclinic'
loop_
_space_group_symop_operation_xyz
x,y,z
-x,y,1/2-z
-x,-y,-z
x,-y,1/2+z
1/2+x,1/2+y,z
1/2-x,1/2+y,1/2-z
1/2-x,1/2-y,-z
1/2+x,1/2-y,1/2+z
loop_
_atom_site_type_symbol
_atom_site_label
_atom_site_fract_x
_atom_site_fract_y
_atom_site_fract_z
Si Si1 0.741436 0.084965 0.921577
Si Si2 0.804149 0.139569 0.127206
Si Si3 0.500000 0.367959 0.750000
Si Si4 0.065456 0.516270 0.315369
Si Si5 0.564323 0.265492 0.071118
Si Si6 0.185598 0.118868 0.989184
O O1 0.804865 0.167772 0.896475
O O2 0.989039 0.069820 0.955415
O O3 0.475926 0.088192 0.977625
O O4 0.687514 0.033991 0.864037
O O5 0.897175 0.171500 0.191270
O O6 0.687689 0.059486 0.145670
O O7 0.577845 0.191761 0.109976
O O8 0.040781 0.133178 0.063972
O O9 0.730751 0.420585 0.713509
O O10 0.000000 0.478167 0.250000
O O11 0.312493 0.304937 0.052280
O O12 0.750000 0.250000 0.000000
#
# Coordination Sequence:
#
# PCOD9283448 Si02
#       6
#     8   8   4   8   8   8
#     4  10  22  41  64  95 124 164 209 255 326 371
#     4  10  21  40  61  93 125 167 208 262 316 381
#     4  10  24  40  64  82 128 170 210 256 314 372
#     4  10  24  41  62  86 126 173 215 259 313 378
#     4   8  19  38  59  93 126 160 196 261 315 374
#     4   9  22  38  66  96 125 159 206 267 316 372
#
# _framework density 22.770748999999999
#
# number of rings (size 3 to 8) (size 9 to 14) (size 15 to 20)
#    1.091    1.455    0.000    0.000    7.636    5.818 
#    1.636    0.000    6.000    0.000    0.000    0.000 
#    0.000    0.000    0.000    0.000    0.000    0.000 
#
# Total GULP energy -122768.209132 kJ/mol
# GULP energy per Si atom -5580.373142 kJ/mol
# Density = 2.271892 g / cm^3
# Si number density = 22.770749 Si / 1000 Ang^3
#
#
#
# Elastic Constant Matrix: (Units=GPa)
#
#
# Indices 1 2 3 4 5 6 
#
# 1 70.4990 7.8370 10.6910 0.0000 2.5950 0.0000
# 2 7.8370 65.6714 49.7804 0.0000 17.8047 0.0000
# 3 10.6910 49.7804 117.6291 0.0000 22.4279 0.0000
# 4 0.0000 0.0000 0.0000 7.6298 0.0000 14.3622
# 5 2.5950 17.8047 22.4279 0.0000 38.5367 0.0000
# 6 0.0000 0.0000 0.0000 14.3622 0.0000 23.8724
#
#
#
# Elastic Compliance Matrix: (Units=1/GPa)
#
#
# Indices 1 2 3 4 5 6 
#
# 1 0.014434 -0.001077 -0.000861 0.000000 0.000027 0.000000
# 2 -0.001077 0.023562 -0.008787 0.000000 -0.005700 0.000000
# 3 -0.000861 -0.008787 0.012950 0.000000 -0.003419 0.000000
# 4 0.000000 0.000000 0.000000 -0.989309 0.000000 0.595191
# 5 0.000027 -0.005700 -0.003419 0.000000 0.030571 0.000000
# 6 0.000000 0.000000 0.000000 0.595191 0.000000 -0.316191
#
#
# Mechanical properties :
#
#
# Convention : Reuss Voigt Hill
#
# Bulk Modulus (GPa) = 33.90298 43.37961 38.64129
# Shear Modulus (GPa) = -4.19216 26.37387 11.09086
#
# Velocity S-wave (km/s) = -1.35832 3.40698 2.20935
# Velocity P-wave (km/s) = 3.53003 5.87951 4.84921
#
# Compressibility (1/GPa) = 0.02949594
#
# Stress axis : x y z
#
# Youngs Moduli (GPa) = 69.28123 42.44196 77.22035
#
# Poissons Ratio (x) = 0.04571 0.06650
# Poissons Ratio (y) = 0.07461 0.67850
# Poissons Ratio (z) = 0.05967 0.37292
#
# Static dielectric constant tensor:
#      x y z
#    x 1.916430 0.000000 0.026400 
#    y 0.000000 1.894710 0.000000 
#    z 0.026400 0.000000 1.839730 
# 
# From -- ./inp_files/226984.got.cif
#   From: 2010.05.17/outbox.cif.g08.bks.cpg/sg15_114_cif.got.tgz:226984.got - 2010.06.03 18:47:42.
