data_PCOD9283392
_publ_section_title
;
Structure prediction by ZEFSAII (Michael W. Deem and Ramdas Pophale) SiO2 
 PCOD9283392
Probable space group: C 2/C
;
_chemical_formula_sum "Si O2"
_cell_formula_units_Z 40
_cell_length_a 6.103528
_cell_length_b 20.578057
_cell_length_c 16.302019
_cell_angle_alpha 90.000000
_cell_angle_beta 55.866701
_cell_angle_gamma 90.000000
_cell_volume 1694.797005
_symmetry_space_group_name_H-M "C 2/C"
_symmetry_group_IT_number 15
_symmetry_cell_setting 'monoclinic'
loop_
_space_group_symop_operation_xyz
x,y,z
-x,y,1/2-z
-x,-y,-z
x,-y,1/2+z
1/2+x,1/2+y,z
1/2-x,1/2+y,1/2-z
1/2-x,1/2-y,-z
1/2+x,1/2-y,1/2+z
loop_
_atom_site_type_symbol
_atom_site_label
_atom_site_fract_x
_atom_site_fract_y
_atom_site_fract_z
Si Si1 0.081982 0.402226 0.471064
Si Si2 0.863542 0.807716 0.531021
Si Si3 0.556338 0.516557 0.893658
Si Si4 0.020611 0.117908 0.341561
Si Si5 0.890216 0.352233 0.354308
O O1 0.224771 0.369267 0.517671
O O2 0.266882 0.464724 0.418035
O O3 0.771780 0.397469 0.558413
O O4 0.103165 0.365384 0.379847
O O5 0.750000 0.750000 0.500000
O O6 0.853951 0.824229 0.629713
O O7 0.169568 0.808652 0.442402
O O8 0.661666 0.452090 0.826483
O O9 0.750392 0.579262 0.855437
O O10 0.500000 0.500000 0.000000
O O11 0.000000 0.132719 0.250000
O O12 0.000000 0.320751 0.250000
#
# Coordination Sequence:
#
# PCOD9283392 Si02
#       5
#     8   8   8   8   8
#     4  10  21  40  61  86 136 170 217 264 336 396
#     4  10  23  46  66  87 128 178 224 280 333 383
#     4  11  20  37  59  94 136 175 203 265 342 404
#     4  11  24  38  62 101 130 170 225 269 335 402
#     4  10  23  38  62  99 127 171 227 265 336 404
#
# _framework density 23.601645999999999
#
# number of rings (size 3 to 8) (size 9 to 14) (size 15 to 20)
#    0.000    1.600    6.000    0.600    2.800    6.400 
#    0.000    6.000    0.000    0.000    0.000    0.000 
#    0.000    0.000    0.000    0.000    0.000    0.000 
#
# Total GULP energy -111522.989475 kJ/mol
# GULP energy per Si atom -5576.149474 kJ/mol
# Density = 2.354793 g / cm^3
# Si number density = 23.601646 Si / 1000 Ang^3
#
#
#
# Elastic Constant Matrix: (Units=GPa)
#
#
# Indices 1 2 3 4 5 6 
#
# 1 80.9264 15.4045 31.5640 0.0000 30.5647 0.0000
# 2 15.4045 78.0655 24.6645 0.0000 20.6766 0.0000
# 3 31.5640 24.6645 113.4662 0.0000 50.4639 0.0000
# 4 0.0000 0.0000 0.0000 15.1237 0.0000 14.4324
# 5 30.5647 20.6766 50.4639 0.0000 49.0940 0.0000
# 6 0.0000 0.0000 0.0000 14.4324 0.0000 47.3860
#
#
#
# Elastic Compliance Matrix: (Units=1/GPa)
#
#
# Indices 1 2 3 4 5 6 
#
# 1 0.016180 -0.000590 -0.000006 0.000000 -0.009819 0.000000
# 2 -0.000590 0.014479 -0.000800 0.000000 -0.004908 0.000000
# 3 -0.000006 -0.000800 0.016280 0.000000 -0.016393 0.000000
# 4 0.000000 0.000000 0.000000 0.093214 0.000000 -0.028390
# 5 -0.009819 -0.004908 -0.016393 0.000000 0.045399 0.000000
# 6 0.000000 0.000000 0.000000 -0.028390 0.000000 0.029750
#
#
# Mechanical properties :
#
#
# Convention : Reuss Voigt Hill
#
# Bulk Modulus (GPa) = 22.65236 46.19156 34.42196
# Shear Modulus (GPa) = 21.47676 35.70910 28.59293
#
# Velocity S-wave (km/s) = 3.01984 3.89394 3.48441
# Velocity P-wave (km/s) = 4.66668 6.31117 5.55017
#
# Compressibility (1/GPa) = 0.04414550
#
# Stress axis : x y z
#
# Youngs Moduli (GPa) = 61.80517 69.06548 61.42644
#
# Poissons Ratio (x) = 0.04077 0.00035
# Poissons Ratio (y) = 0.03649 0.04917
# Poissons Ratio (z) = 0.00036 0.05528
#
# Static dielectric constant tensor:
#      x y z
#    x 1.970480 0.000000 -0.001460 
#    y 0.000000 2.057940 0.000000 
#    z -0.001460 0.000000 1.900320 
# 
# From -- ./inp_files/129029.got.cif
#   From: 2010.05.17/outbox.cif.g08.bks.cpg/sg15_65_cif.got.tgz:129029.got - 2010.06.03 18:47:42.
