data_PCOD9283898
_publ_section_title
;
Structure prediction by ZEFSAII (Michael W. Deem and Ramdas Pophale) SiO2 
 PCOD9283898
Probable space group: C 2/C
;
_chemical_formula_sum "Si O2"
_cell_formula_units_Z 52
_cell_length_a 27.911863
_cell_length_b 13.396611
_cell_length_c 8.568020
_cell_angle_alpha 90.000000
_cell_angle_beta 43.707494
_cell_angle_gamma 90.000000
_cell_volume 2213.746121
_symmetry_space_group_name_H-M "C 2/C"
_symmetry_group_IT_number 15
_symmetry_cell_setting 'monoclinic'
loop_
_space_group_symop_operation_xyz
x,y,z
-x,y,1/2-z
-x,-y,-z
x,-y,1/2+z
1/2+x,1/2+y,z
1/2-x,1/2+y,1/2-z
1/2-x,1/2-y,-z
1/2+x,1/2-y,1/2+z
loop_
_atom_site_type_symbol
_atom_site_label
_atom_site_fract_x
_atom_site_fract_y
_atom_site_fract_z
Si Si1 0.782215 0.992566 0.928559
Si Si2 0.087825 0.108780 0.770492
Si Si3 0.946387 0.509089 0.765361
Si Si4 0.197879 0.398852 0.854632
Si Si5 0.683333 0.716648 0.058236
Si Si6 0.079924 0.281806 0.570307
Si Si7 0.500000 0.468273 0.750000
O O1 0.759420 0.940765 0.821151
O O2 0.714916 0.050336 0.151392
O O3 0.807834 0.900554 0.976581
O O4 0.845542 0.067115 0.795698
O O5 0.107050 0.215057 0.649794
O O6 0.058212 0.039319 0.696801
O O7 0.028960 0.100038 0.041755
O O8 0.875145 0.564155 0.906482
O O9 0.923177 0.400314 0.887653
O O10 0.000000 0.567346 0.750000
O O11 0.000000 0.500000 0.500000
O O12 0.190743 0.280139 0.883498
O O13 0.619585 0.749826 0.319248
O O14 0.750000 0.750000 0.000000
O O15 0.000000 0.251176 0.750000
#
# Coordination Sequence:
#
# PCOD9283898 Si02
#       7
#     8   8   8   8   8   8   4
#     4  11  23  39  66  95 127 167 215 260 315 385
#     4  11  21  40  59  94 128 171 209 261 310 385
#     4  11  23  43  65  92 123 164 214 268 321 383
#     4  11  22  42  65  93 125 168 212 267 317 381
#     4  10  21  40  65  92 123 174 215 252 314 401
#     4  11  22  40  67  93 123 176 218 254 322 402
#     4  10  22  36  60  84 136 168 206 252 318 358
#
# _framework density 23.489595000000001
#
# number of rings (size 3 to 8) (size 9 to 14) (size 15 to 20)
#    0.000    1.231    0.769    8.308    2.154    0.000 
#    1.385    6.154    0.000    0.000    0.000    0.000 
#    0.000    0.000    0.000    0.000    0.000    0.000 
#
# Total GULP energy -145090.450626 kJ/mol
# GULP energy per Si atom -5580.401947 kJ/mol
# Density = 2.343613 g / cm^3
# Si number density = 23.489595 Si / 1000 Ang^3
#
#
#
# Elastic Constant Matrix: (Units=GPa)
#
#
# Indices 1 2 3 4 5 6 
#
# 1 64.8735 -11.0304 -14.7320 0.0000 -16.0347 0.0000
# 2 -11.0304 83.9274 1.2084 0.0000 -3.7967 0.0000
# 3 -14.7320 1.2084 82.9216 0.0000 -8.8888 0.0000
# 4 0.0000 0.0000 0.0000 25.4262 0.0000 14.3956
# 5 -16.0347 -3.7967 -8.8888 0.0000 42.2907 0.0000
# 6 0.0000 0.0000 0.0000 14.3956 0.0000 17.6711
#
#
#
# Elastic Compliance Matrix: (Units=1/GPa)
#
#
# Indices 1 2 3 4 5 6 
#
# 1 0.018897 0.002799 0.004206 0.000000 0.008300 0.000000
# 2 0.002799 0.012378 0.000562 0.000000 0.002291 0.000000
# 3 0.004206 0.000562 0.013274 0.000000 0.004435 0.000000
# 4 0.000000 0.000000 0.000000 0.072998 0.000000 -0.059467
# 5 0.008300 0.002291 0.004435 0.000000 0.027931 0.000000
# 6 0.000000 0.000000 0.000000 -0.059467 0.000000 0.105034
#
#
# Mechanical properties :
#
#
# Convention : Reuss Voigt Hill
#
# Bulk Modulus (GPa) = 16.75486 20.29049 18.52267
# Shear Modulus (GPa) = 19.58684 34.16269 26.87476
#
# Velocity S-wave (km/s) = 2.89078 3.81776 3.38614
# Velocity P-wave (km/s) = 4.27674 5.30006 4.81566
#
# Compressibility (1/GPa) = 0.05968418
#
# Stress axis : x y z
#
# Youngs Moduli (GPa) = 52.91778 80.78599 75.33442
#
# Poissons Ratio (x) = -0.22608 -0.31688
# Poissons Ratio (y) = -0.14809 -0.04236
# Poissons Ratio (z) = -0.22259 -0.04543
#
# Static dielectric constant tensor:
#      x y z
#    x 1.029320 0.000000 -1.063160 
#    y 0.000000 1.918930 0.000000 
#    z -1.063160 0.000000 0.533630 
# 
# From -- ./inp_files/70084.got.cif
#   From: 2010.05.17/outbox.cif.g08.bks.cpg/sg15_36_cif.got.tgz:70084.got - 2010.06.03 18:47:42.
