data_PCOD9283334
_publ_section_title
;
Structure prediction by ZEFSAII (Michael W. Deem and Ramdas Pophale) SiO2 
 PCOD9283334
Probable space group: C 2/C
;
_chemical_formula_sum "Si O2"
_cell_formula_units_Z 40
_cell_length_a 15.861112
_cell_length_b 22.467591
_cell_length_c 8.536019
_cell_angle_alpha 90.000000
_cell_angle_beta 147.382025
_cell_angle_gamma 90.000000
_cell_volume 1639.692929
_symmetry_space_group_name_H-M "C 2/C"
_symmetry_group_IT_number 15
_symmetry_cell_setting 'monoclinic'
loop_
_space_group_symop_operation_xyz
x,y,z
-x,y,1/2-z
-x,-y,-z
x,-y,1/2+z
1/2+x,1/2+y,z
1/2-x,1/2+y,1/2-z
1/2-x,1/2-y,-z
1/2+x,1/2-y,1/2+z
loop_
_atom_site_type_symbol
_atom_site_label
_atom_site_fract_x
_atom_site_fract_y
_atom_site_fract_z
Si Si1 0.000000 0.533405 0.250000
Si Si2 0.625769 0.682023 0.740954
Si Si3 0.128932 0.573931 0.755683
Si Si4 0.300671 0.732727 0.311646
Si Si5 0.500000 0.830456 0.250000
Si Si6 0.532194 0.434632 0.617169
O O1 0.116896 0.567637 0.549671
O O2 0.092100 0.490023 0.276416
O O3 0.468878 0.724071 0.494340
O O4 0.747490 0.703774 0.799309
O O5 0.568978 0.615404 0.625968
O O6 0.690885 0.692978 0.016087
O O7 0.005140 0.623704 0.612791
O O8 0.289458 0.588518 0.096536
O O9 0.155037 0.708823 0.986425
O O10 0.500000 0.438211 0.750000
O O11 0.500000 0.500000 0.500000
#
# Coordination Sequence:
#
# PCOD9283334 Si02
#       6
#     4   8   8   8   4   8
#     4   9  20  38  64  86 142 176 243 274 344 434
#     4  10  24  47  71 106 144 189 249 294 377 427
#     4  10  21  40  60 100 130 189 226 293 348 422
#     4  10  23  44  74 103 142 189 237 314 358 437
#     4  11  22  38  72  96 134 176 227 296 370 408
#     4  12  27  42  69 105 145 191 237 295 364 442
#
# _framework density 24.394812999999999
#
# number of rings (size 3 to 8) (size 9 to 14) (size 15 to 20)
#    0.000    1.600    2.000    1.200    4.200    8.800 
#    0.000    2.000    0.000    2.400    0.000    0.000 
#    0.000    0.000    0.000    0.000    0.000    0.000 
#
# Total GULP energy -111808.983383 kJ/mol
# GULP energy per Si atom -5590.449169 kJ/mol
# Density = 2.433929 g / cm^3
# Si number density = 24.394813 Si / 1000 Ang^3
#
#
#
# Elastic Constant Matrix: (Units=GPa)
#
#
# Indices 1 2 3 4 5 6 
#
# 1 54.6447 16.7390 1.9126 0.0000 3.8896 0.0000
# 2 16.7390 123.1082 41.9799 0.0000 -10.4064 0.0000
# 3 1.9126 41.9799 107.9968 0.0000 -8.0610 0.0000
# 4 0.0000 0.0000 0.0000 24.7892 0.0000 25.8293
# 5 3.8896 -10.4064 -8.0610 0.0000 43.7299 0.0000
# 6 0.0000 0.0000 0.0000 25.8293 0.0000 7.1207
#
#
#
# Elastic Compliance Matrix: (Units=1/GPa)
#
#
# Indices 1 2 3 4 5 6 
#
# 1 0.019380 -0.003061 0.000673 0.000000 -0.002328 0.000000
# 2 -0.003061 0.009957 -0.003669 0.000000 0.001965 0.000000
# 3 0.000673 -0.003669 0.010752 0.000000 0.001049 0.000000
# 4 0.000000 0.000000 0.000000 -0.014513 0.000000 0.052644
# 5 -0.002328 0.001965 0.001049 0.000000 0.023736 0.000000
# 6 0.000000 0.000000 0.000000 0.052644 0.000000 -0.050525
#
#
# Mechanical properties :
#
#
# Convention : Reuss Voigt Hill
#
# Bulk Modulus (GPa) = 35.74838 45.22365 40.48602
# Shear Modulus (GPa) = 247.19878 30.13585 138.66732
#
# Velocity S-wave (km/s) = 10.07733 3.51855 7.54761
# Velocity P-wave (km/s) = 12.25109 5.92329 9.62223
#
# Compressibility (1/GPa) = 0.02797329
#
# Stress axis : x y z
#
# Youngs Moduli (GPa) = 51.59966 100.43630 93.00393
#
# Poissons Ratio (x) = 0.30747 -0.06259
# Poissons Ratio (y) = 0.15797 0.34126
# Poissons Ratio (z) = -0.03473 0.36854
#
# Static dielectric constant tensor:
#      x y z
#    x 1.906250 0.000000 -0.030370 
#    y 0.000000 1.945800 0.000000 
#    z -0.030370 0.000000 1.918910 
# 
# From -- ./inp_files/51712.got.cif
#   From: 2010.05.17/outbox.cif.g08.bks.cpg/sg15_26_cif.got.tgz:51712.got - 2010.06.03 18:47:42.
