data_PCOD9283274
_publ_section_title
;
Structure prediction by ZEFSAII (Michael W. Deem and Ramdas Pophale) SiO2 
 PCOD9283274
Probable space group: C 2/C
;
_chemical_formula_sum "Si O2"
_cell_formula_units_Z 64
_cell_length_a 8.291776
_cell_length_b 15.044182
_cell_length_c 24.193866
_cell_angle_alpha 90.000000
_cell_angle_beta 118.843242
_cell_angle_gamma 90.000000
_cell_volume 2643.608745
_symmetry_space_group_name_H-M "C 2/C"
_symmetry_group_IT_number 15
_symmetry_cell_setting 'monoclinic'
loop_
_space_group_symop_operation_xyz
x,y,z
-x,y,1/2-z
-x,-y,-z
x,-y,1/2+z
1/2+x,1/2+y,z
1/2-x,1/2+y,1/2-z
1/2-x,1/2-y,-z
1/2+x,1/2-y,1/2+z
loop_
_atom_site_type_symbol
_atom_site_label
_atom_site_fract_x
_atom_site_fract_y
_atom_site_fract_z
Si Si1 0.269864 0.575520 0.149324
Si Si2 0.642251 0.384556 0.480363
Si Si3 0.811392 0.931366 0.784588
Si Si4 0.053150 0.260446 0.600647
Si Si5 0.676744 0.109564 0.807883
Si Si6 0.265960 0.965626 0.072346
Si Si7 0.653198 0.762713 0.819171
Si Si8 0.888794 0.387904 0.409571
O O1 0.477208 0.573470 0.162811
O O2 0.281870 0.596715 0.216421
O O3 0.157506 0.651996 0.100688
O O4 0.180690 0.480641 0.126879
O O5 0.562257 0.284843 0.467603
O O6 0.446123 0.438426 0.448520
O O7 0.754558 0.435765 0.545909
O O8 0.771054 0.386245 0.447230
O O9 0.761054 0.035296 0.781628
O O10 0.709729 0.857862 0.804178
O O11 0.931451 0.277255 0.634478
O O12 0.195729 0.187099 0.647978
O O13 0.500000 0.150397 0.750000
O O14 0.631366 0.047754 0.852900
O O15 0.388500 0.901918 0.052283
O O16 0.500000 0.725835 0.750000
O O17 0.819103 0.693075 0.858934
#
# Coordination Sequence:
#
# PCOD9283274 Si02
#       8
#     8   8   8   8   8   8   8   8
#     4  11  24  38  58  92 129 168 211 261 317 382
#     4   9  21  44  66  94 125 166 221 272 312 380
#     4  11  24  38  58  89 133 167 206 261 321 391
#     4  10  23  40  61  89 125 162 208 265 311 373
#     4  11  24  39  65  96 125 164 209 257 323 390
#     4  10  21  39  73  92 124 170 216 263 328 371
#     4  11  23  37  59  88 128 167 206 260 318 382
#     4  11  24  40  66  94 126 172 217 263 319 385
#
# _framework density 24.209330000000001
#
# number of rings (size 3 to 8) (size 9 to 14) (size 15 to 20)
#    0.000    1.500    1.250    3.750   12.250    0.000 
#    0.000    0.625    2.750    4.500    0.000    0.000 
#    0.000    0.000    0.000    0.000    0.000    0.000 
#
# Total GULP energy -178783.618541 kJ/mol
# GULP energy per Si atom -5586.988079 kJ/mol
# Density = 2.415423 g / cm^3
# Si number density = 24.209330 Si / 1000 Ang^3
#
#
#
# Elastic Constant Matrix: (Units=GPa)
#
#
# Indices 1 2 3 4 5 6 
#
# 1 84.5963 8.8991 26.8427 0.0000 8.4264 0.0000
# 2 8.8991 95.8409 30.4348 0.0000 16.3193 0.0000
# 3 26.8427 30.4348 55.8959 0.0000 16.6233 0.0000
# 4 0.0000 0.0000 0.0000 38.4086 0.0000 7.4066
# 5 8.4264 16.3193 16.6233 0.0000 27.1927 0.0000
# 6 0.0000 0.0000 0.0000 7.4066 0.0000 30.4308
#
#
#
# Elastic Compliance Matrix: (Units=1/GPa)
#
#
# Indices 1 2 3 4 5 6 
#
# 1 0.014035 0.001070 -0.007135 0.000000 -0.000629 0.000000
# 2 0.001070 0.013086 -0.006361 0.000000 -0.004296 0.000000
# 3 -0.007135 -0.006361 0.028096 0.000000 -0.011147 0.000000
# 4 0.000000 0.000000 0.000000 0.027318 0.000000 -0.006649
# 5 -0.000629 -0.004296 -0.011147 0.000000 0.046362 0.000000
# 6 0.000000 0.000000 0.000000 -0.006649 0.000000 0.034480
#
#
# Mechanical properties :
#
#
# Convention : Reuss Voigt Hill
#
# Bulk Modulus (GPa) = 32.93479 40.96515 36.94997
# Shear Modulus (GPa) = 25.20776 30.55020 27.87898
#
# Velocity S-wave (km/s) = 3.23033 3.55620 3.39718
# Velocity P-wave (km/s) = 5.24853 5.81550 5.53927
#
# Compressibility (1/GPa) = 0.03036303
#
# Stress axis : x y z
#
# Youngs Moduli (GPa) = 71.25016 76.41608 35.59267
#
# Poissons Ratio (x) = -0.08175 0.25397
# Poissons Ratio (y) = -0.07622 0.22642
# Poissons Ratio (z) = 0.50840 0.48611
#
# Static dielectric constant tensor:
#      x y z
#    x 2.027040 0.000000 0.026670 
#    y 0.000000 1.942910 0.000000 
#    z 0.026670 0.000000 1.946620 
# 
# From -- ./inp_files/308053.got.cif
#   From: 2010.05.17/outbox.cif.g08.bks.cpg/sg15_155_cif.got.tgz:308053.got - 2010.06.03 18:47:42.
