data_PCOD9283296
_publ_section_title
;
Structure prediction by ZEFSAII (Michael W. Deem and Ramdas Pophale) SiO2 
 PCOD9283296
Probable space group: C 2/C
;
_chemical_formula_sum "Si O2"
_cell_formula_units_Z 56
_cell_length_a 12.063291
_cell_length_b 24.019252
_cell_length_c 9.206261
_cell_angle_alpha 90.000000
_cell_angle_beta 125.389197
_cell_angle_gamma 90.000000
_cell_volume 2174.665427
_symmetry_space_group_name_H-M "C 2/C"
_symmetry_group_IT_number 15
_symmetry_cell_setting 'monoclinic'
loop_
_space_group_symop_operation_xyz
x,y,z
-x,y,1/2-z
-x,-y,-z
x,-y,1/2+z
1/2+x,1/2+y,z
1/2-x,1/2+y,1/2-z
1/2-x,1/2-y,-z
1/2+x,1/2-y,1/2+z
loop_
_atom_site_type_symbol
_atom_site_label
_atom_site_fract_x
_atom_site_fract_y
_atom_site_fract_z
Si Si1 0.360748 0.972937 0.940693
Si Si2 0.127199 0.355726 0.455932
Si Si3 0.104120 0.125947 0.521596
Si Si4 0.585880 0.703434 0.970096
Si Si5 0.948124 0.677995 0.048443
Si Si6 0.214571 0.893143 0.420453
Si Si7 0.813277 0.006574 0.942108
O O1 0.232569 0.999012 0.758249
O O2 0.355228 0.907389 0.920193
O O3 0.500000 0.000000 0.000000
O O4 0.329201 0.979713 0.086131
O O5 0.264733 0.351527 0.467156
O O6 0.000000 0.365349 0.250000
O O7 0.069497 0.311196 0.524983
O O8 0.129816 0.115492 0.711271
O O9 0.991297 0.173936 0.451471
O O10 0.090725 0.060391 0.460784
O O11 0.500000 0.708010 0.750000
O O12 0.637851 0.765391 0.042067
O O13 0.698300 0.658470 0.015751
O O14 0.000000 0.676526 0.250000
O O15 0.866329 0.619313 0.972438
O O16 0.160910 0.946470 0.468279
#
# Coordination Sequence:
#
# PCOD9283296 Si02
#       7
#     8   8   8   8   8   8   8
#     4  11  20  33  51  87 119 156 196 235 302 362
#     4  11  21  36  60  86 128 157 191 254 310 366
#     4  10  21  40  58  90 125 163 206 239 316 372
#     4   9  22  40  64  86 118 166 208 259 298 360
#     4  11  22  39  64  95 117 155 207 257 315 360
#     4  11  20  39  63  89 123 157 210 254 299 370
#     4  11  21  34  59  85 122 159 193 249 298 362
#
# _framework density 25.751086999999998
#
# number of rings (size 3 to 8) (size 9 to 14) (size 15 to 20)
#    0.000    1.429    2.857    4.286    0.000    1.143 
#    0.000    0.000    6.286    0.000    0.000    0.000 
#    0.000    0.000    0.000    0.000    0.000    0.000 
#
# Total GULP energy -156039.267859 kJ/mol
# GULP energy per Si atom -5572.830995 kJ/mol
# Density = 2.569248 g / cm^3
# Si number density = 25.751087 Si / 1000 Ang^3
#
#
#
# Elastic Constant Matrix: (Units=GPa)
#
#
# Indices 1 2 3 4 5 6 
#
# 1 121.2324 30.0609 8.4995 0.0000 -28.5676 0.0000
# 2 30.0609 98.0212 1.4653 0.0000 -15.0244 0.0000
# 3 8.4995 1.4653 72.6036 0.0000 -10.2659 0.0000
# 4 0.0000 0.0000 0.0000 -10.7679 0.0000 -12.1901
# 5 -28.5676 -15.0244 -10.2659 0.0000 27.8141 0.0000
# 6 0.0000 0.0000 0.0000 -12.1901 0.0000 36.4775
#
#
#
# Elastic Compliance Matrix: (Units=1/GPa)
#
#
# Indices 1 2 3 4 5 6 
#
# 1 0.011175 -0.001808 0.000225 0.000000 0.010584 0.000000
# 2 -0.001808 0.011445 0.000625 0.000000 0.004556 0.000000
# 3 0.000225 0.000625 0.014576 0.000000 0.005948 0.000000
# 4 0.000000 0.000000 0.000000 -0.067378 0.000000 -0.022517
# 5 0.010584 0.004556 0.005948 0.000000 0.051480 0.000000
# 6 0.000000 0.000000 0.000000 -0.022517 0.000000 0.019890
#
#
# Mechanical properties :
#
#
# Convention : Reuss Voigt Hill
#
# Bulk Modulus (GPa) = 28.34536 41.32316 34.83426
# Shear Modulus (GPa) = 91.13305 27.49351 59.31328
#
# Velocity S-wave (km/s) = 5.95540 3.27106 4.80451
# Velocity P-wave (km/s) = 7.63678 5.50894 6.65841
#
# Compressibility (1/GPa) = 0.03527914
#
# Stress axis : x y z
#
# Youngs Moduli (GPa) = 89.48272 87.37132 68.60811
#
# Poissons Ratio (x) = 0.15799 -0.01542
# Poissons Ratio (y) = 0.16181 -0.04287
# Poissons Ratio (z) = -0.02012 -0.05460
#
# Static dielectric constant tensor:
#      x y z
#    x 2.164380 0.000000 -0.002260 
#    y 0.000000 2.248850 0.000000 
#    z -0.002260 0.000000 1.988580 
# 
# From -- ./inp_files/42279.got.cif
#   From: 2010.05.17/outbox.cif.g08.bks.cpg/sg15_22_cif.got.tgz:42279.got - 2010.06.03 18:47:42.
