data_PCOD9283698
_publ_section_title
;
Structure prediction by ZEFSAII (Michael W. Deem and Ramdas Pophale) SiO2 
 PCOD9283698
Probable space group: C 2/C
;
_chemical_formula_sum "Si O2"
_cell_formula_units_Z 40
_cell_length_a 12.522810
_cell_length_b 5.137701
_cell_length_c 28.141981
_cell_angle_alpha 90.000000
_cell_angle_beta 106.758065
_cell_angle_gamma 90.000000
_cell_volume 1733.716284
_symmetry_space_group_name_H-M "C 2/C"
_symmetry_group_IT_number 15
_symmetry_cell_setting 'monoclinic'
loop_
_space_group_symop_operation_xyz
x,y,z
-x,y,1/2-z
-x,-y,-z
x,-y,1/2+z
1/2+x,1/2+y,z
1/2-x,1/2+y,1/2-z
1/2-x,1/2-y,-z
1/2+x,1/2-y,1/2+z
loop_
_atom_site_type_symbol
_atom_site_label
_atom_site_fract_x
_atom_site_fract_y
_atom_site_fract_z
Si Si1 0.257237 0.619690 0.281751
Si Si2 0.053672 0.270442 0.474995
Si Si3 0.986923 0.763657 0.864310
Si Si4 0.122187 0.263687 0.855610
Si Si5 0.736248 0.550313 0.041085
O O1 0.251060 0.326199 0.262095
O O2 0.373193 0.670766 0.323256
O O3 0.161048 0.682517 0.307336
O O4 0.977139 0.208275 0.419885
O O5 0.165057 0.349415 0.458829
O O6 0.000000 0.500000 0.500000
O O7 0.112833 0.067054 0.518368
O O8 0.026744 0.471645 0.857314
O O9 0.077787 0.973689 0.858030
O O10 0.224619 0.321698 0.904821
O O11 0.750000 0.750000 0.000000
#
# Coordination Sequence:
#
# PCOD9283698 Si02
#       5
#     8   8   8   8   8
#     4  12  28  47  72 101 131 179 238 295 353 408
#     4  10  23  38  64  99 139 184 230 279 338 424
#     4  11  25  45  69 103 136 184 233 279 358 418
#     4  11  25  45  72  99 144 179 225 293 342 423
#     4  10  21  40  63  97 138 180 222 272 351 415
#
# _framework density 23.071828
#
# number of rings (size 3 to 8) (size 9 to 14) (size 15 to 20)
#    0.000    1.200    2.000    2.400    2.800   10.400 
#    0.000    0.000    0.000    0.000    0.000    0.000 
#    0.000    0.000    0.000    0.000    0.000    0.000 
#
# Total GULP energy -111852.514476 kJ/mol
# GULP energy per Si atom -5592.625724 kJ/mol
# Density = 2.301932 g / cm^3
# Si number density = 23.071828 Si / 1000 Ang^3
#
#
#
# Elastic Constant Matrix: (Units=GPa)
#
#
# Indices 1 2 3 4 5 6 
#
# 1 94.4794 -9.9630 14.6506 0.0000 28.2494 0.0000
# 2 -9.9630 48.5819 -9.5298 0.0000 1.3300 0.0000
# 3 14.6506 -9.5298 86.3856 0.0000 -6.1609 0.0000
# 4 0.0000 0.0000 0.0000 47.8564 0.0000 -5.1058
# 5 28.2494 1.3300 -6.1609 0.0000 51.4610 0.0000
# 6 0.0000 0.0000 0.0000 -5.1058 0.0000 45.9847
#
#
#
# Elastic Compliance Matrix: (Units=1/GPa)
#
#
# Indices 1 2 3 4 5 6 
#
# 1 0.013592 0.002494 -0.002589 0.000000 -0.007835 0.000000
# 2 0.002494 0.021500 0.001827 0.000000 -0.001706 0.000000
# 3 -0.002589 0.001827 0.012421 0.000000 0.002861 0.000000
# 4 0.000000 0.000000 0.000000 0.021146 0.000000 0.002348
# 5 -0.007835 -0.001706 0.002861 0.000000 0.024120 0.000000
# 6 0.000000 0.000000 0.000000 0.002348 0.000000 0.022007
#
#
# Mechanical properties :
#
#
# Convention : Reuss Voigt Hill
#
# Bulk Modulus (GPa) = 19.61648 24.41805 22.01727
# Shear Modulus (GPa) = 38.96703 44.67968 41.82336
#
# Velocity S-wave (km/s) = 4.11414 4.40540 4.26225
# Velocity P-wave (km/s) = 5.57575 6.04013 5.81258
#
# Compressibility (1/GPa) = 0.05097754
#
# Stress axis : x y z
#
# Youngs Moduli (GPa) = 73.57516 46.51077 80.51103
#
# Poissons Ratio (x) = -0.11600 0.20842
# Poissons Ratio (y) = -0.18350 -0.14711
# Poissons Ratio (z) = 0.19047 -0.08499
#
# Static dielectric constant tensor:
#      x y z
#    x 2.361380 0.000000 0.179000 
#    y 0.000000 1.878230 0.000000 
#    z 0.179000 0.000000 1.978260 
# 
# From -- ./inp_files/311844.got.cif
#   From: 2010.05.17/outbox.cif.g08.bks.cpg/sg15_156_cif.got.tgz:311844.got - 2010.06.03 18:47:42.
