data_PCOD9283939
_publ_section_title
;
Structure prediction by ZEFSAII (Michael W. Deem and Ramdas Pophale) SiO2 
 PCOD9283939
Probable space group: C 2/C
;
_chemical_formula_sum "Si O2"
_cell_formula_units_Z 56
_cell_length_a 17.511542
_cell_length_b 22.775257
_cell_length_c 13.766090
_cell_angle_alpha 90.000000
_cell_angle_beta 155.775289
_cell_angle_gamma 90.000000
_cell_volume 2252.771474
_symmetry_space_group_name_H-M "C 2/C"
_symmetry_group_IT_number 15
_symmetry_cell_setting 'monoclinic'
loop_
_space_group_symop_operation_xyz
x,y,z
-x,y,1/2-z
-x,-y,-z
x,-y,1/2+z
1/2+x,1/2+y,z
1/2-x,1/2+y,1/2-z
1/2-x,1/2-y,-z
1/2+x,1/2-y,1/2+z
loop_
_atom_site_type_symbol
_atom_site_label
_atom_site_fract_x
_atom_site_fract_y
_atom_site_fract_z
Si Si1 0.169947 0.342972 0.863732
Si Si2 0.350421 0.376492 0.268373
Si Si3 0.243925 0.436187 0.784454
Si Si4 0.168166 0.432008 0.247770
Si Si5 0.853949 0.724372 0.465409
Si Si6 0.074579 0.232831 0.963978
Si Si7 0.752220 0.329120 0.048841
O O1 0.179150 0.391984 0.792655
O O2 0.333307 0.297792 0.022806
O O3 0.777039 0.379733 0.477359
O O4 0.997818 0.297725 0.646411
O O5 0.546831 0.413844 0.499366
O O6 0.235002 0.395886 0.229000
O O7 0.420654 0.309710 0.334184
O O8 0.245558 0.502803 0.823448
O O9 0.057667 0.434572 0.500125
O O10 0.259174 0.397105 0.442607
O O11 0.730873 0.727937 0.228536
O O12 0.763346 0.688532 0.449744
O O13 0.880350 0.789565 0.538631
O O14 0.049271 0.693036 0.676891
#
# Coordination Sequence:
#
# PCOD9283939 Si02
#       7
#     8   8   8   8   8   8   8
#     4  11  25  45  69 106 149 185 239 300 365 434
#     4  11  25  45  68 103 143 183 233 295 357 428
#     4  10  23  47  69  97 141 186 240 300 349 426
#     4  11  24  45  74 100 136 192 243 288 367 429
#     4  10  21  40  65  94 144 177 230 300 359 418
#     4  11  22  40  67 101 141 187 231 290 369 435
#     4  10  22  40  64  99 135 185 236 294 359 428
#
# _framework density 24.858270999999998
#
# number of rings (size 3 to 8) (size 9 to 14) (size 15 to 20)
#    0.000    1.429    0.000    6.000    6.000    0.571 
#    2.571   11.429    0.000    0.000    0.000    0.000 
#    0.000    0.000    0.000    0.000    0.000    0.000 
#
# Total GULP energy -156431.295359 kJ/mol
# GULP energy per Si atom -5586.831977 kJ/mol
# Density = 2.480169 g / cm^3
# Si number density = 24.858271 Si / 1000 Ang^3
#
#
#
# Elastic Constant Matrix: (Units=GPa)
#
#
# Indices 1 2 3 4 5 6 
#
# 1 55.0095 29.1163 35.5816 0.0000 6.5501 0.0000
# 2 29.1163 150.0466 15.3416 0.0000 4.0032 0.0000
# 3 35.5816 15.3416 145.2439 0.0000 13.6477 0.0000
# 4 0.0000 0.0000 0.0000 35.5735 0.0000 1.7196
# 5 6.5501 4.0032 13.6477 0.0000 36.1065 0.0000
# 6 0.0000 0.0000 0.0000 1.7196 0.0000 18.2132
#
#
#
# Elastic Compliance Matrix: (Units=1/GPa)
#
#
# Indices 1 2 3 4 5 6 
#
# 1 0.023958 -0.004060 -0.005261 0.000000 -0.001907 0.000000
# 2 -0.004060 0.007434 0.000226 0.000000 -0.000173 0.000000
# 3 -0.005261 0.000226 0.008360 0.000000 -0.002230 0.000000
# 4 0.000000 0.000000 0.000000 0.028240 0.000000 -0.002666
# 5 -0.001907 -0.000173 -0.002230 0.000000 0.028904 0.000000
# 6 0.000000 0.000000 0.000000 -0.002666 0.000000 0.055157
#
#
# Mechanical properties :
#
#
# Convention : Reuss Voigt Hill
#
# Bulk Modulus (GPa) = 46.38159 56.70880 51.54520
# Shear Modulus (GPa) = 28.18013 35.99602 32.08807
#
# Velocity S-wave (km/s) = 3.37060 3.80945 3.59673
# Velocity P-wave (km/s) = 5.81780 6.49705 6.16678
#
# Compressibility (1/GPa) = 0.02156028
#
# Stress axis : x y z
#
# Youngs Moduli (GPa) = 41.74003 134.51700 119.62356
#
# Poissons Ratio (x) = 0.54616 0.62935
# Poissons Ratio (y) = 0.16947 -0.02700
# Poissons Ratio (z) = 0.21960 -0.03036
#
# Static dielectric constant tensor:
#      x y z
#    x 2.027260 0.000000 0.005010 
#    y 0.000000 1.943660 0.000000 
#    z 0.005010 0.000000 2.193200 
# 
# From -- ./inp_files/216927.got.cif
#   From: 2010.05.17/outbox.cif.g08.bks.cpg/sg15_109_cif.got.tgz:216927.got - 2010.06.03 18:47:42.
