data_PCOD9283149
_publ_section_title
;
Structure prediction by ZEFSAII (Michael W. Deem and Ramdas Pophale) SiO2 
 PCOD9283149
Probable space group: C 2/C
;
_chemical_formula_sum "Si O2"
_cell_formula_units_Z 48
_cell_length_a 17.604629
_cell_length_b 12.926563
_cell_length_c 12.759275
_cell_angle_alpha 90.000000
_cell_angle_beta 137.054834
_cell_angle_gamma 90.000000
_cell_volume 1978.213363
_symmetry_space_group_name_H-M "C 2/C"
_symmetry_group_IT_number 15
_symmetry_cell_setting 'monoclinic'
loop_
_space_group_symop_operation_xyz
x,y,z
-x,y,1/2-z
-x,-y,-z
x,-y,1/2+z
1/2+x,1/2+y,z
1/2-x,1/2+y,1/2-z
1/2-x,1/2-y,-z
1/2+x,1/2-y,1/2+z
loop_
_atom_site_type_symbol
_atom_site_label
_atom_site_fract_x
_atom_site_fract_y
_atom_site_fract_z
Si Si1 0.942736 0.673008 0.936380
Si Si2 0.818681 0.385542 0.885725
Si Si3 0.818447 0.930263 0.962020
Si Si4 0.285292 0.650389 0.873579
Si Si5 0.019530 0.884919 0.060221
Si Si6 0.124863 0.420021 0.921415
O O1 0.846045 0.629962 0.766146
O O2 0.967968 0.792588 0.938361
O O3 0.895205 0.659708 0.004588
O O4 0.059287 0.616121 0.044165
O O5 0.730823 0.410227 0.705260
O O6 0.799745 0.271040 0.914471
O O7 0.827987 0.474679 0.980022
O O8 0.942819 0.883336 0.086138
O O9 0.721939 0.887565 0.939325
O O10 0.830979 0.055138 0.987501
O O11 0.349582 0.638103 0.825127
O O12 0.000000 0.000000 0.000000
O O13 0.000000 0.437267 0.750000
#
# Coordination Sequence:
#
# PCOD9283149 Si02
#       6
#     8   8   8   8   8   8
#     4  11  20  38  65  93 120 166 215 260 319 375
#     4  11  22  40  64  92 127 169 212 268 319 380
#     4  11  21  41  62  92 132 165 214 264 327 382
#     4  10  21  39  68  87 121 178 216 256 320 385
#     4   9  21  39  63  88 127 170 208 255 319 391
#     4  12  24  37  64 100 130 160 213 275 321 373
#
# _framework density 24.264319
#
# number of rings (size 3 to 8) (size 9 to 14) (size 15 to 20)
#    0.000    1.333    5.000    1.500    0.000    1.333 
#    0.000    0.833    0.000    0.000    0.000    0.000 
#    0.000    0.000    0.000    0.000    0.000    0.000 
#
# Total GULP energy -133875.772471 kJ/mol
# GULP energy per Si atom -5578.157186 kJ/mol
# Density = 2.420909 g / cm^3
# Si number density = 24.264319 Si / 1000 Ang^3
#
#
#
# Elastic Constant Matrix: (Units=GPa)
#
#
# Indices 1 2 3 4 5 6 
#
# 1 133.8615 -19.8599 3.3751 0.0000 26.4220 0.0000
# 2 -19.8599 100.5257 -13.4758 0.0000 1.4014 0.0000
# 3 3.3751 -13.4758 26.2585 0.0000 13.9199 0.0000
# 4 0.0000 0.0000 0.0000 13.5830 0.0000 8.4971
# 5 26.4220 1.4014 13.9199 0.0000 30.1514 0.0000
# 6 0.0000 0.0000 0.0000 8.4971 0.0000 27.7717
#
#
#
# Elastic Compliance Matrix: (Units=1/GPa)
#
#
# Indices 1 2 3 4 5 6 
#
# 1 0.010153 0.003074 0.006706 0.000000 -0.012136 0.000000
# 2 0.003074 0.011992 0.009907 0.000000 -0.007825 0.000000
# 3 0.006706 0.009907 0.060462 0.000000 -0.034250 0.000000
# 4 0.000000 0.000000 0.000000 0.091048 0.000000 -0.027857
# 5 -0.012136 -0.007825 -0.034250 0.000000 0.059976 0.000000
# 6 0.000000 0.000000 0.000000 -0.027857 0.000000 0.044531
#
#
# Mechanical properties :
#
#
# Convention : Reuss Voigt Hill
#
# Bulk Modulus (GPa) = 8.19801 22.30272 15.25037
# Shear Modulus (GPa) = 17.89237 33.67497 25.78367
#
# Velocity S-wave (km/s) = 2.71845 3.72941 3.26332
# Velocity P-wave (km/s) = 3.63858 5.26842 4.52744
#
# Compressibility (1/GPa) = 0.12198086
#
# Stress axis : x y z
#
# Youngs Moduli (GPa) = 98.49542 83.38761 16.53938
#
# Poissons Ratio (x) = -0.25632 -0.11091
# Poissons Ratio (y) = -0.30276 -0.16386
# Poissons Ratio (z) = -0.66049 -0.82615
#
# Static dielectric constant tensor:
#      x y z
#    x 2.008890 0.000000 -0.013080 
#    y 0.000000 1.929240 0.000000 
#    z -0.013080 0.000000 1.944040 
# 
# From -- ./inp_files/97179.got.cif
#   From: 2010.05.17/outbox.cif.g08.bks.cpg/sg15_49_cif.got.tgz:97179.got - 2010.06.03 18:47:42.
