data_PCOD9283112
_publ_section_title
;
Structure prediction by ZEFSAII (Michael W. Deem and Ramdas Pophale) SiO2 
 PCOD9283112
Probable space group: C 2/C
;
_chemical_formula_sum "Si O2"
_cell_formula_units_Z 56
_cell_length_a 31.660429
_cell_length_b 5.630180
_cell_length_c 14.025913
_cell_angle_alpha 90.000000
_cell_angle_beta 90.598116
_cell_angle_gamma 90.000000
_cell_volume 2500.037665
_symmetry_space_group_name_H-M "C 2/C"
_symmetry_group_IT_number 15
_symmetry_cell_setting 'monoclinic'
loop_
_space_group_symop_operation_xyz
x,y,z
-x,y,1/2-z
-x,-y,-z
x,-y,1/2+z
1/2+x,1/2+y,z
1/2-x,1/2+y,1/2-z
1/2-x,1/2-y,-z
1/2+x,1/2-y,1/2+z
loop_
_atom_site_type_symbol
_atom_site_label
_atom_site_fract_x
_atom_site_fract_y
_atom_site_fract_z
Si Si1 0.345060 0.047366 0.526004
Si Si2 0.799091 0.704917 0.855195
Si Si3 0.997800 0.251533 0.942462
Si Si4 0.911072 0.168309 0.571520
Si Si5 0.145861 0.985310 0.282318
Si Si6 0.095352 0.146505 0.604133
Si Si7 0.712843 0.081395 0.324390
O O1 0.318009 0.878039 0.454829
O O2 0.382756 0.901430 0.575494
O O3 0.312316 0.107684 0.609850
O O4 0.367781 0.225266 0.455033
O O5 0.759005 0.874434 0.867160
O O6 0.782717 0.496287 0.785268
O O7 0.834720 0.823883 0.789679
O O8 0.951450 0.257564 0.895324
O O9 0.042362 0.225729 0.888928
O O10 0.000000 0.500000 0.000000
O O11 0.000000 0.000000 0.000000
O O12 0.885267 0.967129 0.629415
O O13 0.911570 0.092390 0.459708
O O14 0.113496 0.855335 0.209979
O O15 0.183873 0.817612 0.319811
#
# Coordination Sequence:
#
# PCOD9283112 Si02
#       7
#     8   8   8   8   8   8   8
#     4  11  22  38  63  89 120 160 209 256 322 386
#     4  12  22  42  60  87 125 161 214 264 324 382
#     4  10  21  39  67  95 131 171 211 269 325 389
#     4  10  22  40  61  91 125 163 208 256 317 389
#     4  11  23  39  62  89 121 164 211 258 316 380
#     4  11  21  40  64  91 124 162 209 258 324 384
#     4  11  24  39  59  88 121 161 206 266 314 382
#
# _framework density 22.399664000000001
#
# number of rings (size 3 to 8) (size 9 to 14) (size 15 to 20)
#    0.000    1.143    5.714    1.286    0.000    0.571 
#    0.000    1.429    0.000    1.714    0.000    0.000 
#    0.000    0.000    0.000    0.000    0.000    0.000 
#
# Total GULP energy -156048.090660 kJ/mol
# GULP energy per Si atom -5573.146095 kJ/mol
# Density = 2.234868 g / cm^3
# Si number density = 22.399664 Si / 1000 Ang^3
#
#
#
# Elastic Constant Matrix: (Units=GPa)
#
#
# Indices 1 2 3 4 5 6 
#
# 1 144.0531 3.6937 28.0098 0.0000 5.5322 0.0000
# 2 3.6937 34.2575 -12.7464 0.0000 1.3444 0.0000
# 3 28.0098 -12.7464 72.8970 0.0000 1.3094 0.0000
# 4 0.0000 0.0000 0.0000 29.5891 0.0000 -3.7576
# 5 5.5322 1.3444 1.3094 0.0000 36.5553 0.0000
# 6 0.0000 0.0000 0.0000 -3.7576 0.0000 30.6368
#
#
#
# Elastic Compliance Matrix: (Units=1/GPa)
#
#
# Indices 1 2 3 4 5 6 
#
# 1 0.007668 -0.002009 -0.003280 0.000000 -0.000969 0.000000
# 2 -0.002009 0.031815 0.006355 0.000000 -0.001094 0.000000
# 3 -0.003280 0.006355 0.016095 0.000000 -0.000314 0.000000
# 4 0.000000 0.000000 0.000000 0.034331 0.000000 0.004211
# 5 -0.000969 -0.001094 -0.000314 0.000000 0.027554 0.000000
# 6 0.000000 0.000000 0.000000 0.004211 0.000000 0.033157
#
#
# Mechanical properties :
#
#
# Convention : Reuss Voigt Hill
#
# Bulk Modulus (GPa) = 17.32861 32.12463 24.72662
# Shear Modulus (GPa) = 29.81044 34.83962 32.32503
#
# Velocity S-wave (km/s) = 3.65203 3.94809 3.80294
# Velocity P-wave (km/s) = 5.05332 5.92924 5.50872
#
# Compressibility (1/GPa) = 0.05770804
#
# Stress axis : x y z
#
# Youngs Moduli (GPa) = 130.40392 31.43206 62.13018
#
# Poissons Ratio (x) = 0.06316 0.20382
# Poissons Ratio (y) = 0.26203 -0.39482
# Poissons Ratio (z) = 0.42778 -0.19974
#
# Static dielectric constant tensor:
#      x y z
#    x 1.875330 0.000000 -0.031720 
#    y 0.000000 2.040730 0.000000 
#    z -0.031720 0.000000 1.854640 
# 
# From -- ./inp_files/180100.got.cif
#   From: 2010.05.17/outbox.cif.g08.bks.cpg/sg15_91_cif.got.tgz:180100.got - 2010.06.03 18:47:42.
