data_PCOD9283700
_publ_section_title
;
Structure prediction by ZEFSAII (Michael W. Deem and Ramdas Pophale) SiO2 
 PCOD9283700
Probable space group: C 2/C
;
_chemical_formula_sum "Si O2"
_cell_formula_units_Z 44
_cell_length_a 13.683364
_cell_length_b 28.680553
_cell_length_c 5.208787
_cell_angle_alpha 90.000000
_cell_angle_beta 74.258014
_cell_angle_gamma 90.000000
_cell_volume 1967.499662
_symmetry_space_group_name_H-M "C 2/C"
_symmetry_group_IT_number 15
_symmetry_cell_setting 'monoclinic'
loop_
_space_group_symop_operation_xyz
x,y,z
-x,y,1/2-z
-x,-y,-z
x,-y,1/2+z
1/2+x,1/2+y,z
1/2-x,1/2+y,1/2-z
1/2-x,1/2-y,-z
1/2+x,1/2-y,1/2+z
loop_
_atom_site_type_symbol
_atom_site_label
_atom_site_fract_x
_atom_site_fract_y
_atom_site_fract_z
Si Si1 0.333065 0.104991 0.601458
Si Si2 0.394522 0.204587 0.467356
Si Si3 0.113055 0.981166 0.866958
Si Si4 0.297179 0.389908 0.816730
Si Si5 0.500000 0.034127 0.250000
Si Si6 0.201000 0.213815 0.229901
O O1 0.381616 0.156096 0.629598
O O2 0.251179 0.111223 0.432593
O O3 0.411853 0.069850 0.410348
O O4 0.280322 0.091925 0.908633
O O5 0.500000 0.199716 0.250000
O O6 0.293304 0.206041 0.363967
O O7 0.391658 0.255496 0.598542
O O8 0.115970 0.928468 0.770303
O O9 0.164216 0.011571 0.606837
O O10 0.000000 0.000000 0.000000
O O11 0.327161 0.336803 0.858661
O O12 0.500000 0.000000 0.500000
O O13 0.250000 0.250000 0.000000
#
# Coordination Sequence:
#
# PCOD9283700 Si02
#       6
#     8   8   8   8   4   8
#     4  11  23  41  65  93 127 171 213 261 340 394
#     4  10  21  41  64  92 134 176 213 270 336 411
#     4  10  22  42  63  89 124 168 214 264 319 384
#     4  11  23  40  69  93 127 172 214 272 325 392
#     4  12  26  42  60  96 132 158 220 282 318 394
#     4  10  21  40  63  99 131 166 224 273 331 398
#
# _framework density 22.363410999999999
#
# number of rings (size 3 to 8) (size 9 to 14) (size 15 to 20)
#    0.000    1.455    2.727    2.182    0.000    5.091 
#    3.273    1.818    0.000    0.000    0.000    0.000 
#    0.000    0.000    0.000    0.000    0.000    0.000 
#
# Total GULP energy -122538.167116 kJ/mol
# GULP energy per Si atom -5569.916687 kJ/mol
# Density = 2.231251 g / cm^3
# Si number density = 22.363411 Si / 1000 Ang^3
#
#
#
# Elastic Constant Matrix: (Units=GPa)
#
#
# Indices 1 2 3 4 5 6 
#
# 1 23.1556 30.7917 11.5308 0.0000 -14.1609 0.0000
# 2 30.7917 199.5059 49.1853 0.0000 -24.4310 0.0000
# 3 11.5308 49.1853 121.7883 0.0000 0.7182 0.0000
# 4 0.0000 0.0000 0.0000 37.0482 0.0000 -3.7424
# 5 -14.1609 -24.4310 0.7182 0.0000 31.6318 0.0000
# 6 0.0000 0.0000 0.0000 -3.7424 0.0000 23.8554
#
#
#
# Elastic Compliance Matrix: (Units=1/GPa)
#
#
# Indices 1 2 3 4 5 6 
#
# 1 0.070143 -0.006569 -0.004144 0.000000 0.026423 0.000000
# 2 -0.006569 0.006853 -0.002160 0.000000 0.002401 0.000000
# 3 -0.004144 -0.002160 0.009498 0.000000 -0.003739 0.000000
# 4 0.000000 0.000000 0.000000 0.027426 0.000000 0.004303
# 5 0.026423 0.002401 -0.003739 0.000000 0.045382 0.000000
# 6 0.000000 0.000000 0.000000 0.004303 0.000000 0.042594
#
#
# Mechanical properties :
#
#
# Convention : Reuss Voigt Hill
#
# Bulk Modulus (GPa) = 16.46130 58.60726 37.53428
# Shear Modulus (GPa) = 20.17019 35.36989 27.77004
#
# Velocity S-wave (km/s) = 3.00647 3.98124 3.52769
# Velocity P-wave (km/s) = 4.40779 6.88458 5.78040
#
# Compressibility (1/GPa) = 0.06074855
#
# Stress axis : x y z
#
# Youngs Moduli (GPa) = 14.25656 145.92860 105.28949
#
# Poissons Ratio (x) = 0.95854 0.43633
# Poissons Ratio (y) = 0.09364 0.22740
# Poissons Ratio (z) = 0.05908 0.31517
#
# Static dielectric constant tensor:
#      x y z
#    x 1.903750 0.000000 0.211300 
#    y 0.000000 1.556340 0.000000 
#    z 0.211300 0.000000 1.966290 
# 
# From -- ./inp_files/7572.got.cif
#   From: 2010.05.17/outbox.cif.g08.bks.cpg/sg15_4_cif.got.tgz:7572.got - 2010.06.03 18:47:42.
