data_PCOD9283650
_publ_section_title
;
Structure prediction by ZEFSAII (Michael W. Deem and Ramdas Pophale) SiO2 
 PCOD9283650
Probable space group: C 2/C
;
_chemical_formula_sum "Si O2"
_cell_formula_units_Z 60
_cell_length_a 11.970302
_cell_length_b 27.519208
_cell_length_c 9.222451
_cell_angle_alpha 90.000000
_cell_angle_beta 74.498288
_cell_angle_gamma 90.000000
_cell_volume 2927.482530
_symmetry_space_group_name_H-M "C 2/C"
_symmetry_group_IT_number 15
_symmetry_cell_setting 'monoclinic'
loop_
_space_group_symop_operation_xyz
x,y,z
-x,y,1/2-z
-x,-y,-z
x,-y,1/2+z
1/2+x,1/2+y,z
1/2-x,1/2+y,1/2-z
1/2-x,1/2-y,-z
1/2+x,1/2-y,1/2+z
loop_
_atom_site_type_symbol
_atom_site_label
_atom_site_fract_x
_atom_site_fract_y
_atom_site_fract_z
Si Si1 0.231710 0.098665 0.730667
Si Si2 0.500000 0.204652 0.750000
Si Si3 0.078847 0.473176 0.356707
Si Si4 0.318350 0.150787 0.982784
Si Si5 0.374869 0.622071 0.027940
Si Si6 0.372419 0.701087 0.247560
Si Si7 0.924222 0.952119 0.998384
Si Si8 0.756574 0.438850 0.692526
O O1 0.345804 0.073279 0.624895
O O2 0.264939 0.136466 0.844960
O O3 0.153520 0.119320 0.630471
O O4 0.163503 0.056351 0.839330
O O5 0.441710 0.174345 0.899717
O O6 0.602775 0.241537 0.763982
O O7 0.166927 0.516286 0.286490
O O8 0.000000 0.458025 0.250000
O O9 0.000000 0.500000 0.500000
O O10 0.228339 0.184319 0.106307
O O11 0.325579 0.100768 0.071226
O O12 0.356128 0.675458 0.099324
O O13 0.289112 0.588292 0.150739
O O14 0.497082 0.596341 0.021367
O O15 0.500000 0.681192 0.250000
O O16 0.850940 0.954070 0.875062
O O17 0.000000 0.000000 0.000000
#
# Coordination Sequence:
#
# PCOD9283650 Si02
#       8
#     8   4   8   8   8   8   8   8
#     4  11  24  36  59  91 124 161 208 256 306 370
#     4  10  22  38  72  88 116 160 220 258 320 388
#     4  12  24  39  56  81 121 167 210 249 289 348
#     4  10  21  40  63  92 119 160 212 261 307 385
#     4  11  20  37  58  89 123 154 190 253 316 372
#     4   9  20  38  65  90 117 156 201 252 332 379
#     4  11  21  36  59  87 125 164 205 246 306 374
#     4  10  22  38  58  86 121 164 208 248 299 367
#
# _framework density 20.495425000000001
#
# number of rings (size 3 to 8) (size 9 to 14) (size 15 to 20)
#    0.400    1.067    0.000    7.600    2.800    1.067 
#    0.000    0.667    0.000    3.200    0.000    0.000 
#    0.000    0.000    0.000    0.000    0.000    0.000 
#
# Total GULP energy -167453.385728 kJ/mol
# GULP energy per Si atom -5581.779524 kJ/mol
# Density = 2.044878 g / cm^3
# Si number density = 20.495425 Si / 1000 Ang^3
#
#
#
# Elastic Constant Matrix: (Units=GPa)
#
#
# Indices 1 2 3 4 5 6 
#
# 1 50.2208 22.3883 16.2534 0.0000 -7.5133 0.0000
# 2 22.3883 73.7372 14.7924 0.0000 -16.5442 0.0000
# 3 16.2534 14.7924 80.4829 0.0000 -10.0914 0.0000
# 4 0.0000 0.0000 0.0000 19.8989 0.0000 -11.6544
# 5 -7.5133 -16.5442 -10.0914 0.0000 38.6132 0.0000
# 6 0.0000 0.0000 0.0000 -11.6544 0.0000 24.9518
#
#
#
# Elastic Compliance Matrix: (Units=1/GPa)
#
#
# Indices 1 2 3 4 5 6 
#
# 1 0.024052 -0.006359 -0.003560 0.000000 0.001025 0.000000
# 2 -0.006359 0.017009 -0.001120 0.000000 0.005758 0.000000
# 3 -0.003560 -0.001120 0.013650 0.000000 0.002395 0.000000
# 4 0.000000 0.000000 0.000000 0.069178 0.000000 0.032312
# 5 0.001025 0.005758 0.002395 0.000000 0.029190 0.000000
# 6 0.000000 0.000000 0.000000 0.032312 0.000000 0.055169
#
#
# Mechanical properties :
#
#
# Convention : Reuss Voigt Hill
#
# Bulk Modulus (GPa) = 30.64331 34.58991 32.61661
# Shear Modulus (GPa) = 20.72930 26.75990 23.74460
#
# Velocity S-wave (km/s) = 3.18372 3.61730 3.40741
# Velocity P-wave (km/s) = 5.33840 5.86174 5.60618
#
# Compressibility (1/GPa) = 0.03263355
#
# Stress axis : x y z
#
# Youngs Moduli (GPa) = 41.57603 58.79295 73.25959
#
# Poissons Ratio (x) = 0.37384 0.26081
# Poissons Ratio (y) = 0.26437 0.08206
# Poissons Ratio (z) = 0.14801 0.06585
#
# Static dielectric constant tensor:
#      x y z
#    x 1.784070 0.000000 -0.081790 
#    y 0.000000 1.747760 0.000000 
#    z -0.081790 0.000000 1.743910 
# 
# From -- ./inp_files/35653.got.cif
#   From: 2010.05.17/outbox.cif.g08.bks.cpg/sg15_18_cif.got.tgz:35653.got - 2010.06.03 18:47:42.
