data_PCOD9283018
_publ_section_title
;
Structure prediction by ZEFSAII (Michael W. Deem and Ramdas Pophale) SiO2 
 PCOD9283018
Probable space group: C 2/C
;
_chemical_formula_sum "Si O2"
_cell_formula_units_Z 44
_cell_length_a 9.390272
_cell_length_b 16.808684
_cell_length_c 19.870434
_cell_angle_alpha 90.000000
_cell_angle_beta 136.320208
_cell_angle_gamma 90.000000
_cell_volume 2166.022831
_symmetry_space_group_name_H-M "C 2/C"
_symmetry_group_IT_number 15
_symmetry_cell_setting 'monoclinic'
loop_
_space_group_symop_operation_xyz
x,y,z
-x,y,1/2-z
-x,-y,-z
x,-y,1/2+z
1/2+x,1/2+y,z
1/2-x,1/2+y,1/2-z
1/2-x,1/2-y,-z
1/2+x,1/2-y,1/2+z
loop_
_atom_site_type_symbol
_atom_site_label
_atom_site_fract_x
_atom_site_fract_y
_atom_site_fract_z
Si Si1 0.664068 0.294171 0.070260
Si Si2 0.793569 0.450095 0.420730
Si Si3 0.293811 0.803240 0.780379
Si Si4 0.500000 0.430918 0.750000
Si Si5 0.242369 0.662140 0.463472
Si Si6 0.536545 0.813271 0.106385
O O1 0.701752 0.262777 0.158185
O O2 0.868625 0.329941 0.107032
O O3 0.458567 0.347508 0.999031
O O4 0.599121 0.217410 0.003257
O O5 0.617563 0.511859 0.341710
O O6 0.761396 0.400612 0.477573
O O7 0.830037 0.387099 0.372940
O O8 0.000000 0.500000 0.500000
O O9 0.526300 0.835215 0.849908
O O10 0.184335 0.757851 0.681836
O O11 0.155219 0.874234 0.762203
O O12 0.250000 0.750000 0.500000
#
# Coordination Sequence:
#
# PCOD9283018 Si02
#       6
#     8   8   8   4   8   8
#     4  10  21  39  66  94 127 164 230 269 313 383
#     4  12  25  42  67 100 136 171 220 280 343 389
#     4  11  21  42  67  94 133 172 226 270 314 404
#     4  12  24  40  66 100 132 176 222 280 334 398
#     4  10  21  42  63  93 135 170 217 278 317 390
#     4  11  22  38  71  96 123 182 223 257 333 404
#
# _framework density 20.313728000000001
#
# number of rings (size 3 to 8) (size 9 to 14) (size 15 to 20)
#    0.000    1.091    7.273    0.000    7.636    0.727 
#    0.000    0.909    0.000    0.000    0.000    0.000 
#    0.000    0.000    0.000    0.000    0.000    0.000 
#
# Total GULP energy -122892.999869 kJ/mol
# GULP energy per Si atom -5586.045449 kJ/mol
# Density = 2.026749 g / cm^3
# Si number density = 20.313728 Si / 1000 Ang^3
#
#
#
# Elastic Constant Matrix: (Units=GPa)
#
#
# Indices 1 2 3 4 5 6 
#
# 1 110.5841 35.8732 18.6467 0.0000 29.9175 0.0000
# 2 35.8732 81.9727 25.2866 0.0000 12.1312 0.0000
# 3 18.6467 25.2866 86.3801 0.0000 16.0907 0.0000
# 4 0.0000 0.0000 0.0000 35.8274 0.0000 -5.1879
# 5 29.9175 12.1312 16.0907 0.0000 36.5611 0.0000
# 6 0.0000 0.0000 0.0000 -5.1879 0.0000 34.4800
#
#
#
# Elastic Compliance Matrix: (Units=1/GPa)
#
#
# Indices 1 2 3 4 5 6 
#
# 1 0.012912 -0.004350 0.000202 0.000000 -0.009211 0.000000
# 2 -0.004350 0.015177 -0.003517 0.000000 0.000071 0.000000
# 3 0.000202 -0.003517 0.013481 0.000000 -0.004931 0.000000
# 4 0.000000 0.000000 0.000000 0.028533 0.000000 0.004293
# 5 -0.009211 0.000071 -0.004931 0.000000 0.037036 0.000000
# 6 0.000000 0.000000 0.000000 0.004293 0.000000 0.029648
#
#
# Mechanical properties :
#
#
# Convention : Reuss Voigt Hill
#
# Bulk Modulus (GPa) = 38.10920 48.72777 43.41849
# Shear Modulus (GPa) = 31.08211 34.64905 32.86558
#
# Velocity S-wave (km/s) = 3.91590 4.13449 4.02668
# Velocity P-wave (km/s) = 6.26472 6.84337 6.56043
#
# Compressibility (1/GPa) = 0.02624038
#
# Stress axis : x y z
#
# Youngs Moduli (GPa) = 77.44804 65.88866 74.17636
#
# Poissons Ratio (x) = 0.28659 -0.01497
# Poissons Ratio (y) = 0.33687 0.26090
# Poissons Ratio (z) = -0.01564 0.23175
#
# Static dielectric constant tensor:
#      x y z
#    x 1.780380 0.000000 0.016600 
#    y 0.000000 1.686030 0.000000 
#    z 0.016600 0.000000 1.734000 
# 
# From -- ./inp_files/182379.got.cif
#   From: 2010.05.17/outbox.cif.g08.bks.cpg/sg15_92_cif.got.tgz:182379.got - 2010.06.03 18:47:42.
