data_PCOD9283209
_publ_section_title
;
Structure prediction by ZEFSAII (Michael W. Deem and Ramdas Pophale) SiO2 
 PCOD9283209
Probable space group: C 2/C
;
_chemical_formula_sum "Si O2"
_cell_formula_units_Z 32
_cell_length_a 10.616842
_cell_length_b 27.775003
_cell_length_c 9.203420
_cell_angle_alpha 90.000000
_cell_angle_beta 147.196335
_cell_angle_gamma 90.000000
_cell_volume 1470.304315
_symmetry_space_group_name_H-M "C 2/C"
_symmetry_group_IT_number 15
_symmetry_cell_setting 'monoclinic'
loop_
_space_group_symop_operation_xyz
x,y,z
-x,y,1/2-z
-x,-y,-z
x,-y,1/2+z
1/2+x,1/2+y,z
1/2-x,1/2+y,1/2-z
1/2-x,1/2-y,-z
1/2+x,1/2-y,1/2+z
loop_
_atom_site_type_symbol
_atom_site_label
_atom_site_fract_x
_atom_site_fract_y
_atom_site_fract_z
Si Si1 0.000000 0.573673 0.750000
Si Si2 0.322674 0.456360 0.314213
Si Si3 0.243707 0.194931 0.050399
Si Si4 0.706421 0.379842 0.719440
Si Si5 0.000000 0.566788 0.250000
O O1 0.138353 0.542800 0.765659
O O2 0.822702 0.605892 0.483749
O O3 0.500000 0.500000 0.500000
O O4 0.457797 0.405682 0.464596
O O5 0.196148 0.458572 0.037347
O O6 0.500000 0.178156 0.250000
O O7 0.217926 0.176804 0.191394
O O8 0.250000 0.250000 0.000000
O O9 0.000000 0.174507 0.750000
O O10 0.856668 0.404914 0.736279
#
# Coordination Sequence:
#
# PCOD9283209 Si02
#       5
#     4   8   8   8   4
#     4  10  26  43  62  94 138 178 232 292 350 425
#     4  11  25  43  64  94 134 183 234 288 350 419
#     4  10  21  39  69 106 136 172 232 295 353 423
#     4  11  22  40  66  97 133 180 225 285 356 416
#     4  10  22  39  66  92 126 174 234 280 332 425
#
# _framework density 21.764201
#
# number of rings (size 3 to 8) (size 9 to 14) (size 15 to 20)
#    0.000    1.500    1.250    3.000    3.500   10.000 
#    0.000    3.750    0.000    6.000    0.000    0.000 
#    0.000    0.000    0.000    0.000    0.000    0.000 
#
# Total GULP energy -89246.809130 kJ/mol
# GULP energy per Si atom -5577.925571 kJ/mol
# Density = 2.171467 g / cm^3
# Si number density = 21.764201 Si / 1000 Ang^3
#
#
#
# Elastic Constant Matrix: (Units=GPa)
#
#
# Indices 1 2 3 4 5 6 
#
# 1 71.5156 24.0775 36.3411 0.0000 -5.6465 0.0000
# 2 24.0775 88.2909 42.7780 0.0000 -14.9801 0.0000
# 3 36.3411 42.7780 180.3788 0.0000 -14.7887 0.0000
# 4 0.0000 0.0000 0.0000 -0.9519 0.0000 -19.0935
# 5 -5.6465 -14.9801 -14.7887 0.0000 52.3373 0.0000
# 6 0.0000 0.0000 0.0000 -19.0935 0.0000 24.2235
#
#
#
# Elastic Compliance Matrix: (Units=1/GPa)
#
#
# Indices 1 2 3 4 5 6 
#
# 1 0.016358 -0.003217 -0.002522 0.000000 0.000131 0.000000
# 2 -0.003217 0.013865 -0.002399 0.000000 0.002944 0.000000
# 3 -0.002522 -0.002399 0.006697 0.000000 0.000934 0.000000
# 4 0.000000 0.000000 0.000000 -0.062493 0.000000 -0.049258
# 5 0.000131 0.002944 0.000934 0.000000 0.020227 0.000000
# 6 0.000000 0.000000 0.000000 -0.049258 0.000000 0.002456
#
#
# Mechanical properties :
#
#
# Convention : Reuss Voigt Hill
#
# Bulk Modulus (GPa) = 48.43667 60.73094 54.58380
# Shear Modulus (GPa) = 246.70052 30.92103 138.81077
#
# Velocity S-wave (km/s) = 10.65822 3.77334 7.99486
# Velocity P-wave (km/s) = 13.18207 6.85192 10.50514
#
# Compressibility (1/GPa) = 0.02064552
#
# Stress axis : x y z
#
# Youngs Moduli (GPa) = 61.13260 72.12362 149.31057
#
# Poissons Ratio (x) = 0.23200 0.37656
# Poissons Ratio (y) = 0.19664 0.35817
# Poissons Ratio (z) = 0.15418 0.17301
#
# Static dielectric constant tensor:
#      x y z
#    x 1.795240 0.000000 0.041040 
#    y 0.000000 2.013850 0.000000 
#    z 0.041040 0.000000 1.808270 
# 
# From -- ./inp_files/5401.got.cif
#   From: 2010.05.17/outbox.cif.g08.bks.cpg/sg15_3_cif.got.tgz:5401.got - 2010.06.03 18:47:42.
