data_PCOD9283791
_publ_section_title
;
Structure prediction by ZEFSAII (Michael W. Deem and Ramdas Pophale) SiO2 
 PCOD9283791
Probable space group: C 2/C
;
_chemical_formula_sum "Si O2"
_cell_formula_units_Z 48
_cell_length_a 17.125704
_cell_length_b 14.182669
_cell_length_c 10.163697
_cell_angle_alpha 90.000000
_cell_angle_beta 103.324133
_cell_angle_gamma 90.000000
_cell_volume 2402.190803
_symmetry_space_group_name_H-M "C 2/C"
_symmetry_group_IT_number 15
_symmetry_cell_setting 'monoclinic'
loop_
_space_group_symop_operation_xyz
x,y,z
-x,y,1/2-z
-x,-y,-z
x,-y,1/2+z
1/2+x,1/2+y,z
1/2-x,1/2+y,1/2-z
1/2-x,1/2-y,-z
1/2+x,1/2-y,1/2+z
loop_
_atom_site_type_symbol
_atom_site_label
_atom_site_fract_x
_atom_site_fract_y
_atom_site_fract_z
Si Si1 0.251627 0.701845 0.294823
Si Si2 0.163733 0.468932 0.646916
Si Si3 0.793306 0.110493 0.589290
Si Si4 0.056776 0.983286 0.898548
Si Si5 0.905924 0.786690 0.671893
Si Si6 0.584932 0.928152 0.358528
O O1 0.192354 0.636667 0.188226
O O2 0.215685 0.805054 0.309102
O O3 0.261658 0.652032 0.439820
O O4 0.339512 0.704021 0.261239
O O5 0.238147 0.525618 0.616417
O O6 0.095459 0.472453 0.507421
O O7 0.140801 0.518960 0.774596
O O8 0.880184 0.067031 0.596690
O O9 0.000000 0.981927 0.750000
O O10 0.899792 0.119371 0.080265
O O11 0.000000 0.000000 0.000000
O O12 0.892232 0.681578 0.613416
O O13 0.000000 0.785407 0.750000
O O14 0.500000 0.932520 0.250000
#
# Coordination Sequence:
#
# PCOD9283791 Si02
#       6
#     8   8   8   8   8   8
#     4  11  23  42  66 100 133 178 220 280 337 396
#     4  12  23  43  68  98 129 177 223 276 337 401
#     4  11  23  41  68  96 140 171 223 278 336 397
#     4  11  24  42  67  97 135 175 217 274 340 399
#     4  10  21  40  64  93 131 172 216 271 335 394
#     4  11  25  44  66  95 132 174 224 276 334 402
#
# _framework density 19.981760999999999
#
# number of rings (size 3 to 8) (size 9 to 14) (size 15 to 20)
#    0.000    1.000    5.000    2.500    0.000    2.000 
#    0.000    0.833    0.000    0.000    0.000    0.000 
#    0.000    0.000    0.000    0.000    0.000    0.000 
#
# Total GULP energy -133907.768479 kJ/mol
# GULP energy per Si atom -5579.490353 kJ/mol
# Density = 1.993628 g / cm^3
# Si number density = 19.981761 Si / 1000 Ang^3
#
#
#
# Elastic Constant Matrix: (Units=GPa)
#
#
# Indices 1 2 3 4 5 6 
#
# 1 99.7700 52.2774 43.9017 0.0000 -18.7045 0.0000
# 2 52.2774 118.8525 56.4845 0.0000 -10.5252 0.0000
# 3 43.9017 56.4845 103.6639 0.0000 -4.9769 0.0000
# 4 0.0000 0.0000 0.0000 191.1249 0.0000 -165.9495
# 5 -18.7045 -10.5252 -4.9769 0.0000 36.2740 0.0000
# 6 0.0000 0.0000 0.0000 -165.9495 0.0000 184.4251
#
#
#
# Elastic Compliance Matrix: (Units=1/GPa)
#
#
# Indices 1 2 3 4 5 6 
#
# 1 0.015052 -0.004314 -0.003736 0.000000 0.005997 0.000000
# 2 -0.004314 0.012813 -0.005117 0.000000 0.000791 0.000000
# 3 -0.003736 -0.005117 0.013945 0.000000 -0.001498 0.000000
# 4 0.000000 0.000000 0.000000 0.023923 0.000000 0.021527
# 5 0.005997 0.000791 -0.001498 0.000000 0.030684 0.000000
# 6 0.000000 0.000000 0.000000 0.021527 0.000000 0.024793
#
#
# Mechanical properties :
#
#
# Convention : Reuss Voigt Hill
#
# Bulk Modulus (GPa) = 64.61393 69.73484 67.17439
# Shear Modulus (GPa) = 32.74360 93.67298 63.20829
#
# Velocity S-wave (km/s) = 4.05245 6.85427 5.63042
# Velocity P-wave (km/s) = 7.36906 9.88010 8.71549
#
# Compressibility (1/GPa) = 0.01547654
#
# Stress axis : x y z
#
# Youngs Moduli (GPa) = 66.43782 78.04560 71.71156
#
# Poissons Ratio (x) = 0.33668 0.26791
# Poissons Ratio (y) = 0.28661 0.36692
# Poissons Ratio (z) = 0.24820 0.39933
#
# Static dielectric constant tensor:
#      x y z
#    x 1.706410 0.000000 0.018890 
#    y 0.000000 1.728760 0.000000 
#    z 0.018890 0.000000 1.686590 
# 
# From -- ./inp_files/47483.got.cif
#   From: 2010.05.17/outbox.cif.g08.bks.cpg/sg15_24_cif.got.tgz:47483.got - 2010.06.03 18:47:42.
