data_PCOD9283049
_publ_section_title
;
Structure prediction by ZEFSAII (Michael W. Deem and Ramdas Pophale) SiO2 
 PCOD9283049
Probable space group: C 2/C
;
_chemical_formula_sum "Si O2"
_cell_formula_units_Z 48
_cell_length_a 14.427746
_cell_length_b 9.288647
_cell_length_c 16.360620
_cell_angle_alpha 90.000000
_cell_angle_beta 93.070731
_cell_angle_gamma 90.000000
_cell_volume 2189.407901
_symmetry_space_group_name_H-M "C 2/C"
_symmetry_group_IT_number 15
_symmetry_cell_setting 'monoclinic'
loop_
_space_group_symop_operation_xyz
x,y,z
-x,y,1/2-z
-x,-y,-z
x,-y,1/2+z
1/2+x,1/2+y,z
1/2-x,1/2+y,1/2-z
1/2-x,1/2-y,-z
1/2+x,1/2-y,1/2+z
loop_
_atom_site_type_symbol
_atom_site_label
_atom_site_fract_x
_atom_site_fract_y
_atom_site_fract_z
Si Si1 0.688443 0.857454 0.678441
Si Si2 0.861423 0.841940 0.082213
Si Si3 0.780322 0.915088 0.906825
Si Si4 0.467895 0.151882 0.464910
Si Si5 0.672777 0.555095 0.753550
Si Si6 0.821611 0.294624 0.074068
O O1 0.613272 0.877458 0.604578
O O2 0.655628 0.721449 0.728995
O O3 0.785617 0.794174 0.648647
O O4 0.720703 0.004321 0.721932
O O5 0.772501 0.738180 0.099005
O O6 0.876913 0.945517 0.160330
O O7 0.950159 0.743008 0.070175
O O8 0.835942 0.917425 0.995010
O O9 0.841508 0.959966 0.830063
O O10 0.701098 0.038207 0.909875
O O11 0.421592 0.229862 0.540824
O O12 0.500000 0.000000 0.500000
O O13 0.750000 0.250000 0.000000
#
# Coordination Sequence:
#
# PCOD9283049 Si02
#       6
#     8   8   8   8   8   8
#     4  10  23  40  68  90 136 185 224 275 343 410
#     4  11  22  38  67 100 135 171 227 287 343 393
#     4  10  21  39  66  97 128 186 222 272 346 415
#     4  11  22  38  64 103 134 169 231 294 333 397
#     4  11  22  44  66  99 133 182 235 275 335 421
#     4   9  18  38  59  89 126 173 221 265 330 406
#
# _framework density 21.923736999999999
#
# number of rings (size 3 to 8) (size 9 to 14) (size 15 to 20)
#    0.000    1.667    3.333    2.000    2.333    0.667 
#    0.000   15.000    0.000    2.000    0.000    0.000 
#    0.000    0.000    0.000    0.000    0.000    0.000 
#
# Total GULP energy -133687.630871 kJ/mol
# GULP energy per Si atom -5570.317953 kJ/mol
# Density = 2.187384 g / cm^3
# Si number density = 21.923737 Si / 1000 Ang^3
#
#
#
# Elastic Constant Matrix: (Units=GPa)
#
#
# Indices 1 2 3 4 5 6 
#
# 1 59.0197 28.1856 38.8057 0.0000 -8.1394 0.0000
# 2 28.1856 72.1705 36.1364 0.0000 8.8364 0.0000
# 3 38.8057 36.1364 165.2630 0.0000 -6.8603 0.0000
# 4 0.0000 0.0000 0.0000 44.4010 0.0000 3.5532
# 5 -8.1394 8.8364 -6.8603 0.0000 25.0329 0.0000
# 6 0.0000 0.0000 0.0000 3.5532 0.0000 28.4467
#
#
#
# Elastic Compliance Matrix: (Units=1/GPa)
#
#
# Indices 1 2 3 4 5 6 
#
# 1 0.025128 -0.009400 -0.003407 0.000000 0.010555 0.000000
# 2 -0.009400 0.020197 -0.002662 0.000000 -0.010915 0.000000
# 3 -0.003407 -0.002662 0.007511 0.000000 0.001890 0.000000
# 4 0.000000 0.000000 0.000000 0.022749 0.000000 -0.002842
# 5 0.010555 -0.010915 0.001890 0.000000 0.047750 0.000000
# 6 0.000000 0.000000 0.000000 -0.002842 0.000000 0.035508
#
#
# Mechanical properties :
#
#
# Convention : Reuss Voigt Hill
#
# Bulk Modulus (GPa) = 45.66556 55.85651 50.76104
# Shear Modulus (GPa) = 25.37017 32.46450 28.91733
#
# Velocity S-wave (km/s) = 3.40546 3.85228 3.63574
# Velocity P-wave (km/s) = 6.02805 6.73199 6.38972
#
# Compressibility (1/GPa) = 0.02189834
#
# Stress axis : x y z
#
# Youngs Moduli (GPa) = 39.79576 49.51346 133.12951
#
# Poissons Ratio (x) = 0.46543 0.45355
# Poissons Ratio (y) = 0.37409 0.35439
# Poissons Ratio (z) = 0.13558 0.13181
#
# Static dielectric constant tensor:
#      x y z
#    x 1.789880 0.000000 -0.057060 
#    y 0.000000 1.893410 0.000000 
#    z -0.057060 0.000000 1.914820 
# 
# From -- ./inp_files/202963.got.cif
#   From: 2010.05.17/outbox.cif.g08.bks.cpg/sg15_102_cif.got.tgz:202963.got - 2010.06.03 18:47:42.
