data_PCOD9283426
_publ_section_title
;
Structure prediction by ZEFSAII (Michael W. Deem and Ramdas Pophale) SiO2 
 PCOD9283426
Probable space group: C 2/C
;
_chemical_formula_sum "Si O2"
_cell_formula_units_Z 60
_cell_length_a 27.922609
_cell_length_b 12.861705
_cell_length_c 9.101294
_cell_angle_alpha 90.000000
_cell_angle_beta 94.890218
_cell_angle_gamma 90.000000
_cell_volume 3256.671157
_symmetry_space_group_name_H-M "C 2/C"
_symmetry_group_IT_number 15
_symmetry_cell_setting 'monoclinic'
loop_
_space_group_symop_operation_xyz
x,y,z
-x,y,1/2-z
-x,-y,-z
x,-y,1/2+z
1/2+x,1/2+y,z
1/2-x,1/2+y,1/2-z
1/2-x,1/2-y,-z
1/2+x,1/2-y,1/2+z
loop_
_atom_site_type_symbol
_atom_site_label
_atom_site_fract_x
_atom_site_fract_y
_atom_site_fract_z
Si Si1 0.924904 0.178717 0.262644
Si Si2 0.000000 0.750791 0.250000
Si Si3 0.485065 0.382365 0.518662
Si Si4 0.955633 0.563089 0.063405
Si Si5 0.315862 0.362270 0.791906
Si Si6 0.709525 0.880486 0.255568
Si Si7 0.767275 0.994914 0.523826
Si Si8 0.901092 0.409859 0.258461
O O1 0.941467 0.118884 0.121703
O O2 0.873758 0.143939 0.312361
O O3 0.917902 0.297031 0.210287
O O4 0.968920 0.170362 0.388429
O O5 0.974321 0.824630 0.362755
O O6 0.970076 0.670900 0.142408
O O7 0.500000 0.500000 0.500000
O O8 0.932166 0.492924 0.181191
O O9 0.915729 0.583235 0.931191
O O10 0.000000 0.500000 0.000000
O O11 0.295211 0.244085 0.772176
O O12 0.299833 0.427893 0.644222
O O13 0.295572 0.423112 0.928248
O O14 0.655586 0.920212 0.272214
O O15 0.740912 0.915784 0.404348
O O16 0.731256 0.939215 0.119012
#
# Coordination Sequence:
#
# PCOD9283426 Si02
#       8
#     8   4   8   8   8   8   8   8
#     4  10  23  40  60  84 121 156 197 244 300 343
#     4  12  22  38  60  88 114 164 204 236 298 346
#     4  11  24  42  60  81 121 160 203 251 290 339
#     4  12  22  35  58  88 124 159 197 240 293 358
#     4  10  22  39  64  91 121 155 200 247 297 365
#     4  10  21  40  61  91 121 158 196 245 308 354
#     4  10  21  40  65  87 121 155 201 246 307 355
#     4  11  22  37  59  88 123 157 195 243 295 363
#
# _framework density 18.423719999999999
#
# number of rings (size 3 to 8) (size 9 to 14) (size 15 to 20)
#    0.000    1.333    2.667    3.200    3.733    0.000 
#    0.000    0.000    2.933    0.000    0.000    0.000 
#    0.000    0.000    0.000    0.000    0.000    0.000 
#
# Total GULP energy -167408.359969 kJ/mol
# GULP energy per Si atom -5580.278666 kJ/mol
# Density = 1.838179 g / cm^3
# Si number density = 18.423720 Si / 1000 Ang^3
#
#
#
# Elastic Constant Matrix: (Units=GPa)
#
#
# Indices 1 2 3 4 5 6 
#
# 1 50.6992 26.8750 7.5743 0.0000 -7.3617 0.0000
# 2 26.8750 90.4553 29.5311 0.0000 -21.2007 0.0000
# 3 7.5743 29.5311 91.1980 0.0000 -12.3530 0.0000
# 4 0.0000 0.0000 0.0000 44.1934 0.0000 -28.2727
# 5 -7.3617 -21.2007 -12.3530 0.0000 24.0736 0.0000
# 6 0.0000 0.0000 0.0000 -28.2727 0.0000 71.8553
#
#
#
# Elastic Compliance Matrix: (Units=1/GPa)
#
#
# Indices 1 2 3 4 5 6 
#
# 1 0.023459 -0.006778 0.000440 0.000000 0.001430 0.000000
# 2 -0.006778 0.016733 -0.003375 0.000000 0.010932 0.000000
# 3 0.000440 -0.003375 0.012506 0.000000 0.003580 0.000000
# 4 0.000000 0.000000 0.000000 0.030240 0.000000 0.011898
# 5 0.001430 0.010932 0.003580 0.000000 0.053441 0.000000
# 6 0.000000 0.000000 0.000000 0.011898 0.000000 0.018598
#
#
# Mechanical properties :
#
#
# Convention : Reuss Voigt Hill
#
# Bulk Modulus (GPa) = 30.05454 40.03483 35.04469
# Shear Modulus (GPa) = 26.95502 39.24926 33.10214
#
# Velocity S-wave (km/s) = 3.82915 4.62060 4.24336
# Velocity P-wave (km/s) = 5.99151 7.08828 6.56285
#
# Compressibility (1/GPa) = 0.03327284
#
# Stress axis : x y z
#
# Youngs Moduli (GPa) = 42.62707 59.76216 79.95983
#
# Poissons Ratio (x) = 0.40510 -0.03521
# Poissons Ratio (y) = 0.28895 0.26984
# Poissons Ratio (z) = -0.01877 0.20168
#
# Static dielectric constant tensor:
#      x y z
#    x 1.900820 0.000000 0.730620 
#    y 0.000000 1.645150 0.000000 
#    z 0.730620 0.000000 3.472940 
# 
# From -- ./inp_files/65507.got.cif
#   From: 2010.05.17/outbox.cif.g08.bks.cpg/sg15_33_cif.got.tgz:65507.got - 2010.06.03 18:47:42.
