data_PCOD9283941
_publ_section_title
;
Structure prediction by ZEFSAII (Michael W. Deem and Ramdas Pophale) SiO2 
 PCOD9283941
Probable space group: C 2/C
;
_chemical_formula_sum "Si O2"
_cell_formula_units_Z 60
_cell_length_a 25.013910
_cell_length_b 9.066839
_cell_length_c 21.423178
_cell_angle_alpha 90.000000
_cell_angle_beta 142.781740
_cell_angle_gamma 90.000000
_cell_volume 2938.807749
_symmetry_space_group_name_H-M "C 2/C"
_symmetry_group_IT_number 15
_symmetry_cell_setting 'monoclinic'
loop_
_space_group_symop_operation_xyz
x,y,z
-x,y,1/2-z
-x,-y,-z
x,-y,1/2+z
1/2+x,1/2+y,z
1/2-x,1/2+y,1/2-z
1/2-x,1/2-y,-z
1/2+x,1/2-y,1/2+z
loop_
_atom_site_type_symbol
_atom_site_label
_atom_site_fract_x
_atom_site_fract_y
_atom_site_fract_z
Si Si1 0.553421 0.550426 0.634222
Si Si2 0.766639 0.954265 0.539755
Si Si3 0.500000 0.087685 0.250000
Si Si4 0.646269 0.266543 0.321407
Si Si5 0.595852 0.290835 0.750384
Si Si6 0.277846 0.973840 0.145640
Si Si7 0.108835 0.139520 0.551974
Si Si8 0.422261 0.149354 0.585964
O O1 0.573813 0.648285 0.712928
O O2 0.604764 0.398347 0.698936
O O3 0.586768 0.636187 0.604454
O O4 0.454533 0.492155 0.532658
O O5 0.847158 0.858477 0.641126
O O6 0.676504 0.879697 0.481045
O O7 0.785960 0.116495 0.585913
O O8 0.762927 0.959578 0.461958
O O9 0.587928 0.179893 0.317560
O O10 0.526844 0.990524 0.335687
O O11 0.695054 0.144031 0.324944
O O12 0.492960 0.275106 0.671937
O O13 0.637668 0.133049 0.773915
O O14 0.207407 0.911638 0.128477
O O15 0.089790 0.293218 0.497170
#
# Coordination Sequence:
#
# PCOD9283941 Si02
#       8
#     8   8   4   8   8   8   8   8
#     4   9  23  47  62  90 131 170 226 267 332 391
#     4  11  23  40  61  98 140 169 219 269 339 402
#     4  12  24  38  64  98 142 166 216 276 334 408
#     4  11  25  41  62  96 138 175 210 278 338 395
#     4  10  21  40  65  95 128 174 215 274 319 393
#     4  12  22  37  63  98 127 168 220 266 331 397
#     4  10  23  41  70  90 125 175 224 275 319 395
#     4  11  21  39  67  95 133 173 213 274 330 384
#
# _framework density 20.416442
#
# number of rings (size 3 to 8) (size 9 to 14) (size 15 to 20)
#    0.000    1.333    4.000    0.800    3.733    1.067 
#    0.000    0.667    0.000    0.000    0.000    0.000 
#    0.000    0.000    0.000    0.000    0.000    0.000 
#
# Total GULP energy -167166.858207 kJ/mol
# GULP energy per Si atom -5572.228607 kJ/mol
# Density = 2.036997 g / cm^3
# Si number density = 20.416442 Si / 1000 Ang^3
#
#
#
# Elastic Constant Matrix: (Units=GPa)
#
#
# Indices 1 2 3 4 5 6 
#
# 1 76.3226 23.8276 22.8990 0.0000 12.2274 0.0000
# 2 23.8276 100.8029 18.5391 0.0000 -2.1669 0.0000
# 3 22.8990 18.5391 68.6289 0.0000 15.5035 0.0000
# 4 0.0000 0.0000 0.0000 18.2624 0.0000 -0.2597
# 5 12.2274 -2.1669 15.5035 0.0000 27.7623 0.0000
# 6 0.0000 0.0000 0.0000 -0.2597 0.0000 19.4055
#
#
#
# Elastic Compliance Matrix: (Units=1/GPa)
#
#
# Indices 1 2 3 4 5 6 
#
# 1 0.015976 -0.003308 -0.003192 0.000000 -0.005512 0.000000
# 2 -0.003308 0.011308 -0.002838 0.000000 0.003924 0.000000
# 3 -0.003192 -0.002838 0.018464 0.000000 -0.009127 0.000000
# 4 0.000000 0.000000 0.000000 0.054768 0.000000 0.000733
# 5 -0.005512 0.003924 -0.009127 0.000000 0.043851 0.000000
# 6 0.000000 0.000000 0.000000 0.000733 0.000000 0.051542
#
#
# Mechanical properties :
#
#
# Convention : Reuss Voigt Hill
#
# Bulk Modulus (GPa) = 36.93545 41.80951 39.37248
# Shear Modulus (GPa) = 22.36058 25.11862 23.73960
#
# Velocity S-wave (km/s) = 3.31301 3.51139 3.41364
# Velocity P-wave (km/s) = 5.72407 6.07969 5.90456
#
# Compressibility (1/GPa) = 0.02707426
#
# Stress axis : x y z
#
# Youngs Moduli (GPa) = 62.59535 88.42938 54.15812
#
# Poissons Ratio (x) = 0.29250 0.17286
# Poissons Ratio (y) = 0.20705 0.15368
# Poissons Ratio (z) = 0.19979 0.25093
#
# Static dielectric constant tensor:
#      x y z
#    x 1.718350 0.000000 -0.008850 
#    y 0.000000 1.776550 0.000000 
#    z -0.008850 0.000000 1.751390 
# 
# From -- ./inp_files/255208.got.cif
#   From: 2010.05.17/outbox.cif.g08.bks.cpg/sg15_128_cif.got.tgz:255208.got - 2010.06.03 18:47:42.
