data_PCOD9283247
_publ_section_title
;
Structure prediction by ZEFSAII (Michael W. Deem and Ramdas Pophale) SiO2 
 PCOD9283247
Probable space group: C 2/C
;
_chemical_formula_sum "Si O2"
_cell_formula_units_Z 60
_cell_length_a 20.945719
_cell_length_b 15.063309
_cell_length_c 22.850579
_cell_angle_alpha 90.000000
_cell_angle_beta 157.683448
_cell_angle_gamma 90.000000
_cell_volume 2737.664699
_symmetry_space_group_name_H-M "C 2/C"
_symmetry_group_IT_number 15
_symmetry_cell_setting 'monoclinic'
loop_
_space_group_symop_operation_xyz
x,y,z
-x,y,1/2-z
-x,-y,-z
x,-y,1/2+z
1/2+x,1/2+y,z
1/2-x,1/2+y,1/2-z
1/2-x,1/2-y,-z
1/2+x,1/2-y,1/2+z
loop_
_atom_site_type_symbol
_atom_site_label
_atom_site_fract_x
_atom_site_fract_y
_atom_site_fract_z
Si Si1 0.333757 0.320339 0.692147
Si Si2 0.677569 0.100008 0.676425
Si Si3 0.978458 0.355893 0.337962
Si Si4 0.294223 0.897593 0.802358
Si Si5 0.876632 0.722892 0.056241
Si Si6 0.500000 0.464160 0.750000
Si Si7 0.131158 0.533451 0.413421
Si Si8 0.283180 0.762609 0.689874
O O1 0.143178 0.318875 0.509216
O O2 0.411375 0.225214 0.743281
O O3 0.321300 0.342260 0.750515
O O4 0.426725 0.400200 0.738240
O O5 0.657915 0.121245 0.728317
O O6 0.487314 0.101758 0.488903
O O7 0.770303 0.177222 0.720259
O O8 0.752856 0.001452 0.735339
O O9 0.041665 0.444664 0.360597
O O10 0.288558 0.849292 0.735060
O O11 0.869053 0.616596 0.043127
O O12 0.068522 0.746141 0.232334
O O13 0.750000 0.750000 0.000000
O O14 0.867424 0.764919 0.983836
O O15 0.333895 0.513379 0.581316
O O16 0.000000 0.560944 0.250000
#
# Coordination Sequence:
#
# PCOD9283247 Si02
#       8
#     8   8   8   8   8   4   8   8
#     4  10  22  38  64  98 140 179 236 280 355 424
#     4  10  21  39  70  94 137 177 227 292 350 422
#     4  10  22  39  66  97 136 182 228 291 356 418
#     4  10  21  41  66 101 132 183 232 286 354 420
#     4  12  28  46  68  96 137 181 234 292 354 425
#     4  10  26  42  70 104 140 192 240 290 358 428
#     4  11  26  47  70 102 141 189 241 295 357 426
#     4  12  23  43  71  99 133 178 233 284 356 419
#
# _framework density 21.91649
#
# number of rings (size 3 to 8) (size 9 to 14) (size 15 to 20)
#    0.000    1.333    2.667    2.000   10.267    1.067 
#    0.000    0.667    0.000    0.000    0.000    0.000 
#    0.000    0.000    0.000    0.000    0.000    0.000 
#
# Total GULP energy -167287.691735 kJ/mol
# GULP energy per Si atom -5576.256391 kJ/mol
# Density = 2.186661 g / cm^3
# Si number density = 21.916490 Si / 1000 Ang^3
#
#
#
# Elastic Constant Matrix: (Units=GPa)
#
#
# Indices 1 2 3 4 5 6 
#
# 1 79.8472 13.0919 26.6829 -0.0029 4.5583 -0.0011
# 2 13.0919 88.5462 30.5363 -0.0187 2.1391 -0.0047
# 3 26.6829 30.5363 31.9110 -0.0246 7.5914 -0.0044
# 4 -0.0029 -0.0187 -0.0246 19.3527 -0.0065 1.8299
# 5 4.5583 2.1391 7.5914 -0.0065 40.2273 -0.0006
# 6 -0.0011 -0.0047 -0.0044 1.8299 -0.0006 21.6822
#
#
#
# Elastic Compliance Matrix: (Units=1/GPa)
#
#
# Indices 1 2 3 4 5 6 
#
# 1 0.018278 0.003952 -0.019393 -0.000018 0.001378 -0.000001
# 2 0.003952 0.017907 -0.021053 -0.000008 0.002573 0.000001
# 3 -0.019393 -0.021053 0.070055 0.000062 -0.009903 0.000003
# 4 -0.000018 -0.000008 0.000062 0.052088 -0.000001 -0.004396
# 5 0.001378 0.002573 -0.009903 -0.000001 0.026435 -0.000001
# 6 -0.000001 0.000001 0.000003 -0.004396 -0.000001 0.046492
#
#
# Mechanical properties :
#
#
# Convention : Reuss Voigt Hill
#
# Bulk Modulus (GPa) = 30.07280 37.88072 33.97676
# Shear Modulus (GPa) = 15.85658 24.91866 20.38762
#
# Velocity S-wave (km/s) = 2.69271 3.37558 3.05329
# Velocity P-wave (km/s) = 4.83931 5.70213 5.28835
#
# Compressibility (1/GPa) = 0.03325264
#
# Stress axis : x y z
#
# Youngs Moduli (GPa) = 54.71073 55.84303 14.27452
#
# Poissons Ratio (x) = -0.22071 0.27683
# Poissons Ratio (y) = -0.21623 0.30052
# Poissons Ratio (z) = 1.06102 1.17565
#
# Static dielectric constant tensor:
#      x y z
#    x 1.831800 0.000000 -0.035160 
#    y 0.000000 1.795800 0.000000 
#    z -0.035160 0.000000 1.842670 
# 
# From -- ./inp_files/302369.got.cif
#   From: 2010.05.17/outbox.cif.g08.bks.cpg/sg15_152_cif.got.tgz:302369.got - 2010.06.03 18:47:42.
