data_PCOD9283588
_publ_section_title
;
Structure prediction by ZEFSAII (Michael W. Deem and Ramdas Pophale) SiO2 
 PCOD9283588
Probable space group: C 2/C
;
_chemical_formula_sum "Si O2"
_cell_formula_units_Z 60
_cell_length_a 15.101586
_cell_length_b 19.448198
_cell_length_c 11.425227
_cell_angle_alpha 90.000000
_cell_angle_beta 90.025257
_cell_angle_gamma 90.000000
_cell_volume 3355.573244
_symmetry_space_group_name_H-M "C 2/C"
_symmetry_group_IT_number 15
_symmetry_cell_setting 'monoclinic'
loop_
_space_group_symop_operation_xyz
x,y,z
-x,y,1/2-z
-x,-y,-z
x,-y,1/2+z
1/2+x,1/2+y,z
1/2-x,1/2+y,1/2-z
1/2-x,1/2-y,-z
1/2+x,1/2-y,1/2+z
loop_
_atom_site_type_symbol
_atom_site_label
_atom_site_fract_x
_atom_site_fract_y
_atom_site_fract_z
Si Si1 0.068608 0.557955 0.045394
Si Si2 0.794128 0.580047 0.662834
Si Si3 0.000000 0.232449 0.750000
Si Si4 0.651477 0.308912 0.090356
Si Si5 0.191215 0.432054 0.763825
Si Si6 0.080856 0.663966 0.427565
Si Si7 0.900429 0.692738 0.803721
Si Si8 0.207174 0.196010 0.336755
O O1 0.113247 0.548271 0.171783
O O2 0.013541 0.627652 0.055475
O O3 0.144933 0.567446 0.950461
O O4 0.000000 0.500000 0.000000
O O5 0.712629 0.628129 0.629693
O O6 0.766407 0.504910 0.705501
O O7 0.853489 0.623615 0.754313
O O8 0.939880 0.191388 0.840810
O O9 0.934231 0.279028 0.671517
O O10 0.706582 0.239779 0.122762
O O11 0.645402 0.310431 0.950665
O O12 0.147007 0.393246 0.874629
O O13 0.257793 0.376967 0.707741
O O14 0.104180 0.691093 0.555800
O O15 0.844921 0.757629 0.756266
O O16 0.000000 0.694644 0.750000
#
# Coordination Sequence:
#
# PCOD9283588 Si02
#       8
#     8   8   4   8   8   8   8   8
#     4  12  21  35  57  90 130 162 194 241 312 376
#     4  11  24  37  60  89 124 161 199 247 309 372
#     4  12  22  40  64  88 112 160 216 250 300 362
#     4  10  21  40  63  87 116 163 207 252 297 369
#     4  12  23  38  58  91 127 162 201 249 309 372
#     4  12  22  34  56  91 122 153 204 254 297 365
#     4  11  23  37  57  89 121 158 203 251 305 361
#     4  10  21  41  62  84 124 162 200 252 311 360
#
# _framework density 17.880700999999998
#
# number of rings (size 3 to 8) (size 9 to 14) (size 15 to 20)
#    0.000    0.800    6.667    1.600    1.867    0.533 
#    0.000    0.000    1.467    0.800    0.000    0.000 
#    0.000    0.000    0.000    0.000    0.000    0.000 
#
# Total GULP energy -167576.577234 kJ/mol
# GULP energy per Si atom -5585.885908 kJ/mol
# Density = 1.784000 g / cm^3
# Si number density = 17.880701 Si / 1000 Ang^3
#
#
#
# Elastic Constant Matrix: (Units=GPa)
#
#
# Indices 1 2 3 4 5 6 
#
# 1 38.0823 27.8638 22.2863 0.0000 -18.9336 0.0000
# 2 27.8638 106.0150 36.2002 0.0000 -11.5040 0.0000
# 3 22.2863 36.2002 123.4198 0.0000 -4.9092 0.0000
# 4 0.0000 0.0000 0.0000 14.3061 0.0000 -5.4035
# 5 -18.9336 -11.5040 -4.9092 0.0000 28.6804 0.0000
# 6 0.0000 0.0000 0.0000 -5.4035 0.0000 30.0064
#
#
#
# Elastic Compliance Matrix: (Units=1/GPa)
#
#
# Indices 1 2 3 4 5 6 
#
# 1 0.049529 -0.008063 -0.005444 0.000000 0.028531 0.000000
# 2 -0.008063 0.012201 -0.002154 0.000000 -0.000798 0.000000
# 3 -0.005444 -0.002154 0.009605 0.000000 -0.002814 0.000000
# 4 0.000000 0.000000 0.000000 0.075002 0.000000 0.013506
# 5 0.028531 -0.000798 -0.002814 0.000000 0.052901 0.000000
# 6 0.000000 0.000000 0.000000 0.013506 0.000000 0.035758
#
#
# Mechanical properties :
#
#
# Convention : Reuss Voigt Hill
#
# Bulk Modulus (GPa) = 24.99175 48.91308 36.95242
# Shear Modulus (GPa) = 17.87912 26.67638 22.27775
#
# Velocity S-wave (km/s) = 3.16557 3.86671 3.53357
# Velocity P-wave (km/s) = 5.23148 6.88113 6.11221
#
# Compressibility (1/GPa) = 0.04001320
#
# Stress axis : x y z
#
# Youngs Moduli (GPa) = 20.19017 81.96132 104.10779
#
# Poissons Ratio (x) = 0.66084 0.56675
# Poissons Ratio (y) = 0.16279 0.22429
# Poissons Ratio (z) = 0.10991 0.17658
#
# Static dielectric constant tensor:
#      x y z
#    x 1.609120 0.000000 0.066060 
#    y 0.000000 1.618850 0.000000 
#    z 0.066060 0.000000 1.926380 
# 
# From -- ./inp_files/98332.got.cif
#   From: 2010.05.17/outbox.cif.g08.bks.cpg/sg15_50_cif.got.tgz:98332.got - 2010.06.03 18:47:42.
