data_PCOD9283232
_publ_section_title
;
Structure prediction by ZEFSAII (Michael W. Deem and Ramdas Pophale) SiO2 
 PCOD9283232
Probable space group: C 2/C
;
_chemical_formula_sum "Si O2"
_cell_formula_units_Z 40
_cell_length_a 19.946832
_cell_length_b 18.112055
_cell_length_c 9.899876
_cell_angle_alpha 90.000000
_cell_angle_beta 154.412194
_cell_angle_gamma 90.000000
_cell_volume 1544.715089
_symmetry_space_group_name_H-M "C 2/C"
_symmetry_group_IT_number 15
_symmetry_cell_setting 'monoclinic'
loop_
_space_group_symop_operation_xyz
x,y,z
-x,y,1/2-z
-x,-y,-z
x,-y,1/2+z
1/2+x,1/2+y,z
1/2-x,1/2+y,1/2-z
1/2-x,1/2-y,-z
1/2+x,1/2-y,1/2+z
loop_
_atom_site_type_symbol
_atom_site_label
_atom_site_fract_x
_atom_site_fract_y
_atom_site_fract_z
Si Si1 0.880756 0.364942 0.696385
Si Si2 0.729649 0.918313 0.393116
Si Si3 0.820308 0.484300 0.930138
Si Si4 0.386672 0.701597 0.653141
Si Si5 0.907560 0.780655 0.709235
O O1 0.825664 0.434729 0.511363
O O2 0.769873 0.344190 0.619121
O O3 0.864134 0.288816 0.580764
O O4 0.055058 0.385449 0.058048
O O5 0.847803 0.859545 0.550359
O O6 0.760997 0.932577 0.608371
O O7 0.736629 0.994338 0.321789
O O8 0.000000 0.460073 0.250000
O O9 0.500000 0.668552 0.750000
O O10 0.471219 0.706194 0.950595
O O11 0.750000 0.750000 0.500000
O O12 0.000000 0.744172 0.750000
#
# Coordination Sequence:
#
# PCOD9283232 Si02
#       5
#     8   8   8   8   8
#     4  10  21  40  66  98 144 180 235 286 355 412
#     4  11  23  45  70 102 139 184 239 290 348 417
#     4  10  21  39  69  97 135 183 236 286 342 413
#     4  11  24  40  68 102 142 187 234 291 365 420
#     4  12  28  47  71 109 147 186 235 300 363 422
#
# _framework density 25.894743999999999
#
# number of rings (size 3 to 8) (size 9 to 14) (size 15 to 20)
#    0.000    1.200    2.000    5.400    5.600    4.000 
#    0.000    5.000    0.000    0.000    0.000    0.000 
#    0.000    0.000    0.000    0.000    0.000    0.000 
#
# Total GULP energy -111849.024327 kJ/mol
# GULP energy per Si atom -5592.451216 kJ/mol
# Density = 2.583581 g / cm^3
# Si number density = 25.894744 Si / 1000 Ang^3
#
#
#
# Elastic Constant Matrix: (Units=GPa)
#
#
# Indices 1 2 3 4 5 6 
#
# 1 203.5533 18.3996 40.5680 0.0000 12.6719 0.0000
# 2 18.3996 82.2040 20.1253 0.0000 14.4591 0.0000
# 3 40.5680 20.1253 78.8463 0.0000 -6.4897 0.0000
# 4 0.0000 0.0000 0.0000 10.4705 0.0000 -3.4266
# 5 12.6719 14.4591 -6.4897 0.0000 42.1946 0.0000
# 6 0.0000 0.0000 0.0000 -3.4266 0.0000 32.3793
#
#
#
# Elastic Compliance Matrix: (Units=1/GPa)
#
#
# Indices 1 2 3 4 5 6 
#
# 1 0.005666 -0.000148 -0.003052 0.000000 -0.002120 0.000000
# 2 -0.000148 0.014122 -0.003973 0.000000 -0.005406 0.000000
# 3 -0.003052 -0.003973 0.015653 0.000000 0.004686 0.000000
# 4 0.000000 0.000000 0.000000 0.098933 0.000000 0.010470
# 5 -0.002120 -0.005406 0.004686 0.000000 0.026910 0.000000
# 6 0.000000 0.000000 0.000000 0.010470 0.000000 0.031992
#
#
# Mechanical properties :
#
#
# Convention : Reuss Voigt Hill
#
# Bulk Modulus (GPa) = 47.40668 58.08770 52.74719
# Shear Modulus (GPa) = 23.29333 36.04293 29.66813
#
# Velocity S-wave (km/s) = 3.00249 3.73487 3.38852
# Velocity P-wave (km/s) = 5.51063 6.40936 5.97691
#
# Compressibility (1/GPa) = 0.02109407
#
# Stress axis : x y z
#
# Youngs Moduli (GPa) = 176.47843 70.81360 63.88489
#
# Poissons Ratio (x) = 0.01049 0.19499
# Poissons Ratio (y) = 0.02613 0.25383
# Poissons Ratio (z) = 0.53865 0.28136
#
# Static dielectric constant tensor:
#      x y z
#    x 2.165910 0.000000 -0.016370 
#    y 0.000000 2.053420 0.000000 
#    z -0.016370 0.000000 2.001710 
# 
# From -- ./inp_files/50460.got.cif
#   From: 2010.05.17/outbox.cif.g08.bks.cpg/sg15_26_cif.got.tgz:50460.got - 2010.06.03 18:47:42.
