data_PCOD9283799
_publ_section_title
;
Structure prediction by ZEFSAII (Michael W. Deem and Ramdas Pophale) SiO2 
 PCOD9283799
Probable space group: C 2/C
;
_chemical_formula_sum "Si O2"
_cell_formula_units_Z 40
_cell_length_a 20.677584
_cell_length_b 22.222554
_cell_length_c 5.064065
_cell_angle_alpha 90.000000
_cell_angle_beta 132.551867
_cell_angle_gamma 90.000000
_cell_volume 1714.207304
_symmetry_space_group_name_H-M "C 2/C"
_symmetry_group_IT_number 15
_symmetry_cell_setting 'monoclinic'
loop_
_space_group_symop_operation_xyz
x,y,z
-x,y,1/2-z
-x,-y,-z
x,-y,1/2+z
1/2+x,1/2+y,z
1/2-x,1/2+y,1/2-z
1/2-x,1/2-y,-z
1/2+x,1/2-y,1/2+z
loop_
_atom_site_type_symbol
_atom_site_label
_atom_site_fract_x
_atom_site_fract_y
_atom_site_fract_z
Si Si1 0.845146 0.730791 0.390055
Si Si2 0.500000 0.143007 0.750000
Si Si3 0.095552 0.543207 0.703030
Si Si4 0.239923 0.637137 0.006350
Si Si5 0.851698 0.140507 0.818708
Si Si6 0.500000 0.457455 0.750000
O O1 0.818390 0.696102 0.585289
O O2 0.890109 0.795832 0.525103
O O3 0.915348 0.684866 0.453472
O O4 0.750000 0.750000 0.000000
O O5 0.470132 0.097516 0.898193
O O6 0.089091 0.493581 0.914582
O O7 0.187813 0.578067 0.949769
O O8 0.321889 0.643453 0.432040
O O9 0.268590 0.631514 0.784159
O O10 0.916658 0.085926 0.031576
O O11 0.500000 0.500000 0.500000
#
# Coordination Sequence:
#
# PCOD9283799 Si02
#       6
#     8   4   8   8   8   4
#     4   9  20  40  66  97 127 164 213 265 324 387
#     4  10  21  40  64  94 131 170 212 266 318 376
#     4  11  23  40  62  93 130 170 210 253 312 384
#     4  10  22  38  65  93 122 161 210 261 318 382
#     4  11  22  42  64  89 123 164 208 268 323 373
#     4  12  27  42  60  88 123 166 218 264 314 376
#
# _framework density 23.334398
#
# number of rings (size 3 to 8) (size 9 to 14) (size 15 to 20)
#    0.000    1.600    0.000    4.200    0.000    4.800 
#    0.000   10.000    0.000    0.000    0.000    0.000 
#    0.000    0.000    0.000    0.000    0.000    0.000 
#
# Total GULP energy -111742.305431 kJ/mol
# GULP energy per Si atom -5587.115272 kJ/mol
# Density = 2.328129 g / cm^3
# Si number density = 23.334398 Si / 1000 Ang^3
#
#
#
# Elastic Constant Matrix: (Units=GPa)
#
#
# Indices 1 2 3 4 5 6 
#
# 1 98.6164 62.1407 37.3752 0.0000 0.3822 0.0000
# 2 62.1407 201.3492 58.6432 0.0000 10.7946 0.0000
# 3 37.3752 58.6432 78.4332 0.0000 -10.3808 0.0000
# 4 0.0000 0.0000 0.0000 38.5674 0.0000 18.6964
# 5 0.3822 10.7946 -10.3808 0.0000 37.9248 0.0000
# 6 0.0000 0.0000 0.0000 18.6964 0.0000 33.3565
#
#
#
# Elastic Compliance Matrix: (Units=1/GPa)
#
#
# Indices 1 2 3 4 5 6 
#
# 1 0.013636 -0.002900 -0.004398 0.000000 -0.000516 0.000000
# 2 -0.002900 0.007370 -0.004568 0.000000 -0.003319 0.000000
# 3 -0.004398 -0.004568 0.019132 0.000000 0.006581 0.000000
# 4 0.000000 0.000000 0.000000 0.035602 0.000000 -0.019955
# 5 -0.000516 -0.003319 0.006581 0.000000 0.029119 0.000000
# 6 0.000000 0.000000 0.000000 -0.019955 0.000000 0.041164
#
#
# Mechanical properties :
#
#
# Convention : Reuss Voigt Hill
#
# Bulk Modulus (GPa) = 60.95117 77.19078 69.07097
# Shear Modulus (GPa) = 28.53499 36.65240 32.59370
#
# Velocity S-wave (km/s) = 3.50075 3.96756 3.74145
# Velocity P-wave (km/s) = 6.52057 7.35804 6.95193
#
# Compressibility (1/GPa) = 0.01640658
#
# Stress axis : x y z
#
# Youngs Moduli (GPa) = 73.33271 135.69089 52.26935
#
# Poissons Ratio (x) = 0.39349 0.22989
# Poissons Ratio (y) = 0.21266 0.23874
# Poissons Ratio (z) = 0.32253 0.61978
#
# Static dielectric constant tensor:
#      x y z
#    x 1.881440 0.000000 0.066540 
#    y 0.000000 1.869770 0.000000 
#    z 0.066540 0.000000 1.987810 
# 
# From -- ./inp_files/9879.got.cif
#   From: 2010.05.17/outbox.cif.g08.bks.cpg/sg15_5_cif.got.tgz:9879.got - 2010.06.03 18:47:42.
