data_PCOD9283373
_publ_section_title
;
Structure prediction by ZEFSAII (Michael W. Deem and Ramdas Pophale) SiO2 
 PCOD9283373
Probable space group: C 2/C
;
_chemical_formula_sum "Si O2"
_cell_formula_units_Z 56
_cell_length_a 12.127154
_cell_length_b 24.431034
_cell_length_c 10.977649
_cell_angle_alpha 90.000000
_cell_angle_beta 49.891758
_cell_angle_gamma 90.000000
_cell_volume 2487.564085
_symmetry_space_group_name_H-M "C 2/C"
_symmetry_group_IT_number 15
_symmetry_cell_setting 'monoclinic'
loop_
_space_group_symop_operation_xyz
x,y,z
-x,y,1/2-z
-x,-y,-z
x,-y,1/2+z
1/2+x,1/2+y,z
1/2-x,1/2+y,1/2-z
1/2-x,1/2-y,-z
1/2+x,1/2-y,1/2+z
loop_
_atom_site_type_symbol
_atom_site_label
_atom_site_fract_x
_atom_site_fract_y
_atom_site_fract_z
Si Si1 0.031328 0.296488 0.866594
Si Si2 0.160721 0.512058 0.423156
Si Si3 0.700879 0.500919 0.923583
Si Si4 0.238774 0.863448 0.643050
Si Si5 0.581208 0.617963 0.032511
Si Si6 0.714780 0.296317 0.125337
Si Si7 0.941678 0.105374 0.905335
O O1 0.158080 0.325610 0.851273
O O2 0.097767 0.235659 0.792858
O O3 0.000000 0.318670 0.750000
O O4 0.881271 0.305013 0.048260
O O5 0.188621 0.494710 0.542517
O O6 0.249846 0.485124 0.248369
O O7 0.194435 0.576323 0.396095
O O8 0.000000 0.500000 0.500000
O O9 0.603343 0.552411 0.034689
O O10 0.637902 0.440055 0.960162
O O11 0.206277 0.853480 0.522174
O O12 0.076213 0.863219 0.811322
O O13 0.572439 0.627319 0.894694
O O14 0.651424 0.347302 0.092377
O O15 0.750000 0.250000 0.000000
O O16 0.000000 0.071217 0.750000
#
# Coordination Sequence:
#
# PCOD9283373 Si02
#       7
#     8   8   8   8   8   8   8
#     4  10  21  40  67  97 130 165 220 283 350 399
#     4  11  24  39  59  91 138 180 229 276 338 406
#     4  11  24  39  62  96 135 184 229 281 328 414
#     4  10  22  38  67  91 128 183 214 273 339 417
#     4  10  21  40  60  93 134 171 224 265 337 411
#     4  10  22  39  65  96 130 160 221 298 340 396
#     4  12  23  36  67 100 130 176 232 288 346 394
#
# _framework density 22.511983000000001
#
# number of rings (size 3 to 8) (size 9 to 14) (size 15 to 20)
#    0.000    1.429    1.429    4.714    6.000    0.000 
#    0.000    0.000    0.000   24.857    0.000    0.000 
#    0.000    0.000    0.000    0.000    0.000    0.000 
#
# Total GULP energy -155952.854940 kJ/mol
# GULP energy per Si atom -5569.744819 kJ/mol
# Density = 2.246075 g / cm^3
# Si number density = 22.511983 Si / 1000 Ang^3
#
#
#
# Elastic Constant Matrix: (Units=GPa)
#
#
# Indices 1 2 3 4 5 6 
#
# 1 222.5535 54.8840 37.2653 0.0000 13.3928 0.0000
# 2 54.8840 74.7914 1.8125 0.0000 2.9810 0.0000
# 3 37.2653 1.8125 48.4864 0.0000 8.3729 0.0000
# 4 0.0000 0.0000 0.0000 3.2581 0.0000 -4.0345
# 5 13.3928 2.9810 8.3729 0.0000 42.9988 0.0000
# 6 0.0000 0.0000 0.0000 -4.0345 0.0000 35.8068
#
#
#
# Elastic Compliance Matrix: (Units=1/GPa)
#
#
# Indices 1 2 3 4 5 6 
#
# 1 0.006451 -0.004590 -0.004651 0.000000 -0.000785 0.000000
# 2 -0.004590 0.016679 0.002957 0.000000 -0.000302 0.000000
# 3 -0.004651 0.002957 0.024705 0.000000 -0.003567 0.000000
# 4 0.000000 0.000000 0.000000 0.356701 0.000000 0.040191
# 5 -0.000785 -0.000302 -0.003567 0.000000 0.024217 0.000000
# 6 0.000000 0.000000 0.000000 0.040191 0.000000 0.032456
#
#
# Mechanical properties :
#
#
# Convention : Reuss Voigt Hill
#
# Bulk Modulus (GPa) = 28.35605 59.30609 43.83107
# Shear Modulus (GPa) = 10.29795 33.20403 21.75099
#
# Velocity S-wave (km/s) = 2.14111 3.84467 3.11174
# Velocity P-wave (km/s) = 4.32849 6.79044 5.69412
#
# Compressibility (1/GPa) = 0.03526585
#
# Stress axis : x y z
#
# Youngs Moduli (GPa) = 155.00621 59.95447 40.47845
#
# Poissons Ratio (x) = 0.27520 0.18827
# Poissons Ratio (y) = 0.71150 -0.11968
# Poissons Ratio (z) = 0.72095 -0.17726
#
# Static dielectric constant tensor:
#      x y z
#    x 1.947340 0.000000 -0.000590 
#    y 0.000000 1.853960 0.000000 
#    z -0.000590 0.000000 2.227020 
# 
# From -- ./inp_files/90719.got.cif
#   From: 2010.05.17/outbox.cif.g08.bks.cpg/sg15_46_cif.got.tgz:90719.got - 2010.06.03 18:47:42.
