data_PCOD9283433
_publ_section_title
;
Structure prediction by ZEFSAII (Michael W. Deem and Ramdas Pophale) SiO2 
 PCOD9283433
Probable space group: C 2/C
;
_chemical_formula_sum "Si O2"
_cell_formula_units_Z 48
_cell_length_a 10.244598
_cell_length_b 9.890700
_cell_length_c 19.955257
_cell_angle_alpha 90.000000
_cell_angle_beta 78.974261
_cell_angle_gamma 90.000000
_cell_volume 1984.668074
_symmetry_space_group_name_H-M "C 2/C"
_symmetry_group_IT_number 15
_symmetry_cell_setting 'monoclinic'
loop_
_space_group_symop_operation_xyz
x,y,z
-x,y,1/2-z
-x,-y,-z
x,-y,1/2+z
1/2+x,1/2+y,z
1/2-x,1/2+y,1/2-z
1/2-x,1/2-y,-z
1/2+x,1/2-y,1/2+z
loop_
_atom_site_type_symbol
_atom_site_label
_atom_site_fract_x
_atom_site_fract_y
_atom_site_fract_z
Si Si1 0.889801 0.465511 0.701638
Si Si2 0.278225 0.666233 0.703606
Si Si3 0.553626 0.312399 0.535410
Si Si4 0.617664 0.067786 0.598297
Si Si5 0.743551 0.713887 0.422549
Si Si6 0.032804 0.912769 0.102959
O O1 0.788693 0.584930 0.729516
O O2 0.817804 0.321458 0.708803
O O3 0.025740 0.501315 0.872805
O O4 0.000000 0.458200 0.750000
O O5 0.167723 0.656425 0.655875
O O6 0.411225 0.587643 0.666489
O O7 0.627837 0.170188 0.535558
O O8 0.409130 0.276849 0.582095
O O9 0.529566 0.353759 0.460792
O O10 0.595200 0.444312 0.573742
O O11 0.714464 0.940959 0.586420
O O12 0.750000 0.750000 0.500000
O O13 0.854927 0.810915 0.381232
#
# Coordination Sequence:
#
# PCOD9283433 Si02
#       6
#     8   8   8   8   8   8
#     4  10  25  45  65  89 125 168 213 270 318 373
#     4  11  23  45  66  91 127 164 217 266 318 370
#     4  10  23  40  64  96 133 167 202 258 319 384
#     4  11  23  42  67  94 129 165 211 263 317 383
#     4  10  21  40  61  91 131 168 202 250 309 379
#     4  10  21  41  63  94 131 167 209 256 316 381
#
# _framework density 24.185404999999999
#
# number of rings (size 3 to 8) (size 9 to 14) (size 15 to 20)
#    0.000    1.667    3.333    0.000    2.333    4.667 
#    3.000    0.000    0.000    0.000    0.000    0.000 
#    0.000    0.000    0.000    0.000    0.000    0.000 
#
# Total GULP energy -134252.806152 kJ/mol
# GULP energy per Si atom -5593.866923 kJ/mol
# Density = 2.413036 g / cm^3
# Si number density = 24.185405 Si / 1000 Ang^3
#
#
#
# Elastic Constant Matrix: (Units=GPa)
#
#
# Indices 1 2 3 4 5 6 
#
# 1 59.6544 35.4755 5.2161 0.0000 -14.1032 0.0000
# 2 35.4755 134.0665 11.9106 0.0000 24.9056 0.0000
# 3 5.2161 11.9106 32.3993 0.0000 -4.4781 0.0000
# 4 0.0000 0.0000 0.0000 31.4385 0.0000 -0.7978
# 5 -14.1032 24.9056 -4.4781 0.0000 28.0471 0.0000
# 6 0.0000 0.0000 0.0000 -0.7978 0.0000 40.4432
#
#
#
# Elastic Compliance Matrix: (Units=1/GPa)
#
#
# Indices 1 2 3 4 5 6 
#
# 1 0.031766 -0.014209 0.004153 0.000000 0.029254 0.000000
# 2 -0.014209 0.015973 -0.006680 0.000000 -0.022395 0.000000
# 3 0.004153 -0.006680 0.034522 0.000000 0.013532 0.000000
# 4 0.000000 0.000000 0.000000 0.031824 0.000000 0.000628
# 5 0.029254 -0.022395 0.013532 0.000000 0.072412 0.000000
# 6 0.000000 0.000000 0.000000 0.000628 0.000000 0.024738
#
#
# Mechanical properties :
#
#
# Convention : Reuss Voigt Hill
#
# Bulk Modulus (GPa) = 20.49645 36.81385 28.65515
# Shear Modulus (GPa) = 19.15926 31.55360 25.35643
#
# Velocity S-wave (km/s) = 2.81763 3.61592 3.24144
# Velocity P-wave (km/s) = 4.36789 5.71732 5.08754
#
# Compressibility (1/GPa) = 0.04878893
#
# Stress axis : x y z
#
# Youngs Moduli (GPa) = 31.47998 62.60694 28.96694
#
# Poissons Ratio (x) = 0.88959 -0.12029
# Poissons Ratio (y) = 0.44730 0.19349
# Poissons Ratio (z) = -0.13073 0.41819
#
# Static dielectric constant tensor:
#      x y z
#    x 1.954260 0.000000 -0.022970 
#    y 0.000000 1.913810 0.000000 
#    z -0.022970 0.000000 1.940280 
# 
# From -- ./inp_files/267651.got.cif
#   From: 2010.05.17/outbox.cif.g08.bks.cpg/sg15_134_cif.got.tgz:267651.got - 2010.06.03 18:47:42.
