data_PCOD9283023
_publ_section_title
;
Structure prediction by ZEFSAII (Michael W. Deem and Ramdas Pophale) SiO2 
 PCOD9283023
Probable space group: C 2/C
;
_chemical_formula_sum "Si O2"
_cell_formula_units_Z 48
_cell_length_a 26.743850
_cell_length_b 6.286718
_cell_length_c 16.725774
_cell_angle_alpha 90.000000
_cell_angle_beta 116.782513
_cell_angle_gamma 90.000000
_cell_volume 2510.446926
_symmetry_space_group_name_H-M "C 2/C"
_symmetry_group_IT_number 15
_symmetry_cell_setting 'monoclinic'
loop_
_space_group_symop_operation_xyz
x,y,z
-x,y,1/2-z
-x,-y,-z
x,-y,1/2+z
1/2+x,1/2+y,z
1/2-x,1/2+y,1/2-z
1/2-x,1/2-y,-z
1/2+x,1/2-y,1/2+z
loop_
_atom_site_type_symbol
_atom_site_label
_atom_site_fract_x
_atom_site_fract_y
_atom_site_fract_z
Si Si1 0.521127 0.194179 0.959582
Si Si2 0.374823 0.042439 0.004258
Si Si3 0.413423 0.415434 0.907507
Si Si4 0.269706 0.235704 0.375883
Si Si5 0.189850 0.108187 0.759857
Si Si6 0.290735 0.894223 0.582796
O O1 0.462488 0.299142 0.892577
O O2 0.556059 0.384827 0.027299
O O3 0.500000 0.000000 0.000000
O O4 0.566949 0.079153 0.938212
O O5 0.387309 0.245862 0.954066
O O6 0.329374 0.880837 0.931770
O O7 0.344947 0.089558 0.065959
O O8 0.366486 0.508858 0.815773
O O9 0.273467 0.343072 0.291832
O O10 0.248592 0.404748 0.424877
O O11 0.222343 0.059339 0.337252
O O12 0.187596 0.310062 0.815966
O O13 0.250000 0.750000 0.500000
#
# Coordination Sequence:
#
# PCOD9283023 Si02
#       6
#     8   8   8   8   8   8
#     4   9  20  38  67  92 118 162 219 264 309 378
#     4  11  22  39  64  93 130 164 209 266 323 383
#     4  10  21  39  66  95 118 164 221 260 317 381
#     4  12  23  40  61  94 127 165 208 255 321 393
#     4  12  23  37  62  90 129 162 209 263 314 387
#     4  12  26  38  58  96 130 168 208 255 329 391
#
# _framework density 19.120101999999999
#
# number of rings (size 3 to 8) (size 9 to 14) (size 15 to 20)
#    0.000    1.000    5.000    2.500    0.000    0.000 
#    0.000    0.000    0.000   24.000    0.000    0.000 
#    0.000    0.000    0.000    0.000    0.000    0.000 
#
# Total GULP energy -133675.848750 kJ/mol
# GULP energy per Si atom -5569.827031 kJ/mol
# Density = 1.907658 g / cm^3
# Si number density = 19.120102 Si / 1000 Ang^3
#
#
#
# Elastic Constant Matrix: (Units=GPa)
#
#
# Indices 1 2 3 4 5 6 
#
# 1 151.1188 52.0764 37.3502 0.0000 -10.4600 0.0000
# 2 52.0764 96.1302 29.3264 0.0000 -6.8242 0.0000
# 3 37.3502 29.3264 55.4943 0.0000 -16.1232 0.0000
# 4 0.0000 0.0000 0.0000 40.4352 0.0000 -3.2751
# 5 -10.4600 -6.8242 -16.1232 0.0000 16.7564 0.0000
# 6 0.0000 0.0000 0.0000 -3.2751 0.0000 41.1120
#
#
#
# Elastic Compliance Matrix: (Units=1/GPa)
#
#
# Indices 1 2 3 4 5 6 
#
# 1 0.008849 -0.003554 -0.004016 0.000000 0.000212 0.000000
# 2 -0.003554 0.013866 -0.005468 0.000000 -0.001833 0.000000
# 3 -0.004016 -0.005468 0.030866 0.000000 0.024966 0.000000
# 4 0.000000 0.000000 0.000000 0.024892 0.000000 0.001983
# 5 0.000212 -0.001833 0.024966 0.000000 0.083087 0.000000
# 6 0.000000 0.000000 0.000000 0.001983 0.000000 0.024482
#
#
# Mechanical properties :
#
#
# Convention : Reuss Voigt Hill
#
# Bulk Modulus (GPa) = 36.35720 60.02769 48.19245
# Shear Modulus (GPa) = 22.59515 31.92675 27.26095
#
# Velocity S-wave (km/s) = 3.44139 4.09075 3.78004
# Velocity P-wave (km/s) = 5.90316 7.33318 6.65668
#
# Compressibility (1/GPa) = 0.02750486
#
# Stress axis : x y z
#
# Youngs Moduli (GPa) = 113.00388 72.12046 32.39771
#
# Poissons Ratio (x) = 0.25628 0.13012
# Poissons Ratio (y) = 0.40156 0.17716
# Poissons Ratio (z) = 0.45387 0.39437
#
# Static dielectric constant tensor:
#      x y z
#    x 1.704210 0.000000 0.010200 
#    y 0.000000 1.814450 0.000000 
#    z 0.010200 0.000000 1.647150 
# 
# From -- ./inp_files/217821.got.cif
#   From: 2010.05.17/outbox.cif.g08.bks.cpg/sg15_109_cif.got.tgz:217821.got - 2010.06.03 18:47:42.
