data_PCOD9283905
_publ_section_title
;
Structure prediction by ZEFSAII (Michael W. Deem and Ramdas Pophale) SiO2 
 PCOD9283905
Probable space group: C 2/C
;
_chemical_formula_sum "Si O2"
_cell_formula_units_Z 44
_cell_length_a 12.119918
_cell_length_b 18.853677
_cell_length_c 9.050973
_cell_angle_alpha 90.000000
_cell_angle_beta 62.564552
_cell_angle_gamma 90.000000
_cell_volume 1835.584147
_symmetry_space_group_name_H-M "C 2/C"
_symmetry_group_IT_number 15
_symmetry_cell_setting 'monoclinic'
loop_
_space_group_symop_operation_xyz
x,y,z
-x,y,1/2-z
-x,-y,-z
x,-y,1/2+z
1/2+x,1/2+y,z
1/2-x,1/2+y,1/2-z
1/2-x,1/2-y,-z
1/2+x,1/2-y,1/2+z
loop_
_atom_site_type_symbol
_atom_site_label
_atom_site_fract_x
_atom_site_fract_y
_atom_site_fract_z
Si Si1 0.914717 0.401739 0.532821
Si Si2 0.259962 0.201025 0.303172
Si Si3 0.041440 0.111889 0.384526
Si Si4 0.681660 0.151253 0.916523
Si Si5 0.379981 0.458891 0.217430
Si Si6 0.500000 0.000827 0.250000
O O1 0.815205 0.341898 0.631908
O O2 0.934720 0.451852 0.664808
O O3 0.047894 0.363582 0.432285
O O4 0.901732 0.451558 0.398349
O O5 0.120049 0.172279 0.415268
O O6 0.332992 0.178386 0.405955
O O7 0.254512 0.285011 0.291850
O O8 0.000000 0.136695 0.250000
O O9 0.923309 0.082640 0.545066
O O10 0.129727 0.042092 0.311718
O O11 0.762870 0.079991 0.859248
O O12 0.500000 0.453316 0.250000
#
# Coordination Sequence:
#
# PCOD9283905 Si02
#       6
#     8   8   8   8   8   4
#     4  11  24  45  67 105 129 176 221 272 337 389
#     4  11  24  41  68  95 135 172 218 270 322 403
#     4  10  23  41  64  96 127 167 216 273 320 373
#     4  11  24  40  70  95 132 178 213 271 323 398
#     4  10  21  40  65  92 127 169 219 261 316 387
#     4  10  24  42  70  96 140 166 216 284 318 402
#
# _framework density 23.970569999999999
#
# number of rings (size 3 to 8) (size 9 to 14) (size 15 to 20)
#    0.000    1.455    3.636    0.000    7.636    1.455 
#    1.636    1.818    0.000    0.000    0.000    0.000 
#    0.000    0.000    0.000    0.000    0.000    0.000 
#
# Total GULP energy -123170.816550 kJ/mol
# GULP energy per Si atom -5598.673480 kJ/mol
# Density = 2.391601 g / cm^3
# Si number density = 23.970570 Si / 1000 Ang^3
#
#
#
# Elastic Constant Matrix: (Units=GPa)
#
#
# Indices 1 2 3 4 5 6 
#
# 1 35.2959 5.6831 -3.2492 0.0000 -9.2953 0.0000
# 2 5.6831 104.4652 30.2784 0.0000 -14.5908 0.0000
# 3 -3.2492 30.2784 74.4490 0.0000 5.4338 0.0000
# 4 0.0000 0.0000 0.0000 31.5555 0.0000 -17.2028
# 5 -9.2953 -14.5908 5.4338 0.0000 34.6933 0.0000
# 6 0.0000 0.0000 0.0000 -17.2028 0.0000 20.1440
#
#
#
# Elastic Compliance Matrix: (Units=1/GPa)
#
#
# Indices 1 2 3 4 5 6 
#
# 1 0.030597 -0.000936 0.001160 0.000000 0.007622 0.000000
# 2 -0.000936 0.011945 -0.005308 0.000000 0.005604 0.000000
# 3 0.001160 -0.005308 0.015964 0.000000 -0.004422 0.000000
# 4 0.000000 0.000000 0.000000 0.059296 0.000000 0.050639
# 5 0.007622 0.005604 -0.004422 0.000000 0.033916 0.000000
# 6 0.000000 0.000000 0.000000 0.050639 0.000000 0.092888
#
#
# Mechanical properties :
#
#
# Convention : Reuss Voigt Hill
#
# Bulk Modulus (GPa) = 20.68796 31.07051 25.87923
# Shear Modulus (GPa) = 18.45797 29.37841 23.91819
#
# Velocity S-wave (km/s) = 2.77795 3.50466 3.16225
# Velocity P-wave (km/s) = 4.35185 5.41913 4.91455
#
# Compressibility (1/GPa) = 0.04833730
#
# Stress axis : x y z
#
# Youngs Moduli (GPa) = 32.68317 83.71970 62.64084
#
# Poissons Ratio (x) = 0.07836 -0.07264
# Poissons Ratio (y) = 0.03059 0.33248
# Poissons Ratio (z) = -0.03790 0.44436
#
# Static dielectric constant tensor:
#      x y z
#    x 1.903830 0.000000 0.003940 
#    y 0.000000 1.894810 0.000000 
#    z 0.003940 0.000000 1.966100 
# 
# From -- ./inp_files/39560.got.cif
#   From: 2010.05.17/outbox.cif.g08.bks.cpg/sg15_20_cif.got.tgz:39560.got - 2010.06.03 18:47:42.
