data_PCOD9283784
_publ_section_title
;
Structure prediction by ZEFSAII (Michael W. Deem and Ramdas Pophale) SiO2 
 PCOD9283784
Probable space group: C 2/C
;
_chemical_formula_sum "Si O2"
_cell_formula_units_Z 56
_cell_length_a 22.698537
_cell_length_b 7.863475
_cell_length_c 31.512068
_cell_angle_alpha 90.000000
_cell_angle_beta 151.761315
_cell_angle_gamma 90.000000
_cell_volume 2661.240816
_symmetry_space_group_name_H-M "C 2/C"
_symmetry_group_IT_number 15
_symmetry_cell_setting 'monoclinic'
loop_
_space_group_symop_operation_xyz
x,y,z
-x,y,1/2-z
-x,-y,-z
x,-y,1/2+z
1/2+x,1/2+y,z
1/2-x,1/2+y,1/2-z
1/2-x,1/2-y,-z
1/2+x,1/2-y,1/2+z
loop_
_atom_site_type_symbol
_atom_site_label
_atom_site_fract_x
_atom_site_fract_y
_atom_site_fract_z
Si Si1 0.306697 0.111142 0.476886
Si Si2 0.073088 0.101935 0.387783
Si Si3 0.147499 0.487033 0.587103
Si Si4 0.865181 0.041284 0.865156
Si Si5 0.173334 0.812204 0.736189
Si Si6 0.146771 0.234488 0.969855
Si Si7 0.856994 0.854178 0.945087
O O1 0.165837 0.095016 0.406292
O O2 0.360788 0.275291 0.535388
O O3 0.319834 0.120955 0.434497
O O4 0.379553 0.932074 0.534682
O O5 0.937432 0.185343 0.299652
O O6 0.053257 0.907180 0.391607
O O7 0.217575 0.419607 0.672449
O O8 0.187747 0.678806 0.603220
O O9 0.000000 0.500000 0.500000
O O10 0.742795 0.137206 0.772055
O O11 0.879270 0.886136 0.841297
O O12 0.842152 0.991358 0.899329
O O13 0.995122 0.144447 0.948951
O O14 0.250000 0.250000 0.000000
O O15 0.203798 0.141102 0.047457
#
# Coordination Sequence:
#
# PCOD9283784 Si02
#       7
#     8   8   8   8   8   8   8
#     4   9  22  39  65  92 121 169 215 254 321 395
#     4  10  21  40  64  93 124 164 211 271 316 384
#     4  11  23  39  62  89 126 168 209 261 325 392
#     4  11  24  37  60  94 127 165 207 271 322 396
#     4  12  25  38  61  95 127 165 215 276 329 383
#     4   9  18  37  66  92 117 161 211 254 310 386
#     4  10  21  41  60  87 127 166 210 253 328 394
#
# _framework density 21.042815000000001
#
# number of rings (size 3 to 8) (size 9 to 14) (size 15 to 20)
#    0.000    1.714    2.857    0.857    6.000    0.571 
#    2.571    0.000    0.000    0.000    0.000    0.000 
#    0.000    0.000    0.000    0.000    0.000    0.000 
#
# Total GULP energy -155954.213879 kJ/mol
# GULP energy per Si atom -5569.793353 kJ/mol
# Density = 2.099492 g / cm^3
# Si number density = 21.042815 Si / 1000 Ang^3
#
#
#
# Elastic Constant Matrix: (Units=GPa)
#
#
# Indices 1 2 3 4 5 6 
#
# 1 127.7479 22.6395 22.5981 -0.0002 -11.6821 -0.0008
# 2 22.6395 49.9666 4.1438 -0.0010 1.9215 -0.0017
# 3 22.5981 4.1438 50.6979 0.0003 7.3570 0.0004
# 4 -0.0002 -0.0010 0.0003 24.3954 0.0000 -5.4604
# 5 -11.6821 1.9215 7.3570 0.0000 23.4626 -0.0002
# 6 -0.0008 -0.0017 0.0004 -5.4604 -0.0002 33.5771
#
#
#
# Elastic Compliance Matrix: (Units=1/GPa)
#
#
# Indices 1 2 3 4 5 6 
#
# 1 0.010183 -0.004454 -0.005200 0.000000 0.007066 0.000000
# 2 -0.004454 0.022130 0.000798 0.000001 -0.004280 0.000001
# 3 -0.005200 0.000798 0.023429 0.000000 -0.010001 -0.000001
# 4 0.000000 0.000001 0.000000 0.042540 0.000000 0.006918
# 5 0.007066 -0.004280 -0.010001 0.000000 0.049626 0.000000
# 6 0.000000 0.000001 -0.000001 0.006918 0.000000 0.030907
#
#
# Mechanical properties :
#
#
# Convention : Reuss Voigt Hill
#
# Bulk Modulus (GPa) = 26.29622 36.35280 31.32451
# Shear Modulus (GPa) = 23.89999 28.22241 26.06120
#
# Velocity S-wave (km/s) = 3.37379 3.66620 3.52303
# Velocity P-wave (km/s) = 5.26310 5.93587 5.60958
#
# Compressibility (1/GPa) = 0.03802828
#
# Stress axis : x y z
#
# Youngs Moduli (GPa) = 98.19879 45.18732 42.68252
#
# Poissons Ratio (x) = 0.20129 0.22197
# Poissons Ratio (y) = 0.43742 -0.03406
# Poissons Ratio (z) = 0.51068 -0.03605
#
# Static dielectric constant tensor:
#      x y z
#    x 3.002480 0.000010 -0.491400 
#    y 0.000010 1.864370 -0.000010 
#    z -0.491400 -0.000010 1.941300 
# 
# From -- ./inp_files/317548.got.cif
#   From: 2010.05.17/outbox.cif.g08.bks.cpg/sg15_159_cif.got.tgz:317548.got - 2010.06.03 18:47:42.
