data_PCOD9283735
_publ_section_title
;
Structure prediction by ZEFSAII (Michael W. Deem and Ramdas Pophale) SiO2 
 PCOD9283735
Probable space group: C 2/C
;
_chemical_formula_sum "Si O2"
_cell_formula_units_Z 40
_cell_length_a 11.527282
_cell_length_b 15.721186
_cell_length_c 23.474104
_cell_angle_alpha 90.000000
_cell_angle_beta 29.537674
_cell_angle_gamma 90.000000
_cell_volume 2097.222061
_symmetry_space_group_name_H-M "C 2/C"
_symmetry_group_IT_number 15
_symmetry_cell_setting 'monoclinic'
loop_
_space_group_symop_operation_xyz
x,y,z
-x,y,1/2-z
-x,-y,-z
x,-y,1/2+z
1/2+x,1/2+y,z
1/2-x,1/2+y,1/2-z
1/2-x,1/2-y,-z
1/2+x,1/2-y,1/2+z
loop_
_atom_site_type_symbol
_atom_site_label
_atom_site_fract_x
_atom_site_fract_y
_atom_site_fract_z
Si Si1 0.097222 0.668782 0.765786
Si Si2 0.853377 0.949958 0.013135
Si Si3 0.372665 0.379538 0.454517
Si Si4 0.509462 0.724026 0.406984
Si Si5 0.799390 0.758290 0.383389
O O1 0.349752 0.625871 0.649119
O O2 0.147586 0.735784 0.795002
O O3 0.000000 0.712367 0.750000
O O4 0.889715 0.599511 0.866954
O O5 0.016695 0.876311 0.916070
O O6 0.793771 0.023878 0.994115
O O7 0.000000 0.000000 0.000000
O O8 0.237521 0.321249 0.558600
O O9 0.337023 0.338493 0.407913
O O10 0.572851 0.766820 0.439829
O O11 0.250000 0.750000 0.500000
O O12 0.000000 0.744429 0.250000
#
# Coordination Sequence:
#
# PCOD9283735 Si02
#       5
#     8   8   8   8   8
#     4  11  21  39  64  88 132 167 213 270 321 383
#     4  11  21  38  63  95 126 164 226 266 319 375
#     4  11  23  39  62 102 124 166 216 270 321 381
#     4  10  21  40  64  89 127 172 210 265 325 387
#     4  11  22  40  66  91 132 168 214 259 329 389
#
# _framework density 19.072849999999999
#
# number of rings (size 3 to 8) (size 9 to 14) (size 15 to 20)
#    0.000    1.200    6.000    1.200    0.000    2.400 
#    0.000    5.000    0.000    0.000    0.000    0.000 
#    0.000    0.000    0.000    0.000    0.000    0.000 
#
# Total GULP energy -111430.359499 kJ/mol
# GULP energy per Si atom -5571.517975 kJ/mol
# Density = 1.902944 g / cm^3
# Si number density = 19.072850 Si / 1000 Ang^3
#
#
#
# Elastic Constant Matrix: (Units=GPa)
#
#
# Indices 1 2 3 4 5 6 
#
# 1 135.5910 57.6561 23.7099 -0.0001 11.6140 -0.0001
# 2 57.6561 128.9723 44.0139 -0.0033 17.9118 -0.0010
# 3 23.7099 44.0139 85.4515 0.0022 17.3195 -0.0077
# 4 -0.0001 -0.0033 0.0022 26.7522 -0.0075 4.5029
# 5 11.6140 17.9118 17.3195 -0.0075 29.8206 -0.0011
# 6 -0.0001 -0.0010 -0.0077 4.5029 -0.0011 35.1235
#
#
#
# Elastic Compliance Matrix: (Units=1/GPa)
#
#
# Indices 1 2 3 4 5 6 
#
# 1 0.009154 -0.003823 -0.000355 -0.000001 -0.001062 0.000000
# 2 -0.003823 0.011284 -0.004170 0.000001 -0.002867 -0.000001
# 3 -0.000355 -0.004170 0.015203 -0.000004 -0.006187 0.000004
# 4 -0.000001 0.000001 -0.000004 0.038204 0.000011 -0.004898
# 5 -0.001062 -0.002867 -0.006187 0.000011 0.039263 -0.000002
# 6 0.000000 -0.000001 0.000004 -0.004898 -0.000002 0.029099
#
#
# Mechanical properties :
#
#
# Convention : Reuss Voigt Hill
#
# Bulk Modulus (GPa) = 52.78938 66.75273 59.77105
# Shear Modulus (GPa) = 30.26277 33.31494 31.78885
#
# Velocity S-wave (km/s) = 3.98765 4.18391 4.08696
# Velocity P-wave (km/s) = 6.99569 7.64297 7.32648
#
# Compressibility (1/GPa) = 0.01894321
#
# Stress axis : x y z
#
# Youngs Moduli (GPa) = 109.24124 88.61970 65.77641
#
# Poissons Ratio (x) = 0.33884 0.02337
# Poissons Ratio (y) = 0.41768 0.27431
# Poissons Ratio (z) = 0.03881 0.36957
#
# Static dielectric constant tensor:
#      x y z
#    x 1.709190 0.000000 0.004730 
#    y 0.000000 1.691650 0.000000 
#    z 0.004730 0.000000 1.816560 
# 
# From -- ./inp_files/142812.got.cif
#   From: 2010.05.17/outbox.cif.g08.bks.cpg/sg15_72_cif.got.tgz:142812.got - 2010.06.03 18:47:42.
