data_PCOD9283317
_publ_section_title
;
Structure prediction by ZEFSAII (Michael W. Deem and Ramdas Pophale) SiO2 
 PCOD9283317
Probable space group: C 2/C
;
_chemical_formula_sum "Si O2"
_cell_formula_units_Z 64
_cell_length_a 15.173257
_cell_length_b 27.031931
_cell_length_c 9.509540
_cell_angle_alpha 90.000000
_cell_angle_beta 114.007293
_cell_angle_gamma 90.000000
_cell_volume 3563.041983
_symmetry_space_group_name_H-M "C 2/C"
_symmetry_group_IT_number 15
_symmetry_cell_setting 'monoclinic'
loop_
_space_group_symop_operation_xyz
x,y,z
-x,y,1/2-z
-x,-y,-z
x,-y,1/2+z
1/2+x,1/2+y,z
1/2-x,1/2+y,1/2-z
1/2-x,1/2-y,-z
1/2+x,1/2-y,1/2+z
loop_
_atom_site_type_symbol
_atom_site_label
_atom_site_fract_x
_atom_site_fract_y
_atom_site_fract_z
Si Si1 0.190972 0.657143 0.619904
Si Si2 0.114057 0.551923 0.665908
Si Si3 0.882221 0.547034 0.500676
Si Si4 0.114741 0.711909 0.841279
Si Si5 0.400151 0.324814 0.605136
Si Si6 0.782764 0.354594 0.865982
Si Si7 0.093584 0.184411 0.719481
Si Si8 0.822225 0.715593 0.139388
O O1 0.158815 0.602566 0.638453
O O2 0.168625 0.693242 0.736669
O O3 0.305827 0.659707 0.665663
O O4 0.133992 0.679335 0.449697
O O5 0.141951 0.546491 0.848488
O O6 0.141818 0.504271 0.591898
O O7 0.997862 0.555222 0.575626
O O8 0.830613 0.591817 0.385496
O O9 0.136490 0.768808 0.888890
O O10 0.000000 0.707568 0.750000
O O11 0.147843 0.676569 0.986824
O O12 0.500000 0.331264 0.750000
O O13 0.318241 0.359050 0.617890
O O14 0.416407 0.329405 0.450027
O O15 0.773670 0.320767 0.721262
O O16 0.109594 0.243938 0.743552
O O17 0.000000 0.171223 0.750000
O O18 0.750000 0.750000 0.000000
#
# Coordination Sequence:
#
# PCOD9283317 Si02
#       8
#     8   8   8   8   8   8   8   8
#     4  11  22  39  58  81 117 158 192 240 294 351
#     4  10  21  40  59  87 119 145 192 245 301 359
#     4  10  22  37  62  88 114 150 190 245 301 362
#     4  11  21  35  60  85 111 152 199 239 287 349
#     4  11  23  35  57  83 116 154 199 242 281 347
#     4  12  21  40  61  84 114 161 205 236 295 361
#     4  11  23  37  53  83 121 154 194 241 292 344
#     4  10  24  36  55  83 120 155 196 246 290 346
#
# _framework density 17.96218
#
# number of rings (size 3 to 8) (size 9 to 14) (size 15 to 20)
#    0.000    1.250    3.750    2.625    8.750    1.000 
#    0.000    0.000    0.000    0.750    0.000    3.500 
#    0.000    0.000    0.000    0.000    0.000    0.000 
#
# Total GULP energy -178654.624205 kJ/mol
# GULP energy per Si atom -5582.957006 kJ/mol
# Density = 1.792130 g / cm^3
# Si number density = 17.962180 Si / 1000 Ang^3
#
#
#
# Elastic Constant Matrix: (Units=GPa)
#
#
# Indices 1 2 3 4 5 6 
#
# 1 59.5981 26.1350 12.3250 0.0000 -15.8113 0.0000
# 2 26.1350 81.6846 23.2227 0.0000 -14.5849 0.0000
# 3 12.3250 23.2227 79.4912 0.0000 -21.7976 0.0000
# 4 0.0000 0.0000 0.0000 65.3304 0.0000 39.9619
# 5 -15.8113 -14.5849 -21.7976 0.0000 28.6405 0.0000
# 6 0.0000 0.0000 0.0000 39.9619 0.0000 74.8186
#
#
#
# Elastic Compliance Matrix: (Units=1/GPa)
#
#
# Indices 1 2 3 4 5 6 
#
# 1 0.021575 -0.005408 0.000942 0.000000 0.009874 0.000000
# 2 -0.005408 0.015260 -0.002916 0.000000 0.002566 0.000000
# 3 0.000942 -0.002916 0.016455 0.000000 0.011559 0.000000
# 4 0.000000 0.000000 0.000000 0.022734 0.000000 -0.012143
# 5 0.009874 0.002566 0.011559 0.000000 0.050471 0.000000
# 6 0.000000 0.000000 0.000000 -0.012143 0.000000 0.019851
#
#
# Mechanical properties :
#
#
# Convention : Reuss Voigt Hill
#
# Bulk Modulus (GPa) = 25.95547 38.23770 32.09659
# Shear Modulus (GPa) = 28.74351 44.36399 36.55375
#
# Velocity S-wave (km/s) = 4.00462 4.97516 4.51604
# Velocity P-wave (km/s) = 5.98866 7.37136 6.71569
#
# Compressibility (1/GPa) = 0.03852753
#
# Stress axis : x y z
#
# Youngs Moduli (GPa) = 46.34946 65.53256 60.77017
#
# Poissons Ratio (x) = 0.35439 -0.05726
# Poissons Ratio (y) = 0.25065 0.17719
# Poissons Ratio (z) = -0.04367 0.19108
#
# Static dielectric constant tensor:
#      x y z
#    x 1.582780 0.000000 0.042950 
#    y 0.000000 1.606400 0.000000 
#    z 0.042950 0.000000 1.609660 
# 
# From -- ./inp_files/43585.got.cif
#   From: 2010.05.17/outbox.cif.g08.bks.cpg/sg15_22_cif.got.tgz:43585.got - 2010.06.03 18:47:42.
