data_PCOD9283836
_publ_section_title
;
Structure prediction by ZEFSAII (Michael W. Deem and Ramdas Pophale) SiO2 
 PCOD9283836
Probable space group: C 2/C
;
_chemical_formula_sum "Si O2"
_cell_formula_units_Z 40
_cell_length_a 9.506972
_cell_length_b 17.242907
_cell_length_c 25.116990
_cell_angle_alpha 90.000000
_cell_angle_beta 154.727873
_cell_angle_gamma 90.000000
_cell_volume 1757.780969
_symmetry_space_group_name_H-M "C 2/C"
_symmetry_group_IT_number 15
_symmetry_cell_setting 'monoclinic'
loop_
_space_group_symop_operation_xyz
x,y,z
-x,y,1/2-z
-x,-y,-z
x,-y,1/2+z
1/2+x,1/2+y,z
1/2-x,1/2+y,1/2-z
1/2-x,1/2-y,-z
1/2+x,1/2-y,1/2+z
loop_
_atom_site_type_symbol
_atom_site_label
_atom_site_fract_x
_atom_site_fract_y
_atom_site_fract_z
Si Si1 0.384638 0.297268 0.267246
Si Si2 0.843020 0.527703 0.248766
Si Si3 0.321049 0.871317 0.130650
Si Si4 0.779209 0.433082 0.449015
Si Si5 0.057278 0.345828 0.894058
O O1 0.500000 0.263507 0.250000
O O2 0.591674 0.377015 0.343842
O O3 0.470512 0.239862 0.345375
O O4 0.005221 0.319864 0.149018
O O5 0.510602 0.481943 0.121651
O O6 0.000000 0.562936 0.250000
O O7 0.090628 0.460266 0.352968
O O8 0.813649 0.594967 0.280942
O O9 0.500000 0.857710 0.250000
O O10 0.935071 0.858186 0.004335
O O11 0.954018 0.373947 0.549126
O O12 0.000000 0.500000 0.500000
#
# Coordination Sequence:
#
# PCOD9283836 Si02
#       5
#     8   8   8   8   8
#     4  11  26  44  67 105 147 176 240 300 354 419
#     4  10  21  40  64  99 126 178 239 282 339 426
#     4  10  21  42  68  91 134 188 231 284 349 433
#     4  11  26  42  68 102 141 188 234 296 350 418
#     4  12  23  43  72  97 138 193 232 287 368 419
#
# _framework density 22.755963999999999
#
# number of rings (size 3 to 8) (size 9 to 14) (size 15 to 20)
#    0.000    1.200    6.000    1.800    5.600    2.400 
#    0.000    0.000    0.000    0.000    0.000    0.000 
#    0.000    0.000    0.000    0.000    0.000    0.000 
#
# Total GULP energy -111687.138976 kJ/mol
# GULP energy per Si atom -5584.356949 kJ/mol
# Density = 2.270417 g / cm^3
# Si number density = 22.755964 Si / 1000 Ang^3
#
#
#
# Elastic Constant Matrix: (Units=GPa)
#
#
# Indices 1 2 3 4 5 6 
#
# 1 78.7134 22.8408 10.7179 0.0030 -0.3241 0.0023
# 2 22.8408 95.0749 17.4031 0.0077 5.4389 0.0032
# 3 10.7179 17.4031 28.6558 0.0086 -1.6991 0.0112
# 4 0.0030 0.0077 0.0086 12.7184 0.0026 12.1131
# 5 -0.3241 5.4389 -1.6991 0.0026 31.4825 0.0007
# 6 0.0023 0.0032 0.0112 12.1131 0.0007 18.5035
#
#
#
# Elastic Compliance Matrix: (Units=1/GPa)
#
#
# Indices 1 2 3 4 5 6 
#
# 1 0.013982 -0.002735 -0.003544 0.000000 0.000425 0.000001
# 2 -0.002735 0.012558 -0.006756 -0.000011 -0.002562 0.000009
# 3 -0.003544 -0.006756 0.040522 -0.000004 0.003318 -0.000021
# 4 0.000000 -0.000011 -0.000004 0.208824 -0.000013 -0.136704
# 5 0.000425 -0.002562 0.003318 -0.000013 0.032390 0.000006
# 6 0.000001 0.000009 -0.000021 -0.136704 0.000006 0.143535
#
#
# Mechanical properties :
#
#
# Convention : Reuss Voigt Hill
#
# Bulk Modulus (GPa) = 24.39379 33.81862 29.10621
# Shear Modulus (GPa) = 10.17202 22.63971 16.40587
#
# Velocity S-wave (km/s) = 2.11654 3.15761 2.68796
# Velocity P-wave (km/s) = 4.08852 5.30921 4.73834
#
# Compressibility (1/GPa) = 0.04099403
#
# Stress axis : x y z
#
# Youngs Moduli (GPa) = 71.51983 79.62899 24.67790
#
# Poissons Ratio (x) = 0.21777 0.08745
# Poissons Ratio (y) = 0.19559 0.16672
# Poissons Ratio (z) = 0.25343 0.53797
#
# Static dielectric constant tensor:
#      x y z
#    x 1.897570 0.000000 -0.028690 
#    y 0.000000 1.841110 0.000000 
#    z -0.028690 0.000000 1.869950 
# 
# From -- ./inp_files/76689.got.cif
#   From: 2010.05.17/outbox.cif.g08.bks.cpg/sg15_39_cif.got.tgz:76689.got - 2010.06.03 18:47:42.
