data_PCOD9283081
_publ_section_title
;
Structure prediction by ZEFSAII (Michael W. Deem and Ramdas Pophale) SiO2 
 PCOD9283081
Probable space group: C 2/C
;
_chemical_formula_sum "Si O2"
_cell_formula_units_Z 44
_cell_length_a 24.846744
_cell_length_b 4.977693
_cell_length_c 13.810060
_cell_angle_alpha 90.000000
_cell_angle_beta 111.159477
_cell_angle_gamma 90.000000
_cell_volume 1592.864907
_symmetry_space_group_name_H-M "C 2/C"
_symmetry_group_IT_number 15
_symmetry_cell_setting 'monoclinic'
loop_
_space_group_symop_operation_xyz
x,y,z
-x,y,1/2-z
-x,-y,-z
x,-y,1/2+z
1/2+x,1/2+y,z
1/2-x,1/2+y,1/2-z
1/2-x,1/2-y,-z
1/2+x,1/2-y,1/2+z
loop_
_atom_site_type_symbol
_atom_site_label
_atom_site_fract_x
_atom_site_fract_y
_atom_site_fract_z
Si Si1 0.386193 0.661235 0.133374
Si Si2 0.216074 0.819202 0.234923
Si Si3 0.383479 0.343821 0.866229
Si Si4 0.814633 0.668186 0.073725
Si Si5 0.049517 0.346485 0.588110
Si Si6 0.000000 0.552153 0.750000
O O1 0.381657 0.647974 0.247527
O O2 0.365916 0.375958 0.079363
O O3 0.451568 0.767588 0.163934
O O4 0.338907 0.875456 0.066858
O O5 0.242788 0.561363 0.200233
O O6 0.174315 0.001823 0.143005
O O7 0.188347 0.687562 0.311448
O O8 0.395339 0.037461 0.897793
O O9 0.435173 0.544022 0.928002
O O10 0.750000 0.750000 0.000000
O O11 0.032824 0.375709 0.690779
O O12 0.000000 0.500000 0.500000
#
# Coordination Sequence:
#
# PCOD9283081 Si02
#       6
#     8   8   8   8   8   4
#     4  10  21  39  67  89 120 175 203 259 320 380
#     4  11  21  38  63  88 117 167 206 246 313 373
#     4  10  21  41  63  85 129 163 207 257 313 376
#     4  11  23  42  62  91 133 160 210 265 319 371
#     4  11  23  41  64  94 127 167 206 265 317 377
#     4  10  22  42  68  92 128 164 220 250 320 390
#
# _framework density 27.623184999999999
#
# number of rings (size 3 to 8) (size 9 to 14) (size 15 to 20)
#    0.000    1.455    0.000    8.727    0.000    6.545 
#    9.818    0.000    0.000    0.000    0.000    0.000 
#    0.000    0.000    0.000    0.000    0.000    0.000 
#
# Total GULP energy -123229.403435 kJ/mol
# GULP energy per Si atom -5601.336520 kJ/mol
# Density = 2.756031 g / cm^3
# Si number density = 27.623185 Si / 1000 Ang^3
#
#
#
# Elastic Constant Matrix: (Units=GPa)
#
#
# Indices 1 2 3 4 5 6 
#
# 1 90.2176 29.8345 14.0292 0.0000 12.2681 0.0000
# 2 29.8345 138.8161 -5.2726 0.0000 11.5386 0.0000
# 3 14.0292 -5.2726 89.6061 0.0000 14.9893 0.0000
# 4 0.0000 0.0000 0.0000 36.3894 0.0000 13.5706
# 5 12.2681 11.5386 14.9893 0.0000 53.3959 0.0000
# 6 0.0000 0.0000 0.0000 13.5706 0.0000 52.9359
#
#
#
# Elastic Compliance Matrix: (Units=1/GPa)
#
#
# Indices 1 2 3 4 5 6 
#
# 1 0.012469 -0.002599 -0.001805 0.000000 -0.001797 0.000000
# 2 -0.002599 0.007923 0.001112 0.000000 -0.001427 0.000000
# 3 -0.001805 0.001112 0.012044 0.000000 -0.003207 0.000000
# 4 0.000000 0.000000 0.000000 0.030386 0.000000 -0.007790
# 5 -0.001797 -0.001427 -0.003207 0.000000 0.020349 0.000000
# 6 0.000000 0.000000 0.000000 -0.007790 0.000000 0.020888
#
#
# Mechanical properties :
#
#
# Convention : Reuss Voigt Hill
#
# Bulk Modulus (GPa) = 38.68047 43.98025 41.33036
# Shear Modulus (GPa) = 41.92524 47.21415 44.56969
#
# Velocity S-wave (km/s) = 3.90006 4.13876 4.02118
# Velocity P-wave (km/s) = 5.85781 6.22858 6.04604
#
# Compressibility (1/GPa) = 0.02585284
#
# Stress axis : x y z
#
# Youngs Moduli (GPa) = 80.20081 126.21145 83.02659
#
# Poissons Ratio (x) = 0.32802 0.14983
# Poissons Ratio (y) = 0.20844 -0.09231
# Poissons Ratio (z) = 0.14473 -0.14033
#
# Static dielectric constant tensor:
#      x y z
#    x 2.355530 0.000000 0.076380 
#    y 0.000000 2.046590 0.000000 
#    z 0.076380 0.000000 2.214090 
# 
# From -- ./inp_files/217862.got.cif
#   From: 2010.05.17/outbox.cif.g08.bks.cpg/sg15_109_cif.got.tgz:217862.got - 2010.06.03 18:47:42.
