data_PCOD9283396
_publ_section_title
;
Structure prediction by ZEFSAII (Michael W. Deem and Ramdas Pophale) SiO2 
 PCOD9283396
Probable space group: C 2/C
;
_chemical_formula_sum "Si O2"
_cell_formula_units_Z 44
_cell_length_a 19.444781
_cell_length_b 13.247150
_cell_length_c 7.473084
_cell_angle_alpha 90.000000
_cell_angle_beta 116.232107
_cell_angle_gamma 90.000000
_cell_volume 1726.724520
_symmetry_space_group_name_H-M "C 2/C"
_symmetry_group_IT_number 15
_symmetry_cell_setting 'monoclinic'
loop_
_space_group_symop_operation_xyz
x,y,z
-x,y,1/2-z
-x,-y,-z
x,-y,1/2+z
1/2+x,1/2+y,z
1/2-x,1/2+y,1/2-z
1/2-x,1/2-y,-z
1/2+x,1/2-y,1/2+z
loop_
_atom_site_type_symbol
_atom_site_label
_atom_site_fract_x
_atom_site_fract_y
_atom_site_fract_z
Si Si1 0.636849 0.421879 0.770665
Si Si2 0.559865 0.780589 0.179793
Si Si3 0.840615 0.640071 0.187117
Si Si4 0.828827 0.126488 0.601539
Si Si5 0.000000 0.350059 0.750000
Si Si6 0.210274 0.640496 0.967183
O O1 0.582662 0.331908 0.772654
O O2 0.618771 0.540092 0.747482
O O3 0.656911 0.383636 0.594761
O O4 0.714513 0.425297 0.980508
O O5 0.500000 0.825026 0.250000
O O6 0.636251 0.848694 0.260343
O O7 0.522323 0.782263 0.944376
O O8 0.849672 0.761647 0.189010
O O9 0.821130 0.616172 0.370779
O O10 0.921035 0.593609 0.214173
O O11 0.764030 0.619248 0.982713
O O12 0.250000 0.750000 0.000000
#
# Coordination Sequence:
#
# PCOD9283396 Si02
#       6
#     8   8   8   8   4   8
#     4  10  22  38  61  91 120 159 212 261 304 357
#     4  11  22  39  61  91 129 167 199 251 313 381
#     4  10  21  40  61  87 124 163 208 255 306 377
#     4  10  22  38  61  88 119 162 211 256 303 358
#     4  12  22  38  62  92 126 164 206 242 316 380
#     4   9  20  37  62  87 115 165 211 252 301 360
#
# _framework density 25.481770000000001
#
# number of rings (size 3 to 8) (size 9 to 14) (size 15 to 20)
#    0.000    1.818    3.636    0.000    7.636    0.000 
#    1.636    1.818    2.000    3.273    0.000    0.000 
#    0.000    0.000    0.000    0.000    0.000    0.000 
#
# Total GULP energy -122904.941285 kJ/mol
# GULP energy per Si atom -5586.588240 kJ/mol
# Density = 2.542377 g / cm^3
# Si number density = 25.481770 Si / 1000 Ang^3
#
#
#
# Elastic Constant Matrix: (Units=GPa)
#
#
# Indices 1 2 3 4 5 6 
#
# 1 124.8675 -32.4108 20.6079 0.0000 7.6864 0.0000
# 2 -32.4108 61.1212 -0.9177 0.0000 -0.5051 0.0000
# 3 20.6079 -0.9177 109.4852 0.0000 16.1097 0.0000
# 4 0.0000 0.0000 0.0000 22.7551 0.0000 -2.1157
# 5 7.6864 -0.5051 16.1097 0.0000 22.9797 0.0000
# 6 0.0000 0.0000 0.0000 -2.1157 0.0000 10.5721
#
#
#
# Elastic Compliance Matrix: (Units=1/GPa)
#
#
# Indices 1 2 3 4 5 6 
#
# 1 0.009707 0.005108 -0.001475 0.000000 -0.002100 0.000000
# 2 0.005108 0.019053 -0.000682 0.000000 -0.000811 0.000000
# 3 -0.001475 -0.000682 0.010409 0.000000 -0.006819 0.000000
# 4 0.000000 0.000000 0.000000 0.044779 0.000000 0.008961
# 5 -0.002100 -0.000811 -0.006819 0.000000 0.048982 0.000000
# 6 0.000000 0.000000 0.000000 0.008961 0.000000 0.096382
#
#
# Mechanical properties :
#
#
# Convention : Reuss Voigt Hill
#
# Bulk Modulus (GPa) = 22.18820 30.00366 26.09593
# Shear Modulus (GPa) = 20.97016 31.80768 26.38892
#
# Velocity S-wave (km/s) = 2.87182 3.53689 3.22157
# Velocity P-wave (km/s) = 4.44104 5.33663 4.90930
#
# Compressibility (1/GPa) = 0.04506901
#
# Stress axis : x y z
#
# Youngs Moduli (GPa) = 103.01784 52.48646 96.07153
#
# Poissons Ratio (x) = -0.26809 0.14173
# Poissons Ratio (y) = -0.52620 0.06556
# Poissons Ratio (z) = 0.15198 0.03581
#
# Static dielectric constant tensor:
#      x y z
#    x 2.064060 0.000000 0.008140 
#    y 0.000000 2.057180 0.000000 
#    z 0.008140 0.000000 2.012300 
# 
# From -- ./inp_files/61308.got.cif
#   From: 2010.05.17/outbox.cif.g08.bks.cpg/sg15_31_cif.got.tgz:61308.got - 2010.06.03 18:47:42.
