data_PCOD9283743
_publ_section_title
;
Structure prediction by ZEFSAII (Michael W. Deem and Ramdas Pophale) SiO2 
 PCOD9283743
Probable space group: C 2/C
;
_chemical_formula_sum "Si O2"
_cell_formula_units_Z 48
_cell_length_a 8.606104
_cell_length_b 17.868222
_cell_length_c 15.975002
_cell_angle_alpha 90.000000
_cell_angle_beta 113.282697
_cell_angle_gamma 90.000000
_cell_volume 2256.519645
_symmetry_space_group_name_H-M "C 2/C"
_symmetry_group_IT_number 15
_symmetry_cell_setting 'monoclinic'
loop_
_space_group_symop_operation_xyz
x,y,z
-x,y,1/2-z
-x,-y,-z
x,-y,1/2+z
1/2+x,1/2+y,z
1/2-x,1/2+y,1/2-z
1/2-x,1/2-y,-z
1/2+x,1/2-y,1/2+z
loop_
_atom_site_type_symbol
_atom_site_label
_atom_site_fract_x
_atom_site_fract_y
_atom_site_fract_z
Si Si1 0.843069 0.307990 0.921399
Si Si2 0.820419 0.228846 0.749824
Si Si3 0.357656 0.439264 0.989670
Si Si4 0.982321 0.202264 0.416045
Si Si5 0.510790 0.965113 0.595677
Si Si6 0.179547 0.060936 0.817487
O O1 0.826957 0.242464 0.849880
O O2 0.654668 0.328272 0.911355
O O3 0.930560 0.379707 0.900218
O O4 0.955416 0.275937 0.020758
O O5 0.663288 0.274544 0.679148
O O6 0.803416 0.142471 0.720243
O O7 0.000000 0.254919 0.750000
O O8 0.409620 0.359777 0.962778
O O9 0.179844 0.466152 0.912190
O O10 0.500000 0.500000 0.000000
O O11 0.332391 0.431419 0.084285
O O12 0.500000 0.000000 0.500000
O O13 0.658485 0.011466 0.671230
O O14 0.000000 0.027632 0.750000
#
# Coordination Sequence:
#
# PCOD9283743 Si02
#       6
#     8   8   8   8   8   8
#     4  11  24  40  65  95 126 167 215 265 322 388
#     4  11  23  40  63  93 123 165 215 261 320 385
#     4  11  23  40  64  93 125 167 215 261 322 391
#     4  11  22  40  63  91 130 166 204 266 324 379
#     4  10  21  40  64  90 124 166 211 261 318 379
#     4  10  22  41  65  90 126 168 211 267 321 383
#
# _framework density 21.271697
#
# number of rings (size 3 to 8) (size 9 to 14) (size 15 to 20)
#    0.000    1.333    0.000    7.500    0.000    6.000 
#    0.000    5.833    0.000    0.000    0.000    0.000 
#    0.000    0.000    0.000    0.000    0.000    0.000 
#
# Total GULP energy -134235.309554 kJ/mol
# GULP energy per Si atom -5593.137898 kJ/mol
# Density = 2.122328 g / cm^3
# Si number density = 21.271697 Si / 1000 Ang^3
#
#
#
# Elastic Constant Matrix: (Units=GPa)
#
#
# Indices 1 2 3 4 5 6 
#
# 1 131.5816 29.0759 19.8075 0.0000 35.7548 0.0000
# 2 29.0759 66.9247 -2.2003 0.0000 15.1881 0.0000
# 3 19.8075 -2.2003 62.1903 0.0000 20.2528 0.0000
# 4 0.0000 0.0000 0.0000 22.0184 0.0000 -3.4079
# 5 35.7548 15.1881 20.2528 0.0000 44.3103 0.0000
# 6 0.0000 0.0000 0.0000 -3.4079 0.0000 22.8939
#
#
#
# Elastic Compliance Matrix: (Units=1/GPa)
#
#
# Indices 1 2 3 4 5 6 
#
# 1 0.010261 -0.002972 -0.001185 0.000000 -0.006719 0.000000
# 2 -0.002972 0.017489 0.003215 0.000000 -0.005066 0.000000
# 3 -0.001185 0.003215 0.019525 0.000000 -0.009070 0.000000
# 4 0.000000 0.000000 0.000000 0.046488 0.000000 0.006920
# 5 -0.006719 -0.005066 -0.009070 0.000000 0.033872 0.000000
# 6 0.000000 0.000000 0.000000 0.006920 0.000000 0.044710
#
#
# Mechanical properties :
#
#
# Convention : Reuss Voigt Hill
#
# Bulk Modulus (GPa) = 22.03107 39.34031 30.68569
# Shear Modulus (GPa) = 26.40508 32.11206 29.25857
#
# Velocity S-wave (km/s) = 3.52707 3.88959 3.71276
# Velocity P-wave (km/s) = 5.19292 6.22143 5.73030
#
# Compressibility (1/GPa) = 0.04539045
#
# Stress axis : x y z
#
# Youngs Moduli (GPa) = 97.45842 57.17965 51.21756
#
# Poissons Ratio (x) = 0.16993 0.06069
# Poissons Ratio (y) = 0.28964 -0.16467
# Poissons Ratio (z) = 0.11549 -0.18384
#
# Static dielectric constant tensor:
#      x y z
#    x 1.771680 0.000000 0.008620 
#    y 0.000000 1.742820 0.000000 
#    z 0.008620 0.000000 1.769600 
# 
# From -- ./inp_files/190603.got.cif
#   From: 2010.05.17/outbox.cif.g08.bks.cpg/sg15_96_cif.got.tgz:190603.got - 2010.06.03 18:47:42.
