data_PCOD9283181
_publ_section_title
;
Structure prediction by ZEFSAII (Michael W. Deem and Ramdas Pophale) SiO2 
 PCOD9283181
Probable space group: C 2/C
;
_chemical_formula_sum "Si O2"
_cell_formula_units_Z 48
_cell_length_a 24.727481
_cell_length_b 11.046205
_cell_length_c 21.094657
_cell_angle_alpha 90.000000
_cell_angle_beta 22.698202
_cell_angle_gamma 90.000000
_cell_volume 2223.383819
_symmetry_space_group_name_H-M "C 2/C"
_symmetry_group_IT_number 15
_symmetry_cell_setting 'monoclinic'
loop_
_space_group_symop_operation_xyz
x,y,z
-x,y,1/2-z
-x,-y,-z
x,-y,1/2+z
1/2+x,1/2+y,z
1/2-x,1/2+y,1/2-z
1/2-x,1/2-y,-z
1/2+x,1/2-y,1/2+z
loop_
_atom_site_type_symbol
_atom_site_label
_atom_site_fract_x
_atom_site_fract_y
_atom_site_fract_z
Si Si1 0.609971 0.073872 0.986816
Si Si2 0.133594 0.079099 0.878776
Si Si3 0.174064 0.306512 0.142833
Si Si4 0.360300 0.750884 0.936542
Si Si5 0.205419 0.553833 0.181322
Si Si6 0.387569 0.209418 0.005912
O O1 0.620295 0.122566 0.047571
O O2 0.451252 0.105409 0.136571
O O3 0.613875 0.929799 0.974742
O O4 0.749733 0.115811 0.799395
O O5 0.222883 0.005278 0.834999
O O6 0.083178 0.200766 0.968120
O O7 0.000000 0.000000 0.000000
O O8 0.191597 0.449403 0.141175
O O9 0.010374 0.276401 0.321309
O O10 0.250000 0.250000 0.000000
O O11 0.242748 0.243509 0.129809
O O12 0.500000 0.713303 0.750000
O O13 0.250000 0.750000 0.000000
O O14 0.308168 0.656245 0.044811
#
# Coordination Sequence:
#
# PCOD9283181 Si02
#       6
#     8   8   8   8   8   8
#     4  11  25  46  71  95 144 191 232 298 363 436
#     4  11  25  44  73 106 141 182 242 300 359 429
#     4  10  21  39  68  96 134 172 220 284 350 418
#     4  12  27  47  73 104 141 188 246 300 369 445
#     4  10  25  46  67 102 138 189 234 293 363 435
#     4  10  23  42  65 101 131 177 232 278 354 423
#
# _framework density 21.588716000000002
#
# number of rings (size 3 to 8) (size 9 to 14) (size 15 to 20)
#    0.000    1.333    1.667    2.000    7.000    2.667 
#    0.000    0.000    0.000    0.000    0.000    0.000 
#    0.000    0.000    0.000    0.000    0.000    0.000 
#
# Total GULP energy -134043.269723 kJ/mol
# GULP energy per Si atom -5585.136238 kJ/mol
# Density = 2.153958 g / cm^3
# Si number density = 21.588716 Si / 1000 Ang^3
#
#
#
# Elastic Constant Matrix: (Units=GPa)
#
#
# Indices 1 2 3 4 5 6 
#
# 1 92.6402 22.8998 25.5043 0.0000 -16.0952 0.0000
# 2 22.8998 73.9169 34.9216 -0.0002 4.7799 0.0001
# 3 25.5043 34.9216 151.0093 -0.0004 -6.5330 0.0004
# 4 0.0000 -0.0002 -0.0004 32.8663 0.0003 8.2641
# 5 -16.0952 4.7799 -6.5330 0.0003 36.6507 -0.0003
# 6 0.0000 0.0001 0.0004 8.2641 -0.0003 29.8313
#
#
#
# Elastic Compliance Matrix: (Units=1/GPa)
#
#
# Indices 1 2 3 4 5 6 
#
# 1 0.013119 -0.003970 -0.001034 0.000000 0.006095 0.000000
# 2 -0.003970 0.016645 -0.003374 0.000000 -0.004516 0.000000
# 3 -0.001034 -0.003374 0.007635 0.000000 0.001347 0.000000
# 4 0.000000 0.000000 0.000000 0.032704 0.000000 -0.009060
# 5 0.006095 -0.004516 0.001347 0.000000 0.030790 0.000000
# 6 0.000000 0.000000 0.000000 -0.009060 0.000000 0.036032
#
#
# Mechanical properties :
#
#
# Convention : Reuss Voigt Hill
#
# Bulk Modulus (GPa) = 48.44206 53.80197 51.12201
# Shear Modulus (GPa) = 31.14047 35.48571 33.31309
#
# Velocity S-wave (km/s) = 3.80207 4.05867 3.93247
# Velocity P-wave (km/s) = 6.46232 6.85122 6.65961
#
# Compressibility (1/GPa) = 0.02064322
#
# Stress axis : x y z
#
# Youngs Moduli (GPa) = 76.22309 60.07923 130.97120
#
# Poissons Ratio (x) = 0.23852 0.13542
# Poissons Ratio (y) = 0.30261 0.44190
# Poissons Ratio (z) = 0.07881 0.20271
#
# Static dielectric constant tensor:
#      x y z
#    x 1.855360 0.000000 0.072550 
#    y 0.000000 1.809390 0.000000 
#    z 0.072550 0.000000 1.846860 
# 
# From -- ./inp_files/257585.got.cif
#   From: 2010.05.17/outbox.cif.g08.bks.cpg/sg15_129_cif.got.tgz:257585.got - 2010.06.03 18:47:42.
