data_PCOD9283253
_publ_section_title
;
Structure prediction by ZEFSAII (Michael W. Deem and Ramdas Pophale) SiO2 
 PCOD9283253
Probable space group: C 2/C
;
_chemical_formula_sum "Si O2"
_cell_formula_units_Z 48
_cell_length_a 9.988506
_cell_length_b 17.733683
_cell_length_c 12.801626
_cell_angle_alpha 90.000000
_cell_angle_beta 58.555092
_cell_angle_gamma 90.000000
_cell_volume 1934.577004
_symmetry_space_group_name_H-M "C 2/C"
_symmetry_group_IT_number 15
_symmetry_cell_setting 'monoclinic'
loop_
_space_group_symop_operation_xyz
x,y,z
-x,y,1/2-z
-x,-y,-z
x,-y,1/2+z
1/2+x,1/2+y,z
1/2-x,1/2+y,1/2-z
1/2-x,1/2-y,-z
1/2+x,1/2-y,1/2+z
loop_
_atom_site_type_symbol
_atom_site_label
_atom_site_fract_x
_atom_site_fract_y
_atom_site_fract_z
Si Si1 0.440502 0.125615 0.571249
Si Si2 0.730801 0.742759 0.772303
Si Si3 0.805427 0.326119 0.919551
Si Si4 0.970411 0.112149 0.539791
Si Si5 0.209110 0.870666 0.595867
Si Si6 0.842965 0.017957 0.755557
O O1 0.374267 0.198220 0.659926
O O2 0.428051 0.138913 0.451386
O O3 0.620756 0.112357 0.523834
O O4 0.316586 0.060956 0.650403
O O5 0.663760 0.798269 0.710358
O O6 0.605452 0.680589 0.860743
O O7 0.782667 0.790666 0.850668
O O8 0.655982 0.381575 0.976568
O O9 0.750000 0.250000 0.000000
O O10 0.917851 0.125558 0.443156
O O11 0.887727 0.037370 0.618987
O O12 0.177591 0.933894 0.695567
O O13 0.000000 0.048866 0.750000
#
# Coordination Sequence:
#
# PCOD9283253 Si02
#       6
#     8   8   8   8   8   8
#     4  10  23  46  70 102 145 185 239 293 347 419
#     4  10  23  40  70 103 146 182 229 282 365 410
#     4  10  21  39  70  99 135 186 236 280 337 423
#     4  11  25  45  71 101 144 186 235 295 354 423
#     4  12  27  43  70 109 142 182 239 300 359 422
#     4  11  25  47  73  95 141 193 240 283 359 423
#
# _framework density 24.811623999999998
#
# number of rings (size 3 to 8) (size 9 to 14) (size 15 to 20)
#    0.000    1.333    1.667    3.000    2.333    9.333 
#    0.000    1.667    0.000    0.000    0.000    0.000 
#    0.000    0.000    0.000    0.000    0.000    0.000 
#
# Total GULP energy -134507.224969 kJ/mol
# GULP energy per Si atom -5604.467707 kJ/mol
# Density = 2.475515 g / cm^3
# Si number density = 24.811624 Si / 1000 Ang^3
#
#
#
# Elastic Constant Matrix: (Units=GPa)
#
#
# Indices 1 2 3 4 5 6 
#
# 1 71.3217 -3.8776 14.4743 0.0000 -10.4664 0.0000
# 2 -3.8776 69.0214 31.1442 0.0000 -5.1000 0.0000
# 3 14.4743 31.1442 124.2272 0.0000 -6.9359 0.0000
# 4 0.0000 0.0000 0.0000 38.2489 0.0000 5.1666
# 5 -10.4664 -5.1000 -6.9359 0.0000 42.3958 0.0000
# 6 0.0000 0.0000 0.0000 5.1666 0.0000 26.9924
#
#
#
# Elastic Compliance Matrix: (Units=1/GPa)
#
#
# Indices 1 2 3 4 5 6 
#
# 1 0.015085 0.002049 -0.002069 0.000000 0.003632 0.000000
# 2 0.002049 0.016687 -0.004321 0.000000 0.001806 0.000000
# 3 -0.002069 -0.004321 0.009403 0.000000 0.000508 0.000000
# 4 0.000000 0.000000 0.000000 0.026838 0.000000 -0.005137
# 5 0.003632 0.001806 0.000508 0.000000 0.024784 0.000000
# 6 0.000000 0.000000 0.000000 -0.005137 0.000000 0.038031
#
#
# Mechanical properties :
#
#
# Convention : Reuss Voigt Hill
#
# Bulk Modulus (GPa) = 30.77574 38.67247 34.72410
# Shear Modulus (GPa) = 33.25784 36.38271 34.82027
#
# Velocity S-wave (km/s) = 3.66514 3.83346 3.75024
# Velocity P-wave (km/s) = 5.50833 5.93415 5.72520
#
# Compressibility (1/GPa) = 0.03249313
#
# Stress axis : x y z
#
# Youngs Moduli (GPa) = 66.28993 59.92777 106.35447
#
# Poissons Ratio (x) = -0.12281 0.22001
# Poissons Ratio (y) = -0.13585 0.45960
# Poissons Ratio (z) = 0.13713 0.25897
#
# Static dielectric constant tensor:
#      x y z
#    x 1.922590 0.000000 0.002630 
#    y 0.000000 1.963000 0.000000 
#    z 0.002630 0.000000 1.992120 
# 
# From -- ./inp_files/199014.got.cif
#   From: 2010.05.17/outbox.cif.g08.bks.cpg/sg15_100_cif.got.tgz:199014.got - 2010.06.03 18:47:42.
