data_PCOD9283010
_publ_section_title
;
Structure prediction by ZEFSAII (Michael W. Deem and Ramdas Pophale) SiO2 
 PCOD9283010
Probable space group: C 2/C
;
_chemical_formula_sum "Si O2"
_cell_formula_units_Z 40
_cell_length_a 12.813263
_cell_length_b 14.381771
_cell_length_c 9.837917
_cell_angle_alpha 90.000000
_cell_angle_beta 71.353858
_cell_angle_gamma 90.000000
_cell_volume 1717.748715
_symmetry_space_group_name_H-M "C 2/C"
_symmetry_group_IT_number 15
_symmetry_cell_setting 'monoclinic'
loop_
_space_group_symop_operation_xyz
x,y,z
-x,y,1/2-z
-x,-y,-z
x,-y,1/2+z
1/2+x,1/2+y,z
1/2-x,1/2+y,1/2-z
1/2-x,1/2-y,-z
1/2+x,1/2-y,1/2+z
loop_
_atom_site_type_symbol
_atom_site_label
_atom_site_fract_x
_atom_site_fract_y
_atom_site_fract_z
Si Si1 0.249683 0.620786 0.733257
Si Si2 0.073764 0.621522 0.599862
Si Si3 0.261254 0.809032 0.855516
Si Si4 0.076169 0.040738 0.348310
Si Si5 0.929706 0.407567 0.950876
O O1 0.196744 0.617756 0.604549
O O2 0.278803 0.728102 0.740531
O O3 0.344414 0.546444 0.717601
O O4 0.158673 0.595641 0.886797
O O5 0.043950 0.512817 0.598174
O O6 0.000000 0.666380 0.750000
O O7 0.029476 0.653331 0.472432
O O8 0.156927 0.874826 0.862964
O O9 0.250000 0.750000 0.000000
O O10 0.367437 0.869896 0.845168
O O11 0.000000 0.065427 0.250000
O O12 0.000000 0.000000 0.500000
#
# Coordination Sequence:
#
# PCOD9283010 Si02
#       5
#     8   8   8   8   8
#     4  10  21  39  66  93 132 177 226 285 346 417
#     4   9  17  31  60  92 118 164 213 275 348 402
#     4  10  21  40  66  95 134 180 230 290 343 421
#     4  12  26  46  74 102 145 196 238 288 362 433
#     4   9  17  34  59  94 127 162 217 281 352 400
#
# _framework density 23.286293000000001
#
# number of rings (size 3 to 8) (size 9 to 14) (size 15 to 20)
#    0.000    2.000    2.000    2.400    0.000    4.000 
#    0.000    6.000    4.400    0.000    0.000    0.000 
#    0.000    0.000    0.000    0.000    0.000    0.000 
#
# Total GULP energy -111497.028329 kJ/mol
# GULP energy per Si atom -5574.851416 kJ/mol
# Density = 2.323329 g / cm^3
# Si number density = 23.286293 Si / 1000 Ang^3
#
#
#
# Elastic Constant Matrix: (Units=GPa)
#
#
# Indices 1 2 3 4 5 6 
#
# 1 163.3737 69.3702 59.4564 0.0000 57.6506 0.0000
# 2 69.3702 113.0420 21.3659 0.0000 5.0697 0.0000
# 3 59.4564 21.3659 97.0605 0.0000 14.0573 0.0000
# 4 0.0000 0.0000 0.0000 24.3922 0.0000 -2.1972
# 5 57.6506 5.0697 14.0573 0.0000 46.2215 0.0000
# 6 0.0000 0.0000 0.0000 -2.1972 0.0000 4.0578
#
#
#
# Elastic Compliance Matrix: (Units=1/GPa)
#
#
# Indices 1 2 3 4 5 6 
#
# 1 0.021979 -0.010982 -0.007584 0.000000 -0.023902 0.000000
# 2 -0.010982 0.014725 0.001816 0.000000 0.011530 0.000000
# 3 -0.007584 0.001816 0.013816 0.000000 0.005058 0.000000
# 4 0.000000 0.000000 0.000000 0.043099 0.000000 0.023337
# 5 -0.023902 0.011530 0.005058 0.000000 0.048645 0.000000
# 6 0.000000 0.000000 0.000000 0.023337 0.000000 0.259077
#
#
# Mechanical properties :
#
#
# Convention : Reuss Voigt Hill
#
# Bulk Modulus (GPa) = 58.75626 74.87347 66.81487
# Shear Modulus (GPa) = 11.35034 29.81988 20.58511
#
# Velocity S-wave (km/s) = 2.21017 3.58240 2.97644
# Velocity P-wave (km/s) = 5.63915 7.02386 6.36925
#
# Compressibility (1/GPa) = 0.01701946
#
# Stress axis : x y z
#
# Youngs Moduli (GPa) = 45.49844 67.91008 72.37788
#
# Poissons Ratio (x) = 0.74580 0.54893
# Poissons Ratio (y) = 0.49967 -0.13143
# Poissons Ratio (z) = 0.34507 -0.12332
#
# Static dielectric constant tensor:
#      x y z
#    x 2.133760 0.000000 0.131710 
#    y 0.000000 1.018100 0.000000 
#    z 0.131710 0.000000 2.151220 
# 
# From -- ./inp_files/85555.got.cif
#   From: 2010.05.17/outbox.cif.g08.bks.cpg/sg15_43_cif.got.tgz:85555.got - 2010.06.03 18:47:42.
