data_PCOD9283752
_publ_section_title
;
Structure prediction by ZEFSAII (Michael W. Deem and Ramdas Pophale) SiO2 
 PCOD9283752
Probable space group: C 2/C
;
_chemical_formula_sum "Si O2"
_cell_formula_units_Z 56
_cell_length_a 18.195106
_cell_length_b 10.057778
_cell_length_c 15.339902
_cell_angle_alpha 90.000000
_cell_angle_beta 107.751714
_cell_angle_gamma 90.000000
_cell_volume 2673.575994
_symmetry_space_group_name_H-M "C 2/C"
_symmetry_group_IT_number 15
_symmetry_cell_setting 'monoclinic'
loop_
_space_group_symop_operation_xyz
x,y,z
-x,y,1/2-z
-x,-y,-z
x,-y,1/2+z
1/2+x,1/2+y,z
1/2-x,1/2+y,1/2-z
1/2-x,1/2-y,-z
1/2+x,1/2-y,1/2+z
loop_
_atom_site_type_symbol
_atom_site_label
_atom_site_fract_x
_atom_site_fract_y
_atom_site_fract_z
Si Si1 0.790599 0.480825 0.380469
Si Si2 0.465763 0.647089 0.995149
Si Si3 0.361519 0.792973 0.833535
Si Si4 0.333882 0.509704 0.022648
Si Si5 0.913406 0.451855 0.687623
Si Si6 0.264327 0.090727 0.676827
Si Si7 0.391938 0.218925 0.007849
O O1 0.863355 0.579758 0.398166
O O2 0.726191 0.530662 0.422589
O O3 0.760467 0.472389 0.271325
O O4 0.821646 0.341386 0.427727
O O5 0.398324 0.625280 0.041031
O O6 0.500000 0.500000 0.000000
O O7 0.423666 0.688335 0.890220
O O8 0.535501 0.749923 0.028721
O O9 0.380198 0.841051 0.743620
O O10 0.277242 0.731173 0.821304
O O11 0.369281 0.361700 0.040838
O O12 0.287259 0.518308 0.914711
O O13 0.852279 0.572557 0.676109
O O14 0.911566 0.385216 0.591681
O O15 0.000000 0.483822 0.750000
#
# Coordination Sequence:
#
# PCOD9283752 Si02
#       7
#     8   8   8   8   8   8   8
#     4  11  23  36  64  93 118 166 211 259 315 373
#     4   9  20  38  59  87 120 161 196 253 315 364
#     4  10  22  40  60  90 126 163 207 263 311 384
#     4  10  21  40  64  91 123 164 210 261 308 374
#     4  11  21  39  64  94 124 164 213 267 314 371
#     4  10  23  39  59  92 128 159 213 262 318 369
#     4  11  21  38  64  92 121 161 216 259 311 372
#
# _framework density 20.945730000000001
#
# number of rings (size 3 to 8) (size 9 to 14) (size 15 to 20)
#    0.000    1.714    2.857    1.286    4.000    2.857 
#    0.000    0.000    0.000    0.000    0.000    0.000 
#    0.000    0.000    0.000    0.000    0.000    0.000 
#
# Total GULP energy -156099.702907 kJ/mol
# GULP energy per Si atom -5574.989390 kJ/mol
# Density = 2.089806 g / cm^3
# Si number density = 20.945730 Si / 1000 Ang^3
#
#
#
# Elastic Constant Matrix: (Units=GPa)
#
#
# Indices 1 2 3 4 5 6 
#
# 1 109.8685 14.8220 21.0775 0.0000 -10.5864 0.0000
# 2 14.8220 37.6016 -2.1534 0.0000 -7.1132 0.0000
# 3 21.0775 -2.1534 43.2783 0.0000 -20.6930 0.0000
# 4 0.0000 0.0000 0.0000 7.9687 0.0000 -4.5867
# 5 -10.5864 -7.1132 -20.6930 0.0000 22.1967 0.0000
# 6 0.0000 0.0000 0.0000 -4.5867 0.0000 40.2534
#
#
#
# Elastic Compliance Matrix: (Units=1/GPa)
#
#
# Indices 1 2 3 4 5 6 
#
# 1 0.010862 -0.005256 -0.007000 0.000000 -0.003030 0.000000
# 2 -0.005256 0.033691 0.014794 0.000000 0.022082 0.000000
# 3 -0.007000 0.014794 0.050378 0.000000 0.048367 0.000000
# 4 0.000000 0.000000 0.000000 0.134300 0.000000 0.015303
# 5 -0.003030 0.022082 0.048367 0.000000 0.095774 0.000000
# 6 0.000000 0.000000 0.000000 0.015303 0.000000 0.026586
#
#
# Mechanical properties :
#
#
# Convention : Reuss Voigt Hill
#
# Bulk Modulus (GPa) = 9.99927 28.69339 19.34633
# Shear Modulus (GPa) = 13.16314 24.55058 18.85686
#
# Velocity S-wave (km/s) = 2.50959 3.42732 3.00371
# Velocity P-wave (km/s) = 3.63065 5.42131 4.61369
#
# Compressibility (1/GPa) = 0.10000732
#
# Stress axis : x y z
#
# Youngs Moduli (GPa) = 92.06604 29.68175 19.85005
#
# Poissons Ratio (x) = 0.15599 0.13895
# Poissons Ratio (y) = 0.48386 -0.29366
# Poissons Ratio (z) = 0.64446 -0.43911
#
# Static dielectric constant tensor:
#      x y z
#    x 1.804460 0.000000 0.033300 
#    y 0.000000 1.807200 0.000000 
#    z 0.033300 0.000000 1.712140 
# 
# From -- ./inp_files/161015.got.cif
#   From: 2010.05.17/outbox.cif.g08.bks.cpg/sg15_81_cif.got.tgz:161015.got - 2010.06.03 18:47:42.
