data_PCOD9283832
_publ_section_title
;
Structure prediction by ZEFSAII (Michael W. Deem and Ramdas Pophale) SiO2 
 PCOD9283832
Probable space group: C 2/C
;
_chemical_formula_sum "Si O2"
_cell_formula_units_Z 48
_cell_length_a 18.899187
_cell_length_b 10.378403
_cell_length_c 13.493995
_cell_angle_alpha 90.000000
_cell_angle_beta 123.633762
_cell_angle_gamma 90.000000
_cell_volume 2203.677306
_symmetry_space_group_name_H-M "C 2/C"
_symmetry_group_IT_number 15
_symmetry_cell_setting 'monoclinic'
loop_
_space_group_symop_operation_xyz
x,y,z
-x,y,1/2-z
-x,-y,-z
x,-y,1/2+z
1/2+x,1/2+y,z
1/2-x,1/2+y,1/2-z
1/2-x,1/2-y,-z
1/2+x,1/2-y,1/2+z
loop_
_atom_site_type_symbol
_atom_site_label
_atom_site_fract_x
_atom_site_fract_y
_atom_site_fract_z
Si Si1 0.041545 0.365466 0.513195
Si Si2 0.389246 0.755150 0.112462
Si Si3 0.739721 0.927067 0.696782
Si Si4 0.122930 0.018147 0.836507
Si Si5 0.511682 0.607616 0.923411
Si Si6 0.258433 0.845659 0.151887
O O1 0.039881 0.321855 0.397433
O O2 0.140091 0.396457 0.614318
O O3 0.997879 0.249270 0.538667
O O4 0.000000 0.500000 0.500000
O O5 0.411959 0.627749 0.189072
O O6 0.338240 0.854277 0.140563
O O7 0.321009 0.694346 0.979482
O O8 0.781606 0.994719 0.631176
O O9 0.757378 0.027179 0.797991
O O10 0.777127 0.782001 0.732876
O O11 0.068891 0.092472 0.712337
O O12 0.095269 0.079942 0.920408
O O13 0.500000 0.500000 0.000000
#
# Coordination Sequence:
#
# PCOD9283832 Si02
#       6
#     8   8   8   8   8   8
#     4  11  24  44  61  93 142 172 209 274 347 391
#     4   9  18  39  65  90 122 172 216 265 326 390
#     4  10  21  40  64  98 125 170 220 269 328 392
#     4  10  21  40  72  96 122 166 232 269 315 385
#     4  11  23  43  69  97 130 171 223 276 319 392
#     4   9  19  37  65  92 129 161 217 274 326 389
#
# _framework density 21.781775
#
# number of rings (size 3 to 8) (size 9 to 14) (size 15 to 20)
#    0.000    2.000    1.667    3.000    0.000    2.667 
#    9.000    0.833    0.000    0.000    0.000    0.000 
#    0.000    0.000    0.000    0.000    0.000    0.000 
#
# Total GULP energy -133858.632474 kJ/mol
# GULP energy per Si atom -5577.443020 kJ/mol
# Density = 2.173220 g / cm^3
# Si number density = 21.781775 Si / 1000 Ang^3
#
#
#
# Elastic Constant Matrix: (Units=GPa)
#
#
# Indices 1 2 3 4 5 6 
#
# 1 77.7755 28.2395 22.2648 0.0000 -12.7193 0.0000
# 2 28.2395 126.9733 28.7547 0.0000 -18.4035 0.0000
# 3 22.2648 28.7547 40.5754 0.0000 -18.4667 0.0000
# 4 0.0000 0.0000 0.0000 31.5618 0.0000 -7.3282
# 5 -12.7193 -18.4035 -18.4667 0.0000 26.0773 0.0000
# 6 0.0000 0.0000 0.0000 -7.3282 0.0000 38.8378
#
#
#
# Elastic Compliance Matrix: (Units=1/GPa)
#
#
# Indices 1 2 3 4 5 6 
#
# 1 0.015654 -0.001742 -0.006551 0.000000 0.001767 0.000000
# 2 -0.001742 0.009718 -0.004717 0.000000 0.002669 0.000000
# 3 -0.006551 -0.004717 0.042221 0.000000 0.023375 0.000000
# 4 0.000000 0.000000 0.000000 0.033136 0.000000 0.006252
# 5 0.001767 0.002669 0.023375 0.000000 0.057646 0.000000
# 6 0.000000 0.000000 0.000000 0.006252 0.000000 0.026928
#
#
# Mechanical properties :
#
#
# Convention : Reuss Voigt Hill
#
# Bulk Modulus (GPa) = 24.05349 44.87137 34.46243
# Shear Modulus (GPa) = 22.20442 30.36638 26.28540
#
# Velocity S-wave (km/s) = 3.19627 3.73784 3.47762
# Velocity P-wave (km/s) = 4.96875 6.26688 5.65518
#
# Compressibility (1/GPa) = 0.04157400
#
# Stress axis : x y z
#
# Youngs Moduli (GPa) = 63.87979 102.90195 23.68477
#
# Poissons Ratio (x) = 0.17924 0.15517
# Poissons Ratio (y) = 0.11127 0.11171
# Poissons Ratio (z) = 0.41850 0.48534
#
# Static dielectric constant tensor:
#      x y z
#    x 2.009620 0.000000 0.100910 
#    y 0.000000 1.777240 0.000000 
#    z 0.100910 0.000000 1.930620 
# 
# From -- ./inp_files/166382.got.cif
#   From: 2010.05.17/outbox.cif.g08.bks.cpg/sg15_84_cif.got.tgz:166382.got - 2010.06.03 18:47:42.
