data_PCOD9283716
_publ_section_title
;
Structure prediction by ZEFSAII (Michael W. Deem and Ramdas Pophale) SiO2 
 PCOD9283716
Probable space group: C 2/C
;
_chemical_formula_sum "Si O2"
_cell_formula_units_Z 48
_cell_length_a 14.610265
_cell_length_b 11.335298
_cell_length_c 14.570010
_cell_angle_alpha 90.000000
_cell_angle_beta 82.023020
_cell_angle_gamma 90.000000
_cell_volume 2389.616165
_symmetry_space_group_name_H-M "C 2/C"
_symmetry_group_IT_number 15
_symmetry_cell_setting 'monoclinic'
loop_
_space_group_symop_operation_xyz
x,y,z
-x,y,1/2-z
-x,-y,-z
x,-y,1/2+z
1/2+x,1/2+y,z
1/2-x,1/2+y,1/2-z
1/2-x,1/2-y,-z
1/2+x,1/2-y,1/2+z
loop_
_atom_site_type_symbol
_atom_site_label
_atom_site_fract_x
_atom_site_fract_y
_atom_site_fract_z
Si Si1 0.977885 0.703807 0.147933
Si Si2 0.442054 0.547787 0.920828
Si Si3 0.345233 0.818303 0.509219
Si Si4 0.651594 0.909524 0.539607
Si Si5 0.013137 0.809212 0.648703
Si Si6 0.323491 0.678974 0.074122
O O1 0.879553 0.693673 0.110110
O O2 0.000000 0.675089 0.250000
O O3 0.008282 0.839789 0.129320
O O4 0.047099 0.619609 0.081678
O O5 0.435623 0.436600 0.854786
O O6 0.500000 0.500000 0.000000
O O7 0.351102 0.599654 0.981167
O O8 0.250000 0.750000 0.500000
O O9 0.427391 0.764195 0.433425
O O10 0.335499 0.955559 0.486951
O O11 0.674151 0.815040 0.456451
O O12 0.721857 0.867418 0.610897
O O13 0.000000 0.752717 0.750000
O O14 0.908525 0.834276 0.630458
#
# Coordination Sequence:
#
# PCOD9283716 Si02
#       6
#     8   8   8   8   8   8
#     4  11  23  40  66  92 126 170 215 257 316 378
#     4   9  16  36  62  89 120 157 203 258 312 363
#     4  12  25  42  64  94 131 166 206 265 319 372
#     4  10  21  40  64  87 120 162 209 255 312 374
#     4  11  22  37  64  94 126 163 209 260 314 369
#     4   9  19  38  66  86 115 162 209 251 315 371
#
# _framework density 20.086908000000001
#
# number of rings (size 3 to 8) (size 9 to 14) (size 15 to 20)
#    0.000    1.667    5.000    2.000    2.333    2.000 
#    0.000    0.000    0.000    0.000    0.000    0.000 
#    0.000    0.000    0.000    0.000    0.000    0.000 
#
# Total GULP energy -133688.841683 kJ/mol
# GULP energy per Si atom -5570.368403 kJ/mol
# Density = 2.004119 g / cm^3
# Si number density = 20.086908 Si / 1000 Ang^3
#
#
#
# Elastic Constant Matrix: (Units=GPa)
#
#
# Indices 1 2 3 4 5 6 
#
# 1 107.2872 12.6051 24.5873 0.0000 24.1748 0.0000
# 2 12.6051 130.4846 10.7033 0.0000 2.6041 0.0000
# 3 24.5873 10.7033 71.3237 0.0000 20.6072 0.0000
# 4 0.0000 0.0000 0.0000 13.9933 0.0000 -0.5596
# 5 24.1748 2.6041 20.6072 0.0000 18.3506 0.0000
# 6 0.0000 0.0000 0.0000 -0.5596 0.0000 32.9532
#
#
#
# Elastic Compliance Matrix: (Units=1/GPa)
#
#
# Indices 1 2 3 4 5 6 
#
# 1 0.013407 -0.000998 0.000873 0.000000 -0.018501 0.000000
# 2 -0.000998 0.007835 -0.001318 0.000000 0.001682 0.000000
# 3 0.000873 -0.001318 0.021014 0.000000 -0.024562 0.000000
# 4 0.000000 0.000000 0.000000 0.071512 0.000000 0.001214
# 5 -0.018501 0.001682 -0.024562 0.000000 0.106211 0.000000
# 6 0.000000 0.000000 0.000000 0.001214 0.000000 0.030367
#
#
# Mechanical properties :
#
#
# Convention : Reuss Voigt Hill
#
# Bulk Modulus (GPa) = 25.39938 44.98743 35.19340
# Shear Modulus (GPa) = 18.77219 30.47273 24.62246
#
# Velocity S-wave (km/s) = 3.06036 3.89915 3.50494
# Velocity P-wave (km/s) = 5.01596 6.53576 5.82564
#
# Compressibility (1/GPa) = 0.03937104
#
# Stress axis : x y z
#
# Youngs Moduli (GPa) = 74.59001 127.63844 47.58807
#
# Poissons Ratio (x) = 0.12732 -0.04157
# Poissons Ratio (y) = 0.07441 0.06272
# Poissons Ratio (z) = -0.06515 0.16821
#
# Static dielectric constant tensor:
#      x y z
#    x 1.926740 0.000000 -0.033790 
#    y 0.000000 1.723660 0.000000 
#    z -0.033790 0.000000 1.765960 
# 
# From -- ./inp_files/151931.got.cif
#   From: 2010.05.17/outbox.cif.g08.bks.cpg/sg15_76_cif.got.tgz:151931.got - 2010.06.03 18:47:42.
