data_PCOD9283625
_publ_section_title
;
Structure prediction by ZEFSAII (Michael W. Deem and Ramdas Pophale) SiO2 
 PCOD9283625
Probable space group: C 2/C
;
_chemical_formula_sum "Si O2"
_cell_formula_units_Z 52
_cell_length_a 32.689061
_cell_length_b 16.398163
_cell_length_c 9.102882
_cell_angle_alpha 90.000000
_cell_angle_beta 148.353272
_cell_angle_gamma 90.000000
_cell_volume 2560.185118
_symmetry_space_group_name_H-M "C 2/C"
_symmetry_group_IT_number 15
_symmetry_cell_setting 'monoclinic'
loop_
_space_group_symop_operation_xyz
x,y,z
-x,y,1/2-z
-x,-y,-z
x,-y,1/2+z
1/2+x,1/2+y,z
1/2-x,1/2+y,1/2-z
1/2-x,1/2-y,-z
1/2+x,1/2-y,1/2+z
loop_
_atom_site_type_symbol
_atom_site_label
_atom_site_fract_x
_atom_site_fract_y
_atom_site_fract_z
Si Si1 0.000000 0.845516 0.750000
Si Si2 0.376474 0.242549 0.800867
Si Si3 0.542990 0.230668 0.145290
Si Si4 0.080073 0.013755 0.332064
Si Si5 0.667973 0.577346 0.334633
Si Si6 0.171038 0.435181 0.329226
Si Si7 0.579663 0.950876 0.757346
O O1 0.961433 0.792458 0.503326
O O2 0.935029 0.904493 0.621532
O O3 0.333720 0.326839 0.633501
O O4 0.330101 0.159527 0.625585
O O5 0.457601 0.234453 0.960189
O O6 0.397454 0.247408 0.038783
O O7 0.563920 0.140339 0.152577
O O8 0.146391 0.027699 0.414236
O O9 0.101091 0.942764 0.509750
O O10 0.000000 0.000000 0.000000
O O11 0.747696 0.550195 0.503265
O O12 0.146900 0.499348 0.379054
O O13 0.103712 0.442055 0.000280
O O14 0.500000 0.000000 0.500000
#
# Coordination Sequence:
#
# PCOD9283625 Si02
#       7
#     4   8   8   8   8   8   8
#     4  12  22  38  60  96 118 154 216 256 318 348
#     4  10  21  40  63  90 125 167 210 255 312 375
#     4  10  22  36  64  95 121 160 215 267 297 365
#     4  12  24  40  64  93 123 166 213 259 305 376
#     4  12  24  41  64  91 134 164 206 261 320 384
#     4  11  24  41  63  96 127 170 204 259 327 371
#     4  11  22  41  66  93 125 163 221 259 305 373
#
# _framework density 20.311032000000001
#
# number of rings (size 3 to 8) (size 9 to 14) (size 15 to 20)
#    0.000    0.923    4.615    2.769    4.308    0.000 
#    0.000    0.000    0.000    2.769    0.000    0.000 
#    0.000    0.000    0.000    0.000    0.000    0.000 
#
# Total GULP energy -145321.883688 kJ/mol
# GULP energy per Si atom -5589.303219 kJ/mol
# Density = 2.026480 g / cm^3
# Si number density = 20.311032 Si / 1000 Ang^3
#
#
#
# Elastic Constant Matrix: (Units=GPa)
#
#
# Indices 1 2 3 4 5 6 
#
# 1 99.6993 37.5647 0.0339 0.0000 4.1113 0.0000
# 2 37.5647 117.1298 2.5173 0.0000 -12.0578 0.0000
# 3 0.0339 2.5173 34.1490 0.0000 -1.3230 0.0000
# 4 0.0000 0.0000 0.0000 8.6423 0.0000 -6.3741
# 5 4.1113 -12.0578 -1.3230 0.0000 30.3779 0.0000
# 6 0.0000 0.0000 0.0000 -6.3741 0.0000 37.7540
#
#
#
# Elastic Compliance Matrix: (Units=1/GPa)
#
#
# Indices 1 2 3 4 5 6 
#
# 1 0.011701 -0.004086 0.000166 0.000000 -0.003198 0.000000
# 2 -0.004086 0.010337 -0.000579 0.000000 0.004631 0.000000
# 3 0.000166 -0.000579 0.029366 0.000000 0.001027 0.000000
# 4 0.000000 0.000000 0.000000 0.132168 0.000000 0.022314
# 5 -0.003198 0.004631 0.001027 0.000000 0.035234 0.000000
# 6 0.000000 0.000000 0.000000 0.022314 0.000000 0.030255
#
#
# Mechanical properties :
#
#
# Convention : Reuss Voigt Hill
#
# Bulk Modulus (GPa) = 23.58093 36.80110 30.19102
# Shear Modulus (GPa) = 18.36932 29.41233 23.89083
#
# Velocity S-wave (km/s) = 3.01059 3.80951 3.43337
# Velocity P-wave (km/s) = 4.87032 6.12438 5.53299
#
# Compressibility (1/GPa) = 0.04240714
#
# Stress axis : x y z
#
# Youngs Moduli (GPa) = 85.46046 96.74048 34.05336
#
# Poissons Ratio (x) = 0.39523 -0.00564
# Poissons Ratio (y) = 0.34915 0.01970
# Poissons Ratio (z) = -0.01416 0.05597
#
# Static dielectric constant tensor:
#      x y z
#    x 1.718460 0.000000 -0.005960 
#    y 0.000000 1.747370 0.000000 
#    z -0.005960 0.000000 1.732900 
# 
# From -- ./inp_files/70070.got.cif
#   From: 2010.05.17/outbox.cif.g08.bks.cpg/sg15_36_cif.got.tgz:70070.got - 2010.06.03 18:47:42.
