data_PCOD9283284
_publ_section_title
;
Structure prediction by ZEFSAII (Michael W. Deem and Ramdas Pophale) SiO2 
 PCOD9283284
Probable space group: C 2/C
;
_chemical_formula_sum "Si O2"
_cell_formula_units_Z 64
_cell_length_a 23.578436
_cell_length_b 9.598586
_cell_length_c 12.521718
_cell_angle_alpha 90.000000
_cell_angle_beta 79.065072
_cell_angle_gamma 90.000000
_cell_volume 2782.456189
_symmetry_space_group_name_H-M "C 2/C"
_symmetry_group_IT_number 15
_symmetry_cell_setting 'monoclinic'
loop_
_space_group_symop_operation_xyz
x,y,z
-x,y,1/2-z
-x,-y,-z
x,-y,1/2+z
1/2+x,1/2+y,z
1/2-x,1/2+y,1/2-z
1/2-x,1/2-y,-z
1/2+x,1/2-y,1/2+z
loop_
_atom_site_type_symbol
_atom_site_label
_atom_site_fract_x
_atom_site_fract_y
_atom_site_fract_z
Si Si1 0.384579 0.318356 0.637566
Si Si2 0.662602 0.610183 0.854002
Si Si3 0.892550 0.691505 0.293086
Si Si4 0.560582 0.679061 0.032261
Si Si5 0.276499 0.882624 0.433961
Si Si6 0.092355 0.379592 0.192146
Si Si7 0.033263 0.120722 0.594245
Si Si8 0.696660 0.840692 0.480518
O O1 0.362006 0.466837 0.686654
O O2 0.419350 0.230664 0.710909
O O3 0.423419 0.350868 0.520702
O O4 0.331726 0.222618 0.614775
O O5 0.647368 0.739754 0.783484
O O6 0.728679 0.582131 0.861349
O O7 0.626145 0.640343 0.975505
O O8 0.918102 0.537202 0.265644
O O9 0.940674 0.800745 0.314513
O O10 0.851542 0.669309 0.410268
O O11 0.560292 0.821716 0.098257
O O12 0.533888 0.546557 0.104850
O O13 0.526268 0.679714 0.932337
O O14 0.250000 0.750000 0.500000
O O15 0.339331 0.865586 0.359766
O O16 0.282958 0.000686 0.522702
O O17 0.750000 0.750000 0.500000
#
# Coordination Sequence:
#
# PCOD9283284 Si02
#       8
#     8   8   8   8   8   8   8   8
#     4  10  22  39  62  87 118 156 202 246 294 348
#     4  11  22  38  61  90 119 160 198 242 295 354
#     4  10  24  38  57  90 125 151 198 244 296 358
#     4  10  21  41  66  86 114 154 204 248 300 348
#     4  11  23  37  59  88 122 159 193 242 291 349
#     4  11  24  38  58  92 122 157 196 242 297 360
#     4   9  21  43  65  86 113 154 200 258 294 345
#     4  10  21  40  57  84 118 161 202 237 289 346
#
# _framework density 23.001262000000001
#
# number of rings (size 3 to 8) (size 9 to 14) (size 15 to 20)
#    0.000    1.750    2.500    0.750    3.500    3.500 
#    0.000    5.000    0.000    0.000    0.000    0.000 
#    0.000    0.000    0.000    0.000    0.000    0.000 
#
# Total GULP energy -178845.013812 kJ/mol
# GULP energy per Si atom -5588.906682 kJ/mol
# Density = 2.294891 g / cm^3
# Si number density = 23.001262 Si / 1000 Ang^3
#
#
#
# Elastic Constant Matrix: (Units=GPa)
#
#
# Indices 1 2 3 4 5 6 
#
# 1 80.8234 8.5089 -0.8062 0.0000 22.5220 0.0000
# 2 8.5089 141.6378 39.2158 0.0000 11.4128 0.0000
# 3 -0.8062 39.2158 56.5039 0.0000 20.3694 0.0000
# 4 0.0000 0.0000 0.0000 37.4766 0.0000 13.3858
# 5 22.5220 11.4128 20.3694 0.0000 23.4155 0.0000
# 6 0.0000 0.0000 0.0000 13.3858 0.0000 27.4660
#
#
#
# Elastic Compliance Matrix: (Units=1/GPa)
#
#
# Indices 1 2 3 4 5 6 
#
# 1 0.021293 -0.002417 0.013024 0.000000 -0.030632 0.000000
# 2 -0.002417 0.009049 -0.008105 0.000000 0.004964 0.000000
# 3 0.013024 -0.008105 0.038753 0.000000 -0.042288 0.000000
# 4 0.000000 0.000000 0.000000 0.032307 0.000000 -0.015745
# 5 -0.030632 0.004964 -0.042288 0.000000 0.106537 0.000000
# 6 0.000000 0.000000 0.000000 -0.015745 0.000000 0.044082
#
#
# Mechanical properties :
#
#
# Convention : Reuss Voigt Hill
#
# Bulk Modulus (GPa) = 13.49533 41.42247 27.45890
# Shear Modulus (GPa) = 18.40149 33.14141 25.77145
#
# Velocity S-wave (km/s) = 2.83153 3.79997 3.35092
# Velocity P-wave (km/s) = 4.07063 6.10745 5.18994
#
# Compressibility (1/GPa) = 0.07409971
#
# Stress axis : x y z
#
# Youngs Moduli (GPa) = 46.96450 110.50420 25.80421
#
# Poissons Ratio (x) = 0.26707 -0.33607
# Poissons Ratio (y) = 0.11351 0.20914
# Poissons Ratio (z) = -0.61165 0.89560
#
# Static dielectric constant tensor:
#      x y z
#    x 1.913040 0.000000 0.028780 
#    y 0.000000 1.891060 0.000000 
#    z 0.028780 0.000000 1.929630 
# 
# From -- ./inp_files/176610.got.cif
#   From: 2010.05.17/outbox.cif.g08.bks.cpg/sg15_89_cif.got.tgz:176610.got - 2010.06.03 18:47:42.
