data_PCOD9283121
_publ_section_title
;
Structure prediction by ZEFSAII (Michael W. Deem and Ramdas Pophale) SiO2 
 PCOD9283121
Probable space group: C 2/C
;
_chemical_formula_sum "Si O2"
_cell_formula_units_Z 40
_cell_length_a 9.713390
_cell_length_b 14.995967
_cell_length_c 13.186446
_cell_angle_alpha 90.000000
_cell_angle_beta 116.743549
_cell_angle_gamma 90.000000
_cell_volume 1715.295405
_symmetry_space_group_name_H-M "C 2/C"
_symmetry_group_IT_number 15
_symmetry_cell_setting 'monoclinic'
loop_
_space_group_symop_operation_xyz
x,y,z
-x,y,1/2-z
-x,-y,-z
x,-y,1/2+z
1/2+x,1/2+y,z
1/2-x,1/2+y,1/2-z
1/2-x,1/2-y,-z
1/2+x,1/2-y,1/2+z
loop_
_atom_site_type_symbol
_atom_site_label
_atom_site_fract_x
_atom_site_fract_y
_atom_site_fract_z
Si Si1 0.309768 0.772902 0.862281
Si Si2 0.374313 0.617635 0.046664
Si Si3 0.291346 0.530001 0.364334
Si Si4 0.350592 0.160065 0.045837
Si Si5 0.687004 0.618965 0.792293
O O1 0.187674 0.843443 0.867544
O O2 0.269108 0.710614 0.752451
O O3 0.351503 0.699987 0.962551
O O4 0.470407 0.821771 0.900038
O O5 0.546860 0.580045 0.101614
O O6 0.289381 0.536396 0.961200
O O7 0.180977 0.608883 0.360650
O O8 0.269649 0.464056 0.264025
O O9 0.282800 0.109092 0.926117
O O10 0.250000 0.250000 0.000000
O O11 0.500000 0.620164 0.750000
#
# Coordination Sequence:
#
# PCOD9283121 Si02
#       5
#     8   8   8   8   8
#     4  10  21  39  67  97 135 168 225 279 326 393
#     4   9  18  39  65  93 129 173 213 281 323 389
#     4  10  21  41  66  93 132 172 227 266 331 409
#     4  12  22  43  70  98 134 177 218 283 337 391
#     4  11  22  42  67  98 132 181 223 267 338 411
#
# _framework density 23.319599
#
# number of rings (size 3 to 8) (size 9 to 14) (size 15 to 20)
#    0.000    1.600    4.000    2.400    0.000    0.800 
#    7.200    9.000    4.400    0.000    0.000    0.000 
#    0.000    0.000    0.000    0.000    0.000    0.000 
#
# Total GULP energy -111784.998158 kJ/mol
# GULP energy per Si atom -5589.249908 kJ/mol
# Density = 2.326652 g / cm^3
# Si number density = 23.319599 Si / 1000 Ang^3
#
#
#
# Elastic Constant Matrix: (Units=GPa)
#
#
# Indices 1 2 3 4 5 6 
#
# 1 75.3691 73.1266 20.3571 0.0000 -20.4627 0.0000
# 2 73.1266 147.0020 52.6775 0.0000 -24.6791 0.0000
# 3 20.3571 52.6775 102.1139 0.0000 -15.4996 0.0000
# 4 0.0000 0.0000 0.0000 140.5195 0.0000 -35.0631
# 5 -20.4627 -24.6791 -15.4996 0.0000 25.0932 0.0000
# 6 0.0000 0.0000 0.0000 -35.0631 0.0000 55.0021
#
#
#
# Elastic Compliance Matrix: (Units=1/GPa)
#
#
# Indices 1 2 3 4 5 6 
#
# 1 0.028642 -0.013279 0.002983 0.000000 0.012139 0.000000
# 2 -0.013279 0.015451 -0.005143 0.000000 0.001191 0.000000
# 3 0.002983 -0.005143 0.012638 0.000000 0.005181 0.000000
# 4 0.000000 0.000000 0.000000 0.008463 0.000000 0.005395
# 5 0.012139 0.001191 0.005181 0.000000 0.054122 0.000000
# 6 0.000000 0.000000 0.000000 0.005395 0.000000 0.021620
#
#
# Mechanical properties :
#
#
# Convention : Reuss Voigt Hill
#
# Bulk Modulus (GPa) = 38.68013 68.53415 53.60714
# Shear Modulus (GPa) = 27.71140 56.01120 41.86130
#
# Velocity S-wave (km/s) = 3.45096 4.90623 4.24147
# Velocity P-wave (km/s) = 5.70103 7.84523 6.85746
#
# Compressibility (1/GPa) = 0.02585307
#
# Stress axis : x y z
#
# Youngs Moduli (GPa) = 34.91370 64.72025 79.12849
#
# Poissons Ratio (x) = 0.85942 -0.23603
# Poissons Ratio (y) = 0.46362 0.40694
# Poissons Ratio (z) = -0.10414 0.33284
#
# Static dielectric constant tensor:
#      x y z
#    x 1.850570 0.000000 -0.051070 
#    y 0.000000 1.919640 0.000000 
#    z -0.051070 0.000000 1.894510 
# 
# From -- ./inp_files/133281.got.cif
#   From: 2010.05.17/outbox.cif.g08.bks.cpg/sg15_67_cif.got.tgz:133281.got - 2010.06.03 18:47:42.
