data_PCOD9283657
_publ_section_title
;
Structure prediction by ZEFSAII (Michael W. Deem and Ramdas Pophale) SiO2 
 PCOD9283657
Probable space group: C 2/C
;
_chemical_formula_sum "Si O2"
_cell_formula_units_Z 64
_cell_length_a 32.413257
_cell_length_b 11.567179
_cell_length_c 15.579136
_cell_angle_alpha 90.000000
_cell_angle_beta 35.347754
_cell_angle_gamma 90.000000
_cell_volume 3379.287339
_symmetry_space_group_name_H-M "C 2/C"
_symmetry_group_IT_number 15
_symmetry_cell_setting 'monoclinic'
loop_
_space_group_symop_operation_xyz
x,y,z
-x,y,1/2-z
-x,-y,-z
x,-y,1/2+z
1/2+x,1/2+y,z
1/2-x,1/2+y,1/2-z
1/2-x,1/2-y,-z
1/2+x,1/2-y,1/2+z
loop_
_atom_site_type_symbol
_atom_site_label
_atom_site_fract_x
_atom_site_fract_y
_atom_site_fract_z
Si Si1 0.309884 0.387914 0.783887
Si Si2 0.167150 0.381367 0.291546
Si Si3 0.652528 0.896055 0.119976
Si Si4 0.570555 0.690776 0.171126
Si Si5 0.437757 0.504836 0.173435
Si Si6 0.577738 0.341370 0.161727
Si Si7 0.680408 0.470334 0.403834
Si Si8 0.415522 0.077272 0.395143
O O1 0.330072 0.259647 0.715250
O O2 0.369320 0.438682 0.746005
O O3 0.303840 0.480778 0.717206
O O4 0.235877 0.377757 0.959580
O O5 0.142892 0.418287 0.237395
O O6 0.246250 0.430917 0.176290
O O7 0.116726 0.426120 0.453938
O O8 0.611755 0.780631 0.160356
O O9 0.624102 0.994046 0.104088
O O10 0.500000 0.744494 0.250000
O O11 0.544256 0.585487 0.275715
O O12 0.625202 0.636369 0.008956
O O13 0.426654 0.378433 0.231862
O O14 0.500000 0.500000 0.000000
O O15 0.500000 0.361709 0.250000
O O16 0.595064 0.208755 0.117675
O O17 0.638806 0.423514 0.019300
O O18 0.500000 0.052940 0.250000
#
# Coordination Sequence:
#
# PCOD9283657 Si02
#       8
#     8   8   8   8   8   8   8   8
#     4  12  22  41  67  98 133 172 218 271 338 397
#     4  12  24  44  67  93 133 174 220 276 334 400
#     4  12  24  43  67  97 131 180 224 269 326 407
#     4  11  22  38  62  98 135 165 219 280 322 390
#     4  11  22  37  64 101 128 166 215 274 336 384
#     4  10  21  40  63  92 132 169 213 269 329 389
#     4  11  21  39  67  95 126 170 218 270 338 381
#     4  11  26  45  66  92 131 182 222 267 338 404
#
# _framework density 18.938904999999998
#
# number of rings (size 3 to 8) (size 9 to 14) (size 15 to 20)
#    0.000    0.750    5.000    5.250    1.750    0.500 
#    0.000    6.250    0.000    0.000    0.000    0.000 
#    0.000    0.000    0.000    0.000    0.000    0.000 
#
# Total GULP energy -178746.284974 kJ/mol
# GULP energy per Si atom -5585.821405 kJ/mol
# Density = 1.889580 g / cm^3
# Si number density = 18.938905 Si / 1000 Ang^3
#
#
#
# Elastic Constant Matrix: (Units=GPa)
#
#
# Indices 1 2 3 4 5 6 
#
# 1 103.2295 41.8263 51.1807 0.0000 8.7362 0.0000
# 2 41.8263 71.3543 30.5964 0.0000 8.2902 0.0000
# 3 51.1807 30.5964 131.6789 0.0000 7.1132 0.0000
# 4 0.0000 0.0000 0.0000 22.2275 0.0000 9.0302
# 5 8.7362 8.2902 7.1132 0.0000 39.9284 0.0000
# 6 0.0000 0.0000 0.0000 9.0302 0.0000 3.8372
#
#
#
# Elastic Compliance Matrix: (Units=1/GPa)
#
#
# Indices 1 2 3 4 5 6 
#
# 1 0.014456 -0.006625 -0.004022 0.000000 -0.001071 0.000000
# 2 -0.006625 0.018876 -0.001694 0.000000 -0.002168 0.000001
# 3 -0.004022 -0.001694 0.009577 0.000000 -0.000474 0.000000
# 4 0.000000 0.000000 0.000000 1.024243 0.000000 -2.410398
# 5 -0.001071 -0.002168 -0.000474 0.000000 0.025814 0.000000
# 6 0.000000 0.000001 0.000000 -2.410398 0.000000 5.933110
#
#
# Mechanical properties :
#
#
# Convention : Reuss Voigt Hill
#
# Bulk Modulus (GPa) = 54.86087 61.49662 58.17875
# Shear Modulus (GPa) = 0.70853 25.37588 13.04221
#
# Velocity S-wave (km/s) = 0.61231 3.66441 2.62705
# Velocity P-wave (km/s) = 5.43416 7.10249 6.32359
#
# Compressibility (1/GPa) = 0.01822793
#
# Stress axis : x y z
#
# Youngs Moduli (GPa) = 69.17591 52.97686 104.42202
#
# Poissons Ratio (x) = 0.35097 0.41993
# Poissons Ratio (y) = 0.45828 0.17688
# Poissons Ratio (z) = 0.27819 0.08974
#
# Static dielectric constant tensor:
#      x y z
#    x 1.649700 0.000000 0.011180 
#    y 0.000000 1.679730 0.000000 
#    z 0.011180 0.000000 1.669550 
# 
# From -- ./inp_files/181752.got.cif
#   From: 2010.05.17/outbox.cif.g08.bks.cpg/sg15_91_cif.got.tgz:181752.got - 2010.06.03 18:47:42.
