data_PCOD9283332
_publ_section_title
;
Structure prediction by ZEFSAII (Michael W. Deem and Ramdas Pophale) SiO2 
 PCOD9283332
Probable space group: C 2/C
;
_chemical_formula_sum "Si O2"
_cell_formula_units_Z 64
_cell_length_a 17.853015
_cell_length_b 17.918650
_cell_length_c 29.581677
_cell_angle_alpha 90.000000
_cell_angle_beta 160.960251
_cell_angle_gamma 90.000000
_cell_volume 3087.134820
_symmetry_space_group_name_H-M "C 2/C"
_symmetry_group_IT_number 15
_symmetry_cell_setting 'monoclinic'
loop_
_space_group_symop_operation_xyz
x,y,z
-x,y,1/2-z
-x,-y,-z
x,-y,1/2+z
1/2+x,1/2+y,z
1/2-x,1/2+y,1/2-z
1/2-x,1/2-y,-z
1/2+x,1/2-y,1/2+z
loop_
_atom_site_type_symbol
_atom_site_label
_atom_site_fract_x
_atom_site_fract_y
_atom_site_fract_z
Si Si1 0.155305 0.929884 0.714420
Si Si2 0.371657 0.017255 0.506512
Si Si3 0.086040 0.069619 0.912462
Si Si4 0.381882 0.815261 0.635710
Si Si5 0.141246 0.347826 0.187833
Si Si6 0.305832 0.371609 0.670587
Si Si7 0.156291 0.204455 0.145299
Si Si8 0.944823 0.230579 0.934288
O O1 0.068106 0.901494 0.712979
O O2 0.169425 0.863421 0.687297
O O3 0.402338 0.965436 0.867657
O O4 0.991936 0.996101 0.604502
O O5 0.459782 0.085642 0.588862
O O6 0.299730 0.060613 0.419518
O O7 0.182871 0.962492 0.420745
O O8 0.852649 0.117696 0.779107
O O9 0.276693 0.117318 0.046971
O O10 0.500000 0.840656 0.750000
O O11 0.582884 0.777462 0.721582
O O12 0.167111 0.764430 0.528390
O O13 0.048819 0.276655 0.107904
O O14 0.252011 0.313555 0.296310
O O15 0.500000 0.334941 0.750000
O O16 0.131619 0.311071 0.591326
O O17 0.020579 0.186282 0.022229
#
# Coordination Sequence:
#
# PCOD9283332 Si02
#       8
#     8   8   8   8   8   8   8   8
#     4  11  23  39  64  91 126 169 213 261 325 374
#     4  11  22  42  62  90 128 166 211 259 321 382
#     4  10  21  40  59  92 125 166 206 262 318 382
#     4   9  20  39  66  92 126 158 218 263 321 369
#     4  10  22  39  66  90 128 161 217 259 317 378
#     4  12  23  40  63  89 132 167 210 256 315 390
#     4  11  20  40  67  94 122 169 210 270 320 372
#     4  10  22  41  60  96 125 161 211 267 311 371
#
# _framework density 20.731197000000002
#
# number of rings (size 3 to 8) (size 9 to 14) (size 15 to 20)
#    0.000    1.500    5.000    0.375    0.000    3.000 
#    4.500    4.375    2.750    0.000    0.000    0.000 
#    0.000    0.000    0.000    0.000    0.000    0.000 
#
# Total GULP energy -178484.086662 kJ/mol
# GULP energy per Si atom -5577.627708 kJ/mol
# Density = 2.068401 g / cm^3
# Si number density = 20.731197 Si / 1000 Ang^3
#
#
#
# Elastic Constant Matrix: (Units=GPa)
#
#
# Indices 1 2 3 4 5 6 
#
# 1 81.2894 43.8543 19.3066 0.0339 -7.6629 0.0057
# 2 43.8543 93.3410 15.2610 0.0189 -3.8135 0.0042
# 3 19.3066 15.2610 62.6101 0.0578 -12.6790 0.0085
# 4 0.0339 0.0189 0.0578 27.0602 0.0150 -0.8595
# 5 -7.6629 -3.8135 -12.6790 0.0150 25.4980 -0.0031
# 6 0.0057 0.0042 0.0085 -0.8595 -0.0031 40.8214
#
#
#
# Elastic Compliance Matrix: (Units=1/GPa)
#
#
# Indices 1 2 3 4 5 6 
#
# 1 0.017325 -0.007547 -0.002977 -0.000012 0.002598 -0.000001
# 2 -0.007547 0.014448 -0.001352 0.000003 -0.000780 0.000000
# 3 -0.002977 -0.001352 0.018901 -0.000040 0.008302 -0.000004
# 4 -0.000012 0.000003 -0.000040 0.036979 -0.000045 0.000779
# 5 0.002598 -0.000780 0.008302 -0.000045 0.044011 0.000000
# 6 -0.000001 0.000000 -0.000004 0.000779 0.000000 0.024513
#
#
# Mechanical properties :
#
#
# Convention : Reuss Voigt Hill
#
# Bulk Modulus (GPa) = 37.14476 43.78714 40.46595
# Shear Modulus (GPa) = 26.46846 29.26385 27.86615
#
# Velocity S-wave (km/s) = 3.57703 3.76118 3.67026
# Velocity P-wave (km/s) = 5.91747 6.32687 6.12559
#
# Compressibility (1/GPa) = 0.02692170
#
# Stress axis : x y z
#
# Youngs Moduli (GPa) = 57.71975 69.21150 52.90842
#
# Poissons Ratio (x) = 0.52234 0.15750
# Poissons Ratio (y) = 0.43561 0.07156
# Poissons Ratio (z) = 0.17182 0.09360
#
# Static dielectric constant tensor:
#      x y z
#    x 1.755590 0.000000 0.034380 
#    y 0.000000 1.738380 -0.000020 
#    z 0.034380 -0.000020 1.786200 
# 
# From -- ./inp_files/274842.got.cif
#   From: 2010.05.17/outbox.cif.g08.bks.cpg/sg15_138_cif.got.tgz:274842.got - 2010.06.03 18:47:42.
