data_PCOD9283881
_publ_section_title
;
Structure prediction by ZEFSAII (Michael W. Deem and Ramdas Pophale) SiO2 
 PCOD9283881
Probable space group: C 2/C
;
_chemical_formula_sum "Si O2"
_cell_formula_units_Z 60
_cell_length_a 17.914018
_cell_length_b 17.864083
_cell_length_c 18.040079
_cell_angle_alpha 90.000000
_cell_angle_beta 149.587406
_cell_angle_gamma 90.000000
_cell_volume 2922.498740
_symmetry_space_group_name_H-M "C 2/C"
_symmetry_group_IT_number 15
_symmetry_cell_setting 'monoclinic'
loop_
_space_group_symop_operation_xyz
x,y,z
-x,y,1/2-z
-x,-y,-z
x,-y,1/2+z
1/2+x,1/2+y,z
1/2-x,1/2+y,1/2-z
1/2-x,1/2-y,-z
1/2+x,1/2-y,1/2+z
loop_
_atom_site_type_symbol
_atom_site_label
_atom_site_fract_x
_atom_site_fract_y
_atom_site_fract_z
Si Si1 0.181025 0.876811 0.095015
Si Si2 0.729226 0.161452 0.992211
Si Si3 0.487178 0.112719 0.899853
Si Si4 0.589388 0.531187 0.970319
Si Si5 0.589020 0.831333 0.643006
Si Si6 0.500000 0.558840 0.250000
Si Si7 0.071348 0.460425 0.733396
Si Si8 0.437103 0.682279 0.471135
O O1 0.319545 0.856783 0.265118
O O2 0.115170 0.960236 0.046893
O O3 0.256216 0.871339 0.078508
O O4 0.041795 0.823544 0.987927
O O5 0.861548 0.114575 0.143726
O O6 0.750000 0.250000 0.000000
O O7 0.582913 0.147928 0.914920
O O8 0.459993 0.027181 0.851321
O O9 0.569506 0.127115 0.047184
O O10 0.758693 0.550525 0.099623
O O11 0.525719 0.607375 0.949384
O O12 0.516082 0.494480 0.835341
O O13 0.527372 0.884793 0.654505
O O14 0.495814 0.755658 0.561460
O O15 0.763897 0.817905 0.805135
O O16 0.000000 0.479109 0.750000
#
# Coordination Sequence:
#
# PCOD9283881 Si02
#       8
#     8   8   8   8   8   4   8   8
#     4  10  21  40  65  90 126 172 213 261 325 377
#     4  11  24  36  61  93 134 171 210 261 321 386
#     4  11  22  41  66  94 128 170 216 264 321 393
#     4   9  21  41  64  92 124 172 214 270 322 382
#     4  11  25  41  65  98 127 172 215 269 335 385
#     4  10  22  40  60  98 124 168 228 254 328 386
#     4  10  21  45  68  93 127 167 223 274 320 387
#     4  11  23  44  62  92 136 165 216 274 322 385
#
# _framework density 20.530376
#
# number of rings (size 3 to 8) (size 9 to 14) (size 15 to 20)
#    0.000    1.600    0.000    5.200    5.600    0.000 
#   10.800    1.333    0.000    0.000    0.000    0.000 
#    0.000    0.000    0.000    0.000    0.000    0.000 
#
# Total GULP energy -167308.534602 kJ/mol
# GULP energy per Si atom -5576.951153 kJ/mol
# Density = 2.048365 g / cm^3
# Si number density = 20.530376 Si / 1000 Ang^3
#
#
#
# Elastic Constant Matrix: (Units=GPa)
#
#
# Indices 1 2 3 4 5 6 
#
# 1 38.2290 32.3979 20.0509 0.0006 -4.5630 0.0004
# 2 32.3979 117.1720 59.1482 0.0000 -10.9957 0.0003
# 3 20.0509 59.1482 114.1051 0.0009 -7.0302 0.0006
# 4 0.0006 0.0000 0.0009 34.5339 0.0007 1.0567
# 5 -4.5630 -10.9957 -7.0302 0.0007 20.2212 0.0006
# 6 0.0004 0.0003 0.0006 1.0567 0.0006 28.7585
#
#
#
# Elastic Compliance Matrix: (Units=1/GPa)
#
#
# Indices 1 2 3 4 5 6 
#
# 1 0.034485 -0.008548 -0.001467 -0.000001 0.002623 0.000000
# 2 -0.008548 0.014055 -0.005550 0.000000 0.003784 0.000000
# 3 -0.001467 -0.005550 0.011948 0.000000 0.000805 0.000000
# 4 -0.000001 0.000000 0.000000 0.028990 -0.000001 -0.001065
# 5 0.002623 0.003784 0.000805 -0.000001 0.052383 -0.000001
# 6 0.000000 0.000000 0.000000 -0.001065 -0.000001 0.034811
#
#
# Mechanical properties :
#
#
# Convention : Reuss Voigt Hill
#
# Bulk Modulus (GPa) = 34.06341 54.74445 44.40393
# Shear Modulus (GPa) = 22.97907 27.22999 25.10453
#
# Velocity S-wave (km/s) = 3.34918 3.64583 3.50065
# Velocity P-wave (km/s) = 5.61994 6.66676 6.16561
#
# Compressibility (1/GPa) = 0.02935702
#
# Stress axis : x y z
#
# Youngs Moduli (GPa) = 28.99799 71.14918 83.69368
#
# Poissons Ratio (x) = 0.60821 0.12278
# Poissons Ratio (y) = 0.24789 0.46453
# Poissons Ratio (z) = 0.04254 0.39490
#
# Static dielectric constant tensor:
#      x y z
#    x 1.793150 0.000000 0.008430 
#    y 0.000000 1.767840 0.000000 
#    z 0.008430 0.000000 1.768330 
# 
# From -- ./inp_files/211747.got.cif
#   From: 2010.05.17/outbox.cif.g08.bks.cpg/sg15_106_cif.got.tgz:211747.got - 2010.06.03 18:47:42.
