data_PCOD9283444
_publ_section_title
;
Structure prediction by ZEFSAII (Michael W. Deem and Ramdas Pophale) SiO2 
 PCOD9283444
Probable space group: C 2/C
;
_chemical_formula_sum "Si O2"
_cell_formula_units_Z 32
_cell_length_a 6.893164
_cell_length_b 21.446829
_cell_length_c 11.453856
_cell_angle_alpha 90.000000
_cell_angle_beta 119.728229
_cell_angle_gamma 90.000000
_cell_volume 1470.438562
_symmetry_space_group_name_H-M "C 2/C"
_symmetry_group_IT_number 15
_symmetry_cell_setting 'monoclinic'
loop_
_space_group_symop_operation_xyz
x,y,z
-x,y,1/2-z
-x,-y,-z
x,-y,1/2+z
1/2+x,1/2+y,z
1/2-x,1/2+y,1/2-z
1/2-x,1/2-y,-z
1/2+x,1/2-y,1/2+z
loop_
_atom_site_type_symbol
_atom_site_label
_atom_site_fract_x
_atom_site_fract_y
_atom_site_fract_z
Si Si1 0.832045 0.318403 0.301030
Si Si2 0.439196 0.426822 0.361403
Si Si3 0.575260 0.894896 0.947180
Si Si4 0.000000 0.714445 0.250000
Si Si5 0.500000 0.004263 0.250000
O O1 0.635483 0.355686 0.178358
O O2 0.928474 0.370512 0.420165
O O3 0.717743 0.258238 0.322552
O O4 0.000000 0.299734 0.250000
O O5 0.500000 0.451899 0.250000
O O6 0.670336 0.419186 0.498761
O O7 0.220851 0.462951 0.340305
O O8 0.503847 0.832654 0.859030
O O9 0.445348 0.951780 0.846321
#
# Coordination Sequence:
#
# PCOD9283444 Si02
#       5
#     8   8   8   4   4
#     4  11  22  39  63  92 123 165 205 246 310 364
#     4  10  21  40  61  93 123 164 203 251 307 364
#     4  10  23  42  64  91 126 164 201 258 306 361
#     4  11  22  44  62  90 130 159 204 258 306 359
#     4  11  22  42  64  92 126 161 206 254 306 363
#
# _framework density 21.762215999999999
#
# number of rings (size 3 to 8) (size 9 to 14) (size 15 to 20)
#    0.000    1.500    5.000    1.500    0.000    5.000 
#    4.500    2.500    0.000    0.000    0.000    0.000 
#    0.000    0.000    0.000    0.000    0.000    0.000 
#
# Total GULP energy -89102.555651 kJ/mol
# GULP energy per Si atom -5568.909728 kJ/mol
# Density = 2.171268 g / cm^3
# Si number density = 21.762216 Si / 1000 Ang^3
#
#
#
# Elastic Constant Matrix: (Units=GPa)
#
#
# Indices 1 2 3 4 5 6 
#
# 1 68.8019 23.0886 -7.1328 0.0000 -11.7219 0.0000
# 2 23.0886 87.9630 -3.9545 0.0000 4.4792 0.0000
# 3 -7.1328 -3.9545 42.5513 0.0000 8.8172 0.0000
# 4 0.0000 0.0000 0.0000 29.8610 0.0000 8.0177
# 5 -11.7219 4.4792 8.8172 0.0000 19.8326 0.0000
# 6 0.0000 0.0000 0.0000 8.0177 0.0000 1.1702
#
#
#
# Elastic Compliance Matrix: (Units=1/GPa)
#
#
# Indices 1 2 3 4 5 6 
#
# 1 0.018431 -0.005450 0.000078 0.000000 0.012090 0.000000
# 2 -0.005450 0.013235 0.001766 0.000000 -0.006995 0.000000
# 3 0.000078 0.001766 0.026161 0.000000 -0.011984 0.000000
# 4 0.000000 0.000000 0.000000 -0.039881 0.000000 0.273258
# 5 0.012090 -0.006995 -0.011984 0.000000 0.064475 0.000000
# 6 0.000000 0.000000 0.000000 0.273258 0.000000 -1.017721
#
#
# Mechanical properties :
#
#
# Convention : Reuss Voigt Hill
#
# Bulk Modulus (GPa) = 19.75706 24.81320 22.28513
# Shear Modulus (GPa) = -5.48717 22.66042 8.58662
#
# Velocity S-wave (km/s) = -1.58962 3.23038 1.98852
# Velocity P-wave (km/s) = 2.39356 5.03394 3.94142
#
# Compressibility (1/GPa) = 0.05061482
#
# Stress axis : x y z
#
# Youngs Moduli (GPa) = 54.25577 75.55997 38.22426
#
# Poissons Ratio (x) = 0.41180 -0.00298
# Poissons Ratio (y) = 0.29569 -0.06750
# Poissons Ratio (z) = -0.00423 -0.13343
#
# Static dielectric constant tensor:
#      x y z
#    x 1.886200 0.000000 -0.027250 
#    y 0.000000 1.780330 0.000000 
#    z -0.027250 0.000000 1.882330 
# 
# From -- ./inp_files/77451.got.cif
#   From: 2010.05.17/outbox.cif.g08.bks.cpg/sg15_39_cif.got.tgz:77451.got - 2010.06.03 18:47:42.
