data_PCOD9283914
_publ_section_title
;
Structure prediction by ZEFSAII (Michael W. Deem and Ramdas Pophale) SiO2 
 PCOD9283914
Probable space group: C 2/C
;
_chemical_formula_sum "Si O2"
_cell_formula_units_Z 44
_cell_length_a 26.119500
_cell_length_b 8.394523
_cell_length_c 31.294822
_cell_angle_alpha 90.000000
_cell_angle_beta 162.608915
_cell_angle_gamma 90.000000
_cell_volume 2050.917134
_symmetry_space_group_name_H-M "C 2/C"
_symmetry_group_IT_number 15
_symmetry_cell_setting 'monoclinic'
loop_
_space_group_symop_operation_xyz
x,y,z
-x,y,1/2-z
-x,-y,-z
x,-y,1/2+z
1/2+x,1/2+y,z
1/2-x,1/2+y,1/2-z
1/2-x,1/2-y,-z
1/2+x,1/2-y,1/2+z
loop_
_atom_site_type_symbol
_atom_site_label
_atom_site_fract_x
_atom_site_fract_y
_atom_site_fract_z
Si Si1 0.211315 0.062351 0.970959
Si Si2 0.000000 0.636527 0.750000
Si Si3 0.799978 0.365276 0.172957
Si Si4 0.022728 0.927469 0.400893
Si Si5 0.665643 0.057557 0.106367
Si Si6 0.397557 0.054398 0.039077
O O1 0.237634 0.014662 0.943071
O O2 0.358583 0.974689 0.115074
O O3 0.250000 0.250000 0.000000
O O4 0.048620 0.032289 0.870949
O O5 0.096422 0.710539 0.785420
O O6 0.725253 0.241304 0.148033
O O7 0.936558 0.479330 0.305459
O O8 0.647498 0.466993 0.029707
O O9 0.075398 0.743292 0.445397
O O10 0.826888 0.963476 0.254307
O O11 0.500000 0.000000 0.000000
O O12 0.629385 0.014489 0.028577
#
# Coordination Sequence:
#
# PCOD9283914 Si02
#       6
#     8   4   8   8   8   8
#     4   8  16  31  58  91 122 152 190 240 304 374
#     4   8  16  32  58  92 124 154 192 242 306 366
#     4  10  21  41  65  93 128 161 198 251 308 371
#     4  10  21  40  65  93 123 159 200 249 307 368
#     4  12  27  42  57  85 121 165 215 259 301 349
#     4  10  21  40  65  93 123 159 200 249 307 368
#
# _framework density 21.453816
#
# number of rings (size 3 to 8) (size 9 to 14) (size 15 to 20)
#    0.000    2.182    0.000    2.182    0.000    9.455 
#    0.000    8.182    0.000    0.000    0.000    0.000 
#    0.000    0.000    0.000    0.000    0.000    0.000 
#
# Total GULP energy -122690.743344 kJ/mol
# GULP energy per Si atom -5576.851970 kJ/mol
# Density = 2.140499 g / cm^3
# Si number density = 21.453816 Si / 1000 Ang^3
#
#
#
# Elastic Constant Matrix: (Units=GPa)
#
#
# Indices 1 2 3 4 5 6 
#
# 1 40.3995 -9.7469 -6.4095 0.1131 6.1837 -0.0876
# 2 -9.7469 57.7217 -6.7131 0.0326 8.3846 -0.0088
# 3 -6.4095 -6.7131 58.5159 0.2420 18.2564 -0.1836
# 4 0.1131 0.0326 0.2420 -0.6739 0.0351 18.3172
# 5 6.1837 8.3846 18.2564 0.0351 40.2019 -0.0289
# 6 -0.0876 -0.0088 -0.1836 18.3172 -0.0289 14.2477
#
#
#
# Elastic Compliance Matrix: (Units=1/GPa)
#
#
# Indices 1 2 3 4 5 6 
#
# 1 0.028874 0.006963 0.006755 0.000388 -0.008962 -0.000248
# 2 0.006963 0.020277 0.005524 0.000187 -0.007809 -0.000130
# 3 0.006755 0.005524 0.022304 0.000476 -0.012320 -0.000305
# 4 0.000388 0.000187 0.000476 -0.041270 -0.000241 0.053066
# 5 -0.008962 -0.007809 -0.012320 -0.000241 0.033477 0.000159
# 6 -0.000248 -0.000130 -0.000305 0.053066 0.000159 0.001958
#
#
# Mechanical properties :
#
#
# Convention : Reuss Voigt Hill
#
# Bulk Modulus (GPa) = 9.09594 12.32200 10.70897
# Shear Modulus (GPa) = 78.39208 22.72224 50.55716
#
# Velocity S-wave (km/s) = 6.05138 3.25795 4.85971
# Velocity P-wave (km/s) = 7.28523 4.46187 6.04082
#
# Compressibility (1/GPa) = 0.10993911
#
# Stress axis : x y z
#
# Youngs Moduli (GPa) = 34.63271 49.31724 44.83516
#
# Poissons Ratio (x) = -0.34339 -0.30287
# Poissons Ratio (y) = -0.24114 -0.24767
# Poissons Ratio (z) = -0.23395 -0.27243
#
# Static dielectric constant tensor:
#      x y z
#    x 1.795840 -0.000070 0.031640 
#    y -0.000070 1.720840 0.000160 
#    z 0.031640 0.000160 1.750790 
# 
# From -- ./inp_files/122104.got.cif
#   From: 2010.05.17/outbox.cif.g08.bks.cpg/sg15_62_cif.got.tgz:122104.got - 2010.06.03 18:47:42.
