data_PCOD9283742
_publ_section_title
;
Structure prediction by ZEFSAII (Michael W. Deem and Ramdas Pophale) SiO2 
 PCOD9283742
Probable space group: C 2/C
;
_chemical_formula_sum "Si O2"
_cell_formula_units_Z 64
_cell_length_a 14.414416
_cell_length_b 25.103928
_cell_length_c 8.556594
_cell_angle_alpha 90.000000
_cell_angle_beta 91.801671
_cell_angle_gamma 90.000000
_cell_volume 3094.745277
_symmetry_space_group_name_H-M "C 2/C"
_symmetry_group_IT_number 15
_symmetry_cell_setting 'monoclinic'
loop_
_space_group_symop_operation_xyz
x,y,z
-x,y,1/2-z
-x,-y,-z
x,-y,1/2+z
1/2+x,1/2+y,z
1/2-x,1/2+y,1/2-z
1/2-x,1/2-y,-z
1/2+x,1/2-y,1/2+z
loop_
_atom_site_type_symbol
_atom_site_label
_atom_site_fract_x
_atom_site_fract_y
_atom_site_fract_z
Si Si1 0.943302 0.363107 0.012198
Si Si2 0.082199 0.114678 0.034521
Si Si3 0.389511 0.638587 0.096743
Si Si4 0.144049 0.751490 0.051713
Si Si5 0.744748 0.539445 0.023544
Si Si6 0.137816 0.375966 0.152487
Si Si7 0.701725 0.292633 0.382564
Si Si8 0.787298 0.572189 0.381798
O O1 0.905967 0.381662 0.179741
O O2 0.054028 0.363797 0.028406
O O3 0.908276 0.303510 0.978867
O O4 0.890267 0.403755 0.896245
O O5 0.095445 0.127309 0.219431
O O6 0.140457 0.062124 0.993727
O O7 0.971911 0.109634 0.006099
O O8 0.129795 0.165622 0.955205
O O9 0.285513 0.617468 0.064583
O O10 0.399361 0.699903 0.048587
O O11 0.150786 0.764919 0.235235
O O12 0.250000 0.750000 0.000000
O O13 0.767779 0.555013 0.202920
O O14 0.808920 0.573075 0.909620
O O15 0.764590 0.478384 0.988270
O O16 0.212044 0.328695 0.168222
O O17 0.750000 0.250000 0.500000
#
# Coordination Sequence:
#
# PCOD9283742 Si02
#       8
#     8   8   8   8   8   8   8   8
#     4  11  24  40  64  92 122 163 209 249 306 368
#     4   9  22  40  61  92 124 160 205 254 307 367
#     4  10  21  40  64  90 124 161 206 251 308 368
#     4  12  22  38  61  91 127 165 203 249 302 367
#     4  10  23  42  65  89 123 160 204 260 310 362
#     4  10  23  42  61  89 122 160 206 251 304 363
#     4  11  23  38  58  86 126 166 203 247 298 359
#     4  11  22  41  65  90 119 162 204 257 313 366
#
# _framework density 20.680216999999999
#
# number of rings (size 3 to 8) (size 9 to 14) (size 15 to 20)
#    0.000    1.500    2.500    1.500    5.250    4.000 
#    0.000    0.000    0.000    0.000    0.000    0.000 
#    0.000    0.000    0.000    0.000    0.000    0.000 
#
# Total GULP energy -178725.615510 kJ/mol
# GULP energy per Si atom -5585.175485 kJ/mol
# Density = 2.063315 g / cm^3
# Si number density = 20.680217 Si / 1000 Ang^3
#
#
#
# Elastic Constant Matrix: (Units=GPa)
#
#
# Indices 1 2 3 4 5 6 
#
# 1 67.3574 -4.3890 0.8621 0.0000 -1.7516 0.0000
# 2 -4.3890 80.3145 11.7042 0.0000 -0.4261 0.0000
# 3 0.8621 11.7042 41.5461 0.0000 -7.2176 0.0000
# 4 0.0000 0.0000 0.0000 27.9904 0.0000 8.0877
# 5 -1.7516 -0.4261 -7.2176 0.0000 20.5087 0.0000
# 6 0.0000 0.0000 0.0000 8.0877 0.0000 8.0577
#
#
#
# Elastic Compliance Matrix: (Units=1/GPa)
#
#
# Indices 1 2 3 4 5 6 
#
# 1 0.014938 0.000874 -0.000353 0.000000 0.001170 0.000000
# 2 0.000874 0.013058 -0.003873 0.000000 -0.001017 0.000000
# 3 -0.000353 -0.003873 0.026787 0.000000 0.009316 0.000000
# 4 0.000000 0.000000 0.000000 0.050320 0.000000 -0.050508
# 5 0.001170 -0.001017 0.009316 0.000000 0.052117 0.000000
# 6 0.000000 0.000000 0.000000 -0.050508 0.000000 0.174801
#
#
# Mechanical properties :
#
#
# Convention : Reuss Voigt Hill
#
# Bulk Modulus (GPa) = 20.79966 22.84139 21.82052
# Shear Modulus (GPa) = 14.09435 23.38074 18.73754
#
# Velocity S-wave (km/s) = 2.61346 3.36606 3.01335
# Velocity P-wave (km/s) = 4.38024 5.11627 4.76249
#
# Compressibility (1/GPa) = 0.04807772
#
# Stress axis : x y z
#
# Youngs Moduli (GPa) = 66.94306 76.58204 37.33200
#
# Poissons Ratio (x) = -0.06693 0.01318
# Poissons Ratio (y) = -0.05851 0.14460
# Poissons Ratio (z) = 0.02363 0.29664
#
# Static dielectric constant tensor:
#      x y z
#    x 1.747710 0.000000 0.015540 
#    y 0.000000 1.717980 0.000000 
#    z 0.015540 0.000000 1.763270 
# 
# From -- ./inp_files/42630.got.cif
#   From: 2010.05.17/outbox.cif.g08.bks.cpg/sg15_22_cif.got.tgz:42630.got - 2010.06.03 18:47:42.
