data_PCOD9283617
_publ_section_title
;
Structure prediction by ZEFSAII (Michael W. Deem and Ramdas Pophale) SiO2 
 PCOD9283617
Probable space group: C 2/C
;
_chemical_formula_sum "Si O2"
_cell_formula_units_Z 52
_cell_length_a 8.987968
_cell_length_b 12.445724
_cell_length_c 18.654795
_cell_angle_alpha 90.000000
_cell_angle_beta 80.603463
_cell_angle_gamma 90.000000
_cell_volume 2058.758312
_symmetry_space_group_name_H-M "C 2/C"
_symmetry_group_IT_number 15
_symmetry_cell_setting 'monoclinic'
loop_
_space_group_symop_operation_xyz
x,y,z
-x,y,1/2-z
-x,-y,-z
x,-y,1/2+z
1/2+x,1/2+y,z
1/2-x,1/2+y,1/2-z
1/2-x,1/2-y,-z
1/2+x,1/2-y,1/2+z
loop_
_atom_site_type_symbol
_atom_site_label
_atom_site_fract_x
_atom_site_fract_y
_atom_site_fract_z
Si Si1 0.000000 0.994291 0.750000
Si Si2 0.153014 0.632316 0.583814
Si Si3 0.665399 0.164971 0.746660
Si Si4 0.045937 0.158300 0.026703
Si Si5 0.387290 0.997977 0.117072
Si Si6 0.672617 0.870820 0.765371
Si Si7 0.580758 0.564143 0.591870
O O1 0.033382 0.066760 0.678009
O O2 0.159056 0.930395 0.754688
O O3 0.204620 0.629088 0.662493
O O4 0.048337 0.736802 0.575774
O O5 0.287109 0.640782 0.517974
O O6 0.052835 0.527402 0.579191
O O7 0.500000 0.217013 0.750000
O O8 0.634068 0.071149 0.806551
O O9 0.784351 0.252048 0.762568
O O10 0.005111 0.048469 0.071034
O O11 0.953115 0.158940 0.960286
O O12 0.258676 0.955157 0.077056
O O13 0.351764 0.117421 0.146491
O O14 0.500000 0.895889 0.750000
#
# Coordination Sequence:
#
# PCOD9283617 Si02
#       7
#     4   8   8   8   8   8   8
#     4  10  22  40  70  88 136 164 216 286 314 378
#     4  10  21  40  63  89 132 172 207 273 322 390
#     4  10  21  40  64  95 132 169 215 279 335 377
#     4  10  23  40  63  89 128 175 216 256 337 398
#     4  10  23  39  65  96 128 168 223 275 325 386
#     4  11  22  38  62 101 128 168 215 272 332 391
#     4  10  23  41  62  94 122 177 216 264 331 390
#
# _framework density 25.257943000000001
#
# number of rings (size 3 to 8) (size 9 to 14) (size 15 to 20)
#    0.000    1.846    0.769    3.231    8.615    2.462 
#    1.385    0.000    0.000    0.000    0.000    0.000 
#    0.000    0.000    0.000    0.000    0.000    0.000 
#
# Total GULP energy -144968.449958 kJ/mol
# GULP energy per Si atom -5575.709614 kJ/mol
# Density = 2.520045 g / cm^3
# Si number density = 25.257943 Si / 1000 Ang^3
#
#
#
# Elastic Constant Matrix: (Units=GPa)
#
#
# Indices 1 2 3 4 5 6 
#
# 1 134.3697 21.7391 18.1545 0.0000 16.8453 0.0000
# 2 21.7391 38.6621 17.5324 0.0000 8.5712 0.0000
# 3 18.1545 17.5324 118.2571 0.0000 3.2725 0.0000
# 4 0.0000 0.0000 0.0000 19.4643 0.0000 0.5768
# 5 16.8453 8.5712 3.2725 0.0000 40.6655 0.0000
# 6 0.0000 0.0000 0.0000 0.5768 0.0000 37.7048
#
#
#
# Elastic Compliance Matrix: (Units=1/GPa)
#
#
# Indices 1 2 3 4 5 6 
#
# 1 0.008492 -0.003892 -0.000653 0.000000 -0.002645 0.000000
# 2 -0.003892 0.030810 -0.003844 0.000000 -0.004572 0.000000
# 3 -0.000653 -0.003844 0.009117 0.000000 0.000347 0.000000
# 4 0.000000 0.000000 0.000000 0.051399 0.000000 -0.000786
# 5 -0.002645 -0.004572 0.000347 0.000000 0.026622 0.000000
# 6 0.000000 0.000000 0.000000 -0.000786 0.000000 0.026534
#
#
# Mechanical properties :
#
#
# Convention : Reuss Voigt Hill
#
# Bulk Modulus (GPa) = 31.60549 45.12677 38.36613
# Shear Modulus (GPa) = 27.73164 35.15778 31.44471
#
# Velocity S-wave (km/s) = 3.31711 3.73493 3.53220
# Velocity P-wave (km/s) = 5.21644 6.04192 5.64429
#
# Compressibility (1/GPa) = 0.03164007
#
# Stress axis : x y z
#
# Youngs Moduli (GPa) = 117.76237 32.45666 109.68855
#
# Poissons Ratio (x) = 0.12633 0.07167
# Poissons Ratio (y) = 0.45835 0.42162
# Poissons Ratio (z) = 0.07695 0.12476
#
# Static dielectric constant tensor:
#      x y z
#    x 2.059600 0.000000 0.021490 
#    y 0.000000 2.089790 0.000000 
#    z 0.021490 0.000000 2.069930 
# 
# From -- ./inp_files/231298.got.cif
#   From: 2010.05.17/outbox.cif.g08.bks.cpg/sg15_116_cif.got.tgz:231298.got - 2010.06.03 18:47:42.
