data_PCOD9283583
_publ_section_title
;
Structure prediction by ZEFSAII (Michael W. Deem and Ramdas Pophale) SiO2 
 PCOD9283583
Probable space group: C 2/C
;
_chemical_formula_sum "Si O2"
_cell_formula_units_Z 60
_cell_length_a 15.845661
_cell_length_b 8.224032
_cell_length_c 23.668922
_cell_angle_alpha 90.000000
_cell_angle_beta 107.643049
_cell_angle_gamma 90.000000
_cell_volume 2939.339608
_symmetry_space_group_name_H-M "C 2/C"
_symmetry_group_IT_number 15
_symmetry_cell_setting 'monoclinic'
loop_
_space_group_symop_operation_xyz
x,y,z
-x,y,1/2-z
-x,-y,-z
x,-y,1/2+z
1/2+x,1/2+y,z
1/2-x,1/2+y,1/2-z
1/2-x,1/2-y,-z
1/2+x,1/2-y,1/2+z
loop_
_atom_site_type_symbol
_atom_site_label
_atom_site_fract_x
_atom_site_fract_y
_atom_site_fract_z
Si Si1 0.500000 0.992228 0.250000
Si Si2 0.389539 0.347031 0.427045
Si Si3 0.873026 0.659759 0.310118
Si Si4 0.069353 0.146615 0.135558
Si Si5 0.965671 0.627009 0.538063
Si Si6 0.094410 0.809242 0.821605
Si Si7 0.693781 0.489604 0.744274
Si Si8 0.293518 0.839554 0.061739
O O1 0.457420 0.099090 0.291475
O O2 0.426816 0.867784 0.209622
O O3 0.387039 0.203832 0.378986
O O4 0.439808 0.496282 0.408894
O O5 0.432290 0.277557 0.492604
O O6 0.290165 0.410423 0.421590
O O7 0.795374 0.531243 0.281932
O O8 0.835054 0.830101 0.278326
O O9 0.163572 0.124903 0.185318
O O10 0.040386 0.308649 0.096515
O O11 0.997119 0.129779 0.170552
O O12 0.879107 0.564735 0.555123
O O13 0.000000 0.500000 0.500000
O O14 0.137186 0.926841 0.785403
O O15 0.162006 0.786794 0.886481
O O16 0.250000 0.750000 0.000000
#
# Coordination Sequence:
#
# PCOD9283583 Si02
#       8
#     4   8   8   8   8   8   8   8
#     4  12  26  38  62  96 130 158 210 266 308 382
#     4  10  21  40  63  85 122 160 214 251 305 378
#     4  11  26  38  64  93 126 163 210 256 316 373
#     4  10  22  37  63  87 120 164 203 251 311 366
#     4  10  22  38  63  90 119 160 208 259 313 367
#     4  11  21  40  65  85 128 166 204 252 323 365
#     4  11  22  42  61  91 125 166 207 255 313 381
#     4   9  20  40  60  86 116 163 203 248 310 367
#
# _framework density 20.412748000000001
#
# number of rings (size 3 to 8) (size 9 to 14) (size 15 to 20)
#    0.000    1.600    2.667    1.200    9.333    0.000 
#    0.000    0.667    0.000    0.000    0.000    0.000 
#    0.000    0.000    0.000    0.000    0.000    0.000 
#
# Total GULP energy -167374.009097 kJ/mol
# GULP energy per Si atom -5579.133637 kJ/mol
# Density = 2.036629 g / cm^3
# Si number density = 20.412748 Si / 1000 Ang^3
#
#
#
# Elastic Constant Matrix: (Units=GPa)
#
#
# Indices 1 2 3 4 5 6 
#
# 1 44.8564 17.2640 7.1817 0.0000 -23.4773 0.0000
# 2 17.2640 46.0695 0.5851 0.0000 -9.3862 0.0000
# 3 7.1817 0.5851 85.5531 0.0000 -2.0673 0.0000
# 4 0.0000 0.0000 0.0000 36.0412 0.0000 -11.2866
# 5 -23.4773 -9.3862 -2.0673 0.0000 42.8197 0.0000
# 6 0.0000 0.0000 0.0000 -11.2866 0.0000 26.7580
#
#
#
# Elastic Compliance Matrix: (Units=1/GPa)
#
#
# Indices 1 2 3 4 5 6 
#
# 1 0.035430 -0.009747 -0.002493 0.000000 0.017169 0.000000
# 2 -0.009747 0.025403 0.000651 0.000000 0.000255 0.000000
# 3 -0.002493 0.000651 0.011878 0.000000 -0.000651 0.000000
# 4 0.000000 0.000000 0.000000 0.031969 0.000000 0.013485
# 5 0.017169 0.000255 -0.000651 0.000000 0.032792 0.000000
# 6 0.000000 0.000000 0.000000 0.013485 0.000000 0.043060
#
#
# Mechanical properties :
#
#
# Convention : Reuss Voigt Hill
#
# Bulk Modulus (GPa) = 20.18905 25.17118 22.68011
# Shear Modulus (GPa) = 22.70461 31.22032 26.96247
#
# Velocity S-wave (km/s) = 3.33870 3.91506 3.63831
# Velocity P-wave (km/s) = 4.97739 5.72668 5.36513
#
# Compressibility (1/GPa) = 0.04953181
#
# Stress axis : x y z
#
# Youngs Moduli (GPa) = 28.22487 39.36580 84.19122
#
# Poissons Ratio (x) = 0.38371 0.20986
# Poissons Ratio (y) = 0.27512 -0.05478
# Poissons Ratio (z) = 0.07035 -0.02561
#
# Static dielectric constant tensor:
#      x y z
#    x 1.770970 0.000000 0.013570 
#    y 0.000000 1.708480 0.000000 
#    z 0.013570 0.000000 1.753670 
# 
# From -- ./inp_files/272817.got.cif
#   From: 2010.05.17/outbox.cif.g08.bks.cpg/sg15_137_cif.got.tgz:272817.got - 2010.06.03 18:47:42.
