data_PCOD9283802
_publ_section_title
;
Structure prediction by ZEFSAII (Michael W. Deem and Ramdas Pophale) SiO2 
 PCOD9283802
Probable space group: C 2/C
;
_chemical_formula_sum "Si O2"
_cell_formula_units_Z 52
_cell_length_a 7.279821
_cell_length_b 12.145405
_cell_length_c 27.041785
_cell_angle_alpha 90.000000
_cell_angle_beta 68.062001
_cell_angle_gamma 90.000000
_cell_volume 2217.805716
_symmetry_space_group_name_H-M "C 2/C"
_symmetry_group_IT_number 15
_symmetry_cell_setting 'monoclinic'
loop_
_space_group_symop_operation_xyz
x,y,z
-x,y,1/2-z
-x,-y,-z
x,-y,1/2+z
1/2+x,1/2+y,z
1/2-x,1/2+y,1/2-z
1/2-x,1/2-y,-z
1/2+x,1/2-y,1/2+z
loop_
_atom_site_type_symbol
_atom_site_label
_atom_site_fract_x
_atom_site_fract_y
_atom_site_fract_z
Si Si1 0.217150 0.044956 0.632357
Si Si2 0.707409 0.317014 0.444862
Si Si3 0.840954 0.496852 0.870679
Si Si4 0.500000 0.473281 0.750000
Si Si5 0.295303 0.142031 0.282963
Si Si6 0.672762 0.086362 0.469112
Si Si7 0.648611 0.727523 0.393358
O O1 0.217869 0.166565 0.609565
O O2 0.439558 0.019761 0.630740
O O3 0.066554 0.033649 0.693062
O O4 0.196773 0.959790 0.589363
O O5 0.712255 0.396288 0.397362
O O6 0.582413 0.205347 0.461422
O O7 0.702039 0.394871 0.493419
O O8 0.927642 0.262959 0.427482
O O9 0.848316 0.463549 0.812317
O O10 0.742326 0.385830 0.903286
O O11 0.316991 0.396505 0.753654
O O12 0.500000 0.200241 0.250000
O O13 0.159519 0.213636 0.332448
O O14 0.500000 0.000000 0.500000
#
# Coordination Sequence:
#
# PCOD9283802 Si02
#       7
#     8   8   8   4   8   8   8
#     4  11  22  40  66  96 132 175 220 274 342 398
#     4  10  21  42  67  90 131 180 213 279 345 394
#     4   9  20  41  63  93 135 166 218 279 329 398
#     4  12  22  40  66  94 130 180 224 274 342 406
#     4  10  21  40  64  94 135 173 227 283 332 406
#     4  11  21  40  68  94 131 174 225 274 336 409
#     4   9  20  39  64  92 131 168 217 279 326 406
#
# _framework density 23.446598000000002
#
# number of rings (size 3 to 8) (size 9 to 14) (size 15 to 20)
#    0.923    0.923    4.615    0.923    1.077    0.000 
#    2.769    9.231    1.692    0.000    0.000    0.000 
#    0.000    0.000    0.000    0.000    0.000    0.000 
#
# Total GULP energy -145019.881882 kJ/mol
# GULP energy per Si atom -5577.687765 kJ/mol
# Density = 2.339323 g / cm^3
# Si number density = 23.446598 Si / 1000 Ang^3
#
#
#
# Elastic Constant Matrix: (Units=GPa)
#
#
# Indices 1 2 3 4 5 6 
#
# 1 71.3679 13.1239 3.7191 0.0000 -13.5209 0.0000
# 2 13.1239 128.0129 24.1504 0.0000 -7.5454 0.0000
# 3 3.7191 24.1504 105.7837 0.0000 -17.7031 0.0000
# 4 0.0000 0.0000 0.0000 26.9344 0.0000 -9.5498
# 5 -13.5209 -7.5454 -17.7031 0.0000 17.0434 0.0000
# 6 0.0000 0.0000 0.0000 -9.5498 0.0000 21.4117
#
#
#
# Elastic Compliance Matrix: (Units=1/GPa)
#
#
# Indices 1 2 3 4 5 6 
#
# 1 0.017022 -0.001269 0.002248 0.000000 0.015278 0.000000
# 2 -0.001269 0.008316 -0.001702 0.000000 0.000907 0.000000
# 3 0.002248 -0.001702 0.012026 0.000000 0.013521 0.000000
# 4 0.000000 0.000000 0.000000 0.044101 0.000000 0.019670
# 5 0.015278 0.000907 0.013521 0.000000 0.085240 0.000000
# 6 0.000000 0.000000 0.000000 0.019670 0.000000 0.055476
#
#
# Mechanical properties :
#
#
# Convention : Reuss Voigt Hill
#
# Bulk Modulus (GPa) = 27.84091 43.01682 35.42887
# Shear Modulus (GPa) = 21.22237 30.68931 25.95584
#
# Velocity S-wave (km/s) = 3.01181 3.62180 3.33080
# Velocity P-wave (km/s) = 4.89843 5.98970 5.47134
#
# Compressibility (1/GPa) = 0.03591836
#
# Stress axis : x y z
#
# Youngs Moduli (GPa) = 58.74597 120.24455 83.15616
#
# Poissons Ratio (x) = 0.15256 -0.18693
# Poissons Ratio (y) = 0.07453 0.14155
# Poissons Ratio (z) = -0.13206 0.20468
#
# Static dielectric constant tensor:
#      x y z
#    x 1.913450 0.000000 -0.042460 
#    y 0.000000 1.952840 0.000000 
#    z -0.042460 0.000000 1.911650 
# 
# From -- ./inp_files/287565.got.cif
#   From: 2010.05.17/outbox.cif.g08.bks.cpg/sg15_144_cif.got.tgz:287565.got - 2010.06.03 18:47:42.
