data_PCOD9283538
_publ_section_title
;
Structure prediction by ZEFSAII (Michael W. Deem and Ramdas Pophale) SiO2 
 PCOD9283538
Probable space group: C 2/C
;
_chemical_formula_sum "Si O2"
_cell_formula_units_Z 32
_cell_length_a 17.415910
_cell_length_b 7.615580
_cell_length_c 15.686332
_cell_angle_alpha 90.000000
_cell_angle_beta 46.210925
_cell_angle_gamma 90.000000
_cell_volume 1501.906521
_symmetry_space_group_name_H-M "C 2/C"
_symmetry_group_IT_number 15
_symmetry_cell_setting 'monoclinic'
loop_
_space_group_symop_operation_xyz
x,y,z
-x,y,1/2-z
-x,-y,-z
x,-y,1/2+z
1/2+x,1/2+y,z
1/2-x,1/2+y,1/2-z
1/2-x,1/2-y,-z
1/2+x,1/2-y,1/2+z
loop_
_atom_site_type_symbol
_atom_site_label
_atom_site_fract_x
_atom_site_fract_y
_atom_site_fract_z
Si Si1 0.537829 0.125431 0.857985
Si Si2 0.200902 0.377328 0.968020
Si Si3 0.093032 0.000346 0.243727
Si Si4 0.092259 0.278941 0.887059
O O1 0.580330 0.071729 0.584754
O O2 0.578250 0.292462 0.775593
O O3 0.605472 0.949802 0.816764
O O4 0.513417 0.190716 0.974051
O O5 0.250000 0.250000 0.000000
O O6 0.289300 0.524507 0.884959
O O7 0.181808 0.281268 0.891345
O O8 0.000000 0.950041 0.250000
O O9 0.084797 0.891435 0.336291
#
# Coordination Sequence:
#
# PCOD9283538 Si02
#       4
#     8   8   8   8
#     4   9  21  42  60  85 127 158 198 262 308 353
#     4  10  21  40  62  92 124 163 200 256 310 362
#     4  12  22  38  64  90 121 164 209 248 309 368
#     4   9  22  39  62  86 122 159 208 245 309 367
#
# _framework density 21.306253999999999
#
# number of rings (size 3 to 8) (size 9 to 14) (size 15 to 20)
#    1.500    0.500    2.500    0.750    3.500    1.000 
#    0.000    3.750    0.000    0.000    0.000    0.000 
#    0.000    0.000    0.000    0.000    0.000    0.000 
#
# Total GULP energy -89136.898342 kJ/mol
# GULP energy per Si atom -5571.056146 kJ/mol
# Density = 2.125776 g / cm^3
# Si number density = 21.306254 Si / 1000 Ang^3
#
#
#
# Elastic Constant Matrix: (Units=GPa)
#
#
# Indices 1 2 3 4 5 6 
#
# 1 140.6833 36.2504 30.0058 0.0000 26.7867 0.0000
# 2 36.2504 58.6809 17.9010 -0.0001 8.7466 0.0000
# 3 30.0058 17.9010 25.3577 0.0000 -1.4601 0.0000
# 4 0.0000 -0.0001 0.0000 17.1503 0.0000 2.8552
# 5 26.7867 8.7466 -1.4601 0.0000 34.4302 0.0000
# 6 0.0000 0.0000 0.0000 2.8552 0.0000 9.6049
#
#
#
# Elastic Compliance Matrix: (Units=1/GPa)
#
#
# Indices 1 2 3 4 5 6 
#
# 1 0.012440 -0.001999 -0.013871 0.000000 -0.009759 0.000000
# 2 -0.001999 0.023437 -0.014469 0.000000 -0.005013 0.000000
# 3 -0.013871 -0.014469 0.067060 0.000000 0.017311 0.000000
# 4 0.000000 0.000000 0.000000 0.061344 0.000000 -0.018235
# 5 -0.009759 -0.005013 0.017311 0.000000 0.038644 0.000000
# 6 0.000000 0.000000 0.000000 -0.018235 0.000000 0.109534
#
#
# Mechanical properties :
#
#
# Convention : Reuss Voigt Hill
#
# Bulk Modulus (GPa) = 23.66291 43.67069 33.66680
# Shear Modulus (GPa) = 12.91249 21.60805 17.26027
#
# Velocity S-wave (km/s) = 2.46446 3.18805 2.84932
# Velocity P-wave (km/s) = 4.38501 5.83890 5.16338
#
# Compressibility (1/GPa) = 0.04226023
#
# Stress axis : x y z
#
# Youngs Moduli (GPa) = 80.38752 42.66771 14.91200
#
# Poissons Ratio (x) = 0.08528 0.20684
# Poissons Ratio (y) = 0.16067 0.21576
# Poissons Ratio (z) = 1.11505 0.61734
#
# Static dielectric constant tensor:
#      x y z
#    x 1.794700 0.000000 -0.057250 
#    y 0.000000 1.763570 0.000000 
#    z -0.057250 0.000000 1.856840 
# 
# From -- ./inp_files/102392.got.cif
#   From: 2010.05.17/outbox.cif.g08.bks.cpg/sg15_52_cif.got.tgz:102392.got - 2010.06.03 18:47:42.
