data_PCOD9283008
_publ_section_title
;
Structure prediction by ZEFSAII (Michael W. Deem and Ramdas Pophale) SiO2 
 PCOD9283008
Probable space group: C 2/C
;
_chemical_formula_sum "Si O2"
_cell_formula_units_Z 48
_cell_length_a 21.887557
_cell_length_b 5.450930
_cell_length_c 19.418376
_cell_angle_alpha 90.000000
_cell_angle_beta 116.373598
_cell_angle_gamma 90.000000
_cell_volume 2075.622464
_symmetry_space_group_name_H-M "C 2/C"
_symmetry_group_IT_number 15
_symmetry_cell_setting 'monoclinic'
loop_
_space_group_symop_operation_xyz
x,y,z
-x,y,1/2-z
-x,-y,-z
x,-y,1/2+z
1/2+x,1/2+y,z
1/2-x,1/2+y,1/2-z
1/2-x,1/2-y,-z
1/2+x,1/2-y,1/2+z
loop_
_atom_site_type_symbol
_atom_site_label
_atom_site_fract_x
_atom_site_fract_y
_atom_site_fract_z
Si Si1 0.561228 0.965185 0.425596
Si Si2 0.093438 0.448913 0.170143
Si Si3 0.821258 0.927362 0.706243
Si Si4 0.809943 0.813334 0.339898
Si Si5 0.425356 0.262428 0.204386
Si Si6 0.922128 0.973993 0.990039
O O1 0.480576 0.929200 0.398632
O O2 0.570536 0.049285 0.350737
O O3 0.583388 0.209594 0.477222
O O4 0.590603 0.704861 0.464624
O O5 0.119203 0.215574 0.223962
O O6 0.147797 0.561330 0.145556
O O7 0.085927 0.650005 0.226276
O O8 0.760835 0.741117 0.657330
O O9 0.791819 0.098983 0.753127
O O10 0.859355 0.066000 0.663783
O O11 0.863425 0.993645 0.403312
O O12 0.500000 0.387246 0.250000
O O13 0.000000 0.000000 0.000000
#
# Coordination Sequence:
#
# PCOD9283008 Si02
#       6
#     8   8   8   8   8   8
#     4  11  25  43  67  97 135 177 225 276 336 404
#     4  10  21  39  66  93 129 169 222 287 326 394
#     4  11  22  40  68  96 136 167 229 288 339 399
#     4  11  23  38  63 101 128 174 221 279 345 394
#     4   9  23  41  63  98 125 177 225 280 339 393
#     4  12  25  42  66  98 138 179 223 276 336 410
#
# _framework density 23.125591
#
# number of rings (size 3 to 8) (size 9 to 14) (size 15 to 20)
#    0.000    1.333    3.333    1.500    9.333    0.667 
#    0.000    1.667    0.000    0.000    0.000    0.000 
#    0.000    0.000    0.000    0.000    0.000    0.000 
#
# Total GULP energy -134035.443682 kJ/mol
# GULP energy per Si atom -5584.810153 kJ/mol
# Density = 2.307296 g / cm^3
# Si number density = 23.125591 Si / 1000 Ang^3
#
#
#
# Elastic Constant Matrix: (Units=GPa)
#
#
# Indices 1 2 3 4 5 6 
#
# 1 96.0556 31.3474 28.5199 0.0000 16.5968 0.0000
# 2 31.3474 93.9353 18.2757 -0.0004 9.1584 0.0002
# 3 28.5199 18.2757 79.8072 0.0000 16.8358 0.0000
# 4 0.0000 -0.0004 0.0000 30.2618 0.0000 2.3567
# 5 16.5968 9.1584 16.8358 0.0000 16.0471 -0.0001
# 6 0.0000 0.0002 0.0000 2.3567 -0.0001 31.3854
#
#
#
# Elastic Compliance Matrix: (Units=1/GPa)
#
#
# Indices 1 2 3 4 5 6 
#
# 1 0.013854 -0.003218 -0.002027 0.000000 -0.010365 0.000000
# 2 -0.003218 0.012176 -0.001123 0.000000 -0.002443 0.000000
# 3 -0.002027 -0.001123 0.016611 0.000000 -0.014689 0.000000
# 4 0.000000 0.000000 0.000000 0.033239 0.000000 -0.002496
# 5 -0.010365 -0.002443 -0.014689 0.000000 0.089841 0.000000
# 6 0.000000 0.000000 0.000000 -0.002496 0.000000 0.032049
#
#
# Mechanical properties :
#
#
# Convention : Reuss Voigt Hill
#
# Bulk Modulus (GPa) = 33.44094 47.34267 40.39180
# Shear Modulus (GPa) = 22.67829 28.31588 25.49708
#
# Velocity S-wave (km/s) = 3.13494 3.50299 3.32407
# Velocity P-wave (km/s) = 5.25317 6.07270 5.67774
#
# Compressibility (1/GPa) = 0.02990346
#
# Stress axis : x y z
#
# Youngs Moduli (GPa) = 72.18328 82.12739 60.20234
#
# Poissons Ratio (x) = 0.26430 0.12205
# Poissons Ratio (y) = 0.23230 0.06761
# Poissons Ratio (z) = 0.14634 0.09223
#
# Static dielectric constant tensor:
#      x y z
#    x 1.886020 0.000000 0.004500 
#    y 0.000000 1.985620 0.000000 
#    z 0.004500 0.000000 1.902810 
# 
# From -- ./inp_files/254468.got.cif
#   From: 2010.05.17/outbox.cif.g08.bks.cpg/sg15_128_cif.got.tgz:254468.got - 2010.06.03 18:47:42.
