data_PCOD9283115
_publ_section_title
;
Structure prediction by ZEFSAII (Michael W. Deem and Ramdas Pophale) SiO2 
 PCOD9283115
Probable space group: C 2/C
;
_chemical_formula_sum "Si O2"
_cell_formula_units_Z 52
_cell_length_a 8.461679
_cell_length_b 17.648486
_cell_length_c 18.627802
_cell_angle_alpha 90.000000
_cell_angle_beta 65.620727
_cell_angle_gamma 90.000000
_cell_volume 2533.753675
_symmetry_space_group_name_H-M "C 2/C"
_symmetry_group_IT_number 15
_symmetry_cell_setting 'monoclinic'
loop_
_space_group_symop_operation_xyz
x,y,z
-x,y,1/2-z
-x,-y,-z
x,-y,1/2+z
1/2+x,1/2+y,z
1/2-x,1/2+y,1/2-z
1/2-x,1/2-y,-z
1/2+x,1/2-y,1/2+z
loop_
_atom_site_type_symbol
_atom_site_label
_atom_site_fract_x
_atom_site_fract_y
_atom_site_fract_z
Si Si1 0.790522 0.886276 0.619440
Si Si2 0.500000 0.320656 0.250000
Si Si3 0.302911 0.056694 0.874570
Si Si4 0.711144 0.060572 0.795482
Si Si5 0.698585 0.608930 0.215619
Si Si6 0.988398 0.285319 0.615640
Si Si7 0.611742 0.690070 0.995197
O O1 0.739694 0.885241 0.713065
O O2 0.653983 0.836186 0.601742
O O3 0.979815 0.849707 0.574971
O O4 0.773461 0.972971 0.596267
O O5 0.665173 0.373065 0.199976
O O6 0.540799 0.269512 0.310951
O O7 0.508278 0.061481 0.852798
O O8 0.280970 0.066556 0.792807
O O9 0.208260 0.122677 0.935084
O O10 0.786364 0.979676 0.805813
O O11 0.500000 0.633612 0.250000
O O12 0.822557 0.659344 0.143968
O O13 0.999939 0.236587 0.542056
O O14 0.750000 0.750000 0.000000
#
# Coordination Sequence:
#
# PCOD9283115 Si02
#       7
#     8   4   8   8   8   8   8
#     4  11  23  44  66  91 134 175 212 262 326 393
#     4  12  22  38  68 102 128 154 216 272 326 364
#     4  10  22  43  67  90 128 176 216 259 321 386
#     4  10  21  39  67  96 125 164 219 268 314 382
#     4  11  21  39  69  97 125 166 220 267 315 382
#     4  12  24  43  66  98 129 173 212 269 325 378
#     4  12  27  44  62  98 135 171 215 268 327 381
#
# _framework density 20.522911000000001
#
# number of rings (size 3 to 8) (size 9 to 14) (size 15 to 20)
#    0.000    0.923    5.385    1.846    2.154    1.231 
#    0.000    0.769    0.000    0.000    0.000    0.000 
#    0.000    0.000    0.000    0.000    0.000    0.000 
#
# Total GULP energy -145391.951541 kJ/mol
# GULP energy per Si atom -5591.998136 kJ/mol
# Density = 2.047620 g / cm^3
# Si number density = 20.522911 Si / 1000 Ang^3
#
#
#
# Elastic Constant Matrix: (Units=GPa)
#
#
# Indices 1 2 3 4 5 6 
#
# 1 75.6608 31.0256 -9.8511 0.0000 -17.9039 0.0000
# 2 31.0256 129.9909 21.4535 0.0000 -9.1502 0.0000
# 3 -9.8511 21.4535 25.2819 0.0000 -7.1936 0.0000
# 4 0.0000 0.0000 0.0000 19.2537 0.0000 11.5786
# 5 -17.9039 -9.1502 -7.1936 0.0000 34.1567 0.0000
# 6 0.0000 0.0000 0.0000 11.5786 0.0000 -108.6261
#
#
#
# Elastic Compliance Matrix: (Units=1/GPa)
#
#
# Indices 1 2 3 4 5 6 
#
# 1 0.021782 -0.007310 0.018490 0.000000 0.013353 0.000000
# 2 -0.007310 0.011422 -0.013574 0.000000 -0.003631 0.000000
# 3 0.018490 -0.013574 0.063825 0.000000 0.019497 0.000000
# 4 0.000000 0.000000 0.000000 0.048809 0.000000 0.005203
# 5 0.013353 -0.003631 0.019497 0.000000 0.039410 0.000000
# 6 0.000000 0.000000 0.000000 0.005203 0.000000 -0.008651
#
#
# Mechanical properties :
#
#
# Convention : Reuss Voigt Hill
#
# Bulk Modulus (GPa) = 10.84131 35.13219 22.98675
# Shear Modulus (GPa) = 23.57017 1.51056 12.54037
#
# Velocity S-wave (km/s) = 3.39260 0.85886 2.47461
# Velocity P-wave (km/s) = 4.54316 4.25901 4.40338
#
# Compressibility (1/GPa) = 0.09223977
#
# Stress axis : x y z
#
# Youngs Moduli (GPa) = 45.90989 87.54763 15.66788
#
# Poissons Ratio (x) = 0.64001 -0.28970
# Poissons Ratio (y) = 0.33562 0.21268
# Poissons Ratio (z) = -0.84887 1.18839
#
# Static dielectric constant tensor:
#      x y z
#    x 1.727670 0.000000 0.002890 
#    y 0.000000 1.708140 0.000000 
#    z 0.002890 0.000000 1.731300 
# 
# From -- ./inp_files/190354.got.cif
#   From: 2010.05.17/outbox.cif.g08.bks.cpg/sg15_96_cif.got.tgz:190354.got - 2010.06.03 18:47:42.
