data_PCOD9283251
_publ_section_title
;
Structure prediction by ZEFSAII (Michael W. Deem and Ramdas Pophale) SiO2 
 PCOD9283251
Probable space group: C 2/C
;
_chemical_formula_sum "Si O2"
_cell_formula_units_Z 48
_cell_length_a 18.960906
_cell_length_b 7.786425
_cell_length_c 13.958586
_cell_angle_alpha 90.000000
_cell_angle_beta 118.484593
_cell_angle_gamma 90.000000
_cell_volume 1811.342217
_symmetry_space_group_name_H-M "C 2/C"
_symmetry_group_IT_number 15
_symmetry_cell_setting 'monoclinic'
loop_
_space_group_symop_operation_xyz
x,y,z
-x,y,1/2-z
-x,-y,-z
x,-y,1/2+z
1/2+x,1/2+y,z
1/2-x,1/2+y,1/2-z
1/2-x,1/2-y,-z
1/2+x,1/2-y,1/2+z
loop_
_atom_site_type_symbol
_atom_site_label
_atom_site_fract_x
_atom_site_fract_y
_atom_site_fract_z
Si Si1 0.500000 0.147034 0.750000
Si Si2 0.215040 0.234871 0.616172
Si Si3 0.165509 0.468546 0.426843
Si Si4 0.151996 0.314342 0.762524
Si Si5 0.921268 0.952242 0.009687
Si Si6 0.433203 0.880306 0.402327
Si Si7 0.000000 0.129503 0.750000
O O1 0.428912 0.036931 0.655731
O O2 0.535074 0.223278 0.673274
O O3 0.188124 0.411474 0.546905
O O4 0.294733 0.179892 0.613235
O O5 0.215478 0.234920 0.730704
O O6 0.147523 0.091802 0.550704
O O7 0.190842 0.641244 0.389779
O O8 0.125413 0.484513 0.686829
O O9 0.067427 0.220666 0.726658
O O10 0.943089 0.958303 0.135476
O O11 0.902225 0.760402 0.958171
O O12 0.000000 0.000000 0.000000
O O13 0.500000 0.000000 0.500000
#
# Coordination Sequence:
#
# PCOD9283251 Si02
#       7
#     4   8   8   8   8   8   4
#     4  10  21  39  70  98 123 179 246 282 343 421
#     4  11  25  49  67 106 152 182 236 299 366 423
#     4  10  24  44  75  98 138 191 236 297 356 428
#     4  11  23  44  71  98 137 185 243 286 344 433
#     4  12  25  42  68 106 147 185 229 306 356 416
#     4  11  21  37  70 101 135 184 242 289 350 422
#     4  12  25  41  72 104 133 185 246 288 345 431
#
# _framework density 26.499686000000001
#
# number of rings (size 3 to 8) (size 9 to 14) (size 15 to 20)
#    0.000    1.000    3.333    4.000    2.333    6.667 
#    6.000    0.833    0.000    0.000    0.000    0.000 
#    0.000    0.000    0.000    0.000    0.000    0.000 
#
# Total GULP energy -134038.655578 kJ/mol
# GULP energy per Si atom -5584.943982 kJ/mol
# Density = 2.643937 g / cm^3
# Si number density = 26.499686 Si / 1000 Ang^3
#
#
#
# Elastic Constant Matrix: (Units=GPa)
#
#
# Indices 1 2 3 4 5 6 
#
# 1 83.0452 2.4392 33.6519 0.0000 -31.8198 0.0000
# 2 2.4392 60.1572 33.7492 0.0000 -4.8412 0.0000
# 3 33.6519 33.7492 148.6419 0.0000 -27.5968 0.0000
# 4 0.0000 0.0000 0.0000 40.1153 0.0000 -7.6299
# 5 -31.8198 -4.8412 -27.5968 0.0000 46.7462 0.0000
# 6 0.0000 0.0000 0.0000 -7.6299 0.0000 19.3482
#
#
#
# Elastic Compliance Matrix: (Units=1/GPa)
#
#
# Indices 1 2 3 4 5 6 
#
# 1 0.016847 0.001390 -0.002217 0.000000 0.010303 0.000000
# 2 0.001390 0.019182 -0.004633 0.000000 0.000197 0.000000
# 3 -0.002217 -0.004633 0.008886 0.000000 0.003257 0.000000
# 4 0.000000 0.000000 0.000000 0.026949 0.000000 0.010628
# 5 0.010303 0.000197 0.003257 0.000000 0.030348 0.000000
# 6 0.000000 0.000000 0.000000 0.010628 0.000000 0.055875
#
#
# Mechanical properties :
#
#
# Convention : Reuss Voigt Hill
#
# Bulk Modulus (GPa) = 29.41686 47.94721 38.68204
# Shear Modulus (GPa) = 27.72538 36.04222 31.88380
#
# Velocity S-wave (km/s) = 3.23809 3.69195 3.47245
# Velocity P-wave (km/s) = 5.01051 6.02551 5.54130
#
# Compressibility (1/GPa) = 0.03399411
#
# Stress axis : x y z
#
# Youngs Moduli (GPa) = 59.35887 52.13224 112.53447
#
# Poissons Ratio (x) = -0.07245 0.24946
# Poissons Ratio (y) = -0.08249 0.52140
# Poissons Ratio (z) = 0.13158 0.24154
#
# Static dielectric constant tensor:
#      x y z
#    x 2.133120 0.000000 -0.044000 
#    y 0.000000 2.220040 0.000000 
#    z -0.044000 0.000000 2.122070 
# 
# From -- ./inp_files/166437.got.cif
#   From: 2010.05.17/outbox.cif.g08.bks.cpg/sg15_84_cif.got.tgz:166437.got - 2010.06.03 18:47:42.
