data_PCOD9283774
_publ_section_title
;
Structure prediction by ZEFSAII (Michael W. Deem and Ramdas Pophale) SiO2 
 PCOD9283774
Probable space group: C 2/C
;
_chemical_formula_sum "Si O2"
_cell_formula_units_Z 60
_cell_length_a 14.281723
_cell_length_b 14.733948
_cell_length_c 15.566250
_cell_angle_alpha 90.000000
_cell_angle_beta 109.625293
_cell_angle_gamma 90.000000
_cell_volume 3085.267425
_symmetry_space_group_name_H-M "C 2/C"
_symmetry_group_IT_number 15
_symmetry_cell_setting 'monoclinic'
loop_
_space_group_symop_operation_xyz
x,y,z
-x,y,1/2-z
-x,-y,-z
x,-y,1/2+z
1/2+x,1/2+y,z
1/2-x,1/2+y,1/2-z
1/2-x,1/2-y,-z
1/2+x,1/2-y,1/2+z
loop_
_atom_site_type_symbol
_atom_site_label
_atom_site_fract_x
_atom_site_fract_y
_atom_site_fract_z
Si Si1 0.051946 0.140046 0.572874
Si Si2 0.000000 0.167054 0.250000
Si Si3 0.670244 0.662008 0.053685
Si Si4 0.850080 0.359676 0.479411
Si Si5 0.802278 0.538920 0.369465
Si Si6 0.669464 0.680873 0.435245
Si Si7 0.463782 0.827016 0.838248
Si Si8 0.358875 0.466570 0.810847
O O1 0.106999 0.150339 0.498874
O O2 0.069955 0.226795 0.640367
O O3 0.935626 0.134263 0.517091
O O4 0.087457 0.049184 0.628154
O O5 0.086429 0.212774 0.337556
O O6 0.062216 0.101086 0.207365
O O7 0.750971 0.648080 0.005314
O O8 0.698091 0.596177 0.138964
O O9 0.656209 0.766898 0.078201
O O10 0.854634 0.454936 0.432505
O O11 0.942219 0.349285 0.572113
O O12 0.737172 0.602387 0.413141
O O13 0.878477 0.601606 0.339258
O O14 0.719674 0.497407 0.281401
O O15 0.750000 0.750000 0.500000
O O16 0.500000 0.828541 0.750000
#
# Coordination Sequence:
#
# PCOD9283774 Si02
#       8
#     8   4   8   8   8   8   8   8
#     4  11  23  39  67  98 129 169 215 267 339 398
#     4  10  24  38  62 100 130 166 220 272 330 400
#     4  10  21  40  64  92 127 164 211 267 327 388
#     4  10  23  41  66  89 123 175 215 266 327 391
#     4  11  24  41  66  92 133 170 219 272 324 397
#     4  11  22  44  66  97 135 178 214 273 343 395
#     4  11  24  43  65  91 130 173 223 270 317 391
#     4  11  23  36  62  97 131 160 208 274 325 393
#
# _framework density 19.447261999999998
#
# number of rings (size 3 to 8) (size 9 to 14) (size 15 to 20)
#    0.000    1.333    2.667    2.400    4.667    3.200 
#    0.000    0.000    2.933    0.000    0.000    0.000 
#    0.000    0.000    0.000    0.000    0.000    0.000 
#
# Total GULP energy -167388.380773 kJ/mol
# GULP energy per Si atom -5579.612692 kJ/mol
# Density = 1.940300 g / cm^3
# Si number density = 19.447262 Si / 1000 Ang^3
#
#
#
# Elastic Constant Matrix: (Units=GPa)
#
#
# Indices 1 2 3 4 5 6 
#
# 1 92.1865 21.3098 17.1271 0.0000 2.2767 0.0000
# 2 21.3098 82.7135 46.7691 0.0000 1.3506 0.0000
# 3 17.1271 46.7691 68.6053 0.0000 10.0397 0.0000
# 4 0.0000 0.0000 0.0000 36.6774 0.0000 15.1882
# 5 2.2767 1.3506 10.0397 0.0000 32.5838 0.0000
# 6 0.0000 0.0000 0.0000 15.1882 0.0000 20.6809
#
#
#
# Elastic Compliance Matrix: (Units=1/GPa)
#
#
# Indices 1 2 3 4 5 6 
#
# 1 0.011619 -0.002236 -0.001331 0.000000 -0.000309 0.000000
# 2 -0.002236 0.020486 -0.013934 0.000000 0.003601 0.000000
# 3 -0.001331 -0.013934 0.025458 0.000000 -0.007173 0.000000
# 4 0.000000 0.000000 0.000000 0.039180 0.000000 -0.028774
# 5 -0.000309 0.003601 -0.007173 0.000000 0.032773 0.000000
# 6 0.000000 0.000000 0.000000 -0.028774 0.000000 0.069486
#
#
# Mechanical properties :
#
#
# Convention : Reuss Voigt Hill
#
# Bulk Modulus (GPa) = 44.32628 45.99081 45.15854
# Shear Modulus (GPa) = 20.70182 28.54171 24.62176
#
# Velocity S-wave (km/s) = 3.26622 3.83514 3.56206
# Velocity P-wave (km/s) = 6.08825 6.58114 6.33949
#
# Compressibility (1/GPa) = 0.02255998
#
# Stress axis : x y z
#
# Youngs Moduli (GPa) = 86.06320 48.81345 39.28106
#
# Poissons Ratio (x) = 0.10913 0.05230
# Poissons Ratio (y) = 0.19241 0.54736
# Poissons Ratio (z) = 0.11459 0.68019
#
# Static dielectric constant tensor:
#      x y z
#    x 1.661220 0.000000 0.024670 
#    y 0.000000 1.681520 0.000000 
#    z 0.024670 0.000000 1.658080 
# 
# From -- ./inp_files/154033.got.cif
#   From: 2010.05.17/outbox.cif.g08.bks.cpg/sg15_78_cif.got.tgz:154033.got - 2010.06.03 18:47:42.
