data_PCOD9283467
_publ_section_title
;
Structure prediction by ZEFSAII (Michael W. Deem and Ramdas Pophale) SiO2 
 PCOD9283467
Probable space group: C 2/C
;
_chemical_formula_sum "Si O2"
_cell_formula_units_Z 64
_cell_length_a 16.199096
_cell_length_b 23.128235
_cell_length_c 18.203350
_cell_angle_alpha 90.000000
_cell_angle_beta 24.868077
_cell_angle_gamma 90.000000
_cell_volume 2868.018601
_symmetry_space_group_name_H-M "C 2/C"
_symmetry_group_IT_number 15
_symmetry_cell_setting 'monoclinic'
loop_
_space_group_symop_operation_xyz
x,y,z
-x,y,1/2-z
-x,-y,-z
x,-y,1/2+z
1/2+x,1/2+y,z
1/2-x,1/2+y,1/2-z
1/2-x,1/2-y,-z
1/2+x,1/2-y,1/2+z
loop_
_atom_site_type_symbol
_atom_site_label
_atom_site_fract_x
_atom_site_fract_y
_atom_site_fract_z
Si Si1 0.217228 0.211655 0.157124
Si Si2 0.090129 0.097453 0.879481
Si Si3 0.673225 0.669073 0.948689
Si Si4 0.993273 0.459566 0.426181
Si Si5 0.463568 0.198057 0.099066
Si Si6 0.718021 0.605491 0.049426
Si Si7 0.581629 0.314286 0.266820
Si Si8 0.803129 0.572449 0.229885
O O1 0.184380 0.276932 0.159236
O O2 0.398299 0.212172 0.068157
O O3 0.239901 0.168046 0.071671
O O4 0.033833 0.189808 0.351778
O O5 0.147742 0.150389 0.886345
O O6 0.295567 0.062440 0.713165
O O7 0.015643 0.128604 0.865388
O O8 0.913007 0.063460 0.062280
O O9 0.725858 0.615189 0.956647
O O10 0.035765 0.526347 0.372935
O O11 0.898923 0.430794 0.432039
O O12 0.834282 0.440071 0.617344
O O13 0.447526 0.254148 0.164342
O O14 0.344715 0.139677 0.214069
O O15 0.686091 0.178933 0.922939
O O16 0.500000 0.584146 0.250000
O O17 0.500000 0.310155 0.250000
#
# Coordination Sequence:
#
# PCOD9283467 Si02
#       8
#     8   8   8   8   8   8   8   8
#     4  11  20  37  59  99 132 184 219 267 336 418
#     4  12  23  45  72 103 137 181 237 288 360 425
#     4  11  23  35  64  96 140 179 217 273 336 415
#     4  11  24  44  73 100 138 192 238 284 342 403
#     4  12  21  43  68  99 137 175 236 278 364 425
#     4  10  21  40  61  97 144 181 230 279 335 402
#     4  12  26  42  70 105 137 179 225 307 372 436
#     4  11  23  44  75 100 132 187 239 288 338 418
#
# _framework density 22.315056999999999
#
# number of rings (size 3 to 8) (size 9 to 14) (size 15 to 20)
#    0.000    0.750    5.000    3.375    1.750    0.500 
#    0.000    0.625   11.000    0.000    0.000    0.000 
#    0.000    0.000    0.000    0.000    0.000    0.000 
#
# Total GULP energy -178724.900652 kJ/mol
# GULP energy per Si atom -5585.153145 kJ/mol
# Density = 2.226427 g / cm^3
# Si number density = 22.315057 Si / 1000 Ang^3
#
#
#
# Elastic Constant Matrix: (Units=GPa)
#
#
# Indices 1 2 3 4 5 6 
#
# 1 97.6617 9.4439 38.5509 0.0672 -1.7927 -0.0263
# 2 9.4439 69.8695 22.7971 -0.0119 0.6505 0.0097
# 3 38.5509 22.7971 93.5361 -0.0340 -11.3286 0.0067
# 4 0.0672 -0.0119 -0.0340 24.6812 -0.0236 6.2310
# 5 -1.7927 0.6505 -11.3286 -0.0236 13.8929 0.0040
# 6 -0.0263 0.0097 0.0067 6.2310 0.0040 21.3636
#
#
#
# Elastic Compliance Matrix: (Units=1/GPa)
#
#
# Indices 1 2 3 4 5 6 
#
# 1 0.012330 0.000143 -0.005464 -0.000052 -0.002872 0.000033
# 2 0.000143 0.015779 -0.004429 -0.000002 -0.004332 -0.000004
# 3 -0.005464 -0.004429 0.015493 0.000053 0.012135 -0.000027
# 4 -0.000052 -0.000002 0.000053 0.043738 0.000114 -0.012757
# 5 -0.002872 -0.004332 0.012135 0.000114 0.081707 -0.000054
# 6 0.000033 -0.000004 -0.000027 -0.012757 -0.000054 0.050529
#
#
# Mechanical properties :
#
#
# Convention : Reuss Voigt Hill
#
# Bulk Modulus (GPa) = 41.49422 44.73902 43.11662
# Shear Modulus (GPa) = 20.23396 24.67260 22.45328
#
# Velocity S-wave (km/s) = 3.01448 3.32874 3.17550
# Velocity P-wave (km/s) = 5.54538 5.90477 5.72789
#
# Compressibility (1/GPa) = 0.02409974
#
# Stress axis : x y z
#
# Youngs Moduli (GPa) = 81.10317 63.37708 64.54710
#
# Poissons Ratio (x) = -0.00907 0.35272
# Poissons Ratio (y) = -0.01161 0.28590
# Poissons Ratio (z) = 0.44319 0.28072
#
# Static dielectric constant tensor:
#      x y z
#    x 1.863110 -0.000130 0.049790 
#    y -0.000130 1.962690 -0.000010 
#    z 0.049790 -0.000010 1.885790 
# 
# From -- ./inp_files/207318.got.cif
#   From: 2010.05.17/outbox.cif.g08.bks.cpg/sg15_104_cif.got.tgz:207318.got - 2010.06.03 18:47:42.
