data_PCOD9283223
_publ_section_title
;
Structure prediction by ZEFSAII (Michael W. Deem and Ramdas Pophale) SiO2 
 PCOD9283223
Probable space group: C 2/C
;
_chemical_formula_sum "Si O2"
_cell_formula_units_Z 40
_cell_length_a 13.550887
_cell_length_b 13.871286
_cell_length_c 15.041571
_cell_angle_alpha 90.000000
_cell_angle_beta 147.024365
_cell_angle_gamma 90.000000
_cell_volume 1538.869855
_symmetry_space_group_name_H-M "C 2/C"
_symmetry_group_IT_number 15
_symmetry_cell_setting 'monoclinic'
loop_
_space_group_symop_operation_xyz
x,y,z
-x,y,1/2-z
-x,-y,-z
x,-y,1/2+z
1/2+x,1/2+y,z
1/2-x,1/2+y,1/2-z
1/2-x,1/2-y,-z
1/2+x,1/2-y,1/2+z
loop_
_atom_site_type_symbol
_atom_site_label
_atom_site_fract_x
_atom_site_fract_y
_atom_site_fract_z
Si Si1 0.966036 0.930020 0.095515
Si Si2 0.128511 0.481586 0.933240
Si Si3 0.044418 0.307593 0.381514
Si Si4 0.727776 0.057341 0.241702
Si Si5 0.823241 0.221775 0.845466
O O1 0.039877 0.826317 0.119429
O O2 0.820491 0.928619 0.065203
O O3 0.836409 0.963084 0.915508
O O4 0.142045 0.000166 0.229096
O O5 0.162568 0.596754 0.960470
O O6 0.000000 0.461809 0.750000
O O7 0.987505 0.457951 0.905114
O O8 0.114022 0.231614 0.505104
O O9 0.000000 0.268616 0.250000
O O10 0.856424 0.342340 0.284021
O O11 0.732132 0.170981 0.223572
#
# Coordination Sequence:
#
# PCOD9283223 Si02
#       5
#     8   8   8   8   8
#     4  10  21  41  67  96 138 186 225 282 349 408
#     4   9  20  40  65  93 135 181 229 277 341 404
#     4  11  24  41  65 102 137 177 232 296 341 411
#     4  10  21  39  69  94 136 186 229 283 344 414
#     4  12  23  41  70 101 136 184 233 285 353 409
#
# _framework density 25.993103000000001
#
# number of rings (size 3 to 8) (size 9 to 14) (size 15 to 20)
#    0.000    1.600    4.000    0.600    2.800    3.200 
#    0.000    0.000    0.000    0.000    0.000    0.000 
#    0.000    0.000    0.000    0.200    0.000    0.000 
#
# Total GULP energy -111763.103138 kJ/mol
# GULP energy per Si atom -5588.155157 kJ/mol
# Density = 2.593394 g / cm^3
# Si number density = 25.993103 Si / 1000 Ang^3
#
#
#
# Elastic Constant Matrix: (Units=GPa)
#
#
# Indices 1 2 3 4 5 6 
#
# 1 121.9660 32.5617 70.5840 -0.0001 32.6410 -0.0002
# 2 32.5617 94.2962 46.3543 0.0000 21.0279 0.0000
# 3 70.5840 46.3543 128.4654 0.0023 51.1215 0.0006
# 4 -0.0001 0.0000 0.0023 35.0918 0.0009 7.9924
# 5 32.6410 21.0279 51.1215 0.0009 51.4241 0.0002
# 6 -0.0002 0.0000 0.0006 7.9924 0.0002 40.2892
#
#
#
# Elastic Compliance Matrix: (Units=1/GPa)
#
#
# Indices 1 2 3 4 5 6 
#
# 1 0.012205 -0.001059 -0.005647 0.000000 -0.001700 0.000000
# 2 -0.001059 0.013019 -0.003747 0.000000 -0.000926 0.000000
# 3 -0.005647 -0.003747 0.016881 -0.000001 -0.011665 0.000000
# 4 0.000000 0.000000 -0.000001 0.029845 0.000000 -0.005921
# 5 -0.001700 -0.000926 -0.011665 0.000000 0.032500 0.000000
# 6 0.000000 0.000000 0.000000 -0.005921 0.000000 0.025995
#
#
# Mechanical properties :
#
#
# Convention : Reuss Voigt Hill
#
# Bulk Modulus (GPa) = 47.17468 71.52529 59.34998
# Shear Modulus (GPa) = 31.56195 38.37619 34.96907
#
# Velocity S-wave (km/s) = 3.48838 3.84656 3.67184
# Velocity P-wave (km/s) = 5.86629 6.87785 6.39211
#
# Compressibility (1/GPa) = 0.02119781
#
# Stress axis : x y z
#
# Youngs Moduli (GPa) = 81.93452 76.80926 59.23826
#
# Poissons Ratio (x) = 0.08137 0.33453
# Poissons Ratio (y) = 0.08680 0.22197
# Poissons Ratio (z) = 0.46270 0.28781
#
# Static dielectric constant tensor:
#      x y z
#    x 2.087310 0.000000 -0.009170 
#    y 0.000000 1.998190 0.000000 
#    z -0.009170 0.000000 2.139680 
# 
# From -- ./inp_files/244422.got.cif
#   From: 2010.05.17/outbox.cif.g08.bks.cpg/sg15_123_cif.got.tgz:244422.got - 2010.06.03 18:47:42.
