data_PCOD9283198
_publ_section_title
;
Structure prediction by ZEFSAII (Michael W. Deem and Ramdas Pophale) SiO2 
 PCOD9283198
Probable space group: C 2/C
;
_chemical_formula_sum "Si O2"
_cell_formula_units_Z 40
_cell_length_a 25.847346
_cell_length_b 7.310034
_cell_length_c 16.456745
_cell_angle_alpha 90.000000
_cell_angle_beta 146.639947
_cell_angle_gamma 90.000000
_cell_volume 1709.865161
_symmetry_space_group_name_H-M "C 2/C"
_symmetry_group_IT_number 15
_symmetry_cell_setting 'monoclinic'
loop_
_space_group_symop_operation_xyz
x,y,z
-x,y,1/2-z
-x,-y,-z
x,-y,1/2+z
1/2+x,1/2+y,z
1/2-x,1/2+y,1/2-z
1/2-x,1/2-y,-z
1/2+x,1/2-y,1/2+z
loop_
_atom_site_type_symbol
_atom_site_label
_atom_site_fract_x
_atom_site_fract_y
_atom_site_fract_z
Si Si1 0.274090 0.038044 0.052288
Si Si2 0.893695 0.021207 0.390921
Si Si3 0.390082 0.954235 0.364423
Si Si4 0.602365 0.451521 0.421700
Si Si5 0.693022 0.944269 0.075238
O O1 0.340820 0.021189 0.217516
O O2 0.250000 0.250000 0.000000
O O3 0.174336 0.963458 0.951956
O O4 0.315101 0.957366 0.022752
O O5 0.873433 0.236394 0.350178
O O6 0.893968 0.960909 0.485031
O O7 0.805579 0.920331 0.234337
O O8 0.000000 0.000000 0.500000
O O9 0.346075 0.027704 0.391787
O O10 0.500000 0.000000 0.500000
O O11 0.500000 0.447606 0.250000
O O12 0.636907 0.244723 0.487523
#
# Coordination Sequence:
#
# PCOD9283198 Si02
#       5
#     8   8   8   8   8
#     4  10  22  41  71  93 134 178 229 280 341 411
#     4  11  24  41  69 101 144 178 222 291 354 403
#     4  11  26  42  68 105 135 181 237 277 345 427
#     4  10  21  39  69 101 130 180 235 270 339 420
#     4  10  23  40  68  96 136 172 225 286 343 399
#
# _framework density 23.393657999999999
#
# number of rings (size 3 to 8) (size 9 to 14) (size 15 to 20)
#    0.000    1.600    2.000    1.200   16.800    0.800 
#    0.000    0.000    4.400    0.000    0.000    0.000 
#    0.000    0.000    0.000    0.000    0.000    0.000 
#
# Total GULP energy -111713.108270 kJ/mol
# GULP energy per Si atom -5585.655413 kJ/mol
# Density = 2.334041 g / cm^3
# Si number density = 23.393658 Si / 1000 Ang^3
#
#
#
# Elastic Constant Matrix: (Units=GPa)
#
#
# Indices 1 2 3 4 5 6 
#
# 1 226.2775 5.9028 79.1501 0.0000 -26.8292 0.0000
# 2 5.9028 87.5502 31.1374 0.0000 -14.9172 0.0000
# 3 79.1501 31.1374 189.6768 0.0000 -12.1698 0.0000
# 4 0.0000 0.0000 0.0000 29.0153 0.0000 -7.9895
# 5 -26.8292 -14.9172 -12.1698 0.0000 51.2848 0.0000
# 6 0.0000 0.0000 0.0000 -7.9895 0.0000 0.7705
#
#
#
# Elastic Compliance Matrix: (Units=1/GPa)
#
#
# Indices 1 2 3 4 5 6 
#
# 1 0.005499 0.000879 -0.002273 0.000000 0.002593 0.000000
# 2 0.000879 0.012777 -0.002230 0.000000 0.003647 0.000000
# 3 -0.002273 -0.002230 0.006569 0.000000 -0.000279 0.000000
# 4 0.000000 0.000000 0.000000 -0.018578 0.000000 -0.192631
# 5 0.002593 0.003647 -0.000279 0.000000 0.021850 0.000000
# 6 0.000000 0.000000 0.000000 -0.192631 0.000000 -0.699571
#
#
# Mechanical properties :
#
#
# Convention : Reuss Voigt Hill
#
# Bulk Modulus (GPa) = 56.82610 81.76501 69.29555
# Shear Modulus (GPa) = -7.59486 42.03507 17.22010
#
# Velocity S-wave (km/s) = -1.80377 4.24353 2.71606
# Velocity P-wave (km/s) = 4.47279 7.68360 6.28664
#
# Compressibility (1/GPa) = 0.01759755
#
# Stress axis : x y z
#
# Youngs Moduli (GPa) = 181.85778 78.26287 152.23700
#
# Poissons Ratio (x) = -0.06882 0.34597
# Poissons Ratio (y) = -0.15991 0.33956
# Poissons Ratio (z) = 0.41328 0.17456
#
# Static dielectric constant tensor:
#      x y z
#    x 1.958010 0.000000 -0.014130 
#    y 0.000000 1.929690 0.000000 
#    z -0.014130 0.000000 1.815350 
# 
# From -- ./inp_files/176331.got.cif
#   From: 2010.05.17/outbox.cif.g08.bks.cpg/sg15_89_cif.got.tgz:176331.got - 2010.06.03 18:47:42.
