data_PCOD9283323
_publ_section_title
;
Structure prediction by ZEFSAII (Michael W. Deem and Ramdas Pophale) SiO2 
 PCOD9283323
Probable space group: C 2/C
;
_chemical_formula_sum "Si O2"
_cell_formula_units_Z 64
_cell_length_a 13.498667
_cell_length_b 7.949044
_cell_length_c 24.790883
_cell_angle_alpha 90.000000
_cell_angle_beta 93.483002
_cell_angle_gamma 90.000000
_cell_volume 2655.185321
_symmetry_space_group_name_H-M "C 2/C"
_symmetry_group_IT_number 15
_symmetry_cell_setting 'monoclinic'
loop_
_space_group_symop_operation_xyz
x,y,z
-x,y,1/2-z
-x,-y,-z
x,-y,1/2+z
1/2+x,1/2+y,z
1/2-x,1/2+y,1/2-z
1/2-x,1/2-y,-z
1/2+x,1/2-y,1/2+z
loop_
_atom_site_type_symbol
_atom_site_label
_atom_site_fract_x
_atom_site_fract_y
_atom_site_fract_z
Si Si1 0.031714 0.207881 0.307530
Si Si2 0.935068 0.342898 0.982560
Si Si3 0.631366 0.283661 0.913714
Si Si4 0.827009 0.524583 0.385054
Si Si5 0.242393 0.355104 0.717087
Si Si6 0.268755 0.338839 0.928317
Si Si7 0.673242 0.489202 0.679170
Si Si8 0.604158 0.375231 0.463803
O O1 0.062177 0.298182 0.364981
O O2 0.140465 0.130301 0.296190
O O3 0.000000 0.296642 0.250000
O O4 0.939123 0.082365 0.317035
O O5 0.909990 0.377060 0.919868
O O6 0.003058 0.181311 0.986293
O O7 0.859595 0.316643 0.029866
O O8 0.000000 0.500000 0.000000
O O9 0.736640 0.348688 0.896435
O O10 0.586552 0.467842 0.925130
O O11 0.820681 0.511889 0.320536
O O12 0.816785 0.342065 0.412216
O O13 0.250240 0.384147 0.780757
O O14 0.192032 0.177830 0.700664
O O15 0.291910 0.464653 0.880947
O O16 0.155646 0.281340 0.934109
O O17 0.317011 0.404529 0.985268
#
# Coordination Sequence:
#
# PCOD9283323 Si02
#       8
#     8   8   8   8   8   8   8   8
#     4   9  21  41  65  93 124 164 214 262 316 384
#     4  12  23  36  58  93 124 162 209 265 318 381
#     4  10  22  39  62  86 124 169 208 258 324 390
#     4  10  22  40  59  89 129 162 211 263 321 386
#     4  10  23  41  67  99 124 171 217 266 327 390
#     4  10  21  40  59  88 126 172 201 266 322 378
#     4  11  22  41  71  91 132 170 212 266 332 379
#     4  10  22  37  58  87 127 162 213 255 317 383
#
# _framework density 24.10378
#
# number of rings (size 3 to 8) (size 9 to 14) (size 15 to 20)
#    0.000    1.750    1.250    2.250    3.500    3.000 
#    0.000    0.000    0.000    0.000    0.000    0.000 
#    0.000    0.000    0.000    0.000    0.000    0.000 
#
# Total GULP energy -178482.043473 kJ/mol
# GULP energy per Si atom -5577.563859 kJ/mol
# Density = 2.404892 g / cm^3
# Si number density = 24.103780 Si / 1000 Ang^3
#
#
#
# Elastic Constant Matrix: (Units=GPa)
#
#
# Indices 1 2 3 4 5 6 
#
# 1 49.2191 -2.0925 12.9693 0.0000 9.0161 0.0000
# 2 -2.0925 69.4971 7.5240 0.0000 3.5487 0.0000
# 3 12.9693 7.5240 93.6302 0.0000 17.1975 0.0000
# 4 0.0000 0.0000 0.0000 32.0664 0.0000 -0.3559
# 5 9.0161 3.5487 17.1975 0.0000 33.8675 0.0000
# 6 0.0000 0.0000 0.0000 -0.3559 0.0000 18.8078
#
#
#
# Elastic Compliance Matrix: (Units=1/GPa)
#
#
# Indices 1 2 3 4 5 6 
#
# 1 0.021834 0.001144 -0.002235 0.000000 -0.004797 0.000000
# 2 0.001144 0.014608 -0.001098 0.000000 -0.001278 0.000000
# 3 -0.002235 -0.001098 0.012074 0.000000 -0.005421 0.000000
# 4 0.000000 0.000000 0.000000 0.031192 0.000000 0.000590
# 5 -0.004797 -0.001278 -0.005421 0.000000 0.033691 0.000000
# 6 0.000000 0.000000 0.000000 0.000590 0.000000 0.053181
#
#
# Mechanical properties :
#
#
# Convention : Reuss Voigt Hill
#
# Bulk Modulus (GPa) = 22.65603 27.68310 25.16956
# Shear Modulus (GPa) = 26.92980 29.87802 28.40391
#
# Velocity S-wave (km/s) = 3.34615 3.52455 3.43651
# Velocity P-wave (km/s) = 4.93444 5.29842 5.11966
#
# Compressibility (1/GPa) = 0.04413836
#
# Stress axis : x y z
#
# Youngs Moduli (GPa) = 45.80066 68.45734 82.82390
#
# Poissons Ratio (x) = -0.07834 0.18512
# Poissons Ratio (y) = -0.05241 0.09091
# Poissons Ratio (z) = 0.10237 0.07514
#
# Static dielectric constant tensor:
#      x y z
#    x 1.937190 0.000000 -0.019380 
#    y 0.000000 1.888920 0.000000 
#    z -0.019380 0.000000 2.049180 
# 
# From -- ./inp_files/295164.got.cif
#   From: 2010.05.17/outbox.cif.g08.bks.cpg/sg15_148_cif.got.tgz:295164.got - 2010.06.03 18:47:42.
