data_PCOD9283938
_publ_section_title
;
Structure prediction by ZEFSAII (Michael W. Deem and Ramdas Pophale) SiO2 
 PCOD9283938
Probable space group: C 2/C
;
_chemical_formula_sum "Si O2"
_cell_formula_units_Z 60
_cell_length_a 17.870602
_cell_length_b 19.449689
_cell_length_c 9.087793
_cell_angle_alpha 90.000000
_cell_angle_beta 54.318713
_cell_angle_gamma 90.000000
_cell_volume 2565.741270
_symmetry_space_group_name_H-M "C 2/C"
_symmetry_group_IT_number 15
_symmetry_cell_setting 'monoclinic'
loop_
_space_group_symop_operation_xyz
x,y,z
-x,y,1/2-z
-x,-y,-z
x,-y,1/2+z
1/2+x,1/2+y,z
1/2-x,1/2+y,1/2-z
1/2-x,1/2-y,-z
1/2+x,1/2-y,1/2+z
loop_
_atom_site_type_symbol
_atom_site_label
_atom_site_fract_x
_atom_site_fract_y
_atom_site_fract_z
Si Si1 0.632955 0.915736 0.007739
Si Si2 0.620785 0.240107 0.555242
Si Si3 0.444117 0.685490 0.113186
Si Si4 0.659384 0.556042 0.308412
Si Si5 0.170453 0.235380 0.703432
Si Si6 0.305028 0.418154 0.390620
Si Si7 0.902989 0.555772 0.293083
Si Si8 0.000000 0.247372 0.750000
O O1 0.744188 0.916014 0.868786
O O2 0.599832 0.934031 0.879758
O O3 0.600896 0.840341 0.091383
O O4 0.604188 0.974834 0.154736
O O5 0.630556 0.274859 0.701040
O O6 0.538721 0.284264 0.571343
O O7 0.695134 0.246179 0.340820
O O8 0.422941 0.605067 0.150431
O O9 0.446239 0.705858 0.939625
O O10 0.658541 0.477777 0.257401
O O11 0.666534 0.563115 0.475857
O O12 0.250000 0.250000 0.500000
O O13 0.153976 0.154045 0.707822
O O14 0.082655 0.280040 0.748646
O O15 0.192537 0.415269 0.525840
O O16 0.000000 0.580594 0.250000
#
# Coordination Sequence:
#
# PCOD9283938 Si02
#       8
#     8   8   8   8   8   8   8   4
#     4  10  22  43  64 100 135 177 223 289 333 422
#     4  10  24  42  67  98 140 172 233 287 348 416
#     4  10  22  44  66  93 134 176 221 287 342 413
#     4  10  21  41  68  94 135 179 229 281 347 411
#     4  11  22  44  68  98 143 180 228 294 344 414
#     4  10  22  40  65  98 134 178 234 289 338 419
#     4  10  21  40  65  94 136 179 227 274 347 414
#     4  10  22  44  68  92 128 186 226 274 358 414
#
# _framework density 23.385055999999999
#
# number of rings (size 3 to 8) (size 9 to 14) (size 15 to 20)
#    0.000    1.867    1.333    2.000    3.733    0.533 
#   10.800    4.000    0.000    0.000    0.000    0.000 
#    0.000    0.000    0.000    0.000    0.000    0.000 
#
# Total GULP energy -167533.367190 kJ/mol
# GULP energy per Si atom -5584.445573 kJ/mol
# Density = 2.333183 g / cm^3
# Si number density = 23.385056 Si / 1000 Ang^3
#
#
#
# Elastic Constant Matrix: (Units=GPa)
#
#
# Indices 1 2 3 4 5 6 
#
# 1 100.4280 31.7506 -1.7104 0.0000 -2.2310 0.0000
# 2 31.7506 130.8495 23.8784 0.0000 16.3566 0.0000
# 3 -1.7104 23.8784 109.8959 0.0000 21.1333 0.0000
# 4 0.0000 0.0000 0.0000 31.0925 0.0000 0.2117
# 5 -2.2310 16.3566 21.1333 0.0000 15.2518 0.0000
# 6 0.0000 0.0000 0.0000 0.2117 0.0000 31.4715
#
#
#
# Elastic Compliance Matrix: (Units=1/GPa)
#
#
# Indices 1 2 3 4 5 6 
#
# 1 0.011136 -0.003354 -0.000140 0.000000 0.005420 0.000000
# 2 -0.003354 0.009837 -0.000091 0.000000 -0.010915 0.000000
# 3 -0.000140 -0.000091 0.012409 0.000000 -0.017117 0.000000
# 4 0.000000 0.000000 0.000000 0.032164 0.000000 -0.000216
# 5 0.005420 -0.010915 -0.017117 0.000000 0.101782 0.000000
# 6 0.000000 0.000000 0.000000 -0.000216 0.000000 0.031776
#
#
# Mechanical properties :
#
#
# Convention : Reuss Voigt Hill
#
# Bulk Modulus (GPa) = 38.15101 49.89006 44.02054
# Shear Modulus (GPa) = 23.25464 34.71347 28.98406
#
# Velocity S-wave (km/s) = 3.15687 3.85701 3.52437
# Velocity P-wave (km/s) = 5.44403 6.41996 5.95203
#
# Compressibility (1/GPa) = 0.02621162
#
# Stress axis : x y z
#
# Youngs Moduli (GPa) = 89.80038 101.65545 80.58857
#
# Poissons Ratio (x) = 0.34096 0.01130
# Poissons Ratio (y) = 0.30120 0.00731
# Poissons Ratio (z) = 0.01259 0.00922
#
# Static dielectric constant tensor:
#      x y z
#    x 1.937720 0.000000 -0.065330 
#    y 0.000000 1.864220 0.000000 
#    z -0.065330 0.000000 1.962400 
# 
# From -- ./inp_files/50651.got.cif
#   From: 2010.05.17/outbox.cif.g08.bks.cpg/sg15_26_cif.got.tgz:50651.got - 2010.06.03 18:47:42.
