data_PCOD9283254
_publ_section_title
;
Structure prediction by ZEFSAII (Michael W. Deem and Ramdas Pophale) SiO2 
 PCOD9283254
Probable space group: C 2/C
;
_chemical_formula_sum "Si O2"
_cell_formula_units_Z 48
_cell_length_a 8.167509
_cell_length_b 20.037748
_cell_length_c 14.802541
_cell_angle_alpha 90.000000
_cell_angle_beta 118.208439
_cell_angle_gamma 90.000000
_cell_volume 2134.843146
_symmetry_space_group_name_H-M "C 2/C"
_symmetry_group_IT_number 15
_symmetry_cell_setting 'monoclinic'
loop_
_space_group_symop_operation_xyz
x,y,z
-x,y,1/2-z
-x,-y,-z
x,-y,1/2+z
1/2+x,1/2+y,z
1/2-x,1/2+y,1/2-z
1/2-x,1/2-y,-z
1/2+x,1/2-y,1/2+z
loop_
_atom_site_type_symbol
_atom_site_label
_atom_site_fract_x
_atom_site_fract_y
_atom_site_fract_z
Si Si1 0.696285 0.676173 0.418333
Si Si2 0.958693 0.161596 0.540792
Si Si3 0.500000 0.572987 0.250000
Si Si4 0.604483 0.525182 0.617413
Si Si5 0.873449 0.717948 0.138827
Si Si6 0.000000 0.580494 0.750000
Si Si7 0.969891 0.302465 0.377314
O O1 0.585000 0.659632 0.483107
O O2 0.653882 0.622043 0.332126
O O3 0.908589 0.677788 0.503631
O O4 0.608991 0.747707 0.368167
O O5 0.981930 0.228774 0.605125
O O6 0.746865 0.165764 0.450054
O O7 0.009696 0.096984 0.611077
O O8 0.427927 0.527020 0.311629
O O9 0.500000 0.500000 0.500000
O O10 0.824791 0.539008 0.667997
O O11 0.715044 0.763653 0.144900
O O12 0.000000 0.688286 0.250000
O O13 0.934699 0.631990 0.810506
#
# Coordination Sequence:
#
# PCOD9283254 Si02
#       7
#     8   8   4   8   8   4   8
#     4  10  21  44  67 100 127 169 216 281 331 395
#     4  10  21  44  63  95 138 164 213 285 321 386
#     4  12  25  46  70  92 133 188 228 260 338 402
#     4  12  26  48  67  93 136 179 227 276 317 398
#     4  10  22  39  67 104 132 171 209 268 352 402
#     4  12  23  42  68  96 127 174 224 270 340 384
#     4  10  21  39  71 100 132 160 217 285 335 392
#
# _framework density 22.484086999999999
#
# number of rings (size 3 to 8) (size 9 to 14) (size 15 to 20)
#    0.000    1.333    3.333    1.500    3.500    0.000 
#   19.500    1.667    0.000    0.000    0.000    0.000 
#    0.000    0.000    0.000    0.000    0.000    0.000 
#
# Total GULP energy -134215.865085 kJ/mol
# GULP energy per Si atom -5592.327712 kJ/mol
# Density = 2.243291 g / cm^3
# Si number density = 22.484087 Si / 1000 Ang^3
#
#
#
# Elastic Constant Matrix: (Units=GPa)
#
#
# Indices 1 2 3 4 5 6 
#
# 1 81.0130 21.8454 34.0601 0.0000 8.5472 0.0000
# 2 21.8454 86.8383 49.7121 0.0000 5.2113 0.0000
# 3 34.0601 49.7121 140.5548 0.0000 13.2094 0.0000
# 4 0.0000 0.0000 0.0000 56.9341 0.0000 -8.6351
# 5 8.5472 5.2113 13.2094 0.0000 27.2714 0.0000
# 6 0.0000 0.0000 0.0000 -8.6351 0.0000 15.8216
#
#
#
# Elastic Compliance Matrix: (Units=1/GPa)
#
#
# Indices 1 2 3 4 5 6 
#
# 1 0.014224 -0.001990 -0.002472 0.000000 -0.002880 0.000000
# 2 -0.001990 0.014720 -0.004734 0.000000 0.000104 0.000000
# 3 -0.002472 -0.004734 0.009670 0.000000 -0.003005 0.000000
# 4 0.000000 0.000000 0.000000 0.019149 0.000000 0.010451
# 5 -0.002880 0.000104 -0.003005 0.000000 0.039007 0.000000
# 6 0.000000 0.000000 0.000000 0.010451 0.000000 0.068909
#
#
# Mechanical properties :
#
#
# Convention : Reuss Voigt Hill
#
# Bulk Modulus (GPa) = 49.45131 57.73794 53.59462
# Shear Modulus (GPa) = 26.20388 33.52464 29.86426
#
# Velocity S-wave (km/s) = 3.41756 3.86559 3.64846
# Velocity P-wave (km/s) = 6.13307 6.75714 6.45265
#
# Compressibility (1/GPa) = 0.02022191
#
# Stress axis : x y z
#
# Youngs Moduli (GPa) = 70.30580 67.93495 103.40863
#
# Poissons Ratio (x) = 0.13519 0.25565
# Poissons Ratio (y) = 0.13991 0.48951
# Poissons Ratio (z) = 0.17381 0.32159
#
# Static dielectric constant tensor:
#      x y z
#    x 1.895790 0.000000 -0.031430 
#    y 0.000000 1.834080 0.000000 
#    z -0.031430 0.000000 1.863080 
# 
# From -- ./inp_files/192353.got.cif
#   From: 2010.05.17/outbox.cif.g08.bks.cpg/sg15_97_cif.got.tgz:192353.got - 2010.06.03 18:47:42.
