data_PCOD9283596
_publ_section_title
;
Structure prediction by ZEFSAII (Michael W. Deem and Ramdas Pophale) SiO2 
 PCOD9283596
Probable space group: C 2/C
;
_chemical_formula_sum "Si O2"
_cell_formula_units_Z 44
_cell_length_a 11.316766
_cell_length_b 13.308697
_cell_length_c 21.071810
_cell_angle_alpha 90.000000
_cell_angle_beta 138.337721
_cell_angle_gamma 90.000000
_cell_volume 2109.651169
_symmetry_space_group_name_H-M "C 2/C"
_symmetry_group_IT_number 15
_symmetry_cell_setting 'monoclinic'
loop_
_space_group_symop_operation_xyz
x,y,z
-x,y,1/2-z
-x,-y,-z
x,-y,1/2+z
1/2+x,1/2+y,z
1/2-x,1/2+y,1/2-z
1/2-x,1/2-y,-z
1/2+x,1/2-y,1/2+z
loop_
_atom_site_type_symbol
_atom_site_label
_atom_site_fract_x
_atom_site_fract_y
_atom_site_fract_z
Si Si1 0.540099 0.443795 0.157800
Si Si2 0.000000 0.283309 0.750000
Si Si3 0.379803 0.826166 0.970347
Si Si4 0.749499 0.094472 0.636158
Si Si5 0.160989 0.716049 0.190307
Si Si6 0.985486 0.153546 0.100456
O O1 0.666601 0.462626 0.270063
O O2 0.342263 0.440208 0.108602
O O3 0.597689 0.332882 0.158972
O O4 0.548130 0.538904 0.115344
O O5 0.166604 0.207328 0.824865
O O6 0.041416 0.333085 0.699090
O O7 0.359559 0.829876 0.886976
O O8 0.195386 0.845645 0.931478
O O9 0.539942 0.899751 0.053737
O O10 0.444965 0.716916 0.021404
O O11 0.362620 0.706725 0.295999
#
# Coordination Sequence:
#
# PCOD9283596 Si02
#       6
#     8   4   8   8   8   8
#     4   9  20  38  63  82 130 160 202 260 300 360
#     4   8  16  36  60  80 118 156 198 252 290 350
#     4  11  22  37  67  90 127 160 205 252 319 371
#     4   8  17  37  58  88 114 160 206 243 288 373
#     4  10  21  40  63  88 123 166 201 259 304 359
#     4  11  23  40  59  97 128 157 202 261 313 365
#
# _framework density 20.856528000000001
#
# number of rings (size 3 to 8) (size 9 to 14) (size 15 to 20)
#    0.000    2.909    3.636    0.545    5.091    4.364 
#    0.000    0.000    4.000    0.000    0.000    0.000 
#    0.000    0.000    0.000    0.000    0.000    0.000 
#
# Total GULP energy -122574.320869 kJ/mol
# GULP energy per Si atom -5571.560039 kJ/mol
# Density = 2.080906 g / cm^3
# Si number density = 20.856528 Si / 1000 Ang^3
#
#
#
# Elastic Constant Matrix: (Units=GPa)
#
#
# Indices 1 2 3 4 5 6 
#
# 1 85.5397 3.4694 58.7740 0.0000 10.2345 0.0000
# 2 3.4694 32.2282 -1.4341 0.0000 17.3959 0.0000
# 3 58.7740 -1.4341 84.9815 0.0000 17.4806 0.0000
# 4 0.0000 0.0000 0.0000 27.4429 0.0000 -6.7321
# 5 10.2345 17.3959 17.4806 0.0000 37.5179 0.0000
# 6 0.0000 0.0000 0.0000 -6.7321 0.0000 6.2123
#
#
#
# Elastic Compliance Matrix: (Units=1/GPa)
#
#
# Indices 1 2 3 4 5 6 
#
# 1 0.022985 -0.005430 -0.016829 0.000000 0.004089 0.000000
# 2 -0.005430 0.044803 0.009379 0.000000 -0.023662 0.000000
# 3 -0.016829 0.009379 0.026008 0.000000 -0.011876 0.000000
# 4 0.000000 0.000000 0.000000 0.049634 0.000000 0.053787
# 5 0.004089 -0.023662 -0.011876 0.000000 0.042043 0.000000
# 6 0.000000 0.000000 0.000000 0.053787 0.000000 0.219260
#
#
# Mechanical properties :
#
#
# Convention : Reuss Voigt Hill
#
# Bulk Modulus (GPa) = 14.69847 36.04089 25.36968
# Shear Modulus (GPa) = 11.03333 23.69727 17.36530
#
# Velocity S-wave (km/s) = 2.30252 3.37442 2.88862
# Velocity P-wave (km/s) = 3.75919 5.70089 4.82865
#
# Compressibility (1/GPa) = 0.06803429
#
# Stress axis : x y z
#
# Youngs Moduli (GPa) = 43.50690 22.31993 38.45022
#
# Poissons Ratio (x) = 0.12121 0.64709
# Poissons Ratio (y) = 0.23626 -0.36063
# Poissons Ratio (z) = 0.73219 -0.20934
#
# Static dielectric constant tensor:
#      x y z
#    x 1.761790 0.000000 -0.002440 
#    y 0.000000 1.831630 0.000000 
#    z -0.002440 0.000000 1.746540 
# 
# From -- ./inp_files/269812.got.cif
#   From: 2010.05.17/outbox.cif.g08.bks.cpg/sg15_135_cif.got.tgz:269812.got - 2010.06.03 18:47:42.
