data_PCOD9283017
_publ_section_title
;
Structure prediction by ZEFSAII (Michael W. Deem and Ramdas Pophale) SiO2 
 PCOD9283017
Probable space group: C 2/C
;
_chemical_formula_sum "Si O2"
_cell_formula_units_Z 36
_cell_length_a 12.976863
_cell_length_b 15.108264
_cell_length_c 20.611352
_cell_angle_alpha 90.000000
_cell_angle_beta 154.453162
_cell_angle_gamma 90.000000
_cell_volume 1742.684066
_symmetry_space_group_name_H-M "C 2/C"
_symmetry_group_IT_number 15
_symmetry_cell_setting 'monoclinic'
loop_
_space_group_symop_operation_xyz
x,y,z
-x,y,1/2-z
-x,-y,-z
x,-y,1/2+z
1/2+x,1/2+y,z
1/2-x,1/2+y,1/2-z
1/2-x,1/2-y,-z
1/2+x,1/2-y,1/2+z
loop_
_atom_site_type_symbol
_atom_site_label
_atom_site_fract_x
_atom_site_fract_y
_atom_site_fract_z
Si Si1 0.754806 0.334873 0.906577
Si Si2 0.685513 0.087282 0.730337
Si Si3 0.902707 0.174140 0.622681
Si Si4 0.000000 0.663800 0.750000
Si Si5 0.472991 0.068857 0.424807
O O1 0.500000 0.382607 0.750000
O O2 0.684207 0.235506 0.885337
O O3 0.876054 0.342807 0.904408
O O4 0.931294 0.378896 0.057182
O O5 0.656063 0.108000 0.788778
O O6 0.885573 0.140233 0.803845
O O7 0.697635 0.983061 0.721199
O O8 0.750000 0.250000 0.500000
O O9 0.722081 0.093159 0.534016
O O10 0.000000 0.200632 0.750000
O O11 0.500000 0.000000 0.500000
#
# Coordination Sequence:
#
# PCOD9283017 Si02
#       5
#     8   8   8   4   8
#     4   9  20  35  67  90 120 172 230 260 318 398
#     4  11  23  39  68  96 135 173 226 279 335 403
#     4  12  25  45  71 103 140 177 230 283 346 405
#     4  10  22  40  58  96 130 168 216 276 330 392
#     4  10  21  39  66  94 126 177 227 267 325 405
#
# _framework density 20.657789000000001
#
# number of rings (size 3 to 8) (size 9 to 14) (size 15 to 20)
#    0.667    0.889    4.444    2.000    6.222    0.000 
#    2.000    1.111    0.000    0.000    0.000    0.000 
#    0.000    0.000    0.000    0.000    0.000    0.000 
#
# Total GULP energy -100209.219717 kJ/mol
# GULP energy per Si atom -5567.178873 kJ/mol
# Density = 2.061077 g / cm^3
# Si number density = 20.657789 Si / 1000 Ang^3
#
#
#
# Elastic Constant Matrix: (Units=GPa)
#
#
# Indices 1 2 3 4 5 6 
#
# 1 121.4872 31.5215 23.3320 0.0051 14.4368 -0.0010
# 2 31.5215 62.2713 12.3124 0.0132 -4.4810 0.0004
# 3 23.3320 12.3124 74.8608 0.0284 15.3878 -0.0001
# 4 0.0051 0.0132 0.0284 29.1714 -0.0041 -0.6003
# 5 14.4368 -4.4810 15.3878 -0.0041 28.6332 -0.0055
# 6 -0.0010 0.0004 -0.0001 -0.6003 -0.0055 37.1732
#
#
#
# Elastic Compliance Matrix: (Units=1/GPa)
#
#
# Indices 1 2 3 4 5 6 
#
# 1 0.010550 -0.005489 -0.001254 0.000001 -0.005504 0.000000
# 2 -0.005489 0.020003 -0.003138 -0.000004 0.007584 0.000001
# 3 -0.001254 -0.003138 0.016004 -0.000015 -0.008460 -0.000001
# 4 0.000001 -0.000004 -0.000015 0.034292 0.000012 0.000554
# 5 -0.005504 0.007584 -0.008460 0.000012 0.043433 0.000006
# 6 0.000000 0.000001 -0.000001 0.000554 0.000006 0.026910
#
#
# Mechanical properties :
#
#
# Convention : Reuss Voigt Hill
#
# Bulk Modulus (GPa) = 37.31941 43.66123 40.49032
# Shear Modulus (GPa) = 27.79529 31.75912 29.77721
#
# Velocity S-wave (km/s) = 3.67210 3.92521 3.80076
# Velocity P-wave (km/s) = 6.00698 6.45944 6.23732
#
# Compressibility (1/GPa) = 0.02679571
#
# Stress axis : x y z
#
# Youngs Moduli (GPa) = 94.78308 49.99151 62.48421
#
# Poissons Ratio (x) = 0.27439 0.07836
# Poissons Ratio (y) = 0.52024 0.19609
# Poissons Ratio (z) = 0.11886 0.15689
#
# Static dielectric constant tensor:
#      x y z
#    x 1.833430 0.000000 -0.011040 
#    y 0.000000 1.789510 0.000000 
#    z -0.011040 0.000000 1.791860 
# 
# From -- ./inp_files/238917.got.cif
#   From: 2010.05.17/outbox.cif.g08.bks.cpg/sg15_120_cif.got.tgz:238917.got - 2010.06.03 18:47:42.
