data_PCOD9283593
_publ_section_title
;
Structure prediction by ZEFSAII (Michael W. Deem and Ramdas Pophale) SiO2 
 PCOD9283593
Probable space group: C 2/C
;
_chemical_formula_sum "Si O2"
_cell_formula_units_Z 40
_cell_length_a 14.125187
_cell_length_b 9.453184
_cell_length_c 21.923620
_cell_angle_alpha 90.000000
_cell_angle_beta 35.747178
_cell_angle_gamma 90.000000
_cell_volume 1710.225356
_symmetry_space_group_name_H-M "C 2/C"
_symmetry_group_IT_number 15
_symmetry_cell_setting 'monoclinic'
loop_
_space_group_symop_operation_xyz
x,y,z
-x,y,1/2-z
-x,-y,-z
x,-y,1/2+z
1/2+x,1/2+y,z
1/2-x,1/2+y,1/2-z
1/2-x,1/2-y,-z
1/2+x,1/2-y,1/2+z
loop_
_atom_site_type_symbol
_atom_site_label
_atom_site_fract_x
_atom_site_fract_y
_atom_site_fract_z
Si Si1 0.051656 0.116623 0.313605
Si Si2 0.298681 0.363948 0.628163
Si Si3 0.834628 0.545316 0.619874
Si Si4 0.525538 0.935715 0.318731
Si Si5 0.808899 0.096066 0.990161
O O1 0.109804 0.128405 0.354619
O O2 0.994895 0.270694 0.322356
O O3 0.198771 0.074256 0.192520
O O4 0.924811 0.988091 0.383707
O O5 0.261668 0.196734 0.639069
O O6 0.145582 0.470232 0.714113
O O7 0.385868 0.397437 0.518179
O O8 0.882054 0.562054 0.665411
O O9 0.000000 0.500000 0.500000
O O10 0.354866 0.008282 0.417984
O O11 0.750000 0.250000 0.000000
#
# Coordination Sequence:
#
# PCOD9283593 Si02
#       5
#     8   8   8   8   8
#     4  10  23  41  63  89 123 163 207 251 303 368
#     4  10  22  41  64  88 122 165 205 248 306 371
#     4  10  21  40  63  88 119 162 208 250 299 365
#     4  10  22  39  61  91 123 157 203 253 304 361
#     4  12  23  39  63  94 126 159 200 256 311 363
#
# _framework density 23.388729999999999
#
# number of rings (size 3 to 8) (size 9 to 14) (size 15 to 20)
#    0.000    1.600    0.000    4.200    0.000    9.600 
#    0.000    9.000    0.000    0.000    0.000    0.000 
#    0.000    0.000    0.000    0.000    0.000    0.000 
#
# Total GULP energy -111699.860433 kJ/mol
# GULP energy per Si atom -5584.993022 kJ/mol
# Density = 2.333550 g / cm^3
# Si number density = 23.388730 Si / 1000 Ang^3
#
#
#
# Elastic Constant Matrix: (Units=GPa)
#
#
# Indices 1 2 3 4 5 6 
#
# 1 58.5906 25.3921 5.1292 0.0000 14.9159 0.0000
# 2 25.3921 220.0979 92.4500 0.0000 -20.7029 0.0000
# 3 5.1292 92.4500 138.3895 0.0000 -1.9775 0.0000
# 4 0.0000 0.0000 0.0000 40.7309 0.0000 -10.3810
# 5 14.9159 -20.7029 -1.9775 0.0000 29.3725 0.0000
# 6 0.0000 0.0000 0.0000 -10.3810 0.0000 29.2171
#
#
#
# Elastic Compliance Matrix: (Units=1/GPa)
#
#
# Indices 1 2 3 4 5 6 
#
# 1 0.022848 -0.005003 0.002281 0.000000 -0.014975 0.000000
# 2 -0.005003 0.007967 -0.005025 0.000000 0.007817 0.000000
# 3 0.002281 -0.005025 0.010441 0.000000 -0.003997 0.000000
# 4 0.000000 0.000000 0.000000 0.026996 0.000000 0.009592
# 5 -0.014975 0.007817 -0.003997 0.000000 0.046891 0.000000
# 6 0.000000 0.000000 0.000000 0.009592 0.000000 0.037635
#
#
# Mechanical properties :
#
#
# Convention : Reuss Voigt Hill
#
# Bulk Modulus (GPa) = 38.81495 73.66896 56.24196
# Shear Modulus (GPa) = 28.27122 39.47123 33.87123
#
# Velocity S-wave (km/s) = 3.48049 4.11252 3.80963
# Velocity P-wave (km/s) = 5.72567 7.35639 6.59165
#
# Compressibility (1/GPa) = 0.02576327
#
# Stress axis : x y z
#
# Youngs Moduli (GPa) = 43.76670 125.52475 95.77506
#
# Poissons Ratio (x) = 0.62798 -0.21849
# Poissons Ratio (y) = 0.21896 0.48126
# Poissons Ratio (z) = -0.09984 0.63075
#
# Static dielectric constant tensor:
#      x y z
#    x 2.036750 0.000000 0.046830 
#    y 0.000000 1.868840 0.000000 
#    z 0.046830 0.000000 1.851510 
# 
# From -- ./inp_files/276737.got.cif
#   From: 2010.05.17/outbox.cif.g08.bks.cpg/sg15_139_cif.got.tgz:276737.got - 2010.06.03 18:47:42.
