data_PCOD9283060
_publ_section_title
;
Structure prediction by ZEFSAII (Michael W. Deem and Ramdas Pophale) SiO2 
 PCOD9283060
Probable space group: C 2/C
;
_chemical_formula_sum "Si O2"
_cell_formula_units_Z 48
_cell_length_a 22.523940
_cell_length_b 5.414268
_cell_length_c 19.857618
_cell_angle_alpha 90.000000
_cell_angle_beta 54.330703
_cell_angle_gamma 90.000000
_cell_volume 1967.338535
_symmetry_space_group_name_H-M "C 2/C"
_symmetry_group_IT_number 15
_symmetry_cell_setting 'monoclinic'
loop_
_space_group_symop_operation_xyz
x,y,z
-x,y,1/2-z
-x,-y,-z
x,-y,1/2+z
1/2+x,1/2+y,z
1/2-x,1/2+y,1/2-z
1/2-x,1/2-y,-z
1/2+x,1/2-y,1/2+z
loop_
_atom_site_type_symbol
_atom_site_label
_atom_site_fract_x
_atom_site_fract_y
_atom_site_fract_z
Si Si1 0.446855 0.882273 0.590366
Si Si2 0.528893 0.379033 0.847828
Si Si3 0.638299 0.334104 0.544111
Si Si4 0.686713 0.586658 0.870526
Si Si5 0.816619 0.924676 0.778564
Si Si6 0.744611 0.064156 0.943194
O O1 0.473958 0.612759 0.598236
O O2 0.366986 0.816538 0.615058
O O3 0.500000 0.000000 0.500000
O O4 0.447191 0.104748 0.643440
O O5 0.445616 0.351249 0.880562
O O6 0.598879 0.449237 0.756887
O O7 0.655077 0.496079 0.464528
O O8 0.690291 0.383525 0.572998
O O9 0.666752 0.068293 0.499729
O O10 0.768275 0.685982 0.827243
O O11 0.684133 0.439124 0.802210
O O12 0.770393 0.129344 0.851026
O O13 0.750000 0.250000 0.000000
#
# Coordination Sequence:
#
# PCOD9283060 Si02
#       6
#     8   8   8   8   8   8
#     4  11  22  38  64 104 138 179 224 285 343 413
#     4  11  24  41  67  99 141 179 232 283 350 407
#     4  10  23  42  67  96 129 185 225 284 346 423
#     4  10  21  39  66  98 136 174 227 280 348 404
#     4  10  23  39  64 102 134 179 229 292 342 414
#     4  10  24  45  68  95 135 183 240 278 358 425
#
# _framework density 24.398444999999999
#
# number of rings (size 3 to 8) (size 9 to 14) (size 15 to 20)
#    0.000    1.667    1.667    1.500    7.000    0.667 
#    9.000    0.000    0.000    0.000    0.000    0.000 
#    0.000    0.000    0.000    0.000    0.000    0.000 
#
# Total GULP energy -133700.816428 kJ/mol
# GULP energy per Si atom -5570.867351 kJ/mol
# Density = 2.434291 g / cm^3
# Si number density = 24.398445 Si / 1000 Ang^3
#
#
#
# Elastic Constant Matrix: (Units=GPa)
#
#
# Indices 1 2 3 4 5 6 
#
# 1 112.2436 30.5273 36.3353 0.0041 -16.3167 0.0114
# 2 30.5273 68.0195 -4.4695 -0.1582 0.5219 0.0277
# 3 36.3353 -4.4695 108.2201 -0.0663 -21.8845 -0.0233
# 4 0.0041 -0.1582 -0.0663 29.4152 -0.0134 9.1112
# 5 -16.3167 0.5219 -21.8845 -0.0134 58.1436 -0.0093
# 6 0.0114 0.0277 -0.0233 9.1112 -0.0093 26.9263
#
#
#
# Elastic Compliance Matrix: (Units=1/GPa)
#
#
# Indices 1 2 3 4 5 6 
#
# 1 0.011978 -0.005645 -0.003859 -0.000044 0.001960 0.000013
# 2 -0.005645 0.017402 0.002448 0.000116 -0.000819 -0.000053
# 3 -0.003859 0.002448 0.011272 0.000042 0.003138 -0.000004
# 4 -0.000044 0.000116 0.000042 0.037977 0.000009 -0.012851
# 5 0.001960 -0.000819 0.003138 0.000009 0.018937 0.000006
# 6 0.000013 -0.000053 -0.000004 -0.012851 0.000006 0.041487
#
#
# Mechanical properties :
#
#
# Convention : Reuss Voigt Hill
#
# Bulk Modulus (GPa) = 37.67496 45.91884 41.79690
# Shear Modulus (GPa) = 30.86216 37.96970 34.41593
#
# Velocity S-wave (km/s) = 3.56043 3.94919 3.75984
# Velocity P-wave (km/s) = 5.69011 6.29731 6.00139
#
# Compressibility (1/GPa) = 0.02654283
#
# Stress axis : x y z
#
# Youngs Moduli (GPa) = 83.48371 57.46324 88.71828
#
# Poissons Ratio (x) = 0.32436 0.34233
# Poissons Ratio (y) = 0.47123 -0.21722
# Poissons Ratio (z) = 0.32213 -0.14069
#
# Static dielectric constant tensor:
#      x y z
#    x 1.981090 -0.000020 0.059060 
#    y -0.000020 2.169020 0.000070 
#    z 0.059060 0.000070 2.034390 
# 
# From -- ./inp_files/217766.got.cif
#   From: 2010.05.17/outbox.cif.g08.bks.cpg/sg15_109_cif.got.tgz:217766.got - 2010.06.03 18:47:42.
