data_PCOD9283219
_publ_section_title
;
Structure prediction by ZEFSAII (Michael W. Deem and Ramdas Pophale) SiO2 
 PCOD9283219
Probable space group: C 2/C
;
_chemical_formula_sum "Si O2"
_cell_formula_units_Z 32
_cell_length_a 11.187921
_cell_length_b 19.745568
_cell_length_c 14.588404
_cell_angle_alpha 90.000000
_cell_angle_beta 152.751112
_cell_angle_gamma 90.000000
_cell_volume 1475.558189
_symmetry_space_group_name_H-M "C 2/C"
_symmetry_group_IT_number 15
_symmetry_cell_setting 'monoclinic'
loop_
_space_group_symop_operation_xyz
x,y,z
-x,y,1/2-z
-x,-y,-z
x,-y,1/2+z
1/2+x,1/2+y,z
1/2-x,1/2+y,1/2-z
1/2-x,1/2-y,-z
1/2+x,1/2-y,1/2+z
loop_
_atom_site_type_symbol
_atom_site_label
_atom_site_fract_x
_atom_site_fract_y
_atom_site_fract_z
Si Si1 0.574438 0.309994 0.655620
Si Si2 0.576215 0.839632 0.433060
Si Si3 0.711437 0.592944 0.092775
Si Si4 0.208811 0.470702 0.213653
O O1 0.592512 0.228855 0.675203
O O2 0.286113 0.328903 0.495695
O O3 0.631452 0.340517 0.595373
O O4 0.767519 0.340742 0.863714
O O5 0.428317 0.909927 0.324383
O O6 0.727854 0.533996 0.179557
O O7 0.000000 0.601383 0.250000
O O8 0.482234 0.565024 0.869183
O O9 0.000000 0.500000 0.000000
#
# Coordination Sequence:
#
# PCOD9283219 Si02
#       4
#     8   8   8   8
#     4  10  21  41  65  97 127 169 219 278 321 382
#     4  10  21  39  69  93 126 167 225 273 322 381
#     4  11  26  42  65  97 135 173 212 267 337 396
#     4  11  24  43  66  95 131 171 219 266 324 390
#
# _framework density 21.686709
#
# number of rings (size 3 to 8) (size 9 to 14) (size 15 to 20)
#    0.000    1.500    2.500    1.500    7.000    3.000 
#    0.000    5.000    0.000    0.000    0.000    0.000 
#    0.000    0.000    0.000    0.000    0.000    0.000 
#
# Total GULP energy -89387.959352 kJ/mol
# GULP energy per Si atom -5586.747459 kJ/mol
# Density = 2.163735 g / cm^3
# Si number density = 21.686709 Si / 1000 Ang^3
#
#
#
# Elastic Constant Matrix: (Units=GPa)
#
#
# Indices 1 2 3 4 5 6 
#
# 1 78.0421 8.1048 30.6220 0.0010 22.0755 0.0001
# 2 8.1048 74.2859 -0.1246 0.0007 9.1869 -0.0001
# 3 30.6220 -0.1246 104.4332 0.0041 5.5009 0.0012
# 4 0.0010 0.0007 0.0041 32.8650 0.0014 8.5533
# 5 22.0755 9.1869 5.5009 0.0014 31.7672 0.0002
# 6 0.0001 -0.0001 0.0012 8.5533 0.0002 29.7405
#
#
#
# Elastic Compliance Matrix: (Units=1/GPa)
#
#
# Indices 1 2 3 4 5 6 
#
# 1 0.017955 -0.000543 -0.004659 0.000001 -0.011513 0.000000
# 2 -0.000543 0.013983 0.000372 0.000000 -0.003731 0.000000
# 3 -0.004659 0.000372 0.010876 -0.000001 0.001246 0.000000
# 4 0.000001 0.000000 -0.000001 0.032889 -0.000001 -0.009459
# 5 -0.011513 -0.003731 0.001246 -0.000001 0.040343 0.000000
# 6 0.000000 0.000000 0.000000 -0.009459 0.000000 0.036345
#
#
# Mechanical properties :
#
#
# Convention : Reuss Voigt Hill
#
# Bulk Modulus (GPa) = 30.16126 37.10729 33.63428
# Shear Modulus (GPa) = 28.88486 33.41847 31.15166
#
# Velocity S-wave (km/s) = 3.65350 3.92977 3.79415
# Velocity P-wave (km/s) = 5.63341 6.14317 5.89381
#
# Compressibility (1/GPa) = 0.03315511
#
# Stress axis : x y z
#
# Youngs Moduli (GPa) = 55.69554 71.51658 91.94243
#
# Poissons Ratio (x) = 0.03883 0.42835
# Poissons Ratio (y) = 0.03024 -0.03424
# Poissons Ratio (z) = 0.25948 -0.02663
#
# Static dielectric constant tensor:
#      x y z
#    x 1.751500 0.000000 -0.006940 
#    y 0.000000 1.758380 0.000000 
#    z -0.006940 0.000000 1.941470 
# 
# From -- ./inp_files/88251.got.cif
#   From: 2010.05.17/outbox.cif.g08.bks.cpg/sg15_45_cif.got.tgz:88251.got - 2010.06.03 18:47:42.
