data_PCOD9283126
_publ_section_title
;
Structure prediction by ZEFSAII (Michael W. Deem and Ramdas Pophale) SiO2 
 PCOD9283126
Probable space group: C 2/C
;
_chemical_formula_sum "Si O2"
_cell_formula_units_Z 60
_cell_length_a 21.652488
_cell_length_b 8.396114
_cell_length_c 23.278062
_cell_angle_alpha 90.000000
_cell_angle_beta 143.329712
_cell_angle_gamma 90.000000
_cell_volume 2527.315770
_symmetry_space_group_name_H-M "C 2/C"
_symmetry_group_IT_number 15
_symmetry_cell_setting 'monoclinic'
loop_
_space_group_symop_operation_xyz
x,y,z
-x,y,1/2-z
-x,-y,-z
x,-y,1/2+z
1/2+x,1/2+y,z
1/2-x,1/2+y,1/2-z
1/2-x,1/2-y,-z
1/2+x,1/2-y,1/2+z
loop_
_atom_site_type_symbol
_atom_site_label
_atom_site_fract_x
_atom_site_fract_y
_atom_site_fract_z
Si Si1 0.686303 0.290686 0.098496
Si Si2 0.356261 0.469883 0.731101
Si Si3 0.376452 0.011522 0.268966
Si Si4 0.562833 0.687126 0.614666
Si Si5 0.089839 0.366580 0.422937
Si Si6 0.857674 0.723092 0.154436
Si Si7 0.500000 0.278086 0.750000
Si Si8 0.632453 0.765136 0.961593
O O1 0.768258 0.426314 0.177372
O O2 0.588861 0.312194 0.067515
O O3 0.752404 0.130852 0.160569
O O4 0.647287 0.263943 0.004523
O O5 0.399306 0.529266 0.824174
O O6 0.339474 0.630232 0.682841
O O7 0.436107 0.374847 0.750115
O O8 0.470975 0.895176 0.355409
O O9 0.377382 0.158740 0.313573
O O10 0.405938 0.085875 0.228938
O O11 0.445566 0.714461 0.547070
O O12 0.081402 0.316979 0.350321
O O13 0.139960 0.542124 0.466940
O O14 0.910509 0.774611 0.134341
O O15 0.741035 0.677840 0.049116
#
# Coordination Sequence:
#
# PCOD9283126 Si02
#       8
#     8   8   8   8   8   8   4   8
#     4  12  24  45  67 100 137 184 229 274 344 408
#     4  11  23  42  68  98 133 176 226 286 338 396
#     4  10  23  44  66  98 138 183 221 282 344 399
#     4  10  24  44  68  96 138 183 226 280 332 411
#     4  11  24  42  68 105 136 180 223 286 347 403
#     4  10  21  42  66  97 133 172 231 281 345 401
#     4  12  24  42  70 104 136 168 226 292 350 400
#     4  10  21  39  67  98 131 178 224 281 340 404
#
# _framework density 23.740603
#
# number of rings (size 3 to 8) (size 9 to 14) (size 15 to 20)
#    0.000    1.333    2.667    2.400    0.000    9.600 
#    4.800    1.333    0.000    0.000    0.000    0.000 
#    0.000    0.000    0.000    0.000    0.000    0.000 
#
# Total GULP energy -167713.399994 kJ/mol
# GULP energy per Si atom -5590.446666 kJ/mol
# Density = 2.368657 g / cm^3
# Si number density = 23.740603 Si / 1000 Ang^3
#
#
#
# Elastic Constant Matrix: (Units=GPa)
#
#
# Indices 1 2 3 4 5 6 
#
# 1 95.7163 7.9034 8.0632 0.0000 7.4253 0.0000
# 2 7.9034 21.7088 12.5628 0.0000 -1.1607 -0.0001
# 3 8.0632 12.5628 81.7172 0.0000 1.2771 0.0000
# 4 0.0000 0.0000 0.0000 14.7575 0.0000 7.2588
# 5 7.4253 -1.1607 1.2771 0.0000 31.2620 0.0000
# 6 0.0000 -0.0001 0.0000 7.2588 0.0000 19.3831
#
#
#
# Elastic Compliance Matrix: (Units=1/GPa)
#
#
# Indices 1 2 3 4 5 6 
#
# 1 0.011020 -0.003901 -0.000445 0.000000 -0.002744 0.000000
# 2 -0.003901 0.052095 -0.007673 0.000000 0.003174 0.000000
# 3 -0.000445 -0.007673 0.013472 0.000000 -0.000730 0.000000
# 4 0.000000 0.000000 0.000000 0.083063 0.000000 -0.031106
# 5 -0.002744 0.003174 -0.000730 0.000000 0.032787 0.000000
# 6 0.000000 0.000000 0.000000 -0.031106 0.000000 0.063240
#
#
# Mechanical properties :
#
#
# Convention : Reuss Voigt Hill
#
# Bulk Modulus (GPa) = 19.03018 28.46679 23.74849
# Shear Modulus (GPa) = 16.82185 24.45470 20.63828
#
# Velocity S-wave (km/s) = 2.66478 3.21297 2.95163
# Velocity P-wave (km/s) = 4.18346 5.07750 4.65201
#
# Compressibility (1/GPa) = 0.05254811
#
# Stress axis : x y z
#
# Youngs Moduli (GPa) = 90.74387 19.19577 74.22644
#
# Poissons Ratio (x) = 0.07489 0.03301
# Poissons Ratio (y) = 0.35403 0.56957
# Poissons Ratio (z) = 0.04035 0.14730
#
# Static dielectric constant tensor:
#      x y z
#    x 1.906220 0.000000 0.020920 
#    y 0.000000 1.945520 0.000000 
#    z 0.020920 0.000000 1.955710 
# 
# From -- ./inp_files/279728.got.cif
#   From: 2010.05.17/outbox.cif.g08.bks.cpg/sg15_140_cif.got.tgz:279728.got - 2010.06.03 18:47:42.
