data_PCOD9283990
_publ_section_title
;
Structure prediction by ZEFSAII (Michael W. Deem and Ramdas Pophale) SiO2 
 PCOD9283990
Probable space group: C 2/C
;
_chemical_formula_sum "Si O2"
_cell_formula_units_Z 60
_cell_length_a 13.678315
_cell_length_b 8.609671
_cell_length_c 24.329828
_cell_angle_alpha 90.000000
_cell_angle_beta 68.425242
_cell_angle_gamma 90.000000
_cell_volume 2664.479965
_symmetry_space_group_name_H-M "C 2/C"
_symmetry_group_IT_number 15
_symmetry_cell_setting 'monoclinic'
loop_
_space_group_symop_operation_xyz
x,y,z
-x,y,1/2-z
-x,-y,-z
x,-y,1/2+z
1/2+x,1/2+y,z
1/2-x,1/2+y,1/2-z
1/2-x,1/2-y,-z
1/2+x,1/2-y,1/2+z
loop_
_atom_site_type_symbol
_atom_site_label
_atom_site_fract_x
_atom_site_fract_y
_atom_site_fract_z
Si Si1 0.000000 0.188620 0.750000
Si Si2 0.436595 0.381413 0.097460
Si Si3 0.633963 0.130802 0.810343
Si Si4 0.335521 0.522587 0.220057
Si Si5 0.916721 0.697235 0.557020
Si Si6 0.862204 0.547651 0.974577
Si Si7 0.041629 0.608124 0.143196
Si Si8 0.129809 0.018898 0.000050
O O1 0.919562 0.080894 0.734768
O O2 0.063212 0.293055 0.693005
O O3 0.354419 0.468489 0.153402
O O4 0.470834 0.220909 0.118682
O O5 0.391750 0.362967 0.045825
O O6 0.541403 0.485867 0.064970
O O7 0.641182 0.296383 0.779812
O O8 0.723291 0.020239 0.767586
O O9 0.643764 0.166426 0.873500
O O10 0.525812 0.039829 0.824938
O O11 0.891002 0.563486 0.519009
O O12 0.881083 0.854688 0.532606
O O13 0.040926 0.670661 0.547795
O O14 0.737793 0.572843 0.004743
O O15 0.868663 0.451972 0.915540
#
# Coordination Sequence:
#
# PCOD9283990 Si02
#       8
#     4   8   8   8   8   8   8   8
#     4  10  24  38  64  96 130 170 226 278 336 418
#     4  10  22  39  63  96 136 177 224 283 337 414
#     4  11  24  43  69  91 130 183 223 282 353 403
#     4  11  23  43  65  93 131 175 226 283 345 405
#     4  10  21  40  66 100 139 169 234 293 330 434
#     4  10  22  38  68 101 130 179 230 276 351 414
#     4  10  22  42  65  94 135 173 226 285 338 411
#     4  11  21  39  69  94 139 185 224 278 355 408
#
# _framework density 22.518464999999999
#
# number of rings (size 3 to 8) (size 9 to 14) (size 15 to 20)
#    0.000    1.600    2.667    2.000    1.867    2.667 
#    0.000    6.667    0.000    0.000    0.000    0.000 
#    0.000    0.000    0.000    0.000    0.000    0.000 
#
# Total GULP energy -167494.309739 kJ/mol
# GULP energy per Si atom -5583.143658 kJ/mol
# Density = 2.246721 g / cm^3
# Si number density = 22.518465 Si / 1000 Ang^3
#
#
#
# Elastic Constant Matrix: (Units=GPa)
#
#
# Indices 1 2 3 4 5 6 
#
# 1 79.8152 -5.0973 19.6742 0.0000 -10.0449 0.0000
# 2 -5.0973 102.8646 31.2821 0.0000 3.7306 0.0000
# 3 19.6742 31.2821 122.3468 0.0000 -6.4748 0.0000
# 4 0.0000 0.0000 0.0000 27.0703 0.0000 -12.4614
# 5 -10.0449 3.7306 -6.4748 0.0000 31.0881 0.0000
# 6 0.0000 0.0000 0.0000 -12.4614 0.0000 6.8126
#
#
#
# Elastic Compliance Matrix: (Units=1/GPa)
#
#
# Indices 1 2 3 4 5 6 
#
# 1 0.013654 0.001243 -0.002313 0.000000 0.003781 0.000000
# 2 0.001243 0.010760 -0.003032 0.000000 -0.001521 0.000000
# 3 -0.002313 -0.003032 0.009404 0.000000 0.001575 0.000000
# 4 0.000000 0.000000 0.000000 0.233857 0.000000 0.427764
# 5 0.003781 -0.001521 0.001575 0.000000 0.033899 0.000000
# 6 0.000000 0.000000 0.000000 0.427764 0.000000 0.929241
#
#
# Mechanical properties :
#
#
# Convention : Reuss Voigt Hill
#
# Bulk Modulus (GPa) = 39.04025 44.08273 41.56149
# Shear Modulus (GPa) = 4.00783 30.27204 17.13994
#
# Velocity S-wave (km/s) = 1.33554 3.67048 2.76189
# Velocity P-wave (km/s) = 4.44442 6.13041 5.35419
#
# Compressibility (1/GPa) = 0.02561459
#
# Stress axis : x y z
#
# Youngs Moduli (GPa) = 73.23642 92.93495 106.33789
#
# Poissons Ratio (x) = -0.11552 0.24601
# Poissons Ratio (y) = -0.09104 0.32237
# Poissons Ratio (z) = 0.16943 0.28174
#
# Static dielectric constant tensor:
#      x y z
#    x 1.884270 0.000000 -0.045070 
#    y 0.000000 1.908540 0.000000 
#    z -0.045070 0.000000 1.843300 
# 
# From -- ./inp_files/273139.got.cif
#   From: 2010.05.17/outbox.cif.g08.bks.cpg/sg15_137_cif.got.tgz:273139.got - 2010.06.03 18:47:42.
