data_PCOD9283109
_publ_section_title
;
Structure prediction by ZEFSAII (Michael W. Deem and Ramdas Pophale) SiO2 
 PCOD9283109
Probable space group: C 2/C
;
_chemical_formula_sum "Si O2"
_cell_formula_units_Z 48
_cell_length_a 21.014383
_cell_length_b 10.964831
_cell_length_c 14.570769
_cell_angle_alpha 90.000000
_cell_angle_beta 36.168885
_cell_angle_gamma 90.000000
_cell_volume 1981.418622
_symmetry_space_group_name_H-M "C 2/C"
_symmetry_group_IT_number 15
_symmetry_cell_setting 'monoclinic'
loop_
_space_group_symop_operation_xyz
x,y,z
-x,y,1/2-z
-x,-y,-z
x,-y,1/2+z
1/2+x,1/2+y,z
1/2-x,1/2+y,1/2-z
1/2-x,1/2-y,-z
1/2+x,1/2-y,1/2+z
loop_
_atom_site_type_symbol
_atom_site_label
_atom_site_fract_x
_atom_site_fract_y
_atom_site_fract_z
Si Si1 0.952890 0.365855 0.551124
Si Si2 0.576168 0.274834 0.237071
Si Si3 0.745897 0.139310 0.325864
Si Si4 0.778132 0.561248 0.502111
Si Si5 0.167957 0.888444 0.501303
Si Si6 0.957341 0.844773 0.663263
O O1 0.977644 0.285946 0.612080
O O2 0.823877 0.367639 0.684477
O O3 0.000000 0.500000 0.500000
O O4 0.002073 0.290095 0.409110
O O5 0.500000 0.335417 0.250000
O O6 0.669110 0.368224 0.158186
O O7 0.632739 0.162327 0.118305
O O8 0.730007 0.275509 0.384067
O O9 0.873131 0.114317 0.183503
O O10 0.693871 0.039813 0.455313
O O11 0.747608 0.492674 0.443197
O O12 0.110952 0.846646 0.663144
O O13 0.067168 0.919554 0.552727
#
# Coordination Sequence:
#
# PCOD9283109 Si02
#       6
#     8   8   8   8   8   8
#     4  11  25  40  61  94 130 166 207 265 316 376
#     4  11  26  43  63  88 130 173 213 250 316 391
#     4  10  21  39  67  94 124 160 215 264 314 372
#     4  10  22  42  65  92 122 171 210 258 312 379
#     4   9  19  37  67  97 120 157 212 260 312 373
#     4   9  19  36  63  95 121 155 206 261 313 367
#
# _framework density 24.225066999999999
#
# number of rings (size 3 to 8) (size 9 to 14) (size 15 to 20)
#    0.000    2.000    0.000    3.000    9.333    4.000 
#    3.000    3.333    0.000    0.000    0.000    0.000 
#    0.000    0.000    0.000    0.000    0.000    0.000 
#
# Total GULP energy -134221.507252 kJ/mol
# GULP energy per Si atom -5592.562802 kJ/mol
# Density = 2.416993 g / cm^3
# Si number density = 24.225067 Si / 1000 Ang^3
#
#
#
# Elastic Constant Matrix: (Units=GPa)
#
#
# Indices 1 2 3 4 5 6 
#
# 1 114.0163 7.1697 13.8995 0.0000 -14.9742 0.0000
# 2 7.1697 88.8204 11.5514 0.0000 16.5014 0.0000
# 3 13.8995 11.5514 35.8712 0.0000 10.9875 0.0000
# 4 0.0000 0.0000 0.0000 14.3795 0.0000 18.7209
# 5 -14.9742 16.5014 10.9875 0.0000 26.5370 0.0000
# 6 0.0000 0.0000 0.0000 18.7209 0.0000 26.9087
#
#
#
# Elastic Compliance Matrix: (Units=1/GPa)
#
#
# Indices 1 2 3 4 5 6 
#
# 1 0.011069 -0.001913 -0.006815 0.000000 0.010257 0.000000
# 2 -0.001913 0.013176 -0.000758 0.000000 -0.008959 0.000000
# 3 -0.006815 -0.000758 0.036414 0.000000 -0.018451 0.000000
# 4 0.000000 0.000000 0.000000 0.737985 0.000000 -0.513429
# 5 0.010257 -0.008959 -0.018451 0.000000 0.056681 0.000000
# 6 0.000000 0.000000 0.000000 -0.513429 0.000000 0.394364
#
#
# Mechanical properties :
#
#
# Convention : Reuss Voigt Hill
#
# Bulk Modulus (GPa) = 23.98766 33.77213 28.87990
# Shear Modulus (GPa) = 3.89846 27.30421 15.60134
#
# Velocity S-wave (km/s) = 1.26995 3.36088 2.54050
# Velocity P-wave (km/s) = 3.47474 5.38813 4.53353
#
# Compressibility (1/GPa) = 0.04168809
#
# Stress axis : x y z
#
# Youngs Moduli (GPa) = 90.34389 75.89548 27.46214
#
# Poissons Ratio (x) = 0.14517 0.18715
# Poissons Ratio (y) = 0.17281 0.02081
# Poissons Ratio (z) = 0.61567 0.05751
#
# Static dielectric constant tensor:
#      x y z
#    x 1.991030 0.000000 -0.019920 
#    y 0.000000 1.880510 0.000000 
#    z -0.019920 0.000000 1.942250 
# 
# From -- ./inp_files/167830.got.cif
#   From: 2010.05.17/outbox.cif.g08.bks.cpg/sg15_84_cif.got.tgz:167830.got - 2010.06.03 18:47:42.
