data_PCOD9283555
_publ_section_title
;
Structure prediction by ZEFSAII (Michael W. Deem and Ramdas Pophale) SiO2 
 PCOD9283555
Probable space group: C 2/C
;
_chemical_formula_sum "Si O2"
_cell_formula_units_Z 60
_cell_length_a 21.717178
_cell_length_b 10.898104
_cell_length_c 14.339872
_cell_angle_alpha 90.000000
_cell_angle_beta 51.855951
_cell_angle_gamma 90.000000
_cell_volume 2669.171508
_symmetry_space_group_name_H-M "C 2/C"
_symmetry_group_IT_number 15
_symmetry_cell_setting 'monoclinic'
loop_
_space_group_symop_operation_xyz
x,y,z
-x,y,1/2-z
-x,-y,-z
x,-y,1/2+z
1/2+x,1/2+y,z
1/2-x,1/2+y,1/2-z
1/2-x,1/2-y,-z
1/2+x,1/2-y,1/2+z
loop_
_atom_site_type_symbol
_atom_site_label
_atom_site_fract_x
_atom_site_fract_y
_atom_site_fract_z
Si Si1 0.271850 0.226951 0.224598
Si Si2 0.000000 0.706575 0.750000
Si Si3 0.070251 0.114651 0.755620
Si Si4 0.127132 0.139079 0.239024
Si Si5 0.812027 0.332288 0.884740
Si Si6 0.332408 0.891954 0.057296
Si Si7 0.461677 0.280308 0.497563
Si Si8 0.077823 0.629253 0.489527
O O1 0.209467 0.186408 0.204013
O O2 0.282605 0.139260 0.307508
O O3 0.239771 0.347821 0.309632
O O4 0.354759 0.231449 0.094248
O O5 0.923662 0.784753 0.788725
O O6 0.966851 0.634049 0.870032
O O7 0.113527 0.243725 0.699573
O O8 0.000000 0.092195 0.750000
O O9 0.021683 0.128440 0.894930
O O10 0.129082 0.000878 0.703032
O O11 0.072656 0.155297 0.380292
O O12 0.750000 0.250000 0.000000
O O13 0.824557 0.430622 0.955352
O O14 0.389307 0.772103 0.005764
O O15 0.375284 0.004358 0.065464
O O16 0.511270 0.159945 0.477766
#
# Coordination Sequence:
#
# PCOD9283555 Si02
#       8
#     8   4   8   8   8   8   8   8
#     4  10  23  42  64  93 130 168 218 274 317 408
#     4  10  24  46  62  94 138 168 224 274 310 412
#     4  12  21  38  69  94 125 173 222 272 325 376
#     4  10  23  42  63  91 131 171 212 267 338 379
#     4  10  22  40  59  93 135 160 214 275 322 392
#     4  10  22  42  63  92 132 171 215 267 336 382
#     4  10  21  40  62  94 128 162 224 271 309 403
#     4  11  23  41  68  94 133 174 217 268 334 386
#
# _framework density 22.478885999999999
#
# number of rings (size 3 to 8) (size 9 to 14) (size 15 to 20)
#    0.000    1.600    3.333    0.800    3.733    1.600 
#    7.200    2.667    0.000    0.000    0.000    0.000 
#    0.000    0.000    0.000    0.000    0.000    0.000 
#
# Total GULP energy -167085.375973 kJ/mol
# GULP energy per Si atom -5569.512532 kJ/mol
# Density = 2.242772 g / cm^3
# Si number density = 22.478886 Si / 1000 Ang^3
#
#
#
# Elastic Constant Matrix: (Units=GPa)
#
#
# Indices 1 2 3 4 5 6 
#
# 1 121.3210 12.4997 -0.3332 0.0000 4.2848 0.0000
# 2 12.4997 40.0985 -4.9319 0.0000 -3.9979 0.0000
# 3 -0.3332 -4.9319 75.3882 0.0000 -12.3407 0.0000
# 4 0.0000 0.0000 0.0000 13.3389 0.0000 -7.1970
# 5 4.2848 -3.9979 -12.3407 0.0000 30.8027 0.0000
# 6 0.0000 0.0000 0.0000 -7.1970 0.0000 -8.0423
#
#
#
# Elastic Compliance Matrix: (Units=1/GPa)
#
#
# Indices 1 2 3 4 5 6 
#
# 1 0.008603 -0.002910 -0.000439 0.000000 -0.001750 0.000000
# 2 -0.002910 0.026643 0.002528 0.000000 0.004876 0.000000
# 3 -0.000439 0.002528 0.014439 0.000000 0.006174 0.000000
# 4 0.000000 0.000000 0.000000 0.050558 0.000000 -0.045243
# 5 -0.001750 0.004876 0.006174 0.000000 0.035814 0.000000
# 6 0.000000 0.000000 0.000000 -0.045243 0.000000 -0.083854
#
#
# Mechanical properties :
#
#
# Convention : Reuss Voigt Hill
#
# Bulk Modulus (GPa) = 20.81474 27.91966 24.36720
# Shear Modulus (GPa) = 71.57317 22.52473 47.04895
#
# Velocity S-wave (km/s) = 5.64883 3.16894 4.57993
# Velocity P-wave (km/s) = 7.19899 5.08300 6.23147
#
# Compressibility (1/GPa) = 0.04804287
#
# Stress axis : x y z
#
# Youngs Moduli (GPa) = 116.23781 37.53349 69.25797
#
# Poissons Ratio (x) = 0.10923 0.03040
# Poissons Ratio (y) = 0.33828 -0.17510
# Poissons Ratio (z) = 0.05101 -0.09489
#
# Static dielectric constant tensor:
#      x y z
#    x 1.984180 0.000000 0.037750 
#    y 0.000000 1.876470 0.000000 
#    z 0.037750 0.000000 1.817790 
# 
# From -- ./inp_files/173155.got.cif
#   From: 2010.05.17/outbox.cif.g08.bks.cpg/sg15_87_cif.got.tgz:173155.got - 2010.06.03 18:47:42.
