data_PCOD9283207
_publ_section_title
;
Structure prediction by ZEFSAII (Michael W. Deem and Ramdas Pophale) SiO2 
 PCOD9283207
Probable space group: C 2/C
;
_chemical_formula_sum "Si O2"
_cell_formula_units_Z 44
_cell_length_a 10.982794
_cell_length_b 33.496014
_cell_length_c 5.751883
_cell_angle_alpha 90.000000
_cell_angle_beta 100.965633
_cell_angle_gamma 90.000000
_cell_volume 2077.366585
_symmetry_space_group_name_H-M "C 2/C"
_symmetry_group_IT_number 15
_symmetry_cell_setting 'monoclinic'
loop_
_space_group_symop_operation_xyz
x,y,z
-x,y,1/2-z
-x,-y,-z
x,-y,1/2+z
1/2+x,1/2+y,z
1/2-x,1/2+y,1/2-z
1/2-x,1/2-y,-z
1/2+x,1/2-y,1/2+z
loop_
_atom_site_type_symbol
_atom_site_label
_atom_site_fract_x
_atom_site_fract_y
_atom_site_fract_z
Si Si1 0.632532 0.601980 0.422668
Si Si2 0.603917 0.206409 0.967493
Si Si3 0.859829 0.629552 0.200577
Si Si4 0.143217 0.985234 0.073009
Si Si5 0.295461 0.671956 0.731356
Si Si6 0.000000 0.774640 0.250000
O O1 0.500000 0.597924 0.250000
O O2 0.751504 0.605282 0.293851
O O3 0.647212 0.562571 0.583517
O O4 0.632641 0.642325 0.571538
O O5 0.500000 0.192950 0.750000
O O6 0.725288 0.205773 0.853722
O O7 0.624600 0.171603 0.160128
O O8 0.554654 0.245656 0.074353
O O9 0.000000 0.611922 0.250000
O O10 0.801268 0.643510 0.935718
O O11 0.195925 0.002179 0.336474
O O12 0.000000 0.000000 0.000000
O O13 0.392566 0.696469 0.612330
#
# Coordination Sequence:
#
# PCOD9283207 Si02
#       6
#     8   8   8   8   8   4
#     4  11  24  40  67 103 133 169 217 273 333 403
#     4  11  22  41  62  83 122 170 225 267 343 396
#     4  11  23  44  65  89 127 178 224 269 333 399
#     4  10  21  39  69 103 144 178 217 265 345 411
#     4  11  25  40  64  90 131 167 223 274 334 397
#     4  12  24  38  60  94 124 162 218 294 336 390
#
# _framework density 21.180662000000002
#
# number of rings (size 3 to 8) (size 9 to 14) (size 15 to 20)
#    0.000    1.091    4.545    1.636    2.545    8.000 
#    0.000    0.000    0.000    1.091    0.000    0.000 
#    0.000    0.000    0.000    0.000    0.000    0.000 
#
# Total GULP energy -122734.693119 kJ/mol
# GULP energy per Si atom -5578.849687 kJ/mol
# Density = 2.113245 g / cm^3
# Si number density = 21.180662 Si / 1000 Ang^3
#
#
#
# Elastic Constant Matrix: (Units=GPa)
#
#
# Indices 1 2 3 4 5 6 
#
# 1 96.7234 50.9598 5.8731 0.0000 -12.3786 0.0000
# 2 50.9598 71.8539 6.2198 0.0000 -15.5239 0.0000
# 3 5.8731 6.2198 67.7301 0.0000 -2.6537 0.0000
# 4 0.0000 0.0000 0.0000 3.9457 0.0000 -22.8529
# 5 -12.3786 -15.5239 -2.6537 0.0000 25.3239 0.0000
# 6 0.0000 0.0000 0.0000 -22.8529 0.0000 14.1168
#
#
#
# Elastic Compliance Matrix: (Units=1/GPa)
#
#
# Indices 1 2 3 4 5 6 
#
# 1 0.016538 -0.011481 -0.000340 0.000000 0.001010 0.000000
# 2 -0.011481 0.024093 -0.000862 0.000000 0.009067 0.000000
# 3 -0.000340 -0.000862 0.014907 0.000000 0.000868 0.000000
# 4 0.000000 0.000000 0.000000 -0.030257 0.000000 -0.048982
# 5 0.001010 0.009067 0.000868 0.000000 0.045631 0.000000
# 6 0.000000 0.000000 0.000000 -0.048982 0.000000 -0.008457
#
#
# Mechanical properties :
#
#
# Convention : Reuss Voigt Hill
#
# Bulk Modulus (GPa) = 33.14320 40.26809 36.70565
# Shear Modulus (GPa) = 51.08428 20.22761 35.65595
#
# Velocity S-wave (km/s) = 4.91637 3.09367 4.10740
# Velocity P-wave (km/s) = 6.92167 5.64039 6.31362
#
# Compressibility (1/GPa) = 0.03017210
#
# Stress axis : x y z
#
# Youngs Moduli (GPa) = 60.46840 41.50565 67.08215
#
# Poissons Ratio (x) = 0.47653 0.02282
# Poissons Ratio (y) = 0.69424 0.05781
# Poissons Ratio (z) = 0.02057 0.03577
#
# Static dielectric constant tensor:
#      x y z
#    x 1.821600 0.000000 -0.048150 
#    y 0.000000 1.720940 0.000000 
#    z -0.048150 0.000000 1.817370 
# 
# From -- ./inp_files/5855.got.cif
#   From: 2010.05.17/outbox.cif.g08.bks.cpg/sg15_3_cif.got.tgz:5855.got - 2010.06.03 18:47:42.
