data_PCOD9283356
_publ_section_title
;
Structure prediction by ZEFSAII (Michael W. Deem and Ramdas Pophale) SiO2 
 PCOD9283356
Probable space group: C 2/C
;
_chemical_formula_sum "Si O2"
_cell_formula_units_Z 64
_cell_length_a 15.126237
_cell_length_b 13.836049
_cell_length_c 20.021553
_cell_angle_alpha 90.000000
_cell_angle_beta 120.153040
_cell_angle_gamma 90.000000
_cell_volume 3623.260650
_symmetry_space_group_name_H-M "C 2/C"
_symmetry_group_IT_number 15
_symmetry_cell_setting 'monoclinic'
loop_
_space_group_symop_operation_xyz
x,y,z
-x,y,1/2-z
-x,-y,-z
x,-y,1/2+z
1/2+x,1/2+y,z
1/2-x,1/2+y,1/2-z
1/2-x,1/2-y,-z
1/2+x,1/2-y,1/2+z
loop_
_atom_site_type_symbol
_atom_site_label
_atom_site_fract_x
_atom_site_fract_y
_atom_site_fract_z
Si Si1 0.657693 0.761235 0.667327
Si Si2 0.997080 0.880135 0.171297
Si Si3 0.006264 0.945513 0.931541
Si Si4 0.343808 0.728454 0.987557
Si Si5 0.023462 0.583964 0.416994
Si Si6 0.177698 0.204284 0.162216
Si Si7 0.469412 0.874974 0.426634
Si Si8 0.321670 0.218834 0.088484
O O1 0.599466 0.674874 0.684621
O O2 0.682554 0.728897 0.601251
O O3 0.573891 0.846742 0.630831
O O4 0.755216 0.797346 0.745470
O O5 0.000000 0.906080 0.250000
O O6 0.905239 0.803371 0.128379
O O7 0.980370 0.973425 0.119463
O O8 0.905017 0.881234 0.878449
O O9 0.100114 0.870987 0.971928
O O10 0.000000 0.000000 0.000000
O O11 0.250000 0.750000 0.000000
O O12 0.427684 0.812385 0.029620
O O13 0.990755 0.473634 0.395889
O O14 0.058395 0.597717 0.507401
O O15 0.114477 0.623021 0.405728
O O16 0.116047 0.305179 0.135616
O O17 0.254770 0.203737 0.128816
O O18 0.250000 0.250000 0.000000
#
# Coordination Sequence:
#
# PCOD9283356 Si02
#       8
#     8   8   8   8   8   8   8   8
#     4  10  21  40  60  89 125 153 195 260 310 352
#     4  11  22  39  63  91 125 158 201 260 311 357
#     4  11  23  41  61  89 128 165 205 251 309 367
#     4  10  22  41  64  84 119 167 200 243 304 368
#     4   9  19  35  59  83 118 151 196 246 292 355
#     4  11  22  37  61  88 122 157 198 253 306 352
#     4   9  19  38  57  85 115 153 195 245 294 347
#     4  11  20  35  61  90 114 158 206 241 295 368
#
# _framework density 17.663647999999998
#
# number of rings (size 3 to 8) (size 9 to 14) (size 15 to 20)
#    0.000    1.750    3.750    0.750    0.000    4.000 
#    2.250    1.875    2.750    0.000    0.000    0.000 
#    0.000    0.000    0.000    0.000    0.000    0.000 
#
# Total GULP energy -178643.428764 kJ/mol
# GULP energy per Si atom -5582.607149 kJ/mol
# Density = 1.762344 g / cm^3
# Si number density = 17.663648 Si / 1000 Ang^3
#
#
#
# Elastic Constant Matrix: (Units=GPa)
#
#
# Indices 1 2 3 4 5 6 
#
# 1 115.5390 43.9331 48.9891 0.0000 -16.6354 0.0000
# 2 43.9331 119.7779 40.7814 0.0000 -16.1916 0.0000
# 3 48.9891 40.7814 126.2931 0.0000 -8.2968 0.0000
# 4 0.0000 0.0000 0.0000 21.9080 0.0000 -5.6400
# 5 -16.6354 -16.1916 -8.2968 0.0000 27.8864 0.0000
# 6 0.0000 0.0000 0.0000 -5.6400 0.0000 16.4198
#
#
#
# Elastic Compliance Matrix: (Units=1/GPa)
#
#
# Indices 1 2 3 4 5 6 
#
# 1 0.011719 -0.002519 -0.003436 0.000000 0.004506 0.000000
# 2 -0.002519 0.010548 -0.002168 0.000000 0.003977 0.000000
# 3 -0.003436 -0.002168 0.009928 0.000000 -0.000355 0.000000
# 4 0.000000 0.000000 0.000000 0.050073 0.000000 0.017200
# 5 0.004506 0.003977 -0.000355 0.000000 0.040751 0.000000
# 6 0.000000 0.000000 0.000000 0.017200 0.000000 0.066810
#
#
# Mechanical properties :
#
#
# Convention : Reuss Voigt Hill
#
# Bulk Modulus (GPa) = 62.70197 69.89080 66.29639
# Shear Modulus (GPa) = 23.65276 28.43659 26.04468
#
# Velocity S-wave (km/s) = 3.66329 4.01670 3.84406
# Velocity P-wave (km/s) = 7.31217 7.82083 7.57077
#
# Compressibility (1/GPa) = 0.01594846
#
# Stress axis : x y z
#
# Youngs Moduli (GPa) = 85.33365 94.80029 100.72861
#
# Poissons Ratio (x) = 0.23883 0.34612
# Poissons Ratio (y) = 0.21498 0.21835
# Poissons Ratio (z) = 0.29322 0.20550
#
# Static dielectric constant tensor:
#      x y z
#    x 1.582560 0.000000 0.006300 
#    y 0.000000 1.595140 0.000000 
#    z 0.006300 0.000000 1.588060 
# 
# From -- ./inp_files/205438.got.cif
#   From: 2010.05.17/outbox.cif.g08.bks.cpg/sg15_103_cif.got.tgz:205438.got - 2010.06.03 18:47:42.
