data_PCOD9283330
_publ_section_title
;
Structure prediction by ZEFSAII (Michael W. Deem and Ramdas Pophale) SiO2 
 PCOD9283330
Probable space group: C 2/C
;
_chemical_formula_sum "Si O2"
_cell_formula_units_Z 56
_cell_length_a 30.562082
_cell_length_b 11.638044
_cell_length_c 9.384916
_cell_angle_alpha 90.000000
_cell_angle_beta 138.313766
_cell_angle_gamma 90.000000
_cell_volume 2219.975785
_symmetry_space_group_name_H-M "C 2/C"
_symmetry_group_IT_number 15
_symmetry_cell_setting 'monoclinic'
loop_
_space_group_symop_operation_xyz
x,y,z
-x,y,1/2-z
-x,-y,-z
x,-y,1/2+z
1/2+x,1/2+y,z
1/2-x,1/2+y,1/2-z
1/2-x,1/2-y,-z
1/2+x,1/2-y,1/2+z
loop_
_atom_site_type_symbol
_atom_site_label
_atom_site_fract_x
_atom_site_fract_y
_atom_site_fract_z
Si Si1 0.581948 0.475298 0.271379
Si Si2 0.206880 0.397406 0.414055
Si Si3 0.173223 0.949532 0.237381
Si Si4 0.860263 0.495670 0.483960
Si Si5 0.960831 0.230442 0.359424
Si Si6 0.500000 0.293568 0.250000
Si Si7 0.683439 0.227672 0.118449
Si Si8 0.000000 0.407676 0.250000
O O1 0.610639 0.438964 0.188975
O O2 0.645541 0.506865 0.519873
O O3 0.537233 0.591321 0.151698
O O4 0.548843 0.374076 0.279283
O O5 0.276414 0.460059 0.577259
O O6 0.170562 0.388651 0.174289
O O7 0.158499 0.479504 0.397247
O O8 0.215860 0.288875 0.542380
O O9 0.204614 0.827682 0.273375
O O10 0.818321 0.602864 0.315325
O O11 0.937046 0.516071 0.639239
O O12 0.960820 0.264382 0.525483
O O13 0.012016 0.316088 0.408110
O O14 0.892686 0.254247 0.113015
#
# Coordination Sequence:
#
# PCOD9283330 Si02
#       8
#     8   8   8   8   8   4   8   4
#     4  11  23  38  62  97 128 170 208 260 321 381
#     4  10  21  44  64  95 122 171 220 258 310 384
#     4  11  22  42  66  91 134 171 210 259 322 380
#     4   9  21  41  65  93 123 165 216 261 321 371
#     4  10  21  40  59  91 129 167 210 254 325 372
#     4  12  23  34  57  98 126 164 212 263 303 394
#     4   8  22  42  63  92 128 170 206 265 331 365
#     4  10  21  42  67  86 128 180 204 265 327 372
#
# _framework density 25.225501999999999
#
# number of rings (size 3 to 8) (size 9 to 14) (size 15 to 20)
#    0.857    1.143    1.429    1.714    6.000    1.143 
#    2.571    6.429    0.000    0.000    0.000    0.000 
#    0.000    0.000    0.000    0.000    0.000    0.000 
#
# Total GULP energy -156222.995190 kJ/mol
# GULP energy per Si atom -5579.392685 kJ/mol
# Density = 2.516809 g / cm^3
# Si number density = 25.225502 Si / 1000 Ang^3
#
#
#
# Elastic Constant Matrix: (Units=GPa)
#
#
# Indices 1 2 3 4 5 6 
#
# 1 123.4335 9.5933 -6.0420 0.0000 -16.6526 0.0000
# 2 9.5933 43.6154 -4.9376 0.0000 -5.2750 0.0000
# 3 -6.0420 -4.9376 62.6531 0.0000 -20.3956 0.0000
# 4 0.0000 0.0000 0.0000 24.8133 0.0000 -3.7525
# 5 -16.6526 -5.2750 -20.3956 0.0000 39.7359 0.0000
# 6 0.0000 0.0000 0.0000 -3.7525 0.0000 33.3372
#
#
#
# Elastic Compliance Matrix: (Units=1/GPa)
#
#
# Indices 1 2 3 4 5 6 
#
# 1 0.008951 -0.001123 0.002338 0.000000 0.004802 0.000000
# 2 -0.001123 0.024067 0.003212 0.000000 0.004373 0.000000
# 3 0.002338 0.003212 0.020287 0.000000 0.011819 0.000000
# 4 0.000000 0.000000 0.000000 0.040999 0.000000 0.004615
# 5 0.004802 0.004373 0.011819 0.000000 0.033826 0.000000
# 6 0.000000 0.000000 0.000000 0.004615 0.000000 0.030516
#
#
# Mechanical properties :
#
#
# Convention : Reuss Voigt Hill
#
# Bulk Modulus (GPa) = 16.08802 25.21439 20.65120
# Shear Modulus (GPa) = 29.32340 34.98318 32.15329
#
# Velocity S-wave (km/s) = 3.41317 3.72804 3.57408
# Velocity P-wave (km/s) = 4.68236 5.34306 5.02359
#
# Compressibility (1/GPa) = 0.06215807
#
# Stress axis : x y z
#
# Youngs Moduli (GPa) = 111.71772 41.55026 49.29279
#
# Poissons Ratio (x) = 0.04668 -0.11524
# Poissons Ratio (y) = 0.12550 -0.15832
# Poissons Ratio (z) = -0.26119 -0.13345
#
# Static dielectric constant tensor:
#      x y z
#    x 2.050540 0.000000 -0.034430 
#    y 0.000000 2.211550 0.000000 
#    z -0.034430 0.000000 2.048770 
# 
# From -- ./inp_files/66305.got.cif
#   From: 2010.05.17/outbox.cif.g08.bks.cpg/sg15_34_cif.got.tgz:66305.got - 2010.06.03 18:47:42.
