data_PCOD9283580
_publ_section_title
;
Structure prediction by ZEFSAII (Michael W. Deem and Ramdas Pophale) SiO2 
 PCOD9283580
Probable space group: C 2/C
;
_chemical_formula_sum "Si O2"
_cell_formula_units_Z 48
_cell_length_a 13.816223
_cell_length_b 11.314722
_cell_length_c 13.420827
_cell_angle_alpha 90.000000
_cell_angle_beta 80.780848
_cell_angle_gamma 90.000000
_cell_volume 2070.933104
_symmetry_space_group_name_H-M "C 2/C"
_symmetry_group_IT_number 15
_symmetry_cell_setting 'monoclinic'
loop_
_space_group_symop_operation_xyz
x,y,z
-x,y,1/2-z
-x,-y,-z
x,-y,1/2+z
1/2+x,1/2+y,z
1/2-x,1/2+y,1/2-z
1/2-x,1/2-y,-z
1/2+x,1/2-y,1/2+z
loop_
_atom_site_type_symbol
_atom_site_label
_atom_site_fract_x
_atom_site_fract_y
_atom_site_fract_z
Si Si1 0.346730 0.439371 0.814692
Si Si2 0.790218 0.023384 0.109017
Si Si3 0.122322 0.546103 0.412448
Si Si4 0.595531 0.348252 0.068783
Si Si5 0.394842 0.695220 0.491196
Si Si6 0.417841 0.086173 0.384224
O O1 0.350985 0.437700 0.695709
O O2 0.231782 0.465812 0.854904
O O3 0.408286 0.546337 0.851510
O O4 0.377602 0.327507 0.876869
O O5 0.674409 0.021265 0.148842
O O6 0.824135 0.896970 0.060743
O O7 0.814456 0.117849 0.018238
O O8 0.120868 0.671296 0.471610
O O9 0.097270 0.443674 0.495212
O O10 0.031770 0.553844 0.350002
O O11 0.501731 0.342499 0.012267
O O12 0.598975 0.225189 0.125769
#
# Coordination Sequence:
#
# PCOD9283580 Si02
#       6
#     8   8   8   8   8   8
#     4  11  22  36  62  91 118 154 201 246 293 350
#     4  11  22  36  62  91 118 154 201 246 293 350
#     4  10  21  40  63  84 117 158 196 244 299 352
#     4  10  22  41  61  86 122 158 196 244 298 350
#     4  10  22  41  61  86 122 158 196 244 298 350
#     4  10  21  40  63  84 117 158 196 244 299 352
#
# _framework density 23.177956999999999
#
# number of rings (size 3 to 8) (size 9 to 14) (size 15 to 20)
#    0.000    1.667    3.333    3.000    0.000    4.667 
#    0.000    3.333    0.000    6.000    0.000    0.000 
#    0.000    0.000    0.000    0.000    0.000    0.000 
#
# Total GULP energy -134132.212391 kJ/mol
# GULP energy per Si atom -5588.842183 kJ/mol
# Density = 2.312520 g / cm^3
# Si number density = 23.177957 Si / 1000 Ang^3
#
#
#
# Elastic Constant Matrix: (Units=GPa)
#
#
# Indices 1 2 3 4 5 6 
#
# 1 119.6066 9.2124 13.4004 0.0000 0.0220 0.0000
# 2 9.2124 62.3141 1.2850 0.0000 -5.0504 0.0000
# 3 13.4004 1.2850 60.4570 0.0000 23.1067 0.0000
# 4 0.0000 0.0000 0.0000 -1.1435 0.0000 2.4520
# 5 0.0220 -5.0504 23.1067 0.0000 49.8447 0.0000
# 6 0.0000 0.0000 0.0000 2.4520 0.0000 31.4596
#
#
#
# Elastic Compliance Matrix: (Units=1/GPa)
#
#
# Indices 1 2 3 4 5 6 
#
# 1 0.008703 -0.001165 -0.002258 0.000000 0.000925 0.000000
# 2 -0.001165 0.016406 -0.000882 0.000000 0.002072 0.000000
# 3 -0.002258 -0.000882 0.020774 0.000000 -0.009719 0.000000
# 4 0.000000 0.000000 0.000000 -0.749296 0.000000 0.058401
# 5 0.000925 0.002072 -0.009719 0.000000 0.024777 0.000000
# 6 0.000000 0.000000 0.000000 0.058401 0.000000 0.027235
#
#
# Mechanical properties :
#
#
# Convention : Reuss Voigt Hill
#
# Bulk Modulus (GPa) = 26.82884 32.24147 29.53516
# Shear Modulus (GPa) = -7.93191 30.59748 11.33278
#
# Velocity S-wave (km/s) = -1.85192 3.63728 2.21361
# Velocity P-wave (km/s) = 2.65094 5.61963 4.39362
#
# Compressibility (1/GPa) = 0.03727333
#
# Stress axis : x y z
#
# Youngs Moduli (GPa) = 114.89929 60.95289 48.13601
#
# Poissons Ratio (x) = 0.07102 0.10868
# Poissons Ratio (y) = 0.13388 0.04247
# Poissons Ratio (z) = 0.25942 0.05378
#
# Static dielectric constant tensor:
#      x y z
#    x 1.908030 0.000000 -0.010130 
#    y 0.000000 1.834100 0.000000 
#    z -0.010130 0.000000 1.902020 
# 
# From -- ./inp_files/151824.got.cif
#   From: 2010.05.17/outbox.cif.g08.bks.cpg/sg15_76_cif.got.tgz:151824.got - 2010.06.03 18:47:42.
