data_PCOD9283589
_publ_section_title
;
Structure prediction by ZEFSAII (Michael W. Deem and Ramdas Pophale) SiO2 
 PCOD9283589
Probable space group: C 2/C
;
_chemical_formula_sum "Si O2"
_cell_formula_units_Z 40
_cell_length_a 26.360129
_cell_length_b 4.799284
_cell_length_c 23.623286
_cell_angle_alpha 90.000000
_cell_angle_beta 32.711079
_cell_angle_gamma 90.000000
_cell_volume 1615.035467
_symmetry_space_group_name_H-M "C 2/C"
_symmetry_group_IT_number 15
_symmetry_cell_setting 'monoclinic'
loop_
_space_group_symop_operation_xyz
x,y,z
-x,y,1/2-z
-x,-y,-z
x,-y,1/2+z
1/2+x,1/2+y,z
1/2-x,1/2+y,1/2-z
1/2-x,1/2-y,-z
1/2+x,1/2-y,1/2+z
loop_
_atom_site_type_symbol
_atom_site_label
_atom_site_fract_x
_atom_site_fract_y
_atom_site_fract_z
Si Si1 0.838748 0.533871 0.362235
Si Si2 0.046494 0.727329 0.839464
Si Si3 0.814646 0.185356 0.197978
Si Si4 0.284231 0.962651 0.539681
Si Si5 0.069886 0.235453 0.517859
O O1 0.925850 0.418079 0.245326
O O2 0.810404 0.852552 0.378622
O O3 0.840277 0.486284 0.427799
O O4 0.749872 0.352921 0.422913
O O5 0.137461 0.847330 0.786258
O O6 0.009135 0.473055 0.913224
O O7 0.971629 0.975812 0.908031
O O8 0.775386 0.494268 0.227040
O O9 0.891209 0.125726 0.077929
O O10 0.346955 0.098192 0.528834
#
# Coordination Sequence:
#
# PCOD9283589 Si02
#       5
#     8   8   8   8   8
#     4  10  21  40  63  87 119 163 211 253 301 369
#     4  12  24  40  62  94 130 162 205 264 323 372
#     4  12  24  42  66  90 124 170 216 254 308 384
#     4  10  21  40  63  87 119 163 211 253 301 369
#     4  12  24  40  62  94 130 162 205 264 323 372
#
# _framework density 24.767258000000002
#
# number of rings (size 3 to 8) (size 9 to 14) (size 15 to 20)
#    0.000    0.800    0.000    8.400    0.000    0.800 
#    0.000    2.000    0.000    0.000    0.000    0.000 
#    0.000    0.000    0.000    0.000    0.000    0.000 
#
# Total GULP energy -112074.508988 kJ/mol
# GULP energy per Si atom -5603.725449 kJ/mol
# Density = 2.471089 g / cm^3
# Si number density = 24.767258 Si / 1000 Ang^3
#
#
#
# Elastic Constant Matrix: (Units=GPa)
#
#
# Indices 1 2 3 4 5 6 
#
# 1 35.2538 -6.1829 15.8402 0.0509 11.7519 0.0686
# 2 -6.1829 84.6308 8.1697 -0.0075 0.6570 0.1905
# 3 15.8402 8.1697 85.0520 0.0759 23.0171 -0.0526
# 4 0.0509 -0.0075 0.0759 55.6742 -0.0118 -8.1594
# 5 11.7519 0.6570 23.0171 -0.0118 38.6216 0.0179
# 6 0.0686 0.1905 -0.0526 -8.1594 0.0179 28.6670
#
#
#
# Elastic Compliance Matrix: (Units=1/GPa)
#
#
# Indices 1 2 3 4 5 6 
#
# 1 0.033402 0.002929 -0.004457 -0.000043 -0.007557 -0.000115
# 2 0.002929 0.012194 -0.001693 -0.000013 -0.000090 -0.000095
# 3 -0.004457 -0.001693 0.014755 -0.000010 -0.007409 0.000051
# 4 -0.000043 -0.000013 -0.000010 0.018744 0.000023 0.005335
# 5 -0.007557 -0.000090 -0.007409 0.000023 0.032609 -0.000009
# 6 -0.000115 -0.000095 0.000051 0.005335 -0.000009 0.036403
#
#
# Mechanical properties :
#
#
# Convention : Reuss Voigt Hill
#
# Bulk Modulus (GPa) = 18.54924 26.73231 22.64078
# Shear Modulus (GPa) = 28.98270 37.06652 33.02461
#
# Velocity S-wave (km/s) = 3.42453 3.87278 3.65553
# Velocity P-wave (km/s) = 4.81064 5.55110 5.19408
#
# Compressibility (1/GPa) = 0.05391055
#
# Stress axis : x y z
#
# Youngs Moduli (GPa) = 29.93876 82.00526 67.77284
#
# Poissons Ratio (x) = -0.24023 0.30207
# Poissons Ratio (y) = -0.08770 0.11471
# Poissons Ratio (z) = 0.13344 0.13880
#
# Static dielectric constant tensor:
#      x y z
#    x 1.901670 0.000020 -0.026860 
#    y 0.000020 1.885070 -0.000030 
#    z -0.026860 -0.000030 1.983990 
# 
# From -- ./inp_files/283085.got.cif
#   From: 2010.05.17/outbox.cif.g08.bks.cpg/sg15_142_cif.got.tgz:283085.got - 2010.06.03 18:47:42.
