data_PCOD9283918
_publ_section_title
;
Structure prediction by ZEFSAII (Michael W. Deem and Ramdas Pophale) SiO2 
 PCOD9283918
Probable space group: C 2/C
;
_chemical_formula_sum "Si O2"
_cell_formula_units_Z 48
_cell_length_a 11.230309
_cell_length_b 8.382403
_cell_length_c 27.696724
_cell_angle_alpha 90.000000
_cell_angle_beta 63.368165
_cell_angle_gamma 90.000000
_cell_volume 2330.666662
_symmetry_space_group_name_H-M "C 2/C"
_symmetry_group_IT_number 15
_symmetry_cell_setting 'monoclinic'
loop_
_space_group_symop_operation_xyz
x,y,z
-x,y,1/2-z
-x,-y,-z
x,-y,1/2+z
1/2+x,1/2+y,z
1/2-x,1/2+y,1/2-z
1/2-x,1/2-y,-z
1/2+x,1/2-y,1/2+z
loop_
_atom_site_type_symbol
_atom_site_label
_atom_site_fract_x
_atom_site_fract_y
_atom_site_fract_z
Si Si1 0.998203 0.703143 0.664650
Si Si2 0.030503 0.328588 0.519951
Si Si3 0.500000 0.043342 0.250000
Si Si4 0.000000 0.950036 0.750000
Si Si5 0.763239 0.816402 0.943615
Si Si6 0.796821 0.208177 0.814468
Si Si7 0.206586 0.201933 0.573257
O O1 0.990936 0.849406 0.703157
O O2 0.860132 0.695235 0.661594
O O3 0.010989 0.557224 0.699192
O O4 0.119586 0.729696 0.606436
O O5 0.110391 0.304189 0.555692
O O6 0.139107 0.247422 0.464530
O O7 0.000000 0.500000 0.500000
O O8 0.879443 0.272274 0.554245
O O9 0.633257 0.148778 0.226828
O O10 0.868617 0.054867 0.779613
O O11 0.792600 0.009126 0.938193
O O12 0.750000 0.750000 0.000000
O O13 0.831953 0.222051 0.864467
#
# Coordination Sequence:
#
# PCOD9283918 Si02
#       7
#     8   8   4   4   8   8   8
#     4  11  23  43  65  96 134 169 215 272 334 388
#     4   9  21  40  62  92 131 169 216 268 329 392
#     4  10  26  40  62 102 124 174 222 270 326 396
#     4  10  22  44  64  92 130 172 218 268 332 384
#     4  11  23  39  63  98 132 172 216 273 334 396
#     4  11  22  42  67  93 127 170 225 270 326 391
#     4  10  21  40  65  93 126 180 218 268 334 394
#
# _framework density 20.594964999999998
#
# number of rings (size 3 to 8) (size 9 to 14) (size 15 to 20)
#    0.000    1.667    1.667    2.000    0.000    8.667 
#   12.000    0.000    0.000    0.000    0.000    0.000 
#    0.000    0.000    0.000    0.000    0.000    0.000 
#
# Total GULP energy -133878.230776 kJ/mol
# GULP energy per Si atom -5578.259616 kJ/mol
# Density = 2.054809 g / cm^3
# Si number density = 20.594965 Si / 1000 Ang^3
#
#
#
# Elastic Constant Matrix: (Units=GPa)
#
#
# Indices 1 2 3 4 5 6 
#
# 1 139.8986 31.9797 44.3321 0.0000 -22.6940 0.0000
# 2 31.9797 62.9455 31.7879 0.0000 4.9730 0.0000
# 3 44.3321 31.7879 150.4515 0.0000 -8.3403 0.0000
# 4 0.0000 0.0000 0.0000 58.9073 0.0000 -28.0483
# 5 -22.6940 4.9730 -8.3403 0.0000 39.5654 0.0000
# 6 0.0000 0.0000 0.0000 -28.0483 0.0000 18.4014
#
#
#
# Elastic Compliance Matrix: (Units=1/GPa)
#
#
# Indices 1 2 3 4 5 6 
#
# 1 0.009616 -0.004557 -0.001551 0.000000 0.005761 0.000000
# 2 -0.004557 0.020319 -0.003275 0.000000 -0.005858 0.000000
# 3 -0.001551 -0.003275 0.007861 0.000000 0.001179 0.000000
# 4 0.000000 0.000000 0.000000 0.061901 0.000000 0.094353
# 5 0.005761 -0.005858 0.001179 0.000000 0.029564 0.000000
# 6 0.000000 0.000000 0.000000 0.094353 0.000000 0.198161
#
#
# Mechanical properties :
#
#
# Convention : Reuss Voigt Hill
#
# Bulk Modulus (GPa) = 52.55128 63.27722 57.91425
# Shear Modulus (GPa) = 14.18313 39.72122 26.95217
#
# Velocity S-wave (km/s) = 2.62710 4.39645 3.62149
# Velocity P-wave (km/s) = 5.89696 7.52083 6.75785
#
# Compressibility (1/GPa) = 0.01902903
#
# Stress axis : x y z
#
# Youngs Moduli (GPa) = 103.99425 49.21559 127.20979
#
# Poissons Ratio (x) = 0.22429 0.19733
# Poissons Ratio (y) = 0.47392 0.41660
# Poissons Ratio (z) = 0.16131 0.16118
#
# Static dielectric constant tensor:
#      x y z
#    x 1.733100 0.000000 0.003400 
#    y 0.000000 1.789140 0.000000 
#    z 0.003400 0.000000 1.706330 
# 
# From -- ./inp_files/291070.got.cif
#   From: 2010.05.17/outbox.cif.g08.bks.cpg/sg15_146_cif.got.tgz:291070.got - 2010.06.03 18:47:42.
