data_PCOD9283895
_publ_section_title
;
Structure prediction by ZEFSAII (Michael W. Deem and Ramdas Pophale) SiO2 
 PCOD9283895
Probable space group: C 2/C
;
_chemical_formula_sum "Si O2"
_cell_formula_units_Z 56
_cell_length_a 11.386227
_cell_length_b 15.671006
_cell_length_c 16.865079
_cell_angle_alpha 90.000000
_cell_angle_beta 66.737583
_cell_angle_gamma 90.000000
_cell_volume 2764.658398
_symmetry_space_group_name_H-M "C 2/C"
_symmetry_group_IT_number 15
_symmetry_cell_setting 'monoclinic'
loop_
_space_group_symop_operation_xyz
x,y,z
-x,y,1/2-z
-x,-y,-z
x,-y,1/2+z
1/2+x,1/2+y,z
1/2-x,1/2+y,1/2-z
1/2-x,1/2-y,-z
1/2+x,1/2-y,1/2+z
loop_
_atom_site_type_symbol
_atom_site_label
_atom_site_fract_x
_atom_site_fract_y
_atom_site_fract_z
Si Si1 0.887668 0.259960 0.922511
Si Si2 0.830230 0.995405 0.431498
Si Si3 0.192614 0.146060 0.695927
Si Si4 0.566359 0.391446 0.398964
Si Si5 0.974761 0.610117 0.665779
Si Si6 0.444198 0.953742 0.934910
Si Si7 0.762410 0.349036 0.482899
O O1 0.863018 0.226318 0.838730
O O2 0.951142 0.352294 0.919523
O O3 0.976101 0.189182 0.939477
O O4 0.750000 0.250000 0.000000
O O5 0.821096 0.936081 0.357133
O O6 0.710167 0.966771 0.518756
O O7 0.972152 0.973121 0.424383
O O8 0.794553 0.094381 0.430014
O O9 0.122444 0.125377 0.796497
O O10 0.343129 0.151427 0.672909
O O11 0.679650 0.385924 0.431516
O O12 0.982909 0.507288 0.652220
O O13 0.090552 0.637815 0.578554
O O14 0.000000 0.632115 0.750000
O O15 0.500000 0.000000 0.000000
O O16 0.750000 0.250000 0.500000
#
# Coordination Sequence:
#
# PCOD9283895 Si02
#       7
#     8   8   8   8   8   8   8
#     4  11  21  37  66  97 122 164 213 271 320 378
#     4  10  21  40  65  92 121 166 214 260 319 377
#     4  11  22  42  67  92 130 170 209 273 326 385
#     4  11  23  41  65  94 130 167 215 266 330 378
#     4  11  23  42  62  90 129 168 211 262 331 375
#     4  11  21  37  65  95 121 161 212 264 315 385
#     4  11  26  39  66  93 128 174 217 263 314 390
#
# _framework density 20.255666999999999
#
# number of rings (size 3 to 8) (size 9 to 14) (size 15 to 20)
#    0.000    1.143    5.714    2.143    6.000    1.143 
#    0.000    1.429    3.143    0.000    0.000    0.000 
#    0.000    0.000    0.000    0.000    0.000    0.000 
#
# Total GULP energy -156096.852977 kJ/mol
# GULP energy per Si atom -5574.887606 kJ/mol
# Density = 2.020956 g / cm^3
# Si number density = 20.255667 Si / 1000 Ang^3
#
#
#
# Elastic Constant Matrix: (Units=GPa)
#
#
# Indices 1 2 3 4 5 6 
#
# 1 123.3682 24.5441 33.5267 0.0000 -6.5968 0.0000
# 2 24.5441 138.7288 17.9309 0.0000 -3.4907 0.0000
# 3 33.5267 17.9309 67.4819 0.0000 -0.9849 0.0000
# 4 0.0000 0.0000 0.0000 12.8467 0.0000 -1.9633
# 5 -6.5968 -3.4907 -0.9849 0.0000 41.1373 0.0000
# 6 0.0000 0.0000 0.0000 -1.9633 0.0000 31.6397
#
#
#
# Elastic Compliance Matrix: (Units=1/GPa)
#
#
# Indices 1 2 3 4 5 6 
#
# 1 0.009607 -0.001089 -0.004464 0.000000 0.001341 0.000000
# 2 -0.001089 0.007602 -0.001473 0.000000 0.000435 0.000000
# 3 -0.004464 -0.001473 0.017422 0.000000 -0.000424 0.000000
# 4 0.000000 0.000000 0.000000 0.078586 0.000000 0.004876
# 5 0.001341 0.000435 -0.000424 0.000000 0.024551 0.000000
# 6 0.000000 0.000000 0.000000 0.004876 0.000000 0.031908
#
#
# Mechanical properties :
#
#
# Convention : Reuss Voigt Hill
#
# Bulk Modulus (GPa) = 48.59147 53.50915 51.05031
# Shear Modulus (GPa) = 26.23453 34.02990 30.13221
#
# Velocity S-wave (km/s) = 3.60275 4.10325 3.86112
# Velocity P-wave (km/s) = 6.43021 6.99451 6.71828
#
# Compressibility (1/GPa) = 0.02057974
#
# Stress axis : x y z
#
# Youngs Moduli (GPa) = 104.08630 131.53976 57.39915
#
# Poissons Ratio (x) = 0.14325 0.25625
# Poissons Ratio (y) = 0.11335 0.08453
# Poissons Ratio (z) = 0.46467 0.19371
#
# Static dielectric constant tensor:
#      x y z
#    x 1.790330 0.000000 0.032080 
#    y 0.000000 1.784910 0.000000 
#    z 0.032080 0.000000 1.741370 
# 
# From -- ./inp_files/198206.got.cif
#   From: 2010.05.17/outbox.cif.g08.bks.cpg/sg15_100_cif.got.tgz:198206.got - 2010.06.03 18:47:42.
