data_PCOD9283552
_publ_section_title
;
Structure prediction by ZEFSAII (Michael W. Deem and Ramdas Pophale) SiO2 
 PCOD9283552
Probable space group: C 2/C
;
_chemical_formula_sum "Si O2"
_cell_formula_units_Z 52
_cell_length_a 8.701287
_cell_length_b 21.777846
_cell_length_c 19.334268
_cell_angle_alpha 90.000000
_cell_angle_beta 142.171877
_cell_angle_gamma 90.000000
_cell_volume 2246.960541
_symmetry_space_group_name_H-M "C 2/C"
_symmetry_group_IT_number 15
_symmetry_cell_setting 'monoclinic'
loop_
_space_group_symop_operation_xyz
x,y,z
-x,y,1/2-z
-x,-y,-z
x,-y,1/2+z
1/2+x,1/2+y,z
1/2-x,1/2+y,1/2-z
1/2-x,1/2-y,-z
1/2+x,1/2-y,1/2+z
loop_
_atom_site_type_symbol
_atom_site_label
_atom_site_fract_x
_atom_site_fract_y
_atom_site_fract_z
Si Si1 0.908706 0.307016 0.796909
Si Si2 0.000000 0.089027 0.750000
Si Si3 0.626682 0.628842 0.984138
Si Si4 0.898516 0.083098 0.378123
Si Si5 0.360997 0.865138 0.286581
Si Si6 0.246620 0.989648 0.449443
Si Si7 0.500000 0.238588 0.750000
Si Si8 0.500000 0.977646 0.250000
O O1 0.770253 0.370590 0.726165
O O2 0.715476 0.276344 0.784630
O O3 0.000000 0.282821 0.750000
O O4 0.159744 0.320551 0.929544
O O5 0.754468 0.129513 0.678323
O O6 0.951970 0.042551 0.671378
O O7 0.530398 0.616635 0.026581
O O8 0.399048 0.643788 0.851295
O O9 0.760219 0.563976 0.011305
O O10 0.737012 0.021922 0.336525
O O11 0.144519 0.056034 0.432002
O O12 0.544661 0.810870 0.328790
O O13 0.473788 0.930396 0.304066
O O14 0.500000 0.000000 0.500000
#
# Coordination Sequence:
#
# PCOD9283552 Si02
#       8
#     8   4   8   8   8   8   4   4
#     4  10  24  43  68  94 129 172 213 269 333 383
#     4  10  22  41  55  95 131 162 220 262 322 378
#     4  10  21  40  62  94 125 165 217 262 324 390
#     4  11  21  38  63  94 135 169 201 263 335 395
#     4  10  24  40  67  90 124 178 218 266 318 379
#     4  11  25  33  61  96 134 174 202 263 318 400
#     4  11  26  45  70  88 123 177 226 270 322 383
#     4  11  18  38  61  93 124 167 202 240 336 381
#
# _framework density 23.142374
#
# number of rings (size 3 to 8) (size 9 to 14) (size 15 to 20)
#    0.000    1.538    5.385    0.462    7.538    1.846 
#    0.000    3.077    0.000    0.000    0.000    0.000 
#    0.000    0.000    0.000    0.000    0.000    0.000 
#
# Total GULP energy -144786.433395 kJ/mol
# GULP energy per Si atom -5568.708977 kJ/mol
# Density = 2.308970 g / cm^3
# Si number density = 23.142374 Si / 1000 Ang^3
#
#
#
# Elastic Constant Matrix: (Units=GPa)
#
#
# Indices 1 2 3 4 5 6 
#
# 1 150.7106 54.1378 3.8542 0.0001 27.4630 0.0002
# 2 54.1378 96.7374 18.2596 0.0001 10.7018 0.0001
# 3 3.8542 18.2596 70.4349 0.0005 7.3827 0.0007
# 4 0.0001 0.0001 0.0005 8.7637 0.0004 14.4706
# 5 27.4630 10.7018 7.3827 0.0004 34.1454 0.0003
# 6 0.0002 0.0001 0.0007 14.4706 0.0003 46.0706
#
#
#
# Elastic Compliance Matrix: (Units=1/GPa)
#
#
# Indices 1 2 3 4 5 6 
#
# 1 0.009528 -0.004888 0.001421 0.000000 -0.006438 0.000000
# 2 -0.004888 0.013657 -0.003312 0.000000 0.000367 0.000000
# 3 0.001421 -0.003312 0.015337 -0.000001 -0.003421 0.000000
# 4 0.000000 0.000000 -0.000001 0.237048 -0.000002 -0.074456
# 5 -0.006438 0.000367 -0.003421 -0.000002 0.035090 0.000001
# 6 0.000000 0.000000 0.000000 -0.074456 0.000001 0.045092
#
#
# Mechanical properties :
#
#
# Convention : Reuss Voigt Hill
#
# Bulk Modulus (GPa) = 40.05736 52.26515 46.16125
# Shear Modulus (GPa) = 13.24042 33.90468 23.57255
#
# Velocity S-wave (km/s) = 2.39452 3.83175 3.19500
# Velocity P-wave (km/s) = 4.99916 6.49689 5.79660
#
# Compressibility (1/GPa) = 0.02496420
#
# Stress axis : x y z
#
# Youngs Moduli (GPa) = 104.95326 73.22085 65.20266
#
# Poissons Ratio (x) = 0.35791 -0.09263
# Poissons Ratio (y) = 0.51303 0.21592
# Poissons Ratio (z) = -0.14911 0.24247
#
# Static dielectric constant tensor:
#      x y z
#    x 2.043450 0.000000 -0.039110 
#    y 0.000000 1.930440 0.000000 
#    z -0.039110 0.000000 1.786160 
# 
# From -- ./inp_files/234512.got.cif
#   From: 2010.05.17/outbox.cif.g08.bks.cpg/sg15_118_cif.got.tgz:234512.got - 2010.06.03 18:47:42.
