data_PCOD9283633
_publ_section_title
;
Structure prediction by ZEFSAII (Michael W. Deem and Ramdas Pophale) SiO2 
 PCOD9283633
Probable space group: C 2/C
;
_chemical_formula_sum "Si O2"
_cell_formula_units_Z 44
_cell_length_a 5.420915
_cell_length_b 23.667299
_cell_length_c 15.975843
_cell_angle_alpha 90.000000
_cell_angle_beta 76.385906
_cell_angle_gamma 90.000000
_cell_volume 1992.085890
_symmetry_space_group_name_H-M "C 2/C"
_symmetry_group_IT_number 15
_symmetry_cell_setting 'monoclinic'
loop_
_space_group_symop_operation_xyz
x,y,z
-x,y,1/2-z
-x,-y,-z
x,-y,1/2+z
1/2+x,1/2+y,z
1/2-x,1/2+y,1/2-z
1/2-x,1/2-y,-z
1/2+x,1/2-y,1/2+z
loop_
_atom_site_type_symbol
_atom_site_label
_atom_site_fract_x
_atom_site_fract_y
_atom_site_fract_z
Si Si1 0.000000 0.807457 0.750000
Si Si2 0.850254 0.126697 0.932367
Si Si3 0.518254 0.385452 0.607891
Si Si4 0.936531 0.701130 0.019498
Si Si5 0.791465 0.002863 0.941812
Si Si6 0.922690 0.226645 0.659987
O O1 0.121510 0.851291 0.807060
O O2 0.170306 0.763754 0.685356
O O3 0.080191 0.164081 0.878437
O O4 0.819864 0.064492 0.898004
O O5 0.872872 0.117452 0.030803
O O6 0.615661 0.169311 0.939349
O O7 0.771825 0.349948 0.569301
O O8 0.619652 0.448520 0.618621
O O9 0.082462 0.733130 0.083695
O O10 0.750000 0.750000 0.000000
O O11 0.500000 0.000000 0.000000
O O12 0.000000 0.000000 0.000000
O O13 0.000000 0.222716 0.750000
#
# Coordination Sequence:
#
# PCOD9283633 Si02
#       6
#     4   8   8   8   8   8
#     4  10  24  40  60  88 136 160 214 258 328 382
#     4  11  22  38  65  90 125 161 218 266 324 385
#     4  10  21  40  63  91 122 171 214 263 321 387
#     4  11  21  35  63  88 120 163 213 258 322 388
#     4  10  21  41  68  96 122 163 222 273 319 388
#     4  11  24  36  56  92 125 166 201 263 322 384
#
# _framework density 22.087401
#
# number of rings (size 3 to 8) (size 9 to 14) (size 15 to 20)
#    0.000    1.455    3.636    1.636    5.091    0.000 
#    1.636    0.000    0.000    0.000    0.000    0.000 
#    0.000    0.000    0.000    0.000    0.000    0.000 
#
# Total GULP energy -122483.058858 kJ/mol
# GULP energy per Si atom -5567.411766 kJ/mol
# Density = 2.203713 g / cm^3
# Si number density = 22.087401 Si / 1000 Ang^3
#
#
#
# Elastic Constant Matrix: (Units=GPa)
#
#
# Indices 1 2 3 4 5 6 
#
# 1 64.7739 37.8720 5.9887 0.0000 -2.0976 0.0000
# 2 37.8720 235.5930 35.8266 0.0000 -12.4808 0.0000
# 3 5.9887 35.8266 68.7706 0.0000 4.9628 0.0000
# 4 0.0000 0.0000 0.0000 23.2626 0.0000 -1.0728
# 5 -2.0976 -12.4808 4.9628 0.0000 29.2636 0.0000
# 6 0.0000 0.0000 0.0000 -1.0728 0.0000 29.6452
#
#
#
# Elastic Compliance Matrix: (Units=1/GPa)
#
#
# Indices 1 2 3 4 5 6 
#
# 1 0.017040 -0.002725 -0.000069 0.000000 0.000071 0.000000
# 2 -0.002725 0.005219 -0.002661 0.000000 0.002482 0.000000
# 3 -0.000069 -0.002661 0.016214 0.000000 -0.003889 0.000000
# 4 0.000000 0.000000 0.000000 0.043059 0.000000 0.001558
# 5 0.000071 0.002482 -0.003889 0.000000 0.035895 0.000000
# 6 0.000000 0.000000 0.000000 0.001558 0.000000 0.033789
#
#
# Mechanical properties :
#
#
# Convention : Reuss Voigt Hill
#
# Bulk Modulus (GPa) = 36.28052 58.72357 47.50205
# Shear Modulus (GPa) = 29.18628 35.73097 32.45862
#
# Velocity S-wave (km/s) = 3.63905 4.02644 3.83763
# Velocity P-wave (km/s) = 5.84110 6.94701 6.41792
#
# Compressibility (1/GPa) = 0.02756300
#
# Stress axis : x y z
#
# Youngs Moduli (GPa) = 58.68454 191.61873 61.67569
#
# Poissons Ratio (x) = 0.52215 0.00428
# Poissons Ratio (y) = 0.15991 0.16409
# Poissons Ratio (z) = 0.00408 0.50981
#
# Static dielectric constant tensor:
#      x y z
#    x 1.916450 0.000000 -0.006920 
#    y 0.000000 1.836500 0.000000 
#    z -0.006920 0.000000 1.979960 
# 
# From -- ./inp_files/184884.got.cif
#   From: 2010.05.17/outbox.cif.g08.bks.cpg/sg15_93_cif.got.tgz:184884.got - 2010.06.03 18:47:42.
