data_PCOD9283967
_publ_section_title
;
Structure prediction by ZEFSAII (Michael W. Deem and Ramdas Pophale) SiO2 
 PCOD9283967
Probable space group: C 2/C
;
_chemical_formula_sum "Si O2"
_cell_formula_units_Z 48
_cell_length_a 14.137733
_cell_length_b 10.713307
_cell_length_c 25.792152
_cell_angle_alpha 90.000000
_cell_angle_beta 32.253017
_cell_angle_gamma 90.000000
_cell_volume 2084.753841
_symmetry_space_group_name_H-M "C 2/C"
_symmetry_group_IT_number 15
_symmetry_cell_setting 'monoclinic'
loop_
_space_group_symop_operation_xyz
x,y,z
-x,y,1/2-z
-x,-y,-z
x,-y,1/2+z
1/2+x,1/2+y,z
1/2-x,1/2+y,1/2-z
1/2-x,1/2-y,-z
1/2+x,1/2-y,1/2+z
loop_
_atom_site_type_symbol
_atom_site_label
_atom_site_fract_x
_atom_site_fract_y
_atom_site_fract_z
Si Si1 0.794661 0.757283 0.184864
Si Si2 0.871487 0.509223 0.107199
Si Si3 0.025440 0.250377 0.389723
Si Si4 0.628245 0.362606 0.077862
Si Si5 0.262081 0.087729 0.949778
Si Si6 0.500000 0.428005 0.250000
Si Si7 0.500000 0.892544 0.250000
O O1 0.911888 0.643133 0.111384
O O2 0.687665 0.696565 0.282562
O O3 0.652316 0.813236 0.210135
O O4 0.935430 0.858324 0.139488
O O5 0.904142 0.380399 0.121167
O O6 0.663184 0.511870 0.192361
O O7 0.000000 0.500000 0.000000
O O8 0.925720 0.156248 0.474361
O O9 0.884405 0.298211 0.412557
O O10 0.581878 0.358448 0.161079
O O11 0.750000 0.250000 0.000000
O O12 0.722189 0.490016 0.014241
O O13 0.378930 0.034183 0.848344
#
# Coordination Sequence:
#
# PCOD9283967 Si02
#       7
#     8   8   8   8   8   4   4
#     4  11  23  42  67 102 144 181 238 299 352 424
#     4  12  23  41  70 101 136 183 241 288 352 423
#     4  10  21  40  65  96 136 182 226 291 348 407
#     4  12  26  46  69 104 147 185 233 300 363 428
#     4  10  22  42  67  99 138 182 239 289 347 429
#     4  12  25  45  70 108 140 189 241 290 358 426
#     4  10  23  43  70 100 138 193 239 288 368 424
#
# _framework density 23.0243
#
# number of rings (size 3 to 8) (size 9 to 14) (size 15 to 20)
#    0.000    1.000    1.667    5.500    0.000    4.000 
#    0.000    0.000    0.000    0.000    0.000    0.000 
#    0.000    0.000    0.000    0.000    0.000    0.000 
#
# Total GULP energy -133783.765407 kJ/mol
# GULP energy per Si atom -5574.323559 kJ/mol
# Density = 2.297190 g / cm^3
# Si number density = 23.024300 Si / 1000 Ang^3
#
#
#
# Elastic Constant Matrix: (Units=GPa)
#
#
# Indices 1 2 3 4 5 6 
#
# 1 53.2523 -10.0055 14.2633 0.0000 -0.0299 0.0000
# 2 -10.0055 31.1331 12.3596 0.0000 14.9842 0.0000
# 3 14.2633 12.3596 161.8098 -0.0004 32.1266 0.0000
# 4 0.0000 0.0000 -0.0004 34.9249 0.0000 3.5163
# 5 -0.0299 14.9842 32.1266 0.0000 45.9974 0.0000
# 6 0.0000 0.0000 0.0000 3.5163 0.0000 18.4083
#
#
#
# Elastic Compliance Matrix: (Units=1/GPa)
#
#
# Indices 1 2 3 4 5 6 
#
# 1 0.020908 0.008124 -0.002253 0.000000 -0.001059 0.000000
# 2 0.008124 0.041286 -0.001394 0.000000 -0.012471 0.000000
# 3 -0.002253 -0.001394 0.007425 0.000000 -0.004733 0.000000
# 4 0.000000 0.000000 0.000000 0.029194 0.000000 -0.005577
# 5 -0.001059 -0.012471 -0.004733 0.000000 0.029108 0.000000
# 6 0.000000 0.000000 0.000000 -0.005577 0.000000 0.055388
#
#
# Mechanical properties :
#
#
# Convention : Reuss Voigt Hill
#
# Bulk Modulus (GPa) = 12.72711 31.04776 21.88744
# Shear Modulus (GPa) = 24.93174 35.17132 30.05153
#
# Velocity S-wave (km/s) = 3.29423 3.91266 3.61669
# Velocity P-wave (km/s) = 4.47314 5.82460 5.19302
#
# Compressibility (1/GPa) = 0.07857241
#
# Stress axis : x y z
#
# Youngs Moduli (GPa) = 47.82911 24.22106 134.68083
#
# Poissons Ratio (x) = -0.19676 0.30347
# Poissons Ratio (y) = -0.38854 0.18770
# Poissons Ratio (z) = 0.10777 0.03376
#
# Static dielectric constant tensor:
#      x y z
#    x 1.918510 0.000000 0.030960 
#    y 0.000000 1.799830 0.000000 
#    z 0.030960 0.000000 1.886030 
# 
# From -- ./inp_files/152495.got.cif
#   From: 2010.05.17/outbox.cif.g08.bks.cpg/sg15_77_cif.got.tgz:152495.got - 2010.06.03 18:47:42.
