data_PCOD9283437
_publ_section_title
;
Structure prediction by ZEFSAII (Michael W. Deem and Ramdas Pophale) SiO2 
 PCOD9283437
Probable space group: C 2/C
;
_chemical_formula_sum "Si O2"
_cell_formula_units_Z 44
_cell_length_a 16.311882
_cell_length_b 17.337768
_cell_length_c 9.295931
_cell_angle_alpha 90.000000
_cell_angle_beta 131.908876
_cell_angle_gamma 90.000000
_cell_volume 1956.521076
_symmetry_space_group_name_H-M "C 2/C"
_symmetry_group_IT_number 15
_symmetry_cell_setting 'monoclinic'
loop_
_space_group_symop_operation_xyz
x,y,z
-x,y,1/2-z
-x,-y,-z
x,-y,1/2+z
1/2+x,1/2+y,z
1/2-x,1/2+y,1/2-z
1/2-x,1/2-y,-z
1/2+x,1/2-y,1/2+z
loop_
_atom_site_type_symbol
_atom_site_label
_atom_site_fract_x
_atom_site_fract_y
_atom_site_fract_z
Si Si1 0.000000 0.094974 0.750000
Si Si2 0.179852 0.033445 0.497250
Si Si3 0.845656 0.641058 0.009785
Si Si4 0.952363 0.671940 0.438318
Si Si5 0.666703 0.031330 0.071809
Si Si6 0.398600 0.664484 0.895736
O O1 0.009780 0.145120 0.617645
O O2 0.896355 0.037953 0.634379
O O3 0.244649 0.065424 0.436032
O O4 0.108743 0.098022 0.494156
O O5 0.268021 0.998804 0.712198
O O6 0.880338 0.672083 0.205979
O O7 0.923456 0.672156 0.974020
O O8 0.871172 0.549212 0.042317
O O9 0.720286 0.659404 0.823114
O O10 0.922588 0.594607 0.489886
O O11 0.921065 0.750555 0.480970
#
# Coordination Sequence:
#
# PCOD9283437 Si02
#       6
#     4   8   8   8   8   8
#     4  12  20  42  66  88 126 168 212 242 306 376
#     4  11  23  40  67  92 125 164 208 254 301 371
#     4  10  21  40  61  92 123 166 208 246 302 382
#     4  11  22  38  65  92 125 163 202 257 314 356
#     4  11  21  42  64  93 123 163 209 253 300 375
#     4  11  24  39  61  96 124 157 208 260 309 358
#
# _framework density 22.488897000000001
#
# number of rings (size 3 to 8) (size 9 to 14) (size 15 to 20)
#    0.000    1.091    5.455    2.727    0.000    2.182 
#    0.000    0.000    0.000    0.000    0.000    0.000 
#    0.000    0.000    0.000    0.000    0.000    0.000 
#
# Total GULP energy -123066.640518 kJ/mol
# GULP energy per Si atom -5593.938205 kJ/mol
# Density = 2.243771 g / cm^3
# Si number density = 22.488897 Si / 1000 Ang^3
#
#
#
# Elastic Constant Matrix: (Units=GPa)
#
#
# Indices 1 2 3 4 5 6 
#
# 1 102.8981 23.4943 1.2997 0.0000 -14.6230 0.0000
# 2 23.4943 129.0031 -12.6336 0.0000 -9.6800 0.0000
# 3 1.2997 -12.6336 25.0341 0.0000 -6.3712 0.0000
# 4 0.0000 0.0000 0.0000 13.6196 0.0000 -14.2407
# 5 -14.6230 -9.6800 -6.3712 0.0000 20.7262 0.0000
# 6 0.0000 0.0000 0.0000 -14.2407 0.0000 8.0803
#
#
#
# Elastic Compliance Matrix: (Units=1/GPa)
#
#
# Indices 1 2 3 4 5 6 
#
# 1 0.011075 -0.001410 0.000580 0.000000 0.007334 0.000000
# 2 -0.001410 0.008957 0.005864 0.000000 0.004991 0.000000
# 3 0.000580 0.005864 0.047383 0.000000 0.017713 0.000000
# 4 0.000000 0.000000 0.000000 -0.087123 0.000000 -0.153544
# 5 0.007334 0.004991 0.017713 0.000000 0.061198 0.000000
# 6 0.000000 0.000000 0.000000 -0.153544 0.000000 -0.146847
#
#
# Mechanical properties :
#
#
# Convention : Reuss Voigt Hill
#
# Bulk Modulus (GPa) = 12.90612 31.25068 22.07840
# Shear Modulus (GPa) = -55.80627 24.80354 -15.50137
#
# Velocity S-wave (km/s) = -4.98687 3.32463 -2.62828
# Velocity P-wave (km/s) = 5.23519 5.35386 0.79265
#
# Compressibility (1/GPa) = 0.07748263
#
# Stress axis : x y z
#
# Youngs Moduli (GPa) = 90.29227 111.64045 21.10478
#
# Poissons Ratio (x) = 0.15741 -0.01224
# Poissons Ratio (y) = 0.12731 -0.12376
# Poissons Ratio (z) = -0.05236 -0.65464
#
# Static dielectric constant tensor:
#      x y z
#    x 1.837360 0.000000 0.015910 
#    y 0.000000 1.819030 0.000000 
#    z 0.015910 0.000000 1.849490 
# 
# From -- ./inp_files/39520.got.cif
#   From: 2010.05.17/outbox.cif.g08.bks.cpg/sg15_20_cif.got.tgz:39520.got - 2010.06.03 18:47:42.
