data_PCOD9283887
_publ_section_title
;
Structure prediction by ZEFSAII (Michael W. Deem and Ramdas Pophale) SiO2 
 PCOD9283887
Probable space group: C 2/C
;
_chemical_formula_sum "Si O2"
_cell_formula_units_Z 60
_cell_length_a 29.724424
_cell_length_b 10.124088
_cell_length_c 8.515827
_cell_angle_alpha 90.000000
_cell_angle_beta 97.532096
_cell_angle_gamma 90.000000
_cell_volume 2540.578726
_symmetry_space_group_name_H-M "C 2/C"
_symmetry_group_IT_number 15
_symmetry_cell_setting 'monoclinic'
loop_
_space_group_symop_operation_xyz
x,y,z
-x,y,1/2-z
-x,-y,-z
x,-y,1/2+z
1/2+x,1/2+y,z
1/2-x,1/2+y,1/2-z
1/2-x,1/2-y,-z
1/2+x,1/2-y,1/2+z
loop_
_atom_site_type_symbol
_atom_site_label
_atom_site_fract_x
_atom_site_fract_y
_atom_site_fract_z
Si Si1 0.451976 0.072791 0.314191
Si Si2 0.187781 0.853163 0.829251
Si Si3 0.590757 0.622302 0.183595
Si Si4 0.801466 0.413064 0.298450
Si Si5 0.602331 0.876123 0.006498
Si Si6 0.740799 0.560495 0.055126
Si Si7 0.969498 0.872907 0.394981
Si Si8 0.500000 0.331031 0.750000
O O1 0.500000 0.042434 0.250000
O O2 0.457448 0.217153 0.392650
O O3 0.437327 0.956054 0.421538
O O4 0.410096 0.091820 0.176069
O O5 0.135127 0.889628 0.810192
O O6 0.192738 0.696596 0.833794
O O7 0.203131 0.884674 0.656499
O O8 0.217541 0.929767 0.969266
O O9 0.600349 0.718781 0.040715
O O10 0.572093 0.475685 0.139664
O O11 0.552480 0.708426 0.257565
O O12 0.848955 0.424591 0.409781
O O13 0.782334 0.536666 0.194380
O O14 0.762600 0.374827 0.409209
O O15 0.995647 0.890242 0.571599
O O16 0.000000 0.885455 0.250000
#
# Coordination Sequence:
#
# PCOD9283887 Si02
#       8
#     8   8   8   8   8   8   8   4
#     4  11  25  44  65  96 138 177 231 281 341 403
#     4  10  23  38  64  96 131 164 220 278 328 404
#     4  11  25  41  69 100 137 176 232 281 339 410
#     4  10  21  42  64  92 128 170 218 272 337 406
#     4  11  25  43  67  99 135 177 230 285 336 417
#     4  10  21  40  65  91 127 171 213 270 348 394
#     4  11  26  47  68 100 136 188 234 284 338 411
#     4  12  26  42  74  94 142 186 228 270 360 388
#
# _framework density 23.616664
#
# number of rings (size 3 to 8) (size 9 to 14) (size 15 to 20)
#    0.000    1.333    0.667    4.000    6.533    1.067 
#    0.000    5.333    0.000    0.000    0.000    0.000 
#    0.000    0.000    0.000    0.000    0.000    0.000 
#
# Total GULP energy -167249.764477 kJ/mol
# GULP energy per Si atom -5574.992149 kJ/mol
# Density = 2.356291 g / cm^3
# Si number density = 23.616664 Si / 1000 Ang^3
#
#
#
# Elastic Constant Matrix: (Units=GPa)
#
#
# Indices 1 2 3 4 5 6 
#
# 1 99.9206 16.3743 0.7969 0.0000 19.9055 0.0000
# 2 16.3743 64.7832 13.2341 0.0000 -2.0443 0.0000
# 3 0.7969 13.2341 92.1721 0.0000 7.6451 0.0000
# 4 0.0000 0.0000 0.0000 20.9790 0.0000 -4.7870
# 5 19.9055 -2.0443 7.6451 0.0000 34.1859 0.0000
# 6 0.0000 0.0000 0.0000 -4.7870 0.0000 22.9754
#
#
#
# Elastic Compliance Matrix: (Units=1/GPa)
#
#
# Indices 1 2 3 4 5 6 
#
# 1 0.012057 -0.003490 0.001015 0.000000 -0.007456 0.000000
# 2 -0.003490 0.016988 -0.002712 0.000000 0.003655 0.000000
# 3 0.001015 -0.002712 0.011506 0.000000 -0.003326 0.000000
# 4 0.000000 0.000000 0.000000 0.050046 0.000000 0.010427
# 5 -0.007456 0.003655 -0.003326 0.000000 0.034556 0.000000
# 6 0.000000 0.000000 0.000000 0.010427 0.000000 0.045697
#
#
# Mechanical properties :
#
#
# Convention : Reuss Voigt Hill
#
# Bulk Modulus (GPa) = 33.13808 35.29850 34.21829
# Shear Modulus (GPa) = 26.13931 30.72610 28.43270
#
# Velocity S-wave (km/s) = 3.33049 3.61090 3.47353
# Velocity P-wave (km/s) = 5.37138 5.68891 5.53242
#
# Compressibility (1/GPa) = 0.03017676
#
# Stress axis : x y z
#
# Youngs Moduli (GPa) = 82.93789 58.86635 86.91273
#
# Poissons Ratio (x) = 0.20546 -0.08825
# Poissons Ratio (y) = 0.28947 0.23571
# Poissons Ratio (z) = -0.08421 0.15965
#
# Static dielectric constant tensor:
#      x y z
#    x 1.952860 0.000000 -0.051480 
#    y 0.000000 2.030010 0.000000 
#    z -0.051480 0.000000 1.858640 
# 
# From -- ./inp_files/69142.got.cif
#   From: 2010.05.17/outbox.cif.g08.bks.cpg/sg15_35_cif.got.tgz:69142.got - 2010.06.03 18:47:42.
