data_PCOD9283764
_publ_section_title
;
Structure prediction by ZEFSAII (Michael W. Deem and Ramdas Pophale) SiO2 
 PCOD9283764
Probable space group: C 2/C
;
_chemical_formula_sum "Si O2"
_cell_formula_units_Z 48
_cell_length_a 27.516646
_cell_length_b 9.333072
_cell_length_c 9.008387
_cell_angle_alpha 90.000000
_cell_angle_beta 92.672814
_cell_angle_gamma 90.000000
_cell_volume 2310.970640
_symmetry_space_group_name_H-M "C 2/C"
_symmetry_group_IT_number 15
_symmetry_cell_setting 'monoclinic'
loop_
_space_group_symop_operation_xyz
x,y,z
-x,y,1/2-z
-x,-y,-z
x,-y,1/2+z
1/2+x,1/2+y,z
1/2-x,1/2+y,1/2-z
1/2-x,1/2-y,-z
1/2+x,1/2-y,1/2+z
loop_
_atom_site_type_symbol
_atom_site_label
_atom_site_fract_x
_atom_site_fract_y
_atom_site_fract_z
Si Si1 0.000000 0.530002 0.250000
Si Si2 0.750811 0.601062 0.087665
Si Si3 0.846850 0.909184 0.384177
Si Si4 0.405233 0.414893 0.104143
Si Si5 0.788575 0.649389 0.422914
Si Si6 0.000000 0.059391 0.250000
Si Si7 0.459815 0.803981 0.455879
O O1 0.039039 0.422779 0.175142
O O2 0.017419 0.625195 0.392052
O O3 0.699294 0.514464 0.091364
O O4 0.768996 0.626081 0.255662
O O5 0.750000 0.750000 0.000000
O O6 0.788599 0.498364 0.008790
O O7 0.861719 0.911410 0.215359
O O8 0.835964 0.746253 0.425926
O O9 0.891702 0.964306 0.485124
O O10 0.454591 0.461097 0.195120
O O11 0.411044 0.268250 0.012737
O O12 0.750000 0.750000 0.500000
O O13 0.013043 0.166854 0.115106
#
# Coordination Sequence:
#
# PCOD9283764 Si02
#       7
#     4   8   8   8   8   4   8
#     4   9  21  40  68  84 125 167 242 256 332 429
#     4  11  21  41  72  93 134 174 218 265 343 424
#     4  11  24  40  64 101 132 170 222 285 324 395
#     4  12  23  40  64  98 137 166 231 284 328 391
#     4  10  21  40  65  95 125 171 212 264 340 402
#     4  11  23  40  66  96 123 185 220 276 342 381
#     4  10  21  40  64  92 121 179 220 270 337 399
#
# _framework density 20.770492999999998
#
# number of rings (size 3 to 8) (size 9 to 14) (size 15 to 20)
#    0.000    1.333    1.667    6.000    2.333    0.000 
#    0.000    3.333    0.000    0.000    0.000    0.000 
#    0.000    0.000    0.000    0.000    0.000    0.000 
#
# Total GULP energy -133891.266249 kJ/mol
# GULP energy per Si atom -5578.802760 kJ/mol
# Density = 2.072322 g / cm^3
# Si number density = 20.770493 Si / 1000 Ang^3
#
#
#
# Elastic Constant Matrix: (Units=GPa)
#
#
# Indices 1 2 3 4 5 6 
#
# 1 48.8744 28.9211 22.4213 0.0000 -2.3410 0.0000
# 2 28.9211 132.1946 60.1973 0.0000 -9.6115 0.0000
# 3 22.4213 60.1973 151.0865 0.0000 -19.0723 0.0000
# 4 0.0000 0.0000 0.0000 -273.8118 0.0000 246.9951
# 5 -2.3410 -9.6115 -19.0723 0.0000 33.2357 0.0000
# 6 0.0000 0.0000 0.0000 246.9951 0.0000 -169.1788
#
#
#
# Elastic Compliance Matrix: (Units=1/GPa)
#
#
# Indices 1 2 3 4 5 6 
#
# 1 0.023906 -0.004428 -0.001868 0.000000 -0.000669 0.000000
# 2 -0.004428 0.010073 -0.003264 0.000000 0.000728 0.000000
# 3 -0.001868 -0.003264 0.008690 0.000000 0.003911 0.000000
# 4 0.000000 0.000000 0.000000 0.011522 0.000000 0.016821
# 5 -0.000669 0.000728 0.003911 0.000000 0.032496 0.000000
# 6 0.000000 0.000000 0.000000 0.016821 0.000000 0.018648
#
#
# Mechanical properties :
#
#
# Convention : Reuss Voigt Hill
#
# Bulk Modulus (GPa) = 42.46558 61.69278 52.07918
# Shear Modulus (GPa) = 37.79176 -67.24327 -14.72575
#
# Velocity S-wave (km/s) = 4.27018 -5.69603 -2.66555
# Velocity P-wave (km/s) = 6.69344 3.67328 3.95658
#
# Compressibility (1/GPa) = 0.02354848
#
# Stress axis : x y z
#
# Youngs Moduli (GPa) = 41.83095 99.27786 115.07186
#
# Poissons Ratio (x) = 0.43962 0.21492
# Poissons Ratio (y) = 0.18523 0.37562
# Poissons Ratio (z) = 0.07813 0.32407
#
# Static dielectric constant tensor:
#      x y z
#    x 1.769790 0.000000 -0.013190 
#    y 0.000000 1.759010 0.000000 
#    z -0.013190 0.000000 1.699970 
# 
# From -- ./inp_files/68618.got.cif
#   From: 2010.05.17/outbox.cif.g08.bks.cpg/sg15_35_cif.got.tgz:68618.got - 2010.06.03 18:47:42.
