data_PCOD9283629
_publ_section_title
;
Structure prediction by ZEFSAII (Michael W. Deem and Ramdas Pophale) SiO2 
 PCOD9283629
Probable space group: C 2/C
;
_chemical_formula_sum "Si O2"
_cell_formula_units_Z 40
_cell_length_a 11.404518
_cell_length_b 13.214745
_cell_length_c 14.022523
_cell_angle_alpha 90.000000
_cell_angle_beta 56.041551
_cell_angle_gamma 90.000000
_cell_volume 1752.864590
_symmetry_space_group_name_H-M "C 2/C"
_symmetry_group_IT_number 15
_symmetry_cell_setting 'monoclinic'
loop_
_space_group_symop_operation_xyz
x,y,z
-x,y,1/2-z
-x,-y,-z
x,-y,1/2+z
1/2+x,1/2+y,z
1/2-x,1/2+y,1/2-z
1/2-x,1/2-y,-z
1/2+x,1/2-y,1/2+z
loop_
_atom_site_type_symbol
_atom_site_label
_atom_site_fract_x
_atom_site_fract_y
_atom_site_fract_z
Si Si1 0.712315 0.552112 0.481339
Si Si2 0.508340 0.046464 0.644783
Si Si3 0.433375 0.379738 0.072333
Si Si4 0.199829 0.313031 0.931022
Si Si5 0.296656 0.503512 0.801558
O O1 0.878443 0.543045 0.384997
O O2 0.644846 0.445016 0.474656
O O3 0.602372 0.628026 0.481996
O O4 0.704253 0.562647 0.598424
O O5 0.500000 0.104059 0.750000
O O6 0.580529 0.112389 0.529114
O O7 0.355019 0.013613 0.680967
O O8 0.364107 0.270692 0.109685
O O9 0.405314 0.447109 0.179080
O O10 0.309602 0.386336 0.827253
O O11 0.250000 0.250000 0.000000
#
# Coordination Sequence:
#
# PCOD9283629 Si02
#       5
#     8   8   8   8   8
#     4  10  21  40  63  90 136 165 209 272 325 380
#     4  11  21  43  65  96 132 177 219 267 331 384
#     4  11  22  42  63 102 132 166 219 273 332 381
#     4  11  21  42  67 100 127 170 232 267 311 406
#     4  11  22  43  70  91 135 177 214 275 333 385
#
# _framework density 22.819790999999999
#
# number of rings (size 3 to 8) (size 9 to 14) (size 15 to 20)
#    0.000    1.200    6.000    3.000    0.000    0.000 
#   14.400    6.000    0.000    0.000    0.000    0.000 
#    0.000    0.000    0.000    0.000    0.000    0.000 
#
# Total GULP energy -111566.616996 kJ/mol
# GULP energy per Si atom -5578.330850 kJ/mol
# Density = 2.276785 g / cm^3
# Si number density = 22.819791 Si / 1000 Ang^3
#
#
#
# Elastic Constant Matrix: (Units=GPa)
#
#
# Indices 1 2 3 4 5 6 
#
# 1 118.6904 -15.6742 14.6366 0.0000 -14.9390 0.0000
# 2 -15.6742 59.4446 9.9326 0.0000 3.1072 0.0000
# 3 14.6366 9.9326 86.4078 0.0000 10.7803 0.0000
# 4 0.0000 0.0000 0.0000 26.4933 0.0000 4.8096
# 5 -14.9390 3.1072 10.7803 0.0000 50.2147 0.0000
# 6 0.0000 0.0000 0.0000 4.8096 0.0000 14.0481
#
#
#
# Elastic Compliance Matrix: (Units=1/GPa)
#
#
# Indices 1 2 3 4 5 6 
#
# 1 0.009464 0.002717 -0.002308 0.000000 0.003143 0.000000
# 2 0.002717 0.017953 -0.002555 0.000000 0.000246 0.000000
# 3 -0.002308 -0.002555 0.012663 0.000000 -0.003247 0.000000
# 4 0.000000 0.000000 0.000000 0.040247 0.000000 -0.013779
# 5 0.003143 0.000246 -0.003247 0.000000 0.021531 0.000000
# 6 0.000000 0.000000 0.000000 -0.013779 0.000000 0.075901
#
#
# Mechanical properties :
#
#
# Convention : Reuss Voigt Hill
#
# Bulk Modulus (GPa) = 27.94158 31.37032 29.65595
# Shear Modulus (GPa) = 25.77591 35.19442 30.48517
#
# Velocity S-wave (km/s) = 3.36451 3.93144 3.65897
# Velocity P-wave (km/s) = 5.23109 5.86389 5.55650
#
# Compressibility (1/GPa) = 0.03578896
#
# Stress axis : x y z
#
# Youngs Moduli (GPa) = 105.66134 55.70188 78.97253
#
# Poissons Ratio (x) = -0.15133 0.18223
# Poissons Ratio (y) = -0.28706 0.20174
# Poissons Ratio (z) = 0.24382 0.14229
#
# Static dielectric constant tensor:
#      x y z
#    x 1.893230 0.000000 -0.032120 
#    y 0.000000 1.870310 0.000000 
#    z -0.032120 0.000000 1.920930 
# 
# From -- ./inp_files/142393.got.cif
#   From: 2010.05.17/outbox.cif.g08.bks.cpg/sg15_72_cif.got.tgz:142393.got - 2010.06.03 18:47:42.
