data_PCOD9283526
_publ_section_title
;
Structure prediction by ZEFSAII (Michael W. Deem and Ramdas Pophale) SiO2 
 PCOD9283526
Probable space group: C 2/C
;
_chemical_formula_sum "Si O2"
_cell_formula_units_Z 56
_cell_length_a 9.367903
_cell_length_b 18.474441
_cell_length_c 16.462145
_cell_angle_alpha 90.000000
_cell_angle_beta 111.006765
_cell_angle_gamma 90.000000
_cell_volume 2659.697008
_symmetry_space_group_name_H-M "C 2/C"
_symmetry_group_IT_number 15
_symmetry_cell_setting 'monoclinic'
loop_
_space_group_symop_operation_xyz
x,y,z
-x,y,1/2-z
-x,-y,-z
x,-y,1/2+z
1/2+x,1/2+y,z
1/2-x,1/2+y,1/2-z
1/2-x,1/2-y,-z
1/2+x,1/2-y,1/2+z
loop_
_atom_site_type_symbol
_atom_site_label
_atom_site_fract_x
_atom_site_fract_y
_atom_site_fract_z
Si Si1 0.764030 0.688650 0.313610
Si Si2 0.500000 0.572047 0.250000
Si Si3 0.587888 0.649486 0.520535
Si Si4 0.191878 0.137586 0.928005
Si Si5 0.410927 0.513708 0.068399
Si Si6 0.500000 0.277466 0.250000
Si Si7 0.967763 0.686035 0.505510
Si Si8 0.872572 0.659988 0.662799
O O1 0.647930 0.624176 0.270438
O O2 0.874043 0.726086 0.268428
O O3 0.658752 0.756041 0.321924
O O4 0.880995 0.662078 0.406984
O O5 0.503280 0.522513 0.170373
O O6 0.415185 0.645768 0.515317
O O7 0.636929 0.596083 0.459617
O O8 0.595097 0.732363 0.496887
O O9 0.698908 0.631023 0.619501
O O10 0.094808 0.172706 0.833735
O O11 0.351428 0.177977 0.969076
O O12 0.207356 0.049897 0.933293
O O13 0.500000 0.500000 0.000000
O O14 0.934005 0.649659 0.584599
O O15 0.000000 0.630988 0.750000
#
# Coordination Sequence:
#
# PCOD9283526 Si02
#       8
#     8   4   8   8   8   4   8   8
#     4  11  24  38  66 103 135 172 227 291 348 405
#     4  12  23  46  70  98 135 182 240 280 342 427
#     4  10  21  40  62  91 127 175 226 270 339 409
#     4  11  23  39  64  94 133 173 222 278 345 412
#     4  10  24  43  70  94 136 188 232 274 344 430
#     4  12  23  38  62 106 139 168 230 294 350 407
#     4  11  22  38  64  99 134 166 220 294 343 391
#     4  11  20  37  59  97 130 166 214 282 341 398
#
# _framework density 21.055031
#
# number of rings (size 3 to 8) (size 9 to 14) (size 15 to 20)
#    0.000    1.143    3.571    5.143    2.000    1.143 
#    0.000    2.857    0.000    0.000    0.000    0.000 
#    0.000    0.000    0.000    0.000    0.000    0.000 
#
# Total GULP energy -155877.908249 kJ/mol
# GULP energy per Si atom -5567.068152 kJ/mol
# Density = 2.100711 g / cm^3
# Si number density = 21.055031 Si / 1000 Ang^3
#
#
#
# Elastic Constant Matrix: (Units=GPa)
#
#
# Indices 1 2 3 4 5 6 
#
# 1 125.7776 32.2624 44.0658 0.0000 8.3690 0.0000
# 2 32.2624 68.4760 31.4507 0.0000 7.0302 0.0000
# 3 44.0658 31.4507 116.0712 0.0000 3.2412 0.0000
# 4 0.0000 0.0000 0.0000 21.4892 0.0000 -14.4273
# 5 8.3690 7.0302 3.2412 0.0000 36.1378 0.0000
# 6 0.0000 0.0000 0.0000 -14.4273 0.0000 6.3616
#
#
#
# Elastic Compliance Matrix: (Units=1/GPa)
#
#
# Indices 1 2 3 4 5 6 
#
# 1 0.009858 -0.003197 -0.002837 0.000000 -0.001407 0.000000
# 2 -0.003197 0.018014 -0.003599 0.000000 -0.002441 0.000000
# 3 -0.002837 -0.003599 0.010656 0.000000 0.000401 0.000000
# 4 0.000000 0.000000 0.000000 -0.089047 0.000000 -0.201947
# 5 -0.001407 -0.002441 0.000401 0.000000 0.028437 0.000000
# 6 0.000000 0.000000 0.000000 -0.201947 0.000000 -0.300796
#
#
# Mechanical properties :
#
#
# Convention : Reuss Voigt Hill
#
# Bulk Modulus (GPa) = 51.91629 58.43140 55.17385
# Shear Modulus (GPa) = -16.82420 26.30078 4.73829
#
# Velocity S-wave (km/s) = -2.82983 3.53816 1.50177
# Velocity P-wave (km/s) = 3.74616 6.67109 5.41004
#
# Compressibility (1/GPa) = 0.01926178
#
# Stress axis : x y z
#
# Youngs Moduli (GPa) = 101.43871 55.51339 93.83999
#
# Poissons Ratio (x) = 0.17749 0.26622
# Poissons Ratio (y) = 0.32432 0.33773
# Poissons Ratio (z) = 0.28778 0.19979
#
# Static dielectric constant tensor:
#      x y z
#    x 1.798920 0.000000 -0.003270 
#    y 0.000000 1.881000 0.000000 
#    z -0.003270 0.000000 1.821340 
# 
# From -- ./inp_files/192276.got.cif
#   From: 2010.05.17/outbox.cif.g08.bks.cpg/sg15_97_cif.got.tgz:192276.got - 2010.06.03 18:47:42.
