data_PCOD9283842
_publ_section_title
;
Structure prediction by ZEFSAII (Michael W. Deem and Ramdas Pophale) SiO2 
 PCOD9283842
Probable space group: C 2/C
;
_chemical_formula_sum "Si O2"
_cell_formula_units_Z 40
_cell_length_a 23.585917
_cell_length_b 5.635258
_cell_length_c 13.459672
_cell_angle_alpha 90.000000
_cell_angle_beta 100.265999
_cell_angle_gamma 90.000000
_cell_volume 1760.322177
_symmetry_space_group_name_H-M "C 2/C"
_symmetry_group_IT_number 15
_symmetry_cell_setting 'monoclinic'
loop_
_space_group_symop_operation_xyz
x,y,z
-x,y,1/2-z
-x,-y,-z
x,-y,1/2+z
1/2+x,1/2+y,z
1/2-x,1/2+y,1/2-z
1/2-x,1/2-y,-z
1/2+x,1/2-y,1/2+z
loop_
_atom_site_type_symbol
_atom_site_label
_atom_site_fract_x
_atom_site_fract_y
_atom_site_fract_z
Si Si1 0.125993 0.432713 0.933425
Si Si2 0.185394 0.382867 0.631984
Si Si3 0.810184 0.085697 0.679344
Si Si4 0.469019 0.254120 0.964689
Si Si5 0.398785 0.802524 0.254819
O O1 0.177040 0.302641 0.890398
O O2 0.086032 0.533239 0.833497
O O3 0.151216 0.626830 0.017925
O O4 0.089256 0.255087 0.988553
O O5 0.192366 0.157466 0.704993
O O6 0.249492 0.473910 0.632623
O O7 0.148178 0.561235 0.690253
O O8 0.865046 0.914728 0.694946
O O9 0.450459 0.258673 0.843774
O O10 0.500000 0.500000 0.000000
O O11 0.500000 0.000000 0.000000
#
# Coordination Sequence:
#
# PCOD9283842 Si02
#       5
#     8   8   8   8   8
#     4  10  25  42  68 102 133 178 238 287 348 421
#     4  10  21  40  64  99 143 177 219 273 351 417
#     4  11  21  40  67  99 140 184 222 278 346 430
#     4  11  28  51  75  99 139 186 237 303 361 402
#     4  10  24  43  68 100 136 178 230 285 342 426
#
# _framework density 22.723112
#
# number of rings (size 3 to 8) (size 9 to 14) (size 15 to 20)
#    0.000    1.600    2.000    0.600   11.200    3.200 
#    0.000    0.000    0.000    0.000    0.000    0.000 
#    0.000    0.000    0.000    0.000    0.000    0.000 
#
# Total GULP energy -111706.224660 kJ/mol
# GULP energy per Si atom -5585.311233 kJ/mol
# Density = 2.267139 g / cm^3
# Si number density = 22.723112 Si / 1000 Ang^3
#
#
#
# Elastic Constant Matrix: (Units=GPa)
#
#
# Indices 1 2 3 4 5 6 
#
# 1 48.9476 9.6466 29.3778 0.0000 4.2723 0.0000
# 2 9.6466 49.7247 36.7536 0.0000 11.2482 0.0000
# 3 29.3778 36.7536 163.5246 0.0000 5.7199 0.0000
# 4 0.0000 0.0000 0.0000 27.5545 0.0000 4.9399
# 5 4.2723 11.2482 5.7199 0.0000 36.0475 0.0000
# 6 0.0000 0.0000 0.0000 4.9399 0.0000 23.1879
#
#
#
# Elastic Compliance Matrix: (Units=1/GPa)
#
#
# Indices 1 2 3 4 5 6 
#
# 1 0.023117 -0.001280 -0.003805 0.000000 -0.001737 0.000000
# 2 -0.001280 0.025914 -0.005347 0.000000 -0.007086 0.000000
# 3 -0.003805 -0.005347 0.007971 0.000000 0.000855 0.000000
# 4 0.000000 0.000000 0.000000 0.037733 0.000000 -0.008039
# 5 -0.001737 -0.007086 0.000855 0.000000 0.030023 0.000000
# 6 0.000000 0.000000 0.000000 -0.008039 0.000000 0.044838
#
#
# Mechanical properties :
#
#
# Convention : Reuss Voigt Hill
#
# Bulk Modulus (GPa) = 27.67031 45.97255 36.82143
# Shear Modulus (GPa) = 24.69087 29.78594 27.23840
#
# Velocity S-wave (km/s) = 3.29993 3.62445 3.46599
# Velocity P-wave (km/s) = 5.16943 6.14745 5.67953
#
# Compressibility (1/GPa) = 0.03613982
#
# Stress axis : x y z
#
# Youngs Moduli (GPa) = 43.25755 38.58949 125.46056
#
# Poissons Ratio (x) = 0.04938 0.47735
# Poissons Ratio (y) = 0.05535 0.67079
# Poissons Ratio (z) = 0.16458 0.20632
#
# Static dielectric constant tensor:
#      x y z
#    x 1.838840 0.000000 -0.004590 
#    y 0.000000 1.906210 0.000000 
#    z -0.004590 0.000000 1.804870 
# 
# From -- ./inp_files/120755.got.cif
#   From: 2010.05.17/outbox.cif.g08.bks.cpg/sg15_61_cif.got.tgz:120755.got - 2010.06.03 18:47:42.
