data_PCOD9283959
_publ_section_title
;
Structure prediction by ZEFSAII (Michael W. Deem and Ramdas Pophale) SiO2 
 PCOD9283959
Probable space group: C 2/C
;
_chemical_formula_sum "Si O2"
_cell_formula_units_Z 56
_cell_length_a 26.558568
_cell_length_b 11.419063
_cell_length_c 23.264483
_cell_angle_alpha 90.000000
_cell_angle_beta 21.307955
_cell_angle_gamma 90.000000
_cell_volume 2563.836039
_symmetry_space_group_name_H-M "C 2/C"
_symmetry_group_IT_number 15
_symmetry_cell_setting 'monoclinic'
loop_
_space_group_symop_operation_xyz
x,y,z
-x,y,1/2-z
-x,-y,-z
x,-y,1/2+z
1/2+x,1/2+y,z
1/2-x,1/2+y,1/2-z
1/2-x,1/2-y,-z
1/2+x,1/2-y,1/2+z
loop_
_atom_site_type_symbol
_atom_site_label
_atom_site_fract_x
_atom_site_fract_y
_atom_site_fract_z
Si Si1 0.837186 0.468759 0.681169
Si Si2 0.005588 0.593558 0.339147
Si Si3 0.123874 0.009586 0.736583
Si Si4 0.275556 0.884804 0.983361
Si Si5 0.595719 0.635835 0.961626
Si Si6 0.094510 0.764842 0.336739
Si Si7 0.648599 0.879836 0.954333
O O1 0.748309 0.581065 0.791834
O O2 0.821136 0.353393 0.737443
O O3 0.782893 0.423007 0.677793
O O4 0.000000 0.500000 0.500000
O O5 0.892884 0.605142 0.408255
O O6 0.972065 0.472388 0.406093
O O7 0.153780 0.576414 0.151009
O O8 0.996028 0.704141 0.392954
O O9 0.139497 0.053051 0.654408
O O10 0.164268 0.126419 0.730174
O O11 0.234236 0.904158 0.623788
O O12 0.991548 0.961753 0.911494
O O13 0.250000 0.750000 0.000000
O O14 0.547424 0.682065 0.949151
O O15 0.599373 0.749924 0.997396
#
# Coordination Sequence:
#
# PCOD9283959 Si02
#       7
#     8   8   8   8   8   8   8
#     4  11  23  38  60  94 130 176 210 258 329 396
#     4  10  21  40  65  96 130 173 222 276 337 382
#     4  11  23  42  63  95 131 172 220 274 327 386
#     4  10  21  41  66  96 126 168 224 285 332 384
#     4  11  26  39  64  98 141 176 216 262 328 415
#     4  11  22  38  65  95 138 162 221 268 335 384
#     4  10  23  39  61  89 135 177 216 260 329 398
#
# _framework density 21.842269999999999
#
# number of rings (size 3 to 8) (size 9 to 14) (size 15 to 20)
#    0.000    1.429    4.286    0.429    4.000    3.429 
#    0.000    0.714    0.000    3.429    0.000    0.000 
#    0.000    0.000    0.000    0.000    0.000    0.000 
#
# Total GULP energy -155989.244370 kJ/mol
# GULP energy per Si atom -5571.044442 kJ/mol
# Density = 2.179256 g / cm^3
# Si number density = 21.842270 Si / 1000 Ang^3
#
#
#
# Elastic Constant Matrix: (Units=GPa)
#
#
# Indices 1 2 3 4 5 6 
#
# 1 49.1088 32.0003 28.6714 0.0003 11.8158 -0.0003
# 2 32.0003 117.8642 50.7775 0.0000 13.2804 -0.0001
# 3 28.6714 50.7775 116.2078 -0.0001 19.5911 -0.0001
# 4 0.0003 0.0000 -0.0001 33.4207 0.0001 6.3994
# 5 11.8158 13.2804 19.5911 0.0001 17.0182 0.0001
# 6 -0.0003 -0.0001 -0.0001 6.3994 0.0001 35.2894
#
#
#
# Elastic Compliance Matrix: (Units=1/GPa)
#
#
# Indices 1 2 3 4 5 6 
#
# 1 0.028263 -0.005129 -0.002604 0.000000 -0.012623 0.000000
# 2 -0.005129 0.011563 -0.003556 0.000000 -0.001368 0.000000
# 3 -0.002604 -0.003556 0.012444 0.000000 -0.009742 0.000000
# 4 0.000000 0.000000 0.000000 0.030998 0.000000 -0.005621
# 5 -0.012623 -0.001368 -0.009742 0.000000 0.079807 0.000000
# 6 0.000000 0.000000 0.000000 -0.005621 0.000000 0.029356
#
#
# Mechanical properties :
#
#
# Convention : Reuss Voigt Hill
#
# Bulk Modulus (GPa) = 33.68041 56.23100 44.95571
# Shear Modulus (GPa) = 22.23134 28.59444 25.41289
#
# Velocity S-wave (km/s) = 3.19378 3.62212 3.41467
# Velocity P-wave (km/s) = 5.39014 6.57974 6.01442
#
# Compressibility (1/GPa) = 0.02969085
#
# Stress axis : x y z
#
# Youngs Moduli (GPa) = 35.38252 86.48069 80.35913
#
# Poissons Ratio (x) = 0.44359 0.20924
# Poissons Ratio (y) = 0.18149 0.28579
# Poissons Ratio (z) = 0.09213 0.30756
#
# Static dielectric constant tensor:
#      x y z
#    x 2.027960 0.000000 0.006560 
#    y 0.000000 1.765620 0.000000 
#    z 0.006560 0.000000 1.878560 
# 
# From -- ./inp_files/284600.got.cif
#   From: 2010.05.17/outbox.cif.g08.bks.cpg/sg15_143_cif.got.tgz:284600.got - 2010.06.03 18:47:42.
