data_PCOD9283229
_publ_section_title
;
Structure prediction by ZEFSAII (Michael W. Deem and Ramdas Pophale) SiO2 
 PCOD9283229
Probable space group: C 2/C
;
_chemical_formula_sum "Si O2"
_cell_formula_units_Z 44
_cell_length_a 20.115445
_cell_length_b 10.972674
_cell_length_c 9.574994
_cell_angle_alpha 90.000000
_cell_angle_beta 63.539739
_cell_angle_gamma 90.000000
_cell_volume 1892.003195
_symmetry_space_group_name_H-M "C 2/C"
_symmetry_group_IT_number 15
_symmetry_cell_setting 'monoclinic'
loop_
_space_group_symop_operation_xyz
x,y,z
-x,y,1/2-z
-x,-y,-z
x,-y,1/2+z
1/2+x,1/2+y,z
1/2-x,1/2+y,1/2-z
1/2-x,1/2-y,-z
1/2+x,1/2-y,1/2+z
loop_
_atom_site_type_symbol
_atom_site_label
_atom_site_fract_x
_atom_site_fract_y
_atom_site_fract_z
Si Si1 0.127096 0.483023 0.464445
Si Si2 0.879118 0.667380 0.283058
Si Si3 0.794774 0.907768 0.368190
Si Si4 0.500000 0.867288 0.250000
Si Si5 0.109755 0.999768 0.474316
Si Si6 0.503790 0.698651 0.014586
O O1 0.128013 0.544487 0.308027
O O2 0.104678 0.357886 0.568585
O O3 0.214266 0.466896 0.419972
O O4 0.066826 0.566056 0.604659
O O5 0.809153 0.761178 0.337574
O O6 0.947113 0.735221 0.147046
O O7 0.827518 0.952776 0.482619
O O8 0.850212 0.966825 0.205613
O O9 0.464412 0.790830 0.156810
O O10 0.049978 0.103863 0.506238
O O11 0.062810 0.878619 0.554822
#
# Coordination Sequence:
#
# PCOD9283229 Si02
#       6
#     8   8   8   4   8   8
#     4  11  24  44  63  91 130 168 214 263 317 389
#     4  10  24  43  66  93 129 170 214 265 320 380
#     4  11  23  42  66  97 128 169 216 268 323 375
#     4  10  22  40  64  94 132 172 214 262 320 390
#     4  10  21  39  69  96 129 167 216 273 316 372
#     4   9  20  40  64  98 130 168 217 263 321 380
#
# _framework density 23.255775
#
# number of rings (size 3 to 8) (size 9 to 14) (size 15 to 20)
#    0.000    1.818    0.000    2.727    0.000   11.636 
#    0.000   24.545    0.000    0.000    0.000    0.000 
#    0.000    0.000    0.000    0.000    0.000    0.000 
#
# Total GULP energy -122562.972784 kJ/mol
# GULP energy per Si atom -5571.044217 kJ/mol
# Density = 2.320284 g / cm^3
# Si number density = 23.255775 Si / 1000 Ang^3
#
#
#
# Elastic Constant Matrix: (Units=GPa)
#
#
# Indices 1 2 3 4 5 6 
#
# 1 81.1668 40.1056 29.3584 0.0000 -7.5958 0.0000
# 2 40.1056 91.8395 48.1676 0.0000 5.9288 0.0000
# 3 29.3584 48.1676 147.3954 0.0000 -4.8452 0.0000
# 4 0.0000 0.0000 0.0000 -10.4434 0.0000 23.0687
# 5 -7.5958 5.9288 -4.8452 0.0000 44.7964 0.0000
# 6 0.0000 0.0000 0.0000 23.0687 0.0000 15.3059
#
#
#
# Elastic Compliance Matrix: (Units=1/GPa)
#
#
# Indices 1 2 3 4 5 6 
#
# 1 0.016402 -0.006932 -0.000883 0.000000 0.003603 0.000000
# 2 -0.006932 0.016293 -0.004068 0.000000 -0.003772 0.000000
# 3 -0.000883 -0.004068 0.008332 0.000000 0.001290 0.000000
# 4 0.000000 0.000000 0.000000 -0.022118 0.000000 0.033336
# 5 0.003603 -0.003772 0.001290 0.000000 0.023573 0.000000
# 6 0.000000 0.000000 0.000000 0.033336 0.000000 0.015091
#
#
# Mechanical properties :
#
#
# Convention : Reuss Voigt Hill
#
# Bulk Modulus (GPa) = 57.93364 61.74054 59.83709
# Shear Modulus (GPa) = 57.41040 23.44980 40.43010
#
# Velocity S-wave (km/s) = 4.97394 3.17889 4.17405
# Velocity P-wave (km/s) = 7.61265 6.33087 7.00115
#
# Compressibility (1/GPa) = 0.01726113
#
# Stress axis : x y z
#
# Youngs Moduli (GPa) = 60.96752 61.37782 120.01891
#
# Poissons Ratio (x) = 0.42548 0.10600
# Poissons Ratio (y) = 0.42263 0.48818
# Poissons Ratio (z) = 0.05385 0.24966
#
# Static dielectric constant tensor:
#      x y z
#    x 1.889140 0.000000 0.000120 
#    y 0.000000 1.987110 0.000000 
#    z 0.000120 0.000000 1.862770 
# 
# From -- ./inp_files/54363.got.cif
#   From: 2010.05.17/outbox.cif.g08.bks.cpg/sg15_28_cif.got.tgz:54363.got - 2010.06.03 18:47:42.
