data_PCOD9283408
_publ_section_title
;
Structure prediction by ZEFSAII (Michael W. Deem and Ramdas Pophale) SiO2 
 PCOD9283408
Probable space group: C 2/C
;
_chemical_formula_sum "Si O2"
_cell_formula_units_Z 64
_cell_length_a 13.966100
_cell_length_b 14.874118
_cell_length_c 16.945327
_cell_angle_alpha 90.000000
_cell_angle_beta 120.610788
_cell_angle_gamma 90.000000
_cell_volume 3029.569797
_symmetry_space_group_name_H-M "C 2/C"
_symmetry_group_IT_number 15
_symmetry_cell_setting 'monoclinic'
loop_
_space_group_symop_operation_xyz
x,y,z
-x,y,1/2-z
-x,-y,-z
x,-y,1/2+z
1/2+x,1/2+y,z
1/2-x,1/2+y,1/2-z
1/2-x,1/2-y,-z
1/2+x,1/2-y,1/2+z
loop_
_atom_site_type_symbol
_atom_site_label
_atom_site_fract_x
_atom_site_fract_y
_atom_site_fract_z
Si Si1 0.432665 0.209005 0.588707
Si Si2 0.759261 0.806448 0.618896
Si Si3 0.114309 0.848001 0.437022
Si Si4 0.367298 0.846345 0.605766
Si Si5 0.048555 0.120278 0.081944
Si Si6 0.483891 0.014048 0.837442
Si Si7 0.790052 0.610287 0.244286
Si Si8 0.592653 0.470523 0.854288
O O1 0.343943 0.216176 0.480319
O O2 0.361356 0.240990 0.635971
O O3 0.528163 0.281261 0.610981
O O4 0.481070 0.109288 0.612821
O O5 0.723554 0.814360 0.694397
O O6 0.802391 0.907798 0.618639
O O7 0.243009 0.847893 0.518696
O O8 0.081584 0.748844 0.396064
O O9 0.046760 0.872593 0.487541
O O10 0.106934 0.923468 0.367056
O O11 0.355283 0.853739 0.695104
O O12 0.434946 0.932344 0.603939
O O13 0.167324 0.085031 0.162183
O O14 0.952192 0.061147 0.079471
O O15 0.500000 0.024785 0.750000
O O16 0.360596 0.976044 0.802218
O O17 0.500000 0.448016 0.750000
#
# Coordination Sequence:
#
# PCOD9283408 Si02
#       8
#     8   8   8   8   8   8   8   8
#     4  10  23  40  65  96 122 174 216 253 332 383
#     4  10  22  41  62  93 131 162 212 273 311 382
#     4  10  21  40  63  85 118 167 212 248 320 388
#     4   9  21  42  60  86 125 163 207 266 313 368
#     4  10  22  41  63  92 127 162 206 270 312 371
#     4  10  22  39  63  90 126 166 206 266 321 374
#     4  10  21  40  61  88 129 163 201 269 319 360
#     4  11  21  38  64  92 124 165 205 264 323 375
#
# _framework density 21.125111
#
# number of rings (size 3 to 8) (size 9 to 14) (size 15 to 20)
#    0.000    2.000    1.250    1.125    3.500    2.000 
#    6.750    2.500    0.000    0.000    0.000    0.000 
#    0.000    0.000    0.000    0.000    0.000    0.000 
#
# Total GULP energy -178714.258473 kJ/mol
# GULP energy per Si atom -5584.820577 kJ/mol
# Density = 2.107703 g / cm^3
# Si number density = 21.125111 Si / 1000 Ang^3
#
#
#
# Elastic Constant Matrix: (Units=GPa)
#
#
# Indices 1 2 3 4 5 6 
#
# 1 68.1831 24.0510 15.5936 0.0000 0.2539 0.0000
# 2 24.0510 139.2462 13.5874 0.0000 4.4669 0.0000
# 3 15.5936 13.5874 31.6611 0.0000 -0.1558 0.0000
# 4 0.0000 0.0000 0.0000 17.5521 0.0000 0.8594
# 5 0.2539 4.4669 -0.1558 0.0000 18.0592 0.0000
# 6 0.0000 0.0000 0.0000 0.8594 0.0000 12.1767
#
#
#
# Elastic Compliance Matrix: (Units=1/GPa)
#
#
# Indices 1 2 3 4 5 6 
#
# 1 0.017170 -0.002242 -0.007493 0.000000 0.000249 0.000000
# 2 -0.002242 0.007853 -0.002275 0.000000 -0.001930 0.000000
# 3 -0.007493 -0.002275 0.036256 0.000000 0.000981 0.000000
# 4 0.000000 0.000000 0.000000 0.057171 0.000000 -0.004035
# 5 0.000249 -0.001930 0.000981 0.000000 0.055856 0.000000
# 6 0.000000 0.000000 0.000000 -0.004035 0.000000 0.082409
#
#
# Mechanical properties :
#
#
# Convention : Reuss Voigt Hill
#
# Bulk Modulus (GPa) = 26.83990 38.39491 32.61741
# Shear Modulus (GPa) = 17.05582 21.94816 19.50199
#
# Velocity S-wave (km/s) = 2.84451 3.22679 3.04166
# Velocity P-wave (km/s) = 4.84986 5.66545 5.27345
#
# Compressibility (1/GPa) = 0.03725797
#
# Stress axis : x y z
#
# Youngs Moduli (GPa) = 58.24063 127.34339 27.58154
#
# Poissons Ratio (x) = 0.28557 0.20667
# Poissons Ratio (y) = 0.13060 0.06275
# Poissons Ratio (z) = 0.43640 0.28972
#
# Static dielectric constant tensor:
#      x y z
#    x 1.771400 0.000000 -0.013130 
#    y 0.000000 1.753530 0.000000 
#    z -0.013130 0.000000 1.778330 
# 
# From -- ./inp_files/205426.got.cif
#   From: 2010.05.17/outbox.cif.g08.bks.cpg/sg15_103_cif.got.tgz:205426.got - 2010.06.03 18:47:42.
