data_PCOD9283682
_publ_section_title
;
Structure prediction by ZEFSAII (Michael W. Deem and Ramdas Pophale) SiO2 
 PCOD9283682
Probable space group: C 2/C
;
_chemical_formula_sum "Si O2"
_cell_formula_units_Z 60
_cell_length_a 26.291392
_cell_length_b 8.229155
_cell_length_c 13.605587
_cell_angle_alpha 90.000000
_cell_angle_beta 73.305179
_cell_angle_gamma 90.000000
_cell_volume 2819.570218
_symmetry_space_group_name_H-M "C 2/C"
_symmetry_group_IT_number 15
_symmetry_cell_setting 'monoclinic'
loop_
_space_group_symop_operation_xyz
x,y,z
-x,y,1/2-z
-x,-y,-z
x,-y,1/2+z
1/2+x,1/2+y,z
1/2-x,1/2+y,1/2-z
1/2-x,1/2-y,-z
1/2+x,1/2-y,1/2+z
loop_
_atom_site_type_symbol
_atom_site_label
_atom_site_fract_x
_atom_site_fract_y
_atom_site_fract_z
Si Si1 0.901927 0.494223 0.315067
Si Si2 0.857083 0.461004 0.043046
Si Si3 0.716010 0.721482 0.921829
Si Si4 0.563228 0.173037 0.388547
Si Si5 0.367655 0.500824 0.612803
Si Si6 0.972180 0.165655 0.046941
Si Si7 0.818555 0.270603 0.239861
Si Si8 0.500000 0.228808 0.750000
O O1 0.873683 0.575869 0.423171
O O2 0.930386 0.621807 0.227561
O O3 0.857354 0.385164 0.283472
O O4 0.949647 0.373311 0.317174
O O5 0.821719 0.623562 0.062880
O O6 0.909732 0.521216 0.070830
O O7 0.824076 0.335059 0.125743
O O8 0.678016 0.563945 0.935286
O O9 0.759066 0.716969 0.811180
O O10 0.750000 0.750000 0.000000
O O11 0.598131 0.337252 0.382806
O O12 0.505371 0.204007 0.465842
O O13 0.410876 0.366449 0.555106
O O14 0.339715 0.414269 0.721584
O O15 0.978923 0.186043 0.161428
O O16 0.000000 0.000000 0.000000
#
# Coordination Sequence:
#
# PCOD9283682 Si02
#       8
#     8   8   8   8   8   8   8   4
#     4  11  22  39  65 100 133 178 221 271 333 414
#     4  10  21  40  63  95 133 175 222 274 335 407
#     4  11  22  41  67  93 128 176 226 278 337 396
#     4   9  21  40  64  91 138 170 218 276 336 392
#     4  10  22  42  64  96 127 174 218 280 339 391
#     4  10  21  40  65  96 136 177 220 281 336 398
#     4  11  22  40  67  94 132 176 222 280 339 391
#     4  12  22  38  68  98 132 184 230 258 348 420
#
# _framework density 21.279838999999999
#
# number of rings (size 3 to 8) (size 9 to 14) (size 15 to 20)
#    0.000    1.600    4.000    0.800    0.000    1.600 
#    2.400    6.000    0.000    0.000    0.000    0.000 
#    0.000    0.000    0.000    0.000    0.000    0.000 
#
# Total GULP energy -167354.937745 kJ/mol
# GULP energy per Si atom -5578.497925 kJ/mol
# Density = 2.123140 g / cm^3
# Si number density = 21.279839 Si / 1000 Ang^3
#
#
#
# Elastic Constant Matrix: (Units=GPa)
#
#
# Indices 1 2 3 4 5 6 
#
# 1 115.3449 24.9773 56.1715 0.0000 -21.0714 0.0000
# 2 24.9773 54.8285 39.2523 0.0000 -4.2622 0.0000
# 3 56.1715 39.2523 154.2830 0.0000 -13.5706 0.0000
# 4 0.0000 0.0000 0.0000 32.2745 0.0000 -0.5650
# 5 -21.0714 -4.2622 -13.5706 0.0000 27.1230 0.0000
# 6 0.0000 0.0000 0.0000 -0.5650 0.0000 19.9773
#
#
#
# Elastic Compliance Matrix: (Units=1/GPa)
#
#
# Indices 1 2 3 4 5 6 
#
# 1 0.012115 -0.002752 -0.003055 0.000000 0.007450 0.000000
# 2 -0.002752 0.022938 -0.004921 0.000000 -0.000996 0.000000
# 3 -0.003055 -0.004921 0.008964 0.000000 0.001338 0.000000
# 4 0.000000 0.000000 0.000000 0.031000 0.000000 0.000877
# 5 0.007450 -0.000996 0.001338 0.000000 0.043170 0.000000
# 6 0.000000 0.000000 0.000000 0.000877 0.000000 0.050082
#
#
# Mechanical properties :
#
#
# Convention : Reuss Voigt Hill
#
# Bulk Modulus (GPa) = 44.32872 62.80650 53.56761
# Shear Modulus (GPa) = 25.34912 29.47864 27.41388
#
# Velocity S-wave (km/s) = 3.45516 3.72598 3.59312
# Velocity P-wave (km/s) = 6.06581 6.93464 6.51472
#
# Compressibility (1/GPa) = 0.02255874
#
# Stress axis : x y z
#
# Youngs Moduli (GPa) = 82.54558 43.59488 111.56137
#
# Poissons Ratio (x) = 0.11999 0.34083
# Poissons Ratio (y) = 0.22721 0.54904
# Poissons Ratio (z) = 0.25218 0.21455
#
# Static dielectric constant tensor:
#      x y z
#    x 1.793640 0.000000 0.023670 
#    y 0.000000 2.263710 0.000000 
#    z 0.023670 0.000000 1.788590 
# 
# From -- ./inp_files/125872.got.cif
#   From: 2010.05.17/outbox.cif.g08.bks.cpg/sg15_63_cif.got.tgz:125872.got - 2010.06.03 18:47:42.
