data_PCOD9283883
_publ_section_title
;
Structure prediction by ZEFSAII (Michael W. Deem and Ramdas Pophale) SiO2 
 PCOD9283883
Probable space group: C 2/C
;
_chemical_formula_sum "Si O2"
_cell_formula_units_Z 52
_cell_length_a 8.970417
_cell_length_b 23.501632
_cell_length_c 16.300309
_cell_angle_alpha 90.000000
_cell_angle_beta 36.553893
_cell_angle_gamma 90.000000
_cell_volume 2046.659541
_symmetry_space_group_name_H-M "C 2/C"
_symmetry_group_IT_number 15
_symmetry_cell_setting 'monoclinic'
loop_
_space_group_symop_operation_xyz
x,y,z
-x,y,1/2-z
-x,-y,-z
x,-y,1/2+z
1/2+x,1/2+y,z
1/2-x,1/2+y,1/2-z
1/2-x,1/2-y,-z
1/2+x,1/2-y,1/2+z
loop_
_atom_site_type_symbol
_atom_site_label
_atom_site_fract_x
_atom_site_fract_y
_atom_site_fract_z
Si Si1 0.736806 0.113530 0.681279
Si Si2 0.500000 0.080499 0.250000
Si Si3 0.000000 0.792151 0.750000
Si Si4 0.054352 0.266925 0.515617
Si Si5 0.500000 0.482352 0.250000
Si Si6 0.864897 0.022220 0.978275
Si Si7 0.560251 0.667200 0.399268
Si Si8 0.220409 0.629628 0.862581
O O1 0.500000 0.079487 0.750000
O O2 0.639810 0.143289 0.806074
O O3 0.974677 0.079104 0.609706
O O4 0.849371 0.146930 0.555946
O O5 0.402619 0.042214 0.369755
O O6 0.281803 0.121908 0.314187
O O7 0.255863 0.757919 0.655734
O O8 0.966985 0.827666 0.848119
O O9 0.250000 0.250000 0.500000
O O10 0.134900 0.229381 0.401398
O O11 0.067952 0.334911 0.495467
O O12 0.568797 0.513124 0.133567
O O13 0.741709 0.438588 0.146175
O O14 0.000000 0.000000 0.000000
O O15 0.500000 0.653558 0.750000
#
# Coordination Sequence:
#
# PCOD9283883 Si02
#       8
#     8   4   4   8   4   8   8   8
#     4  10  21  40  65  90 126 174 222 279 349 409
#     4  10  24  45  72 101 134 190 229 291 368 430
#     4  12  28  40  59  97 140 184 247 295 344 410
#     4  12  26  40  66  95 139 192 243 298 343 404
#     4   8  20  39  69  98 132 180 230 274 352 438
#     4  10  22  43  70 102 134 167 227 288 355 439
#     4  11  25  41  62  94 140 181 233 293 348 402
#     4   9  20  38  65  93 125 176 237 276 330 420
#
# _framework density 25.407253999999998
#
# number of rings (size 3 to 8) (size 9 to 14) (size 15 to 20)
#    0.462    1.231    0.000    3.231   11.846    0.000 
#    0.000    3.846    0.000    0.000    0.000    0.000 
#    0.000    0.000    0.000    0.000    0.000    0.000 
#
# Total GULP energy -144944.305750 kJ/mol
# GULP energy per Si atom -5574.780990 kJ/mol
# Density = 2.534943 g / cm^3
# Si number density = 25.407254 Si / 1000 Ang^3
#
#
#
# Elastic Constant Matrix: (Units=GPa)
#
#
# Indices 1 2 3 4 5 6 
#
# 1 164.4568 10.1042 58.0348 0.0002 17.3622 0.0000
# 2 10.1042 36.3477 11.8016 0.0000 5.0384 0.0000
# 3 58.0348 11.8016 79.9627 0.0003 14.5147 -0.0001
# 4 0.0002 0.0000 0.0003 14.9338 -0.0002 2.5461
# 5 17.3622 5.0384 14.5147 -0.0002 63.2893 0.0001
# 6 0.0000 0.0000 -0.0001 2.5461 0.0001 13.3071
#
#
#
# Elastic Compliance Matrix: (Units=1/GPa)
#
#
# Indices 1 2 3 4 5 6 
#
# 1 0.008229 -0.000290 -0.005764 0.000000 -0.000912 0.000000
# 2 -0.000290 0.029023 -0.003828 0.000000 -0.001353 0.000000
# 3 -0.005764 -0.003828 0.017646 0.000000 -0.002161 0.000000
# 4 0.000000 0.000000 0.000000 0.069220 0.000000 -0.013244
# 5 -0.000912 -0.001353 -0.002161 0.000000 0.016654 0.000000
# 6 0.000000 0.000000 0.000000 -0.013244 0.000000 0.077682
#
#
# Mechanical properties :
#
#
# Convention : Reuss Voigt Hill
#
# Bulk Modulus (GPa) = 28.46096 48.96090 38.71093
# Shear Modulus (GPa) = 20.00576 31.69448 25.85012
#
# Velocity S-wave (km/s) = 2.80912 3.53577 3.19318
# Velocity P-wave (km/s) = 4.66345 5.99843 5.37256
#
# Compressibility (1/GPa) = 0.03513585
#
# Stress axis : x y z
#
# Youngs Moduli (GPa) = 121.52545 34.45548 56.66926
#
# Poissons Ratio (x) = 0.00998 0.32663
# Poissons Ratio (y) = 0.03519 0.21691
# Poissons Ratio (z) = 0.70045 0.13188
#
# Static dielectric constant tensor:
#      x y z
#    x 2.452730 0.000000 0.147220 
#    y 0.000000 2.132490 0.000000 
#    z 0.147220 0.000000 2.160420 
# 
# From -- ./inp_files/139759.got.cif
#   From: 2010.05.17/outbox.cif.g08.bks.cpg/sg15_70_cif.got.tgz:139759.got - 2010.06.03 18:47:42.
