data_PCOD9283161
_publ_section_title
;
Structure prediction by ZEFSAII (Michael W. Deem and Ramdas Pophale) SiO2 
 PCOD9283161
Probable space group: C 2/C
;
_chemical_formula_sum "Si O2"
_cell_formula_units_Z 64
_cell_length_a 22.270196
_cell_length_b 14.908441
_cell_length_c 14.386713
_cell_angle_alpha 90.000000
_cell_angle_beta 139.053280
_cell_angle_gamma 90.000000
_cell_volume 3130.370541
_symmetry_space_group_name_H-M "C 2/C"
_symmetry_group_IT_number 15
_symmetry_cell_setting 'monoclinic'
loop_
_space_group_symop_operation_xyz
x,y,z
-x,y,1/2-z
-x,-y,-z
x,-y,1/2+z
1/2+x,1/2+y,z
1/2-x,1/2+y,1/2-z
1/2-x,1/2-y,-z
1/2+x,1/2-y,1/2+z
loop_
_atom_site_type_symbol
_atom_site_label
_atom_site_fract_x
_atom_site_fract_y
_atom_site_fract_z
Si Si1 0.559377 0.797467 0.553001
Si Si2 0.627105 0.538649 0.962711
Si Si3 0.935991 0.757899 0.084054
Si Si4 0.024179 0.892078 0.963873
Si Si5 0.170736 0.421853 0.799002
Si Si6 0.821978 0.594170 0.970710
Si Si7 0.491413 0.033490 0.630096
Si Si8 0.872444 0.987718 0.257195
O O1 0.492545 0.769740 0.559280
O O2 0.559150 0.708112 0.490781
O O3 0.648754 0.835542 0.710311
O O4 0.527037 0.878912 0.451257
O O5 0.591087 0.638380 0.941695
O O6 0.620714 0.525804 0.844640
O O7 0.570937 0.460835 0.947066
O O8 0.733486 0.534030 0.116749
O O9 0.000000 0.736260 0.250000
O O10 0.845032 0.696440 0.972937
O O11 0.062045 0.921941 0.108440
O O12 0.915458 0.914482 0.831159
O O13 0.081701 0.485789 0.694511
O O14 0.179506 0.401404 0.918746
O O15 0.729533 0.542786 0.834375
O O16 0.907147 0.536440 0.031776
O O17 0.500000 0.055347 0.750000
#
# Coordination Sequence:
#
# PCOD9283161 Si02
#       8
#     8   8   8   8   8   8   8   8
#     4  12  24  39  67  92 129 169 214 264 319 384
#     4  11  25  41  67  91 132 172 212 263 321 383
#     4  12  21  38  65 100 130 166 208 268 330 379
#     4  11  24  43  60  93 131 172 215 259 318 390
#     4  10  22  42  63  98 123 163 218 264 323 377
#     4  10  21  39  68  94 126 160 209 268 322 378
#     4  10  22  44  64  92 126 166 210 266 315 378
#     4  10  23  42  64  90 130 169 210 263 314 378
#
# _framework density 20.444863999999999
#
# number of rings (size 3 to 8) (size 9 to 14) (size 15 to 20)
#    0.000    1.250    2.500    4.125    3.500    2.000 
#    0.000    0.000    0.000    4.500    0.000    0.000 
#    0.000    0.000    0.000    0.000    0.000    0.000 
#
# Total GULP energy -178678.976129 kJ/mol
# GULP energy per Si atom -5583.718004 kJ/mol
# Density = 2.039833 g / cm^3
# Si number density = 20.444864 Si / 1000 Ang^3
#
#
#
# Elastic Constant Matrix: (Units=GPa)
#
#
# Indices 1 2 3 4 5 6 
#
# 1 72.0030 25.4587 47.3107 0.0000 2.2086 0.0000
# 2 25.4587 107.5418 54.3976 0.0000 -6.8841 0.0000
# 3 47.3107 54.3976 114.3972 0.0000 15.0241 0.0000
# 4 0.0000 0.0000 0.0000 30.0980 0.0000 -3.8075
# 5 2.2086 -6.8841 15.0241 0.0000 34.6309 0.0000
# 6 0.0000 0.0000 0.0000 -3.8075 0.0000 10.4574
#
#
#
# Elastic Compliance Matrix: (Units=1/GPa)
#
#
# Indices 1 2 3 4 5 6 
#
# 1 0.019258 -0.000316 -0.008107 0.000000 0.002226 0.000000
# 2 -0.000316 0.013224 -0.006899 0.000000 0.005642 0.000000
# 3 -0.008107 -0.006899 0.016422 0.000000 -0.007979 0.000000
# 4 0.000000 0.000000 0.000000 0.034829 0.000000 0.012681
# 5 0.002226 0.005642 -0.007979 0.000000 0.033317 0.000000
# 6 0.000000 0.000000 0.000000 0.012681 0.000000 0.100244
#
#
# Mechanical properties :
#
#
# Convention : Reuss Voigt Hill
#
# Bulk Modulus (GPa) = 54.75722 60.91956 57.83839
# Shear Modulus (GPa) = 19.68316 26.15559 22.91938
#
# Velocity S-wave (km/s) = 3.10618 3.58064 3.35182
# Velocity P-wave (km/s) = 6.30123 6.85247 6.58262
#
# Compressibility (1/GPa) = 0.01826243
#
# Stress axis : x y z
#
# Youngs Moduli (GPa) = 51.92553 75.61931 60.89269
#
# Poissons Ratio (x) = 0.02390 0.49363
# Poissons Ratio (y) = 0.01641 0.42007
# Poissons Ratio (z) = 0.42094 0.52166
#
# Static dielectric constant tensor:
#      x y z
#    x 1.758120 0.000000 0.017740 
#    y 0.000000 1.737790 0.000000 
#    z 0.017740 0.000000 1.769510 
# 
# From -- ./inp_files/173697.got.cif
#   From: 2010.05.17/outbox.cif.g08.bks.cpg/sg15_87_cif.got.tgz:173697.got - 2010.06.03 18:47:42.
