data_PCOD9283729
_publ_section_title
;
Structure prediction by ZEFSAII (Michael W. Deem and Ramdas Pophale) SiO2 
 PCOD9283729
Probable space group: C 2/C
;
_chemical_formula_sum "Si O2"
_cell_formula_units_Z 48
_cell_length_a 20.117999
_cell_length_b 5.252136
_cell_length_c 21.199241
_cell_angle_alpha 90.000000
_cell_angle_beta 83.128345
_cell_angle_gamma 90.000000
_cell_volume 2223.873661
_symmetry_space_group_name_H-M "C 2/C"
_symmetry_group_IT_number 15
_symmetry_cell_setting 'monoclinic'
loop_
_space_group_symop_operation_xyz
x,y,z
-x,y,1/2-z
-x,-y,-z
x,-y,1/2+z
1/2+x,1/2+y,z
1/2-x,1/2+y,1/2-z
1/2-x,1/2-y,-z
1/2+x,1/2-y,1/2+z
loop_
_atom_site_type_symbol
_atom_site_label
_atom_site_fract_x
_atom_site_fract_y
_atom_site_fract_z
Si Si1 0.105486 0.500692 0.654604
Si Si2 0.102371 0.982340 0.877630
Si Si3 0.020249 0.482290 0.924773
Si Si4 0.325335 0.195733 0.967554
Si Si5 0.176091 0.192728 0.481227
Si Si6 0.579983 0.511015 0.735736
O O1 0.166989 0.588844 0.603334
O O2 0.112696 0.240741 0.692443
O O3 0.044999 0.459425 0.612351
O O4 0.088580 0.738337 0.701480
O O5 0.054809 0.744211 0.899002
O O6 0.066401 0.238850 0.904627
O O7 0.110800 0.000228 0.802048
O O8 0.167768 0.919038 0.912431
O O9 0.000000 0.500000 0.000000
O O10 0.358067 0.474188 0.971845
O O11 0.354308 0.973317 0.008506
O O12 0.250000 0.250000 0.000000
O O13 0.250000 0.250000 0.500000
O O14 0.500000 0.565016 0.750000
#
# Coordination Sequence:
#
# PCOD9283729 Si02
#       6
#     8   8   8   8   8   8
#     4  12  22  39  62  91 131 176 213 262 330 395
#     4  12  23  38  59  90 129 171 211 263 322 395
#     4  12  23  35  58  92 130 164 213 262 325 399
#     4  10  22  41  66  92 121 163 218 278 333 375
#     4  10  21  40  64  89 120 163 214 275 336 370
#     4  12  23  40  59  89 137 181 212 253 321 416
#
# _framework density 21.583962
#
# number of rings (size 3 to 8) (size 9 to 14) (size 15 to 20)
#    0.000    0.667    3.333    6.000    0.000    0.000 
#    0.000    0.000    0.000   16.000    0.000    0.000 
#    0.000    0.000    0.000    0.000    0.000    0.000 
#
# Total GULP energy -134070.585590 kJ/mol
# GULP energy per Si atom -5586.274400 kJ/mol
# Density = 2.153484 g / cm^3
# Si number density = 21.583962 Si / 1000 Ang^3
#
#
#
# Elastic Constant Matrix: (Units=GPa)
#
#
# Indices 1 2 3 4 5 6 
#
# 1 78.0184 18.5719 47.2509 0.0000 16.4545 0.0000
# 2 18.5719 196.1234 65.3084 0.0000 12.1756 0.0000
# 3 47.2509 65.3084 184.5812 0.0000 32.9279 0.0000
# 4 0.0000 0.0000 0.0000 49.6078 0.0000 -1.6338
# 5 16.4545 12.1756 32.9279 0.0000 33.4206 0.0000
# 6 0.0000 0.0000 0.0000 -1.6338 0.0000 9.8216
#
#
#
# Elastic Compliance Matrix: (Units=1/GPa)
#
#
# Indices 1 2 3 4 5 6 
#
# 1 0.015731 -0.000155 -0.003155 0.000000 -0.004580 0.000000
# 2 -0.000155 0.005782 -0.001994 0.000000 -0.000065 0.000000
# 3 -0.003155 -0.001994 0.007916 0.000000 -0.005519 0.000000
# 4 0.000000 0.000000 0.000000 0.020269 0.000000 0.003372
# 5 -0.004580 -0.000065 -0.005519 0.000000 0.037638 0.000000
# 6 0.000000 0.000000 0.000000 0.003372 0.000000 0.102377
#
#
# Mechanical properties :
#
#
# Convention : Reuss Voigt Hill
#
# Bulk Modulus (GPa) = 53.13566 80.10949 66.62257
# Shear Modulus (GPa) = 24.20198 40.40945 32.30571
#
# Velocity S-wave (km/s) = 3.35221 4.33158 3.87298
# Velocity P-wave (km/s) = 6.29719 7.88750 7.13678
#
# Compressibility (1/GPa) = 0.01881975
#
# Stress axis : x y z
#
# Youngs Moduli (GPa) = 63.56787 172.96060 126.33325
#
# Poissons Ratio (x) = 0.02675 0.39861
# Poissons Ratio (y) = 0.00983 0.25197
# Poissons Ratio (z) = 0.20057 0.34496
#
# Static dielectric constant tensor:
#      x y z
#    x 1.990130 0.000000 0.016160 
#    y 0.000000 1.927310 0.000000 
#    z 0.016160 0.000000 1.790820 
# 
# From -- ./inp_files/217470.got.cif
#   From: 2010.05.17/outbox.cif.g08.bks.cpg/sg15_109_cif.got.tgz:217470.got - 2010.06.03 18:47:42.
