data_PCOD9283372
_publ_section_title
;
Structure prediction by ZEFSAII (Michael W. Deem and Ramdas Pophale) SiO2 
 PCOD9283372
Probable space group: C 2/C
;
_chemical_formula_sum "Si O2"
_cell_formula_units_Z 28
_cell_length_a 7.520393
_cell_length_b 7.350292
_cell_length_c 19.583065
_cell_angle_alpha 90.000000
_cell_angle_beta 96.686097
_cell_angle_gamma 90.000000
_cell_volume 1075.132617
_symmetry_space_group_name_H-M "C 2/C"
_symmetry_group_IT_number 15
_symmetry_cell_setting 'monoclinic'
loop_
_space_group_symop_operation_xyz
x,y,z
-x,y,1/2-z
-x,-y,-z
x,-y,1/2+z
1/2+x,1/2+y,z
1/2-x,1/2+y,1/2-z
1/2-x,1/2-y,-z
1/2+x,1/2-y,1/2+z
loop_
_atom_site_type_symbol
_atom_site_label
_atom_site_fract_x
_atom_site_fract_y
_atom_site_fract_z
Si Si1 0.621761 0.303864 0.697901
Si Si2 0.305506 0.279364 0.080599
Si Si3 0.500000 0.945644 0.750000
Si Si4 0.141242 0.626466 0.048189
O O1 0.500000 0.401806 0.750000
O O2 0.671730 0.338400 0.621257
O O3 0.823577 0.325299 0.735634
O O4 0.533954 0.101041 0.693298
O O5 0.275983 0.492147 0.092191
O O6 0.513855 0.233084 0.094484
O O7 0.250000 0.250000 0.000000
O O8 0.250000 0.750000 0.000000
O O9 0.000000 0.500000 0.000000
#
# Coordination Sequence:
#
# PCOD9283372 Si02
#       4
#     8   8   4   8
#     4  10  24  46  68  99 137 177 227 277 334 403
#     4  10  21  43  67 100 129 174 218 276 333 393
#     4  10  24  44  68  98 134 182 228 270 336 402
#     4  10  21  40  60  93 129 164 207 262 324 387
#
# _framework density 26.043302000000001
#
# number of rings (size 3 to 8) (size 9 to 14) (size 15 to 20)
#    0.857    1.143    0.000    2.571    2.000    0.000 
#   30.857    0.000    0.000    0.000    0.000    0.000 
#    0.000    0.000    0.000    0.000    0.000    0.000 
#
# Total GULP energy -77993.520246 kJ/mol
# GULP energy per Si atom -5570.965732 kJ/mol
# Density = 2.598403 g / cm^3
# Si number density = 26.043302 Si / 1000 Ang^3
#
#
#
# Elastic Constant Matrix: (Units=GPa)
#
#
# Indices 1 2 3 4 5 6 
#
# 1 195.6436 54.7734 33.1067 0.0000 -54.9266 0.0000
# 2 54.7734 78.7825 -22.6040 0.0000 -15.5287 0.0000
# 3 33.1067 -22.6040 125.2480 0.0000 -54.4038 0.0000
# 4 0.0000 0.0000 0.0000 8.8297 0.0000 -0.4010
# 5 -54.9266 -15.5287 -54.4038 0.0000 57.4383 0.0000
# 6 0.0000 0.0000 0.0000 -0.4010 0.0000 71.2450
#
#
#
# Elastic Compliance Matrix: (Units=1/GPa)
#
#
# Indices 1 2 3 4 5 6 
#
# 1 0.008215 -0.004476 -0.000157 0.000000 0.006497 0.000000
# 2 -0.004476 0.020393 0.009173 0.000000 0.009921 0.000000
# 3 -0.000157 0.009173 0.018168 0.000000 0.019537 0.000000
# 4 0.000000 0.000000 0.000000 0.113283 0.000000 0.000638
# 5 0.006497 0.009921 0.019537 0.000000 0.044810 0.000000
# 6 0.000000 0.000000 0.000000 0.000638 0.000000 0.014040
#
#
# Mechanical properties :
#
#
# Convention : Reuss Voigt Hill
#
# Bulk Modulus (GPa) = 17.90373 58.91403 38.40888
# Shear Modulus (GPa) = 21.88693 49.79581 35.84137
#
# Velocity S-wave (km/s) = 2.90212 4.37743 3.71377
# Velocity P-wave (km/s) = 4.25667 6.94405 5.75930
#
# Compressibility (1/GPa) = 0.05585429
#
# Stress axis : x y z
#
# Youngs Moduli (GPa) = 121.72818 49.03735 55.04293
#
# Poissons Ratio (x) = 0.21950 0.00866
# Poissons Ratio (y) = 0.54487 -0.50491
# Poissons Ratio (z) = 0.01916 -0.44982
#
# Static dielectric constant tensor:
#      x y z
#    x 2.045020 0.000000 -0.092870 
#    y 0.000000 2.139660 0.000000 
#    z -0.092870 0.000000 2.063110 
# 
# From -- ./inp_files/187143.got.cif
#   From: 2010.05.17/outbox.cif.g08.bks.cpg/sg15_94_cif.got.tgz:187143.got - 2010.06.03 18:47:42.
