data_PCOD9283642
_publ_section_title
;
Structure prediction by ZEFSAII (Michael W. Deem and Ramdas Pophale) SiO2 
 PCOD9283642
Probable space group: C 2/C
;
_chemical_formula_sum "Si O2"
_cell_formula_units_Z 64
_cell_length_a 27.349080
_cell_length_b 18.656835
_cell_length_c 10.341989
_cell_angle_alpha 90.000000
_cell_angle_beta 35.150075
_cell_angle_gamma 90.000000
_cell_volume 3038.058527
_symmetry_space_group_name_H-M "C 2/C"
_symmetry_group_IT_number 15
_symmetry_cell_setting 'monoclinic'
loop_
_space_group_symop_operation_xyz
x,y,z
-x,y,1/2-z
-x,-y,-z
x,-y,1/2+z
1/2+x,1/2+y,z
1/2-x,1/2+y,1/2-z
1/2-x,1/2-y,-z
1/2+x,1/2-y,1/2+z
loop_
_atom_site_type_symbol
_atom_site_label
_atom_site_fract_x
_atom_site_fract_y
_atom_site_fract_z
Si Si1 0.195839 0.557143 0.201523
Si Si2 0.119462 0.404168 0.339618
Si Si3 0.984332 0.223894 0.570124
Si Si4 0.632053 0.237018 0.949109
Si Si5 0.010590 0.916264 0.865129
Si Si6 0.257107 0.635101 0.327741
Si Si7 0.025739 0.631955 0.543947
Si Si8 0.639765 0.520521 0.254255
O O1 0.146450 0.482065 0.329678
O O2 0.225707 0.597580 0.265426
O O3 0.122018 0.607970 0.306067
O O4 0.279704 0.531959 0.941060
O O5 0.126272 0.348026 0.441997
O O6 0.033692 0.403337 0.439348
O O7 0.187573 0.374761 0.088844
O O8 0.984876 0.282985 0.456207
O O9 0.067227 0.236746 0.478257
O O10 0.984909 0.142658 0.524499
O O11 0.905153 0.240467 0.833159
O O12 0.717566 0.282135 0.744084
O O13 0.000000 0.880465 0.750000
O O14 0.103768 0.946377 0.697764
O O15 0.941593 0.979311 0.015715
O O16 0.334737 0.586301 0.210016
O O17 0.000000 0.614319 0.750000
#
# Coordination Sequence:
#
# PCOD9283642 Si02
#       8
#     8   8   8   8   8   8   8   8
#     4  11  23  40  64  96 130 167 213 276 324 386
#     4  10  23  40  65  94 124 174 220 263 323 394
#     4  10  22  39  64  93 125 168 220 266 319 392
#     4  10  21  40  63  91 127 169 214 267 322 384
#     4  11  21  40  64  95 130 171 212 265 330 393
#     4  11  20  40  63  91 130 166 215 265 326 386
#     4  11  22  44  65  92 129 175 219 269 330 386
#     4  10  23  38  61  95 130 169 214 266 326 389
#
# _framework density 21.066085000000001
#
# number of rings (size 3 to 8) (size 9 to 14) (size 15 to 20)
#    0.000    1.500    2.500    2.625    0.000    3.000 
#    4.500    3.750    0.000    0.000    0.000    0.000 
#    0.000    0.000    0.000    0.000    0.000    0.000 
#
# Total GULP energy -178588.504267 kJ/mol
# GULP energy per Si atom -5580.890758 kJ/mol
# Density = 2.101814 g / cm^3
# Si number density = 21.066085 Si / 1000 Ang^3
#
#
#
# Elastic Constant Matrix: (Units=GPa)
#
#
# Indices 1 2 3 4 5 6 
#
# 1 71.2139 22.7028 20.0605 0.0000 -15.4338 0.0000
# 2 22.7028 28.8873 9.7040 0.0000 -11.8130 0.0000
# 3 20.0605 9.7040 42.1611 0.0000 -13.5717 0.0000
# 4 0.0000 0.0000 0.0000 13.9024 0.0000 -3.5831
# 5 -15.4338 -11.8130 -13.5717 0.0000 32.0043 0.0000
# 6 0.0000 0.0000 0.0000 -3.5831 0.0000 26.1732
#
#
#
# Elastic Compliance Matrix: (Units=1/GPa)
#
#
# Indices 1 2 3 4 5 6 
#
# 1 0.020402 -0.013018 -0.005896 0.000000 0.002534 0.000000
# 2 -0.013018 0.050109 -0.001629 0.000000 0.011527 0.000000
# 3 -0.005896 -0.001629 0.029867 0.000000 0.009221 0.000000
# 4 0.000000 0.000000 0.000000 0.074561 0.000000 0.010207
# 5 0.002534 0.011527 0.009221 0.000000 0.040633 0.000000
# 6 0.000000 0.000000 0.000000 0.010207 0.000000 0.039604
#
#
# Mechanical properties :
#
#
# Convention : Reuss Voigt Hill
#
# Bulk Modulus (GPa) = 16.86523 27.46634 22.16578
# Shear Modulus (GPa) = 15.82156 20.40231 18.11194
#
# Velocity S-wave (km/s) = 2.74349 3.11544 2.93536
# Velocity P-wave (km/s) = 4.24958 5.09978 4.69397
#
# Compressibility (1/GPa) = 0.05929359
#
# Stress axis : x y z
#
# Youngs Moduli (GPa) = 49.01475 19.95654 33.48194
#
# Poissons Ratio (x) = 0.25978 0.19740
# Poissons Ratio (y) = 0.63805 0.05454
# Poissons Ratio (z) = 0.28897 0.03251
#
# Static dielectric constant tensor:
#      x y z
#    x 1.769940 0.000000 0.001260 
#    y 0.000000 1.755280 0.000000 
#    z 0.001260 0.000000 1.783170 
# 
# From -- ./inp_files/127269.got.cif
#   From: 2010.05.17/outbox.cif.g08.bks.cpg/sg15_64_cif.got.tgz:127269.got - 2010.06.03 18:47:42.
