data_PCOD9283907
_publ_section_title
;
Structure prediction by ZEFSAII (Michael W. Deem and Ramdas Pophale) SiO2 
 PCOD9283907
Probable space group: C 2/C
;
_chemical_formula_sum "Si O2"
_cell_formula_units_Z 56
_cell_length_a 17.726160
_cell_length_b 9.765612
_cell_length_c 27.684288
_cell_angle_alpha 90.000000
_cell_angle_beta 39.438888
_cell_angle_gamma 90.000000
_cell_volume 3044.356243
_symmetry_space_group_name_H-M "C 2/C"
_symmetry_group_IT_number 15
_symmetry_cell_setting 'monoclinic'
loop_
_space_group_symop_operation_xyz
x,y,z
-x,y,1/2-z
-x,-y,-z
x,-y,1/2+z
1/2+x,1/2+y,z
1/2-x,1/2+y,1/2-z
1/2-x,1/2-y,-z
1/2+x,1/2-y,1/2+z
loop_
_atom_site_type_symbol
_atom_site_label
_atom_site_fract_x
_atom_site_fract_y
_atom_site_fract_z
Si Si1 0.658236 0.996761 0.768892
Si Si2 0.444253 0.428772 0.980973
Si Si3 0.627864 0.284802 0.823892
Si Si4 0.186149 0.416736 0.144590
Si Si5 0.453683 0.345902 0.822106
Si Si6 0.601927 0.129591 0.111350
Si Si7 0.661024 0.431859 0.059519
O O1 0.662497 0.125656 0.803111
O O2 0.679181 0.059131 0.704966
O O3 0.759335 0.884051 0.727709
O O4 0.528564 0.927165 0.835083
O O5 0.535667 0.321067 0.912471
O O6 0.411702 0.534174 0.953707
O O7 0.500000 0.500000 0.000000
O O8 0.317082 0.375545 0.061869
O O9 0.557343 0.320206 0.809441
O O10 0.101457 0.298275 0.166611
O O11 0.146246 0.557384 0.138503
O O12 0.500000 0.413183 0.750000
O O13 0.358970 0.440982 0.895521
O O14 0.610274 0.293276 0.107727
O O15 0.701543 0.085905 0.022783
#
# Coordination Sequence:
#
# PCOD9283907 Si02
#       7
#     8   8   8   8   8   8   8
#     4  12  24  40  64  94 133 168 215 265 328 382
#     4  10  21  40  65  92 128 169 214 263 323 386
#     4  11  25  40  62  96 128 169 213 267 327 382
#     4  11  21  40  69  89 122 174 219 258 312 396
#     4  11  21  40  64  93 123 162 218 264 313 380
#     4  10  21  41  61  90 124 169 210 260 319 386
#     4   9  23  38  63  93 125 162 215 268 314 373
#
# _framework density 18.394694000000001
#
# number of rings (size 3 to 8) (size 9 to 14) (size 15 to 20)
#    0.000    1.429    4.286    0.429    6.000    2.857 
#    0.000    0.000    0.000    2.571    0.000    0.000 
#    0.000    0.000    0.000    0.000    0.000    0.000 
#
# Total GULP energy -156287.963146 kJ/mol
# GULP energy per Si atom -5581.712970 kJ/mol
# Density = 1.835283 g / cm^3
# Si number density = 18.394694 Si / 1000 Ang^3
#
#
#
# Elastic Constant Matrix: (Units=GPa)
#
#
# Indices 1 2 3 4 5 6 
#
# 1 79.1322 29.5988 50.7913 0.0000 -2.2374 0.0000
# 2 29.5988 96.3338 58.3708 0.0000 -3.3221 0.0000
# 3 50.7913 58.3708 112.1988 0.0000 -12.7361 0.0000
# 4 0.0000 0.0000 0.0000 29.8790 0.0000 -4.8274
# 5 -2.2374 -3.3221 -12.7361 0.0000 35.8108 0.0000
# 6 0.0000 0.0000 0.0000 -4.8274 0.0000 21.5260
#
#
#
# Elastic Compliance Matrix: (Units=1/GPa)
#
#
# Indices 1 2 3 4 5 6 
#
# 1 0.017968 -0.000776 -0.007931 0.000000 -0.001770 0.000000
# 2 -0.000776 0.015266 -0.007748 0.000000 -0.001388 0.000000
# 3 -0.007931 -0.007748 0.017086 0.000000 0.004862 0.000000
# 4 0.000000 0.000000 0.000000 0.034727 0.000000 0.007788
# 5 -0.001770 -0.001388 0.004862 0.000000 0.029414 0.000000
# 6 0.000000 0.000000 0.000000 0.007788 0.000000 0.048202
#
#
# Mechanical properties :
#
#
# Convention : Reuss Voigt Hill
#
# Bulk Modulus (GPa) = 57.44145 62.79851 60.11998
# Shear Modulus (GPa) = 24.82908 27.37008 26.09958
#
# Velocity S-wave (km/s) = 3.67794 3.86156 3.77087
# Velocity P-wave (km/s) = 7.02363 7.35498 7.19121
#
# Compressibility (1/GPa) = 0.01740903
#
# Stress axis : x y z
#
# Youngs Moduli (GPa) = 55.65478 65.50492 58.52751
#
# Poissons Ratio (x) = 0.05084 0.46418
# Poissons Ratio (y) = 0.04320 0.45349
# Poissons Ratio (z) = 0.44140 0.50755
#
# Static dielectric constant tensor:
#      x y z
#    x 1.618710 0.000000 -0.012020 
#    y 0.000000 1.619440 0.000000 
#    z -0.012020 0.000000 1.669040 
# 
# From -- ./inp_files/276601.got.cif
#   From: 2010.05.17/outbox.cif.g08.bks.cpg/sg15_139_cif.got.tgz:276601.got - 2010.06.03 18:47:42.
