data_PCOD9283470
_publ_section_title
;
Structure prediction by ZEFSAII (Michael W. Deem and Ramdas Pophale) SiO2 
 PCOD9283470
Probable space group: C 2/C
;
_chemical_formula_sum "Si O2"
_cell_formula_units_Z 60
_cell_length_a 7.914259
_cell_length_b 19.667264
_cell_length_c 20.234350
_cell_angle_alpha 90.000000
_cell_angle_beta 129.656114
_cell_angle_gamma 90.000000
_cell_volume 2424.774473
_symmetry_space_group_name_H-M "C 2/C"
_symmetry_group_IT_number 15
_symmetry_cell_setting 'monoclinic'
loop_
_space_group_symop_operation_xyz
x,y,z
-x,y,1/2-z
-x,-y,-z
x,-y,1/2+z
1/2+x,1/2+y,z
1/2-x,1/2+y,1/2-z
1/2-x,1/2-y,-z
1/2+x,1/2-y,1/2+z
loop_
_atom_site_type_symbol
_atom_site_label
_atom_site_fract_x
_atom_site_fract_y
_atom_site_fract_z
Si Si1 0.500000 0.632021 0.750000
Si Si2 0.436619 0.993961 0.597107
Si Si3 0.098582 0.649837 0.162056
Si Si4 0.621664 0.242507 0.686957
Si Si5 0.395458 0.304972 0.957339
Si Si6 0.210784 0.054169 0.916044
Si Si7 0.923229 0.662519 0.479361
Si Si8 0.710633 0.132905 0.904358
O O1 0.293684 0.683365 0.706556
O O2 0.518144 0.584922 0.820908
O O3 0.640272 0.013397 0.600193
O O4 0.380013 0.057797 0.629699
O O5 0.514609 0.927089 0.656557
O O6 0.235005 0.985600 0.492592
O O7 0.254809 0.700892 0.239729
O O8 0.210562 0.641370 0.118065
O O9 0.862729 0.687461 0.103406
O O10 0.552977 0.287771 0.606477
O O11 0.418778 0.195600 0.661453
O O12 0.504117 0.238602 0.014808
O O13 0.526892 0.363161 0.029524
O O14 0.355418 0.119599 0.969320
O O15 0.835785 0.647766 0.529527
#
# Coordination Sequence:
#
# PCOD9283470 Si02
#       8
#     4   8   8   8   8   8   8   8
#     4  12  16  32  62  86 110 152 208 246 294 342
#     4   9  19  37  54  84 119 159 190 242 295 360
#     4  11  21  33  63  89 118 145 208 253 288 338
#     4  11  20  37  59  89 114 158 197 253 298 355
#     4  11  20  36  58  85 116 161 196 235 294 372
#     4   9  17  32  59  84 115 146 196 248 298 341
#     4   9  17  35  58  85 107 151 195 250 284 340
#     4  10  21  40  62  79 123 165 197 229 312 372
#
# _framework density 24.744567
#
# number of rings (size 3 to 8) (size 9 to 14) (size 15 to 20)
#    0.000    1.867    5.333    2.800    0.000    1.600 
#    2.400    2.667    0.000    3.200    0.000    0.000 
#    0.000    0.000    0.000    0.000    0.000    0.000 
#
# Total GULP energy -167104.090348 kJ/mol
# GULP energy per Si atom -5570.136345 kJ/mol
# Density = 2.468825 g / cm^3
# Si number density = 24.744567 Si / 1000 Ang^3
#
#
#
# Elastic Constant Matrix: (Units=GPa)
#
#
# Indices 1 2 3 4 5 6 
#
# 1 35.1923 9.9551 13.6011 0.0000 11.3627 0.0000
# 2 9.9551 107.8987 72.1596 0.0000 -2.8873 0.0000
# 3 13.6011 72.1596 121.6605 0.0000 13.1877 0.0000
# 4 0.0000 0.0000 0.0000 43.9523 0.0000 4.5213
# 5 11.3627 -2.8873 13.1877 0.0000 26.5415 0.0000
# 6 0.0000 0.0000 0.0000 4.5213 0.0000 12.0684
#
#
#
# Elastic Compliance Matrix: (Units=1/GPa)
#
#
# Indices 1 2 3 4 5 6 
#
# 1 0.034291 -0.003458 -0.000159 0.000000 -0.014978 0.000000
# 2 -0.003458 0.016869 -0.010546 0.000000 0.008556 0.000000
# 3 -0.000159 -0.010546 0.015441 0.000000 -0.008752 0.000000
# 4 0.000000 0.000000 0.000000 0.023664 0.000000 -0.008865
# 5 -0.014978 0.008556 -0.008752 0.000000 0.049368 0.000000
# 6 0.000000 0.000000 0.000000 -0.008865 0.000000 0.086182
#
#
# Mechanical properties :
#
#
# Convention : Reuss Voigt Hill
#
# Bulk Modulus (GPa) = 26.12716 50.68698 38.40707
# Shear Modulus (GPa) = 18.73361 27.78148 23.25755
#
# Velocity S-wave (km/s) = 2.75449 3.35435 3.06911
# Velocity P-wave (km/s) = 4.54950 5.96077 5.30230
#
# Compressibility (1/GPa) = 0.03827434
#
# Stress axis : x y z
#
# Youngs Moduli (GPa) = 29.16231 59.28063 64.76211
#
# Poissons Ratio (x) = 0.20502 0.01028
# Poissons Ratio (y) = 0.10085 0.68299
# Poissons Ratio (z) = 0.00463 0.62518
#
# Static dielectric constant tensor:
#      x y z
#    x 2.095840 0.000000 -0.040600 
#    y 0.000000 2.009600 0.000000 
#    z -0.040600 0.000000 2.035370 
# 
# From -- ./inp_files/234099.got.cif
#   From: 2010.05.17/outbox.cif.g08.bks.cpg/sg15_118_cif.got.tgz:234099.got - 2010.06.03 18:47:42.
