data_PCOD9283140
_publ_section_title
;
Structure prediction by ZEFSAII (Michael W. Deem and Ramdas Pophale) SiO2 
 PCOD9283140
Probable space group: C 2/C
;
_chemical_formula_sum "Si O2"
_cell_formula_units_Z 32
_cell_length_a 8.276196
_cell_length_b 29.739590
_cell_length_c 5.517096
_cell_angle_alpha 90.000000
_cell_angle_beta 91.722584
_cell_angle_gamma 90.000000
_cell_volume 1357.312905
_symmetry_space_group_name_H-M "C 2/C"
_symmetry_group_IT_number 15
_symmetry_cell_setting 'monoclinic'
loop_
_space_group_symop_operation_xyz
x,y,z
-x,y,1/2-z
-x,-y,-z
x,-y,1/2+z
1/2+x,1/2+y,z
1/2-x,1/2+y,1/2-z
1/2-x,1/2-y,-z
1/2+x,1/2-y,1/2+z
loop_
_atom_site_type_symbol
_atom_site_label
_atom_site_fract_x
_atom_site_fract_y
_atom_site_fract_z
Si Si1 0.500000 0.176488 0.750000
Si Si2 0.183037 0.017253 0.949556
Si Si3 0.000000 0.624679 0.250000
Si Si4 0.160714 0.111388 0.104579
Si Si5 0.823961 0.791460 0.147703
O O1 0.529791 0.150040 0.504297
O O2 0.328083 0.199888 0.681969
O O3 0.175806 0.070996 0.913129
O O4 0.259717 0.004687 0.214197
O O5 0.000000 0.000000 0.000000
O O6 0.821419 0.604599 0.274188
O O7 0.000000 0.102893 0.250000
O O8 0.146008 0.161696 0.995726
O O9 0.000000 0.778319 0.250000
O O10 0.750000 0.750000 0.000000
#
# Coordination Sequence:
#
# PCOD9283140 Si02
#       5
#     4   8   4   8   8
#     4  10  24  48  68  99 150 174 248 297 352 424
#     4  10  21  39  68 102 139 174 233 300 346 429
#     4  10  24  44  68 105 136 188 232 297 346 442
#     4  11  23  43  73 101 144 193 239 292 375 428
#     4  11  27  43  73 107 144 197 246 300 367 433
#
# _framework density 23.575990999999998
#
# number of rings (size 3 to 8) (size 9 to 14) (size 15 to 20)
#    0.000    1.500    2.500    1.500   12.250    5.000 
#    0.000    1.250    0.000    0.000    0.000    0.000 
#    0.000    0.000    0.000    0.000    0.000    0.000 
#
# Total GULP energy -89095.787301 kJ/mol
# GULP energy per Si atom -5568.486706 kJ/mol
# Density = 2.352233 g / cm^3
# Si number density = 23.575991 Si / 1000 Ang^3
#
#
#
# Elastic Constant Matrix: (Units=GPa)
#
#
# Indices 1 2 3 4 5 6 
#
# 1 177.5235 3.1321 32.5789 0.0000 43.2205 0.0000
# 2 3.1321 151.9246 37.5663 0.0000 9.7856 0.0000
# 3 32.5789 37.5663 113.1636 0.0000 0.2668 0.0000
# 4 0.0000 0.0000 0.0000 29.9445 0.0000 4.9629
# 5 43.2205 9.7856 0.2668 0.0000 47.5156 0.0000
# 6 0.0000 0.0000 0.0000 4.9629 0.0000 -1.2837
#
#
#
# Elastic Compliance Matrix: (Units=1/GPa)
#
#
# Indices 1 2 3 4 5 6 
#
# 1 0.007874 0.000944 -0.002563 0.000000 -0.007343 0.000000
# 2 0.000944 0.007387 -0.002719 0.000000 -0.002365 0.000000
# 3 -0.002563 -0.002719 0.010471 0.000000 0.002833 0.000000
# 4 0.000000 0.000000 0.000000 0.020354 0.000000 0.078687
# 5 -0.007343 -0.002365 0.002833 0.000000 0.028196 0.000000
# 6 0.000000 0.000000 0.000000 0.078687 0.000000 -0.474775
#
#
# Mechanical properties :
#
#
# Convention : Reuss Voigt Hill
#
# Bulk Modulus (GPa) = 58.62537 65.46291 62.04414
# Shear Modulus (GPa) = -12.94894 39.85756 13.45431
#
# Velocity S-wave (km/s) = -2.34614 4.11615 2.39148
# Velocity P-wave (km/s) = 4.19302 7.10051 5.83090
#
# Compressibility (1/GPa) = 0.01705746
#
# Stress axis : x y z
#
# Youngs Moduli (GPa) = 126.99225 135.36700 95.50634
#
# Poissons Ratio (x) = -0.12784 0.24480
# Poissons Ratio (y) = -0.11993 0.25965
# Poissons Ratio (z) = 0.32551 0.36801
#
# Static dielectric constant tensor:
#      x y z
#    x -1.983980 0.000000 -0.205240 
#    y 0.000000 2.221050 0.000000 
#    z -0.205240 0.000000 1.686780 
# 
# From -- ./inp_files/2726.got.cif
#   From: 2010.05.17/outbox.cif.g08.bks.cpg/sg15_2_cif.got.tgz:2726.got - 2010.06.03 18:47:42.
