data_PCOD9283024
_publ_section_title
;
Structure prediction by ZEFSAII (Michael W. Deem and Ramdas Pophale) SiO2 
 PCOD9283024
Probable space group: C 2/C
;
_chemical_formula_sum "Si O2"
_cell_formula_units_Z 48
_cell_length_a 13.387263
_cell_length_b 27.405051
_cell_length_c 10.546139
_cell_angle_alpha 90.000000
_cell_angle_beta 35.986486
_cell_angle_gamma 90.000000
_cell_volume 2273.492693
_symmetry_space_group_name_H-M "C 2/C"
_symmetry_group_IT_number 15
_symmetry_cell_setting 'monoclinic'
loop_
_space_group_symop_operation_xyz
x,y,z
-x,y,1/2-z
-x,-y,-z
x,-y,1/2+z
1/2+x,1/2+y,z
1/2-x,1/2+y,1/2-z
1/2-x,1/2-y,-z
1/2+x,1/2-y,1/2+z
loop_
_atom_site_type_symbol
_atom_site_label
_atom_site_fract_x
_atom_site_fract_y
_atom_site_fract_z
Si Si1 0.329638 0.117067 0.340990
Si Si2 0.677651 0.906901 0.136063
Si Si3 0.000000 0.173088 0.750000
Si Si4 0.000000 0.851857 0.750000
Si Si5 0.036448 0.682499 0.946266
Si Si6 0.384501 0.990503 0.741242
Si Si7 0.092507 0.783700 0.418064
O O1 0.500000 0.113497 0.250000
O O2 0.297578 0.062607 0.320537
O O3 0.165928 0.138382 0.579182
O O4 0.391232 0.157159 0.177835
O O5 0.500000 0.915953 0.250000
O O6 0.618654 0.863468 0.289338
O O7 0.728139 0.960308 0.135689
O O8 0.833616 0.884849 0.898626
O O9 0.997796 0.204940 0.623583
O O10 0.033445 0.820181 0.589863
O O11 0.209351 0.707586 0.818788
O O12 0.940707 0.729924 0.990037
O O13 0.500000 0.987390 0.750000
O O14 0.500000 0.000000 0.500000
#
# Coordination Sequence:
#
# PCOD9283024 Si02
#       7
#     8   8   4   4   8   8   8
#     4  11  23  42  66  92 132 165 208 265 313 373
#     4  10  23  41  67  93 125 172 207 260 319 368
#     4  12  26  41  66  98 126 167 216 250 322 372
#     4  10  26  43  62  96 134 157 218 258 308 380
#     4  11  23  41  66  89 133 165 213 262 316 365
#     4  10  21  39  66  95 122 163 212 252 315 376
#     4  11  26  41  63  98 125 171 212 260 309 379
#
# _framework density 21.11289
#
# number of rings (size 3 to 8) (size 9 to 14) (size 15 to 20)
#    0.000    1.333    3.333    1.000    7.000    3.333 
#    0.000    0.000    0.000    7.000    0.000    0.000 
#    0.000    0.000    0.000    0.000    0.000    0.000 
#
# Total GULP energy -133622.320835 kJ/mol
# GULP energy per Si atom -5567.596701 kJ/mol
# Density = 2.106484 g / cm^3
# Si number density = 21.112890 Si / 1000 Ang^3
#
#
#
# Elastic Constant Matrix: (Units=GPa)
#
#
# Indices 1 2 3 4 5 6 
#
# 1 33.5217 -2.2057 17.9614 0.0000 5.7644 0.0000
# 2 -2.2057 143.8676 64.0183 0.0000 -6.6993 0.0000
# 3 17.9614 64.0183 130.3927 0.0000 -1.9825 0.0000
# 4 0.0000 0.0000 0.0000 60.4079 0.0000 5.8349
# 5 5.7644 -6.6993 -1.9825 0.0000 31.4089 0.0000
# 6 0.0000 0.0000 0.0000 5.8349 0.0000 21.2095
#
#
#
# Elastic Compliance Matrix: (Units=1/GPa)
#
#
# Indices 1 2 3 4 5 6 
#
# 1 0.034480 0.003071 -0.006350 0.000000 -0.006074 0.000000
# 2 0.003071 0.009251 -0.004948 0.000000 0.001097 0.000000
# 3 -0.006350 -0.004948 0.010985 0.000000 0.000803 0.000000
# 4 0.000000 0.000000 0.000000 0.017006 0.000000 -0.004679
# 5 -0.006074 0.001097 0.000803 0.000000 0.033238 0.000000
# 6 0.000000 0.000000 0.000000 -0.004679 0.000000 0.048436
#
#
# Mechanical properties :
#
#
# Convention : Reuss Voigt Hill
#
# Bulk Modulus (GPa) = 26.13482 51.92556 39.03019
# Shear Modulus (GPa) = 27.38162 37.80577 32.59369
#
# Velocity S-wave (km/s) = 3.60518 4.23620 3.93336
# Velocity P-wave (km/s) = 5.45300 6.96956 6.25740
#
# Compressibility (1/GPa) = 0.03826313
#
# Stress axis : x y z
#
# Youngs Moduli (GPa) = 29.00203 108.09761 91.02920
#
# Poissons Ratio (x) = -0.33201 0.57803
# Poissons Ratio (y) = -0.08908 0.45044
# Poissons Ratio (z) = 0.18416 0.53490
#
# Static dielectric constant tensor:
#      x y z
#    x 1.807370 0.000000 -0.012290 
#    y 0.000000 1.869180 0.000000 
#    z -0.012290 0.000000 1.712100 
# 
# From -- ./inp_files/43986.got.cif
#   From: 2010.05.17/outbox.cif.g08.bks.cpg/sg15_22_cif.got.tgz:43986.got - 2010.06.03 18:47:42.
