data_PCOD9283280
_publ_section_title
;
Structure prediction by ZEFSAII (Michael W. Deem and Ramdas Pophale) SiO2 
 PCOD9283280
Probable space group: C 2/C
;
_chemical_formula_sum "Si O2"
_cell_formula_units_Z 40
_cell_length_a 12.726868
_cell_length_b 27.178756
_cell_length_c 5.317771
_cell_angle_alpha 90.000000
_cell_angle_beta 81.640956
_cell_angle_gamma 90.000000
_cell_volume 1819.878263
_symmetry_space_group_name_H-M "C 2/C"
_symmetry_group_IT_number 15
_symmetry_cell_setting 'monoclinic'
loop_
_space_group_symop_operation_xyz
x,y,z
-x,y,1/2-z
-x,-y,-z
x,-y,1/2+z
1/2+x,1/2+y,z
1/2-x,1/2+y,1/2-z
1/2-x,1/2-y,-z
1/2+x,1/2-y,1/2+z
loop_
_atom_site_type_symbol
_atom_site_label
_atom_site_fract_x
_atom_site_fract_y
_atom_site_fract_z
Si Si1 0.536517 0.876036 0.982842
Si Si2 0.715174 0.638455 0.197629
Si Si3 0.421131 0.770567 0.071553
Si Si4 0.371743 0.471223 0.792787
Si Si5 0.311869 0.698453 0.771665
O O1 0.500000 0.901503 0.250000
O O2 0.468408 0.824909 0.008061
O O3 0.500000 0.904510 0.750000
O O4 0.660290 0.864409 0.918014
O O5 0.671475 0.583505 0.223864
O O6 0.699590 0.664775 0.472579
O O7 0.661049 0.667616 0.984751
O O8 0.500000 0.747576 0.250000
O O9 0.303732 0.777367 0.230814
O O10 0.393016 0.740685 0.829443
O O11 0.500000 0.469029 0.750000
O O12 0.338352 0.504699 0.568347
#
# Coordination Sequence:
#
# PCOD9283280 Si02
#       5
#     8   8   8   8   8
#     4  11  20  37  59  87 123 178 215 255 314 376
#     4  12  22  42  66  97 126 168 226 266 324 396
#     4  10  21  40  56  87 131 180 230 257 318 356
#     4  10  23  45  73  98 125 159 203 273 349 404
#     4  11  24  36  62  92 127 178 226 271 301 381
#
# _framework density 21.979490999999999
#
# number of rings (size 3 to 8) (size 9 to 14) (size 15 to 20)
#    0.000    1.200    6.000    1.200    0.000    7.200 
#    0.000    2.000    0.000    3.600    0.000    0.000 
#    0.000    0.000    0.000    0.000    0.000    0.000 
#
# Total GULP energy -111872.255870 kJ/mol
# GULP energy per Si atom -5593.612794 kJ/mol
# Density = 2.192946 g / cm^3
# Si number density = 21.979491 Si / 1000 Ang^3
#
#
#
# Elastic Constant Matrix: (Units=GPa)
#
#
# Indices 1 2 3 4 5 6 
#
# 1 68.0168 26.9419 26.2407 0.0000 14.0177 0.0000
# 2 26.9419 83.9391 29.2317 0.0000 15.5777 0.0000
# 3 26.2407 29.2317 164.2844 0.0000 27.9455 0.0000
# 4 0.0000 0.0000 0.0000 27.3054 0.0000 0.9522
# 5 14.0177 15.5777 27.9455 0.0000 34.3350 0.0000
# 6 0.0000 0.0000 0.0000 0.9522 0.0000 24.4943
#
#
#
# Elastic Compliance Matrix: (Units=1/GPa)
#
#
# Indices 1 2 3 4 5 6 
#
# 1 0.017857 -0.004491 -0.001346 0.000000 -0.004157 0.000000
# 2 -0.004491 0.014474 -0.001222 0.000000 -0.003739 0.000000
# 3 -0.001346 -0.001222 0.007349 0.000000 -0.004878 0.000000
# 4 0.000000 0.000000 0.000000 0.036673 0.000000 -0.001426
# 5 -0.004157 -0.003739 -0.004878 0.000000 0.036488 0.000000
# 6 0.000000 0.000000 0.000000 -0.001426 0.000000 0.040881
#
#
# Mechanical properties :
#
#
# Convention : Reuss Voigt Hill
#
# Bulk Modulus (GPa) = 39.12069 53.45210 46.28640
# Shear Modulus (GPa) = 28.35069 32.81534 30.58302
#
# Velocity S-wave (km/s) = 3.59537 3.86813 3.73424
# Velocity P-wave (km/s) = 5.92224 6.65746 6.30058
#
# Compressibility (1/GPa) = 0.02556192
#
# Stress axis : x y z
#
# Youngs Moduli (GPa) = 55.99926 69.08736 136.07033
#
# Poissons Ratio (x) = 0.31030 0.18315
# Poissons Ratio (y) = 0.25152 0.16630
# Poissons Ratio (z) = 0.07537 0.08443
#
# Static dielectric constant tensor:
#      x y z
#    x 1.817430 0.000000 -0.001800 
#    y 0.000000 1.750240 0.000000 
#    z -0.001800 0.000000 1.957880 
# 
# From -- ./inp_files/5013.got.cif
#   From: 2010.05.17/outbox.cif.g08.bks.cpg/sg15_3_cif.got.tgz:5013.got - 2010.06.03 18:47:42.
