data_PCOD9283221
_publ_section_title
;
Structure prediction by ZEFSAII (Michael W. Deem and Ramdas Pophale) SiO2 
 PCOD9283221
Probable space group: C 2/C
;
_chemical_formula_sum "Si O2"
_cell_formula_units_Z 56
_cell_length_a 11.694459
_cell_length_b 15.501722
_cell_length_c 13.814343
_cell_angle_alpha 90.000000
_cell_angle_beta 93.675603
_cell_angle_gamma 90.000000
_cell_volume 2499.171466
_symmetry_space_group_name_H-M "C 2/C"
_symmetry_group_IT_number 15
_symmetry_cell_setting 'monoclinic'
loop_
_space_group_symop_operation_xyz
x,y,z
-x,y,1/2-z
-x,-y,-z
x,-y,1/2+z
1/2+x,1/2+y,z
1/2-x,1/2+y,1/2-z
1/2-x,1/2-y,-z
1/2+x,1/2-y,1/2+z
loop_
_atom_site_type_symbol
_atom_site_label
_atom_site_fract_x
_atom_site_fract_y
_atom_site_fract_z
Si Si1 0.713129 0.487883 0.046618
Si Si2 0.047657 0.526530 0.397916
Si Si3 0.697913 0.015294 0.665114
Si Si4 0.945422 0.280996 0.638845
Si Si5 0.728206 0.211047 0.711187
Si Si6 0.121973 0.101235 0.204079
Si Si7 0.664788 0.296141 0.069081
O O1 0.835687 0.473280 0.109724
O O2 0.636317 0.556478 0.099952
O O3 0.652189 0.395852 0.041835
O O4 0.752217 0.513186 0.941443
O O5 0.090409 0.624167 0.394852
O O6 0.000000 0.500000 0.500000
O O7 0.929945 0.522717 0.331886
O O8 0.682216 0.115643 0.690821
O O9 0.784430 0.953241 0.728430
O O10 0.834002 0.222892 0.643009
O O11 0.000000 0.284304 0.750000
O O12 0.041569 0.248156 0.570856
O O13 0.651009 0.296920 0.699297
O O14 0.779723 0.211720 0.821927
O O15 0.000000 0.089619 0.250000
O O16 0.750000 0.250000 0.000000
#
# Coordination Sequence:
#
# PCOD9283221 Si02
#       7
#     8   8   8   8   8   8   8
#     4  11  24  44  70 102 141 181 229 292 352 423
#     4  10  21  42  68  98 131 174 230 289 339 411
#     4  11  25  46  72 102 137 186 236 283 357 418
#     4  10  21  39  69  93 134 184 231 276 339 424
#     4  11  24  45  67  99 136 189 230 288 354 412
#     4  12  27  47  68 102 146 181 235 295 358 417
#     4  11  22  40  69 105 138 179 240 283 343 417
#
# _framework density 22.407425
#
# number of rings (size 3 to 8) (size 9 to 14) (size 15 to 20)
#    0.000    1.143    2.857    4.286    2.000    2.286 
#    2.571    0.000    0.000    0.000    0.000    0.000 
#    0.000    0.000    0.000    0.000    0.000    0.000 
#
# Total GULP energy -156505.570660 kJ/mol
# GULP energy per Si atom -5589.484666 kJ/mol
# Density = 2.235642 g / cm^3
# Si number density = 22.407425 Si / 1000 Ang^3
#
#
#
# Elastic Constant Matrix: (Units=GPa)
#
#
# Indices 1 2 3 4 5 6 
#
# 1 89.6261 11.6146 27.7495 0.0000 -33.3172 0.0000
# 2 11.6146 126.4110 27.5626 0.0000 -12.3842 0.0000
# 3 27.7495 27.5626 77.3780 0.0000 -36.3505 0.0000
# 4 0.0000 0.0000 0.0000 33.7839 0.0000 -11.3508
# 5 -33.3172 -12.3842 -36.3505 0.0000 41.9695 0.0000
# 6 0.0000 0.0000 0.0000 -11.3508 0.0000 29.1144
#
#
#
# Elastic Compliance Matrix: (Units=1/GPa)
#
#
# Indices 1 2 3 4 5 6 
#
# 1 0.015845 -0.000298 0.000491 0.000000 0.012917 0.000000
# 2 -0.000298 0.008583 -0.003156 0.000000 -0.000437 0.000000
# 3 0.000491 -0.003156 0.022959 0.000000 0.019344 0.000000
# 4 0.000000 0.000000 0.000000 0.034062 0.000000 0.013280
# 5 0.012917 -0.000437 0.019344 0.000000 0.050706 0.000000
# 6 0.000000 0.000000 0.000000 0.013280 0.000000 0.039525
#
#
# Mechanical properties :
#
#
# Convention : Reuss Voigt Hill
#
# Bulk Modulus (GPa) = 24.11769 47.47426 35.79598
# Shear Modulus (GPa) = 26.11986 36.07279 31.09632
#
# Velocity S-wave (km/s) = 3.41791 4.01666 3.72932
# Velocity P-wave (km/s) = 5.13447 6.53791 5.87822
#
# Compressibility (1/GPa) = 0.04146334
#
# Stress axis : x y z
#
# Youngs Moduli (GPa) = 63.10961 116.50431 43.55609
#
# Poissons Ratio (x) = 0.03467 -0.02140
# Poissons Ratio (y) = 0.01878 0.13746
# Poissons Ratio (z) = -0.03101 0.36769
#
# Static dielectric constant tensor:
#      x y z
#    x 1.882690 0.000000 0.111400 
#    y 0.000000 1.766290 0.000000 
#    z 0.111400 0.000000 1.949700 
# 
# From -- ./inp_files/144247.got.cif
#   From: 2010.05.17/outbox.cif.g08.bks.cpg/sg15_73_cif.got.tgz:144247.got - 2010.06.03 18:47:42.
