data_PCOD9283370
_publ_section_title
;
Structure prediction by ZEFSAII (Michael W. Deem and Ramdas Pophale) SiO2 
 PCOD9283370
Probable space group: C 2/C
;
_chemical_formula_sum "Si O2"
_cell_formula_units_Z 56
_cell_length_a 14.573802
_cell_length_b 21.208051
_cell_length_c 17.300800
_cell_angle_alpha 90.000000
_cell_angle_beta 31.629036
_cell_angle_gamma 90.000000
_cell_volume 2804.251507
_symmetry_space_group_name_H-M "C 2/C"
_symmetry_group_IT_number 15
_symmetry_cell_setting 'monoclinic'
loop_
_space_group_symop_operation_xyz
x,y,z
-x,y,1/2-z
-x,-y,-z
x,-y,1/2+z
1/2+x,1/2+y,z
1/2-x,1/2+y,1/2-z
1/2-x,1/2-y,-z
1/2+x,1/2-y,1/2+z
loop_
_atom_site_type_symbol
_atom_site_label
_atom_site_fract_x
_atom_site_fract_y
_atom_site_fract_z
Si Si1 0.571585 0.260217 0.385727
Si Si2 0.228351 0.838765 0.865006
Si Si3 0.055679 0.943683 0.903239
Si Si4 0.500000 0.152289 0.750000
Si Si5 0.940474 0.684253 0.620458
Si Si6 0.621872 0.942202 0.933302
Si Si7 0.255527 0.043950 0.986794
Si Si8 0.000000 0.565988 0.250000
O O1 0.646104 0.201597 0.281920
O O2 0.382984 0.290681 0.500678
O O3 0.733088 0.307787 0.261121
O O4 0.539754 0.235583 0.496358
O O5 0.067030 0.876969 0.939825
O O6 0.357311 0.888706 0.812331
O O7 0.251236 0.941198 0.730414
O O8 0.930375 0.956316 0.920658
O O9 0.000000 0.000000 0.000000
O O10 0.477182 0.189194 0.685956
O O11 0.343423 0.103907 0.880867
O O12 0.004627 0.618144 0.539205
O O13 0.740353 0.948142 0.924794
O O14 0.500000 0.000000 0.000000
O O15 0.378154 0.982846 0.885060
#
# Coordination Sequence:
#
# PCOD9283370 Si02
#       8
#     8   8   8   4   8   8   8   4
#     4  10  23  41  63  89 125 175 222 261 306 384
#     4  11  23  42  67  91 129 171 219 265 323 379
#     4  12  23  40  66  96 122 165 207 270 331 385
#     4   9  20  36  62  90 126 164 199 274 316 382
#     4  10  21  40  60  93 125 167 219 261 319 378
#     4  11  24  39  64  92 129 168 207 267 326 386
#     4  10  22  38  61  97 133 157 209 260 337 392
#     4  11  22  40  64  96 128 168 211 270 322 392
#
# _framework density 19.969678999999999
#
# number of rings (size 3 to 8) (size 9 to 14) (size 15 to 20)
#    0.000    1.429    2.857    2.143    6.000    1.143 
#    0.000    1.429    0.000    0.000    0.000    0.000 
#    0.000    0.000    0.000    0.000    0.000    0.000 
#
# Total GULP energy -155877.907610 kJ/mol
# GULP energy per Si atom -5567.068129 kJ/mol
# Density = 1.992423 g / cm^3
# Si number density = 19.969679 Si / 1000 Ang^3
#
#
#
# Elastic Constant Matrix: (Units=GPa)
#
#
# Indices 1 2 3 4 5 6 
#
# 1 60.9603 32.0222 21.5615 0.0043 -7.2430 -0.0021
# 2 32.0222 64.0126 22.6311 0.0140 -4.1275 -0.0101
# 3 21.5615 22.6311 109.7196 0.0090 7.7757 -0.0094
# 4 0.0043 0.0140 0.0090 32.3158 -0.0013 1.9187
# 5 -7.2430 -4.1275 7.7757 -0.0013 24.8737 0.0010
# 6 -0.0021 -0.0101 -0.0094 1.9187 0.0010 22.5966
#
#
#
# Elastic Compliance Matrix: (Units=1/GPa)
#
#
# Indices 1 2 3 4 5 6 
#
# 1 0.023618 -0.010388 -0.002929 0.000003 0.006069 -0.000004
# 2 -0.010388 0.021812 -0.002556 -0.000008 0.001394 0.000008
# 3 -0.002929 -0.002556 0.010541 -0.000002 -0.004572 0.000003
# 4 0.000003 -0.000008 -0.000002 0.031101 0.000002 -0.002641
# 5 0.006069 0.001394 -0.004572 0.000002 0.043631 -0.000003
# 6 -0.000004 0.000008 0.000003 -0.002641 -0.000003 0.044479
#
#
# Mechanical properties :
#
#
# Convention : Reuss Voigt Hill
#
# Bulk Modulus (GPa) = 41.28011 43.01356 42.14684
# Shear Modulus (GPa) = 23.25543 26.52238 24.88891
#
# Velocity S-wave (km/s) = 3.41623 3.64831 3.53418
# Velocity P-wave (km/s) = 6.02305 6.27161 6.14859
#
# Compressibility (1/GPa) = 0.02422474
#
# Stress axis : x y z
#
# Youngs Moduli (GPa) = 42.34078 45.84588 94.86772
#
# Poissons Ratio (x) = 0.47625 0.27784
# Poissons Ratio (y) = 0.43984 0.24252
# Poissons Ratio (z) = 0.12400 0.11720
#
# Static dielectric constant tensor:
#      x y z
#    x 1.674100 -0.000020 -0.136040 
#    y -0.000020 1.761250 -0.000020 
#    z -0.136040 -0.000020 1.443230 
# 
# From -- ./inp_files/41297.got.cif
#   From: 2010.05.17/outbox.cif.g08.bks.cpg/sg15_21_cif.got.tgz:41297.got - 2010.06.03 18:47:42.
