data_PCOD9283364
_publ_section_title
;
Structure prediction by ZEFSAII (Michael W. Deem and Ramdas Pophale) SiO2 
 PCOD9283364
Probable space group: C 2/C
;
_chemical_formula_sum "Si O2"
_cell_formula_units_Z 56
_cell_length_a 24.615996
_cell_length_b 14.502282
_cell_length_c 9.748822
_cell_angle_alpha 90.000000
_cell_angle_beta 51.649417
_cell_angle_gamma 90.000000
_cell_volume 2729.284077
_symmetry_space_group_name_H-M "C 2/C"
_symmetry_group_IT_number 15
_symmetry_cell_setting 'monoclinic'
loop_
_space_group_symop_operation_xyz
x,y,z
-x,y,1/2-z
-x,-y,-z
x,-y,1/2+z
1/2+x,1/2+y,z
1/2-x,1/2+y,1/2-z
1/2-x,1/2-y,-z
1/2+x,1/2-y,1/2+z
loop_
_atom_site_type_symbol
_atom_site_label
_atom_site_fract_x
_atom_site_fract_y
_atom_site_fract_z
Si Si1 0.466805 0.098051 0.028476
Si Si2 0.680287 0.904710 0.864491
Si Si3 0.500000 0.192237 0.250000
Si Si4 0.652577 0.288019 0.557460
Si Si5 0.500000 0.763087 0.250000
Si Si6 0.860618 0.756617 0.598409
Si Si7 0.780080 0.152280 0.996430
Si Si8 0.248184 0.905182 0.231414
O O1 0.399743 0.081266 0.040434
O O2 0.458901 0.138086 0.194006
O O3 0.508475 0.170925 0.869780
O O4 0.500000 0.000000 0.000000
O O5 0.713710 0.897000 0.661765
O O6 0.719198 0.995507 0.852956
O O7 0.684807 0.807764 0.941055
O O8 0.439675 0.242991 0.428621
O O9 0.572960 0.291080 0.626852
O O10 0.649358 0.279999 0.726558
O O11 0.700226 0.373715 0.434405
O O12 0.831267 0.834807 0.542188
O O13 0.813809 0.665208 0.641159
O O14 0.750000 0.250000 0.000000
O O15 0.802963 0.111546 0.817630
#
# Coordination Sequence:
#
# PCOD9283364 Si02
#       8
#     8   8   4   8   4   8   8   8
#     4  11  22  38  57  91 134 173 220 264 334 419
#     4  11  24  38  67  93 139 177 218 276 339 399
#     4  12  23  38  62  91 128 182 224 274 341 403
#     4  11  23  43  63  97 136 173 228 273 334 411
#     4  10  23  38  62  91 130 180 216 278 339 395
#     4  11  23  40  61  91 128 172 225 274 332 392
#     4  10  21  40  60  91 125 171 224 272 324 390
#     4  11  24  39  67  94 133 179 223 277 332 401
#
# _framework density 20.518201999999999
#
# number of rings (size 3 to 8) (size 9 to 14) (size 15 to 20)
#    0.000    1.143    4.286    3.429    4.000    2.286 
#    0.000    0.000    0.000    0.857    0.000    4.000 
#    0.000    0.000    0.000    0.000    0.000    0.000 
#
# Total GULP energy -155956.902411 kJ/mol
# GULP energy per Si atom -5569.889372 kJ/mol
# Density = 2.047150 g / cm^3
# Si number density = 20.518202 Si / 1000 Ang^3
#
#
#
# Elastic Constant Matrix: (Units=GPa)
#
#
# Indices 1 2 3 4 5 6 
#
# 1 71.8288 16.2850 31.0688 0.0000 0.7130 0.0000
# 2 16.2850 23.2281 8.7183 0.0000 -1.8346 0.0000
# 3 31.0688 8.7183 122.9637 0.0000 14.0931 0.0000
# 4 0.0000 0.0000 0.0000 176.8173 0.0000 1.9935
# 5 0.7130 -1.8346 14.0931 0.0000 50.6658 0.0000
# 6 0.0000 0.0000 0.0000 1.9935 0.0000 24.4051
#
#
#
# Elastic Compliance Matrix: (Units=1/GPa)
#
#
# Indices 1 2 3 4 5 6 
#
# 1 0.018121 -0.011236 -0.003828 0.000000 0.000403 0.000000
# 2 -0.011236 0.051518 -0.001080 0.000000 0.002324 0.000000
# 3 -0.003828 -0.001080 0.009477 0.000000 -0.002621 0.000000
# 4 0.000000 0.000000 0.000000 0.005661 0.000000 -0.000462
# 5 0.000403 0.002324 -0.002621 0.000000 0.020545 0.000000
# 6 0.000000 0.000000 0.000000 -0.000462 0.000000 0.041013
#
#
# Mechanical properties :
#
#
# Convention : Reuss Voigt Hill
#
# Bulk Modulus (GPa) = 21.35508 36.68496 29.02002
# Shear Modulus (GPa) = 25.74248 61.17420 43.45834
#
# Velocity S-wave (km/s) = 3.54590 5.46620 4.60721
# Velocity P-wave (km/s) = 5.21488 7.59981 6.51737
#
# Compressibility (1/GPa) = 0.04682726
#
# Stress axis : x y z
#
# Youngs Moduli (GPa) = 55.18387 19.41082 105.52150
#
# Poissons Ratio (x) = 0.21810 0.40395
# Poissons Ratio (y) = 0.62004 0.11397
# Poissons Ratio (z) = 0.21125 0.02097
#
# Static dielectric constant tensor:
#      x y z
#    x 1.806420 0.000000 0.009350 
#    y 0.000000 1.691480 0.000000 
#    z 0.009350 0.000000 1.792340 
# 
# From -- ./inp_files/61845.got.cif
#   From: 2010.05.17/outbox.cif.g08.bks.cpg/sg15_31_cif.got.tgz:61845.got - 2010.06.03 18:47:42.
