data_PCOD9283779
_publ_section_title
;
Structure prediction by ZEFSAII (Michael W. Deem and Ramdas Pophale) SiO2 
 PCOD9283779
Probable space group: C 2/C
;
_chemical_formula_sum "Si O2"
_cell_formula_units_Z 48
_cell_length_a 18.782424
_cell_length_b 13.569807
_cell_length_c 14.528801
_cell_angle_alpha 90.000000
_cell_angle_beta 152.185950
_cell_angle_gamma 90.000000
_cell_volume 1727.838384
_symmetry_space_group_name_H-M "C 2/C"
_symmetry_group_IT_number 15
_symmetry_cell_setting 'monoclinic'
loop_
_space_group_symop_operation_xyz
x,y,z
-x,y,1/2-z
-x,-y,-z
x,-y,1/2+z
1/2+x,1/2+y,z
1/2-x,1/2+y,1/2-z
1/2-x,1/2-y,-z
1/2+x,1/2-y,1/2+z
loop_
_atom_site_type_symbol
_atom_site_label
_atom_site_fract_x
_atom_site_fract_y
_atom_site_fract_z
Si Si1 0.268215 0.607766 0.096049
Si Si2 0.679627 0.594793 0.942260
Si Si3 0.522813 0.239096 0.892996
Si Si4 0.350890 0.428914 0.899232
Si Si5 0.674014 0.327328 0.247094
Si Si6 0.627637 0.083520 0.659027
O O1 0.246554 0.506946 0.013813
O O2 0.426172 0.664243 0.258095
O O3 0.136920 0.690882 0.949811
O O4 0.275269 0.581677 0.213248
O O5 0.500000 0.571463 0.750000
O O6 0.696397 0.675556 0.882123
O O7 0.718619 0.629251 0.091505
O O8 0.614400 0.260789 0.094161
O O9 0.409761 0.154487 0.800639
O O10 0.294051 0.535987 0.865437
O O11 0.526665 0.403561 0.085379
O O12 0.840673 0.358547 0.398886
O O13 0.500000 0.000000 0.500000
#
# Coordination Sequence:
#
# PCOD9283779 Si02
#       6
#     8   8   8   8   8   8
#     4  11  22  42  66  94 130 170 212 267 319 379
#     4  10  22  39  68  96 121 171 223 256 315 390
#     4  11  23  37  68  95 129 171 208 265 333 376
#     4  10  22  39  70  90 123 171 215 259 314 381
#     4  10  21  40  64  92 129 166 213 264 317 382
#     4  12  21  38  67  93 124 168 218 263 315 382
#
# _framework density 27.780376
#
# number of rings (size 3 to 8) (size 9 to 14) (size 15 to 20)
#    0.000    1.333    5.000    0.500    7.000    0.000 
#    0.000    7.500    7.333    0.000    0.000    0.000 
#    0.000    0.000    0.000    0.000    0.000    0.000 
#
# Total GULP energy -134031.574381 kJ/mol
# GULP energy per Si atom -5584.648933 kJ/mol
# Density = 2.771715 g / cm^3
# Si number density = 27.780376 Si / 1000 Ang^3
#
#
#
# Elastic Constant Matrix: (Units=GPa)
#
#
# Indices 1 2 3 4 5 6 
#
# 1 229.1137 46.0071 43.7983 -0.0001 -2.6361 -0.0001
# 2 46.0071 94.8659 29.0406 -0.0001 5.8250 0.0000
# 3 43.7983 29.0406 65.7659 -0.0001 -0.1017 -0.0001
# 4 -0.0001 -0.0001 -0.0001 29.0485 -0.0001 -6.8610
# 5 -2.6361 5.8250 -0.1017 -0.0001 49.7891 -0.0001
# 6 -0.0001 0.0000 -0.0001 -6.8610 -0.0001 56.8429
#
#
#
# Elastic Compliance Matrix: (Units=1/GPa)
#
#
# Indices 1 2 3 4 5 6 
#
# 1 0.005239 -0.001737 -0.002721 0.000000 0.000475 0.000000
# 2 -0.001737 0.012868 -0.004528 0.000000 -0.001607 0.000000
# 3 -0.002721 -0.004528 0.019018 0.000000 0.000425 0.000000
# 4 0.000000 0.000000 0.000000 0.035435 0.000000 0.004277
# 5 0.000475 -0.001607 0.000425 0.000000 0.020299 0.000000
# 6 0.000000 0.000000 0.000000 0.004277 0.000000 0.018109
#
#
# Mechanical properties :
#
#
# Convention : Reuss Voigt Hill
#
# Bulk Modulus (GPa) = 52.21213 69.71527 60.96370
# Shear Modulus (GPa) = 36.94803 45.19607 41.07205
#
# Velocity S-wave (km/s) = 3.65088 4.03787 3.84924
# Velocity P-wave (km/s) = 6.05040 6.84754 6.46127
#
# Compressibility (1/GPa) = 0.01915264
#
# Stress axis : x y z
#
# Youngs Moduli (GPa) = 190.87169 77.70999 52.58176
#
# Poissons Ratio (x) = 0.13497 0.14310
# Poissons Ratio (y) = 0.33152 0.23810
# Poissons Ratio (z) = 0.51944 0.35188
#
# Static dielectric constant tensor:
#      x y z
#    x 2.205990 0.000000 -0.127520 
#    y 0.000000 2.452140 0.000000 
#    z -0.127520 0.000000 2.303570 
# 
# From -- ./inp_files/163316.got.cif
#   From: 2010.05.17/outbox.cif.g08.bks.cpg/sg15_82_cif.got.tgz:163316.got - 2010.06.03 18:47:42.
