data_PCOD9283821
_publ_section_title
;
Structure prediction by ZEFSAII (Michael W. Deem and Ramdas Pophale) SiO2 
 PCOD9283821
Probable space group: C 2/C
;
_chemical_formula_sum "Si O2"
_cell_formula_units_Z 40
_cell_length_a 8.507154
_cell_length_b 19.090603
_cell_length_c 13.492420
_cell_angle_alpha 90.000000
_cell_angle_beta 103.229878
_cell_angle_gamma 90.000000
_cell_volume 2133.102704
_symmetry_space_group_name_H-M "C 2/C"
_symmetry_group_IT_number 15
_symmetry_cell_setting 'monoclinic'
loop_
_space_group_symop_operation_xyz
x,y,z
-x,y,1/2-z
-x,-y,-z
x,-y,1/2+z
1/2+x,1/2+y,z
1/2-x,1/2+y,1/2-z
1/2-x,1/2-y,-z
1/2+x,1/2-y,1/2+z
loop_
_atom_site_type_symbol
_atom_site_label
_atom_site_fract_x
_atom_site_fract_y
_atom_site_fract_z
Si Si1 0.271668 0.682885 0.936237
Si Si2 0.132539 0.792746 0.409813
Si Si3 0.129673 0.587444 0.086951
Si Si4 0.830115 0.431994 0.405346
Si Si5 0.500000 0.139529 0.750000
Si Si6 0.000000 0.318993 0.750000
O O1 0.453360 0.689774 0.923212
O O2 0.142267 0.680858 0.827647
O O3 0.250000 0.750000 0.000000
O O4 0.227387 0.622737 0.009985
O O5 0.250000 0.750000 0.500000
O O6 0.203545 0.869149 0.397068
O O7 0.118890 0.736160 0.320051
O O8 0.215357 0.512777 0.116924
O O9 0.093503 0.634503 0.179764
O O10 0.950305 0.572862 0.016823
O O11 0.927121 0.409721 0.322738
#
# Coordination Sequence:
#
# PCOD9283821 Si02
#       6
#     8   8   8   8   4   4
#     4  11  22  42  64  95 127 170 214 269 318 388
#     4  12  23  40  65  95 130 169 219 269 321 387
#     4  10  22  40  65  92 131 169 216 263 322 392
#     4  10  21  40  64  96 127 171 212 265 328 384
#     4  10  21  40  66  89 128 166 214 256 321 382
#     4  12  21  40  68  95 128 176 222 268 323 388
#
# _framework density 18.752027999999999
#
# number of rings (size 3 to 8) (size 9 to 14) (size 15 to 20)
#    0.000    1.200    4.000    3.000    0.000    0.800 
#    0.000    0.000    8.800    0.000    0.000    0.000 
#    0.000    0.000    0.000    0.000    0.000    0.000 
#
# Total GULP energy -111368.483686 kJ/mol
# GULP energy per Si atom -5568.424184 kJ/mol
# Density = 1.870935 g / cm^3
# Si number density = 18.752028 Si / 1000 Ang^3
#
#
#
# Elastic Constant Matrix: (Units=GPa)
#
#
# Indices 1 2 3 4 5 6 
#
# 1 107.4689 63.2651 45.6259 0.0000 -11.9219 0.0000
# 2 63.2651 167.1192 60.8332 0.0000 -1.5494 0.0000
# 3 45.6259 60.8332 124.1327 0.0000 8.3283 0.0000
# 4 0.0000 0.0000 0.0000 21.4646 0.0000 4.1193
# 5 -11.9219 -1.5494 8.3283 0.0000 30.2727 0.0000
# 6 0.0000 0.0000 0.0000 4.1193 0.0000 22.4774
#
#
#
# Elastic Compliance Matrix: (Units=1/GPa)
#
#
# Indices 1 2 3 4 5 6 
#
# 1 0.013792 -0.003853 -0.003598 0.000000 0.006224 0.000000
# 2 -0.003853 0.008417 -0.002685 0.000000 -0.000348 0.000000
# 3 -0.003598 -0.002685 0.011002 0.000000 -0.004581 0.000000
# 4 0.000000 0.000000 0.000000 0.048286 0.000000 -0.008849
# 5 0.006224 -0.000348 -0.004581 0.000000 0.036727 0.000000
# 6 0.000000 0.000000 0.000000 -0.008849 0.000000 0.046111
#
#
# Mechanical properties :
#
#
# Convention : Reuss Voigt Hill
#
# Bulk Modulus (GPa) = 77.30148 82.01879 79.66013
# Shear Modulus (GPa) = 26.46625 30.10938 28.28781
#
# Velocity S-wave (km/s) = 3.76091 4.01142 3.88818
# Velocity P-wave (km/s) = 7.75705 8.08015 7.92025
#
# Compressibility (1/GPa) = 0.01293636
#
# Stress axis : x y z
#
# Youngs Moduli (GPa) = 72.50774 118.81183 90.89515
#
# Poissons Ratio (x) = 0.45784 0.32707
# Poissons Ratio (y) = 0.27941 0.24405
# Poissons Ratio (z) = 0.26091 0.31901
#
# Static dielectric constant tensor:
#      x y z
#    x 1.670360 0.000000 0.037430 
#    y 0.000000 1.876370 0.000000 
#    z 0.037430 0.000000 1.718200 
# 
# From -- ./inp_files/76762.got.cif
#   From: 2010.05.17/outbox.cif.g08.bks.cpg/sg15_39_cif.got.tgz:76762.got - 2010.06.03 18:47:42.
