data_PCOD9283186
_publ_section_title
;
Structure prediction by ZEFSAII (Michael W. Deem and Ramdas Pophale) SiO2 
 PCOD9283186
Probable space group: C 2/C
;
_chemical_formula_sum "Si O2"
_cell_formula_units_Z 40
_cell_length_a 19.963033
_cell_length_b 20.666929
_cell_length_c 7.777795
_cell_angle_alpha 90.000000
_cell_angle_beta 35.892944
_cell_angle_gamma 90.000000
_cell_volume 1881.302179
_symmetry_space_group_name_H-M "C 2/C"
_symmetry_group_IT_number 15
_symmetry_cell_setting 'monoclinic'
loop_
_space_group_symop_operation_xyz
x,y,z
-x,y,1/2-z
-x,-y,-z
x,-y,1/2+z
1/2+x,1/2+y,z
1/2-x,1/2+y,1/2-z
1/2-x,1/2-y,-z
1/2+x,1/2-y,1/2+z
loop_
_atom_site_type_symbol
_atom_site_label
_atom_site_fract_x
_atom_site_fract_y
_atom_site_fract_z
Si Si1 0.707447 0.573087 0.429273
Si Si2 0.094341 0.286054 0.295125
Si Si3 0.322390 0.352495 0.850478
Si Si4 0.156064 0.699538 0.269901
Si Si5 0.623642 0.550460 0.974460
O O1 0.660383 0.603832 0.352247
O O2 0.802198 0.625525 0.291339
O O3 0.635094 0.567863 0.752535
O O4 0.721736 0.498343 0.339852
O O5 0.123286 0.216191 0.308757
O O6 0.961395 0.300722 0.592606
O O7 0.187494 0.338136 0.163838
O O8 0.123562 0.278947 0.030805
O O9 0.373149 0.386832 0.911406
O O10 0.250000 0.750000 0.000000
O O11 0.500000 0.517795 0.250000
#
# Coordination Sequence:
#
# PCOD9283186 Si02
#       5
#     8   8   8   8   8
#     4  11  24  41  63  95 129 170 217 262 333 386
#     4   9  21  42  64  96 135 168 214 277 324 389
#     4  10  22  42  67  94 132 169 213 270 332 386
#     4  10  21  39  68  98 130 169 219 271 329 392
#     4  12  25  40  63  94 133 170 219 275 320 390
#
# _framework density 21.261869000000001
#
# number of rings (size 3 to 8) (size 9 to 14) (size 15 to 20)
#    0.000    1.600    2.000    1.800    5.600    0.000 
#    3.600   11.000    4.400    0.000    0.000    0.000 
#    0.000    0.000    0.000    0.000    0.000    0.000 
#
# Total GULP energy -111555.068298 kJ/mol
# GULP energy per Si atom -5577.753415 kJ/mol
# Density = 2.121348 g / cm^3
# Si number density = 21.261869 Si / 1000 Ang^3
#
#
#
# Elastic Constant Matrix: (Units=GPa)
#
#
# Indices 1 2 3 4 5 6 
#
# 1 66.3239 18.1280 23.8183 0.0000 -1.1766 0.0000
# 2 18.1280 78.6230 29.5833 0.0000 -5.2560 0.0000
# 3 23.8183 29.5833 78.0856 0.0000 -4.5270 0.0000
# 4 0.0000 0.0000 0.0000 14.9030 0.0000 -0.2128
# 5 -1.1766 -5.2560 -4.5270 0.0000 43.6694 0.0000
# 6 0.0000 0.0000 0.0000 -0.2128 0.0000 16.8284
#
#
#
# Elastic Compliance Matrix: (Units=1/GPa)
#
#
# Indices 1 2 3 4 5 6 
#
# 1 0.017296 -0.002350 -0.004401 0.000000 -0.000273 0.000000
# 2 -0.002350 0.015217 -0.004975 0.000000 0.001252 0.000000
# 3 -0.004401 -0.004975 0.016089 0.000000 0.000950 0.000000
# 4 0.000000 0.000000 0.000000 0.067113 0.000000 0.000849
# 5 -0.000273 0.001252 0.000950 0.000000 0.023141 0.000000
# 6 0.000000 0.000000 0.000000 0.000849 0.000000 0.059434
#
#
# Mechanical properties :
#
#
# Convention : Reuss Voigt Hill
#
# Bulk Modulus (GPa) = 39.76486 40.67687 40.22086
# Shear Modulus (GPa) = 21.72729 25.18033 23.45381
#
# Velocity S-wave (km/s) = 3.20017 3.44509 3.32489
# Velocity P-wave (km/s) = 5.69191 5.91589 5.80498
#
# Compressibility (1/GPa) = 0.02514783
#
# Stress axis : x y z
#
# Youngs Moduli (GPa) = 57.81831 65.71764 62.15419
#
# Poissons Ratio (x) = 0.15444 0.27355
# Poissons Ratio (y) = 0.13588 0.30925
# Poissons Ratio (z) = 0.25447 0.32698
#
# Static dielectric constant tensor:
#      x y z
#    x 1.806330 0.000000 -0.025400 
#    y 0.000000 1.788910 0.000000 
#    z -0.025400 0.000000 1.786330 
# 
# From -- ./inp_files/62855.got.cif
#   From: 2010.05.17/outbox.cif.g08.bks.cpg/sg15_32_cif.got.tgz:62855.got - 2010.06.03 18:47:42.
