data_PCOD9283210
_publ_section_title
;
Structure prediction by ZEFSAII (Michael W. Deem and Ramdas Pophale) SiO2 
 PCOD9283210
Probable space group: C 2/C
;
_chemical_formula_sum "Si O2"
_cell_formula_units_Z 44
_cell_length_a 5.402088
_cell_length_b 14.284865
_cell_length_c 24.461840
_cell_angle_alpha 90.000000
_cell_angle_beta 110.840552
_cell_angle_gamma 90.000000
_cell_volume 1764.170931
_symmetry_space_group_name_H-M "C 2/C"
_symmetry_group_IT_number 15
_symmetry_cell_setting 'monoclinic'
loop_
_space_group_symop_operation_xyz
x,y,z
-x,y,1/2-z
-x,-y,-z
x,-y,1/2+z
1/2+x,1/2+y,z
1/2-x,1/2+y,1/2-z
1/2-x,1/2-y,-z
1/2+x,1/2-y,1/2+z
loop_
_atom_site_type_symbol
_atom_site_label
_atom_site_fract_x
_atom_site_fract_y
_atom_site_fract_z
Si Si1 0.189402 0.979756 0.712993
Si Si2 0.260947 0.371353 0.363716
Si Si3 0.750000 0.750000 0.500000
Si Si4 0.990422 0.534514 0.089435
Si Si5 0.409157 0.321892 0.630996
Si Si6 0.750656 0.394254 0.471115
O O1 0.500000 0.984049 0.750000
O O2 0.000000 0.965939 0.750000
O O3 0.133383 0.893205 0.667665
O O4 0.111899 0.078693 0.678369
O O5 0.087321 0.454171 0.375361
O O6 0.097399 0.278429 0.340158
O O7 0.476739 0.349339 0.428860
O O8 0.610216 0.701505 0.434410
O O9 0.493536 0.823090 0.485010
O O10 0.140868 0.622414 0.125329
O O11 0.189664 0.483052 0.062580
O O12 0.748981 0.568438 0.032645
#
# Coordination Sequence:
#
# PCOD9283210 Si02
#       6
#     8   8   4   8   8   8
#     4  12  30  56  81 110 154 208 274 346 403 469
#     4  12  25  46  78 103 145 205 261 319 388 469
#     4  10  22  40  74 120 160 200 256 308 406 496
#     4  10  21  43  65 113 158 197 245 305 386 467
#     4  11  25  48  77 118 153 204 257 327 402 486
#     4  10  21  39  69 107 162 199 243 304 382 465
#
# _framework density 24.940892000000002
#
# number of rings (size 3 to 8) (size 9 to 14) (size 15 to 20)
#    0.000    1.091    3.636    1.636    0.000    8.000 
#    0.000    5.455    0.000    0.000    0.000    0.000 
#    0.000    0.000    0.000    0.000    0.000    0.000 
#
# Total GULP energy -122780.857614 kJ/mol
# GULP energy per Si atom -5580.948073 kJ/mol
# Density = 2.488413 g / cm^3
# Si number density = 24.940892 Si / 1000 Ang^3
#
#
#
# Elastic Constant Matrix: (Units=GPa)
#
#
# Indices 1 2 3 4 5 6 
#
# 1 68.1063 35.8232 16.0048 0.0000 3.0563 0.0000
# 2 35.8232 173.0586 34.3441 0.0000 -5.7149 0.0000
# 3 16.0048 34.3441 90.6672 0.0000 19.8941 0.0000
# 4 0.0000 0.0000 0.0000 19.5213 0.0000 6.0755
# 5 3.0563 -5.7149 19.8941 0.0000 36.9345 0.0000
# 6 0.0000 0.0000 0.0000 6.0755 0.0000 49.0679
#
#
#
# Elastic Compliance Matrix: (Units=1/GPa)
#
#
# Indices 1 2 3 4 5 6 
#
# 1 0.016773 -0.003208 -0.001511 0.000000 -0.001070 0.000000
# 2 -0.003208 0.007079 -0.002737 0.000000 0.002835 0.000000
# 3 -0.001511 -0.002737 0.014060 0.000000 -0.007872 0.000000
# 4 0.000000 0.000000 0.000000 0.053279 0.000000 -0.006597
# 5 -0.001070 0.002835 -0.007872 0.000000 0.031842 0.000000
# 6 0.000000 0.000000 0.000000 -0.006597 0.000000 0.021197
#
#
# Mechanical properties :
#
#
# Convention : Reuss Voigt Hill
#
# Bulk Modulus (GPa) = 43.47705 56.01959 49.74832
# Shear Modulus (GPa) = 29.97427 37.48208 33.72817
#
# Velocity S-wave (km/s) = 3.47048 3.88085 3.68139
# Velocity P-wave (km/s) = 5.79041 6.52618 6.16927
#
# Compressibility (1/GPa) = 0.02300064
#
# Stress axis : x y z
#
# Youngs Moduli (GPa) = 59.61897 141.25811 71.12258
#
# Poissons Ratio (x) = 0.45309 0.10747
# Poissons Ratio (y) = 0.19123 0.19470
# Poissons Ratio (z) = 0.09008 0.38669
#
# Static dielectric constant tensor:
#      x y z
#    x 1.980420 0.000000 -0.052270 
#    y 0.000000 2.012100 0.000000 
#    z -0.052270 0.000000 2.072580 
# 
# From -- ./inp_files/285399.got.cif
#   From: 2010.05.17/outbox.cif.g08.bks.cpg/sg15_143_cif.got.tgz:285399.got - 2010.06.03 18:47:42.
