data_PCOD9283252
_publ_section_title
;
Structure prediction by ZEFSAII (Michael W. Deem and Ramdas Pophale) SiO2 
 PCOD9283252
Probable space group: C 2/C
;
_chemical_formula_sum "Si O2"
_cell_formula_units_Z 64
_cell_length_a 23.932269
_cell_length_b 16.828438
_cell_length_c 21.208426
_cell_angle_alpha 90.000000
_cell_angle_beta 19.111240
_cell_angle_gamma 90.000000
_cell_volume 2796.527736
_symmetry_space_group_name_H-M "C 2/C"
_symmetry_group_IT_number 15
_symmetry_cell_setting 'monoclinic'
loop_
_space_group_symop_operation_xyz
x,y,z
-x,y,1/2-z
-x,-y,-z
x,-y,1/2+z
1/2+x,1/2+y,z
1/2-x,1/2+y,1/2-z
1/2-x,1/2-y,-z
1/2+x,1/2-y,1/2+z
loop_
_atom_site_type_symbol
_atom_site_label
_atom_site_fract_x
_atom_site_fract_y
_atom_site_fract_z
Si Si1 0.583611 0.364816 0.283122
Si Si2 0.167386 0.887094 0.839500
Si Si3 0.732915 0.719275 0.445764
Si Si4 0.183523 0.288517 0.272297
Si Si5 0.738714 0.008565 0.369396
Si Si6 0.473602 0.117883 0.101695
Si Si7 0.487331 0.703687 0.373144
Si Si8 0.656185 0.151128 0.537897
O O1 0.498579 0.370234 0.442228
O O2 0.440513 0.327141 0.388771
O O3 0.738220 0.302339 0.121199
O O4 0.654052 0.453363 0.196402
O O5 0.225717 0.801060 0.750960
O O6 0.313979 0.914734 0.731329
O O7 0.147453 0.950700 0.805855
O O8 0.750000 0.750000 0.500000
O O9 0.884437 0.664658 0.255332
O O10 0.081083 0.328894 0.437750
O O11 0.072948 0.268568 0.328499
O O12 0.349037 0.334853 0.068550
O O13 0.598340 0.950475 0.490778
O O14 0.641450 0.083148 0.501751
O O15 0.383381 0.757436 0.435754
O O16 0.634729 0.653954 0.181197
O O17 0.500000 0.129980 0.750000
#
# Coordination Sequence:
#
# PCOD9283252 Si02
#       8
#     8   8   8   8   8   8   8   8
#     4  11  25  40  67  99 136 182 234 289 353 410
#     4  11  22  41  64  97 138 178 222 289 360 422
#     4  11  24  46  69  97 134 189 252 291 329 416
#     4  11  19  37  67  99 131 165 222 283 347 409
#     4  12  25  41  64 100 142 179 220 290 370 422
#     4  11  24  39  69 100 136 183 230 288 354 420
#     4  10  21  39  70  98 126 169 226 279 340 411
#     4  11  24  45  68  96 134 179 231 280 338 408
#
# _framework density 22.885522999999999
#
# number of rings (size 3 to 8) (size 9 to 14) (size 15 to 20)
#    0.000    1.000    5.000    2.250    3.500    2.000 
#    0.000    3.750    0.000    1.500    0.000    0.000 
#    0.000    0.000    0.000    0.000    0.000    0.000 
#
# Total GULP energy -178399.055574 kJ/mol
# GULP energy per Si atom -5574.970487 kJ/mol
# Density = 2.283343 g / cm^3
# Si number density = 22.885523 Si / 1000 Ang^3
#
#
#
# Elastic Constant Matrix: (Units=GPa)
#
#
# Indices 1 2 3 4 5 6 
#
# 1 44.3594 6.4646 19.9461 -0.0345 11.1344 0.0490
# 2 6.4646 59.9200 2.7047 -0.0419 9.3202 0.0612
# 3 19.9461 2.7047 121.8521 -0.0482 19.9824 0.0904
# 4 -0.0345 -0.0419 -0.0482 26.5937 0.0085 -7.7247
# 5 11.1344 9.3202 19.9824 0.0085 38.5917 -0.0118
# 6 0.0490 0.0612 0.0904 -7.7247 -0.0118 14.6265
#
#
#
# Elastic Compliance Matrix: (Units=1/GPa)
#
#
# Indices 1 2 3 4 5 6 
#
# 1 0.025602 -0.001797 -0.003290 0.000009 -0.005249 -0.000057
# 2 -0.001797 0.017479 0.000561 0.000007 -0.003993 -0.000070
# 3 -0.003290 0.000561 0.009397 0.000000 -0.004052 -0.000053
# 4 0.000009 0.000007 0.000000 0.044417 -0.000007 0.023458
# 5 -0.005249 -0.003993 -0.004052 -0.000007 0.030489 0.000080
# 6 -0.000057 -0.000070 -0.000053 0.023458 0.000080 0.080759
#
#
# Mechanical properties :
#
#
# Convention : Reuss Voigt Hill
#
# Bulk Modulus (GPa) = 23.02774 31.59580 27.31177
# Shear Modulus (GPa) = 21.58238 29.09678 25.33958
#
# Velocity S-wave (km/s) = 3.07426 3.56955 3.33112
# Velocity P-wave (km/s) = 4.76292 5.55201 5.17254
#
# Compressibility (1/GPa) = 0.04342588
#
# Stress axis : x y z
#
# Youngs Moduli (GPa) = 39.05945 57.21248 106.41335
#
# Poissons Ratio (x) = 0.10282 0.35011
# Poissons Ratio (y) = 0.07019 -0.05971
# Poissons Ratio (z) = 0.12851 -0.03210
#
# Static dielectric constant tensor:
#      x y z
#    x 1.968910 0.000000 -0.043570 
#    y 0.000000 1.855340 0.000000 
#    z -0.043570 0.000000 1.985760 
# 
# From -- ./inp_files/255981.got.cif
#   From: 2010.05.17/outbox.cif.g08.bks.cpg/sg15_128_cif.got.tgz:255981.got - 2010.06.03 18:47:42.
