data_PCOD9283099
_publ_section_title
;
Structure prediction by ZEFSAII (Michael W. Deem and Ramdas Pophale) SiO2 
 PCOD9283099
Probable space group: C 2/C
;
_chemical_formula_sum "Si O2"
_cell_formula_units_Z 40
_cell_length_a 29.110645
_cell_length_b 10.749474
_cell_length_c 17.084152
_cell_angle_alpha 90.000000
_cell_angle_beta 18.938440
_cell_angle_gamma 90.000000
_cell_volume 1735.069449
_symmetry_space_group_name_H-M "C 2/C"
_symmetry_group_IT_number 15
_symmetry_cell_setting 'monoclinic'
loop_
_space_group_symop_operation_xyz
x,y,z
-x,y,1/2-z
-x,-y,-z
x,-y,1/2+z
1/2+x,1/2+y,z
1/2-x,1/2+y,1/2-z
1/2-x,1/2-y,-z
1/2+x,1/2-y,1/2+z
loop_
_atom_site_type_symbol
_atom_site_label
_atom_site_fract_x
_atom_site_fract_y
_atom_site_fract_z
Si Si1 0.931406 0.111368 0.442020
Si Si2 0.438424 0.386485 0.176299
Si Si3 0.135019 0.394784 0.687134
Si Si4 0.147253 0.522676 0.826761
Si Si5 0.603233 0.258000 0.784616
O O1 0.773840 0.064274 0.678373
O O2 0.000000 0.150094 0.250000
O O3 0.972030 0.221281 0.436375
O O4 0.013663 0.989656 0.340134
O O5 0.277969 0.420612 0.409619
O O6 0.412620 0.246849 0.250934
O O7 0.560171 0.367664 0.915248
O O8 0.174414 0.416980 0.716867
O O9 0.001372 0.484293 0.887520
O O10 0.116967 0.639935 0.818468
O O11 0.750000 0.250000 0.500000
#
# Coordination Sequence:
#
# PCOD9283099 Si02
#       5
#     8   8   8   8   8
#     4  12  22  40  68  96 129 185 235 272 340 416
#     4  10  21  39  67  92 131 174 222 280 346 404
#     4   9  19  41  61  91 128 168 217 282 348 389
#     4  10  21  41  66  94 132 179 221 282 346 399
#     4  11  22  40  64  96 136 171 222 279 337 404
#
# _framework density 23.053832
#
# number of rings (size 3 to 8) (size 9 to 14) (size 15 to 20)
#    0.000    1.600    4.000    0.600    0.000    0.000 
#   21.600    1.000    0.000    1.200    0.000    0.000 
#    0.000    0.000    0.000    0.000    0.000    0.000 
#
# Total GULP energy -111372.070438 kJ/mol
# GULP energy per Si atom -5568.603522 kJ/mol
# Density = 2.300136 g / cm^3
# Si number density = 23.053832 Si / 1000 Ang^3
#
#
#
# Elastic Constant Matrix: (Units=GPa)
#
#
# Indices 1 2 3 4 5 6 
#
# 1 62.5863 28.8645 -0.2707 0.0000 -22.9421 0.0000
# 2 28.8645 99.6696 17.6993 0.0000 -1.8796 0.0000
# 3 -0.2707 17.6993 145.5356 0.0000 -16.1013 0.0000
# 4 0.0000 0.0000 0.0000 31.2275 0.0000 -5.9873
# 5 -22.9421 -1.8796 -16.1013 0.0000 49.3200 0.0000
# 6 0.0000 0.0000 0.0000 -5.9873 0.0000 29.6498
#
#
#
# Elastic Compliance Matrix: (Units=1/GPa)
#
#
# Indices 1 2 3 4 5 6 
#
# 1 0.023310 -0.006917 0.002132 0.000000 0.011276 0.000000
# 2 -0.006917 0.012307 -0.001882 0.000000 -0.003363 0.000000
# 3 0.002132 -0.001882 0.007476 0.000000 0.003361 0.000000
# 4 0.000000 0.000000 0.000000 0.033313 0.000000 0.006727
# 5 0.011276 -0.003363 0.003361 0.000000 0.026490 0.000000
# 6 0.000000 0.000000 0.000000 0.006727 0.000000 0.035085
#
#
# Mechanical properties :
#
#
# Convention : Reuss Voigt Hill
#
# Bulk Modulus (GPa) = 33.60151 44.48641 39.04396
# Shear Modulus (GPa) = 31.01082 39.47268 35.24175
#
# Velocity S-wave (km/s) = 3.67161 4.14236 3.91407
# Velocity P-wave (km/s) = 5.70799 6.49750 6.11550
#
# Compressibility (1/GPa) = 0.02976056
#
# Stress axis : x y z
#
# Youngs Moduli (GPa) = 42.89929 81.25485 133.76544
#
# Poissons Ratio (x) = 0.56202 -0.28519
# Poissons Ratio (y) = 0.29672 0.25169
# Poissons Ratio (z) = -0.09146 0.15289
#
# Static dielectric constant tensor:
#      x y z
#    x 1.873950 0.000000 0.041790 
#    y 0.000000 2.009310 0.000000 
#    z 0.041790 0.000000 2.055300 
# 
# From -- ./inp_files/224962.got.cif
#   From: 2010.05.17/outbox.cif.g08.bks.cpg/sg15_113_cif.got.tgz:224962.got - 2010.06.03 18:47:42.
