data_PCOD9283044
_publ_section_title
;
Structure prediction by ZEFSAII (Michael W. Deem and Ramdas Pophale) SiO2 
 PCOD9283044
Probable space group: C 2/C
;
_chemical_formula_sum "Si O2"
_cell_formula_units_Z 64
_cell_length_a 20.048932
_cell_length_b 13.390544
_cell_length_c 16.093387
_cell_angle_alpha 90.000000
_cell_angle_beta 144.170302
_cell_angle_gamma 90.000000
_cell_volume 2529.142562
_symmetry_space_group_name_H-M "C 2/C"
_symmetry_group_IT_number 15
_symmetry_cell_setting 'monoclinic'
loop_
_space_group_symop_operation_xyz
x,y,z
-x,y,1/2-z
-x,-y,-z
x,-y,1/2+z
1/2+x,1/2+y,z
1/2-x,1/2+y,1/2-z
1/2-x,1/2-y,-z
1/2+x,1/2-y,1/2+z
loop_
_atom_site_type_symbol
_atom_site_label
_atom_site_fract_x
_atom_site_fract_y
_atom_site_fract_z
Si Si1 0.575961 0.483498 0.243013
Si Si2 0.169809 0.387080 0.772365
Si Si3 0.201646 0.615528 0.840420
Si Si4 0.586305 0.383225 0.025774
Si Si5 0.329320 0.079723 0.510243
Si Si6 0.210467 0.822831 0.295951
Si Si7 0.882579 0.357951 0.602078
Si Si8 0.517915 0.166290 0.984403
O O1 0.500000 0.488942 0.250000
O O2 0.695070 0.547237 0.365467
O O3 0.617848 0.369958 0.267328
O O4 0.495241 0.530734 0.089703
O O5 0.214553 0.497063 0.832770
O O6 0.210845 0.290476 0.762417
O O7 0.186672 0.345193 0.882800
O O8 0.047664 0.391350 0.601040
O O9 0.330303 0.654435 0.962958
O O10 0.160986 0.637490 0.892770
O O11 0.105959 0.649181 0.679659
O O12 0.681704 0.400621 0.193567
O O13 0.522242 0.286833 0.997054
O O14 0.391171 0.125847 0.492901
O O15 0.392534 0.975996 0.595730
O O16 0.327301 0.823698 0.462497
O O17 0.000000 0.313361 0.750000
#
# Coordination Sequence:
#
# PCOD9283044 Si02
#       8
#     8   8   8   8   8   8   8   8
#     4  11  23  45  69  97 138 185 229 279 344 404
#     4  10  23  43  65  99 133 172 229 281 341 411
#     4  11  23  43  70  95 142 173 229 284 345 405
#     4  11  26  44  65 105 136 183 232 282 342 410
#     4  10  22  42  67  97 133 175 225 276 336 408
#     4  10  24  45  66  99 138 175 230 280 347 411
#     4  10  21  39  66  96 130 171 219 277 343 400
#     4  11  25  42  69 100 136 181 230 279 350 402
#
# _framework density 25.305019000000001
#
# number of rings (size 3 to 8) (size 9 to 14) (size 15 to 20)
#    0.000    1.500    1.250    3.000    7.000    2.000 
#    2.250    0.000    0.000    0.000    0.000    0.000 
#    0.000    0.000    0.000    0.000    0.000    0.000 
#
# Total GULP energy -178240.591889 kJ/mol
# GULP energy per Si atom -5570.018497 kJ/mol
# Density = 2.524742 g / cm^3
# Si number density = 25.305019 Si / 1000 Ang^3
#
#
#
# Elastic Constant Matrix: (Units=GPa)
#
#
# Indices 1 2 3 4 5 6 
#
# 1 77.3117 12.5624 38.7889 0.0000 5.9256 0.0000
# 2 12.5624 55.6786 21.5534 0.0000 -1.0301 0.0000
# 3 38.7889 21.5534 161.0859 0.0000 -12.1403 0.0000
# 4 0.0000 0.0000 0.0000 24.9394 0.0000 -35.8469
# 5 5.9256 -1.0301 -12.1403 0.0000 42.6880 0.0000
# 6 0.0000 0.0000 0.0000 -35.8469 0.0000 74.3960
#
#
#
# Elastic Compliance Matrix: (Units=1/GPa)
#
#
# Indices 1 2 3 4 5 6 
#
# 1 0.015360 -0.002109 -0.003660 0.000000 -0.003224 0.000000
# 2 -0.002109 0.019234 -0.002053 0.000000 0.000173 0.000000
# 3 -0.003660 -0.002053 0.007560 0.000000 0.002609 0.000000
# 4 0.000000 0.000000 0.000000 0.130429 0.000000 0.062846
# 5 -0.003224 0.000173 0.002609 0.000000 0.024619 0.000000
# 6 0.000000 0.000000 0.000000 0.062846 0.000000 0.043723
#
#
# Mechanical properties :
#
#
# Convention : Reuss Voigt Hill
#
# Bulk Modulus (GPa) = 37.71778 48.87618 43.29698
# Shear Modulus (GPa) = 18.83905 43.14946 30.99425
#
# Velocity S-wave (km/s) = 2.73147 4.13385 3.50355
# Velocity P-wave (km/s) = 4.98854 6.49167 5.78910
#
# Compressibility (1/GPa) = 0.02651269
#
# Stress axis : x y z
#
# Youngs Moduli (GPa) = 65.10215 51.99180 132.26939
#
# Poissons Ratio (x) = 0.10964 0.48405
# Poissons Ratio (y) = 0.13728 0.27151
# Poissons Ratio (z) = 0.23825 0.10672
#
# Static dielectric constant tensor:
#      x y z
#    x 2.165600 0.000000 0.050030 
#    y 0.000000 2.013350 0.000000 
#    z 0.050030 0.000000 2.132230 
# 
# From -- ./inp_files/219752.got.cif
#   From: 2010.05.17/outbox.cif.g08.bks.cpg/sg15_110_cif.got.tgz:219752.got - 2010.06.03 18:47:42.
