data_PCOD9283436
_publ_section_title
;
Structure prediction by ZEFSAII (Michael W. Deem and Ramdas Pophale) SiO2 
 PCOD9283436
Probable space group: C 2/C
;
_chemical_formula_sum "Si O2"
_cell_formula_units_Z 40
_cell_length_a 10.304183
_cell_length_b 24.824598
_cell_length_c 18.768135
_cell_angle_alpha 90.000000
_cell_angle_beta 24.639251
_cell_angle_gamma 90.000000
_cell_volume 2001.485857
_symmetry_space_group_name_H-M "C 2/C"
_symmetry_group_IT_number 15
_symmetry_cell_setting 'monoclinic'
loop_
_space_group_symop_operation_xyz
x,y,z
-x,y,1/2-z
-x,-y,-z
x,-y,1/2+z
1/2+x,1/2+y,z
1/2-x,1/2+y,1/2-z
1/2-x,1/2-y,-z
1/2+x,1/2-y,1/2+z
loop_
_atom_site_type_symbol
_atom_site_label
_atom_site_fract_x
_atom_site_fract_y
_atom_site_fract_z
Si Si1 0.353166 0.949285 0.155012
Si Si2 0.567911 0.246589 0.796865
Si Si3 0.874383 0.369178 0.381968
Si Si4 0.160332 0.335589 0.746804
Si Si5 0.140652 0.435820 0.518900
O O1 0.592082 0.907097 0.068127
O O2 0.361670 0.937540 0.066311
O O3 0.004448 0.939432 0.356658
O O4 0.456463 0.008992 0.126147
O O5 0.500000 0.266041 0.750000
O O6 0.608236 0.182223 0.772094
O O7 0.819182 0.282265 0.713200
O O8 0.250000 0.250000 0.000000
O O9 0.520322 0.350682 0.552105
O O10 0.000000 0.399523 0.250000
O O11 0.000000 0.326977 0.750000
O O12 0.006708 0.384272 0.868534
#
# Coordination Sequence:
#
# PCOD9283436 Si02
#       5
#     8   8   8   8   8
#     4  10  21  40  61  92 122 165 205 259 306 377
#     4   9  21  40  62  90 122 169 210 253 314 373
#     4  10  21  40  62  86 126 162 206 254 314 366
#     4  11  23  39  62  95 126 162 209 259 310 372
#     4  10  22  38  62  92 125 159 212 252 312 370
#
# _framework density 19.985151999999999
#
# number of rings (size 3 to 8) (size 9 to 14) (size 15 to 20)
#    0.000    2.000    0.000    2.400    5.600    2.400 
#    3.600   14.000    0.000    0.000    0.000    0.000 
#    0.000    0.000    0.000    0.000    0.000    0.000 
#
# Total GULP energy -111492.078312 kJ/mol
# GULP energy per Si atom -5574.603916 kJ/mol
# Density = 1.993967 g / cm^3
# Si number density = 19.985152 Si / 1000 Ang^3
#
#
#
# Elastic Constant Matrix: (Units=GPa)
#
#
# Indices 1 2 3 4 5 6 
#
# 1 103.2227 62.1688 24.7659 -0.0033 -14.5033 0.0376
# 2 62.1688 101.2355 32.7579 -0.0156 -9.9792 0.0178
# 3 24.7659 32.7579 85.7715 0.0727 -1.4921 0.0325
# 4 -0.0033 -0.0156 0.0727 30.3162 0.0215 0.7421
# 5 -14.5033 -9.9792 -1.4921 0.0215 30.4478 0.0034
# 6 0.0376 0.0178 0.0325 0.7421 0.0034 18.9618
#
#
#
# Elastic Compliance Matrix: (Units=1/GPa)
#
#
# Indices 1 2 3 4 5 6 
#
# 1 0.016048 -0.009043 -0.001099 -0.000003 0.004627 -0.000022
# 2 -0.009043 0.016749 -0.003768 0.000016 0.000997 0.000008
# 3 -0.001099 -0.003768 0.013396 -0.000033 -0.001102 -0.000016
# 4 -0.000003 0.000016 -0.000033 0.033017 -0.000021 -0.001292
# 5 0.004627 0.000997 -0.001102 -0.000021 0.035320 -0.000014
# 6 -0.000022 0.000008 -0.000016 -0.001292 -0.000014 0.052788
#
#
# Mechanical properties :
#
#
# Convention : Reuss Voigt Hill
#
# Bulk Modulus (GPa) = 54.43219 58.84609 56.63914
# Shear Modulus (GPa) = 24.84279 27.31429 26.07854
#
# Velocity S-wave (km/s) = 3.52953 3.70094 3.61625
# Velocity P-wave (km/s) = 6.62613 6.91169 6.77041
#
# Compressibility (1/GPa) = 0.01837148
#
# Stress axis : x y z
#
# Youngs Moduli (GPa) = 62.31176 59.70434 74.64692
#
# Poissons Ratio (x) = 0.53993 0.08207
# Poissons Ratio (y) = 0.56351 0.28129
# Poissons Ratio (z) = 0.06851 0.22498
#
# Static dielectric constant tensor:
#      x y z
#    x 1.738530 0.000000 -0.002300 
#    y 0.000000 1.743760 0.000020 
#    z -0.002300 0.000020 1.684970 
# 
# From -- ./inp_files/51647.got.cif
#   From: 2010.05.17/outbox.cif.g08.bks.cpg/sg15_26_cif.got.tgz:51647.got - 2010.06.03 18:47:42.
