data_PCOD9283028
_publ_section_title
;
Structure prediction by ZEFSAII (Michael W. Deem and Ramdas Pophale) SiO2 
 PCOD9283028
Probable space group: C 2/C
;
_chemical_formula_sum "Si O2"
_cell_formula_units_Z 40
_cell_length_a 9.394696
_cell_length_b 21.468252
_cell_length_c 16.560486
_cell_angle_alpha 90.000000
_cell_angle_beta 35.833249
_cell_angle_gamma 90.000000
_cell_volume 1955.357459
_symmetry_space_group_name_H-M "C 2/C"
_symmetry_group_IT_number 15
_symmetry_cell_setting 'monoclinic'
loop_
_space_group_symop_operation_xyz
x,y,z
-x,y,1/2-z
-x,-y,-z
x,-y,1/2+z
1/2+x,1/2+y,z
1/2-x,1/2+y,1/2-z
1/2-x,1/2-y,-z
1/2+x,1/2-y,1/2+z
loop_
_atom_site_type_symbol
_atom_site_label
_atom_site_fract_x
_atom_site_fract_y
_atom_site_fract_z
Si Si1 0.763507 0.752353 0.091111
Si Si2 0.500000 0.442155 0.250000
Si Si3 0.304824 0.612284 0.538153
Si Si4 0.505053 0.126253 0.515358
Si Si5 0.500000 0.990898 0.250000
Si Si6 0.715233 0.448166 0.747721
O O1 0.500000 0.738062 0.250000
O O2 0.825794 0.824273 0.079307
O O3 0.949745 0.698110 0.029641
O O4 0.750000 0.750000 0.000000
O O5 0.432821 0.490004 0.208949
O O6 0.263839 0.399951 0.372426
O O7 0.092130 0.619457 0.568291
O O8 0.545529 0.597439 0.377183
O O9 0.226832 0.554055 0.627608
O O10 0.685222 0.084410 0.378392
O O11 0.560433 0.031649 0.299847
#
# Coordination Sequence:
#
# PCOD9283028 Si02
#       6
#     8   4   8   8   4   8
#     4  10  21  39  66  95 127 167 224 273 316 387
#     4  12  22  38  66  92 136 164 216 264 320 388
#     4  11  21  40  65  94 129 169 217 268 325 381
#     4  11  22  40  65  95 125 174 219 265 321 389
#     4  12  24  38  60  98 138 164 210 266 338 378
#     4  12  23  41  65  96 131 173 213 267 324 395
#
# _framework density 20.456617000000001
#
# number of rings (size 3 to 8) (size 9 to 14) (size 15 to 20)
#    0.000    0.800    5.000    4.800    0.000    0.000 
#    0.000    1.000    0.000   13.200    0.000    0.000 
#    0.000    0.000    0.000    0.000    0.000    0.000 
#
# Total GULP energy -111772.884550 kJ/mol
# GULP energy per Si atom -5588.644228 kJ/mol
# Density = 2.041006 g / cm^3
# Si number density = 20.456617 Si / 1000 Ang^3
#
#
#
# Elastic Constant Matrix: (Units=GPa)
#
#
# Indices 1 2 3 4 5 6 
#
# 1 49.6052 37.1082 -1.4948 -0.0003 1.7368 -0.0002
# 2 37.1082 116.1973 49.8689 -0.0004 -20.8558 0.0003
# 3 -1.4948 49.8689 119.5144 0.0026 -5.0470 0.0020
# 4 -0.0003 -0.0004 0.0026 37.2391 0.0005 5.2209
# 5 1.7368 -20.8558 -5.0470 0.0005 27.3083 -0.0002
# 6 -0.0002 0.0003 0.0020 5.2209 -0.0002 12.9526
#
#
#
# Elastic Compliance Matrix: (Units=1/GPa)
#
#
# Indices 1 2 3 4 5 6 
#
# 1 0.032122 -0.015158 0.006200 0.000000 -0.012474 0.000000
# 2 -0.015158 0.019287 -0.007634 0.000000 0.014283 0.000000
# 3 0.006200 -0.007634 0.011457 -0.000001 -0.004107 -0.000001
# 4 0.000000 0.000000 -0.000001 0.028462 0.000000 -0.011472
# 5 -0.012474 0.014283 -0.004107 0.000000 0.047561 0.000001
# 6 0.000000 0.000000 -0.000001 -0.011472 0.000001 0.081829
#
#
# Mechanical properties :
#
#
# Convention : Reuss Voigt Hill
#
# Bulk Modulus (GPa) = 33.69155 50.69795 42.19475
# Shear Modulus (GPa) = 18.95412 28.82231 23.88822
#
# Velocity S-wave (km/s) = 3.04723 3.75767 3.42094
# Velocity P-wave (km/s) = 5.37460 6.60785 6.02288
#
# Compressibility (1/GPa) = 0.02968104
#
# Stress axis : x y z
#
# Youngs Moduli (GPa) = 31.13138 51.84917 87.28520
#
# Poissons Ratio (x) = 0.78593 -0.54115
# Poissons Ratio (y) = 0.47189 0.66634
# Poissons Ratio (z) = -0.19301 0.39582
#
# Static dielectric constant tensor:
#      x y z
#    x 1.692200 0.000000 -0.007200 
#    y 0.000000 1.788280 0.000000 
#    z -0.007200 0.000000 1.703270 
# 
# From -- ./inp_files/23558.got.cif
#   From: 2010.05.17/outbox.cif.g08.bks.cpg/sg15_12_cif.got.tgz:23558.got - 2010.06.03 18:47:42.
