data_PCOD9283265
_publ_section_title
;
Structure prediction by ZEFSAII (Michael W. Deem and Ramdas Pophale) SiO2 
 PCOD9283265
Probable space group: C 2/C
;
_chemical_formula_sum "Si O2"
_cell_formula_units_Z 44
_cell_length_a 8.182145
_cell_length_b 12.250173
_cell_length_c 19.597612
_cell_angle_alpha 90.000000
_cell_angle_beta 69.169881
_cell_angle_gamma 90.000000
_cell_volume 1835.931148
_symmetry_space_group_name_H-M "C 2/C"
_symmetry_group_IT_number 15
_symmetry_cell_setting 'monoclinic'
loop_
_space_group_symop_operation_xyz
x,y,z
-x,y,1/2-z
-x,-y,-z
x,-y,1/2+z
1/2+x,1/2+y,z
1/2-x,1/2+y,1/2-z
1/2-x,1/2-y,-z
1/2+x,1/2-y,1/2+z
loop_
_atom_site_type_symbol
_atom_site_label
_atom_site_fract_x
_atom_site_fract_y
_atom_site_fract_z
Si Si1 0.921554 0.057073 0.578897
Si Si2 0.500000 0.690998 0.250000
Si Si3 0.575442 0.882387 0.969978
Si Si4 0.203508 0.610429 0.203191
Si Si5 0.146794 0.755403 0.087515
Si Si6 0.868782 0.736546 0.907257
O O1 0.494919 0.161458 0.411816
O O2 0.790890 0.152404 0.574435
O O3 0.067713 0.123152 0.599469
O O4 0.000000 0.000000 0.500000
O O5 0.326636 0.626399 0.251326
O O6 0.541480 0.762781 0.178169
O O7 0.527259 0.806079 0.042728
O O8 0.782498 0.856437 0.931007
O O9 0.500000 0.000000 0.000000
O O10 0.207482 0.717024 0.152764
O O11 0.305646 0.522604 0.141792
O O12 0.000000 0.586666 0.250000
O O13 0.250000 0.750000 0.000000
#
# Coordination Sequence:
#
# PCOD9283265 Si02
#       6
#     8   4   8   8   8   8
#     4  11  24  45  75 112 151 201 264 326 395 471
#     4  12  28  52  74 104 162 210 250 322 404 476
#     4  10  21  39  72 103 136 190 247 312 378 440
#     4  12  27  50  76 111 159 207 268 327 401 484
#     4  11  22  42  73 109 149 195 258 329 385 460
#     4  10  24  43  67 107 152 189 256 319 380 466
#
# _framework density 23.966042000000002
#
# number of rings (size 3 to 8) (size 9 to 14) (size 15 to 20)
#    0.000    1.091    1.818    4.364    6.364    0.000 
#    4.909    0.000    0.000    0.000    0.000    0.000 
#    0.000    0.000    0.000    0.000    0.000    0.000 
#
# Total GULP energy -122816.207786 kJ/mol
# GULP energy per Si atom -5582.554899 kJ/mol
# Density = 2.391149 g / cm^3
# Si number density = 23.966042 Si / 1000 Ang^3
#
#
#
# Elastic Constant Matrix: (Units=GPa)
#
#
# Indices 1 2 3 4 5 6 
#
# 1 140.6125 45.7542 49.4606 0.0000 20.4470 0.0000
# 2 45.7542 127.0678 49.1405 0.0000 -6.4887 0.0000
# 3 49.4606 49.1405 173.4029 0.0000 -6.7098 0.0000
# 4 0.0000 0.0000 0.0000 36.3545 0.0000 -11.2331
# 5 20.4470 -6.4887 -6.7098 0.0000 43.8770 0.0000
# 6 0.0000 0.0000 0.0000 -11.2331 0.0000 34.7148
#
#
#
# Elastic Compliance Matrix: (Units=1/GPa)
#
#
# Indices 1 2 3 4 5 6 
#
# 1 0.009549 -0.002889 -0.002106 0.000000 -0.005199 0.000000
# 2 -0.002889 0.009751 -0.001842 0.000000 0.002507 0.000000
# 3 -0.002106 -0.001842 0.006958 0.000000 0.001773 0.000000
# 4 0.000000 0.000000 0.000000 0.030563 0.000000 0.009890
# 5 -0.005199 0.002507 0.001773 0.000000 0.025856 0.000000
# 6 0.000000 0.000000 0.000000 0.009890 0.000000 0.032006
#
#
# Mechanical properties :
#
#
# Convention : Reuss Voigt Hill
#
# Bulk Modulus (GPa) = 79.47390 81.08820 80.28105
# Shear Modulus (GPa) = 37.72127 42.77111 40.24619
#
# Velocity S-wave (km/s) = 3.97160 4.22910 4.10237
# Velocity P-wave (km/s) = 7.36645 7.59968 7.48397
#
# Compressibility (1/GPa) = 0.01258275
#
# Stress axis : x y z
#
# Youngs Moduli (GPa) = 104.72611 102.55808 143.71418
#
# Poissons Ratio (x) = 0.29632 0.30266
# Poissons Ratio (y) = 0.30259 0.26473
# Poissons Ratio (z) = 0.22055 0.18892
#
# Static dielectric constant tensor:
#      x y z
#    x 2.146360 0.000000 -0.139930 
#    y 0.000000 1.973450 0.000000 
#    z -0.139930 0.000000 1.944640 
# 
# From -- ./inp_files/264143.got.cif
#   From: 2010.05.17/outbox.cif.g08.bks.cpg/sg15_133_cif.got.tgz:264143.got - 2010.06.03 18:47:42.
