data_PCOD9283007
_publ_section_title
;
Structure prediction by ZEFSAII (Michael W. Deem and Ramdas Pophale) SiO2 
 PCOD9283007
Probable space group: C 2/C
;
_chemical_formula_sum "Si O2"
_cell_formula_units_Z 60
_cell_length_a 21.949529
_cell_length_b 16.896776
_cell_length_c 9.253589
_cell_angle_alpha 90.000000
_cell_angle_beta 53.207814
_cell_angle_gamma 90.000000
_cell_volume 2748.339658
_symmetry_space_group_name_H-M "C 2/C"
_symmetry_group_IT_number 15
_symmetry_cell_setting 'monoclinic'
loop_
_space_group_symop_operation_xyz
x,y,z
-x,y,1/2-z
-x,-y,-z
x,-y,1/2+z
1/2+x,1/2+y,z
1/2-x,1/2+y,1/2-z
1/2-x,1/2-y,-z
1/2+x,1/2-y,1/2+z
loop_
_atom_site_type_symbol
_atom_site_label
_atom_site_fract_x
_atom_site_fract_y
_atom_site_fract_z
Si Si1 0.000000 0.271049 0.250000
Si Si2 0.391317 0.660103 0.886297
Si Si3 0.228610 0.017554 0.721704
Si Si4 0.616078 0.228115 0.353852
Si Si5 0.271045 0.899093 0.890008
Si Si6 0.868421 0.210825 0.241710
Si Si7 0.733983 0.669377 0.886305
Si Si8 0.054113 0.994481 0.561689
O O1 0.057706 0.223464 0.268519
O O2 0.943885 0.309175 0.448056
O O3 0.422003 0.711230 0.708350
O O4 0.424110 0.572846 0.873528
O O5 0.302689 0.653605 0.973021
O O6 0.391615 0.697425 0.044686
O O7 0.260514 0.029672 0.516961
O O8 0.259779 0.093779 0.761776
O O9 0.257617 0.937627 0.753047
O O10 0.137231 0.027487 0.878936
O O11 0.657176 0.157601 0.209761
O O12 0.679599 0.275304 0.360753
O O13 0.808829 0.283352 0.327551
O O14 0.818553 0.146196 0.400871
O O15 0.000000 0.946001 0.750000
O O16 0.000000 0.000000 0.500000
#
# Coordination Sequence:
#
# PCOD9283007 Si02
#       8
#     4   8   8   8   8   8   8   8
#     4  10  26  40  60  98 134 168 212 286 356 414
#     4  11  22  38  67  92 127 181 231 268 315 383
#     4  11  24  40  63  98 128 179 230 271 332 403
#     4  11  22  45  68  99 132 173 228 293 341 394
#     4  11  23  40  67  95 132 170 226 289 325 398
#     4  10  22  37  63  96 127 172 217 291 328 397
#     4  10  21  39  66  93 128 168 233 278 333 397
#     4  11  26  40  56  92 147 191 213 256 321 405
#
# _framework density 21.831361999999999
#
# number of rings (size 3 to 8) (size 9 to 14) (size 15 to 20)
#    0.000    1.333    2.667    2.800    7.467    1.067 
#    1.200    0.000    0.000    3.200    0.000    0.000 
#    0.000    0.000    0.000    0.000    0.000    0.000 
#
# Total GULP energy -167326.533418 kJ/mol
# GULP energy per Si atom -5577.551114 kJ/mol
# Density = 2.178167 g / cm^3
# Si number density = 21.831362 Si / 1000 Ang^3
#
#
#
# Elastic Constant Matrix: (Units=GPa)
#
#
# Indices 1 2 3 4 5 6 
#
# 1 88.9978 20.3895 33.2814 0.0000 13.2056 0.0000
# 2 20.3895 39.6365 24.4425 0.0000 -5.4867 0.0000
# 3 33.2814 24.4425 125.1808 0.0000 10.1016 0.0000
# 4 0.0000 0.0000 0.0000 30.1485 0.0000 11.1784
# 5 13.2056 -5.4867 10.1016 0.0000 43.0325 0.0000
# 6 0.0000 0.0000 0.0000 11.1784 0.0000 19.5723
#
#
#
# Elastic Compliance Matrix: (Units=1/GPa)
#
#
# Indices 1 2 3 4 5 6 
#
# 1 0.014259 -0.006694 -0.002102 0.000000 -0.004736 0.000000
# 2 -0.006694 0.032953 -0.005259 0.000000 0.007490 0.000000
# 3 -0.002102 -0.005259 0.009761 0.000000 -0.002317 0.000000
# 4 0.000000 0.000000 0.000000 0.042080 0.000000 -0.024033
# 5 -0.004736 0.007490 -0.002317 0.000000 0.026190 0.000000
# 6 0.000000 0.000000 0.000000 -0.024033 0.000000 0.064819
#
#
# Mechanical properties :
#
#
# Convention : Reuss Voigt Hill
#
# Bulk Modulus (GPa) = 34.64688 45.56021 40.10354
# Shear Modulus (GPa) = 21.94982 30.26411 26.10697
#
# Velocity S-wave (km/s) = 3.17429 3.72730 3.46185
# Velocity P-wave (km/s) = 5.41659 6.27998 5.86420
#
# Compressibility (1/GPa) = 0.02886263
#
# Stress axis : x y z
#
# Youngs Moduli (GPa) = 70.13344 30.34641 102.44857
#
# Poissons Ratio (x) = 0.20315 0.21530
# Poissons Ratio (y) = 0.46950 0.53877
# Poissons Ratio (z) = 0.14739 0.15959
#
# Static dielectric constant tensor:
#      x y z
#    x 1.810660 0.000000 0.020380 
#    y 0.000000 1.817840 0.000000 
#    z 0.020380 0.000000 1.897090 
# 
# From -- ./inp_files/58072.got.cif
#   From: 2010.05.17/outbox.cif.g08.bks.cpg/sg15_30_cif.got.tgz:58072.got - 2010.06.03 18:47:42.
