data_PCOD9283056
_publ_section_title
;
Structure prediction by ZEFSAII (Michael W. Deem and Ramdas Pophale) SiO2 
 PCOD9283056
Probable space group: C 2/C
;
_chemical_formula_sum "Si O2"
_cell_formula_units_Z 48
_cell_length_a 28.491706
_cell_length_b 8.996360
_cell_length_c 21.792533
_cell_angle_alpha 90.000000
_cell_angle_beta 159.943041
_cell_angle_gamma 90.000000
_cell_volume 1915.706826
_symmetry_space_group_name_H-M "C 2/C"
_symmetry_group_IT_number 15
_symmetry_cell_setting 'monoclinic'
loop_
_space_group_symop_operation_xyz
x,y,z
-x,y,1/2-z
-x,-y,-z
x,-y,1/2+z
1/2+x,1/2+y,z
1/2-x,1/2+y,1/2-z
1/2-x,1/2-y,-z
1/2+x,1/2-y,1/2+z
loop_
_atom_site_type_symbol
_atom_site_label
_atom_site_fract_x
_atom_site_fract_y
_atom_site_fract_z
Si Si1 0.332532 0.327825 0.332411
Si Si2 0.775905 0.554106 0.594059
Si Si3 0.420217 0.982266 0.004674
Si Si4 0.527406 0.430828 0.118087
Si Si5 0.292971 0.880902 0.971526
Si Si6 0.100821 0.194546 0.832846
O O1 0.367033 0.169273 0.405234
O O2 0.173543 0.376131 0.129431
O O3 0.416007 0.340033 0.370641
O O4 0.394134 0.471198 0.443599
O O5 0.718550 0.705392 0.551343
O O6 0.815923 0.586544 0.571638
O O7 0.647821 0.443316 0.432987
O O8 0.915190 0.503594 0.798795
O O9 0.388471 0.950177 0.037254
O O10 0.644689 0.552769 0.274784
O O11 0.527219 0.336902 0.179192
O O12 0.000000 0.290562 0.750000
O O13 0.250000 0.250000 0.000000
#
# Coordination Sequence:
#
# PCOD9283056 Si02
#       6
#     8   8   8   8   8   8
#     4  10  22  39  64  92 139 187 229 288 340 426
#     4  10  21  39  66  98 127 168 232 295 345 409
#     4  11  22  38  64  99 135 185 234 284 354 413
#     4   9  20  43  63  89 130 179 228 276 352 405
#     4   9  19  36  66  94 126 167 228 298 348 398
#     4  11  27  45  71 101 140 180 227 293 357 419
#
# _framework density 25.056025000000002
#
# number of rings (size 3 to 8) (size 9 to 14) (size 15 to 20)
#    0.000    2.000    1.667    0.500    2.333    6.667 
#    0.000    0.833    0.000    0.000    0.000    0.000 
#    0.000    0.000    0.000    0.000    0.000    0.000 
#
# Total GULP energy -134244.638080 kJ/mol
# GULP energy per Si atom -5593.526587 kJ/mol
# Density = 2.499900 g / cm^3
# Si number density = 25.056025 Si / 1000 Ang^3
#
#
#
# Elastic Constant Matrix: (Units=GPa)
#
#
# Indices 1 2 3 4 5 6 
#
# 1 83.7088 28.2634 28.1123 0.0000 -11.0942 0.0000
# 2 28.2634 92.8119 40.6918 0.0000 -13.2700 0.0000
# 3 28.1123 40.6918 168.9368 0.0000 -3.3874 0.0000
# 4 0.0000 0.0000 0.0000 21.3033 0.0000 -16.3117
# 5 -11.0942 -13.2700 -3.3874 0.0000 27.0349 0.0000
# 6 0.0000 0.0000 0.0000 -16.3117 0.0000 28.3014
#
#
#
# Elastic Compliance Matrix: (Units=1/GPa)
#
#
# Indices 1 2 3 4 5 6 
#
# 1 0.014017 -0.003017 -0.001524 0.000000 0.004080 0.000000
# 2 -0.003017 0.013593 -0.002670 0.000000 0.005099 0.000000
# 3 -0.001524 -0.002670 0.006794 0.000000 -0.001085 0.000000
# 4 0.000000 0.000000 0.000000 0.084020 0.000000 0.048426
# 5 0.004080 0.005099 -0.001085 0.000000 0.041031 0.000000
# 6 0.000000 0.000000 0.000000 0.048426 0.000000 0.063244
#
#
# Mechanical properties :
#
#
# Convention : Reuss Voigt Hill
#
# Bulk Modulus (GPa) = 50.04298 59.95472 54.99885
# Shear Modulus (GPa) = 20.51004 31.88725 26.19864
#
# Velocity S-wave (km/s) = 2.86416 3.57128 3.23709
# Velocity P-wave (km/s) = 5.56361 6.40200 5.99747
#
# Compressibility (1/GPa) = 0.01998282
#
# Stress axis : x y z
#
# Youngs Moduli (GPa) = 71.33950 73.56797 147.18177
#
# Poissons Ratio (x) = 0.22196 0.22432
# Poissons Ratio (y) = 0.21523 0.39295
# Poissons Ratio (z) = 0.10873 0.19641
#
# Static dielectric constant tensor:
#      x y z
#    x 2.487080 0.000000 0.148920 
#    y 0.000000 2.045860 0.000000 
#    z 0.148920 0.000000 2.034230 
# 
# From -- ./inp_files/257641.got.cif
#   From: 2010.05.17/outbox.cif.g08.bks.cpg/sg15_129_cif.got.tgz:257641.got - 2010.06.03 18:47:42.
