data_PCOD9283846
_publ_section_title
;
Structure prediction by ZEFSAII (Michael W. Deem and Ramdas Pophale) SiO2 
 PCOD9283846
Probable space group: C 2/C
;
_chemical_formula_sum "Si O2"
_cell_formula_units_Z 60
_cell_length_a 7.998505
_cell_length_b 21.979109
_cell_length_c 20.818519
_cell_angle_alpha 90.000000
_cell_angle_beta 49.100722
_cell_angle_gamma 90.000000
_cell_volume 2766.375221
_symmetry_space_group_name_H-M "C 2/C"
_symmetry_group_IT_number 15
_symmetry_cell_setting 'monoclinic'
loop_
_space_group_symop_operation_xyz
x,y,z
-x,y,1/2-z
-x,-y,-z
x,-y,1/2+z
1/2+x,1/2+y,z
1/2-x,1/2+y,1/2-z
1/2-x,1/2-y,-z
1/2+x,1/2-y,1/2+z
loop_
_atom_site_type_symbol
_atom_site_label
_atom_site_fract_x
_atom_site_fract_y
_atom_site_fract_z
Si Si1 0.659424 0.692917 0.432297
Si Si2 0.193639 0.480868 0.499901
Si Si3 0.751962 0.117707 0.210123
Si Si4 0.097285 0.695531 0.510776
Si Si5 0.929854 0.635707 0.111552
Si Si6 0.068063 0.006403 0.808578
Si Si7 0.000000 0.565993 0.750000
Si Si8 0.751154 0.103680 0.565611
O O1 0.680262 0.672802 0.352610
O O2 0.612973 0.763948 0.451087
O O3 0.888782 0.682040 0.408754
O O4 0.474442 0.644583 0.504908
O O5 0.074005 0.425800 0.566991
O O6 0.395991 0.462113 0.401528
O O7 0.262470 0.536027 0.530923
O O8 0.000000 0.500000 0.500000
O O9 0.500000 0.101509 0.250000
O O10 0.740287 0.129680 0.288326
O O11 0.917602 0.061250 0.164687
O O12 0.250000 0.750000 0.500000
O O13 0.078070 0.642829 0.567279
O O14 0.172255 0.660851 0.428046
O O15 0.319443 0.029612 0.753028
O O16 0.000000 0.007781 0.750000
O O17 0.845769 0.600659 0.839066
#
# Coordination Sequence:
#
# PCOD9283846 Si02
#       8
#     8   8   8   8   8   8   4   8
#     4  10  22  42  67  94 131 175 224 276 333 398
#     4  12  23  40  68 101 139 175 220 279 342 413
#     4  10  21  40  65 102 131 171 224 279 332 396
#     4  10  23  43  64  90 124 174 226 278 331 397
#     4  11  22  39  70  98 131 173 222 280 339 400
#     4  12  25  39  67 102 140 180 218 275 340 413
#     4  12  26  44  64  98 142 178 222 276 342 418
#     4  11  23  43  64  93 132 176 217 271 340 402
#
# _framework density 21.689031
#
# number of rings (size 3 to 8) (size 9 to 14) (size 15 to 20)
#    0.000    1.067    3.333    3.600    1.867    1.067 
#    4.800    0.000    5.867    0.000    0.000    0.000 
#    0.000    0.000    0.000    0.000    0.000    0.000 
#
# Total GULP energy -167401.439156 kJ/mol
# GULP energy per Si atom -5580.047972 kJ/mol
# Density = 2.163967 g / cm^3
# Si number density = 21.689031 Si / 1000 Ang^3
#
#
#
# Elastic Constant Matrix: (Units=GPa)
#
#
# Indices 1 2 3 4 5 6 
#
# 1 74.0112 10.4715 16.1605 0.0000 2.8004 0.0000
# 2 10.4715 63.6161 27.1349 0.0000 15.0911 0.0000
# 3 16.1605 27.1349 134.9259 0.0000 17.0613 0.0000
# 4 0.0000 0.0000 0.0000 14.3593 0.0000 2.0323
# 5 2.8004 15.0911 17.0613 0.0000 39.2483 0.0000
# 6 0.0000 0.0000 0.0000 2.0323 0.0000 31.2550
#
#
#
# Elastic Compliance Matrix: (Units=1/GPa)
#
#
# Indices 1 2 3 4 5 6 
#
# 1 0.014052 -0.001801 -0.001356 0.000000 0.000279 0.000000
# 2 -0.001801 0.018582 -0.002787 0.000000 -0.005805 0.000000
# 3 -0.001356 -0.002787 0.008451 0.000000 -0.002505 0.000000
# 4 0.000000 0.000000 0.000000 0.070288 0.000000 -0.004570
# 5 0.000279 -0.005805 -0.002505 0.000000 0.028780 0.000000
# 6 0.000000 0.000000 0.000000 -0.004570 0.000000 0.032292
#
#
# Mechanical properties :
#
#
# Convention : Reuss Voigt Hill
#
# Bulk Modulus (GPa) = 34.25111 42.23190 38.24151
# Shear Modulus (GPa) = 25.76457 31.55830 28.66143
#
# Velocity S-wave (km/s) = 3.45034 3.81863 3.63915
# Velocity P-wave (km/s) = 5.63022 6.24151 5.94373
#
# Compressibility (1/GPa) = 0.02919613
#
# Stress axis : x y z
#
# Youngs Moduli (GPa) = 71.16524 53.81685 118.32573
#
# Poissons Ratio (x) = 0.09691 0.16047
# Poissons Ratio (y) = 0.12815 0.32980
# Poissons Ratio (z) = 0.09651 0.15000
#
# Static dielectric constant tensor:
#      x y z
#    x 1.912310 0.000000 -0.017410 
#    y 0.000000 1.909790 0.000000 
#    z -0.017410 0.000000 1.800050 
# 
# From -- ./inp_files/234045.got.cif
#   From: 2010.05.17/outbox.cif.g08.bks.cpg/sg15_118_cif.got.tgz:234045.got - 2010.06.03 18:47:42.
