data_PCOD9283936
_publ_section_title
;
Structure prediction by ZEFSAII (Michael W. Deem and Ramdas Pophale) SiO2 
 PCOD9283936
Probable space group: C 2/C
;
_chemical_formula_sum "Si O2"
_cell_formula_units_Z 40
_cell_length_a 13.072785
_cell_length_b 5.062711
_cell_length_c 26.034539
_cell_angle_alpha 90.000000
_cell_angle_beta 92.581677
_cell_angle_gamma 90.000000
_cell_volume 1721.314098
_symmetry_space_group_name_H-M "C 2/C"
_symmetry_group_IT_number 15
_symmetry_cell_setting 'monoclinic'
loop_
_space_group_symop_operation_xyz
x,y,z
-x,y,1/2-z
-x,-y,-z
x,-y,1/2+z
1/2+x,1/2+y,z
1/2-x,1/2+y,1/2-z
1/2-x,1/2-y,-z
1/2+x,1/2-y,1/2+z
loop_
_atom_site_type_symbol
_atom_site_label
_atom_site_fract_x
_atom_site_fract_y
_atom_site_fract_z
Si Si1 0.826644 0.679674 0.881623
Si Si2 0.738330 0.995455 0.461873
Si Si3 0.991987 0.572513 0.810653
Si Si4 0.588861 0.559262 0.868933
Si Si5 0.486710 0.094463 0.057264
O O1 0.877893 0.662377 0.826658
O O2 0.710995 0.575663 0.876928
O O3 0.911432 0.510398 0.913740
O O4 0.813004 0.946487 0.915381
O O5 0.750000 0.750000 0.500000
O O6 0.626055 0.975268 0.434182
O O7 0.750000 0.250000 0.500000
O O8 0.000000 0.563252 0.750000
O O9 0.036016 0.299757 0.835489
O O10 0.059564 0.800497 0.837765
O O11 0.536898 0.606450 0.924125
O O12 0.500000 0.000000 0.000000
#
# Coordination Sequence:
#
# PCOD9283936 Si02
#       5
#     8   8   8   8   8
#     4  10  24  43  66  96 140 172 221 282 321 393
#     4  11  24  39  61  93 127 175 224 261 322 389
#     4  11  25  46  71  98 129 172 224 279 341 400
#     4  10  25  43  66 102 131 171 227 271 336 404
#     4  10  21  40  65  94 135 181 221 262 325 390
#
# _framework density 23.238060000000001
#
# number of rings (size 3 to 8) (size 9 to 14) (size 15 to 20)
#    0.000    1.600    2.000    0.600    2.800   15.200 
#    0.000    0.000    0.000    0.000    0.000    0.000 
#    0.000    0.000    0.000    0.000    0.000    0.000 
#
# Total GULP energy -111598.637840 kJ/mol
# GULP energy per Si atom -5579.931892 kJ/mol
# Density = 2.318517 g / cm^3
# Si number density = 23.238060 Si / 1000 Ang^3
#
#
#
# Elastic Constant Matrix: (Units=GPa)
#
#
# Indices 1 2 3 4 5 6 
#
# 1 194.4376 20.6673 27.6907 0.0000 -4.4084 0.0000
# 2 20.6673 126.4862 21.4751 0.0000 9.0500 0.0000
# 3 27.6907 21.4751 114.2996 0.0000 -20.6633 0.0000
# 4 0.0000 0.0000 0.0000 31.8660 0.0000 8.1780
# 5 -4.4084 9.0500 -20.6633 0.0000 42.4066 0.0000
# 6 0.0000 0.0000 0.0000 8.1780 0.0000 33.8776
#
#
#
# Elastic Compliance Matrix: (Units=1/GPa)
#
#
# Indices 1 2 3 4 5 6 
#
# 1 0.005384 -0.000696 -0.001147 0.000000 0.000149 0.000000
# 2 -0.000696 0.008555 -0.001954 0.000000 -0.002850 0.000000
# 3 -0.001147 -0.001954 0.010360 0.000000 0.005346 0.000000
# 4 0.000000 0.000000 0.000000 0.033454 0.000000 -0.008076
# 5 0.000149 -0.002850 0.005346 0.000000 0.026810 0.000000
# 6 0.000000 0.000000 0.000000 -0.008076 0.000000 0.031468
#
#
# Mechanical properties :
#
#
# Convention : Reuss Voigt Hill
#
# Bulk Modulus (GPa) = 59.85664 63.87661 61.86662
# Shear Modulus (GPa) = 38.70192 45.98938 42.34565
#
# Velocity S-wave (km/s) = 4.08542 4.45348 4.27342
# Velocity P-wave (km/s) = 6.93312 7.34794 7.14355
#
# Compressibility (1/GPa) = 0.01670659
#
# Stress axis : x y z
#
# Youngs Moduli (GPa) = 185.74737 116.88528 96.52197
#
# Poissons Ratio (x) = 0.08132 0.11067
# Poissons Ratio (y) = 0.12922 0.18862
# Poissons Ratio (z) = 0.21297 0.22841
#
# Static dielectric constant tensor:
#      x y z
#    x 1.825890 0.000000 -0.093070 
#    y 0.000000 1.998180 0.000000 
#    z -0.093070 0.000000 1.925830 
# 
# From -- ./inp_files/290611.got.cif
#   From: 2010.05.17/outbox.cif.g08.bks.cpg/sg15_146_cif.got.tgz:290611.got - 2010.06.03 18:47:42.
