data_PCOD9283826
_publ_section_title
;
Structure prediction by ZEFSAII (Michael W. Deem and Ramdas Pophale) SiO2 
 PCOD9283826
Probable space group: C 2/C
;
_chemical_formula_sum "Si O2"
_cell_formula_units_Z 60
_cell_length_a 18.927975
_cell_length_b 11.159893
_cell_length_c 14.883295
_cell_angle_alpha 90.000000
_cell_angle_beta 112.166867
_cell_angle_gamma 90.000000
_cell_volume 2911.494447
_symmetry_space_group_name_H-M "C 2/C"
_symmetry_group_IT_number 15
_symmetry_cell_setting 'monoclinic'
loop_
_space_group_symop_operation_xyz
x,y,z
-x,y,1/2-z
-x,-y,-z
x,-y,1/2+z
1/2+x,1/2+y,z
1/2-x,1/2+y,1/2-z
1/2-x,1/2-y,-z
1/2+x,1/2-y,1/2+z
loop_
_atom_site_type_symbol
_atom_site_label
_atom_site_fract_x
_atom_site_fract_y
_atom_site_fract_z
Si Si1 0.253359 0.246749 0.215660
Si Si2 0.500000 0.444087 0.750000
Si Si3 0.486958 0.765754 0.377321
Si Si4 0.384732 0.761305 0.493900
Si Si5 0.116357 0.533277 0.932375
Si Si6 0.282837 0.048195 0.367038
Si Si7 0.349740 0.915925 0.249271
Si Si8 0.139369 0.882650 0.337014
O O1 0.246192 0.133363 0.275605
O O2 0.231770 0.355054 0.272642
O O3 0.336774 0.271487 0.215646
O O4 0.191110 0.245191 0.105162
O O5 0.485670 0.354133 0.659339
O O6 0.427766 0.531250 0.728075
O O7 0.456102 0.740191 0.462251
O O8 0.543828 0.878927 0.402259
O O9 0.412980 0.812892 0.286837
O O10 0.379256 0.671192 0.574584
O O11 0.390671 0.897692 0.533878
O O12 0.142176 0.522894 0.841693
O O13 0.179124 0.598187 0.025128
O O14 0.353422 0.994989 0.341241
O O15 0.217959 0.958364 0.371343
#
# Coordination Sequence:
#
# PCOD9283826 Si02
#       8
#     8   4   8   8   8   8   8   8
#     4  10  22  44  64  97 140 173 213 284 335 394
#     4  12  26  48  64  92 142 184 222 268 356 400
#     4  11  23  45  67  94 140 176 220 286 336 396
#     4  11  23  42  69  98 136 173 227 278 340 393
#     4  12  22  40  71 100 128 176 231 273 337 397
#     4  11  24  39  69 102 131 171 231 270 337 401
#     4  10  21  40  64  97 129 178 208 280 335 378
#     4  11  24  44  68  97 135 184 222 276 336 415
#
# _framework density 20.607973000000001
#
# number of rings (size 3 to 8) (size 9 to 14) (size 15 to 20)
#    0.000    1.067    5.333    3.200    1.867    2.133 
#    2.400    0.000    0.000    0.000    0.000    0.000 
#    0.000    0.000    0.000    0.000    0.000    0.000 
#
# Total GULP energy -167204.288958 kJ/mol
# GULP energy per Si atom -5573.476299 kJ/mol
# Density = 2.056107 g / cm^3
# Si number density = 20.607973 Si / 1000 Ang^3
#
#
#
# Elastic Constant Matrix: (Units=GPa)
#
#
# Indices 1 2 3 4 5 6 
#
# 1 80.1495 26.3505 35.7501 0.0000 -17.7282 0.0000
# 2 26.3505 84.5491 44.6505 0.0000 -10.6397 0.0000
# 3 35.7501 44.6505 101.6098 0.0000 -33.0629 0.0000
# 4 0.0000 0.0000 0.0000 39.7594 0.0000 -6.5221
# 5 -17.7282 -10.6397 -33.0629 0.0000 31.1753 0.0000
# 6 0.0000 0.0000 0.0000 -6.5221 0.0000 34.5190
#
#
#
# Elastic Compliance Matrix: (Units=1/GPa)
#
#
# Indices 1 2 3 4 5 6 
#
# 1 0.015728 -0.002892 -0.002556 0.000000 0.005246 0.000000
# 2 -0.002892 0.016111 -0.007342 0.000000 -0.003932 0.000000
# 3 -0.002556 -0.007342 0.019360 0.000000 0.016573 0.000000
# 4 0.000000 0.000000 0.000000 0.025956 0.000000 0.004904
# 5 0.005246 -0.003932 0.016573 0.000000 0.051294 0.000000
# 6 0.000000 0.000000 0.000000 0.004904 0.000000 0.029896
#
#
# Mechanical properties :
#
#
# Convention : Reuss Voigt Hill
#
# Bulk Modulus (GPa) = 39.03237 53.31230 46.17233
# Shear Modulus (GPa) = 25.97899 31.72791 28.85345
#
# Velocity S-wave (km/s) = 3.55438 3.92802 3.74586
# Velocity P-wave (km/s) = 5.98552 6.81897 6.41579
#
# Compressibility (1/GPa) = 0.02561976
#
# Stress axis : x y z
#
# Youngs Moduli (GPa) = 63.58159 62.06915 51.65398
#
# Poissons Ratio (x) = 0.17949 0.13202
# Poissons Ratio (y) = 0.18387 0.37923
# Poissons Ratio (z) = 0.16250 0.45570
#
# Static dielectric constant tensor:
#      x y z
#    x 1.752570 0.000000 -0.005920 
#    y 0.000000 1.859810 0.000000 
#    z -0.005920 0.000000 1.745030 
# 
# From -- ./inp_files/167289.got.cif
#   From: 2010.05.17/outbox.cif.g08.bks.cpg/sg15_84_cif.got.tgz:167289.got - 2010.06.03 18:47:42.
