data_PCOD9283635
_publ_section_title
;
Structure prediction by ZEFSAII (Michael W. Deem and Ramdas Pophale) SiO2 
 PCOD9283635
Probable space group: C 2/C
;
_chemical_formula_sum "Si O2"
_cell_formula_units_Z 48
_cell_length_a 7.526104
_cell_length_b 28.780995
_cell_length_c 14.435371
_cell_angle_alpha 90.000000
_cell_angle_beta 42.601535
_cell_angle_gamma 90.000000
_cell_volume 2116.536285
_symmetry_space_group_name_H-M "C 2/C"
_symmetry_group_IT_number 15
_symmetry_cell_setting 'monoclinic'
loop_
_space_group_symop_operation_xyz
x,y,z
-x,y,1/2-z
-x,-y,-z
x,-y,1/2+z
1/2+x,1/2+y,z
1/2-x,1/2+y,1/2-z
1/2-x,1/2-y,-z
1/2+x,1/2-y,1/2+z
loop_
_atom_site_type_symbol
_atom_site_label
_atom_site_fract_x
_atom_site_fract_y
_atom_site_fract_z
Si Si1 0.836256 0.672660 0.496949
Si Si2 0.907279 0.030565 0.648130
Si Si3 0.146790 0.425932 0.428042
Si Si4 0.908570 0.934870 0.944357
Si Si5 0.688413 0.737944 0.396506
Si Si6 0.370011 0.343037 0.701321
O O1 0.764671 0.626221 0.578865
O O2 0.654822 0.704432 0.500005
O O3 0.924141 0.711657 0.537344
O O4 0.061895 0.656491 0.340143
O O5 0.217050 0.041975 0.546655
O O6 0.762068 0.057226 0.785615
O O7 0.825409 0.048267 0.578789
O O8 0.891351 0.975156 0.663947
O O9 0.835984 0.430176 0.532063
O O10 0.041722 0.884672 0.898143
O O11 0.565105 0.707620 0.362755
O O12 0.000000 0.743877 0.250000
O O13 0.500000 0.350599 0.750000
#
# Coordination Sequence:
#
# PCOD9283635 Si02
#       6
#     8   8   8   8   8   8
#     4  10  21  40  63  91 123 164 210 262 316 378
#     4  10  25  40  65  94 126 171 213 258 326 368
#     4  11  22  40  66  95 125 164 214 262 319 377
#     4  11  23  44  62  91 132 166 213 266 309 391
#     4   9  21  40  64  90 125 164 212 264 317 385
#     4  11  22  39  62  91 124 164 208 257 325 373
#
# _framework density 22.678563
#
# number of rings (size 3 to 8) (size 9 to 14) (size 15 to 20)
#    0.000    1.667    1.667    2.000    4.667    2.000 
#    3.000    5.000    0.000    0.000    0.000    0.000 
#    0.000    0.000    0.000    0.000    0.000    0.000 
#
# Total GULP energy -133969.406271 kJ/mol
# GULP energy per Si atom -5582.058595 kJ/mol
# Density = 2.262695 g / cm^3
# Si number density = 22.678563 Si / 1000 Ang^3
#
#
#
# Elastic Constant Matrix: (Units=GPa)
#
#
# Indices 1 2 3 4 5 6 
#
# 1 59.9559 -0.0203 0.3751 0.0000 6.6031 0.0000
# 2 -0.0203 89.2081 7.7324 0.0000 4.6683 0.0000
# 3 0.3751 7.7324 47.8121 0.0000 9.0763 0.0000
# 4 0.0000 0.0000 0.0000 24.3966 0.0000 7.5628
# 5 6.6031 4.6683 9.0763 0.0000 27.9547 0.0000
# 6 0.0000 0.0000 0.0000 7.5628 0.0000 22.4554
#
#
#
# Elastic Compliance Matrix: (Units=1/GPa)
#
#
# Indices 1 2 3 4 5 6 
#
# 1 0.017147 0.000172 0.000652 0.000000 -0.004291 0.000000
# 2 0.000172 0.011422 -0.001576 0.000000 -0.001436 0.000000
# 3 0.000652 -0.001576 0.022533 0.000000 -0.007207 0.000000
# 4 0.000000 0.000000 0.000000 0.045768 0.000000 -0.015414
# 5 -0.004291 -0.001436 -0.007207 0.000000 0.039365 0.000000
# 6 0.000000 0.000000 0.000000 -0.015414 0.000000 0.049724
#
#
# Mechanical properties :
#
#
# Convention : Reuss Voigt Hill
#
# Bulk Modulus (GPa) = 20.16188 23.68340 21.92264
# Shear Modulus (GPa) = 24.51034 27.55393 26.03213
#
# Velocity S-wave (km/s) = 3.29107 3.48943 3.39170
# Velocity P-wave (km/s) = 4.83230 5.16726 5.00259
#
# Compressibility (1/GPa) = 0.04959855
#
# Stress axis : x y z
#
# Youngs Moduli (GPa) = 58.31763 87.55386 44.37931
#
# Poissons Ratio (x) = -0.01505 -0.02894
# Poissons Ratio (y) = -0.01002 0.06993
# Poissons Ratio (z) = -0.03803 0.13797
#
# Static dielectric constant tensor:
#      x y z
#    x 1.904890 0.000000 -0.028110 
#    y 0.000000 1.843670 0.000000 
#    z -0.028110 0.000000 1.890110 
# 
# From -- ./inp_files/80218.got.cif
#   From: 2010.05.17/outbox.cif.g08.bks.cpg/sg15_41_cif.got.tgz:80218.got - 2010.06.03 18:47:42.
