data_PCOD9283713
_publ_section_title
;
Structure prediction by ZEFSAII (Michael W. Deem and Ramdas Pophale) SiO2 
 PCOD9283713
Probable space group: C 2/C
;
_chemical_formula_sum "Si O2"
_cell_formula_units_Z 56
_cell_length_a 6.080376
_cell_length_b 25.653501
_cell_length_c 18.203303
_cell_angle_alpha 90.000000
_cell_angle_beta 117.267698
_cell_angle_gamma 90.000000
_cell_volume 2523.877632
_symmetry_space_group_name_H-M "C 2/C"
_symmetry_group_IT_number 15
_symmetry_cell_setting 'monoclinic'
loop_
_space_group_symop_operation_xyz
x,y,z
-x,y,1/2-z
-x,-y,-z
x,-y,1/2+z
1/2+x,1/2+y,z
1/2-x,1/2+y,1/2-z
1/2-x,1/2-y,-z
1/2+x,1/2-y,1/2+z
loop_
_atom_site_type_symbol
_atom_site_label
_atom_site_fract_x
_atom_site_fract_y
_atom_site_fract_z
Si Si1 0.775431 0.887455 0.587031
Si Si2 0.685223 0.079891 0.569848
Si Si3 0.500000 0.266733 0.250000
Si Si4 0.500000 0.088141 0.250000
Si Si5 0.937724 0.322669 0.625198
Si Si6 0.473486 0.158625 0.826603
Si Si7 0.214261 0.019248 0.326050
Si Si8 0.981472 0.152236 0.965605
O O1 0.512891 0.914019 0.525559
O O2 0.695928 0.840685 0.627835
O O3 0.916125 0.932760 0.650914
O O4 0.887879 0.869752 0.528628
O O5 0.602501 0.116908 0.623934
O O6 0.934805 0.104987 0.574850
O O7 0.684834 0.022003 0.600886
O O8 0.526984 0.229695 0.324599
O O9 0.249943 0.300536 0.213412
O O10 0.627573 0.131394 0.325100
O O11 0.388264 0.048371 0.294084
O O12 0.730624 0.317938 0.529248
O O13 0.500000 0.134443 0.750000
O O14 0.744130 0.179999 0.892986
O O15 0.000000 0.989163 0.250000
#
# Coordination Sequence:
#
# PCOD9283713 Si02
#       8
#     8   8   4   4   8   8   8   8
#     4   9  20  40  59  90 124 159 203 252 301 363
#     4  10  23  39  60  84 123 168 205 252 298 355
#     4  11  24  42  66  94 122 158 202 261 314 368
#     4   9  20  38  58  94 134 160 198 257 304 366
#     4   9  20  41  66  91 125 159 201 256 314 362
#     4  11  25  42  62  86 123 160 207 259 306 366
#     4  11  22  32  59  92 123 164 209 245 299 363
#     4  10  21  40  64  86 123 166 203 254 302 363
#
# _framework density 22.188082000000001
#
# number of rings (size 3 to 8) (size 9 to 14) (size 15 to 20)
#    0.000    2.000    0.000    2.143    4.000    3.429 
#    0.000   11.429    0.000    0.000    0.000    0.000 
#    0.000    0.000    0.000    0.000    0.000    0.000 
#
# Total GULP energy -156117.914257 kJ/mol
# GULP energy per Si atom -5575.639795 kJ/mol
# Density = 2.213758 g / cm^3
# Si number density = 22.188082 Si / 1000 Ang^3
#
#
#
# Elastic Constant Matrix: (Units=GPa)
#
#
# Indices 1 2 3 4 5 6 
#
# 1 60.9572 38.9391 29.3185 0.0000 -10.7703 0.0000
# 2 38.9391 75.0260 21.8342 0.0000 -5.4982 0.0000
# 3 29.3185 21.8342 104.7545 0.0000 -2.8094 0.0000
# 4 0.0000 0.0000 0.0000 34.0616 0.0000 -7.8337
# 5 -10.7703 -5.4982 -2.8094 0.0000 53.6665 0.0000
# 6 0.0000 0.0000 0.0000 -7.8337 0.0000 9.8401
#
#
#
# Elastic Compliance Matrix: (Units=1/GPa)
#
#
# Indices 1 2 3 4 5 6 
#
# 1 0.027512 -0.012538 -0.004980 0.000000 0.003976 0.000000
# 2 -0.012538 0.019995 -0.000672 0.000000 -0.000503 0.000000
# 3 -0.004980 -0.000672 0.011067 0.000000 -0.000489 0.000000
# 4 0.000000 0.000000 0.000000 0.035939 0.000000 0.028611
# 5 0.003976 -0.000503 -0.000489 0.000000 0.019354 0.000000
# 6 0.000000 0.000000 0.000000 0.028611 0.000000 0.124401
#
#
# Mechanical properties :
#
#
# Convention : Reuss Voigt Hill
#
# Bulk Modulus (GPa) = 45.05837 46.76904 45.91371
# Shear Modulus (GPa) = 17.72756 29.55670 23.64213
#
# Velocity S-wave (km/s) = 2.82967 3.65375 3.26779
# Velocity P-wave (km/s) = 5.57024 6.23892 5.91404
#
# Compressibility (1/GPa) = 0.02219343
#
# Stress axis : x y z
#
# Youngs Moduli (GPa) = 36.34758 50.01281 90.35990
#
# Poissons Ratio (x) = 0.62708 0.44999
# Poissons Ratio (y) = 0.45574 0.06071
# Poissons Ratio (z) = 0.18101 0.03360
#
# Static dielectric constant tensor:
#      x y z
#    x 1.873590 0.000000 0.060290 
#    y 0.000000 1.781540 0.000000 
#    z 0.060290 0.000000 1.827910 
# 
# From -- ./inp_files/186253.got.cif
#   From: 2010.05.17/outbox.cif.g08.bks.cpg/sg15_94_cif.got.tgz:186253.got - 2010.06.03 18:47:42.
