data_PCOD9283391
_publ_section_title
;
Structure prediction by ZEFSAII (Michael W. Deem and Ramdas Pophale) SiO2 
 PCOD9283391
Probable space group: C 2/C
;
_chemical_formula_sum "Si O2"
_cell_formula_units_Z 32
_cell_length_a 22.105056
_cell_length_b 5.254775
_cell_length_c 10.214648
_cell_angle_alpha 90.000000
_cell_angle_beta 99.807570
_cell_angle_gamma 90.000000
_cell_volume 1169.163567
_symmetry_space_group_name_H-M "C 2/C"
_symmetry_group_IT_number 15
_symmetry_cell_setting 'monoclinic'
loop_
_space_group_symop_operation_xyz
x,y,z
-x,y,1/2-z
-x,-y,-z
x,-y,1/2+z
1/2+x,1/2+y,z
1/2-x,1/2+y,1/2-z
1/2-x,1/2-y,-z
1/2+x,1/2-y,1/2+z
loop_
_atom_site_type_symbol
_atom_site_label
_atom_site_fract_x
_atom_site_fract_y
_atom_site_fract_z
Si Si1 0.782978 0.554948 0.409985
Si Si2 0.069239 0.837787 0.828890
Si Si3 0.172444 0.039075 0.161790
Si Si4 0.037605 0.350854 0.900003
O O1 0.750000 0.750000 0.500000
O O2 0.809253 0.266421 0.433456
O O3 0.731116 0.525827 0.279963
O O4 0.835901 0.747796 0.383722
O O5 0.114640 0.895413 0.728910
O O6 0.088273 0.559484 0.884345
O O7 0.000000 0.804943 0.750000
O O8 0.064408 0.068497 0.931619
O O9 0.000000 0.310714 0.750000
O O10 0.000000 0.500000 0.000000
#
# Coordination Sequence:
#
# PCOD9283391 Si02
#       4
#     8   8   8   8
#     4  10  21  40  63  90 117 158 211 259 309 362
#     4  10  21  40  61  91 126 163 204 254 316 384
#     4  10  21  40  63  87 124 158 204 257 310 372
#     4  10  21  40  61  86 129 168 209 253 304 376
#
# _framework density 27.369993000000001
#
# number of rings (size 3 to 8) (size 9 to 14) (size 15 to 20)
#    0.000    2.000    0.000    3.000    0.000    0.000 
#   27.000    0.000    0.000    0.000    0.000    0.000 
#    0.000    0.000    0.000    0.000    0.000    0.000 
#
# Total GULP energy -89326.626930 kJ/mol
# GULP energy per Si atom -5582.914183 kJ/mol
# Density = 2.730770 g / cm^3
# Si number density = 27.369993 Si / 1000 Ang^3
#
#
#
# Elastic Constant Matrix: (Units=GPa)
#
#
# Indices 1 2 3 4 5 6 
#
# 1 90.9626 10.6288 1.0065 0.0000 3.2567 0.0000
# 2 10.6288 159.3005 -2.0248 0.0000 27.4413 0.0000
# 3 1.0065 -2.0248 62.4347 0.0000 6.5863 0.0000
# 4 0.0000 0.0000 0.0000 6.5054 0.0000 20.7889
# 5 3.2567 27.4413 6.5863 0.0000 56.6114 0.0000
# 6 0.0000 0.0000 0.0000 20.7889 0.0000 29.8376
#
#
#
# Elastic Compliance Matrix: (Units=1/GPa)
#
#
# Indices 1 2 3 4 5 6 
#
# 1 0.011087 -0.000693 -0.000171 0.000000 -0.000282 0.000000
# 2 -0.000693 0.006914 0.000592 0.000000 -0.003380 0.000000
# 3 -0.000171 0.000592 0.016268 0.000000 -0.002170 0.000000
# 4 0.000000 0.000000 0.000000 -0.125331 0.000000 0.087322
# 5 -0.000282 -0.003380 -0.002170 0.000000 0.019571 0.000000
# 6 0.000000 0.000000 0.000000 0.087322 0.000000 -0.027325
#
#
# Mechanical properties :
#
#
# Convention : Reuss Voigt Hill
#
# Bulk Modulus (GPa) = 29.65439 36.87988 33.26713
# Shear Modulus (GPa) = -57.45079 38.79671 -9.32704
#
# Velocity S-wave (km/s) = -4.58650 3.76904 -1.84802
# Velocity P-wave (km/s) = 4.14606 5.69603 2.76178
#
# Compressibility (1/GPa) = 0.03372182
#
# Stress axis : x y z
#
# Youngs Moduli (GPa) = 90.19951 144.64444 61.47199
#
# Poissons Ratio (x) = 0.10029 0.01054
# Poissons Ratio (y) = 0.06254 -0.03639
# Poissons Ratio (z) = 0.01547 -0.08562
#
# Static dielectric constant tensor:
#      x y z
#    x 2.214920 0.000000 0.181350 
#    y 0.000000 2.365520 0.000000 
#    z 0.181350 0.000000 2.631390 
# 
# From -- ./inp_files/109022.got.cif
#   From: 2010.05.17/outbox.cif.g08.bks.cpg/sg15_55_cif.got.tgz:109022.got - 2010.06.03 18:47:42.
