data_PCOD9283953
_publ_section_title
;
Structure prediction by ZEFSAII (Michael W. Deem and Ramdas Pophale) SiO2 
 PCOD9283953
Probable space group: C 2/C
;
_chemical_formula_sum "Si O2"
_cell_formula_units_Z 44
_cell_length_a 24.985009
_cell_length_b 11.422244
_cell_length_c 19.761567
_cell_angle_alpha 90.000000
_cell_angle_beta 18.839017
_cell_angle_gamma 90.000000
_cell_volume 1821.101591
_symmetry_space_group_name_H-M "C 2/C"
_symmetry_group_IT_number 15
_symmetry_cell_setting 'monoclinic'
loop_
_space_group_symop_operation_xyz
x,y,z
-x,y,1/2-z
-x,-y,-z
x,-y,1/2+z
1/2+x,1/2+y,z
1/2-x,1/2+y,1/2-z
1/2-x,1/2-y,-z
1/2+x,1/2-y,1/2+z
loop_
_atom_site_type_symbol
_atom_site_label
_atom_site_fract_x
_atom_site_fract_y
_atom_site_fract_z
Si Si1 0.500000 0.606516 0.250000
Si Si2 0.029320 0.678775 0.468043
Si Si3 0.725950 0.478962 0.310126
Si Si4 0.913714 0.676857 0.941429
Si Si5 0.294740 0.966974 0.474291
Si Si6 0.871068 0.080432 0.722022
O O1 0.544535 0.696438 0.137502
O O2 0.345040 0.532217 0.414499
O O3 0.158755 0.577171 0.292782
O O4 0.073242 0.688494 0.494574
O O5 0.563682 0.703917 0.885036
O O6 0.839018 0.635941 0.688828
O O7 0.533870 0.510501 0.554333
O O8 0.713399 0.480540 0.242580
O O9 0.047089 0.578205 0.756853
O O10 0.767282 0.633581 0.065984
O O11 0.265185 0.081751 0.555306
#
# Coordination Sequence:
#
# PCOD9283953 Si02
#       6
#     4   8   8   8   8   8
#     4  10  22  34  60  94 130 176 228 278 336 406
#     4  11  23  42  69 100 133 183 230 286 351 409
#     4  10  24  40  62  98 137 178 223 296 336 416
#     4  10  21  40  65  95 139 177 227 286 355 402
#     4  10  22  39  59 100 135 179 217 290 341 415
#     4  11  23  40  65  99 140 178 228 287 347 411
#
# _framework density 24.161199
#
# number of rings (size 3 to 8) (size 9 to 14) (size 15 to 20)
#    0.000    1.818    1.818    3.273    7.636    2.909 
#    0.000    0.000    0.000    4.364    0.000    0.000 
#    0.000    0.000    0.000    0.000    0.000    0.000 
#
# Total GULP energy -122607.216027 kJ/mol
# GULP energy per Si atom -5573.055274 kJ/mol
# Density = 2.410621 g / cm^3
# Si number density = 24.161199 Si / 1000 Ang^3
#
#
#
# Elastic Constant Matrix: (Units=GPa)
#
#
# Indices 1 2 3 4 5 6 
#
# 1 78.6447 40.7958 51.8433 -0.0002 -14.1476 0.0000
# 2 40.7958 106.4062 52.9304 -0.0002 2.4044 0.0001
# 3 51.8433 52.9304 103.0207 0.0004 -18.6039 -0.0002
# 4 -0.0002 -0.0002 0.0004 30.3915 0.0001 -7.8762
# 5 -14.1476 2.4044 -18.6039 0.0001 48.6813 -0.0001
# 6 0.0000 0.0001 -0.0002 -7.8762 -0.0001 28.3287
#
#
#
# Elastic Compliance Matrix: (Units=1/GPa)
#
#
# Indices 1 2 3 4 5 6 
#
# 1 0.020440 -0.004145 -0.007569 0.000000 0.003252 0.000000
# 2 -0.004145 0.013989 -0.005847 0.000000 -0.004130 0.000000
# 3 -0.007569 -0.005847 0.017374 0.000000 0.004729 0.000000
# 4 0.000000 0.000000 0.000000 0.035459 0.000000 0.009859
# 5 0.003252 -0.004130 0.004729 0.000000 0.023498 0.000000
# 6 0.000000 0.000000 0.000000 0.009859 0.000000 0.038041
#
#
# Mechanical properties :
#
#
# Convention : Reuss Voigt Hill
#
# Bulk Modulus (GPa) = 59.95079 64.35673 62.15376
# Shear Modulus (GPa) = 26.38735 30.98046 28.68390
#
# Velocity S-wave (km/s) = 3.30834 3.58472 3.44930
# Velocity P-wave (km/s) = 6.28173 6.62026 6.45322
#
# Compressibility (1/GPa) = 0.01668035
#
# Stress axis : x y z
#
# Youngs Moduli (GPa) = 48.92267 71.48406 57.55703
#
# Poissons Ratio (x) = 0.29630 0.43567
# Poissons Ratio (y) = 0.20279 0.33655
# Poissons Ratio (z) = 0.37031 0.41799
#
# Static dielectric constant tensor:
#      x y z
#    x 1.968650 0.000000 0.017120 
#    y 0.000000 1.993810 0.000000 
#    z 0.017120 0.000000 2.164150 
# 
# From -- ./inp_files/256052.got.cif
#   From: 2010.05.17/outbox.cif.g08.bks.cpg/sg15_129_cif.got.tgz:256052.got - 2010.06.03 18:47:42.
