data_PCOD9283848
_publ_section_title
;
Structure prediction by ZEFSAII (Michael W. Deem and Ramdas Pophale) SiO2 
 PCOD9283848
Probable space group: C 2/C
;
_chemical_formula_sum "Si O2"
_cell_formula_units_Z 60
_cell_length_a 27.902198
_cell_length_b 11.352489
_cell_length_c 12.763321
_cell_angle_alpha 90.000000
_cell_angle_beta 137.721224
_cell_angle_gamma 90.000000
_cell_volume 2719.815672
_symmetry_space_group_name_H-M "C 2/C"
_symmetry_group_IT_number 15
_symmetry_cell_setting 'monoclinic'
loop_
_space_group_symop_operation_xyz
x,y,z
-x,y,1/2-z
-x,-y,-z
x,-y,1/2+z
1/2+x,1/2+y,z
1/2-x,1/2+y,1/2-z
1/2-x,1/2-y,-z
1/2+x,1/2-y,1/2+z
loop_
_atom_site_type_symbol
_atom_site_label
_atom_site_fract_x
_atom_site_fract_y
_atom_site_fract_z
Si Si1 0.939586 0.434790 0.279931
Si Si2 0.886280 0.204277 0.447866
Si Si3 0.800123 0.420025 0.396058
Si Si4 0.595930 0.075827 0.073994
Si Si5 0.174563 0.017617 0.553077
Si Si6 0.285944 0.864905 0.601420
Si Si7 0.835676 0.225052 0.126607
Si Si8 0.500000 0.148382 0.250000
O O1 0.922552 0.473752 0.371481
O O2 0.881392 0.336595 0.159948
O O3 0.950301 0.557345 0.233693
O O4 0.979503 0.382389 0.091480
O O5 0.827465 0.291240 0.405152
O O6 0.881801 0.075841 0.493435
O O7 0.867241 0.198038 0.293977
O O8 0.958330 0.270542 0.599953
O O9 0.851001 0.513979 0.421141
O O10 0.720268 0.432826 0.224102
O O11 0.802790 0.437382 0.524033
O O12 0.644057 0.164505 0.218257
O O13 0.232170 0.940725 0.582220
O O14 0.152802 0.120391 0.438236
O O15 0.250000 0.750000 0.500000
O O16 0.750000 0.250000 0.000000
#
# Coordination Sequence:
#
# PCOD9283848 Si02
#       8
#     8   8   8   8   8   8   8   4
#     4  11  22  42  70 104 139 179 238 299 362 423
#     4  12  23  45  73 100 144 189 241 304 370 429
#     4  11  20  42  65 101 137 184 232 297 357 420
#     4  10  21  40  65 103 136 177 238 293 361 424
#     4  11  25  42  67 102 141 192 240 292 370 432
#     4  11  22  38  65 100 141 180 237 293 347 429
#     4  12  24  48  72 106 151 191 237 310 365 435
#     4  12  26  44  76 112 140 192 246 306 364 450
#
# _framework density 22.060317999999999
#
# number of rings (size 3 to 8) (size 9 to 14) (size 15 to 20)
#    0.000    0.800    5.333    3.200    0.000    1.067 
#    2.400    1.333    0.000    0.000    0.000    0.000 
#    0.000    0.000    0.000    0.000    0.000    0.000 
#
# Total GULP energy -167683.896290 kJ/mol
# GULP energy per Si atom -5589.463210 kJ/mol
# Density = 2.201011 g / cm^3
# Si number density = 22.060318 Si / 1000 Ang^3
#
#
#
# Elastic Constant Matrix: (Units=GPa)
#
#
# Indices 1 2 3 4 5 6 
#
# 1 80.5287 39.9249 43.5267 0.0000 -3.1892 0.0000
# 2 39.9249 128.8314 70.8409 0.0000 18.2910 0.0000
# 3 43.5267 70.8409 168.0402 0.0000 8.3034 0.0000
# 4 0.0000 0.0000 0.0000 42.5398 0.0000 -3.5139
# 5 -3.1892 18.2910 8.3034 0.0000 39.6737 0.0000
# 6 0.0000 0.0000 0.0000 -3.5139 0.0000 37.1026
#
#
#
# Elastic Compliance Matrix: (Units=1/GPa)
#
#
# Indices 1 2 3 4 5 6 
#
# 1 0.015982 -0.004036 -0.002621 0.000000 0.003694 0.000000
# 2 -0.004036 0.011727 -0.003653 0.000000 -0.004966 0.000000
# 3 -0.002621 -0.003653 0.008181 0.000000 -0.000239 0.000000
# 4 0.000000 0.000000 0.000000 0.023693 0.000000 0.002244
# 5 0.003694 -0.004966 -0.000239 0.000000 0.027842 0.000000
# 6 0.000000 0.000000 0.000000 0.002244 0.000000 0.027165
#
#
# Mechanical properties :
#
#
# Convention : Reuss Voigt Hill
#
# Bulk Modulus (GPa) = 65.48504 76.22058 70.85281
# Shear Modulus (GPa) = 35.63819 38.73707 37.18763
#
# Velocity S-wave (km/s) = 4.02367 4.19497 4.11021
# Velocity P-wave (km/s) = 7.16489 7.62166 7.39680
#
# Compressibility (1/GPa) = 0.01527066
#
# Stress axis : x y z
#
# Youngs Moduli (GPa) = 62.57110 85.27681 122.22764
#
# Poissons Ratio (x) = 0.34419 0.32032
# Poissons Ratio (y) = 0.25255 0.44646
# Poissons Ratio (z) = 0.16398 0.31149
#
# Static dielectric constant tensor:
#      x y z
#    x 1.879070 0.000000 0.007240 
#    y 0.000000 1.827050 0.000000 
#    z 0.007240 0.000000 1.925140 
# 
# From -- ./inp_files/126451.got.cif
#   From: 2010.05.17/outbox.cif.g08.bks.cpg/sg15_64_cif.got.tgz:126451.got - 2010.06.03 18:47:42.
