data_PCOD9283866
_publ_section_title
;
Structure prediction by ZEFSAII (Michael W. Deem and Ramdas Pophale) SiO2 
 PCOD9283866
Probable space group: C 2/C
;
_chemical_formula_sum "Si O2"
_cell_formula_units_Z 52
_cell_length_a 18.348818
_cell_length_b 15.770114
_cell_length_c 21.954067
_cell_angle_alpha 90.000000
_cell_angle_beta 27.023779
_cell_angle_gamma 90.000000
_cell_volume 2886.411451
_symmetry_space_group_name_H-M "C 2/C"
_symmetry_group_IT_number 15
_symmetry_cell_setting 'monoclinic'
loop_
_space_group_symop_operation_xyz
x,y,z
-x,y,1/2-z
-x,-y,-z
x,-y,1/2+z
1/2+x,1/2+y,z
1/2-x,1/2+y,1/2-z
1/2-x,1/2-y,-z
1/2+x,1/2-y,1/2+z
loop_
_atom_site_type_symbol
_atom_site_label
_atom_site_fract_x
_atom_site_fract_y
_atom_site_fract_z
Si Si1 0.083872 0.484130 0.089731
Si Si2 0.228541 0.759360 0.942721
Si Si3 0.280529 0.563824 0.628150
Si Si4 0.996291 0.090595 0.922995
Si Si5 0.840936 0.075858 0.824874
Si Si6 0.325021 0.179050 0.901432
Si Si7 0.500000 0.120645 0.250000
O O1 0.148871 0.403187 0.076525
O O2 0.897000 0.463482 0.216611
O O3 0.083782 0.561545 0.138020
O O4 0.206863 0.508796 0.945512
O O5 0.253451 0.666993 0.896482
O O6 0.374851 0.817744 0.811235
O O7 0.250000 0.750000 0.000000
O O8 0.076402 0.816839 0.038902
O O9 0.391819 0.591535 0.601079
O O10 0.360236 0.480600 0.537620
O O11 0.263811 0.640345 0.591780
O O12 0.095878 0.062324 0.789900
O O13 0.000000 0.075201 0.750000
O O14 0.500000 0.209457 0.750000
O O15 0.250000 0.250000 0.000000
#
# Coordination Sequence:
#
# PCOD9283866 Si02
#       7
#     8   8   8   8   8   8   4
#     4  11  21  38  66  88 122 163 211 259 312 367
#     4  12  20  34  59  94 126 161 201 257 301 373
#     4  10  22  43  64  85 122 171 202 255 324 373
#     4  11  23  40  61  90 128 162 211 248 313 383
#     4  12  23  35  61  98 128 159 211 261 306 376
#     4  10  21  40  65  89 112 157 213 263 304 359
#     4  12  16  34  60  86 120 158 208 238 308 370
#
# _framework density 18.015450000000001
#
# number of rings (size 3 to 8) (size 9 to 14) (size 15 to 20)
#    0.000    0.923    7.692    0.923    0.000    2.462 
#    5.538    0.000    0.000    0.000    0.000    0.000 
#    0.000    0.000    0.000    0.000    0.000    0.000 
#
# Total GULP energy -145080.368199 kJ/mol
# GULP energy per Si atom -5580.014162 kJ/mol
# Density = 1.797445 g / cm^3
# Si number density = 18.015450 Si / 1000 Ang^3
#
#
#
# Elastic Constant Matrix: (Units=GPa)
#
#
# Indices 1 2 3 4 5 6 
#
# 1 114.0205 39.3474 58.6651 -0.0039 -3.0159 0.0024
# 2 39.3474 65.9805 53.4593 -0.0219 4.5540 0.0087
# 3 58.6651 53.4593 131.5042 -0.0278 10.7102 0.0058
# 4 -0.0039 -0.0219 -0.0278 40.0830 0.0043 4.5694
# 5 -3.0159 4.5540 10.7102 0.0043 20.5062 0.0005
# 6 0.0024 0.0087 0.0058 4.5694 0.0005 15.0861
#
#
#
# Elastic Compliance Matrix: (Units=1/GPa)
#
#
# Indices 1 2 3 4 5 6 
#
# 1 0.012615 -0.004441 -0.004234 -0.000005 0.005053 0.000004
# 2 -0.004441 0.024165 -0.007678 0.000009 -0.002009 -0.000013
# 3 -0.004234 -0.007678 0.013083 0.000005 -0.005750 -0.000001
# 4 -0.000005 0.000009 0.000005 0.025840 -0.000011 -0.007827
# 5 0.005053 -0.002009 -0.005750 -0.000011 0.052959 0.000004
# 6 0.000004 -0.000013 -0.000001 -0.007827 0.000004 0.068657
#
#
# Mechanical properties :
#
#
# Convention : Reuss Voigt Hill
#
# Bulk Modulus (GPa) = 58.29089 68.27208 63.28149
# Shear Modulus (GPa) = 21.20949 25.80395 23.50672
#
# Velocity S-wave (km/s) = 3.43489 3.78871 3.61613
# Velocity P-wave (km/s) = 6.93957 7.55763 7.25518
#
# Compressibility (1/GPa) = 0.01715534
#
# Stress axis : x y z
#
# Youngs Moduli (GPa) = 79.27103 41.38274 76.43649
#
# Poissons Ratio (x) = 0.18380 0.32360
# Poissons Ratio (y) = 0.35208 0.58691
# Poissons Ratio (z) = 0.33560 0.31776
#
# Static dielectric constant tensor:
#      x y z
#    x 1.629950 0.000010 0.001020 
#    y 0.000010 1.623140 0.000030 
#    z 0.001020 0.000030 1.704430 
# 
# From -- ./inp_files/249100.got.cif
#   From: 2010.05.17/outbox.cif.g08.bks.cpg/sg15_125_cif.got.tgz:249100.got - 2010.06.03 18:47:42.
