data_PCOD9283236
_publ_section_title
;
Structure prediction by ZEFSAII (Michael W. Deem and Ramdas Pophale) SiO2 
 PCOD9283236
Probable space group: C 2/C
;
_chemical_formula_sum "Si O2"
_cell_formula_units_Z 36
_cell_length_a 28.652034
_cell_length_b 11.473183
_cell_length_c 15.455847
_cell_angle_alpha 90.000000
_cell_angle_beta 18.392304
_cell_angle_gamma 90.000000
_cell_volume 1603.102374
_symmetry_space_group_name_H-M "C 2/C"
_symmetry_group_IT_number 15
_symmetry_cell_setting 'monoclinic'
loop_
_space_group_symop_operation_xyz
x,y,z
-x,y,1/2-z
-x,-y,-z
x,-y,1/2+z
1/2+x,1/2+y,z
1/2-x,1/2+y,1/2-z
1/2-x,1/2-y,-z
1/2+x,1/2-y,1/2+z
loop_
_atom_site_type_symbol
_atom_site_label
_atom_site_fract_x
_atom_site_fract_y
_atom_site_fract_z
Si Si1 0.401526 0.113474 0.655085
Si Si2 0.367056 0.777535 0.872260
Si Si3 0.869999 0.139906 0.280100
Si Si4 0.675273 0.471803 0.288470
Si Si5 0.500000 0.574699 0.750000
O O1 0.480485 0.173173 0.435692
O O2 0.395150 0.220954 0.735289
O O3 0.500000 0.000000 0.500000
O O4 0.227066 0.089068 0.969701
O O5 0.406561 0.659947 0.851782
O O6 0.250000 0.750000 0.000000
O O7 0.303614 0.878089 0.046708
O O8 0.801247 0.086076 0.312684
O O9 0.033516 0.091590 0.997701
O O10 0.619033 0.506220 0.481947
#
# Coordination Sequence:
#
# PCOD9283236 Si02
#       5
#     8   8   8   8   4
#     4  11  21  36  70 106 134 176 233 286 347 421
#     4  12  24  48  71  98 140 189 230 287 359 421
#     4  10  21  39  70 100 131 178 231 285 352 421
#     4  11  22  44  67  95 137 185 230 285 355 414
#     4  12  28  44  66 108 148 182 240 298 348 430
#
# _framework density 22.456458000000001
#
# number of rings (size 3 to 8) (size 9 to 14) (size 15 to 20)
#    0.000    0.889    6.667    1.333    0.000    1.778 
#    0.000    0.000    0.000    0.000    0.000    0.000 
#    0.000    0.000    0.000    0.000    0.000    0.000 
#
# Total GULP energy -100381.948682 kJ/mol
# GULP energy per Si atom -5576.774927 kJ/mol
# Density = 2.240535 g / cm^3
# Si number density = 22.456458 Si / 1000 Ang^3
#
#
#
# Elastic Constant Matrix: (Units=GPa)
#
#
# Indices 1 2 3 4 5 6 
#
# 1 72.2847 25.5816 10.0964 0.0000 23.1579 0.0000
# 2 25.5816 143.2606 50.6501 0.0000 23.5786 0.0000
# 3 10.0964 50.6501 186.4166 0.0000 42.0547 0.0000
# 4 0.0000 0.0000 0.0000 54.7020 0.0000 24.1845
# 5 23.1579 23.5786 42.0547 0.0000 35.2807 0.0000
# 6 0.0000 0.0000 0.0000 24.1845 0.0000 14.2091
#
#
#
# Elastic Compliance Matrix: (Units=1/GPa)
#
#
# Indices 1 2 3 4 5 6 
#
# 1 0.018702 -0.001964 0.002728 0.000000 -0.014214 0.000000
# 2 -0.001964 0.008286 -0.001623 0.000000 -0.002313 0.000000
# 3 0.002728 -0.001623 0.007956 0.000000 -0.010190 0.000000
# 4 0.000000 0.000000 0.000000 0.073862 0.000000 -0.125716
# 5 -0.014214 -0.002313 -0.010190 0.000000 0.051366 0.000000
# 6 0.000000 0.000000 0.000000 -0.125716 0.000000 0.284352
#
#
# Mechanical properties :
#
#
# Convention : Reuss Voigt Hill
#
# Bulk Modulus (GPa) = 30.09839 63.84645 46.97242
# Shear Modulus (GPa) = 10.93329 41.88062 26.40695
#
# Velocity S-wave (km/s) = 2.20890 4.32321 3.43289
# Velocity P-wave (km/s) = 4.46517 7.30843 6.05603
#
# Compressibility (1/GPa) = 0.03322437
#
# Stress axis : x y z
#
# Youngs Moduli (GPa) = 53.46942 120.69107 125.68672
#
# Poissons Ratio (x) = 0.23709 -0.34281
# Poissons Ratio (y) = 0.10504 0.20398
# Poissons Ratio (z) = -0.14584 0.19588
#
# Static dielectric constant tensor:
#      x y z
#    x 1.869580 0.000000 -0.000590 
#    y 0.000000 1.959730 0.000000 
#    z -0.000590 0.000000 2.008270 
# 
# From -- ./inp_files/181662.got.cif
#   From: 2010.05.17/outbox.cif.g08.bks.cpg/sg15_91_cif.got.tgz:181662.got - 2010.06.03 18:47:42.
