data_PCOD9283009
_publ_section_title
;
Structure prediction by ZEFSAII (Michael W. Deem and Ramdas Pophale) SiO2 
 PCOD9283009
Probable space group: C 2/C
;
_chemical_formula_sum "Si O2"
_cell_formula_units_Z 40
_cell_length_a 8.265939
_cell_length_b 16.788229
_cell_length_c 11.898437
_cell_angle_alpha 90.000000
_cell_angle_beta 92.331374
_cell_angle_gamma 90.000000
_cell_volume 1649.785068
_symmetry_space_group_name_H-M "C 2/C"
_symmetry_group_IT_number 15
_symmetry_cell_setting 'monoclinic'
loop_
_space_group_symop_operation_xyz
x,y,z
-x,y,1/2-z
-x,-y,-z
x,-y,1/2+z
1/2+x,1/2+y,z
1/2-x,1/2+y,1/2-z
1/2-x,1/2-y,-z
1/2+x,1/2-y,1/2+z
loop_
_atom_site_type_symbol
_atom_site_label
_atom_site_fract_x
_atom_site_fract_y
_atom_site_fract_z
Si Si1 0.975768 0.259687 0.124395
Si Si2 0.782534 0.358269 0.964846
Si Si3 0.982098 0.935357 0.375566
Si Si4 0.327936 0.397349 0.917536
Si Si5 0.492749 0.971087 0.870107
O O1 0.807541 0.211646 0.103583
O O2 0.000000 0.290507 0.250000
O O3 0.108023 0.190854 0.106343
O O4 0.945536 0.327104 0.030830
O O5 0.826621 0.423013 0.873824
O O6 0.663974 0.393761 0.057768
O O7 0.000000 0.906620 0.250000
O O8 0.143505 0.912623 0.448650
O O9 0.940473 0.029683 0.374535
O O10 0.150025 0.414697 0.870291
O O11 0.500000 0.016669 0.750000
O O12 0.500000 0.000000 0.000000
#
# Coordination Sequence:
#
# PCOD9283009 Si02
#       5
#     8   8   8   8   8
#     4  10  21  41  67  89 135 182 224 273 337 414
#     4  10  23  43  62 100 131 176 228 285 335 406
#     4  10  21  39  66  93 131 176 235 283 337 411
#     4  10  22  38  63  96 129 182 223 275 346 408
#     4  12  26  42  67 101 141 176 226 291 351 402
#
# _framework density 24.245581999999999
#
# number of rings (size 3 to 8) (size 9 to 14) (size 15 to 20)
#    0.000    1.600    2.000    1.800    2.800    3.200 
#    0.000   13.000    0.000    0.000    0.000    0.000 
#    0.000    0.000    0.000    0.000    0.000    0.000 
#
# Total GULP energy -111577.807572 kJ/mol
# GULP energy per Si atom -5578.890379 kJ/mol
# Density = 2.419040 g / cm^3
# Si number density = 24.245582 Si / 1000 Ang^3
#
#
#
# Elastic Constant Matrix: (Units=GPa)
#
#
# Indices 1 2 3 4 5 6 
#
# 1 64.9630 10.2592 25.5464 0.0000 3.7417 0.0000
# 2 10.2592 78.8401 24.1353 0.0000 -12.1950 0.0000
# 3 25.5464 24.1353 203.3067 0.0000 -5.4525 0.0000
# 4 0.0000 0.0000 0.0000 12.0164 0.0000 3.6928
# 5 3.7417 -12.1950 -5.4525 0.0000 18.1711 0.0000
# 6 0.0000 0.0000 0.0000 3.6928 0.0000 36.3280
#
#
#
# Elastic Compliance Matrix: (Units=1/GPa)
#
#
# Indices 1 2 3 4 5 6 
#
# 1 0.016895 -0.002479 -0.001983 0.000000 -0.005738 0.000000
# 2 -0.002479 0.014946 -0.001190 0.000000 0.010184 0.000000
# 3 -0.001983 -0.001190 0.005342 0.000000 0.001213 0.000000
# 4 0.000000 0.000000 0.000000 0.085903 0.000000 -0.008732
# 5 -0.005738 0.010184 0.001213 0.000000 0.063412 0.000000
# 6 0.000000 0.000000 0.000000 -0.008732 0.000000 0.028415
#
#
# Mechanical properties :
#
#
# Convention : Reuss Voigt Hill
#
# Bulk Modulus (GPa) = 38.63987 51.88794 45.26390
# Shear Modulus (GPa) = 21.29095 32.44771 26.86933
#
# Velocity S-wave (km/s) = 2.96655 3.66224 3.33260
# Velocity P-wave (km/s) = 5.26359 6.27137 5.78945
#
# Compressibility (1/GPa) = 0.02588001
#
# Stress axis : x y z
#
# Youngs Moduli (GPa) = 59.18927 66.90780 187.21202
#
# Poissons Ratio (x) = 0.16587 0.37115
# Poissons Ratio (y) = 0.14673 0.22272
# Poissons Ratio (z) = 0.11734 0.07960
#
# Static dielectric constant tensor:
#      x y z
#    x 1.962800 0.000000 0.011050 
#    y 0.000000 2.091680 0.000000 
#    z 0.011050 0.000000 1.986330 
# 
# From -- ./inp_files/76793.got.cif
#   From: 2010.05.17/outbox.cif.g08.bks.cpg/sg15_39_cif.got.tgz:76793.got - 2010.06.03 18:47:42.
