data_PCOD9283462
_publ_section_title
;
Structure prediction by ZEFSAII (Michael W. Deem and Ramdas Pophale) SiO2 
 PCOD9283462
Probable space group: C 2/C
;
_chemical_formula_sum "Si O2"
_cell_formula_units_Z 56
_cell_length_a 11.400064
_cell_length_b 10.070998
_cell_length_c 24.101210
_cell_angle_alpha 90.000000
_cell_angle_beta 117.307222
_cell_angle_gamma 90.000000
_cell_volume 2458.697606
_symmetry_space_group_name_H-M "C 2/C"
_symmetry_group_IT_number 15
_symmetry_cell_setting 'monoclinic'
loop_
_space_group_symop_operation_xyz
x,y,z
-x,y,1/2-z
-x,-y,-z
x,-y,1/2+z
1/2+x,1/2+y,z
1/2-x,1/2+y,1/2-z
1/2-x,1/2-y,-z
1/2+x,1/2-y,1/2+z
loop_
_atom_site_type_symbol
_atom_site_label
_atom_site_fract_x
_atom_site_fract_y
_atom_site_fract_z
Si Si1 0.245575 0.826222 0.080969
Si Si2 0.287620 0.756245 0.338277
Si Si3 0.156802 0.260549 0.276538
Si Si4 0.056115 0.108598 0.407244
Si Si5 0.616139 0.521081 0.807705
Si Si6 0.946098 0.174857 0.534914
Si Si7 0.316560 0.874419 0.587579
O O1 0.269583 0.816705 0.153212
O O2 0.316830 0.702109 0.067778
O O3 0.089147 0.813036 0.038250
O O4 0.308544 0.967304 0.076538
O O5 0.287698 0.789968 0.272589
O O6 0.431333 0.704267 0.384025
O O7 0.189527 0.651921 0.347397
O O8 0.236729 0.891767 0.354239
O O9 0.167453 0.101070 0.282949
O O10 0.000000 0.293899 0.250000
O O11 0.046475 0.046470 0.344085
O O12 0.056841 0.976963 0.443984
O O13 0.500000 0.597538 0.750000
O O14 0.820966 0.183418 0.467234
O O15 0.925144 0.286609 0.578442
#
# Coordination Sequence:
#
# PCOD9283462 Si02
#       7
#     8   8   8   8   8   8   8
#     4  11  24  43  71 101 131 182 227 276 343 406
#     4  12  22  38  71  97 131 179 223 274 335 408
#     4  10  22  42  62  99 143 172 218 283 330 409
#     4  11  23  44  68  96 138 174 225 278 343 398
#     4  10  21  40  61  95 135 180 217 269 344 397
#     4  11  25  50  68  95 143 176 230 290 334 401
#     4  11  26  45  69 103 133 179 233 286 335 400
#
# _framework density 22.776285999999999
#
# number of rings (size 3 to 8) (size 9 to 14) (size 15 to 20)
#    0.000    1.143    7.143    0.429    4.000    2.857 
#    0.000    2.143    0.000    0.000    0.000    0.000 
#    0.000    0.000    0.000    0.000    0.000    0.000 
#
# Total GULP energy -156246.507772 kJ/mol
# GULP energy per Si atom -5580.232420 kJ/mol
# Density = 2.272445 g / cm^3
# Si number density = 22.776286 Si / 1000 Ang^3
#
#
#
# Elastic Constant Matrix: (Units=GPa)
#
#
# Indices 1 2 3 4 5 6 
#
# 1 99.2843 68.8003 8.1582 0.0000 -5.8249 0.0000
# 2 68.8003 95.8813 21.3838 0.0000 8.7160 0.0000
# 3 8.1582 21.3838 50.9724 0.0000 -1.2607 0.0000
# 4 0.0000 0.0000 0.0000 35.0577 0.0000 15.7628
# 5 -5.8249 8.7160 -1.2607 0.0000 22.4388 0.0000
# 6 0.0000 0.0000 0.0000 15.7628 0.0000 -46.9333
#
#
#
# Elastic Compliance Matrix: (Units=1/GPa)
#
#
# Indices 1 2 3 4 5 6 
#
# 1 0.024146 -0.019672 0.004739 0.000000 0.014175 0.000000
# 2 -0.019672 0.028060 -0.009032 0.000000 -0.016514 0.000000
# 3 0.004739 -0.009032 0.022798 0.000000 0.006019 0.000000
# 4 0.000000 0.000000 0.000000 0.024782 0.000000 0.008323
# 5 0.014175 -0.016514 0.006019 0.000000 0.054998 0.000000
# 6 0.000000 0.000000 0.000000 0.008323 0.000000 -0.018511
#
#
# Mechanical properties :
#
#
# Convention : Reuss Voigt Hill
#
# Bulk Modulus (GPa) = 36.93479 49.20251 43.06865
# Shear Modulus (GPa) = 25.87619 11.96569 18.92094
#
# Velocity S-wave (km/s) = 3.37427 2.29455 2.88537
# Velocity P-wave (km/s) = 5.60647 5.35438 5.48187
#
# Compressibility (1/GPa) = 0.02707475
#
# Stress axis : x y z
#
# Youngs Moduli (GPa) = 41.41467 35.63728 43.86371
#
# Poissons Ratio (x) = 0.70104 -0.20785
# Poissons Ratio (y) = 0.81469 0.39617
# Poissons Ratio (z) = -0.19624 0.32187
#
# Static dielectric constant tensor:
#      x y z
#    x 1.853000 0.000000 -0.048480 
#    y 0.000000 1.873220 0.000000 
#    z -0.048480 0.000000 1.998550 
# 
# From -- ./inp_files/291643.got.cif
#   From: 2010.05.17/outbox.cif.g08.bks.cpg/sg15_146_cif.got.tgz:291643.got - 2010.06.03 18:47:42.
