data_PCOD9283154
_publ_section_title
;
Structure prediction by ZEFSAII (Michael W. Deem and Ramdas Pophale) SiO2 
 PCOD9283154
Probable space group: C 2/C
;
_chemical_formula_sum "Si O2"
_cell_formula_units_Z 48
_cell_length_a 12.863105
_cell_length_b 10.833860
_cell_length_c 17.898155
_cell_angle_alpha 90.000000
_cell_angle_beta 119.732701
_cell_angle_gamma 90.000000
_cell_volume 2165.865106
_symmetry_space_group_name_H-M "C 2/C"
_symmetry_group_IT_number 15
_symmetry_cell_setting 'monoclinic'
loop_
_space_group_symop_operation_xyz
x,y,z
-x,y,1/2-z
-x,-y,-z
x,-y,1/2+z
1/2+x,1/2+y,z
1/2-x,1/2+y,1/2-z
1/2-x,1/2-y,-z
1/2+x,1/2-y,1/2+z
loop_
_atom_site_type_symbol
_atom_site_label
_atom_site_fract_x
_atom_site_fract_y
_atom_site_fract_z
Si Si1 0.760259 0.447500 0.118381
Si Si2 0.147354 0.648635 0.453276
Si Si3 0.184756 0.788497 0.779773
Si Si4 0.930426 0.747488 0.298532
Si Si5 0.275591 0.562702 0.055286
Si Si6 0.451934 0.512048 0.351332
O O1 0.826690 0.569091 0.112647
O O2 0.824293 0.355350 0.199579
O O3 0.632853 0.489270 0.107310
O O4 0.747400 0.376803 0.034197
O O5 0.250000 0.750000 0.500000
O O6 0.174745 0.544635 0.525455
O O7 0.018049 0.710335 0.398603
O O8 0.300042 0.804340 0.767750
O O9 0.214682 0.859514 0.866886
O O10 0.078355 0.858367 0.699457
O O11 0.915512 0.895276 0.287978
O O12 0.000000 0.709306 0.250000
O O13 0.406611 0.503056 0.088451
#
# Coordination Sequence:
#
# PCOD9283154 Si02
#       6
#     8   8   8   8   8   8
#     4   9  22  40  64  94 134 166 210 277 325 381
#     4  10  21  39  68  96 126 165 220 261 337 372
#     4  11  23  39  62  95 132 172 215 262 331 390
#     4  11  22  40  63  90 133 166 216 274 318 394
#     4  10  21  39  68  92 130 164 219 270 318 392
#     4  11  21  40  66  96 124 175 224 264 320 392
#
# _framework density 22.162044000000002
#
# number of rings (size 3 to 8) (size 9 to 14) (size 15 to 20)
#    1.000    0.667    1.667    3.500    0.000    0.667 
#    0.000    8.333    0.000    0.000    0.000    0.000 
#    0.000    0.000    0.000    0.000    0.000    0.000 
#
# Total GULP energy -133677.146401 kJ/mol
# GULP energy per Si atom -5569.881100 kJ/mol
# Density = 2.211160 g / cm^3
# Si number density = 22.162044 Si / 1000 Ang^3
#
#
#
# Elastic Constant Matrix: (Units=GPa)
#
#
# Indices 1 2 3 4 5 6 
#
# 1 51.3887 13.2963 -1.4329 0.0000 -9.5284 0.0000
# 2 13.2963 77.6371 17.6687 0.0000 0.1913 0.0000
# 3 -1.4329 17.6687 41.4866 0.0000 -2.3887 0.0000
# 4 0.0000 0.0000 0.0000 28.7030 0.0000 10.1992
# 5 -9.5284 0.1913 -2.3887 0.0000 39.1575 0.0000
# 6 0.0000 0.0000 0.0000 10.1992 0.0000 14.4395
#
#
#
# Elastic Compliance Matrix: (Units=1/GPa)
#
#
# Indices 1 2 3 4 5 6 
#
# 1 0.021695 -0.004398 0.002938 0.000000 0.005480 0.000000
# 2 -0.004398 0.015162 -0.006699 0.000000 -0.001553 0.000000
# 3 0.002938 -0.006699 0.027197 0.000000 0.002407 0.000000
# 4 0.000000 0.000000 0.000000 0.046514 0.000000 -0.032855
# 5 0.005480 -0.001553 0.002407 0.000000 0.027026 0.000000
# 6 0.000000 0.000000 0.000000 -0.032855 0.000000 0.092461
#
#
# Mechanical properties :
#
#
# Convention : Reuss Voigt Hill
#
# Bulk Modulus (GPa) = 20.94795 25.50851 23.22823
# Shear Modulus (GPa) = 19.06327 25.85868 22.46097
#
# Velocity S-wave (km/s) = 2.93606 3.41955 3.18699
# Velocity P-wave (km/s) = 4.57893 5.20827 4.90371
#
# Compressibility (1/GPa) = 0.04773736
#
# Stress axis : x y z
#
# Youngs Moduli (GPa) = 46.09279 65.95491 36.76866
#
# Poissons Ratio (x) = 0.29005 -0.10802
# Poissons Ratio (y) = 0.20270 0.24630
# Poissons Ratio (z) = -0.13541 0.44180
#
# Static dielectric constant tensor:
#      x y z
#    x 1.806310 0.000000 -0.025320 
#    y 0.000000 1.876550 0.000000 
#    z -0.025320 0.000000 1.864180 
# 
# From -- ./inp_files/243137.got.cif
#   From: 2010.05.17/outbox.cif.g08.bks.cpg/sg15_122_cif.got.tgz:243137.got - 2010.06.03 18:47:42.
