data_PCOD9283170
_publ_section_title
;
Structure prediction by ZEFSAII (Michael W. Deem and Ramdas Pophale) SiO2 
 PCOD9283170
Probable space group: C 2/C
;
_chemical_formula_sum "Si O2"
_cell_formula_units_Z 40
_cell_length_a 9.274466
_cell_length_b 22.475697
_cell_length_c 9.589107
_cell_angle_alpha 90.000000
_cell_angle_beta 131.411071
_cell_angle_gamma 90.000000
_cell_volume 1499.104212
_symmetry_space_group_name_H-M "C 2/C"
_symmetry_group_IT_number 15
_symmetry_cell_setting 'monoclinic'
loop_
_space_group_symop_operation_xyz
x,y,z
-x,y,1/2-z
-x,-y,-z
x,-y,1/2+z
1/2+x,1/2+y,z
1/2-x,1/2+y,1/2-z
1/2-x,1/2-y,-z
1/2+x,1/2-y,1/2+z
loop_
_atom_site_type_symbol
_atom_site_label
_atom_site_fract_x
_atom_site_fract_y
_atom_site_fract_z
Si Si1 0.853903 0.696782 0.986899
Si Si2 0.228393 0.426697 0.115317
Si Si3 0.294338 0.061654 0.429293
Si Si4 0.505690 0.610012 0.468762
Si Si5 0.163061 0.231957 0.591408
O O1 0.790504 0.631690 0.993754
O O2 0.802519 0.700004 0.789376
O O3 0.076392 0.712505 0.121198
O O4 0.750000 0.750000 0.000000
O O5 0.236128 0.492044 0.056501
O O6 0.408302 0.416523 0.333375
O O7 0.020811 0.426661 0.062056
O O8 0.180730 0.098467 0.471637
O O9 0.180115 0.077592 0.213562
O O10 0.499020 0.681675 0.466385
O O11 0.250000 0.250000 0.500000
#
# Coordination Sequence:
#
# PCOD9283170 Si02
#       5
#     8   8   8   8   8
#     4  11  25  45  65  99 143 178 222 283 359 418
#     4  10  22  43  63  93 135 178 223 286 345 423
#     4  10  21  39  68  95 126 174 234 282 352 400
#     4  10  22  40  64  96 131 170 232 291 341 412
#     4  11  24  42  71 100 133 182 233 287 343 414
#
# _framework density 26.682600999999998
#
# number of rings (size 3 to 8) (size 9 to 14) (size 15 to 20)
#    0.000    1.600    0.000    3.600    8.400    3.200 
#   18.000    2.000    0.000    0.000    0.000    0.000 
#    0.000    0.000    0.000    0.000    0.000    0.000 
#
# Total GULP energy -112068.158394 kJ/mol
# GULP energy per Si atom -5603.407920 kJ/mol
# Density = 2.662187 g / cm^3
# Si number density = 26.682601 Si / 1000 Ang^3
#
#
#
# Elastic Constant Matrix: (Units=GPa)
#
#
# Indices 1 2 3 4 5 6 
#
# 1 102.3471 30.2140 32.2278 0.0000 -0.4862 0.0000
# 2 30.2140 190.6814 34.2067 0.0000 0.2445 0.0000
# 3 32.2278 34.2067 116.6436 0.0000 11.6257 0.0000
# 4 0.0000 0.0000 0.0000 39.9181 0.0000 4.3258
# 5 -0.4862 0.2445 11.6257 0.0000 44.9462 0.0000
# 6 0.0000 0.0000 0.0000 4.3258 0.0000 43.8119
#
#
#
# Elastic Compliance Matrix: (Units=1/GPa)
#
#
# Indices 1 2 3 4 5 6 
#
# 1 0.011013 -0.001251 -0.002760 0.000000 0.000840 0.000000
# 2 -0.001251 0.005685 -0.001352 0.000000 0.000305 0.000000
# 3 -0.002760 -0.001352 0.009992 0.000000 -0.002607 0.000000
# 4 0.000000 0.000000 0.000000 0.025322 0.000000 -0.002500
# 5 0.000840 0.000305 -0.002607 0.000000 0.022931 0.000000
# 6 0.000000 0.000000 0.000000 -0.002500 0.000000 0.023072
#
#
# Mechanical properties :
#
#
# Convention : Reuss Voigt Hill
#
# Bulk Modulus (GPa) = 62.63907 66.99656 64.81781
# Shear Modulus (GPa) = 43.83638 46.60349 45.21994
#
# Velocity S-wave (km/s) = 4.05765 4.18375 4.12118
# Velocity P-wave (km/s) = 6.74383 6.96431 6.85496
#
# Compressibility (1/GPa) = 0.01596448
#
# Stress axis : x y z
#
# Youngs Moduli (GPa) = 90.80220 175.91075 100.08150
#
# Poissons Ratio (x) = 0.22007 0.27619
# Poissons Ratio (y) = 0.11360 0.13529
# Poissons Ratio (z) = 0.25058 0.23780
#
# Static dielectric constant tensor:
#      x y z
#    x 2.098050 0.000000 0.010090 
#    y 0.000000 2.031750 0.000000 
#    z 0.010090 0.000000 2.110750 
# 
# From -- ./inp_files/89857.got.cif
#   From: 2010.05.17/outbox.cif.g08.bks.cpg/sg15_45_cif.got.tgz:89857.got - 2010.06.03 18:47:42.
