data_PCOD9283304
_publ_section_title
;
Structure prediction by ZEFSAII (Michael W. Deem and Ramdas Pophale) SiO2 
 PCOD9283304
Probable space group: C 2/C
;
_chemical_formula_sum "Si O2"
_cell_formula_units_Z 40
_cell_length_a 9.818507
_cell_length_b 15.274094
_cell_length_c 16.677783
_cell_angle_alpha 90.000000
_cell_angle_beta 129.276960
_cell_angle_gamma 90.000000
_cell_volume 1936.125064
_symmetry_space_group_name_H-M "C 2/C"
_symmetry_group_IT_number 15
_symmetry_cell_setting 'monoclinic'
loop_
_space_group_symop_operation_xyz
x,y,z
-x,y,1/2-z
-x,-y,-z
x,-y,1/2+z
1/2+x,1/2+y,z
1/2-x,1/2+y,1/2-z
1/2-x,1/2-y,-z
1/2+x,1/2-y,1/2+z
loop_
_atom_site_type_symbol
_atom_site_label
_atom_site_fract_x
_atom_site_fract_y
_atom_site_fract_z
Si Si1 0.631938 0.463117 0.665610
Si Si2 0.288511 0.853509 0.172620
Si Si3 0.126332 0.577230 0.374318
Si Si4 0.736947 0.085054 0.009420
Si Si5 0.353992 0.833680 0.859850
O O1 0.702010 0.562690 0.684344
O O2 0.683965 0.422089 0.597363
O O3 0.426108 0.453876 0.604454
O O4 0.735389 0.405879 0.769508
O O5 0.500000 0.858974 0.250000
O O6 0.233839 0.857213 0.058899
O O7 0.226879 0.761321 0.184048
O O8 0.121908 0.495929 0.433520
O O9 0.000000 0.562932 0.250000
O O10 0.046969 0.658184 0.392521
O O11 0.651655 0.138301 0.049709
#
# Coordination Sequence:
#
# PCOD9283304 Si02
#       5
#     8   8   8   8   8
#     4  10  21  40  59  82 117 155 186 231 289 341
#     4  11  22  38  60  85 115 154 190 231 288 343
#     4   9  19  36  57  79 114 154 184 226 286 334
#     4  11  20  37  61  86 114 149 191 238 283 336
#     4  11  22  37  59  88 114 148 196 238 276 336
#
# _framework density 20.659822999999999
#
# number of rings (size 3 to 8) (size 9 to 14) (size 15 to 20)
#    0.000    1.600    0.000   10.200    0.000    0.000 
#    0.000   10.000    0.000    2.400    0.000    0.000 
#    0.000    0.000    0.000    0.000    0.000    0.000 
#
# Total GULP energy -111603.298724 kJ/mol
# GULP energy per Si atom -5580.164936 kJ/mol
# Density = 2.061280 g / cm^3
# Si number density = 20.659823 Si / 1000 Ang^3
#
#
#
# Elastic Constant Matrix: (Units=GPa)
#
#
# Indices 1 2 3 4 5 6 
#
# 1 70.8824 55.3969 6.3875 0.0000 9.2354 0.0000
# 2 55.3969 111.0232 20.6848 0.0000 -9.3985 0.0000
# 3 6.3875 20.6848 42.1159 0.0000 -4.8929 0.0000
# 4 0.0000 0.0000 0.0000 18.5415 0.0000 1.3475
# 5 9.2354 -9.3985 -4.8929 0.0000 29.8288 0.0000
# 6 0.0000 0.0000 0.0000 1.3475 0.0000 25.1604
#
#
#
# Elastic Compliance Matrix: (Units=1/GPa)
#
#
# Indices 1 2 3 4 5 6 
#
# 1 0.027467 -0.015132 0.001758 0.000000 -0.012984 0.000000
# 2 -0.015132 0.018418 -0.005640 0.000000 0.009563 0.000000
# 3 0.001758 -0.005640 0.026482 0.000000 0.002023 0.000000
# 4 0.000000 0.000000 0.000000 0.054144 0.000000 -0.002900
# 5 -0.012984 0.009563 0.002023 0.000000 0.040889 0.000000
# 6 0.000000 0.000000 0.000000 -0.002900 0.000000 0.039900
#
#
# Mechanical properties :
#
#
# Convention : Reuss Voigt Hill
#
# Bulk Modulus (GPa) = 29.12108 43.21779 36.16944
# Shear Modulus (GPa) = 19.47233 24.14296 21.80765
#
# Velocity S-wave (km/s) = 3.07338 3.42218 3.25246
# Velocity P-wave (km/s) = 5.16917 6.04808 5.62582
#
# Compressibility (1/GPa) = 0.03433938
#
# Stress axis : x y z
#
# Youngs Moduli (GPa) = 36.40718 54.29581 37.76108
#
# Poissons Ratio (x) = 0.82159 -0.06637
# Poissons Ratio (y) = 0.55090 0.21296
# Poissons Ratio (z) = -0.06399 0.30621
#
# Static dielectric constant tensor:
#      x y z
#    x 1.787430 0.000000 0.023010 
#    y 0.000000 1.726800 0.000000 
#    z 0.023010 0.000000 1.775350 
# 
# From -- ./inp_files/190698.got.cif
#   From: 2010.05.17/outbox.cif.g08.bks.cpg/sg15_96_cif.got.tgz:190698.got - 2010.06.03 18:47:42.
