data_PCOD9283982
_publ_section_title
;
Structure prediction by ZEFSAII (Michael W. Deem and Ramdas Pophale) SiO2 
 PCOD9283982
Probable space group: C 2/C
;
_chemical_formula_sum "Si O2"
_cell_formula_units_Z 60
_cell_length_a 24.611715
_cell_length_b 9.735401
_cell_length_c 21.403377
_cell_angle_alpha 90.000000
_cell_angle_beta 34.954689
_cell_angle_gamma 90.000000
_cell_volume 2938.180094
_symmetry_space_group_name_H-M "C 2/C"
_symmetry_group_IT_number 15
_symmetry_cell_setting 'monoclinic'
loop_
_space_group_symop_operation_xyz
x,y,z
-x,y,1/2-z
-x,-y,-z
x,-y,1/2+z
1/2+x,1/2+y,z
1/2-x,1/2+y,1/2-z
1/2-x,1/2-y,-z
1/2+x,1/2-y,1/2+z
loop_
_atom_site_type_symbol
_atom_site_label
_atom_site_fract_x
_atom_site_fract_y
_atom_site_fract_z
Si Si1 0.421884 0.696488 0.550780
Si Si2 0.810611 0.630842 0.406917
Si Si3 0.316122 0.759622 0.767456
Si Si4 0.656837 0.556333 0.226658
Si Si5 0.973579 0.768519 0.865715
Si Si6 0.361956 0.618427 0.122754
Si Si7 0.000000 0.521982 0.750000
Si Si8 0.306958 0.611350 0.445519
O O1 0.372935 0.788901 0.650136
O O2 0.420912 0.756126 0.481487
O O3 0.530885 0.673357 0.470486
O O4 0.373886 0.543296 0.593738
O O5 0.750000 0.750000 0.500000
O O6 0.843069 0.671330 0.307075
O O7 0.738663 0.504401 0.469161
O O8 0.906440 0.571110 0.348143
O O9 0.340136 0.601116 0.756893
O O10 0.206280 0.798076 0.858745
O O11 0.556203 0.625717 0.305944
O O12 0.685890 0.631008 0.263172
O O13 0.705420 0.562984 0.114003
O O14 0.009387 0.627730 0.799897
O O15 0.908153 0.846424 0.877160
O O16 0.250000 0.750000 0.500000
#
# Coordination Sequence:
#
# PCOD9283982 Si02
#       8
#     8   8   8   8   8   8   4   8
#     4   9  21  41  67  97 132 186 226 281 347 414
#     4  12  27  45  66 103 140 180 228 289 356 413
#     4  11  23  42  66 100 138 178 231 290 348 411
#     4  10  21  40  65  99 133 183 233 276 350 413
#     4  11  21  43  71 101 136 179 240 285 340 416
#     4   9  20  40  66  95 136 177 237 278 335 424
#     4  12  26  46  68 102 144 178 228 302 336 424
#     4  12  22  40  72  99 132 180 237 289 344 413
#
# _framework density 20.420802999999999
#
# number of rings (size 3 to 8) (size 9 to 14) (size 15 to 20)
#    0.000    1.333    4.000    1.600    1.867    2.133 
#    9.600    0.667    0.000    0.000    0.000    0.000 
#    0.000    0.000    0.000    0.000    0.000    0.000 
#
# Total GULP energy -167163.143693 kJ/mol
# GULP energy per Si atom -5572.104790 kJ/mol
# Density = 2.037432 g / cm^3
# Si number density = 20.420803 Si / 1000 Ang^3
#
#
#
# Elastic Constant Matrix: (Units=GPa)
#
#
# Indices 1 2 3 4 5 6 
#
# 1 76.9152 34.6053 17.4848 0.0001 4.2474 -0.0002
# 2 34.6053 83.1462 32.6729 -0.0004 -5.9914 0.0005
# 3 17.4848 32.6729 91.5868 0.0000 21.4535 0.0000
# 4 0.0001 -0.0004 0.0000 40.2828 0.0000 -0.3967
# 5 4.2474 -5.9914 21.4535 0.0000 39.8489 0.0000
# 6 -0.0002 0.0005 0.0000 -0.3967 0.0000 30.9599
#
#
#
# Elastic Compliance Matrix: (Units=1/GPa)
#
#
# Indices 1 2 3 4 5 6 
#
# 1 0.016297 -0.007004 0.000047 0.000000 -0.002815 0.000000
# 2 -0.007004 0.018129 -0.006801 0.000000 0.007134 0.000000
# 3 0.000047 -0.006801 0.015536 0.000000 -0.009392 0.000000
# 4 0.000000 0.000000 0.000000 0.024828 0.000000 0.000318
# 5 -0.002815 0.007134 -0.009392 0.000000 0.031524 0.000000
# 6 0.000000 0.000000 0.000000 0.000318 0.000000 0.032304
#
#
# Mechanical properties :
#
#
# Convention : Reuss Voigt Hill
#
# Bulk Modulus (GPa) = 44.55341 46.79713 45.67527
# Shear Modulus (GPa) = 28.79915 33.34400 31.07157
#
# Velocity S-wave (km/s) = 3.75945 4.04523 3.90496
# Velocity P-wave (km/s) = 6.38041 6.69214 6.53813
#
# Compressibility (1/GPa) = 0.02244497
#
# Stress axis : x y z
#
# Youngs Moduli (GPa) = 61.35918 55.16083 64.36729
#
# Poissons Ratio (x) = 0.38636 -0.00302
# Poissons Ratio (y) = 0.42978 0.43777
# Poissons Ratio (z) = -0.00288 0.37516
#
# Static dielectric constant tensor:
#      x y z
#    x 1.739350 0.000000 0.046940 
#    y 0.000000 1.681850 0.000000 
#    z 0.046940 0.000000 1.831400 
# 
# From -- ./inp_files/255162.got.cif
#   From: 2010.05.17/outbox.cif.g08.bks.cpg/sg15_128_cif.got.tgz:255162.got - 2010.06.03 18:47:42.
