data_PCOD9283377
_publ_section_title
;
Structure prediction by ZEFSAII (Michael W. Deem and Ramdas Pophale) SiO2 
 PCOD9283377
Probable space group: C 2/C
;
_chemical_formula_sum "Si O2"
_cell_formula_units_Z 40
_cell_length_a 27.791860
_cell_length_b 5.177800
_cell_length_c 22.445668
_cell_angle_alpha 90.000000
_cell_angle_beta 28.029756
_cell_angle_gamma 90.000000
_cell_volume 1517.849235
_symmetry_space_group_name_H-M "C 2/C"
_symmetry_group_IT_number 15
_symmetry_cell_setting 'monoclinic'
loop_
_space_group_symop_operation_xyz
x,y,z
-x,y,1/2-z
-x,-y,-z
x,-y,1/2+z
1/2+x,1/2+y,z
1/2-x,1/2+y,1/2-z
1/2-x,1/2-y,-z
1/2+x,1/2-y,1/2+z
loop_
_atom_site_type_symbol
_atom_site_label
_atom_site_fract_x
_atom_site_fract_y
_atom_site_fract_z
Si Si1 0.534624 0.278560 0.271558
Si Si2 0.878538 0.149484 0.492040
Si Si3 0.718554 0.597753 0.093525
Si Si4 0.051646 0.599763 0.856791
Si Si5 0.775835 0.608779 0.256594
O O1 0.500000 0.131578 0.250000
O O2 0.455550 0.518132 0.361146
O O3 0.654750 0.349502 0.141654
O O4 0.518681 0.133134 0.350429
O O5 0.817884 0.383469 0.526958
O O6 0.794920 0.951303 0.608668
O O7 0.949297 0.231657 0.470502
O O8 0.632808 0.737674 0.228472
O O9 0.750000 0.750000 0.000000
O O10 0.111668 0.488133 0.847090
O O11 0.762964 0.903610 0.250683
#
# Coordination Sequence:
#
# PCOD9283377 Si02
#       5
#     8   8   8   8   8
#     4  11  23  39  67 103 140 184 227 277 358 424
#     4  10  24  44  67  98 141 181 232 292 343 426
#     4  10  21  40  60  95 142 183 223 277 345 418
#     4  10  26  41  67 101 136 178 238 289 342 431
#     4  11  28  50  74 102 137 185 242 302 360 402
#
# _framework density 26.353078
#
# number of rings (size 3 to 8) (size 9 to 14) (size 15 to 20)
#    0.000    1.600    2.000    0.000   14.000    4.000 
#    0.000    0.000    0.000    0.000    0.000    0.000 
#    0.000    0.000    0.000    0.000    0.000    0.000 
#
# Total GULP energy -111878.252958 kJ/mol
# GULP energy per Si atom -5593.912648 kJ/mol
# Density = 2.629310 g / cm^3
# Si number density = 26.353078 Si / 1000 Ang^3
#
#
#
# Elastic Constant Matrix: (Units=GPa)
#
#
# Indices 1 2 3 4 5 6 
#
# 1 99.0582 -1.5055 17.6976 -0.0815 -18.8171 0.1770
# 2 -1.5055 47.7275 3.9180 -0.0458 -6.3861 -0.0010
# 3 17.6976 3.9180 102.6179 -0.0818 -19.8110 0.0090
# 4 -0.0815 -0.0458 -0.0818 29.8840 0.0421 21.0513
# 5 -18.8171 -6.3861 -19.8110 0.0421 47.6761 -0.0317
# 6 0.1770 -0.0010 0.0090 21.0513 -0.0317 9.6954
#
#
#
# Elastic Compliance Matrix: (Units=1/GPa)
#
#
# Indices 1 2 3 4 5 6 
#
# 1 0.011082 0.000983 -0.001173 -0.000293 0.004019 0.000449
# 2 0.000983 0.021430 -0.000390 -0.000064 0.003097 0.000134
# 3 -0.001173 -0.000390 0.010723 -0.000005 0.003940 0.000036
# 4 -0.000293 -0.000064 -0.000005 -0.063186 0.000021 0.137199
# 5 0.004019 0.003097 0.003940 0.000021 0.024613 -0.000041
# 6 0.000449 0.000134 0.000036 0.137199 -0.000041 -0.194763
#
#
# Mechanical properties :
#
#
# Convention : Reuss Voigt Hill
#
# Bulk Modulus (GPa) = 23.76733 32.18042 27.97387
# Shear Modulus (GPa) = -28.58495 32.73736 2.07620
#
# Velocity S-wave (km/s) = -3.29704 3.52839 0.88857
# Velocity P-wave (km/s) = 2.33571 5.37003 3.41918
#
# Compressibility (1/GPa) = 0.04207457
#
# Stress axis : x y z
#
# Youngs Moduli (GPa) = 90.23674 46.66447 93.25900
#
# Poissons Ratio (x) = -0.04589 0.10941
# Poissons Ratio (y) = -0.08873 0.03637
# Poissons Ratio (z) = 0.10587 0.01820
#
# Static dielectric constant tensor:
#      x y z
#    x 2.081750 -0.000070 0.005080 
#    y -0.000070 2.141690 0.000120 
#    z 0.005080 0.000120 2.051900 
# 
# From -- ./inp_files/175332.got.cif
#   From: 2010.05.17/outbox.cif.g08.bks.cpg/sg15_88_cif.got.tgz:175332.got - 2010.06.03 18:47:42.
