data_PCOD9283148
_publ_section_title
;
Structure prediction by ZEFSAII (Michael W. Deem and Ramdas Pophale) SiO2 
 PCOD9283148
Probable space group: C 2/C
;
_chemical_formula_sum "Si O2"
_cell_formula_units_Z 52
_cell_length_a 17.032783
_cell_length_b 8.896127
_cell_length_c 27.973922
_cell_angle_alpha 90.000000
_cell_angle_beta 35.518592
_cell_angle_gamma 90.000000
_cell_volume 2462.586450
_symmetry_space_group_name_H-M "C 2/C"
_symmetry_group_IT_number 15
_symmetry_cell_setting 'monoclinic'
loop_
_space_group_symop_operation_xyz
x,y,z
-x,y,1/2-z
-x,-y,-z
x,-y,1/2+z
1/2+x,1/2+y,z
1/2-x,1/2+y,1/2-z
1/2-x,1/2-y,-z
1/2+x,1/2-y,1/2+z
loop_
_atom_site_type_symbol
_atom_site_label
_atom_site_fract_x
_atom_site_fract_y
_atom_site_fract_z
Si Si1 0.208508 0.713220 0.313062
Si Si2 0.500000 0.072380 0.250000
Si Si3 0.276747 0.766654 0.914472
Si Si4 0.993100 0.042344 0.948171
Si Si5 0.015715 0.546602 0.137388
Si Si6 0.448652 0.769139 0.122987
Si Si7 0.344906 0.961180 0.088857
O O1 0.124183 0.861427 0.368479
O O2 0.113633 0.619952 0.323365
O O3 0.345054 0.747481 0.217833
O O4 0.221435 0.604912 0.352700
O O5 0.633124 0.172120 0.174894
O O6 0.487085 0.991230 0.205787
O O7 0.233158 0.601860 0.918687
O O8 0.139552 0.856780 0.990117
O O9 0.125014 0.679794 0.091147
O O10 0.985473 0.888604 0.922528
O O11 0.000000 0.000000 0.000000
O O12 0.049931 0.402556 0.088438
O O13 0.363418 0.830375 0.119667
O O14 0.500000 0.000000 0.000000
#
# Coordination Sequence:
#
# PCOD9283148 Si02
#       7
#     8   4   8   8   8   8   8
#     4  11  23  39  68  95 131 167 231 278 331 397
#     4   8  20  40  62  88 128 178 204 268 350 398
#     4  10  21  39  68  86 133 168 224 255 353 387
#     4  12  23  38  66  97 129 176 219 282 334 404
#     4   9  22  40  65  90 130 176 213 275 333 402
#     4  11  23  39  64  97 132 167 231 269 340 397
#     4  11  20  41  63  97 123 177 225 276 322 414
#
# _framework density 21.116008999999998
#
# number of rings (size 3 to 8) (size 9 to 14) (size 15 to 20)
#    0.923    0.615    3.077    2.769    2.154    1.231 
#    0.000    0.000    6.769    0.000    0.000    0.000 
#    0.000    0.000    0.000    0.000    0.000    0.000 
#
# Total GULP energy -144989.195139 kJ/mol
# GULP energy per Si atom -5576.507505 kJ/mol
# Density = 2.106795 g / cm^3
# Si number density = 21.116009 Si / 1000 Ang^3
#
#
#
# Elastic Constant Matrix: (Units=GPa)
#
#
# Indices 1 2 3 4 5 6 
#
# 1 91.8039 48.9071 18.0677 -0.0002 8.6034 0.0000
# 2 48.9071 94.8964 29.0746 -0.0004 22.3575 0.0000
# 3 18.0677 29.0746 109.2583 0.0000 10.7653 0.0000
# 4 -0.0002 -0.0004 0.0000 151.4873 -0.0001 61.3842
# 5 8.6034 22.3575 10.7653 -0.0001 20.5787 0.0000
# 6 0.0000 0.0000 0.0000 61.3842 0.0000 62.6054
#
#
#
# Elastic Compliance Matrix: (Units=1/GPa)
#
#
# Indices 1 2 3 4 5 6 
#
# 1 0.015176 -0.008359 -0.000585 0.000000 0.003043 0.000000
# 2 -0.008359 0.019377 -0.002155 0.000000 -0.016430 0.000000
# 3 -0.000585 -0.002155 0.010088 0.000000 -0.002691 0.000000
# 4 0.000000 0.000000 0.000000 0.010953 0.000000 -0.010739
# 5 0.003043 -0.016430 -0.002691 0.000000 0.066580 0.000000
# 6 0.000000 0.000000 0.000000 -0.010739 0.000000 0.026503
#
#
# Mechanical properties :
#
#
# Convention : Reuss Voigt Hill
#
# Bulk Modulus (GPa) = 44.55833 54.22861 49.39347
# Shear Modulus (GPa) = 28.03395 60.26155 44.14775
#
# Velocity S-wave (km/s) = 3.64760 5.34792 4.57740
# Velocity P-wave (km/s) = 6.23598 7.99192 7.16792
#
# Compressibility (1/GPa) = 0.02244249
#
# Stress axis : x y z
#
# Youngs Moduli (GPa) = 65.89428 51.60782 99.12705
#
# Poissons Ratio (x) = 0.43138 0.05799
# Poissons Ratio (y) = 0.55080 0.21365
# Poissons Ratio (z) = 0.03855 0.11123
#
# Static dielectric constant tensor:
#      x y z
#    x 1.783780 0.000000 0.020280 
#    y 0.000000 1.809590 0.000000 
#    z 0.020280 0.000000 1.787900 
# 
# From -- ./inp_files/166223.got.cif
#   From: 2010.05.17/outbox.cif.g08.bks.cpg/sg15_84_cif.got.tgz:166223.got - 2010.06.03 18:47:42.
