data_PCOD9283805
_publ_section_title
;
Structure prediction by ZEFSAII (Michael W. Deem and Ramdas Pophale) SiO2 
 PCOD9283805
Probable space group: C 2/C
;
_chemical_formula_sum "Si O2"
_cell_formula_units_Z 64
_cell_length_a 12.915179
_cell_length_b 29.326502
_cell_length_c 19.029854
_cell_angle_alpha 90.000000
_cell_angle_beta 151.277924
_cell_angle_gamma 90.000000
_cell_volume 3463.738185
_symmetry_space_group_name_H-M "C 2/C"
_symmetry_group_IT_number 15
_symmetry_cell_setting 'monoclinic'
loop_
_space_group_symop_operation_xyz
x,y,z
-x,y,1/2-z
-x,-y,-z
x,-y,1/2+z
1/2+x,1/2+y,z
1/2-x,1/2+y,1/2-z
1/2-x,1/2-y,-z
1/2+x,1/2-y,1/2+z
loop_
_atom_site_type_symbol
_atom_site_label
_atom_site_fract_x
_atom_site_fract_y
_atom_site_fract_z
Si Si1 0.082712 0.462245 0.602937
Si Si2 0.326843 0.679898 0.584543
Si Si3 0.976110 0.286786 0.979235
Si Si4 0.816225 0.796239 0.306918
Si Si5 0.380477 0.526072 0.867018
Si Si6 0.154667 0.072497 0.910244
Si Si7 0.256893 0.120572 0.397315
Si Si8 0.580533 0.112331 0.718607
O O1 0.269448 0.486084 0.756895
O O2 0.156474 0.417662 0.604771
O O3 0.000000 0.500000 0.500000
O O4 0.881720 0.450750 0.532209
O O5 0.500000 0.685489 0.750000
O O6 0.447386 0.699127 0.588081
O O7 0.303568 0.626162 0.559040
O O8 0.109701 0.700495 0.487718
O O9 0.840119 0.241717 0.881201
O O10 0.830014 0.329932 0.912906
O O11 0.147124 0.281455 0.145102
O O12 0.732825 0.845261 0.285169
O O13 0.539921 0.552635 0.909825
O O14 0.208529 0.564503 0.788627
O O15 0.500000 0.500000 0.000000
O O16 0.000000 0.065439 0.750000
O O17 0.381623 0.112301 0.545170
O O18 0.000000 0.117425 0.250000
O O19 0.500000 0.119018 0.750000
#
# Coordination Sequence:
#
# PCOD9283805 Si02
#       8
#     8   8   8   8   8   8   8   8
#     4  12  24  40  68  96 122 165 219 255 303 373
#     4   9  17  35  65  93 124 157 198 252 310 367
#     4  10  21  40  64  95 125 159 204 257 313 380
#     4  10  21  40  66  92 124 162 206 252 317 378
#     4  12  28  42  64  95 132 170 207 260 320 373
#     4  11  20  40  67  93 125 166 210 258 305 368
#     4  11  25  43  65  95 124 163 218 268 308 370
#     4  11  25  45  63  90 130 169 209 259 322 381
#
# _framework density 18.477146999999999
#
# number of rings (size 3 to 8) (size 9 to 14) (size 15 to 20)
#    0.000    1.250    5.000    0.375    5.250    1.500 
#    0.000    2.500    2.750    0.000    0.000    0.000 
#    0.000    0.000    0.000    0.000    0.000    0.000 
#
# Total GULP energy -178680.410548 kJ/mol
# GULP energy per Si atom -5583.762830 kJ/mol
# Density = 1.843509 g / cm^3
# Si number density = 18.477147 Si / 1000 Ang^3
#
#
#
# Elastic Constant Matrix: (Units=GPa)
#
#
# Indices 1 2 3 4 5 6 
#
# 1 89.8752 20.5013 31.3534 0.0009 -3.0540 0.0004
# 2 20.5013 70.0703 27.9288 0.0009 -14.4113 -0.0001
# 3 31.3534 27.9288 77.4786 0.0015 -6.2140 -0.0009
# 4 0.0009 0.0009 0.0015 25.0497 0.0005 -0.3091
# 5 -3.0540 -14.4113 -6.2140 0.0005 32.6814 -0.0003
# 6 0.0004 -0.0001 -0.0009 -0.3091 -0.0003 30.4301
#
#
#
# Elastic Compliance Matrix: (Units=1/GPa)
#
#
# Indices 1 2 3 4 5 6 
#
# 1 0.013207 -0.002144 -0.004619 0.000000 -0.000590 0.000000
# 2 -0.002144 0.018399 -0.005209 0.000000 0.006922 0.000000
# 3 -0.004619 -0.005209 0.016689 -0.000001 0.000445 0.000001
# 4 0.000000 0.000000 -0.000001 0.039926 -0.000001 0.000406
# 5 -0.000590 0.006922 0.000445 -0.000001 0.033680 0.000000
# 6 0.000000 0.000000 0.000001 0.000406 0.000000 0.032866
#
#
# Mechanical properties :
#
#
# Convention : Reuss Voigt Hill
#
# Bulk Modulus (GPa) = 41.06745 44.11011 42.58878
# Shear Modulus (GPa) = 26.76242 28.14160 27.45201
#
# Velocity S-wave (km/s) = 3.80992 3.90686 3.85870
# Velocity P-wave (km/s) = 6.45200 6.65402 6.55379
#
# Compressibility (1/GPa) = 0.02435018
#
# Stress axis : x y z
#
# Youngs Moduli (GPa) = 75.71777 54.35125 59.91860
#
# Poissons Ratio (x) = 0.11655 0.27675
# Poissons Ratio (y) = 0.16237 0.31213
# Poissons Ratio (z) = 0.34972 0.28313
#
# Static dielectric constant tensor:
#      x y z
#    x 1.608510 0.000010 0.050510 
#    y 0.000010 1.482800 0.000010 
#    z 0.050510 0.000010 1.581700 
# 
# From -- ./inp_files/52817.got.cif
#   From: 2010.05.17/outbox.cif.g08.bks.cpg/sg15_27_cif.got.tgz:52817.got - 2010.06.03 18:47:42.
