data_PCOD9283999
_publ_section_title
;
Structure prediction by ZEFSAII (Michael W. Deem and Ramdas Pophale) SiO2 
 PCOD9283999
Probable space group: C 2/C
;
_chemical_formula_sum "Si O2"
_cell_formula_units_Z 52
_cell_length_a 22.733863
_cell_length_b 11.785026
_cell_length_c 8.930443
_cell_angle_alpha 90.000000
_cell_angle_beta 87.276821
_cell_angle_gamma 90.000000
_cell_volume 2389.934927
_symmetry_space_group_name_H-M "C 2/C"
_symmetry_group_IT_number 15
_symmetry_cell_setting 'monoclinic'
loop_
_space_group_symop_operation_xyz
x,y,z
-x,y,1/2-z
-x,-y,-z
x,-y,1/2+z
1/2+x,1/2+y,z
1/2-x,1/2+y,1/2-z
1/2-x,1/2-y,-z
1/2+x,1/2-y,1/2+z
loop_
_atom_site_type_symbol
_atom_site_label
_atom_site_fract_x
_atom_site_fract_y
_atom_site_fract_z
Si Si1 0.000000 0.250477 0.750000
Si Si2 0.265658 0.096076 0.802471
Si Si3 0.577476 0.885294 0.974520
Si Si4 0.187235 0.986868 0.564504
Si Si5 0.395790 0.699139 0.966600
Si Si6 0.365773 0.275322 0.789288
Si Si7 0.871183 0.562241 0.339965
O O1 0.026764 0.329350 0.878885
O O2 0.050117 0.180966 0.655015
O O3 0.303126 0.210212 0.770465
O O4 0.238849 0.042784 0.656414
O O5 0.313438 0.011263 0.867248
O O6 0.212973 0.092931 0.929407
O O7 0.619801 0.930010 0.838224
O O8 0.603885 0.786404 0.074519
O O9 0.575179 0.993054 0.087220
O O10 0.148826 0.903820 0.671032
O O11 0.146816 0.091637 0.520373
O O12 0.365665 0.811898 0.903008
O O13 0.407080 0.731901 0.138117
#
# Coordination Sequence:
#
# PCOD9283999 Si02
#       7
#     4   8   8   8   8   8   8
#     4  10  26  46  74  98 132 184 228 292 344 390
#     4  11  23  39  67  99 138 180 217 270 347 403
#     4  10  22  42  69  99 136 172 231 280 339 397
#     4  12  25  40  65 100 138 184 227 268 335 417
#     4  11  25  44  66  97 137 178 235 285 332 401
#     4  11  24  44  66  98 138 179 225 284 329 415
#     4  10  21  40  66 101 138 174 219 280 334 412
#
# _framework density 21.757914
#
# number of rings (size 3 to 8) (size 9 to 14) (size 15 to 20)
#    0.000    1.231    1.538    5.077    6.462    4.308 
#    0.000    3.077    0.000    0.000    0.000    0.000 
#    0.000    0.000    0.000    0.000    0.000    0.000 
#
# Total GULP energy -145082.644147 kJ/mol
# GULP energy per Si atom -5580.101698 kJ/mol
# Density = 2.170839 g / cm^3
# Si number density = 21.757914 Si / 1000 Ang^3
#
#
#
# Elastic Constant Matrix: (Units=GPa)
#
#
# Indices 1 2 3 4 5 6 
#
# 1 59.3751 17.0961 45.7619 0.0000 -7.4236 0.0000
# 2 17.0961 91.0040 35.6894 0.0000 0.4482 0.0000
# 3 45.7619 35.6894 158.2343 0.0000 -2.7968 0.0000
# 4 0.0000 0.0000 0.0000 31.2689 0.0000 2.0392
# 5 -7.4236 0.4482 -2.7968 0.0000 47.6433 0.0000
# 6 0.0000 0.0000 0.0000 2.0392 0.0000 -2.0629
#
#
#
# Elastic Compliance Matrix: (Units=1/GPa)
#
#
# Indices 1 2 3 4 5 6 
#
# 1 0.022400 -0.001870 -0.006000 0.000000 0.003156 0.000000
# 2 -0.001870 0.012215 -0.002224 0.000000 -0.000537 0.000000
# 3 -0.006000 -0.002224 0.008549 0.000000 -0.000412 0.000000
# 4 0.000000 0.000000 0.000000 0.030044 0.000000 0.029699
# 5 0.003156 -0.000537 -0.000412 0.000000 0.021462 0.000000
# 6 0.000000 0.000000 0.000000 0.029699 0.000000 -0.455404
#
#
# Mechanical properties :
#
#
# Convention : Reuss Voigt Hill
#
# Bulk Modulus (GPa) = 43.52560 56.18981 49.85770
# Shear Modulus (GPa) = -15.02008 29.37428 7.17710
#
# Velocity S-wave (km/s) = -2.63026 3.67829 1.81818
# Velocity P-wave (km/s) = 3.28992 6.62728 5.23184
#
# Compressibility (1/GPa) = 0.02297498
#
# Stress axis : x y z
#
# Youngs Moduli (GPa) = 44.64308 81.86951 116.96807
#
# Poissons Ratio (x) = 0.15313 0.70187
# Poissons Ratio (y) = 0.08350 0.26008
# Poissons Ratio (z) = 0.26788 0.18204
#
# Static dielectric constant tensor:
#      x y z
#    x 1.881470 0.000000 0.021440 
#    y 0.000000 1.752660 0.000000 
#    z 0.021440 0.000000 1.839620 
# 
# From -- ./inp_files/65129.got.cif
#   From: 2010.05.17/outbox.cif.g08.bks.cpg/sg15_33_cif.got.tgz:65129.got - 2010.06.03 18:47:42.
