data_PCOD9283973
_publ_section_title
;
Structure prediction by ZEFSAII (Michael W. Deem and Ramdas Pophale) SiO2 
 PCOD9283973
Probable space group: C 2/C
;
_chemical_formula_sum "Si O2"
_cell_formula_units_Z 24
_cell_length_a 15.156116
_cell_length_b 4.825499
_cell_length_c 14.662085
_cell_angle_alpha 90.000000
_cell_angle_beta 134.071384
_cell_angle_gamma 90.000000
_cell_volume 770.436421
_symmetry_space_group_name_H-M "C 2/C"
_symmetry_group_IT_number 15
_symmetry_cell_setting 'monoclinic'
loop_
_space_group_symop_operation_xyz
x,y,z
-x,y,1/2-z
-x,-y,-z
x,-y,1/2+z
1/2+x,1/2+y,z
1/2-x,1/2+y,1/2-z
1/2-x,1/2-y,-z
1/2+x,1/2-y,1/2+z
loop_
_atom_site_type_symbol
_atom_site_label
_atom_site_fract_x
_atom_site_fract_y
_atom_site_fract_z
Si Si1 0.440070 0.692711 0.566956
Si Si2 0.140501 0.370713 0.354713
Si Si3 0.845465 0.691570 0.389648
O O1 0.421204 0.386143 0.516052
O O2 0.582880 0.757657 0.652705
O O3 0.385486 0.822227 0.620926
O O4 0.367816 0.883724 0.441322
O O5 0.250000 0.250000 0.500000
O O6 0.208649 0.298808 0.308621
O O7 0.000000 0.252465 0.250000
#
# Coordination Sequence:
#
# PCOD9283973 Si02
#       3
#     8   8   8
#     4   9  18  36  61  89 122 166 216 270 329 395
#     4  10  21  40  65  97 135 179 228 283 344 410
#     4   9  18  36  61  89 123 165 217 270 328 397
#
# _framework density 31.151174000000001
#
# number of rings (size 3 to 8) (size 9 to 14) (size 15 to 20)
#    0.000    2.667    0.000    1.000    0.000    0.000 
#    0.000   43.333    0.000    0.000    0.000    0.000 
#    0.000    0.000    0.000    0.000    0.000    0.000 
#
# Total GULP energy -67004.717065 kJ/mol
# GULP energy per Si atom -5583.726422 kJ/mol
# Density = 3.108027 g / cm^3
# Si number density = 31.151174 Si / 1000 Ang^3
#
#
#
# Elastic Constant Matrix: (Units=GPa)
#
#
# Indices 1 2 3 4 5 6 
#
# 1 285.0352 -0.2416 44.9742 0.0001 64.1831 0.0000
# 2 -0.2416 68.0524 44.7524 0.0013 1.9356 0.0026
# 3 44.9742 44.7524 181.1891 -0.0001 30.7802 0.0001
# 4 0.0001 0.0013 -0.0001 70.4778 -0.0001 19.0400
# 5 64.1831 1.9356 30.7802 -0.0001 84.2696 0.0000
# 6 0.0000 0.0026 0.0001 19.0400 0.0000 51.4826
#
#
#
# Elastic Compliance Matrix: (Units=1/GPa)
#
#
# Indices 1 2 3 4 5 6 
#
# 1 0.004301 0.000555 -0.000689 0.000000 -0.003037 0.000000
# 2 0.000555 0.017742 -0.004668 0.000000 0.000875 -0.000001
# 3 -0.000689 -0.004668 0.007181 0.000000 -0.001991 0.000000
# 4 0.000000 0.000000 0.000000 0.015764 0.000000 -0.005830
# 5 -0.003037 0.000875 -0.001991 0.000000 0.014887 0.000000
# 6 0.000000 -0.000001 0.000000 -0.005830 0.000000 0.021580
#
#
# Mechanical properties :
#
#
# Convention : Reuss Voigt Hill
#
# Bulk Modulus (GPa) = 50.97005 79.24965 65.10985
# Shear Modulus (GPa) = 51.22919 70.89876 61.06398
#
# Velocity S-wave (km/s) = 4.05969 4.77588 4.43227
# Velocity P-wave (km/s) = 6.19455 7.47714 6.86586
#
# Compressibility (1/GPa) = 0.01961937
#
# Stress axis : x y z
#
# Youngs Moduli (GPa) = 232.48239 56.36452 139.24895
#
# Poissons Ratio (x) = -0.03126 0.09590
# Poissons Ratio (y) = -0.12892 0.65007
# Poissons Ratio (z) = 0.16010 0.26313
#
# Static dielectric constant tensor:
#      x y z
#    x 2.831230 0.000000 -0.068000 
#    y 0.000000 2.509140 0.000000 
#    z -0.068000 0.000000 2.339010 
# 
# From -- ./inp_files/124653.got.cif
#   From: 2010.05.17/outbox.cif.g08.bks.cpg/sg15_63_cif.got.tgz:124653.got - 2010.06.03 18:47:42.
