data_PCOD9283485
_publ_section_title
;
Structure prediction by ZEFSAII (Michael W. Deem and Ramdas Pophale) SiO2 
 PCOD9283485
Probable space group: C 2/C
;
_chemical_formula_sum "Si O2"
_cell_formula_units_Z 52
_cell_length_a 11.012244
_cell_length_b 8.558660
_cell_length_c 25.254116
_cell_angle_alpha 90.000000
_cell_angle_beta 89.082808
_cell_angle_gamma 90.000000
_cell_volume 2379.896787
_symmetry_space_group_name_H-M "C 2/C"
_symmetry_group_IT_number 15
_symmetry_cell_setting 'monoclinic'
loop_
_space_group_symop_operation_xyz
x,y,z
-x,y,1/2-z
-x,-y,-z
x,-y,1/2+z
1/2+x,1/2+y,z
1/2-x,1/2+y,1/2-z
1/2-x,1/2-y,-z
1/2+x,1/2-y,1/2+z
loop_
_atom_site_type_symbol
_atom_site_label
_atom_site_fract_x
_atom_site_fract_y
_atom_site_fract_z
Si Si1 0.630633 0.690997 0.472202
Si Si2 0.367026 0.650640 0.484116
Si Si3 0.401967 0.409756 0.860117
Si Si4 0.835299 0.125757 0.141958
Si Si5 0.618741 0.055779 0.677654
Si Si6 0.731141 0.633178 0.720641
Si Si7 0.000000 0.664035 0.250000
O O1 0.750000 0.750000 0.500000
O O2 0.495642 0.740541 0.491176
O O3 0.629539 0.503687 0.479886
O O4 0.644488 0.727424 0.410513
O O5 0.250000 0.750000 0.500000
O O6 0.365570 0.595342 0.422328
O O7 0.540654 0.471696 0.853485
O O8 0.407943 0.229981 0.840594
O O9 0.316201 0.509629 0.822453
O O10 0.814205 0.238920 0.191251
O O11 0.711476 0.027587 0.136808
O O12 0.696389 0.063123 0.731226
O O13 0.508224 0.945746 0.697259
O O14 0.616021 0.724856 0.745114
#
# Coordination Sequence:
#
# PCOD9283485 Si02
#       7
#     8   8   8   8   8   8   4
#     4  10  21  40  62  87 119 156 201 252 303 359
#     4  10  22  40  62  90 121 155 199 251 305 359
#     4  11  22  38  61  85 115 155 196 239 294 355
#     4  10  22  38  58  83 115 154 194 242 297 351
#     4  11  22  37  56  82 116 150 190 236 285 344
#     4  11  22  37  57  84 115 152 195 235 285 345
#     4  10  22  36  52  78 112 146 184 230 276 330
#
# _framework density 21.849685999999998
#
# number of rings (size 3 to 8) (size 9 to 14) (size 15 to 20)
#    0.000    1.538    0.000    5.538    0.000    2.462 
#    0.000    7.692    0.000    0.000    0.000    0.000 
#    0.000    0.000    0.000    0.000    0.000    0.000 
#
# Total GULP energy -145258.416474 kJ/mol
# GULP energy per Si atom -5586.862172 kJ/mol
# Density = 2.179996 g / cm^3
# Si number density = 21.849686 Si / 1000 Ang^3
#
#
#
# Elastic Constant Matrix: (Units=GPa)
#
#
# Indices 1 2 3 4 5 6 
#
# 1 108.9465 14.2314 41.6885 0.0000 -24.7427 0.0000
# 2 14.2314 48.7304 8.0853 0.0000 -13.2845 0.0000
# 3 41.6885 8.0853 81.8117 0.0000 -10.4411 0.0000
# 4 0.0000 0.0000 0.0000 24.4231 0.0000 7.3701
# 5 -24.7427 -13.2845 -10.4411 0.0000 46.9308 0.0000
# 6 0.0000 0.0000 0.0000 7.3701 0.0000 33.9817
#
#
#
# Elastic Compliance Matrix: (Units=1/GPa)
#
#
# Indices 1 2 3 4 5 6 
#
# 1 0.012675 -0.001389 -0.005680 0.000000 0.005026 0.000000
# 2 -0.001389 0.022554 -0.000823 0.000000 0.005469 0.000000
# 3 -0.005680 -0.000823 0.015219 0.000000 0.000158 0.000000
# 4 0.000000 0.000000 0.000000 0.043812 0.000000 -0.009502
# 5 0.005026 0.005469 0.000158 0.000000 0.025541 0.000000
# 6 0.000000 0.000000 0.000000 -0.009502 0.000000 0.031488
#
#
# Mechanical properties :
#
#
# Convention : Reuss Voigt Hill
#
# Bulk Modulus (GPa) = 28.84881 40.83323 34.84102
# Shear Modulus (GPa) = 27.99087 32.76602 30.37845
#
# Velocity S-wave (km/s) = 3.58308 3.87668 3.73277
# Velocity P-wave (km/s) = 5.50908 6.22632 5.87865
#
# Compressibility (1/GPa) = 0.03466347
#
# Stress axis : x y z
#
# Youngs Moduli (GPa) = 78.89453 44.33764 65.70674
#
# Poissons Ratio (x) = 0.06159 0.37322
# Poissons Ratio (y) = 0.10960 0.05409
# Poissons Ratio (z) = 0.44813 0.03650
#
# Static dielectric constant tensor:
#      x y z
#    x 2.028000 0.000000 -0.182570 
#    y 0.000000 1.809400 0.000000 
#    z -0.182570 0.000000 1.959700 
# 
# From -- ./inp_files/291156.got.cif
#   From: 2010.05.17/outbox.cif.g08.bks.cpg/sg15_146_cif.got.tgz:291156.got - 2010.06.03 18:47:42.
