data_PCOD9283357
_publ_section_title
;
Structure prediction by ZEFSAII (Michael W. Deem and Ramdas Pophale) SiO2 
 PCOD9283357
Probable space group: C 2/C
;
_chemical_formula_sum "Si O2"
_cell_formula_units_Z 56
_cell_length_a 24.544632
_cell_length_b 9.146089
_cell_length_c 14.042213
_cell_angle_alpha 90.000000
_cell_angle_beta 116.296929
_cell_angle_gamma 90.000000
_cell_volume 2826.068789
_symmetry_space_group_name_H-M "C 2/C"
_symmetry_group_IT_number 15
_symmetry_cell_setting 'monoclinic'
loop_
_space_group_symop_operation_xyz
x,y,z
-x,y,1/2-z
-x,-y,-z
x,-y,1/2+z
1/2+x,1/2+y,z
1/2-x,1/2+y,1/2-z
1/2-x,1/2-y,-z
1/2+x,1/2-y,1/2+z
loop_
_atom_site_type_symbol
_atom_site_label
_atom_site_fract_x
_atom_site_fract_y
_atom_site_fract_z
Si Si1 0.030396 0.339355 0.876414
Si Si2 0.673191 0.528152 0.630050
Si Si3 0.055202 0.674052 0.865639
Si Si4 0.276845 0.421809 0.136140
Si Si5 0.818562 0.196148 0.061812
Si Si6 0.544019 0.635982 0.543090
Si Si7 0.168631 0.251518 0.996765
O O1 0.043640 0.511904 0.897790
O O2 0.000000 0.320779 0.750000
O O3 0.984408 0.260594 0.912325
O O4 0.096532 0.266829 0.936514
O O5 0.719335 0.581927 0.746830
O O6 0.673390 0.623305 0.534934
O O7 0.607751 0.566033 0.624835
O O8 0.682626 0.366164 0.592447
O O9 0.123632 0.697811 0.876493
O O10 0.000000 0.700102 0.750000
O O11 0.049999 0.790661 0.945058
O O12 0.311846 0.570234 0.135570
O O13 0.206517 0.398269 0.050853
O O14 0.308959 0.303862 0.090267
O O15 0.750000 0.250000 0.000000
O O16 0.500000 0.500000 0.500000
#
# Coordination Sequence:
#
# PCOD9283357 Si02
#       7
#     8   8   8   8   8   8   8
#     4  11  22  40  65  92 127 167 208 257 324 377
#     4  10  22  39  59  96 120 167 212 257 322 378
#     4  10  24  41  62  93 127 167 211 264 324 379
#     4  10  22  38  61  85 124 160 212 259 309 377
#     4  10  22  40  62  88 124 161 211 260 314 384
#     4  11  22  39  63  91 128 161 210 259 313 383
#     4  10  21  40  60  89 125 163 209 265 312 376
#
# _framework density 19.815511999999998
#
# number of rings (size 3 to 8) (size 9 to 14) (size 15 to 20)
#    0.000    1.714    1.429    2.143    4.000    0.571 
#    0.000    0.000    0.000    0.000    0.000    0.000 
#    0.000    0.000    0.000    0.000    0.000    0.000 
#
# Total GULP energy -155935.732719 kJ/mol
# GULP energy per Si atom -5569.133311 kJ/mol
# Density = 1.977041 g / cm^3
# Si number density = 19.815512 Si / 1000 Ang^3
#
#
#
# Elastic Constant Matrix: (Units=GPa)
#
#
# Indices 1 2 3 4 5 6 
#
# 1 89.4683 25.5935 7.7334 0.0000 16.4310 0.0000
# 2 25.5935 69.7329 23.2956 0.0000 2.2732 0.0000
# 3 7.7334 23.2956 64.8456 0.0000 7.6056 0.0000
# 4 0.0000 0.0000 0.0000 -16.6591 0.0000 45.5526
# 5 16.4310 2.2732 7.6056 0.0000 25.9959 0.0000
# 6 0.0000 0.0000 0.0000 45.5526 0.0000 -8.6593
#
#
#
# Elastic Compliance Matrix: (Units=1/GPa)
#
#
# Indices 1 2 3 4 5 6 
#
# 1 0.014235 -0.005359 0.001272 0.000000 -0.008901 0.000000
# 2 -0.005359 0.018316 -0.006369 0.000000 0.003649 0.000000
# 3 0.001272 -0.006369 0.018211 0.000000 -0.005575 0.000000
# 4 0.000000 0.000000 0.000000 0.004485 0.000000 0.023593
# 5 -0.008901 0.003649 -0.005575 0.000000 0.045405 0.000000
# 6 0.000000 0.000000 0.000000 0.023593 0.000000 0.008628
#
#
# Mechanical properties :
#
#
# Convention : Reuss Voigt Hill
#
# Bulk Modulus (GPa) = 33.50135 37.47688 35.48912
# Shear Modulus (GPa) = 35.67773 11.29713 23.48743
#
# Velocity S-wave (km/s) = 4.24783 2.39030 3.44656
# Velocity P-wave (km/s) = 6.40328 5.15480 5.81266
#
# Compressibility (1/GPa) = 0.02984954
#
# Stress axis : x y z
#
# Youngs Moduli (GPa) = 70.24980 54.59694 54.91046
#
# Poissons Ratio (x) = 0.29259 -0.06982
# Poissons Ratio (y) = 0.37648 0.34972
# Poissons Ratio (z) = -0.08933 0.34772
#
# Static dielectric constant tensor:
#      x y z
#    x 1.879790 0.000000 0.402070 
#    y 0.000000 1.752990 0.000000 
#    z 0.402070 0.000000 2.851850 
# 
# From -- ./inp_files/172301.got.cif
#   From: 2010.05.17/outbox.cif.g08.bks.cpg/sg15_87_cif.got.tgz:172301.got - 2010.06.03 18:47:42.
