data_PCOD9283706
_publ_section_title
;
Structure prediction by ZEFSAII (Michael W. Deem and Ramdas Pophale) SiO2 
 PCOD9283706
Probable space group: C 2/C
;
_chemical_formula_sum "Si O2"
_cell_formula_units_Z 64
_cell_length_a 17.547387
_cell_length_b 15.041818
_cell_length_c 13.885601
_cell_angle_alpha 90.000000
_cell_angle_beta 51.201857
_cell_angle_gamma 90.000000
_cell_volume 2856.371003
_symmetry_space_group_name_H-M "C 2/C"
_symmetry_group_IT_number 15
_symmetry_cell_setting 'monoclinic'
loop_
_space_group_symop_operation_xyz
x,y,z
-x,y,1/2-z
-x,-y,-z
x,-y,1/2+z
1/2+x,1/2+y,z
1/2-x,1/2+y,1/2-z
1/2-x,1/2-y,-z
1/2+x,1/2-y,1/2+z
loop_
_atom_site_type_symbol
_atom_site_label
_atom_site_fract_x
_atom_site_fract_y
_atom_site_fract_z
Si Si1 0.197201 0.525622 0.966042
Si Si2 0.397050 0.525125 0.381200
Si Si3 0.384031 0.671063 0.966355
Si Si4 0.292195 0.693948 0.557117
Si Si5 0.051120 0.718523 0.429064
Si Si6 0.397229 0.108825 0.820749
Si Si7 0.573745 0.065226 0.891335
Si Si8 0.836667 0.318483 0.848534
O O1 0.310476 0.499966 0.876061
O O2 0.167664 0.556254 0.883982
O O3 0.144060 0.437358 0.051500
O O4 0.170247 0.604154 0.063856
O O5 0.500000 0.542948 0.250000
O O6 0.400330 0.433767 0.438927
O O7 0.356920 0.610441 0.470384
O O8 0.477497 0.706550 0.948753
O O9 0.372115 0.728991 0.876625
O O10 0.276461 0.688134 0.097018
O O11 0.250000 0.750000 0.500000
O O12 0.357736 0.747495 0.579822
O O13 0.187551 0.656611 0.673434
O O14 0.094622 0.671222 0.298810
O O15 0.980536 0.658318 0.549851
O O16 0.500000 0.159444 0.750000
O O17 0.421936 0.034816 0.722137
O O18 0.500000 0.000000 0.000000
#
# Coordination Sequence:
#
# PCOD9283706 Si02
#       8
#     8   8   8   8   8   8   8   8
#     4  10  22  42  67 105 140 172 227 284 350 413
#     4  10  23  46  71  95 136 185 221 280 347 411
#     4  10  22  40  69 101 136 177 220 276 365 416
#     4  11  28  48  64  96 135 183 239 279 333 414
#     4  12  25  40  69  99 136 179 235 284 345 412
#     4  11  23  42  68  92 138 180 222 287 342 408
#     4  12  24  38  69 105 133 180 226 284 358 404
#     4  10  21  40  64 103 143 169 218 292 347 416
#
# _framework density 22.406054000000001
#
# number of rings (size 3 to 8) (size 9 to 14) (size 15 to 20)
#    0.000    1.250    2.500    2.625    3.500    3.000 
#    0.000    1.250    0.000    0.000    0.000    0.000 
#    0.000    0.000    0.000    0.000    0.000    0.000 
#
# Total GULP energy -178483.036092 kJ/mol
# GULP energy per Si atom -5577.594878 kJ/mol
# Density = 2.235506 g / cm^3
# Si number density = 22.406054 Si / 1000 Ang^3
#
#
#
# Elastic Constant Matrix: (Units=GPa)
#
#
# Indices 1 2 3 4 5 6 
#
# 1 140.4190 18.0017 29.9267 0.0000 -18.7683 0.0000
# 2 18.0017 78.8793 9.7816 0.0000 -6.9947 0.0000
# 3 29.9267 9.7816 81.7369 0.0000 -12.6269 0.0000
# 4 0.0000 0.0000 0.0000 17.8756 0.0000 -1.2768
# 5 -18.7683 -6.9947 -12.6269 0.0000 38.1892 0.0000
# 6 0.0000 0.0000 0.0000 -1.2768 0.0000 31.8875
#
#
#
# Elastic Compliance Matrix: (Units=1/GPa)
#
#
# Indices 1 2 3 4 5 6 
#
# 1 0.008198 -0.001309 -0.002381 0.000000 0.003002 0.000000
# 2 -0.001309 0.013217 -0.000872 0.000000 0.001489 0.000000
# 3 -0.002381 -0.000872 0.013705 0.000000 0.003201 0.000000
# 4 0.000000 0.000000 0.000000 0.056103 0.000000 0.002246
# 5 0.003002 0.001489 0.003201 0.000000 0.028992 0.000000
# 6 0.000000 0.000000 0.000000 0.002246 0.000000 0.031450
#
#
# Mechanical properties :
#
#
# Convention : Reuss Voigt Hill
#
# Bulk Modulus (GPa) = 38.47019 46.27280 42.37149
# Shear Modulus (GPa) = 29.50635 33.81216 31.65926
#
# Velocity S-wave (km/s) = 3.63284 3.88888 3.76304
# Velocity P-wave (km/s) = 5.89945 6.39228 6.15080
#
# Compressibility (1/GPa) = 0.02599416
#
# Stress axis : x y z
#
# Youngs Moduli (GPa) = 121.97902 75.66227 72.96525
#
# Poissons Ratio (x) = 0.09908 0.17374
# Poissons Ratio (y) = 0.15973 0.06364
# Poissons Ratio (z) = 0.29045 0.06599
#
# Static dielectric constant tensor:
#      x y z
#    x 2.077170 0.000000 -0.073490 
#    y 0.000000 1.965380 0.000000 
#    z -0.073490 0.000000 1.447570 
# 
# From -- ./inp_files/162558.got.cif
#   From: 2010.05.17/outbox.cif.g08.bks.cpg/sg15_82_cif.got.tgz:162558.got - 2010.06.03 18:47:42.
