data_PCOD9283687
_publ_section_title
;
Structure prediction by ZEFSAII (Michael W. Deem and Ramdas Pophale) SiO2 
 PCOD9283687
Probable space group: C 2/C
;
_chemical_formula_sum "Si O2"
_cell_formula_units_Z 44
_cell_length_a 13.162995
_cell_length_b 19.668338
_cell_length_c 21.272376
_cell_angle_alpha 90.000000
_cell_angle_beta 157.639178
_cell_angle_gamma 90.000000
_cell_volume 2095.185019
_symmetry_space_group_name_H-M "C 2/C"
_symmetry_group_IT_number 15
_symmetry_cell_setting 'monoclinic'
loop_
_space_group_symop_operation_xyz
x,y,z
-x,y,1/2-z
-x,-y,-z
x,-y,1/2+z
1/2+x,1/2+y,z
1/2-x,1/2+y,1/2-z
1/2-x,1/2-y,-z
1/2+x,1/2-y,1/2+z
loop_
_atom_site_type_symbol
_atom_site_label
_atom_site_fract_x
_atom_site_fract_y
_atom_site_fract_z
Si Si1 0.244493 0.945201 0.698634
Si Si2 0.500000 0.616003 0.250000
Si Si3 0.497265 0.205818 0.001268
Si Si4 0.341529 0.201718 0.276685
Si Si5 0.500000 0.390658 0.250000
Si Si6 0.176366 0.002948 0.450841
Si Si7 0.000000 0.640767 0.250000
O O1 0.276593 0.876174 0.758348
O O2 0.267904 0.908717 0.643539
O O3 0.510146 0.990495 0.857890
O O4 0.989853 0.983041 0.580521
O O5 0.252078 0.663985 0.124794
O O6 0.610436 0.566023 0.367553
O O7 0.569200 0.238494 0.109708
O O8 0.401459 0.260602 0.895823
O O9 0.248492 0.155900 0.872481
O O10 0.550848 0.187899 0.339597
O O11 0.575514 0.437931 0.352806
#
# Coordination Sequence:
#
# PCOD9283687 Si02
#       7
#     8   4   8   8   4   8   4
#     4  10  21  40  63  96 126 173 215 276 329 387
#     4  11  22  40  67  99 130 179 216 286 326 391
#     4  12  24  42  67  97 137 172 230 267 336 391
#     4  10  23  43  63  96 134 178 219 274 320 405
#     4  11  21  36  68 102 120 180 212 286 322 383
#     4  11  20  39  67  94 138 159 229 271 334 389
#     4   8  19  40  59  89 126 167 218 252 334 370
#
# _framework density 21.000530999999999
#
# number of rings (size 3 to 8) (size 9 to 14) (size 15 to 20)
#    1.091    0.364    3.636    1.636    0.000    8.727 
#    0.000    0.000    0.000    0.000    0.000    0.000 
#    0.000    0.000    0.000    0.000    0.000    0.000 
#
# Total GULP energy -122538.033962 kJ/mol
# GULP energy per Si atom -5569.910635 kJ/mol
# Density = 2.095273 g / cm^3
# Si number density = 21.000531 Si / 1000 Ang^3
#
#
#
# Elastic Constant Matrix: (Units=GPa)
#
#
# Indices 1 2 3 4 5 6 
#
# 1 78.7628 32.3341 47.0156 -0.0024 19.6769 0.0133
# 2 32.3341 64.8662 58.5263 0.0116 21.5023 -0.0126
# 3 47.0156 58.5263 107.6659 -0.0704 21.0234 -0.0929
# 4 -0.0024 0.0116 -0.0704 46.2137 -0.0053 3.4519
# 5 19.6769 21.5023 21.0234 -0.0053 39.0908 0.0015
# 6 0.0133 -0.0126 -0.0929 3.4519 0.0015 18.5732
#
#
#
# Elastic Compliance Matrix: (Units=1/GPa)
#
#
# Indices 1 2 3 4 5 6 
#
# 1 0.018310 -0.002280 -0.005812 -0.000005 -0.004837 -0.000042
# 2 -0.002280 0.033450 -0.015441 -0.000030 -0.008948 -0.000047
# 3 -0.005812 -0.015441 0.020101 0.000028 0.000608 0.000089
# 4 -0.000005 -0.000030 0.000028 0.021943 0.000007 -0.004078
# 5 -0.004837 -0.008948 0.000608 0.000007 0.032611 -0.000004
# 6 -0.000042 -0.000047 0.000089 -0.004078 -0.000004 0.054599
#
#
# Mechanical properties :
#
#
# Convention : Reuss Voigt Hill
#
# Bulk Modulus (GPa) = 40.32862 58.56075 49.44468
# Shear Modulus (GPa) = 21.15556 28.33681 24.74618
#
# Velocity S-wave (km/s) = 3.17737 3.67732 3.43645
# Velocity P-wave (km/s) = 5.71894 6.78057 6.27225
#
# Compressibility (1/GPa) = 0.02479629
#
# Stress axis : x y z
#
# Youngs Moduli (GPa) = 54.61524 29.89493 49.74975
#
# Poissons Ratio (x) = 0.06816 0.28914
# Poissons Ratio (y) = 0.12452 0.76817
# Poissons Ratio (z) = 0.31741 0.46160
#
# Static dielectric constant tensor:
#      x y z
#    x 1.821700 0.000020 -0.047460 
#    y 0.000020 1.793320 -0.000020 
#    z -0.047460 -0.000020 1.747910 
# 
# From -- ./inp_files/274900.got.cif
#   From: 2010.05.17/outbox.cif.g08.bks.cpg/sg15_138_cif.got.tgz:274900.got - 2010.06.03 18:47:42.
