data_PCOD9283085
_publ_section_title
;
Structure prediction by ZEFSAII (Michael W. Deem and Ramdas Pophale) SiO2 
 PCOD9283085
Probable space group: C 2/C
;
_chemical_formula_sum "Si O2"
_cell_formula_units_Z 52
_cell_length_a 25.464403
_cell_length_b 5.016469
_cell_length_c 17.888260
_cell_angle_alpha 90.000000
_cell_angle_beta 106.094775
_cell_angle_gamma 90.000000
_cell_volume 2195.506521
_symmetry_space_group_name_H-M "C 2/C"
_symmetry_group_IT_number 15
_symmetry_cell_setting 'monoclinic'
loop_
_space_group_symop_operation_xyz
x,y,z
-x,y,1/2-z
-x,-y,-z
x,-y,1/2+z
1/2+x,1/2+y,z
1/2-x,1/2+y,1/2-z
1/2-x,1/2-y,-z
1/2+x,1/2-y,1/2+z
loop_
_atom_site_type_symbol
_atom_site_label
_atom_site_fract_x
_atom_site_fract_y
_atom_site_fract_z
Si Si1 0.906424 0.720070 0.820813
Si Si2 0.447202 0.256756 0.425886
Si Si3 0.284455 0.183122 0.771164
Si Si4 0.552952 0.464477 0.414313
Si Si5 0.823763 0.998124 0.536774
Si Si6 0.786026 0.507721 0.432632
Si Si7 0.500000 0.741944 0.250000
O O1 0.916345 0.510087 0.891453
O O2 0.845114 0.732263 0.763867
O O3 0.948691 0.626590 0.772590
O O4 0.921727 0.003678 0.864952
O O5 0.510927 0.237787 0.425581
O O6 0.445912 0.343186 0.511997
O O7 0.255146 0.462213 0.781990
O O8 0.297064 0.022515 0.851354
O O9 0.615692 0.411405 0.419462
O O10 0.527016 0.580386 0.328741
O O11 0.799604 0.231170 0.476795
O O12 0.821147 0.733105 0.486208
O O13 0.778987 0.942387 0.583021
#
# Coordination Sequence:
#
# PCOD9283085 Si02
#       7
#     8   8   8   8   8   8   4
#     4  11  24  47  65  98 135 177 223 277 322 406
#     4  10  23  42  70  93 129 176 232 261 327 395
#     4  12  25  41  67  95 132 177 217 267 332 398
#     4  10  22  42  67 100 129 178 215 279 327 398
#     4  10  21  39  67  89 129 162 216 275 318 379
#     4  10  22  41  61  98 120 168 221 265 321 383
#     4  10  26  42  66 102 140 172 218 276 346 384
#
# _framework density 23.684737999999999
#
# number of rings (size 3 to 8) (size 9 to 14) (size 15 to 20)
#    0.000    1.538    0.000    3.692    2.154   10.462 
#    2.769    0.000    0.000    0.000    0.000    0.000 
#    0.000    0.000    0.000    0.000    0.000    0.000 
#
# Total GULP energy -145231.715874 kJ/mol
# GULP energy per Si atom -5585.835226 kJ/mol
# Density = 2.363083 g / cm^3
# Si number density = 23.684738 Si / 1000 Ang^3
#
#
#
# Elastic Constant Matrix: (Units=GPa)
#
#
# Indices 1 2 3 4 5 6 
#
# 1 142.1519 0.4492 43.4047 0.0000 36.2252 0.0000
# 2 0.4492 111.6713 7.0534 0.0000 26.3393 0.0000
# 3 43.4047 7.0534 75.4498 0.0000 12.8681 0.0000
# 4 0.0000 0.0000 0.0000 28.9858 0.0000 3.1777
# 5 36.2252 26.3393 12.8681 0.0000 46.2180 0.0000
# 6 0.0000 0.0000 0.0000 3.1777 0.0000 18.7396
#
#
#
# Elastic Compliance Matrix: (Units=1/GPa)
#
#
# Indices 1 2 3 4 5 6 
#
# 1 0.010622 0.002205 -0.004916 0.000000 -0.008213 0.000000
# 2 0.002205 0.010803 -0.000980 0.000000 -0.007612 0.000000
# 3 -0.004916 -0.000980 0.016190 0.000000 -0.000096 0.000000
# 4 0.000000 0.000000 0.000000 0.035153 0.000000 -0.005961
# 5 -0.008213 -0.007612 -0.000096 0.000000 0.032439 0.000000
# 6 0.000000 0.000000 0.000000 -0.005961 0.000000 0.054374
#
#
# Mechanical properties :
#
#
# Convention : Reuss Voigt Hill
#
# Bulk Modulus (GPa) = 33.07663 47.89863 40.48763
# Shear Modulus (GPa) = 28.24214 37.34638 32.79426
#
# Velocity S-wave (km/s) = 3.45689 3.97522 3.72508
# Velocity P-wave (km/s) = 5.47075 6.42940 5.96935
#
# Compressibility (1/GPa) = 0.03023283
#
# Stress axis : x y z
#
# Youngs Moduli (GPa) = 94.14630 92.56422 61.76710
#
# Poissons Ratio (x) = -0.20410 0.30364
# Poissons Ratio (y) = -0.20759 0.06054
# Poissons Ratio (z) = 0.46281 0.09073
#
# Static dielectric constant tensor:
#      x y z
#    x 2.030750 0.000000 0.013460 
#    y 0.000000 1.888220 0.000000 
#    z 0.013460 0.000000 1.888230 
# 
# From -- ./inp_files/221344.got.cif
#   From: 2010.05.17/outbox.cif.g08.bks.cpg/sg15_111_cif.got.tgz:221344.got - 2010.06.03 18:47:42.
