data_PCOD9283525
_publ_section_title
;
Structure prediction by ZEFSAII (Michael W. Deem and Ramdas Pophale) SiO2 
 PCOD9283525
Probable space group: C 2/C
;
_chemical_formula_sum "Si O2"
_cell_formula_units_Z 48
_cell_length_a 27.326349
_cell_length_b 8.416081
_cell_length_c 14.730947
_cell_angle_alpha 90.000000
_cell_angle_beta 38.701132
_cell_angle_gamma 90.000000
_cell_volume 2118.270869
_symmetry_space_group_name_H-M "C 2/C"
_symmetry_group_IT_number 15
_symmetry_cell_setting 'monoclinic'
loop_
_space_group_symop_operation_xyz
x,y,z
-x,y,1/2-z
-x,-y,-z
x,-y,1/2+z
1/2+x,1/2+y,z
1/2-x,1/2+y,1/2-z
1/2-x,1/2-y,-z
1/2+x,1/2-y,1/2+z
loop_
_atom_site_type_symbol
_atom_site_label
_atom_site_fract_x
_atom_site_fract_y
_atom_site_fract_z
Si Si1 0.634069 0.795234 0.211434
Si Si2 0.324778 0.290862 0.141567
Si Si3 0.221069 0.038804 0.981718
Si Si4 0.923971 0.925687 0.561067
Si Si5 0.661721 0.271210 0.972819
Si Si6 0.416141 0.943350 0.394294
O O1 0.685656 0.951368 0.152069
O O2 0.589413 0.735348 0.362628
O O3 0.588563 0.824768 0.185051
O O4 0.690641 0.645428 0.108200
O O5 0.301539 0.372433 0.079361
O O6 0.361557 0.428514 0.150786
O O7 0.243966 0.220255 0.297777
O O8 0.391147 0.161521 0.017855
O O9 0.179983 0.870485 0.036610
O O10 0.908852 0.857255 0.480665
O O11 0.000000 0.000000 0.500000
O O12 0.643632 0.088978 0.017099
O O13 0.500000 0.018338 0.250000
#
# Coordination Sequence:
#
# PCOD9283525 Si02
#       6
#     8   8   8   8   8   8
#     4  10  21  40  62  91 127 164 223 270 325 388
#     4  10  21  41  67  92 127 179 218 267 331 401
#     4   9  20  37  63  88 120 166 217 272 313 389
#     4  11  23  41  65  94 129 172 223 276 329 396
#     4  11  23  41  65  95 129 176 227 268 334 408
#     4  11  24  42  63  94 140 173 208 278 350 391
#
# _framework density 22.659991999999999
#
# number of rings (size 3 to 8) (size 9 to 14) (size 15 to 20)
#    0.000    1.667    1.667    3.000    4.667    2.000 
#    3.000    3.333    0.000    0.000    0.000    0.000 
#    0.000    0.000    0.000    0.000    0.000    0.000 
#
# Total GULP energy -133642.447553 kJ/mol
# GULP energy per Si atom -5568.435315 kJ/mol
# Density = 2.260842 g / cm^3
# Si number density = 22.659992 Si / 1000 Ang^3
#
#
#
# Elastic Constant Matrix: (Units=GPa)
#
#
# Indices 1 2 3 4 5 6 
#
# 1 64.4190 3.1168 9.0294 0.0001 -2.7848 0.0000
# 2 3.1168 81.2032 7.0644 0.0015 5.4332 -0.0007
# 3 9.0294 7.0644 49.1765 0.0005 -8.1123 -0.0002
# 4 0.0001 0.0015 0.0005 19.9787 -0.0002 -1.3587
# 5 -2.7848 5.4332 -8.1123 -0.0002 19.0757 0.0001
# 6 0.0000 -0.0007 -0.0002 -1.3587 0.0001 27.7200
#
#
#
# Elastic Compliance Matrix: (Units=1/GPa)
#
#
# Indices 1 2 3 4 5 6 
#
# 1 0.015975 -0.000473 -0.002644 0.000000 0.001343 0.000000
# 2 -0.000473 0.012878 -0.002559 -0.000001 -0.004826 0.000000
# 3 -0.002644 -0.002559 0.022847 0.000000 0.010059 0.000000
# 4 0.000000 -0.000001 0.000000 0.050221 0.000001 0.002462
# 5 0.001343 -0.004826 0.010059 0.000001 0.058271 0.000000
# 6 0.000000 0.000000 0.000000 0.002462 0.000000 0.036196
#
#
# Mechanical properties :
#
#
# Convention : Reuss Voigt Hill
#
# Bulk Modulus (GPa) = 24.78390 25.91331 25.34861
# Shear Modulus (GPa) = 22.60505 25.06076 23.83290
#
# Velocity S-wave (km/s) = 3.16187 3.32919 3.24661
# Velocity P-wave (km/s) = 4.92858 5.12235 5.02640
#
# Compressibility (1/GPa) = 0.04034877
#
# Stress axis : x y z
#
# Youngs Moduli (GPa) = 62.59839 77.64906 43.76863
#
# Poissons Ratio (x) = 0.03673 0.11571
# Poissons Ratio (y) = 0.02961 0.11201
# Poissons Ratio (z) = 0.16550 0.19872
#
# Static dielectric constant tensor:
#      x y z
#    x 1.866880 0.000000 -0.033050 
#    y 0.000000 1.886630 0.000000 
#    z -0.033050 0.000000 1.946860 
# 
# From -- ./inp_files/176874.got.cif
#   From: 2010.05.17/outbox.cif.g08.bks.cpg/sg15_89_cif.got.tgz:176874.got - 2010.06.03 18:47:42.
