data_PCOD9283539
_publ_section_title
;
Structure prediction by ZEFSAII (Michael W. Deem and Ramdas Pophale) SiO2 
 PCOD9283539
Probable space group: C 2/C
;
_chemical_formula_sum "Si O2"
_cell_formula_units_Z 40
_cell_length_a 10.354990
_cell_length_b 15.368278
_cell_length_c 16.998689
_cell_angle_alpha 90.000000
_cell_angle_beta 137.119223
_cell_angle_gamma 90.000000
_cell_volume 1840.782734
_symmetry_space_group_name_H-M "C 2/C"
_symmetry_group_IT_number 15
_symmetry_cell_setting 'monoclinic'
loop_
_space_group_symop_operation_xyz
x,y,z
-x,y,1/2-z
-x,-y,-z
x,-y,1/2+z
1/2+x,1/2+y,z
1/2-x,1/2+y,1/2-z
1/2-x,1/2-y,-z
1/2+x,1/2-y,1/2+z
loop_
_atom_site_type_symbol
_atom_site_label
_atom_site_fract_x
_atom_site_fract_y
_atom_site_fract_z
Si Si1 0.000000 0.517437 0.250000
Si Si2 0.090825 0.569808 0.637155
Si Si3 0.298971 0.513661 0.591382
Si Si4 0.024626 0.764097 0.914762
Si Si5 0.500000 0.648503 0.250000
Si Si6 0.893607 0.088700 0.476891
O O1 0.900404 0.452679 0.267793
O O2 0.827125 0.577898 0.145210
O O3 0.273975 0.545670 0.668915
O O4 0.913287 0.508030 0.534043
O O5 0.047230 0.668387 0.597133
O O6 0.386430 0.418224 0.642913
O O7 0.390382 0.580407 0.570514
O O8 0.922769 0.791334 0.786228
O O9 0.982579 0.832289 0.966406
O O10 0.250000 0.750000 0.000000
O O11 0.000000 0.000000 0.500000
#
# Coordination Sequence:
#
# PCOD9283539 Si02
#       6
#     4   8   8   8   4   8
#     4  10  21  42  67  94 132 182 222 267 346 401
#     4  10  21  40  62  92 126 169 216 270 325 395
#     4  10  22  40  63  89 126 172 216 266 333 397
#     4  12  23  40  65  99 128 169 224 280 328 387
#     4  12  21  40  63  90 124 164 216 265 326 393
#     4  11  22  42  69  95 133 176 225 277 333 409
#
# _framework density 21.729887000000002
#
# number of rings (size 3 to 8) (size 9 to 14) (size 15 to 20)
#    0.000    1.200    4.000    3.000    0.000    0.800 
#    0.000    1.000    0.000    0.000    0.000    0.000 
#    0.000    0.000    0.000    0.000    0.000    0.000 
#
# Total GULP energy -111391.010399 kJ/mol
# GULP energy per Si atom -5569.550520 kJ/mol
# Density = 2.168043 g / cm^3
# Si number density = 21.729887 Si / 1000 Ang^3
#
#
#
# Elastic Constant Matrix: (Units=GPa)
#
#
# Indices 1 2 3 4 5 6 
#
# 1 145.9788 61.0019 26.4113 0.0000 -35.2560 0.0000
# 2 61.0019 106.9836 -0.4681 0.0001 -13.5422 0.0000
# 3 26.4113 -0.4681 66.0435 0.0001 -5.5210 0.0000
# 4 0.0000 0.0001 0.0001 10.7596 0.0001 -3.0197
# 5 -35.2560 -13.5422 -5.5210 0.0001 42.5120 0.0000
# 6 0.0000 0.0000 0.0000 -3.0197 0.0000 17.2851
#
#
#
# Elastic Compliance Matrix: (Units=1/GPa)
#
#
# Indices 1 2 3 4 5 6 
#
# 1 0.011824 -0.005822 -0.004150 0.000000 0.007413 0.000000
# 2 -0.005822 0.012614 0.002376 0.000000 -0.000502 0.000000
# 3 -0.004150 0.002376 0.016776 0.000000 -0.000506 0.000000
# 4 0.000000 0.000000 0.000000 0.097732 0.000000 0.017074
# 5 0.007413 -0.000502 -0.000506 0.000000 0.029445 0.000000
# 6 0.000000 0.000000 0.000000 0.017074 0.000000 0.060836
#
#
# Mechanical properties :
#
#
# Convention : Reuss Voigt Hill
#
# Bulk Modulus (GPa) = 38.43078 54.76622 46.59850
# Shear Modulus (GPa) = 19.75553 29.58206 24.66879
#
# Velocity S-wave (km/s) = 3.01847 3.69366 3.37300
# Velocity P-wave (km/s) = 5.46555 6.59156 6.05479
#
# Compressibility (1/GPa) = 0.02602081
#
# Stress axis : x y z
#
# Youngs Moduli (GPa) = 84.57099 79.27782 59.60986
#
# Poissons Ratio (x) = 0.46156 0.24740
# Poissons Ratio (y) = 0.49238 -0.14162
# Poissons Ratio (z) = 0.35099 -0.18835
#
# Static dielectric constant tensor:
#      x y z
#    x 1.847280 0.000000 -0.037150 
#    y 0.000000 1.749990 0.000000 
#    z -0.037150 0.000000 1.946230 
# 
# From -- ./inp_files/85663.got.cif
#   From: 2010.05.17/outbox.cif.g08.bks.cpg/sg15_43_cif.got.tgz:85663.got - 2010.06.03 18:47:42.
