data_PCOD9283146
_publ_section_title
;
Structure prediction by ZEFSAII (Michael W. Deem and Ramdas Pophale) SiO2 
 PCOD9283146
Probable space group: C 2/C
;
_chemical_formula_sum "Si O2"
_cell_formula_units_Z 56
_cell_length_a 20.319796
_cell_length_b 9.863387
_cell_length_c 12.086417
_cell_angle_alpha 90.000000
_cell_angle_beta 72.042746
_cell_angle_gamma 90.000000
_cell_volume 2304.381924
_symmetry_space_group_name_H-M "C 2/C"
_symmetry_group_IT_number 15
_symmetry_cell_setting 'monoclinic'
loop_
_space_group_symop_operation_xyz
x,y,z
-x,y,1/2-z
-x,-y,-z
x,-y,1/2+z
1/2+x,1/2+y,z
1/2-x,1/2+y,1/2-z
1/2-x,1/2-y,-z
1/2+x,1/2-y,1/2+z
loop_
_atom_site_type_symbol
_atom_site_label
_atom_site_fract_x
_atom_site_fract_y
_atom_site_fract_z
Si Si1 0.500000 0.461604 0.750000
Si Si2 0.663370 0.254820 0.968187
Si Si3 0.649474 0.598599 0.698276
Si Si4 0.716562 0.072898 0.772577
Si Si5 0.500000 0.049457 0.750000
Si Si6 0.850166 0.531994 0.911612
Si Si7 0.983918 0.246029 0.063108
Si Si8 0.119587 0.668425 0.389894
O O1 0.572379 0.539519 0.728320
O O2 0.491851 0.376035 0.869027
O O3 0.673834 0.358427 0.062785
O O4 0.671458 0.108889 0.023246
O O5 0.707603 0.219447 0.836017
O O6 0.587089 0.284204 0.961232
O O7 0.711485 0.512160 0.720454
O O8 0.644554 0.721047 0.789820
O O9 0.706109 0.078808 0.647774
O O10 0.652641 0.973334 0.835252
O O11 0.427712 0.989325 0.829203
O O12 0.525383 0.137916 0.840713
O O13 0.859716 0.657765 0.991086
O O14 0.037976 0.302943 0.945165
#
# Coordination Sequence:
#
# PCOD9283146 Si02
#       8
#     4   8   8   8   4   8   8   8
#     4  11  28  51  70  98 130 189 232 285 344 414
#     4  11  23  41  73 103 138 180 224 285 336 410
#     4  12  26  46  70  98 143 178 234 281 342 408
#     4  11  24  45  67 107 140 184 225 280 343 407
#     4   9  18  35  66 100 136 171 214 287 326 404
#     4  10  21  39  68 105 139 178 230 269 347 397
#     4  10  22  44  70  99 133 174 233 281 340 403
#     4  10  24  44  67 105 134 179 228 280 340 401
#
# _framework density 24.301527
#
# number of rings (size 3 to 8) (size 9 to 14) (size 15 to 20)
#    0.000    1.429    2.857    1.286    2.000    6.286 
#   10.286    0.000    0.000    0.000    0.000    0.000 
#    0.000    0.000    0.000    0.000    0.000    0.000 
#
# Total GULP energy -156148.223036 kJ/mol
# GULP energy per Si atom -5576.722251 kJ/mol
# Density = 2.424622 g / cm^3
# Si number density = 24.301527 Si / 1000 Ang^3
#
#
#
# Elastic Constant Matrix: (Units=GPa)
#
#
# Indices 1 2 3 4 5 6 
#
# 1 193.4704 53.7531 64.1418 0.0000 34.2858 0.0000
# 2 53.7531 52.7001 18.9956 0.0000 -7.1901 0.0000
# 3 64.1418 18.9956 66.4193 0.0000 9.2642 0.0000
# 4 0.0000 0.0000 0.0000 16.7705 0.0000 -19.8163
# 5 34.2858 -7.1901 9.2642 0.0000 45.8062 0.0000
# 6 0.0000 0.0000 0.0000 -19.8163 0.0000 -19.5491
#
#
#
# Elastic Compliance Matrix: (Units=1/GPa)
#
#
# Indices 1 2 3 4 5 6 
#
# 1 0.012530 -0.011396 -0.007495 0.000000 -0.009652 0.000000
# 2 -0.011396 0.032541 -0.000210 0.000000 0.013680 0.000000
# 3 -0.007495 -0.000210 0.022202 0.000000 0.001087 0.000000
# 4 0.000000 0.000000 0.000000 0.027131 0.000000 -0.027502
# 5 -0.009652 0.013680 0.001087 0.000000 0.030983 0.000000
# 6 0.000000 0.000000 0.000000 -0.027502 0.000000 -0.023275
#
#
# Mechanical properties :
#
#
# Convention : Reuss Voigt Hill
#
# Bulk Modulus (GPa) = 34.39699 65.15232 49.77466
# Shear Modulus (GPa) = 33.33226 20.31880 26.82553
#
# Velocity S-wave (km/s) = 3.70755 2.89470 3.32605
# Velocity P-wave (km/s) = 5.70200 6.16770 5.93942
#
# Compressibility (1/GPa) = 0.02907231
#
# Stress axis : x y z
#
# Youngs Moduli (GPa) = 79.80659 30.73061 45.04013
#
# Poissons Ratio (x) = 0.35020 0.33759
# Poissons Ratio (y) = 0.90947 0.00944
# Poissons Ratio (z) = 0.59817 0.00644
#
# Static dielectric constant tensor:
#      x y z
#    x 1.963580 0.000000 -0.044180 
#    y 0.000000 1.949220 0.000000 
#    z -0.044180 0.000000 2.081690 
# 
# From -- ./inp_files/111028.got.cif
#   From: 2010.05.17/outbox.cif.g08.bks.cpg/sg15_56_cif.got.tgz:111028.got - 2010.06.03 18:47:42.
