data_PCOD9283320
_publ_section_title
;
Structure prediction by ZEFSAII (Michael W. Deem and Ramdas Pophale) SiO2 
 PCOD9283320
Probable space group: C 2/C
;
_chemical_formula_sum "Si O2"
_cell_formula_units_Z 48
_cell_length_a 24.560770
_cell_length_b 11.874614
_cell_length_c 10.467264
_cell_angle_alpha 90.000000
_cell_angle_beta 133.649407
_cell_angle_gamma 90.000000
_cell_volume 2208.916833
_symmetry_space_group_name_H-M "C 2/C"
_symmetry_group_IT_number 15
_symmetry_cell_setting 'monoclinic'
loop_
_space_group_symop_operation_xyz
x,y,z
-x,y,1/2-z
-x,-y,-z
x,-y,1/2+z
1/2+x,1/2+y,z
1/2-x,1/2+y,1/2-z
1/2-x,1/2-y,-z
1/2+x,1/2-y,1/2+z
loop_
_atom_site_type_symbol
_atom_site_label
_atom_site_fract_x
_atom_site_fract_y
_atom_site_fract_z
Si Si1 0.000000 0.942134 0.750000
Si Si2 0.390215 0.314619 0.418229
Si Si3 0.337829 0.503942 0.510272
Si Si4 0.146855 0.237835 0.925164
Si Si5 0.295267 0.969733 0.530882
Si Si6 0.111749 0.549127 0.059895
Si Si7 0.000000 0.387849 0.750000
O O1 0.970533 0.867397 0.585347
O O2 0.072538 0.008131 0.821060
O O3 0.334620 0.397660 0.408396
O O4 0.370682 0.316074 0.239745
O O5 0.396575 0.183356 0.462477
O O6 0.323317 0.633226 0.441781
O O7 0.282299 0.483165 0.538327
O O8 0.206806 0.336829 0.003628
O O9 0.070455 0.305128 0.837217
O O10 0.352793 0.979751 0.744686
O O11 0.329893 0.021613 0.459705
O O12 0.036947 0.474573 0.912649
#
# Coordination Sequence:
#
# PCOD9283320 Si02
#       7
#     4   8   8   8   8   8   4
#     4   8  20  36  56  88 108 164 190 252 308 358
#     4   9  21  38  61  87 125 158 208 259 307 372
#     4  10  21  40  59  87 125 158 211 251 311 374
#     4  10  21  40  61  92 120 168 206 257 317 362
#     4  10  23  39  66  92 126 165 208 265 306 376
#     4  10  22  42  64  96 121 168 211 254 322 356
#     4  10  22  40  66  90 128 158 216 256 302 394
#
# _framework density 21.730108999999999
#
# number of rings (size 3 to 8) (size 9 to 14) (size 15 to 20)
#    1.000    1.333    0.000    1.500    2.333    8.667 
#    3.000    1.667    0.000    0.000    0.000    0.000 
#    0.000    0.000    0.000    0.000    0.000    0.000 
#
# Total GULP energy -133642.801103 kJ/mol
# GULP energy per Si atom -5568.450046 kJ/mol
# Density = 2.168065 g / cm^3
# Si number density = 21.730109 Si / 1000 Ang^3
#
#
#
# Elastic Constant Matrix: (Units=GPa)
#
#
# Indices 1 2 3 4 5 6 
#
# 1 69.0438 5.6308 3.8133 0.0000 4.1000 0.0000
# 2 5.6308 73.3864 5.8577 0.0000 -20.9517 0.0000
# 3 3.8133 5.8577 55.2419 0.0000 2.0320 0.0000
# 4 0.0000 0.0000 0.0000 -2.2388 0.0000 -3.5871
# 5 4.1000 -20.9517 2.0320 0.0000 26.0441 0.0000
# 6 0.0000 0.0000 0.0000 -3.5871 0.0000 40.5648
#
#
#
# Elastic Compliance Matrix: (Units=1/GPa)
#
#
# Indices 1 2 3 4 5 6 
#
# 1 0.014950 -0.002277 -0.000638 0.000000 -0.004135 0.000000
# 2 -0.002277 0.018361 -0.002353 0.000000 0.015313 0.000000
# 3 -0.000638 -0.002353 0.018515 0.000000 -0.003237 0.000000
# 4 0.000000 0.000000 0.000000 -0.391229 0.000000 -0.034596
# 5 -0.004135 0.015313 -0.003237 0.000000 0.051618 0.000000
# 6 0.000000 0.000000 0.000000 -0.034596 0.000000 0.021593
#
#
# Mechanical properties :
#
#
# Convention : Reuss Voigt Hill
#
# Bulk Modulus (GPa) = 24.21941 25.36398 24.79170
# Shear Modulus (GPa) = -20.67031 25.03205 2.18087
#
# Velocity S-wave (km/s) = -3.08755 3.39772 1.00289
# Velocity P-wave (km/s) = 1.24130 5.20484 3.57418
#
# Compressibility (1/GPa) = 0.04128919
#
# Stress axis : x y z
#
# Youngs Moduli (GPa) = 66.88940 54.46404 54.01071
#
# Poissons Ratio (x) = 0.12400 0.03448
# Poissons Ratio (y) = 0.15229 0.12709
# Poissons Ratio (z) = 0.04271 0.12816
#
# Static dielectric constant tensor:
#      x y z
#    x 1.821780 0.000000 0.033470 
#    y 0.000000 1.854040 0.000000 
#    z 0.033470 0.000000 1.843080 
# 
# From -- ./inp_files/122392.got.cif
#   From: 2010.05.17/outbox.cif.g08.bks.cpg/sg15_62_cif.got.tgz:122392.got - 2010.06.03 18:47:42.
