data_PCOD9283217
_publ_section_title
;
Structure prediction by ZEFSAII (Michael W. Deem and Ramdas Pophale) SiO2 
 PCOD9283217
Probable space group: C 2/C
;
_chemical_formula_sum "Si O2"
_cell_formula_units_Z 56
_cell_length_a 22.107576
_cell_length_b 9.619113
_cell_length_c 14.171668
_cell_angle_alpha 90.000000
_cell_angle_beta 88.474039
_cell_angle_gamma 90.000000
_cell_volume 3012.611142
_symmetry_space_group_name_H-M "C 2/C"
_symmetry_group_IT_number 15
_symmetry_cell_setting 'monoclinic'
loop_
_space_group_symop_operation_xyz
x,y,z
-x,y,1/2-z
-x,-y,-z
x,-y,1/2+z
1/2+x,1/2+y,z
1/2-x,1/2+y,1/2-z
1/2-x,1/2-y,-z
1/2+x,1/2-y,1/2+z
loop_
_atom_site_type_symbol
_atom_site_label
_atom_site_fract_x
_atom_site_fract_y
_atom_site_fract_z
Si Si1 0.132498 0.017832 0.892035
Si Si2 0.130042 0.990590 0.617881
Si Si3 0.001477 0.911568 0.095346
Si Si4 0.306820 0.288991 0.256364
Si Si5 0.398361 0.968213 0.748280
Si Si6 0.994330 0.415684 0.903790
Si Si7 0.164649 0.235074 0.265150
O O1 0.143675 0.863539 0.852071
O O2 0.065554 0.066474 0.861951
O O3 0.179033 0.120259 0.837854
O O4 0.136280 0.022779 0.004942
O O5 0.147596 0.850860 0.671728
O O6 0.171404 0.112975 0.658561
O O7 0.060513 0.030402 0.644847
O O8 0.011369 0.748775 0.077504
O O9 0.000000 0.000000 0.000000
O O10 0.347566 0.150989 0.252649
O O11 0.236545 0.254568 0.266464
O O12 0.437291 0.963111 0.843104
O O13 0.446272 0.937756 0.663056
O O14 0.368289 0.117483 0.734142
O O15 0.000000 0.500000 0.000000
#
# Coordination Sequence:
#
# PCOD9283217 Si02
#       7
#     8   8   8   8   8   8   8
#     4  10  23  42  68  92 121 164 212 255 310 371
#     4  10  23  42  68  92 121 164 212 255 310 371
#     4  10  21  39  69  93 121 158 210 252 310 376
#     4  11  22  45  63  89 132 164 212 255 300 369
#     4  11  24  39  64  95 129 163 200 262 323 359
#     4  11  25  41  64  96 130 161 199 259 324 374
#     4  11  26  40  63  94 125 168 214 255 299 371
#
# _framework density 18.588526999999999
#
# number of rings (size 3 to 8) (size 9 to 14) (size 15 to 20)
#    0.000    1.429    2.857    1.714    8.000    4.571 
#    0.000    2.857    0.000    0.000    0.000    0.000 
#    0.000    0.000    0.000    0.000    0.000    0.000 
#
# Total GULP energy -156402.978396 kJ/mol
# GULP energy per Si atom -5585.820657 kJ/mol
# Density = 1.854622 g / cm^3
# Si number density = 18.588527 Si / 1000 Ang^3
#
#
#
# Elastic Constant Matrix: (Units=GPa)
#
#
# Indices 1 2 3 4 5 6 
#
# 1 86.7126 24.6679 -2.2804 0.0000 16.9918 0.0000
# 2 24.6679 102.3371 7.6714 0.0000 21.2520 0.0000
# 3 -2.2804 7.6714 102.4698 0.0000 18.1691 0.0000
# 4 0.0000 0.0000 0.0000 30.2083 0.0000 0.7304
# 5 16.9918 21.2520 18.1691 0.0000 16.0264 0.0000
# 6 0.0000 0.0000 0.0000 0.7304 0.0000 30.1234
#
#
#
# Elastic Compliance Matrix: (Units=1/GPa)
#
#
# Indices 1 2 3 4 5 6 
#
# 1 0.015883 0.000490 0.004278 0.000000 -0.022339 0.000000
# 2 0.000490 0.014127 0.002963 0.000000 -0.022612 0.000000
# 3 0.004278 0.002963 0.013934 0.000000 -0.024261 0.000000
# 4 0.000000 0.000000 0.000000 0.033123 0.000000 -0.000803
# 5 -0.022339 -0.022612 -0.024261 0.000000 0.143572 0.000000
# 6 0.000000 0.000000 0.000000 -0.000803 0.000000 0.033216
#
#
# Mechanical properties :
#
#
# Convention : Reuss Voigt Hill
#
# Bulk Modulus (GPa) = 16.83363 39.07080 27.95222
# Shear Modulus (GPa) = 19.36513 32.70234 26.03373
#
# Velocity S-wave (km/s) = 3.23116 4.19892 3.74642
# Velocity P-wave (km/s) = 4.79543 6.67625 5.81242
#
# Compressibility (1/GPa) = 0.05940488
#
# Stress axis : x y z
#
# Youngs Moduli (GPa) = 62.96045 70.78588 71.76587
#
# Poissons Ratio (x) = -0.03468 -0.30700
# Poissons Ratio (y) = -0.03084 -0.21261
# Poissons Ratio (z) = -0.26933 -0.20971
#
# Static dielectric constant tensor:
#      x y z
#    x 1.644120 0.000000 -0.004820 
#    y 0.000000 1.632070 0.000000 
#    z -0.004820 0.000000 1.635130 
# 
# From -- ./inp_files/166646.got.cif
#   From: 2010.05.17/outbox.cif.g08.bks.cpg/sg15_84_cif.got.tgz:166646.got - 2010.06.03 18:47:42.
