data_PCOD9283514
_publ_section_title
;
Structure prediction by ZEFSAII (Michael W. Deem and Ramdas Pophale) SiO2 
 PCOD9283514
Probable space group: C 2/C
;
_chemical_formula_sum "Si O2"
_cell_formula_units_Z 48
_cell_length_a 8.149961
_cell_length_b 14.707520
_cell_length_c 25.672586
_cell_angle_alpha 90.000000
_cell_angle_beta 138.989060
_cell_angle_gamma 90.000000
_cell_volume 2019.309492
_symmetry_space_group_name_H-M "C 2/C"
_symmetry_group_IT_number 15
_symmetry_cell_setting 'monoclinic'
loop_
_space_group_symop_operation_xyz
x,y,z
-x,y,1/2-z
-x,-y,-z
x,-y,1/2+z
1/2+x,1/2+y,z
1/2-x,1/2+y,1/2-z
1/2-x,1/2-y,-z
1/2+x,1/2-y,1/2+z
loop_
_atom_site_type_symbol
_atom_site_label
_atom_site_fract_x
_atom_site_fract_y
_atom_site_fract_z
Si Si1 0.225294 0.259325 0.202804
Si Si2 0.610570 0.051362 0.719209
Si Si3 0.566681 0.292786 0.549804
Si Si4 0.677480 0.483539 0.867158
Si Si5 0.417486 0.132092 0.340323
Si Si6 0.649803 0.897261 0.488180
O O1 0.500000 0.289796 0.250000
O O2 0.085577 0.348595 0.189075
O O3 0.114747 0.213733 0.124307
O O4 0.273598 0.189192 0.261452
O O5 0.500000 0.055370 0.750000
O O6 0.492623 0.963148 0.663519
O O7 0.906259 0.024370 0.791455
O O8 0.450622 0.195343 0.508969
O O9 0.353316 0.368550 0.494190
O O10 0.828848 0.313864 0.585666
O O11 0.745845 0.397284 0.847410
O O12 0.899189 0.554658 0.908471
O O13 0.716857 0.458897 0.936777
#
# Coordination Sequence:
#
# PCOD9283514 Si02
#       6
#     8   8   8   8   8   8
#     4  10  21  40  65  93 126 160 205 266 320 370
#     4  12  24  39  63  92 124 163 212 267 319 371
#     4  10  21  40  62  90 122 165 206 246 315 373
#     4  11  23  40  60  89 123 164 209 255 315 366
#     4  11  22  39  65  91 123 159 206 267 318 371
#     4  10  22  40  61  83 127 169 203 249 295 383
#
# _framework density 23.770503999999999
#
# number of rings (size 3 to 8) (size 9 to 14) (size 15 to 20)
#    0.000    1.333    0.000    8.000    0.000    4.000 
#    0.000    6.667    0.000    0.000    0.000    0.000 
#    0.000    0.000    0.000    0.000    0.000    0.000 
#
# Total GULP energy -134294.748637 kJ/mol
# GULP energy per Si atom -5595.614527 kJ/mol
# Density = 2.371640 g / cm^3
# Si number density = 23.770504 Si / 1000 Ang^3
#
#
#
# Elastic Constant Matrix: (Units=GPa)
#
#
# Indices 1 2 3 4 5 6 
#
# 1 78.2464 9.8480 20.8109 -0.0001 10.0063 0.0000
# 2 9.8480 81.3744 3.6999 -0.0001 4.8096 0.0000
# 3 20.8109 3.6999 66.7177 -0.0003 23.6434 -0.0001
# 4 -0.0001 -0.0001 -0.0003 41.2396 -0.0001 4.1742
# 5 10.0063 4.8096 23.6434 -0.0001 32.7678 -0.0001
# 6 0.0000 0.0000 -0.0001 4.1742 -0.0001 34.3335
#
#
#
# Elastic Compliance Matrix: (Units=1/GPa)
#
#
# Indices 1 2 3 4 5 6 
#
# 1 0.014162 -0.001460 -0.003869 0.000000 -0.001318 0.000000
# 2 -0.001460 0.012547 0.000342 0.000000 -0.001642 0.000000
# 3 -0.003869 0.000342 0.021195 0.000000 -0.014162 0.000000
# 4 0.000000 0.000000 0.000000 0.024551 0.000000 -0.002985
# 5 -0.001318 -0.001642 -0.014162 0.000000 0.041380 0.000000
# 6 0.000000 0.000000 0.000000 -0.002985 0.000000 0.029489
#
#
# Mechanical properties :
#
#
# Convention : Reuss Voigt Hill
#
# Bulk Modulus (GPa) = 26.36527 32.78400 29.57463
# Shear Modulus (GPa) = 30.13118 34.46685 32.29902
#
# Velocity S-wave (km/s) = 3.56418 3.81200 3.69017
# Velocity P-wave (km/s) = 5.29656 5.76168 5.53401
#
# Compressibility (1/GPa) = 0.03792868
#
# Stress axis : x y z
#
# Youngs Moduli (GPa) = 70.61369 79.69970 47.18068
#
# Poissons Ratio (x) = 0.11636 0.18255
# Poissons Ratio (y) = 0.10310 -0.01612
# Poissons Ratio (z) = 0.27321 -0.02722
#
# Static dielectric constant tensor:
#      x y z
#    x 1.874490 0.000000 -0.013740 
#    y 0.000000 1.916940 0.000000 
#    z -0.013740 0.000000 1.942400 
# 
# From -- ./inp_files/308123.got.cif
#   From: 2010.05.17/outbox.cif.g08.bks.cpg/sg15_155_cif.got.tgz:308123.got - 2010.06.03 18:47:42.
