data_PCOD9283340
_publ_section_title
;
Structure prediction by ZEFSAII (Michael W. Deem and Ramdas Pophale) SiO2 
 PCOD9283340
Probable space group: C 2/C
;
_chemical_formula_sum "Si O2"
_cell_formula_units_Z 48
_cell_length_a 8.762352
_cell_length_b 12.123251
_cell_length_c 21.034203
_cell_angle_alpha 90.000000
_cell_angle_beta 115.906603
_cell_angle_gamma 90.000000
_cell_volume 2009.882230
_symmetry_space_group_name_H-M "C 2/C"
_symmetry_group_IT_number 15
_symmetry_cell_setting 'monoclinic'
loop_
_space_group_symop_operation_xyz
x,y,z
-x,y,1/2-z
-x,-y,-z
x,-y,1/2+z
1/2+x,1/2+y,z
1/2-x,1/2+y,1/2-z
1/2-x,1/2-y,-z
1/2+x,1/2-y,1/2+z
loop_
_atom_site_type_symbol
_atom_site_label
_atom_site_fract_x
_atom_site_fract_y
_atom_site_fract_z
Si Si1 0.947802 0.241463 0.019717
Si Si2 0.766413 0.909905 0.894048
Si Si3 0.508840 0.291190 0.326784
Si Si4 0.496987 0.965822 0.074352
Si Si5 0.991945 0.962820 0.825319
Si Si6 0.800887 0.333865 0.870553
O O1 0.031276 0.336690 0.078484
O O2 0.057449 0.132117 0.043592
O O3 0.750000 0.250000 0.000000
O O4 0.934932 0.282814 0.944742
O O5 0.640479 0.804958 0.869078
O O6 0.676990 0.002867 0.921072
O O7 0.816803 0.944815 0.831492
O O8 0.500000 0.297507 0.250000
O O9 0.549255 0.414744 0.357710
O O10 0.323678 0.249238 0.317126
O O11 0.633984 0.042915 0.133359
O O12 0.500000 0.000000 0.000000
O O13 0.117715 0.861448 0.865421
O O14 0.000000 0.959768 0.750000
#
# Coordination Sequence:
#
# PCOD9283340 Si02
#       6
#     8   8   8   8   8   8
#     4  11  22  37  59  93 125 158 203 249 308 376
#     4  11  23  40  65  88 124 169 201 254 319 367
#     4  10  23  42  63  88 121 162 208 255 307 360
#     4   9  22  39  58  87 122 159 199 245 304 370
#     4  11  23  39  62  90 118 159 211 257 306 365
#     4  10  21  40  60  85 125 156 202 257 299 368
#
# _framework density 23.881999
#
# number of rings (size 3 to 8) (size 9 to 14) (size 15 to 20)
#    0.000    1.667    1.667    2.000    2.333    9.333 
#    0.000    0.000    0.000    7.000    0.000    0.000 
#    0.000    0.000    0.000    0.000    0.000    0.000 
#
# Total GULP energy -133866.555536 kJ/mol
# GULP energy per Si atom -5577.773147 kJ/mol
# Density = 2.382764 g / cm^3
# Si number density = 23.881999 Si / 1000 Ang^3
#
#
#
# Elastic Constant Matrix: (Units=GPa)
#
#
# Indices 1 2 3 4 5 6 
#
# 1 136.3210 21.3504 16.9295 0.0000 -38.9852 0.0000
# 2 21.3504 72.9607 12.7895 0.0000 -19.9693 0.0000
# 3 16.9295 12.7895 45.5537 0.0000 -18.6146 0.0000
# 4 0.0000 0.0000 0.0000 17.1091 0.0000 4.0081
# 5 -38.9852 -19.9693 -18.6146 0.0000 36.3456 0.0000
# 6 0.0000 0.0000 0.0000 4.0081 0.0000 39.0315
#
#
#
# Elastic Compliance Matrix: (Units=1/GPa)
#
#
# Indices 1 2 3 4 5 6 
#
# 1 0.010610 -0.000025 0.000896 0.000000 0.011826 0.000000
# 2 -0.000025 0.016180 -0.001153 0.000000 0.008272 0.000000
# 3 0.000896 -0.001153 0.027920 0.000000 0.014627 0.000000
# 4 0.000000 0.000000 0.000000 0.059889 0.000000 -0.006150
# 5 0.011826 0.008272 0.014627 0.000000 0.052235 0.000000
# 6 0.000000 0.000000 0.000000 -0.006150 0.000000 0.026252
#
#
# Mechanical properties :
#
#
# Convention : Reuss Voigt Hill
#
# Bulk Modulus (GPa) = 18.46854 39.66380 29.06617
# Shear Modulus (GPa) = 23.61856 32.08164 27.85010
#
# Velocity S-wave (km/s) = 3.14820 3.66914 3.41861
# Velocity P-wave (km/s) = 4.57875 5.88170 5.27064
#
# Compressibility (1/GPa) = 0.05414613
#
# Stress axis : x y z
#
# Youngs Moduli (GPa) = 94.24805 61.80647 35.81676
#
# Poissons Ratio (x) = 0.00156 -0.03211
# Poissons Ratio (y) = 0.00238 0.04130
# Poissons Ratio (z) = -0.08448 0.07126
#
# Static dielectric constant tensor:
#      x y z
#    x 2.087340 0.000000 -0.015860 
#    y 0.000000 1.947820 0.000000 
#    z -0.015860 0.000000 1.992480 
# 
# From -- ./inp_files/263299.got.cif
#   From: 2010.05.17/outbox.cif.g08.bks.cpg/sg15_132_cif.got.tgz:263299.got - 2010.06.03 18:47:42.
