data_PCOD9283502
_publ_section_title
;
Structure prediction by ZEFSAII (Michael W. Deem and Ramdas Pophale) SiO2 
 PCOD9283502
Probable space group: C 2/C
;
_chemical_formula_sum "Si O2"
_cell_formula_units_Z 40
_cell_length_a 8.433411
_cell_length_b 25.617083
_cell_length_c 8.617148
_cell_angle_alpha 90.000000
_cell_angle_beta 91.040435
_cell_angle_gamma 90.000000
_cell_volume 1861.336464
_symmetry_space_group_name_H-M "C 2/C"
_symmetry_group_IT_number 15
_symmetry_cell_setting 'monoclinic'
loop_
_space_group_symop_operation_xyz
x,y,z
-x,y,1/2-z
-x,-y,-z
x,-y,1/2+z
1/2+x,1/2+y,z
1/2-x,1/2+y,1/2-z
1/2-x,1/2-y,-z
1/2+x,1/2-y,1/2+z
loop_
_atom_site_type_symbol
_atom_site_label
_atom_site_fract_x
_atom_site_fract_y
_atom_site_fract_z
Si Si1 0.418653 0.835420 0.473490
Si Si2 0.984030 0.556999 0.432203
Si Si3 0.229397 0.179836 0.666577
Si Si4 0.500000 0.485286 0.750000
Si Si5 0.500000 0.232848 0.250000
Si Si6 0.138037 0.929057 0.048885
O O1 0.406167 0.897759 0.496900
O O2 0.599184 0.822611 0.417737
O O3 0.287915 0.821017 0.345648
O O4 0.402428 0.804557 0.633248
O O5 0.808989 0.572660 0.475822
O O6 0.000000 0.556172 0.250000
O O7 0.000000 0.500000 0.500000
O O8 0.125288 0.129164 0.616623
O O9 0.118066 0.230292 0.653585
O O10 0.467046 0.449612 0.598163
O O11 0.371341 0.527240 0.814486
#
# Coordination Sequence:
#
# PCOD9283502 Si02
#       6
#     8   8   8   4   4   8
#     4  10  23  42  63  92 127 161 210 262 311 380
#     4  11  23  38  62  94 123 163 206 252 308 374
#     4  10  23  41  63  91 125 163 208 262 318 369
#     4  10  21  40  62  88 136 165 208 254 308 376
#     4  12  21  44  64  92 118 167 214 264 318 368
#     4  10  22  40  60  94 125 170 206 254 311 378
#
# _framework density 21.489936
#
# number of rings (size 3 to 8) (size 9 to 14) (size 15 to 20)
#    0.000    1.600    1.000    3.000    8.400    0.000 
#    3.600    4.000    0.000    0.000    0.000    0.000 
#    0.000    0.000    0.000    0.000    0.000    0.000 
#
# Total GULP energy -111558.007274 kJ/mol
# GULP energy per Si atom -5577.900364 kJ/mol
# Density = 2.144102 g / cm^3
# Si number density = 21.489936 Si / 1000 Ang^3
#
#
#
# Elastic Constant Matrix: (Units=GPa)
#
#
# Indices 1 2 3 4 5 6 
#
# 1 25.6252 14.1140 8.0679 0.0000 -4.9443 0.0000
# 2 14.1140 138.7961 39.0511 0.0000 19.8149 0.0000
# 3 8.0679 39.0511 88.3548 0.0000 -1.4460 0.0000
# 4 0.0000 0.0000 0.0000 47.9762 0.0000 10.3418
# 5 -4.9443 19.8149 -1.4460 0.0000 32.2055 0.0000
# 6 0.0000 0.0000 0.0000 10.3418 0.0000 27.6692
#
#
#
# Elastic Compliance Matrix: (Units=1/GPa)
#
#
# Indices 1 2 3 4 5 6 
#
# 1 0.044518 -0.005581 -0.001431 0.000000 0.010204 0.000000
# 2 -0.005581 0.009913 -0.003989 0.000000 -0.007135 0.000000
# 3 -0.001431 -0.003989 0.013258 0.000000 0.002830 0.000000
# 4 0.000000 0.000000 0.000000 0.022670 0.000000 -0.008473
# 5 0.010204 -0.007135 0.002830 0.000000 0.037134 0.000000
# 6 0.000000 0.000000 0.000000 -0.008473 0.000000 0.039308
#
#
# Mechanical properties :
#
#
# Convention : Reuss Voigt Hill
#
# Bulk Modulus (GPa) = 21.88814 41.69355 31.79084
# Shear Modulus (GPa) = 24.50596 34.33973 29.42285
#
# Velocity S-wave (km/s) = 3.38056 4.00177 3.70421
# Velocity P-wave (km/s) = 5.04431 6.38715 5.75503
#
# Compressibility (1/GPa) = 0.04568684
#
# Stress axis : x y z
#
# Youngs Moduli (GPa) = 22.46306 100.87585 75.42681
#
# Poissons Ratio (x) = 0.56299 0.10796
# Poissons Ratio (y) = 0.12537 0.30085
# Poissons Ratio (z) = 0.03215 0.40235
#
# Static dielectric constant tensor:
#      x y z
#    x 1.837760 0.000000 -0.001980 
#    y 0.000000 1.842770 0.000000 
#    z -0.001980 0.000000 1.786510 
# 
# From -- ./inp_files/23553.got.cif
#   From: 2010.05.17/outbox.cif.g08.bks.cpg/sg15_12_cif.got.tgz:23553.got - 2010.06.03 18:47:42.
