data_PCOD9283616
_publ_section_title
;
Structure prediction by ZEFSAII (Michael W. Deem and Ramdas Pophale) SiO2 
 PCOD9283616
Probable space group: C 2/C
;
_chemical_formula_sum "Si O2"
_cell_formula_units_Z 32
_cell_length_a 8.314774
_cell_length_b 23.354874
_cell_length_c 12.700886
_cell_angle_alpha 90.000000
_cell_angle_beta 147.012735
_cell_angle_gamma 90.000000
_cell_volume 1342.833236
_symmetry_space_group_name_H-M "C 2/C"
_symmetry_group_IT_number 15
_symmetry_cell_setting 'monoclinic'
loop_
_space_group_symop_operation_xyz
x,y,z
-x,y,1/2-z
-x,-y,-z
x,-y,1/2+z
1/2+x,1/2+y,z
1/2-x,1/2+y,1/2-z
1/2-x,1/2-y,-z
1/2+x,1/2-y,1/2+z
loop_
_atom_site_type_symbol
_atom_site_label
_atom_site_fract_x
_atom_site_fract_y
_atom_site_fract_z
Si Si1 0.087801 0.071629 0.625907
Si Si2 0.305888 0.789620 0.930701
Si Si3 0.227790 0.959500 0.971315
Si Si4 0.907289 0.806522 0.311736
O O1 0.135899 0.075152 0.526382
O O2 0.949790 0.133677 0.580691
O O3 0.416835 0.050587 0.848793
O O4 0.852966 0.024358 0.535176
O O5 0.390757 0.745382 0.884504
O O6 0.000000 0.821143 0.750000
O O7 0.250000 0.750000 0.000000
O O8 0.574173 0.828200 0.108934
O O9 0.000000 0.948770 0.750000
O O10 0.000000 0.782959 0.250000
#
# Coordination Sequence:
#
# PCOD9283616 Si02
#       4
#     8   8   8   8
#     4  10  23  39  66  94 129 169 215 262 322 380
#     4   9  21  39  65  88 124 159 213 258 316 384
#     4  10  21  40  63  89 132 166 219 263 313 380
#     4  11  22  41  64  93 129 166 207 268 325 377
#
# _framework density 23.830212
#
# number of rings (size 3 to 8) (size 9 to 14) (size 15 to 20)
#    0.000    2.000    0.000    2.250   10.500    1.000 
#    4.500    0.000   11.000    0.000    0.000    0.000 
#    0.000    0.000    0.000    0.000    0.000    0.000 
#
# Total GULP energy -89139.798538 kJ/mol
# GULP energy per Si atom -5571.237409 kJ/mol
# Density = 2.377597 g / cm^3
# Si number density = 23.830212 Si / 1000 Ang^3
#
#
#
# Elastic Constant Matrix: (Units=GPa)
#
#
# Indices 1 2 3 4 5 6 
#
# 1 108.5386 22.8995 -9.6918 0.0000 -28.3536 0.0000
# 2 22.8995 90.6763 -20.9633 0.0000 -0.0003 0.0000
# 3 -9.6918 -20.9633 74.1191 0.0000 -6.7409 0.0000
# 4 0.0000 0.0000 0.0000 4.1478 0.0000 4.6844
# 5 -28.3536 -0.0003 -6.7409 0.0000 39.3779 0.0000
# 6 0.0000 0.0000 0.0000 4.6844 0.0000 -1.2110
#
#
#
# Elastic Compliance Matrix: (Units=1/GPa)
#
#
# Indices 1 2 3 4 5 6 
#
# 1 0.012333 -0.002727 0.001675 0.000000 0.009167 0.000000
# 2 -0.002727 0.012416 0.003024 0.000000 -0.001446 0.000000
# 3 0.001675 0.003024 0.014908 0.000000 0.003758 0.000000
# 4 0.000000 0.000000 0.000000 0.044905 0.000000 0.173711
# 5 0.009167 -0.001446 0.003758 0.000000 0.032639 0.000000
# 6 0.000000 0.000000 0.000000 0.173711 0.000000 -0.153813
#
#
# Mechanical properties :
#
#
# Convention : Reuss Voigt Hill
#
# Bulk Modulus (GPa) = 22.93628 28.64698 25.79163
# Shear Modulus (GPa) = -192.14733 27.20227 -82.47253
#
# Velocity S-wave (km/s) = -8.98926 3.38228 -5.88927
# Velocity P-wave (km/s) = 9.90438 5.22499 5.94963
#
# Compressibility (1/GPa) = 0.04359904
#
# Stress axis : x y z
#
# Youngs Moduli (GPa) = 81.08349 80.54121 67.07925
#
# Poissons Ratio (x) = 0.21966 -0.11236
# Poissons Ratio (y) = 0.22114 -0.20282
# Poissons Ratio (z) = -0.13581 -0.24352
#
# Static dielectric constant tensor:
#      x y z
#    x 1.967660 0.000000 -0.019780 
#    y 0.000000 1.823710 0.000000 
#    z -0.019780 0.000000 2.193930 
# 
# From -- ./inp_files/24254.got.cif
#   From: 2010.05.17/outbox.cif.g08.bks.cpg/sg15_13_cif.got.tgz:24254.got - 2010.06.03 18:47:42.
