data_PCOD9283524
_publ_section_title
;
Structure prediction by ZEFSAII (Michael W. Deem and Ramdas Pophale) SiO2 
 PCOD9283524
Probable space group: C 2/C
;
_chemical_formula_sum "Si O2"
_cell_formula_units_Z 52
_cell_length_a 17.239645
_cell_length_b 8.273373
_cell_length_c 31.499612
_cell_angle_alpha 90.000000
_cell_angle_beta 36.978613
_cell_angle_gamma 90.000000
_cell_volume 2702.489037
_symmetry_space_group_name_H-M "C 2/C"
_symmetry_group_IT_number 15
_symmetry_cell_setting 'monoclinic'
loop_
_space_group_symop_operation_xyz
x,y,z
-x,y,1/2-z
-x,-y,-z
x,-y,1/2+z
1/2+x,1/2+y,z
1/2-x,1/2+y,1/2-z
1/2-x,1/2-y,-z
1/2+x,1/2-y,1/2+z
loop_
_atom_site_type_symbol
_atom_site_label
_atom_site_fract_x
_atom_site_fract_y
_atom_site_fract_z
Si Si1 0.024985 0.182265 0.475978
Si Si2 0.753406 0.145926 0.835476
Si Si3 0.384627 0.179946 0.956105
Si Si4 0.525844 0.883329 0.917075
Si Si5 0.000000 0.043549 0.250000
Si Si6 0.080540 0.797497 0.801121
Si Si7 0.159193 0.152019 0.795339
O O1 0.170008 0.222546 0.396910
O O2 0.934418 0.226887 0.475947
O O3 0.993244 0.295168 0.529927
O O4 0.000000 0.000000 0.500000
O O5 0.814479 0.208185 0.764658
O O6 0.648123 0.006593 0.868734
O O7 0.871032 0.065332 0.809434
O O8 0.482924 0.209270 0.874683
O O9 0.401385 0.992086 0.960768
O O10 0.250000 0.250000 0.000000
O O11 0.556992 0.756327 0.866320
O O12 0.980543 0.150128 0.216608
O O13 0.205642 0.686087 0.740426
O O14 0.122208 0.965044 0.806150
#
# Coordination Sequence:
#
# PCOD9283524 Si02
#       7
#     8   8   8   8   4   8   8
#     4  11  24  43  64  92 124 169 213 257 318 388
#     4  10  21  40  62  91 127 162 206 254 323 373
#     4  11  24  42  62  94 127 166 215 266 314 384
#     4  11  22  39  67  91 122 174 211 257 318 382
#     4  10  22  36  64  98 118 168 200 270 316 366
#     4  11  21  38  65  90 126 160 218 252 322 376
#     4  11  19  39  65  90 119 167 212 253 310 387
#
# _framework density 19.241522
#
# number of rings (size 3 to 8) (size 9 to 14) (size 15 to 20)
#    0.000    1.231    6.154    2.769    4.308    0.000 
#    5.538    1.538    0.000    1.846    0.000    0.000 
#    0.000    0.000    0.000    0.000    0.000    0.000 
#
# Total GULP energy -145197.168920 kJ/mol
# GULP energy per Si atom -5584.506497 kJ/mol
# Density = 1.919773 g / cm^3
# Si number density = 19.241522 Si / 1000 Ang^3
#
#
#
# Elastic Constant Matrix: (Units=GPa)
#
#
# Indices 1 2 3 4 5 6 
#
# 1 130.2843 33.3828 29.3095 -0.0019 1.0406 0.0001
# 2 33.3828 43.5130 -2.4465 -0.0024 -0.0614 -0.0051
# 3 29.3095 -2.4465 48.8212 -0.0046 7.4317 -0.0005
# 4 -0.0019 -0.0024 -0.0046 36.0232 -0.0010 9.6171
# 5 1.0406 -0.0614 7.4317 -0.0010 30.0637 -0.0033
# 6 0.0001 -0.0051 -0.0005 9.6171 -0.0033 34.8095
#
#
#
# Elastic Compliance Matrix: (Units=1/GPa)
#
#
# Indices 1 2 3 4 5 6 
#
# 1 0.011872 -0.009547 -0.007835 -0.000001 0.001506 -0.000001
# 2 -0.009547 0.030725 0.007493 0.000001 -0.001459 0.000004
# 3 -0.007835 0.007493 0.026516 0.000003 -0.006268 0.000000
# 4 -0.000001 0.000001 0.000003 0.029971 -0.000001 -0.008280
# 5 0.001506 -0.001459 -0.006268 -0.000001 0.034757 0.000003
# 6 -0.000001 0.000004 0.000000 -0.008280 0.000003 0.031015
#
#
# Mechanical properties :
#
#
# Convention : Reuss Voigt Hill
#
# Bulk Modulus (GPa) = 20.26911 38.12336 29.19624
# Shear Modulus (GPa) = 24.86576 31.00413 27.93495
#
# Velocity S-wave (km/s) = 3.59875 4.01847 3.81439
# Velocity P-wave (km/s) = 5.27494 6.43327 5.88268
#
# Compressibility (1/GPa) = 0.04933615
#
# Stress axis : x y z
#
# Youngs Moduli (GPa) = 84.22965 32.54674 37.71254
#
# Poissons Ratio (x) = 0.31072 0.29548
# Poissons Ratio (y) = 0.80412 -0.28259
# Poissons Ratio (z) = 0.65995 -0.24388
#
# Static dielectric constant tensor:
#      x y z
#    x 1.665320 0.000000 -0.005280 
#    y 0.000000 1.685620 0.000000 
#    z -0.005280 0.000000 1.686460 
# 
# From -- ./inp_files/313100.got.cif
#   From: 2010.05.17/outbox.cif.g08.bks.cpg/sg15_157_cif.got.tgz:313100.got - 2010.06.03 18:47:42.
