data_PCOD9283551
_publ_section_title
;
Structure prediction by ZEFSAII (Michael W. Deem and Ramdas Pophale) SiO2 
 PCOD9283551
Probable space group: C 2/C
;
_chemical_formula_sum "Si O2"
_cell_formula_units_Z 40
_cell_length_a 17.037330
_cell_length_b 12.172769
_cell_length_c 10.638261
_cell_angle_alpha 90.000000
_cell_angle_beta 131.404049
_cell_angle_gamma 90.000000
_cell_volume 1654.855479
_symmetry_space_group_name_H-M "C 2/C"
_symmetry_group_IT_number 15
_symmetry_cell_setting 'monoclinic'
loop_
_space_group_symop_operation_xyz
x,y,z
-x,y,1/2-z
-x,-y,-z
x,-y,1/2+z
1/2+x,1/2+y,z
1/2-x,1/2+y,1/2-z
1/2-x,1/2-y,-z
1/2+x,1/2-y,1/2+z
loop_
_atom_site_type_symbol
_atom_site_label
_atom_site_fract_x
_atom_site_fract_y
_atom_site_fract_z
Si Si1 0.831172 0.161571 0.145248
Si Si2 0.358054 0.937140 0.919345
Si Si3 0.946222 0.808207 0.524587
Si Si4 0.390782 0.349114 0.190873
Si Si5 0.656617 0.092362 0.378411
O O1 0.759874 0.087412 0.158415
O O2 0.892674 0.128228 0.083854
O O3 0.928607 0.195846 0.334849
O O4 0.750000 0.250000 0.000000
O O5 0.364636 0.964060 0.779006
O O6 0.414675 0.820308 0.997375
O O7 0.392085 0.028853 0.054707
O O8 0.901512 0.860559 0.351570
O O9 0.500000 0.388938 0.250000
O O10 0.382012 0.217497 0.161059
O O11 0.282930 0.398474 0.025751
#
# Coordination Sequence:
#
# PCOD9283551 Si02
#       5
#     8   8   8   8   8
#     4   9  18  36  61  87 121 156 198 255 303 366
#     4  10  21  40  62  94 124 161 208 257 308 365
#     4   9  19  37  62  92 116 165 208 244 315 370
#     4  10  21  42  62  86 125 173 206 250 314 376
#     4  10  23  41  63  91 128 163 208 258 312 364
#
# _framework density 24.171296000000002
#
# number of rings (size 3 to 8) (size 9 to 14) (size 15 to 20)
#    0.000    2.400    0.000    1.200    2.800    1.600 
#   21.600    4.000    0.000    0.000    0.000    0.000 
#    0.000    0.000    0.000    0.000    0.000    0.000 
#
# Total GULP energy -111750.823050 kJ/mol
# GULP energy per Si atom -5587.541152 kJ/mol
# Density = 2.411628 g / cm^3
# Si number density = 24.171296 Si / 1000 Ang^3
#
#
#
# Elastic Constant Matrix: (Units=GPa)
#
#
# Indices 1 2 3 4 5 6 
#
# 1 98.6311 32.7900 51.9213 0.0000 4.7777 0.0000
# 2 32.7900 56.9208 28.9808 0.0000 -11.4477 0.0000
# 3 51.9213 28.9808 119.3374 0.0000 -10.5084 0.0000
# 4 0.0000 0.0000 0.0000 11.4968 0.0000 -16.3348
# 5 4.7777 -11.4477 -10.5084 0.0000 57.7754 0.0000
# 6 0.0000 0.0000 0.0000 -16.3348 0.0000 12.7563
#
#
#
# Elastic Compliance Matrix: (Units=1/GPa)
#
#
# Indices 1 2 3 4 5 6 
#
# 1 0.015422 -0.006884 -0.005356 0.000000 -0.003613 0.000000
# 2 -0.006884 0.023695 -0.002333 0.000000 0.004840 0.000000
# 3 -0.005356 -0.002333 0.011458 0.000000 0.002065 0.000000
# 4 0.000000 0.000000 0.000000 -0.106152 0.000000 -0.135931
# 5 -0.003613 0.004840 0.002065 0.000000 0.018942 0.000000
# 6 0.000000 0.000000 0.000000 -0.135931 0.000000 -0.095671
#
#
# Mechanical properties :
#
#
# Convention : Reuss Voigt Hill
#
# Bulk Modulus (GPa) = 46.66535 55.80816 51.23675
# Shear Modulus (GPa) = -52.07447 27.15217 -12.46115
#
# Velocity S-wave (km/s) = -4.64658 3.35524 -2.27300
# Velocity P-wave (km/s) = 3.07239 6.17648 3.78875
#
# Compressibility (1/GPa) = 0.02142918
#
# Stress axis : x y z
#
# Youngs Moduli (GPa) = 64.84254 42.20304 87.27190
#
# Poissons Ratio (x) = 0.29051 0.46745
# Poissons Ratio (y) = 0.44635 0.20362
# Poissons Ratio (z) = 0.34732 0.09847
#
# Static dielectric constant tensor:
#      x y z
#    x 1.899260 0.000000 0.004980 
#    y 0.000000 1.972370 0.000000 
#    z 0.004980 0.000000 1.949020 
# 
# From -- ./inp_files/105035.got.cif
#   From: 2010.05.17/outbox.cif.g08.bks.cpg/sg15_53_cif.got.tgz:105035.got - 2010.06.03 18:47:42.
