data_PCOD9283179
_publ_section_title
;
Structure prediction by ZEFSAII (Michael W. Deem and Ramdas Pophale) SiO2 
 PCOD9283179
Probable space group: C 2/C
;
_chemical_formula_sum "Si O2"
_cell_formula_units_Z 52
_cell_length_a 19.307097
_cell_length_b 5.711815
_cell_length_c 24.327425
_cell_angle_alpha 90.000000
_cell_angle_beta 117.037573
_cell_angle_gamma 90.000000
_cell_volume 2389.587335
_symmetry_space_group_name_H-M "C 2/C"
_symmetry_group_IT_number 15
_symmetry_cell_setting 'monoclinic'
loop_
_space_group_symop_operation_xyz
x,y,z
-x,y,1/2-z
-x,-y,-z
x,-y,1/2+z
1/2+x,1/2+y,z
1/2-x,1/2+y,1/2-z
1/2-x,1/2-y,-z
1/2+x,1/2-y,1/2+z
loop_
_atom_site_type_symbol
_atom_site_label
_atom_site_fract_x
_atom_site_fract_y
_atom_site_fract_z
Si Si1 0.863094 0.481816 0.675433
Si Si2 0.166708 0.229133 0.942706
Si Si3 0.236949 0.894239 0.214225
Si Si4 0.450238 0.811409 0.514038
Si Si5 0.922444 0.052472 0.398118
Si Si6 0.450402 0.351855 0.633158
Si Si7 0.000000 0.814222 0.250000
O O1 0.825345 0.308992 0.617267
O O2 0.799806 0.614596 0.687942
O O3 0.915576 0.649446 0.657413
O O4 0.923672 0.338701 0.734037
O O5 0.108544 0.385876 0.959310
O O6 0.120924 0.980331 0.924585
O O7 0.250000 0.250000 0.000000
O O8 0.258341 0.138779 0.254558
O O9 0.151865 0.948354 0.158935
O O10 0.403002 0.676580 0.448828
O O11 0.515107 0.645777 0.564211
O O12 0.500000 0.000000 0.500000
O O13 0.975986 0.215026 0.378008
O O14 0.482550 0.537751 0.689385
#
# Coordination Sequence:
#
# PCOD9283179 Si02
#       7
#     8   8   8   8   8   8   4
#     4  11  24  41  67  97 127 182 226 284 343 416
#     4  10  22  39  62  95 132 167 222 283 342 411
#     4  12  30  46  70 102 146 187 233 289 364 419
#     4  10  21  39  68  96 132 179 231 289 354 410
#     4  10  23  42  63  98 136 181 232 290 349 426
#     4  10  22  39  65  90 130 170 227 276 342 404
#     4  10  22  38  64  92 128 168 232 280 334 408
#
# _framework density 21.761078999999999
#
# number of rings (size 3 to 8) (size 9 to 14) (size 15 to 20)
#    0.000    1.538    0.000    3.231   10.769    1.846 
#    0.000    0.000    0.000    0.000    0.000    0.000 
#    0.000    0.000    0.000    0.000    0.000    0.000 
#
# Total GULP energy -145178.489816 kJ/mol
# GULP energy per Si atom -5583.788070 kJ/mol
# Density = 2.171155 g / cm^3
# Si number density = 21.761079 Si / 1000 Ang^3
#
#
#
# Elastic Constant Matrix: (Units=GPa)
#
#
# Indices 1 2 3 4 5 6 
#
# 1 79.2956 -3.5430 20.0737 0.0000 -16.2369 0.0003
# 2 -3.5430 47.3758 20.5249 0.0000 1.1311 0.0006
# 3 20.0737 20.5249 106.2783 0.0000 18.7685 0.0001
# 4 0.0000 0.0000 0.0000 12.9213 0.0000 -10.1225
# 5 -16.2369 1.1311 18.7685 0.0000 35.5039 0.0001
# 6 0.0003 0.0006 0.0001 -10.1225 0.0001 28.7840
#
#
#
# Elastic Compliance Matrix: (Units=1/GPa)
#
#
# Indices 1 2 3 4 5 6 
#
# 1 0.016262 0.003368 -0.005533 0.000000 0.010255 0.000000
# 2 0.003368 0.023836 -0.005931 0.000000 0.003916 -0.000001
# 3 -0.005533 -0.005931 0.013250 0.000000 -0.009346 0.000000
# 4 0.000000 0.000000 0.000000 0.106821 0.000000 0.037566
# 5 0.010255 0.003916 -0.009346 0.000000 0.037671 0.000000
# 6 0.000000 -0.000001 0.000000 0.037566 0.000000 0.047952
#
#
# Mechanical properties :
#
#
# Convention : Reuss Voigt Hill
#
# Bulk Modulus (GPa) = 26.91312 34.11789 30.51551
# Shear Modulus (GPa) = 18.22361 28.50145 23.36253
#
# Velocity S-wave (km/s) = 2.89700 3.62296 3.28013
# Velocity P-wave (km/s) = 4.85639 5.76312 5.32908
#
# Compressibility (1/GPa) = 0.03715660
#
# Stress axis : x y z
#
# Youngs Moduli (GPa) = 61.49292 41.95373 75.47035
#
# Poissons Ratio (x) = -0.14132 0.41758
# Poissons Ratio (y) = -0.20713 0.44762
# Poissons Ratio (z) = 0.34024 0.24883
#
# Static dielectric constant tensor:
#      x y z
#    x 1.804460 0.000000 -0.045480 
#    y 0.000000 1.863030 0.000000 
#    z -0.045480 0.000000 1.811620 
# 
# From -- ./inp_files/297667.got.cif
#   From: 2010.05.17/outbox.cif.g08.bks.cpg/sg15_149_cif.got.tgz:297667.got - 2010.06.03 18:47:42.
