data_PCOD9283897
_publ_section_title
;
Structure prediction by ZEFSAII (Michael W. Deem and Ramdas Pophale) SiO2 
 PCOD9283897
Probable space group: C 2/C
;
_chemical_formula_sum "Si O2"
_cell_formula_units_Z 52
_cell_length_a 16.112364
_cell_length_b 20.479628
_cell_length_c 9.263604
_cell_angle_alpha 90.000000
_cell_angle_beta 56.206297
_cell_angle_gamma 90.000000
_cell_volume 2540.306772
_symmetry_space_group_name_H-M "C 2/C"
_symmetry_group_IT_number 15
_symmetry_cell_setting 'monoclinic'
loop_
_space_group_symop_operation_xyz
x,y,z
-x,y,1/2-z
-x,-y,-z
x,-y,1/2+z
1/2+x,1/2+y,z
1/2-x,1/2+y,1/2-z
1/2-x,1/2-y,-z
1/2+x,1/2-y,1/2+z
loop_
_atom_site_type_symbol
_atom_site_label
_atom_site_fract_x
_atom_site_fract_y
_atom_site_fract_z
Si Si1 0.083432 0.230232 0.559442
Si Si2 0.807523 0.540550 0.860000
Si Si3 0.332765 0.472462 0.745288
Si Si4 0.355894 0.606576 0.804378
Si Si5 0.142589 0.630923 0.931139
Si Si6 0.994999 0.863305 0.583465
Si Si7 0.000000 0.452835 0.750000
O O1 0.116721 0.164087 0.611550
O O2 0.149876 0.292456 0.458111
O O3 0.043624 0.204072 0.446282
O O4 0.000000 0.256848 0.750000
O O5 0.730721 0.502179 0.826680
O O6 0.839706 0.607024 0.748337
O O7 0.907372 0.497756 0.788838
O O8 0.748521 0.555105 0.063914
O O9 0.388349 0.531252 0.778547
O O10 0.415222 0.419937 0.621627
O O11 0.237088 0.601489 0.924257
O O12 0.401972 0.626143 0.603726
O O13 0.044125 0.594830 0.084091
O O14 0.000000 0.862762 0.750000
#
# Coordination Sequence:
#
# PCOD9283897 Si02
#       7
#     8   8   8   8   8   8   4
#     4  10  22  41  62  89 122 171 213 251 303 372
#     4  11  23  40  63  97 123 161 207 262 307 380
#     4  11  22  40  64  94 127 160 207 255 323 354
#     4  10  21  40  65  92 122 163 215 254 301 373
#     4  11  22  40  66  90 125 161 211 261 310 359
#     4  11  23  39  61  92 132 161 203 257 314 373
#     4  12  22  42  66  92 126 156 212 262 310 368
#
# _framework density 20.469968999999999
#
# number of rings (size 3 to 8) (size 9 to 14) (size 15 to 20)
#    0.000    1.231    3.846    4.154    0.000    1.846 
#    1.385    3.077    0.000    0.000    0.000    0.000 
#    0.000    0.000    0.000    0.000    0.000    0.000 
#
# Total GULP energy -144883.849559 kJ/mol
# GULP energy per Si atom -5572.455752 kJ/mol
# Density = 2.042338 g / cm^3
# Si number density = 20.469969 Si / 1000 Ang^3
#
#
#
# Elastic Constant Matrix: (Units=GPa)
#
#
# Indices 1 2 3 4 5 6 
#
# 1 69.3592 18.5205 15.6198 0.0000 -2.2030 0.0000
# 2 18.5205 85.0829 30.5677 0.0000 5.0215 0.0000
# 3 15.6198 30.5677 101.5485 0.0000 5.7007 0.0000
# 4 0.0000 0.0000 0.0000 19.6397 0.0000 -8.9471
# 5 -2.2030 5.0215 5.7007 0.0000 27.6707 0.0000
# 6 0.0000 0.0000 0.0000 -8.9471 0.0000 17.9240
#
#
#
# Elastic Compliance Matrix: (Units=1/GPa)
#
#
# Indices 1 2 3 4 5 6 
#
# 1 0.015639 -0.002940 -0.001639 0.000000 0.002116 0.000000
# 2 -0.002940 0.013801 -0.003590 0.000000 -0.001999 0.000000
# 3 -0.001639 -0.003590 0.011281 0.000000 -0.001803 0.000000
# 4 0.000000 0.000000 0.000000 0.065904 0.000000 0.032897
# 5 0.002116 -0.001999 -0.001803 0.000000 0.037042 0.000000
# 6 0.000000 0.000000 0.000000 0.032897 0.000000 0.072212
#
#
# Mechanical properties :
#
#
# Convention : Reuss Voigt Hill
#
# Bulk Modulus (GPa) = 41.01237 42.82296 41.91767
# Shear Modulus (GPa) = 20.80334 25.79905 23.30120
#
# Velocity S-wave (km/s) = 3.19138 3.55397 3.37755
# Velocity P-wave (km/s) = 5.80162 6.14868 5.97767
#
# Compressibility (1/GPa) = 0.02438289
#
# Stress axis : x y z
#
# Youngs Moduli (GPa) = 63.94185 72.45873 88.64076
#
# Poissons Ratio (x) = 0.21305 0.14531
# Poissons Ratio (y) = 0.18800 0.31821
# Poissons Ratio (z) = 0.10482 0.26011
#
# Static dielectric constant tensor:
#      x y z
#    x 1.789050 0.000000 0.006200 
#    y 0.000000 1.729370 0.000000 
#    z 0.006200 0.000000 1.723880 
# 
# From -- ./inp_files/50579.got.cif
#   From: 2010.05.17/outbox.cif.g08.bks.cpg/sg15_26_cif.got.tgz:50579.got - 2010.06.03 18:47:42.
