data_PCOD9283483
_publ_section_title
;
Structure prediction by ZEFSAII (Michael W. Deem and Ramdas Pophale) SiO2 
 PCOD9283483
Probable space group: C 2/C
;
_chemical_formula_sum "Si O2"
_cell_formula_units_Z 64
_cell_length_a 27.181455
_cell_length_b 12.408246
_cell_length_c 21.160416
_cell_angle_alpha 90.000000
_cell_angle_beta 151.995918
_cell_angle_gamma 90.000000
_cell_volume 3351.002674
_symmetry_space_group_name_H-M "C 2/C"
_symmetry_group_IT_number 15
_symmetry_cell_setting 'monoclinic'
loop_
_space_group_symop_operation_xyz
x,y,z
-x,y,1/2-z
-x,-y,-z
x,-y,1/2+z
1/2+x,1/2+y,z
1/2-x,1/2+y,1/2-z
1/2-x,1/2-y,-z
1/2+x,1/2-y,1/2+z
loop_
_atom_site_type_symbol
_atom_site_label
_atom_site_fract_x
_atom_site_fract_y
_atom_site_fract_z
Si Si1 0.056326 0.975101 0.245901
Si Si2 0.761299 0.630810 0.485433
Si Si3 0.819915 0.637436 0.937423
Si Si4 0.481717 0.416637 0.922990
Si Si5 0.048368 0.267116 0.682873
Si Si6 0.137744 0.744139 0.152902
Si Si7 0.269485 0.102153 0.352416
Si Si8 0.380686 0.067556 0.139237
O O1 0.071652 0.854505 0.233782
O O2 0.000000 0.965159 0.250000
O O3 0.156144 0.055802 0.367450
O O4 0.994710 0.033343 0.118864
O O5 0.750000 0.750000 0.500000
O O6 0.799864 0.643890 0.456673
O O7 0.843427 0.552327 0.613452
O O8 0.728843 0.696945 0.796382
O O9 0.816778 0.518137 0.904101
O O10 0.810493 0.612427 0.001694
O O11 0.926365 0.705293 0.054741
O O12 0.357374 0.393595 0.787909
O O13 0.500000 0.500000 0.000000
O O14 0.560814 0.320539 0.026068
O O15 0.067731 0.294935 0.631853
O O16 0.118550 0.348453 0.803368
O O17 0.189567 0.664433 0.161850
O O18 0.500000 0.062348 0.250000
#
# Coordination Sequence:
#
# PCOD9283483 Si02
#       8
#     8   8   8   8   8   8   8   8
#     4  11  24  40  68  98 126 164 218 270 313 385
#     4  10  23  44  62  89 126 163 214 259 308 380
#     4  10  21  40  62  86 129 168 206 259 319 374
#     4  11  21  44  64  89 130 172 211 258 328 379
#     4  11  22  40  63 101 127 159 214 266 324 382
#     4  12  23  37  67  91 127 172 204 266 316 380
#     4  10  23  43  60  89 125 171 212 256 318 385
#     4   9  20  40  63  86 124 167 199 258 324 367
#
# _framework density 19.098761
#
# number of rings (size 3 to 8) (size 9 to 14) (size 15 to 20)
#    0.000    1.500    2.500    3.375    1.750    4.000 
#   13.500    0.000    0.000    0.000    0.000    0.000 
#    0.000    0.000    0.000    0.000    0.000    0.000 
#
# Total GULP energy -178270.360569 kJ/mol
# GULP energy per Si atom -5570.948768 kJ/mol
# Density = 1.905529 g / cm^3
# Si number density = 19.098761 Si / 1000 Ang^3
#
#
#
# Elastic Constant Matrix: (Units=GPa)
#
#
# Indices 1 2 3 4 5 6 
#
# 1 -66.4169 -137.6712 10.0294 0.0000 15.7338 0.0000
# 2 -137.6712 -75.5781 42.5155 0.0000 23.4794 0.0000
# 3 10.0294 42.5155 81.1279 0.0000 -6.6757 0.0000
# 4 0.0000 0.0000 0.0000 29.4504 0.0000 -0.3771
# 5 15.7338 23.4794 -6.6757 0.0000 21.2862 0.0000
# 6 0.0000 0.0000 0.0000 -0.3771 0.0000 25.4011
#
#
#
# Elastic Compliance Matrix: (Units=1/GPa)
#
#
# Indices 1 2 3 4 5 6 
#
# 1 0.008158 -0.010092 0.004825 0.000000 0.006615 0.000000
# 2 -0.010092 0.004963 -0.001221 0.000000 0.001602 0.000000
# 3 0.004825 -0.001221 0.012510 0.000000 0.001704 0.000000
# 4 0.000000 0.000000 0.000000 0.033962 0.000000 0.000504
# 5 0.006615 0.001602 0.001704 0.000000 0.040857 0.000000
# 6 0.000000 0.000000 0.000000 0.000504 0.000000 0.039376
#
#
# Mechanical properties :
#
#
# Convention : Reuss Voigt Hill
#
# Bulk Modulus (GPa) = 79.02933 -25.67996 26.67468
# Shear Modulus (GPa) = 31.84280 16.84481 24.34381
#
# Velocity S-wave (km/s) = 4.08765 2.97304 3.57407
# Velocity P-wave (km/s) = 7.98421 1.29990 5.57036
#
# Compressibility (1/GPa) = 0.01265353
#
# Stress axis : x y z
#
# Youngs Moduli (GPa) = 122.57395 201.49540 79.93542
#
# Poissons Ratio (x) = 2.03351 -0.38565
# Poissons Ratio (y) = 1.23703 0.09763
# Poissons Ratio (z) = -0.59136 0.24610
#
# Static dielectric constant tensor:
#      x y z
#    x 1.670440 0.000000 -0.023530 
#    y 0.000000 1.964400 0.000000 
#    z -0.023530 0.000000 1.659300 
# 
# From -- ./inp_files/257520.got.cif
#   From: 2010.05.17/outbox.cif.g08.bks.cpg/sg15_129_cif.got.tgz:257520.got - 2010.06.03 18:47:42.
