data_PCOD9283786
_publ_section_title
;
Structure prediction by ZEFSAII (Michael W. Deem and Ramdas Pophale) SiO2 
 PCOD9283786
Probable space group: C 2/C
;
_chemical_formula_sum "Si O2"
_cell_formula_units_Z 52
_cell_length_a 26.341618
_cell_length_b 9.068950
_cell_length_c 17.157628
_cell_angle_alpha 90.000000
_cell_angle_beta 135.881323
_cell_angle_gamma 90.000000
_cell_volume 2853.366548
_symmetry_space_group_name_H-M "C 2/C"
_symmetry_group_IT_number 15
_symmetry_cell_setting 'monoclinic'
loop_
_space_group_symop_operation_xyz
x,y,z
-x,y,1/2-z
-x,-y,-z
x,-y,1/2+z
1/2+x,1/2+y,z
1/2-x,1/2+y,1/2-z
1/2-x,1/2-y,-z
1/2+x,1/2-y,1/2+z
loop_
_atom_site_type_symbol
_atom_site_label
_atom_site_fract_x
_atom_site_fract_y
_atom_site_fract_z
Si Si1 0.000000 0.619613 0.750000
Si Si2 0.278000 0.605479 0.072231
Si Si3 0.969383 0.843877 0.305517
Si Si4 0.326792 0.678937 0.566582
Si Si5 0.365591 0.050716 0.017572
Si Si6 0.066491 0.831377 0.689228
Si Si7 0.044985 0.635098 0.514758
O O1 0.066385 0.523072 0.860142
O O2 0.034168 0.722810 0.720167
O O3 0.310667 0.493540 0.042942
O O4 0.347558 0.642347 0.201681
O O5 0.250000 0.750000 0.000000
O O6 0.209425 0.530345 0.040873
O O7 0.884179 0.805414 0.199820
O O8 0.000000 0.847486 0.250000
O O9 0.004150 0.722823 0.400145
O O10 0.972500 0.009288 0.343951
O O11 0.250000 0.750000 0.500000
O O12 0.357676 0.777380 0.531924
O O13 0.385233 0.057635 0.948582
O O14 0.057566 0.752206 0.596875
O O15 0.000000 0.500000 0.500000
#
# Coordination Sequence:
#
# PCOD9283786 Si02
#       7
#     4   8   8   8   8   8   8
#     4  12  20  36  74  90 120 164 224 268 316 390
#     4  10  21  40  64  93 126 165 219 263 313 388
#     4  11  21  40  66  89 125 165 212 263 313 382
#     4   9  20  36  63  91 120 163 213 257 310 377
#     4  11  21  39  62  95 124 167 214 259 322 379
#     4  11  24  41  63  97 125 167 212 271 325 380
#     4  12  25  39  62  96 133 162 210 270 325 377
#
# _framework density 18.224087000000001
#
# number of rings (size 3 to 8) (size 9 to 14) (size 15 to 20)
#    0.000    1.231    5.385    1.385    0.000    0.000 
#    0.000    6.154    0.000    0.000    0.000    0.000 
#    0.000    0.000    0.000    0.000    0.000    0.000 
#
# Total GULP energy -144887.074579 kJ/mol
# GULP energy per Si atom -5572.579791 kJ/mol
# Density = 1.818261 g / cm^3
# Si number density = 18.224087 Si / 1000 Ang^3
#
#
#
# Elastic Constant Matrix: (Units=GPa)
#
#
# Indices 1 2 3 4 5 6 
#
# 1 128.4919 62.0376 50.6098 0.0000 -1.2464 0.0000
# 2 62.0376 132.0715 53.7078 0.0000 -5.0312 0.0000
# 3 50.6098 53.7078 79.9738 0.0000 8.7877 0.0000
# 4 0.0000 0.0000 0.0000 36.3430 0.0000 -0.0818
# 5 -1.2464 -5.0312 8.7877 0.0000 30.2346 0.0000
# 6 0.0000 0.0000 0.0000 -0.0818 0.0000 38.1087
#
#
#
# Elastic Compliance Matrix: (Units=1/GPa)
#
#
# Indices 1 2 3 4 5 6 
#
# 1 0.011389 -0.003160 -0.005246 0.000000 0.001468 0.000000
# 2 -0.003160 0.011756 -0.006297 0.000000 0.003656 0.000000
# 3 -0.005246 -0.006297 0.020858 0.000000 -0.007326 0.000000
# 4 0.000000 0.000000 0.000000 0.027516 0.000000 0.000059
# 5 0.001468 0.003656 -0.007326 0.000000 0.035873 0.000000
# 6 0.000000 0.000000 0.000000 0.000059 0.000000 0.026241
#
#
# Mechanical properties :
#
#
# Convention : Reuss Voigt Hill
#
# Bulk Modulus (GPa) = 68.51129 74.80528 71.65828
# Shear Modulus (GPa) = 29.77875 32.54938 31.16407
#
# Velocity S-wave (km/s) = 4.04670 4.23077 4.13976
# Velocity P-wave (km/s) = 7.71426 8.06241 7.89026
#
# Compressibility (1/GPa) = 0.01459613
#
# Stress axis : x y z
#
# Youngs Moduli (GPa) = 87.80320 85.06239 47.94366
#
# Poissons Ratio (x) = 0.26883 0.25153
# Poissons Ratio (y) = 0.27749 0.30189
# Poissons Ratio (z) = 0.46064 0.53562
#
# Static dielectric constant tensor:
#      x y z
#    x 1.667550 0.000000 0.021990 
#    y 0.000000 1.656440 0.000000 
#    z 0.021990 0.000000 1.635000 
# 
# From -- ./inp_files/176696.got.cif
#   From: 2010.05.17/outbox.cif.g08.bks.cpg/sg15_89_cif.got.tgz:176696.got - 2010.06.03 18:47:42.
