data_PCOD9283386
_publ_section_title
;
Structure prediction by ZEFSAII (Michael W. Deem and Ramdas Pophale) SiO2 
 PCOD9283386
Probable space group: C 2/C
;
_chemical_formula_sum "Si O2"
_cell_formula_units_Z 44
_cell_length_a 13.098689
_cell_length_b 11.996910
_cell_length_c 15.906109
_cell_angle_alpha 90.000000
_cell_angle_beta 60.861493
_cell_angle_gamma 90.000000
_cell_volume 2183.216650
_symmetry_space_group_name_H-M "C 2/C"
_symmetry_group_IT_number 15
_symmetry_cell_setting 'monoclinic'
loop_
_space_group_symop_operation_xyz
x,y,z
-x,y,1/2-z
-x,-y,-z
x,-y,1/2+z
1/2+x,1/2+y,z
1/2-x,1/2+y,1/2-z
1/2-x,1/2-y,-z
1/2+x,1/2-y,1/2+z
loop_
_atom_site_type_symbol
_atom_site_label
_atom_site_fract_x
_atom_site_fract_y
_atom_site_fract_z
Si Si1 0.223295 0.688940 0.698745
Si Si2 0.780307 0.152564 0.868750
Si Si3 0.848965 0.625479 0.418897
Si Si4 0.000000 0.463745 0.250000
Si Si5 0.131880 0.005779 0.415833
Si Si6 0.370548 0.419272 0.776743
O O1 0.210694 0.814227 0.671884
O O2 0.105800 0.615407 0.735741
O O3 0.320562 0.619791 0.610593
O O4 0.250402 0.689949 0.786823
O O5 0.858679 0.249951 0.877908
O O6 0.840304 0.032472 0.837186
O O7 0.668630 0.137309 0.974447
O O8 0.949093 0.544734 0.343344
O O9 0.724726 0.575737 0.434029
O O10 0.136316 0.054713 0.319663
O O11 0.000000 0.000000 0.500000
O O12 0.500000 0.384841 0.750000
#
# Coordination Sequence:
#
# PCOD9283386 Si02
#       6
#     8   8   8   4   8   8
#     4  10  21  41  60  88 123 154 197 251 298 353
#     4  10  22  39  60  87 122 157 200 244 289 363
#     4  10  21  41  61  88 119 155 205 241 298 355
#     4  10  22  40  64  84 122 158 192 252 302 348
#     4  10  21  40  61  86 119 160 201 247 298 356
#     4  11  21  38  61  89 122 158 200 244 303 354
#
# _framework density 20.153748
#
# number of rings (size 3 to 8) (size 9 to 14) (size 15 to 20)
#    0.000    1.818    2.727    1.091    1.273    0.727 
#    6.545    2.727    0.000    0.000    0.000    0.000 
#    0.000    0.000    0.000    0.000    0.000    0.000 
#
# Total GULP energy -122875.306008 kJ/mol
# GULP energy per Si atom -5585.241182 kJ/mol
# Density = 2.010788 g / cm^3
# Si number density = 20.153748 Si / 1000 Ang^3
#
#
#
# Elastic Constant Matrix: (Units=GPa)
#
#
# Indices 1 2 3 4 5 6 
#
# 1 30.9789 14.0775 7.2216 0.0000 -11.4253 0.0000
# 2 14.0775 147.9991 34.9384 0.0000 -12.4182 0.0000
# 3 7.2216 34.9384 63.1124 0.0000 -16.0585 0.0000
# 4 0.0000 0.0000 0.0000 17.6181 0.0000 -0.4876
# 5 -11.4253 -12.4182 -16.0585 0.0000 29.1411 0.0000
# 6 0.0000 0.0000 0.0000 -0.4876 0.0000 2.4527
#
#
#
# Elastic Compliance Matrix: (Units=1/GPa)
#
#
# Indices 1 2 3 4 5 6 
#
# 1 0.038626 -0.002631 0.000703 0.000000 0.014411 0.000000
# 2 -0.002631 0.007982 -0.004088 0.000000 0.000117 0.000000
# 3 0.000703 -0.004088 0.020533 0.000000 0.009849 0.000000
# 4 0.000000 0.000000 0.000000 0.057074 0.000000 0.011346
# 5 0.014411 0.000117 0.009849 0.000000 0.045443 0.000000
# 6 0.000000 0.000000 0.000000 0.011346 0.000000 0.409969
#
#
# Mechanical properties :
#
#
# Convention : Reuss Voigt Hill
#
# Bulk Modulus (GPa) = 18.14535 39.39617 28.77076
# Shear Modulus (GPa) = 8.19633 22.23257 15.21445
#
# Velocity S-wave (km/s) = 2.01884 3.32497 2.75056
# Velocity P-wave (km/s) = 3.80228 5.85925 4.93904
#
# Compressibility (1/GPa) = 0.05511053
#
# Stress axis : x y z
#
# Youngs Moduli (GPa) = 25.88907 125.28329 48.70162
#
# Poissons Ratio (x) = 0.32962 -0.03425
# Poissons Ratio (y) = 0.06811 0.19908
# Poissons Ratio (z) = -0.01821 0.51214
#
# Static dielectric constant tensor:
#      x y z
#    x 1.709710 0.000000 -0.000960 
#    y 0.000000 1.719920 0.000000 
#    z -0.000960 0.000000 1.702100 
# 
# From -- ./inp_files/203842.got.cif
#   From: 2010.05.17/outbox.cif.g08.bks.cpg/sg15_102_cif.got.tgz:203842.got - 2010.06.03 18:47:42.
