data_PCOD9283069
_publ_section_title
;
Structure prediction by ZEFSAII (Michael W. Deem and Ramdas Pophale) SiO2 
 PCOD9283069
Probable space group: C 2/C
;
_chemical_formula_sum "Si O2"
_cell_formula_units_Z 52
_cell_length_a 17.615485
_cell_length_b 12.270830
_cell_length_c 19.287273
_cell_angle_alpha 90.000000
_cell_angle_beta 35.170480
_cell_angle_gamma 90.000000
_cell_volume 2401.432158
_symmetry_space_group_name_H-M "C 2/C"
_symmetry_group_IT_number 15
_symmetry_cell_setting 'monoclinic'
loop_
_space_group_symop_operation_xyz
x,y,z
-x,y,1/2-z
-x,-y,-z
x,-y,1/2+z
1/2+x,1/2+y,z
1/2-x,1/2+y,1/2-z
1/2-x,1/2-y,-z
1/2+x,1/2-y,1/2+z
loop_
_atom_site_type_symbol
_atom_site_label
_atom_site_fract_x
_atom_site_fract_y
_atom_site_fract_z
Si Si1 0.500000 0.533355 0.750000
Si Si2 0.070877 0.238026 0.052396
Si Si3 0.338109 0.657494 0.308019
Si Si4 0.953932 0.650223 0.500838
Si Si5 0.298956 0.992961 0.693051
Si Si6 0.135204 0.013553 0.942724
Si Si7 0.644441 0.317620 0.033210
O O1 0.611357 0.449534 0.691056
O O2 0.448328 0.611460 0.848420
O O3 0.960708 0.236876 0.195811
O O4 0.214943 0.295005 0.943397
O O5 0.003654 0.287677 0.032943
O O6 0.105708 0.111192 0.016608
O O7 0.284795 0.607663 0.274795
O O8 0.820267 0.587563 0.620906
O O9 0.935736 0.731781 0.452152
O O10 0.058223 0.558502 0.400929
O O11 0.239655 0.043523 0.805992
O O12 0.188513 0.907379 0.942968
O O13 0.000000 0.000000 0.000000
O O14 0.750000 0.250000 0.000000
#
# Coordination Sequence:
#
# PCOD9283069 Si02
#       7
#     4   8   8   8   8   8   8
#     4  12  26  46  66  94 146 196 226 280 358 452
#     4  11  22  42  69 100 126 181 241 307 349 408
#     4  11  23  42  68  98 136 181 238 291 360 416
#     4  10  22  40  67 101 135 175 227 297 360 412
#     4  10  21  39  67 100 133 170 229 299 347 419
#     4  12  21  40  67  98 131 173 241 286 348 420
#     4  12  26  42  67 102 144 189 230 281 365 438
#
# _framework density 21.653745000000001
#
# number of rings (size 3 to 8) (size 9 to 14) (size 15 to 20)
#    0.000    0.923    4.615    1.846    2.154    1.846 
#    0.000    0.000    0.000    0.000    0.000    0.000 
#    0.000    0.000    0.000    0.000    0.000    0.000 
#
# Total GULP energy -145167.937047 kJ/mol
# GULP energy per Si atom -5583.382194 kJ/mol
# Density = 2.160446 g / cm^3
# Si number density = 21.653745 Si / 1000 Ang^3
#
#
#
# Elastic Constant Matrix: (Units=GPa)
#
#
# Indices 1 2 3 4 5 6 
#
# 1 67.9288 43.0728 43.0944 0.0000 0.8011 0.0000
# 2 43.0728 91.4848 38.1444 0.0000 -15.6621 0.0000
# 3 43.0944 38.1444 135.3117 0.0001 -4.5050 0.0000
# 4 0.0000 0.0000 0.0001 41.3222 0.0000 4.7575
# 5 0.8011 -15.6621 -4.5050 0.0000 20.6352 0.0000
# 6 0.0000 0.0000 0.0000 4.7575 0.0000 47.4679
#
#
#
# Elastic Compliance Matrix: (Units=1/GPa)
#
#
# Indices 1 2 3 4 5 6 
#
# 1 0.025636 -0.011796 -0.005208 0.000000 -0.011086 0.000000
# 2 -0.011796 0.019588 -0.001264 0.000000 0.015049 0.000000
# 3 -0.005208 -0.001264 0.009449 0.000000 0.001306 0.000000
# 4 0.000000 0.000000 0.000000 0.024483 0.000000 -0.002454
# 5 -0.011086 0.015049 0.001306 0.000000 0.060599 0.000000
# 6 0.000000 0.000000 0.000000 -0.002454 0.000000 0.021313
#
#
# Mechanical properties :
#
#
# Convention : Reuss Voigt Hill
#
# Bulk Modulus (GPa) = 55.13885 60.37205 57.75545
# Shear Modulus (GPa) = 24.55201 33.24598 28.89900
#
# Velocity S-wave (km/s) = 3.37092 3.92260 3.65718
# Velocity P-wave (km/s) = 6.37730 6.96110 6.67558
#
# Compressibility (1/GPa) = 0.01813603
#
# Stress axis : x y z
#
# Youngs Moduli (GPa) = 39.00759 51.05152 105.83234
#
# Poissons Ratio (x) = 0.60221 0.55122
# Poissons Ratio (y) = 0.46014 0.13377
# Poissons Ratio (z) = 0.20317 0.06453
#
# Static dielectric constant tensor:
#      x y z
#    x 1.844040 0.000000 -0.014120 
#    y 0.000000 1.794930 0.000000 
#    z -0.014120 0.000000 1.824260 
# 
# From -- ./inp_files/252718.got.cif
#   From: 2010.05.17/outbox.cif.g08.bks.cpg/sg15_127_cif.got.tgz:252718.got - 2010.06.03 18:47:42.
