data_PCOD9283558
_publ_section_title
;
Structure prediction by ZEFSAII (Michael W. Deem and Ramdas Pophale) SiO2 
 PCOD9283558
Probable space group: C 2/C
;
_chemical_formula_sum "Si O2"
_cell_formula_units_Z 36
_cell_length_a 11.026082
_cell_length_b 9.770135
_cell_length_c 16.650796
_cell_angle_alpha 90.000000
_cell_angle_beta 103.622726
_cell_angle_gamma 90.000000
_cell_volume 1743.267011
_symmetry_space_group_name_H-M "C 2/C"
_symmetry_group_IT_number 15
_symmetry_cell_setting 'monoclinic'
loop_
_space_group_symop_operation_xyz
x,y,z
-x,y,1/2-z
-x,-y,-z
x,-y,1/2+z
1/2+x,1/2+y,z
1/2-x,1/2+y,1/2-z
1/2-x,1/2-y,-z
1/2+x,1/2-y,1/2+z
loop_
_atom_site_type_symbol
_atom_site_label
_atom_site_fract_x
_atom_site_fract_y
_atom_site_fract_z
Si Si1 0.255395 0.172016 0.263156
Si Si2 0.500000 0.992062 0.750000
Si Si3 0.389140 0.577284 0.793291
Si Si4 0.088012 0.871909 0.028794
Si Si5 0.638846 0.189529 0.894709
O O1 0.278021 0.328787 0.240467
O O2 0.195064 0.192740 0.342940
O O3 0.389261 0.099790 0.270555
O O4 0.161947 0.074702 0.199755
O O5 0.557864 0.089112 0.827795
O O6 0.500000 0.568321 0.750000
O O7 0.432004 0.655284 0.880053
O O8 0.239145 0.889526 0.051810
O O9 0.067788 0.757892 0.957968
O O10 0.000000 0.000000 0.000000
#
# Coordination Sequence:
#
# PCOD9283558 Si02
#       5
#     8   4   8   8   8
#     4  11  22  39  62  95 121 165 215 261 308 377
#     4  12  22  40  66  92 132 170 218 264 316 376
#     4  11  23  39  65  93 125 163 213 261 313 381
#     4  10  21  40  62  94 129 165 211 263 318 381
#     4  10  24  40  62  93 129 169 213 262 318 379
#
# _framework density 20.650880999999998
#
# number of rings (size 3 to 8) (size 9 to 14) (size 15 to 20)
#    0.000    1.333    5.556    1.333    4.667    0.000 
#    0.000   12.222    0.000   16.000    0.000    0.000 
#    0.000    0.000    0.000    0.000    0.000    0.000 
#
# Total GULP energy -100257.587564 kJ/mol
# GULP energy per Si atom -5569.865976 kJ/mol
# Density = 2.060388 g / cm^3
# Si number density = 20.650881 Si / 1000 Ang^3
#
#
#
# Elastic Constant Matrix: (Units=GPa)
#
#
# Indices 1 2 3 4 5 6 
#
# 1 75.0412 23.9472 24.1202 0.0000 -20.7204 0.0000
# 2 23.9472 73.5100 30.2640 0.0000 2.8963 0.0000
# 3 24.1202 30.2640 59.8392 0.0000 2.9889 0.0000
# 4 0.0000 0.0000 0.0000 14.0750 0.0000 9.2825
# 5 -20.7204 2.8963 2.9889 0.0000 26.4823 0.0000
# 6 0.0000 0.0000 0.0000 9.2825 0.0000 40.7581
#
#
#
# Elastic Compliance Matrix: (Units=1/GPa)
#
#
# Indices 1 2 3 4 5 6 
#
# 1 0.022624 -0.005021 -0.007534 0.000000 0.019101 0.000000
# 2 -0.005021 0.018317 -0.006983 0.000000 -0.005144 0.000000
# 3 -0.007534 -0.006983 0.023670 0.000000 -0.007803 0.000000
# 4 0.000000 0.000000 0.000000 0.083606 0.000000 -0.019041
# 5 0.019101 -0.005144 -0.007803 0.000000 0.054150 0.000000
# 6 0.000000 0.000000 0.000000 -0.019041 0.000000 0.028872
#
#
# Mechanical properties :
#
#
# Convention : Reuss Voigt Hill
#
# Bulk Modulus (GPa) = 39.16275 40.56147 39.86211
# Shear Modulus (GPa) = 17.93237 24.93367 21.43302
#
# Velocity S-wave (km/s) = 2.94999 3.47852 3.22510
# Velocity P-wave (km/s) = 5.53251 5.98478 5.76308
#
# Compressibility (1/GPa) = 0.02553447
#
# Stress axis : x y z
#
# Youngs Moduli (GPa) = 44.20042 54.59459 42.24801
#
# Poissons Ratio (x) = 0.27412 0.31830
# Poissons Ratio (y) = 0.22193 0.29502
# Poissons Ratio (z) = 0.33301 0.38123
#
# Static dielectric constant tensor:
#      x y z
#    x 1.783890 0.000000 0.035490 
#    y 0.000000 1.773370 0.000000 
#    z 0.035490 0.000000 1.811310 
# 
# From -- ./inp_files/141381.got.cif
#   From: 2010.05.17/outbox.cif.g08.bks.cpg/sg15_71_cif.got.tgz:141381.got - 2010.06.03 18:47:42.
