data_PCOD9283367
_publ_section_title
;
Structure prediction by ZEFSAII (Michael W. Deem and Ramdas Pophale) SiO2 
 PCOD9283367
Probable space group: C 2/C
;
_chemical_formula_sum "Si O2"
_cell_formula_units_Z 64
_cell_length_a 31.284239
_cell_length_b 6.830498
_cell_length_c 27.430289
_cell_angle_alpha 90.000000
_cell_angle_beta 145.661546
_cell_angle_gamma 90.000000
_cell_volume 3306.353796
_symmetry_space_group_name_H-M "C 2/C"
_symmetry_group_IT_number 15
_symmetry_cell_setting 'monoclinic'
loop_
_space_group_symop_operation_xyz
x,y,z
-x,y,1/2-z
-x,-y,-z
x,-y,1/2+z
1/2+x,1/2+y,z
1/2-x,1/2+y,1/2-z
1/2-x,1/2-y,-z
1/2+x,1/2-y,1/2+z
loop_
_atom_site_type_symbol
_atom_site_label
_atom_site_fract_x
_atom_site_fract_y
_atom_site_fract_z
Si Si1 0.193799 0.451967 0.143543
Si Si2 0.557101 0.172176 0.698526
Si Si3 0.711869 0.565318 0.097319
Si Si4 0.671915 0.174031 0.948660
Si Si5 0.579156 0.518235 0.305857
Si Si6 0.683176 0.777873 0.239220
Si Si7 0.385888 0.787186 0.005379
Si Si8 0.344513 0.127564 0.149265
O O1 0.272491 0.572082 0.222614
O O2 0.171012 0.368533 0.174560
O O3 0.201297 0.270097 0.114070
O O4 0.135159 0.603892 0.064258
O O5 0.565581 0.335499 0.748228
O O6 0.607358 0.233496 0.699490
O O7 0.469944 0.160104 0.601271
O O8 0.594434 0.976486 0.757206
O O9 0.762110 0.424481 0.179246
O O10 0.762215 0.595127 0.096156
O O11 0.634505 0.443362 0.017046
O O12 0.612743 0.345919 0.880145
O O13 0.671035 0.140113 0.005302
O O14 0.650717 0.984350 0.897601
O O15 0.750000 0.250000 0.000000
O O16 0.500000 0.430695 0.250000
O O17 0.636021 0.351424 0.341974
#
# Coordination Sequence:
#
# PCOD9283367 Si02
#       8
#     8   8   8   8   8   8   8   8
#     4  11  22  39  68  90 113 154 201 255 302 360
#     4  10  23  43  58  88 130 160 193 254 299 358
#     4  10  21  40  60  92 117 152 204 249 294 358
#     4  11  23  41  57  86 130 162 200 255 291 348
#     4  11  23  38  61  89 122 168 206 238 297 358
#     4  10  21  41  67  87 115 153 202 250 307 358
#     4  11  24  39  58  90 129 157 196 249 305 353
#     4  10  23  37  65  88 116 167 209 236 295 355
#
# _framework density 19.356670999999999
#
# number of rings (size 3 to 8) (size 9 to 14) (size 15 to 20)
#    0.000    1.500    3.750    0.750    5.250    3.000 
#    0.000    0.625    0.000    0.000    0.000    0.000 
#    0.000    0.000    0.000    0.000    0.000    0.000 
#
# Total GULP energy -178743.275293 kJ/mol
# GULP energy per Si atom -5585.727353 kJ/mol
# Density = 1.931261 g / cm^3
# Si number density = 19.356671 Si / 1000 Ang^3
#
#
#
# Elastic Constant Matrix: (Units=GPa)
#
#
# Indices 1 2 3 4 5 6 
#
# 1 69.8565 9.4139 2.9762 -0.0005 -14.5803 -0.0005
# 2 9.4139 59.7023 -6.5408 -0.0019 -9.4322 0.0007
# 3 2.9762 -6.5408 31.9671 0.0011 -6.5648 -0.0006
# 4 -0.0005 -0.0019 0.0011 14.2937 0.0002 -1.0213
# 5 -14.5803 -9.4322 -6.5648 0.0002 32.5961 -0.0001
# 6 -0.0005 0.0007 -0.0006 -1.0213 -0.0001 27.0105
#
#
#
# Elastic Compliance Matrix: (Units=1/GPa)
#
#
# Indices 1 2 3 4 5 6 
#
# 1 0.015914 -0.001516 -0.000438 0.000000 0.006591 0.000000
# 2 -0.001516 0.018443 0.005082 0.000002 0.005682 0.000000
# 3 -0.000438 0.005082 0.034032 -0.000002 0.008128 0.000001
# 4 0.000000 0.000002 -0.000002 0.070150 0.000000 0.002653
# 5 0.006591 0.005682 0.008128 0.000000 0.036908 0.000000
# 6 0.000000 0.000000 0.000001 0.002653 0.000000 0.037123
#
#
# Mechanical properties :
#
#
# Convention : Reuss Voigt Hill
#
# Bulk Modulus (GPa) = 13.39689 19.24717 16.32203
# Shear Modulus (GPa) = 21.62664 25.15852 23.39258
#
# Velocity S-wave (km/s) = 3.34619 3.60909 3.48012
# Velocity P-wave (km/s) = 4.67604 5.22804 4.95973
#
# Compressibility (1/GPa) = 0.07464420
#
# Stress axis : x y z
#
# Youngs Moduli (GPa) = 62.83874 54.22027 29.38413
#
# Poissons Ratio (x) = 0.08220 0.01288
# Poissons Ratio (y) = 0.09526 -0.14932
# Poissons Ratio (z) = 0.02754 -0.27553
#
# Static dielectric constant tensor:
#      x y z
#    x 1.654810 0.000000 0.007680 
#    y 0.000000 1.668420 0.000000 
#    z 0.007680 0.000000 1.695200 
# 
# From -- ./inp_files/304101.got.cif
#   From: 2010.05.17/outbox.cif.g08.bks.cpg/sg15_153_cif.got.tgz:304101.got - 2010.06.03 18:47:42.
