data_PCOD9283445
_publ_section_title
;
Structure prediction by ZEFSAII (Michael W. Deem and Ramdas Pophale) SiO2 
 PCOD9283445
Probable space group: C 2/C
;
_chemical_formula_sum "Si O2"
_cell_formula_units_Z 48
_cell_length_a 14.480961
_cell_length_b 7.811213
_cell_length_c 27.821986
_cell_angle_alpha 90.000000
_cell_angle_beta 45.182505
_cell_angle_gamma 90.000000
_cell_volume 2232.379168
_symmetry_space_group_name_H-M "C 2/C"
_symmetry_group_IT_number 15
_symmetry_cell_setting 'monoclinic'
loop_
_space_group_symop_operation_xyz
x,y,z
-x,y,1/2-z
-x,-y,-z
x,-y,1/2+z
1/2+x,1/2+y,z
1/2-x,1/2+y,1/2-z
1/2-x,1/2-y,-z
1/2+x,1/2-y,1/2+z
loop_
_atom_site_type_symbol
_atom_site_label
_atom_site_fract_x
_atom_site_fract_y
_atom_site_fract_z
Si Si1 0.599513 0.528921 0.251970
Si Si2 0.786559 0.042029 0.593337
Si Si3 0.600113 0.964103 0.866454
Si Si4 0.505454 0.917957 0.302222
Si Si5 0.920185 0.909620 0.134657
Si Si6 0.994463 0.208316 0.043679
O O1 0.500000 0.451093 0.250000
O O2 0.745978 0.540351 0.178401
O O3 0.544929 0.718816 0.283356
O O4 0.600105 0.427696 0.301737
O O5 0.643530 0.055383 0.625927
O O6 0.789265 0.070286 0.650256
O O7 0.878598 0.184373 0.535132
O O8 0.869724 0.865701 0.559525
O O9 0.592142 0.005657 0.812604
O O10 0.533559 0.110175 0.922704
O O11 0.533774 0.779443 0.895468
O O12 0.500000 0.991039 0.250000
O O13 0.004618 0.065896 0.082691
#
# Coordination Sequence:
#
# PCOD9283445 Si02
#       6
#     8   8   8   8   8   8
#     4  11  23  40  61  92 130 166 212 266 315 370
#     4   9  20  44  68  89 132 164 208 261 318 378
#     4  12  23  38  66  93 127 167 210 263 320 377
#     4  11  22  39  67  95 122 171 209 260 326 373
#     4  10  21  40  61  93 124 164 205 263 310 374
#     4   9  22  43  65  93 128 167 207 261 315 377
#
# _framework density 21.501722999999998
#
# number of rings (size 3 to 8) (size 9 to 14) (size 15 to 20)
#    1.000    0.667    1.667    4.000    0.000    3.333 
#    0.000    0.833    0.000    0.000    0.000    0.000 
#    0.000    0.000    0.000    0.000    0.000    0.000 
#
# Total GULP energy -133786.915853 kJ/mol
# GULP energy per Si atom -5574.454827 kJ/mol
# Density = 2.145278 g / cm^3
# Si number density = 21.501723 Si / 1000 Ang^3
#
#
#
# Elastic Constant Matrix: (Units=GPa)
#
#
# Indices 1 2 3 4 5 6 
#
# 1 98.1583 0.1687 24.4306 0.0000 -7.2526 0.0001
# 2 0.1687 75.4855 4.5394 -0.0002 -5.3111 0.0002
# 3 24.4306 4.5394 71.0705 -0.0001 -9.5998 0.0000
# 4 0.0000 -0.0002 -0.0001 16.1930 -0.0001 7.7770
# 5 -7.2526 -5.3111 -9.5998 -0.0001 31.3335 0.0000
# 6 0.0001 0.0002 0.0000 7.7770 0.0000 14.4188
#
#
#
# Elastic Compliance Matrix: (Units=1/GPa)
#
#
# Indices 1 2 3 4 5 6 
#
# 1 0.011213 0.000303 -0.003668 0.000000 0.001523 0.000000
# 2 0.000303 0.013438 -0.000673 0.000000 0.002142 0.000000
# 3 -0.003668 -0.000673 0.015902 0.000000 0.003909 0.000000
# 4 0.000000 0.000000 0.000000 0.083344 0.000000 -0.044953
# 5 0.001523 0.002142 0.003909 0.000000 0.033828 0.000000
# 6 0.000000 0.000000 0.000000 -0.044953 0.000000 0.093600
#
#
# Mechanical properties :
#
#
# Convention : Reuss Voigt Hill
#
# Bulk Modulus (GPa) = 30.79172 33.66572 32.22872
# Shear Modulus (GPa) = 18.50295 26.76076 22.63186
#
# Velocity S-wave (km/s) = 2.93667 3.53170 3.24784
# Velocity P-wave (km/s) = 5.08432 5.68522 5.39315
#
# Compressibility (1/GPa) = 0.03247627
#
# Stress axis : x y z
#
# Youngs Moduli (GPa) = 89.18583 74.41547 62.88358
#
# Poissons Ratio (x) = -0.02252 0.23065
# Poissons Ratio (y) = -0.02699 0.04233
# Poissons Ratio (z) = 0.32713 0.05009
#
# Static dielectric constant tensor:
#      x y z
#    x 1.794660 0.000000 0.034810 
#    y 0.000000 1.805940 0.000000 
#    z 0.034810 0.000000 1.810690 
# 
# From -- ./inp_files/312810.got.cif
#   From: 2010.05.17/outbox.cif.g08.bks.cpg/sg15_157_cif.got.tgz:312810.got - 2010.06.03 18:47:42.
