data_PCOD9283631
_publ_section_title
;
Structure prediction by ZEFSAII (Michael W. Deem and Ramdas Pophale) SiO2 
 PCOD9283631
Probable space group: C 2/C
;
_chemical_formula_sum "Si O2"
_cell_formula_units_Z 64
_cell_length_a 14.928143
_cell_length_b 12.993270
_cell_length_c 19.361554
_cell_angle_alpha 90.000000
_cell_angle_beta 133.054451
_cell_angle_gamma 90.000000
_cell_volume 2744.142628
_symmetry_space_group_name_H-M "C 2/C"
_symmetry_group_IT_number 15
_symmetry_cell_setting 'monoclinic'
loop_
_space_group_symop_operation_xyz
x,y,z
-x,y,1/2-z
-x,-y,-z
x,-y,1/2+z
1/2+x,1/2+y,z
1/2-x,1/2+y,1/2-z
1/2-x,1/2-y,-z
1/2+x,1/2-y,1/2+z
loop_
_atom_site_type_symbol
_atom_site_label
_atom_site_fract_x
_atom_site_fract_y
_atom_site_fract_z
Si Si1 0.277171 0.380654 0.266491
Si Si2 0.603364 0.648406 0.361310
Si Si3 0.582757 0.969767 0.917203
Si Si4 0.996090 0.314313 0.098289
Si Si5 0.325213 0.207986 0.393492
Si Si6 0.641762 0.203956 0.346704
Si Si7 0.797263 0.072991 0.618766
Si Si8 0.299207 0.093120 0.251781
O O1 0.346702 0.302303 0.352845
O O2 0.323980 0.407861 0.214176
O O3 0.266208 0.488133 0.300788
O O4 0.138644 0.336838 0.184738
O O5 0.500000 0.666669 0.250000
O O6 0.547755 0.702923 0.399235
O O7 0.724669 0.711285 0.401248
O O8 0.633276 0.526133 0.376501
O O9 0.651948 0.897968 0.898601
O O10 0.443554 0.930560 0.839289
O O11 0.573837 0.091793 0.899120
O O12 0.655785 0.953106 0.026897
O O13 0.950904 0.323085 0.995870
O O14 0.261864 0.127055 0.308291
O O15 0.500000 0.212846 0.250000
O O16 0.675739 0.313298 0.397148
O O17 0.714147 0.177893 0.314264
#
# Coordination Sequence:
#
# PCOD9283631 Si02
#       8
#     8   8   8   8   8   8   8   8
#     4  11  23  39  67  93 125 168 214 269 316 382
#     4  12  25  40  63  93 132 170 207 260 333 388
#     4  10  22  38  64  91 121 156 215 268 313 370
#     4  11  24  41  65  97 125 162 220 270 315 378
#     4  12  22  41  65  88 129 166 208 266 327 376
#     4  10  22  38  59  88 121 164 204 256 314 384
#     4  12  22  40  62  89 127 166 208 256 326 385
#     4  10  21  40  63  91 121 162 217 261 320 374
#
# _framework density 23.322403000000001
#
# number of rings (size 3 to 8) (size 9 to 14) (size 15 to 20)
#    0.000    1.000    5.000    1.875    1.750    2.500 
#    0.000    0.000    0.000    1.500    0.000    0.000 
#    0.000    0.000    0.000    0.000    0.000    0.000 
#
# Total GULP energy -178643.042904 kJ/mol
# GULP energy per Si atom -5582.595091 kJ/mol
# Density = 2.326932 g / cm^3
# Si number density = 23.322403 Si / 1000 Ang^3
#
#
#
# Elastic Constant Matrix: (Units=GPa)
#
#
# Indices 1 2 3 4 5 6 
#
# 1 41.2420 26.1273 -8.3701 0.0000 -13.4235 0.0000
# 2 26.1273 160.7327 26.2550 0.0000 -15.5041 0.0000
# 3 -8.3701 26.2550 50.3858 0.0000 0.4963 0.0000
# 4 0.0000 0.0000 0.0000 28.4772 0.0000 -2.9702
# 5 -13.4235 -15.5041 0.4963 0.0000 22.6173 0.0000
# 6 0.0000 0.0000 0.0000 -2.9702 0.0000 33.9628
#
#
#
# Elastic Compliance Matrix: (Units=1/GPa)
#
#
# Indices 1 2 3 4 5 6 
#
# 1 0.034867 -0.005430 0.008456 0.000000 0.016786 0.000000
# 2 -0.005430 0.008195 -0.005197 0.000000 0.002509 0.000000
# 3 0.008456 -0.005197 0.023950 0.000000 0.000931 0.000000
# 4 0.000000 0.000000 0.000000 0.035439 0.000000 0.003099
# 5 0.016786 0.002509 0.000931 0.000000 0.055876 0.000000
# 6 0.000000 0.000000 0.000000 0.003099 0.000000 0.029715
#
#
# Mechanical properties :
#
#
# Convention : Reuss Voigt Hill
#
# Bulk Modulus (GPa) = 15.95642 37.82054 26.88848
# Shear Modulus (GPa) = 23.44402 30.90133 27.17268
#
# Velocity S-wave (km/s) = 3.17395 3.64395 3.41704
# Velocity P-wave (km/s) = 4.50427 5.82719 5.20791
#
# Compressibility (1/GPa) = 0.06267070
#
# Stress axis : x y z
#
# Youngs Moduli (GPa) = 28.68074 122.02490 41.75288
#
# Poissons Ratio (x) = 0.66256 -0.35306
# Poissons Ratio (y) = 0.15573 0.21699
# Poissons Ratio (z) = -0.24252 0.63416
#
# Static dielectric constant tensor:
#      x y z
#    x 1.931820 0.000000 -0.021690 
#    y 0.000000 1.940200 0.000000 
#    z -0.021690 0.000000 1.851620 
# 
# From -- ./inp_files/248649.got.cif
#   From: 2010.05.17/outbox.cif.g08.bks.cpg/sg15_125_cif.got.tgz:248649.got - 2010.06.03 18:47:42.
