data_PCOD9283562
_publ_section_title
;
Structure prediction by ZEFSAII (Michael W. Deem and Ramdas Pophale) SiO2 
 PCOD9283562
Probable space group: C 2/C
;
_chemical_formula_sum "Si O2"
_cell_formula_units_Z 48
_cell_length_a 7.142075
_cell_length_b 12.956234
_cell_length_c 23.488287
_cell_angle_alpha 90.000000
_cell_angle_beta 83.579824
_cell_angle_gamma 90.000000
_cell_volume 2159.843710
_symmetry_space_group_name_H-M "C 2/C"
_symmetry_group_IT_number 15
_symmetry_cell_setting 'monoclinic'
loop_
_space_group_symop_operation_xyz
x,y,z
-x,y,1/2-z
-x,-y,-z
x,-y,1/2+z
1/2+x,1/2+y,z
1/2-x,1/2+y,1/2-z
1/2-x,1/2-y,-z
1/2+x,1/2-y,1/2+z
loop_
_atom_site_type_symbol
_atom_site_label
_atom_site_fract_x
_atom_site_fract_y
_atom_site_fract_z
Si Si1 0.085039 0.363460 0.885312
Si Si2 0.344182 0.536068 0.179020
Si Si3 0.140683 0.246755 0.691083
Si Si4 0.234987 0.472304 0.298897
Si Si5 0.231797 0.950959 0.948961
Si Si6 0.149375 0.851243 0.527660
O O1 0.097276 0.450022 0.835731
O O2 0.283171 0.352427 0.909277
O O3 0.996225 0.264073 0.858282
O O4 0.937122 0.402007 0.937339
O O5 0.275629 0.653959 0.189734
O O6 0.225499 0.474748 0.230912
O O7 0.558236 0.514303 0.189823
O O8 0.315914 0.510235 0.113717
O O9 0.265552 0.145139 0.681319
O O10 0.000000 0.238880 0.750000
O O11 0.075743 0.863683 0.968225
O O12 0.217794 0.045483 0.992753
O O13 0.250000 0.750000 0.500000
#
# Coordination Sequence:
#
# PCOD9283562 Si02
#       6
#     8   8   8   8   8   8
#     4  11  24  43  66  95 136 170 222 274 329 401
#     4  10  21  40  62  95 133 169 218 268 323 402
#     4  11  22  37  63  97 130 177 219 262 336 399
#     4  11  22  40  67  93 137 176 209 279 334 387
#     4  10  24  43  64  93 132 167 223 279 324 398
#     4  11  25  42  67  95 125 175 224 275 334 389
#
# _framework density 22.223828999999999
#
# number of rings (size 3 to 8) (size 9 to 14) (size 15 to 20)
#    0.000    1.333    5.000    0.500    2.333    3.333 
#    0.000    5.000    0.000    0.000    0.000    0.000 
#    0.000    0.000    0.000    0.000    0.000    0.000 
#
# Total GULP energy -134081.955979 kJ/mol
# GULP energy per Si atom -5586.748166 kJ/mol
# Density = 2.217325 g / cm^3
# Si number density = 22.223829 Si / 1000 Ang^3
#
#
#
# Elastic Constant Matrix: (Units=GPa)
#
#
# Indices 1 2 3 4 5 6 
#
# 1 54.4090 5.0018 -16.0298 0.0000 -1.6649 0.0000
# 2 5.0018 95.7881 11.7677 0.0000 8.9252 0.0000
# 3 -16.0298 11.7677 61.2438 0.0000 10.1474 0.0000
# 4 0.0000 0.0000 0.0000 32.7712 0.0000 15.8986
# 5 -1.6649 8.9252 10.1474 0.0000 38.4138 0.0000
# 6 0.0000 0.0000 0.0000 15.8986 0.0000 35.8612
#
#
#
# Elastic Compliance Matrix: (Units=1/GPa)
#
#
# Indices 1 2 3 4 5 6 
#
# 1 0.020198 -0.001729 0.005655 0.000000 -0.000217 0.000000
# 2 -0.001729 0.010994 -0.002227 0.000000 -0.002041 0.000000
# 3 0.005655 -0.002227 0.018939 0.000000 -0.004240 0.000000
# 4 0.000000 0.000000 0.000000 0.038876 0.000000 -0.017235
# 5 -0.000217 -0.002041 -0.004240 0.000000 0.027617 0.000000
# 6 0.000000 0.000000 0.000000 -0.017235 0.000000 0.035526
#
#
# Mechanical properties :
#
#
# Convention : Reuss Voigt Hill
#
# Bulk Modulus (GPa) = 18.68207 23.65780 21.16994
# Shear Modulus (GPa) = 30.01293 35.45600 32.73446
#
# Velocity S-wave (km/s) = 3.67888 3.99858 3.84206
# Velocity P-wave (km/s) = 5.14491 5.65567 5.40633
#
# Compressibility (1/GPa) = 0.05352725
#
# Stress axis : x y z
#
# Youngs Moduli (GPa) = 49.51091 90.96084 52.80208
#
# Poissons Ratio (x) = 0.15729 -0.29857
# Poissons Ratio (y) = 0.08561 0.11758
# Poissons Ratio (z) = -0.27996 0.20255
#
# Static dielectric constant tensor:
#      x y z
#    x 1.848210 0.000000 0.004160 
#    y 0.000000 1.781990 0.000000 
#    z 0.004160 0.000000 1.857180 
# 
# From -- ./inp_files/263209.got.cif
#   From: 2010.05.17/outbox.cif.g08.bks.cpg/sg15_132_cif.got.tgz:263209.got - 2010.06.03 18:47:42.
