data_PCOD9283532
_publ_section_title
;
Structure prediction by ZEFSAII (Michael W. Deem and Ramdas Pophale) SiO2 
 PCOD9283532
Probable space group: C 2/C
;
_chemical_formula_sum "Si O2"
_cell_formula_units_Z 56
_cell_length_a 9.514264
_cell_length_b 13.546637
_cell_length_c 26.307230
_cell_angle_alpha 90.000000
_cell_angle_beta 47.553666
_cell_angle_gamma 90.000000
_cell_volume 2501.987258
_symmetry_space_group_name_H-M "C 2/C"
_symmetry_group_IT_number 15
_symmetry_cell_setting 'monoclinic'
loop_
_space_group_symop_operation_xyz
x,y,z
-x,y,1/2-z
-x,-y,-z
x,-y,1/2+z
1/2+x,1/2+y,z
1/2-x,1/2+y,1/2-z
1/2-x,1/2-y,-z
1/2+x,1/2-y,1/2+z
loop_
_atom_site_type_symbol
_atom_site_label
_atom_site_fract_x
_atom_site_fract_y
_atom_site_fract_z
Si Si1 0.314309 0.477667 0.761053
Si Si2 0.572684 0.775743 0.920905
Si Si3 0.489702 0.273945 0.694664
Si Si4 0.148368 0.084622 0.953813
Si Si5 0.449395 0.111004 0.617268
Si Si6 0.091992 0.091999 0.859377
Si Si7 0.164627 0.419064 0.463377
O O1 0.500000 0.497496 0.750000
O O2 0.345843 0.366299 0.733834
O O3 0.318678 0.551286 0.712707
O O4 0.138069 0.510149 0.838436
O O5 0.792348 0.812423 0.868989
O O6 0.557862 0.692693 0.969082
O O7 0.556761 0.709594 0.873946
O O8 0.406447 0.850953 0.973107
O O9 0.500000 0.231025 0.750000
O O10 0.439403 0.197516 0.662250
O O11 0.327300 0.092339 0.946307
O O12 0.217278 0.067522 0.878475
O O13 0.000000 0.000000 0.000000
O O14 0.346029 0.133091 0.589535
O O15 0.880752 0.046394 0.917037
O O16 0.000000 0.500000 0.500000
#
# Coordination Sequence:
#
# PCOD9283532 Si02
#       7
#     8   8   8   8   8   8   8
#     4  11  22  41  67  96 128 171 223 268 323 387
#     4   9  22  38  64  90 125 176 208 262 329 387
#     4  10  22  42  68  93 129 175 217 266 331 390
#     4   9  21  40  61  94 130 170 206 263 328 389
#     4  11  24  41  67  99 127 172 222 272 316 392
#     4  10  21  40  62  91 133 168 210 269 318 385
#     4  12  23  38  65  98 132 170 219 266 328 388
#
# _framework density 22.382209
#
# number of rings (size 3 to 8) (size 9 to 14) (size 15 to 20)
#    0.857    0.857    1.429    3.000    2.000    3.429 
#    0.000    0.000    3.143    0.000    0.000    0.000 
#    0.000    0.000    0.000    0.000    0.000    0.000 
#
# Total GULP energy -156153.401672 kJ/mol
# GULP energy per Si atom -5576.907203 kJ/mol
# Density = 2.233127 g / cm^3
# Si number density = 22.382209 Si / 1000 Ang^3
#
#
#
# Elastic Constant Matrix: (Units=GPa)
#
#
# Indices 1 2 3 4 5 6 
#
# 1 68.8205 -3.8850 -10.7678 0.0000 17.5943 0.0000
# 2 -3.8850 59.0122 19.5344 0.0000 9.6344 0.0000
# 3 -10.7678 19.5344 60.9376 -0.0001 12.5719 0.0000
# 4 0.0000 0.0000 -0.0001 36.9613 0.0000 2.0962
# 5 17.5943 9.6344 12.5719 0.0000 39.1395 0.0000
# 6 0.0000 0.0000 0.0000 2.0962 0.0000 26.5781
#
#
#
# Elastic Compliance Matrix: (Units=1/GPa)
#
#
# Indices 1 2 3 4 5 6 
#
# 1 0.017876 0.001196 0.004813 0.000000 -0.009876 0.000000
# 2 0.001196 0.019351 -0.005246 0.000000 -0.003616 0.000000
# 3 0.004813 -0.005246 0.020479 0.000000 -0.007450 0.000000
# 4 0.000000 0.000000 0.000000 0.027177 0.000000 -0.002143
# 5 -0.009876 -0.003616 -0.007450 0.000000 0.033272 0.000000
# 6 0.000000 0.000000 0.000000 -0.002143 0.000000 0.037794
#
#
# Mechanical properties :
#
#
# Convention : Reuss Voigt Hill
#
# Bulk Modulus (GPa) = 16.88262 22.05926 19.47094
# Shear Modulus (GPa) = 28.70786 32.79502 30.75144
#
# Velocity S-wave (km/s) = 3.58525 3.83198 3.71067
# Velocity P-wave (km/s) = 4.96971 5.42733 5.20355
#
# Compressibility (1/GPa) = 0.05923253
#
# Stress axis : x y z
#
# Youngs Moduli (GPa) = 55.94098 51.67620 48.82955
#
# Poissons Ratio (x) = -0.06181 -0.23501
# Poissons Ratio (y) = -0.06691 0.25616
# Poissons Ratio (z) = -0.26923 0.27109
#
# Static dielectric constant tensor:
#      x y z
#    x 1.825830 0.000000 0.023960 
#    y 0.000000 1.902380 0.000000 
#    z 0.023960 0.000000 1.857780 
# 
# From -- ./inp_files/307970.got.cif
#   From: 2010.05.17/outbox.cif.g08.bks.cpg/sg15_154_cif.got.tgz:307970.got - 2010.06.03 18:47:42.
