data_PCOD9283164
_publ_section_title
;
Structure prediction by ZEFSAII (Michael W. Deem and Ramdas Pophale) SiO2 
 PCOD9283164
Probable space group: C 2/C
;
_chemical_formula_sum "Si O2"
_cell_formula_units_Z 48
_cell_length_a 27.244968
_cell_length_b 6.247279
_cell_length_c 24.045774
_cell_angle_alpha 90.000000
_cell_angle_beta 148.395370
_cell_angle_gamma 90.000000
_cell_volume 2144.828694
_symmetry_space_group_name_H-M "C 2/C"
_symmetry_group_IT_number 15
_symmetry_cell_setting 'monoclinic'
loop_
_space_group_symop_operation_xyz
x,y,z
-x,y,1/2-z
-x,-y,-z
x,-y,1/2+z
1/2+x,1/2+y,z
1/2-x,1/2+y,1/2-z
1/2-x,1/2-y,-z
1/2+x,1/2-y,1/2+z
loop_
_atom_site_type_symbol
_atom_site_label
_atom_site_fract_x
_atom_site_fract_y
_atom_site_fract_z
Si Si1 0.106967 0.214890 0.600687
Si Si2 0.057437 0.899770 0.755685
Si Si3 0.675766 0.060160 0.926495
Si Si4 0.280283 0.998866 0.213186
Si Si5 0.737914 0.689274 0.904859
Si Si6 0.055818 0.165980 0.134971
O O1 0.166170 0.410172 0.681573
O O2 0.016452 0.275464 0.477405
O O3 0.179436 0.090359 0.631362
O O4 0.080200 0.054520 0.625867
O O5 0.089065 0.674954 0.813604
O O6 0.007411 0.870276 0.648256
O O7 0.000000 0.010969 0.750000
O O8 0.148030 0.037454 0.826165
O O9 0.719088 0.887173 0.927271
O O10 0.750000 0.250000 0.000000
O O11 0.674504 0.945789 0.985800
O O12 0.262696 0.198860 0.155238
O O13 0.351935 0.810665 0.263289
#
# Coordination Sequence:
#
# PCOD9283164 Si02
#       6
#     8   8   8   8   8   8
#     4  11  25  42  71 103 130 182 228 276 345 404
#     4  11  23  42  64  94 138 179 222 278 342 399
#     4   9  20  39  62  92 123 173 217 269 331 395
#     4  12  22  45  71  97 136 179 222 284 347 402
#     4  10  21  39  68  94 132 170 225 279 331 409
#     4  11  24  45  66  99 141 171 228 286 330 411
#
# _framework density 22.379408000000002
#
# number of rings (size 3 to 8) (size 9 to 14) (size 15 to 20)
#    0.000    1.333    5.000    0.500    0.000    4.667 
#    3.000    0.000    0.000    0.000    0.000    0.000 
#    0.000    0.000    0.000    0.000    0.000    0.000 
#
# Total GULP energy -133888.154822 kJ/mol
# GULP energy per Si atom -5578.673118 kJ/mol
# Density = 2.232847 g / cm^3
# Si number density = 22.379408 Si / 1000 Ang^3
#
#
#
# Elastic Constant Matrix: (Units=GPa)
#
#
# Indices 1 2 3 4 5 6 
#
# 1 102.2047 17.1121 35.9482 0.0000 -13.5249 0.0000
# 2 17.1121 72.6197 23.1457 -0.0010 -8.6032 0.0000
# 3 35.9482 23.1457 78.5384 -0.0009 -24.7796 -0.0002
# 4 0.0000 -0.0010 -0.0009 29.1879 -0.0001 -11.6180
# 5 -13.5249 -8.6032 -24.7796 -0.0001 28.2342 0.0000
# 6 0.0000 0.0000 -0.0002 -11.6180 0.0000 35.9957
#
#
#
# Elastic Compliance Matrix: (Units=1/GPa)
#
#
# Indices 1 2 3 4 5 6 
#
# 1 0.011779 -0.001143 -0.004680 0.000000 0.001187 0.000000
# 2 -0.001143 0.015328 -0.003724 0.000000 0.000854 0.000000
# 3 -0.004680 -0.003724 0.020615 0.000001 0.014716 0.000000
# 4 0.000000 0.000000 0.000001 0.039311 0.000001 0.012688
# 5 0.001187 0.000854 0.014716 0.000001 0.049162 0.000000
# 6 0.000000 0.000000 0.000000 0.012688 0.000000 0.031876
#
#
# Mechanical properties :
#
#
# Convention : Reuss Voigt Hill
#
# Bulk Modulus (GPa) = 34.93235 45.08606 40.00920
# Shear Modulus (GPa) = 25.41813 30.49402 27.95608
#
# Velocity S-wave (km/s) = 3.37379 3.69534 3.53822
# Velocity P-wave (km/s) = 5.55155 6.19656 5.88290
#
# Compressibility (1/GPa) = 0.02862676
#
# Stress axis : x y z
#
# Youngs Moduli (GPa) = 84.89803 65.23986 48.50720
#
# Poissons Ratio (x) = 0.07459 0.22702
# Poissons Ratio (y) = 0.09707 0.18066
# Poissons Ratio (z) = 0.39733 0.24298
#
# Static dielectric constant tensor:
#      x y z
#    x 1.869970 0.000000 -0.045670 
#    y 0.000000 1.855700 0.000000 
#    z -0.045670 0.000000 1.968330 
# 
# From -- ./inp_files/304134.got.cif
#   From: 2010.05.17/outbox.cif.g08.bks.cpg/sg15_153_cif.got.tgz:304134.got - 2010.06.03 18:47:42.
