data_PCOD9283416
_publ_section_title
;
Structure prediction by ZEFSAII (Michael W. Deem and Ramdas Pophale) SiO2 
 PCOD9283416
Probable space group: C 2/C
;
_chemical_formula_sum "Si O2"
_cell_formula_units_Z 56
_cell_length_a 21.013077
_cell_length_b 14.052106
_cell_length_c 23.096331
_cell_angle_alpha 90.000000
_cell_angle_beta 154.338662
_cell_angle_gamma 90.000000
_cell_volume 2953.337416
_symmetry_space_group_name_H-M "C 2/C"
_symmetry_group_IT_number 15
_symmetry_cell_setting 'monoclinic'
loop_
_space_group_symop_operation_xyz
x,y,z
-x,y,1/2-z
-x,-y,-z
x,-y,1/2+z
1/2+x,1/2+y,z
1/2-x,1/2+y,1/2-z
1/2-x,1/2-y,-z
1/2+x,1/2-y,1/2+z
loop_
_atom_site_type_symbol
_atom_site_label
_atom_site_fract_x
_atom_site_fract_y
_atom_site_fract_z
Si Si1 0.997995 0.839962 0.463523
Si Si2 0.000000 0.642420 0.750000
Si Si3 0.000000 0.955128 0.750000
Si Si4 0.781366 0.993220 0.666668
Si Si5 0.326348 0.329235 0.516296
Si Si6 0.181903 0.334648 0.162866
Si Si7 0.029100 0.634506 0.903621
Si Si8 0.554134 0.531942 0.468592
O O1 0.848641 0.804043 0.312365
O O2 0.091957 0.753275 0.563481
O O3 0.078726 0.918720 0.490242
O O4 0.948334 0.911021 0.473918
O O5 0.844634 0.698982 0.619121
O O6 0.997694 0.594726 0.683818
O O7 0.101806 0.885094 0.871314
O O8 0.105886 0.014169 0.793919
O O9 0.697331 0.079763 0.629061
O O10 0.893553 0.952892 0.807269
O O11 0.663894 0.919046 0.545312
O O12 0.423788 0.244240 0.570030
O O13 0.325871 0.414765 0.470027
O O14 0.103132 0.366345 0.158350
#
# Coordination Sequence:
#
# PCOD9283416 Si02
#       8
#     8   4   4   8   8   8   8   8
#     4  10  21  40  61  90 120 163 207 254 310 368
#     4  12  25  36  54  95 132 156 209 252 312 375
#     4  10  21  42  62  85 128 172 211 244 314 387
#     4  10  23  40  63  93 122 170 210 259 307 376
#     4  11  22  36  58  86 125 166 203 249 309 374
#     4  11  24  41  63  92 128 165 208 260 311 371
#     4  12  24  36  60  93 130 167 204 256 311 384
#     4   9  20  38  63  84 121 165 204 249 310 372
#
# _framework density 18.961599
#
# number of rings (size 3 to 8) (size 9 to 14) (size 15 to 20)
#    0.000    1.429    2.857    2.143    6.000    0.000 
#    5.143    0.000    0.000    8.571    0.000    0.000 
#    0.000    0.000    0.000    0.000    0.000    0.000 
#
# Total GULP energy -155959.479698 kJ/mol
# GULP energy per Si atom -5569.981418 kJ/mol
# Density = 1.891844 g / cm^3
# Si number density = 18.961599 Si / 1000 Ang^3
#
#
#
# Elastic Constant Matrix: (Units=GPa)
#
#
# Indices 1 2 3 4 5 6 
#
# 1 107.9534 49.8783 14.5824 0.0004 9.3656 -0.0002
# 2 49.8783 66.9580 32.7311 -0.0016 3.5386 -0.0020
# 3 14.5824 32.7311 66.9743 0.0005 -8.8587 -0.0025
# 4 0.0004 -0.0016 0.0005 16.9034 0.0011 -1.9422
# 5 9.3656 3.5386 -8.8587 0.0011 34.5055 -0.0004
# 6 -0.0002 -0.0020 -0.0025 -1.9422 -0.0004 13.5990
#
#
#
# Elastic Compliance Matrix: (Units=1/GPa)
#
#
# Indices 1 2 3 4 5 6 
#
# 1 0.014657 -0.011965 0.002373 -0.000002 -0.002142 -0.000001
# 2 -0.011965 0.030132 -0.012525 0.000004 -0.003058 0.000002
# 3 0.002373 -0.012525 0.021345 -0.000002 0.006121 0.000002
# 4 -0.000002 0.000004 -0.000002 0.060147 -0.000002 0.008590
# 5 -0.002142 -0.003058 0.006121 -0.000002 0.031447 0.000001
# 6 -0.000001 0.000002 0.000002 0.008590 0.000001 0.074762
#
#
# Mechanical properties :
#
#
# Convention : Reuss Voigt Hill
#
# Bulk Modulus (GPa) = 45.66326 48.47436 47.06881
# Shear Modulus (GPa) = 17.60419 22.64785 20.12602
#
# Velocity S-wave (km/s) = 3.05029 3.45977 3.26146
# Velocity P-wave (km/s) = 6.04483 6.44825 6.24980
#
# Compressibility (1/GPa) = 0.02189944
#
# Stress axis : x y z
#
# Youngs Moduli (GPa) = 68.22820 33.18757 46.84890
#
# Poissons Ratio (x) = 0.39708 -0.11116
# Poissons Ratio (y) = 0.81633 0.58679
# Poissons Ratio (z) = -0.16189 0.41568
#
# Static dielectric constant tensor:
#      x y z
#    x 1.797410 0.000000 -0.027500 
#    y 0.000000 1.657560 0.000000 
#    z -0.027500 0.000000 1.683550 
# 
# From -- ./inp_files/302325.got.cif
#   From: 2010.05.17/outbox.cif.g08.bks.cpg/sg15_152_cif.got.tgz:302325.got - 2010.06.03 18:47:42.
