data_PCOD9283891
_publ_section_title
;
Structure prediction by ZEFSAII (Michael W. Deem and Ramdas Pophale) SiO2 
 PCOD9283891
Probable space group: C 2/C
;
_chemical_formula_sum "Si O2"
_cell_formula_units_Z 40
_cell_length_a 14.839234
_cell_length_b 10.038116
_cell_length_c 20.406625
_cell_angle_alpha 90.000000
_cell_angle_beta 36.494982
_cell_angle_gamma 90.000000
_cell_volume 1807.886107
_symmetry_space_group_name_H-M "C 2/C"
_symmetry_group_IT_number 15
_symmetry_cell_setting 'monoclinic'
loop_
_space_group_symop_operation_xyz
x,y,z
-x,y,1/2-z
-x,-y,-z
x,-y,1/2+z
1/2+x,1/2+y,z
1/2-x,1/2+y,1/2-z
1/2-x,1/2-y,-z
1/2+x,1/2-y,1/2+z
loop_
_atom_site_type_symbol
_atom_site_label
_atom_site_fract_x
_atom_site_fract_y
_atom_site_fract_z
Si Si1 0.107786 0.148941 0.996074
Si Si2 0.607306 0.684601 0.633778
Si Si3 0.387923 0.406882 0.157815
Si Si4 0.348233 0.032902 0.420729
Si Si5 0.553256 0.929903 0.401223
O O1 0.137021 0.142244 0.901271
O O2 0.259440 0.090992 0.941603
O O3 0.044395 0.294575 0.047176
O O4 0.974631 0.047607 0.097149
O O5 0.500000 0.623211 0.750000
O O6 0.509729 0.684639 0.624189
O O7 0.649700 0.836210 0.626718
O O8 0.747904 0.590401 0.539176
O O9 0.233887 0.410663 0.289749
O O10 0.508068 0.003313 0.359707
O O11 0.500000 0.000000 0.500000
#
# Coordination Sequence:
#
# PCOD9283891 Si02
#       5
#     8   8   8   8   8
#     4  10  24  44  63  94 132 168 219 270 324 392
#     4  10  21  40  65  91 129 169 218 264 318 393
#     4  10  24  42  66  95 129 172 215 274 325 383
#     4  10  23  41  62  95 126 173 216 267 328 381
#     4  12  25  40  68  97 131 172 218 268 333 390
#
# _framework density 22.125285999999999
#
# number of rings (size 3 to 8) (size 9 to 14) (size 15 to 20)
#    0.000    1.600    0.000    3.000    8.400    4.800 
#    0.000    0.000    0.000    0.000    0.000    0.000 
#    0.000    0.000    0.000    0.000    0.000    0.000 
#
# Total GULP energy -111622.735976 kJ/mol
# GULP energy per Si atom -5581.136799 kJ/mol
# Density = 2.207493 g / cm^3
# Si number density = 22.125286 Si / 1000 Ang^3
#
#
#
# Elastic Constant Matrix: (Units=GPa)
#
#
# Indices 1 2 3 4 5 6 
#
# 1 81.4782 14.6325 3.3972 0.0000 -11.2539 0.0000
# 2 14.6325 77.8597 -9.9514 0.0000 5.3801 0.0000
# 3 3.3972 -9.9514 91.2784 0.0000 -0.6840 0.0000
# 4 0.0000 0.0000 0.0000 8.9284 0.0000 -10.7652
# 5 -11.2539 5.3801 -0.6840 0.0000 31.8792 0.0000
# 6 0.0000 0.0000 0.0000 -10.7652 0.0000 22.5077
#
#
#
# Elastic Compliance Matrix: (Units=1/GPa)
#
#
# Indices 1 2 3 4 5 6 
#
# 1 0.013579 -0.003019 -0.000795 0.000000 0.005286 0.000000
# 2 -0.003019 0.013848 0.001597 0.000000 -0.003368 0.000000
# 3 -0.000795 0.001597 0.011157 0.000000 -0.000311 0.000000
# 4 0.000000 0.000000 0.000000 0.264583 0.000000 0.126547
# 5 0.005286 -0.003368 -0.000311 0.000000 0.033796 0.000000
# 6 0.000000 0.000000 0.000000 0.126547 0.000000 0.104956
#
#
# Mechanical properties :
#
#
# Convention : Reuss Voigt Hill
#
# Bulk Modulus (GPa) = 29.28287 29.64146 29.46216
# Shear Modulus (GPa) = 10.92336 28.83227 19.87782
#
# Velocity S-wave (km/s) = 2.22436 3.61381 3.00062
# Velocity P-wave (km/s) = 4.45654 5.55329 5.03487
#
# Compressibility (1/GPa) = 0.03414966
#
# Stress axis : x y z
#
# Youngs Moduli (GPa) = 73.64530 72.21373 89.63112
#
# Poissons Ratio (x) = 0.21799 0.07124
# Poissons Ratio (y) = 0.22232 -0.14313
# Poissons Ratio (z) = 0.05854 -0.11531
#
# Static dielectric constant tensor:
#      x y z
#    x 1.835690 0.000000 0.011770 
#    y 0.000000 1.850140 0.000000 
#    z 0.011770 0.000000 1.782760 
# 
# From -- ./inp_files/102776.got.cif
#   From: 2010.05.17/outbox.cif.g08.bks.cpg/sg15_52_cif.got.tgz:102776.got - 2010.06.03 18:47:42.
