data_PCOD9283474
_publ_section_title
;
Structure prediction by ZEFSAII (Michael W. Deem and Ramdas Pophale) SiO2 
 PCOD9283474
Probable space group: C 2/C
;
_chemical_formula_sum "Si O2"
_cell_formula_units_Z 40
_cell_length_a 12.738551
_cell_length_b 9.677404
_cell_length_c 14.232694
_cell_angle_alpha 90.000000
_cell_angle_beta 108.366273
_cell_angle_gamma 90.000000
_cell_volume 1665.177140
_symmetry_space_group_name_H-M "C 2/C"
_symmetry_group_IT_number 15
_symmetry_cell_setting 'monoclinic'
loop_
_space_group_symop_operation_xyz
x,y,z
-x,y,1/2-z
-x,-y,-z
x,-y,1/2+z
1/2+x,1/2+y,z
1/2-x,1/2+y,1/2-z
1/2-x,1/2-y,-z
1/2+x,1/2-y,1/2+z
loop_
_atom_site_type_symbol
_atom_site_label
_atom_site_fract_x
_atom_site_fract_y
_atom_site_fract_z
Si Si1 0.623670 0.318070 0.744952
Si Si2 0.159112 0.426402 0.384042
Si Si3 0.076077 0.736281 0.357110
Si Si4 0.253277 0.481692 0.087846
Si Si5 0.958329 0.307094 0.448396
O O1 0.500000 0.343346 0.750000
O O2 0.669225 0.169974 0.795803
O O3 0.703030 0.429007 0.813837
O O4 0.607913 0.309498 0.629023
O O5 0.122610 0.582480 0.350303
O O6 0.256191 0.436838 0.489062
O O7 0.059050 0.352967 0.412398
O O8 0.174361 0.844124 0.398573
O O9 0.011546 0.733690 0.437862
O O10 0.000000 0.779871 0.250000
O O11 0.127565 0.433326 0.065875
#
# Coordination Sequence:
#
# PCOD9283474 Si02
#       5
#     8   8   8   8   8
#     4  10  22  41  60  86 120 153 189 238 292 345
#     4  10  21  40  62  85 117 157 193 231 286 353
#     4  11  22  38  60  87 118 153 194 242 286 338
#     4  11  22  37  60  90 117 148 195 244 286 334
#     4  10  22  38  62  86 115 157 197 231 285 352
#
# _framework density 24.021467999999999
#
# number of rings (size 3 to 8) (size 9 to 14) (size 15 to 20)
#    0.000    1.600    0.000    7.800    0.000    6.400 
#    0.000    9.000    0.000    0.000    0.000    1.400 
#    0.000    0.000    0.000    0.000    0.000    0.000 
#
# Total GULP energy -111951.459554 kJ/mol
# GULP energy per Si atom -5597.572978 kJ/mol
# Density = 2.396679 g / cm^3
# Si number density = 24.021468 Si / 1000 Ang^3
#
#
#
# Elastic Constant Matrix: (Units=GPa)
#
#
# Indices 1 2 3 4 5 6 
#
# 1 35.2315 13.3857 21.6256 0.0000 7.3650 0.0000
# 2 13.3857 55.0855 15.1308 0.0000 1.6268 0.0000
# 3 21.6256 15.1308 150.0303 0.0000 12.0007 0.0000
# 4 0.0000 0.0000 0.0000 32.0050 0.0000 7.3558
# 5 7.3650 1.6268 12.0007 0.0000 29.1198 0.0000
# 6 0.0000 0.0000 0.0000 7.3558 0.0000 23.3588
#
#
#
# Elastic Compliance Matrix: (Units=1/GPa)
#
#
# Indices 1 2 3 4 5 6 
#
# 1 0.034871 -0.007242 -0.003746 0.000000 -0.006871 0.000000
# 2 -0.007242 0.020177 -0.001083 0.000000 0.001151 0.000000
# 3 -0.003746 -0.001083 0.007481 0.000000 -0.002075 0.000000
# 4 0.000000 0.000000 0.000000 0.033683 0.000000 -0.010607
# 5 -0.006871 0.001151 -0.002075 0.000000 0.036869 0.000000
# 6 0.000000 0.000000 0.000000 -0.010607 0.000000 0.046151
#
#
# Mechanical properties :
#
#
# Convention : Reuss Voigt Hill
#
# Bulk Modulus (GPa) = 26.05114 37.84796 31.94955
# Shear Modulus (GPa) = 23.13007 29.57708 26.35357
#
# Velocity S-wave (km/s) = 3.10642 3.51276 3.31582
# Velocity P-wave (km/s) = 4.87185 5.67827 5.29045
#
# Compressibility (1/GPa) = 0.03838603
#
# Stress axis : x y z
#
# Youngs Moduli (GPa) = 28.67714 49.56184 133.68046
#
# Poissons Ratio (x) = 0.35891 0.50082
# Poissons Ratio (y) = 0.20767 0.14479
# Poissons Ratio (z) = 0.10744 0.05368
#
# Static dielectric constant tensor:
#      x y z
#    x 1.923810 0.000000 -0.024380 
#    y 0.000000 1.911130 0.000000 
#    z -0.024380 0.000000 1.972910 
# 
# From -- ./inp_files/150783.got.cif
#   From: 2010.05.17/outbox.cif.g08.bks.cpg/sg15_76_cif.got.tgz:150783.got - 2010.06.03 18:47:42.
