data_PCOD9283350
_publ_section_title
;
Structure prediction by ZEFSAII (Michael W. Deem and Ramdas Pophale) SiO2 
 PCOD9283350
Probable space group: C 2/C
;
_chemical_formula_sum "Si O2"
_cell_formula_units_Z 32
_cell_length_a 17.781928
_cell_length_b 6.650730
_cell_length_c 13.491788
_cell_angle_alpha 90.000000
_cell_angle_beta 65.438610
_cell_angle_gamma 90.000000
_cell_volume 1451.203169
_symmetry_space_group_name_H-M "C 2/C"
_symmetry_group_IT_number 15
_symmetry_cell_setting 'monoclinic'
loop_
_space_group_symop_operation_xyz
x,y,z
-x,y,1/2-z
-x,-y,-z
x,-y,1/2+z
1/2+x,1/2+y,z
1/2-x,1/2+y,1/2-z
1/2-x,1/2-y,-z
1/2+x,1/2-y,1/2+z
loop_
_atom_site_type_symbol
_atom_site_label
_atom_site_fract_x
_atom_site_fract_y
_atom_site_fract_z
Si Si1 0.562102 0.768385 0.570402
Si Si2 0.313402 0.983565 0.366396
Si Si3 0.891971 0.455348 0.625947
Si Si4 0.637127 0.368504 0.530914
O O1 0.474385 0.875357 0.635253
O O2 0.564046 0.528846 0.576702
O O3 0.629407 0.855972 0.609097
O O4 0.587889 0.842939 0.446116
O O5 0.349049 0.764916 0.378983
O O6 0.221137 0.987749 0.459396
O O7 0.321224 0.015654 0.245308
O O8 0.873298 0.290269 0.552292
#
# Coordination Sequence:
#
# PCOD9283350 Si02
#       4
#     8   8   8   8
#     4  10  21  40  60  87 126 157 201 256 299 365
#     4  10  22  39  60  90 124 158 202 255 303 365
#     4  10  22  38  61  90 121 159 206 251 301 366
#     4  10  22  39  62  89 122 160 203 252 307 367
#
# _framework density 22.050668000000002
#
# number of rings (size 3 to 8) (size 9 to 14) (size 15 to 20)
#    0.000    2.000    0.000    2.250    3.500    2.000 
#    0.000    7.500    0.000    0.000    0.000    0.000 
#    0.000    0.000    0.000    0.000    0.000    0.000 
#
# Total GULP energy -89444.221386 kJ/mol
# GULP energy per Si atom -5590.263837 kJ/mol
# Density = 2.200048 g / cm^3
# Si number density = 22.050668 Si / 1000 Ang^3
#
#
#
# Elastic Constant Matrix: (Units=GPa)
#
#
# Indices 1 2 3 4 5 6 
#
# 1 34.6236 -3.6869 -22.3207 0.0000 6.9129 0.0000
# 2 -3.6869 74.3344 17.2603 0.0000 1.1246 0.0000
# 3 -22.3207 17.2603 56.4794 0.0000 2.6146 0.0000
# 4 0.0000 0.0000 0.0000 0.3386 0.0000 4.0227
# 5 6.9129 1.1246 2.6146 0.0000 8.2959 0.0000
# 6 0.0000 0.0000 0.0000 4.0227 0.0000 33.3212
#
#
#
# Elastic Compliance Matrix: (Units=1/GPa)
#
#
# Indices 1 2 3 4 5 6 
#
# 1 0.055668 -0.002272 0.025195 0.000006 -0.054021 -0.000001
# 2 -0.002272 0.014576 -0.005428 -0.000003 0.001628 0.000000
# 3 0.025195 -0.005428 0.030707 0.000004 -0.029937 -0.000001
# 4 0.000006 -0.000003 0.000004 -6.799432 -0.000010 0.820856
# 5 -0.054021 0.001628 -0.029937 -0.000010 0.174772 0.000001
# 6 -0.000001 0.000000 -0.000001 0.820856 0.000001 -0.069086
#
#
# Mechanical properties :
#
#
# Convention : Reuss Voigt Hill
#
# Bulk Modulus (GPa) = 7.35602 16.43808 11.89705
# Shear Modulus (GPa) = -0.75959 20.00343 9.62192
#
# Velocity S-wave (km/s) = -0.58756 3.01517 2.09118
# Velocity P-wave (km/s) = 1.69791 4.42635 3.35227
#
# Compressibility (1/GPa) = 0.13594302
#
# Stress axis : x y z
#
# Youngs Moduli (GPa) = 17.96350 68.60736 32.56550
#
# Poissons Ratio (x) = 0.15587 -0.82050
# Poissons Ratio (y) = 0.04081 0.17675
# Poissons Ratio (z) = -0.45260 0.37237
#
# Static dielectric constant tensor:
#      x y z
#    x 1.832600 0.000000 -0.003220 
#    y 0.000000 1.808700 0.000000 
#    z -0.003220 0.000000 1.777530 
# 
# From -- ./inp_files/158170.got.cif
#   From: 2010.05.17/outbox.cif.g08.bks.cpg/sg15_80_cif.got.tgz:158170.got - 2010.06.03 18:47:42.
