data_PCOD9283703
_publ_section_title
;
Structure prediction by ZEFSAII (Michael W. Deem and Ramdas Pophale) SiO2 
 PCOD9283703
Probable space group: C 2/C
;
_chemical_formula_sum "Si O2"
_cell_formula_units_Z 56
_cell_length_a 30.276777
_cell_length_b 18.806811
_cell_length_c 8.639563
_cell_angle_alpha 90.000000
_cell_angle_beta 30.401314
_cell_angle_gamma 90.000000
_cell_volume 2489.505266
_symmetry_space_group_name_H-M "C 2/C"
_symmetry_group_IT_number 15
_symmetry_cell_setting 'monoclinic'
loop_
_space_group_symop_operation_xyz
x,y,z
-x,y,1/2-z
-x,-y,-z
x,-y,1/2+z
1/2+x,1/2+y,z
1/2-x,1/2+y,1/2-z
1/2-x,1/2-y,-z
1/2+x,1/2-y,1/2+z
loop_
_atom_site_type_symbol
_atom_site_label
_atom_site_fract_x
_atom_site_fract_y
_atom_site_fract_z
Si Si1 0.628220 0.397161 0.110804
Si Si2 0.500000 0.372285 0.250000
Si Si3 0.281862 0.248364 0.726176
Si Si4 0.295266 0.958161 0.774448
Si Si5 0.339267 0.909587 0.984241
Si Si6 0.500000 0.358251 0.750000
Si Si7 0.911962 0.766920 0.763273
Si Si8 0.473291 0.881480 0.154137
O O1 0.572699 0.416207 0.125678
O O2 0.558343 0.402840 0.458356
O O3 0.656540 0.314567 0.999224
O O4 0.714441 0.434831 0.912358
O O5 0.444455 0.320539 0.531600
O O6 0.325374 0.173406 0.555429
O O7 0.250000 0.250000 0.000000
O O8 0.189961 0.250318 0.916096
O O9 0.295735 0.932524 0.951567
O O10 0.383348 0.924395 0.435414
O O11 0.301533 0.042992 0.736697
O O12 0.442963 0.922580 0.662014
O O13 0.438261 0.306984 0.838833
O O14 0.959167 0.691429 0.605122
O O15 0.500000 0.862631 0.250000
#
# Coordination Sequence:
#
# PCOD9283703 Si02
#       8
#     8   4   8   8   8   4   8   8
#     4  11  23  43  68 102 134 180 231 292 351 410
#     4  10  22  36  60  99 135 174 228 290 346 404
#     4  12  25  41  69 105 138 180 236 292 347 412
#     4  11  25  44  71  99 141 187 227 283 350 420
#     4  11  26  44  68 102 142 183 230 279 346 418
#     4  10  22  36  64  95 135 170 230 290 344 404
#     4  11  20  36  62  97 138 176 223 287 341 403
#     4  10  21  40  64 101 138 184 222 271 342 420
#
# _framework density 22.494430000000001
#
# number of rings (size 3 to 8) (size 9 to 14) (size 15 to 20)
#    0.000    1.143    3.571    3.000    4.000    1.143 
#    0.000    0.000    0.000   14.571    0.000    0.000 
#    0.000    0.000    0.000    0.000    0.000    0.000 
#
# Total GULP energy -156568.998776 kJ/mol
# GULP energy per Si atom -5591.749956 kJ/mol
# Density = 2.244323 g / cm^3
# Si number density = 22.494430 Si / 1000 Ang^3
#
#
#
# Elastic Constant Matrix: (Units=GPa)
#
#
# Indices 1 2 3 4 5 6 
#
# 1 94.0412 -9.2487 44.0820 0.0000 -30.1520 0.0000
# 2 -9.2487 30.2704 8.6111 0.0000 -3.8053 0.0000
# 3 44.0820 8.6111 77.0493 0.0000 -16.6419 0.0000
# 4 0.0000 0.0000 0.0000 -60.3945 0.0000 -2.6738
# 5 -30.1520 -3.8053 -16.6419 0.0000 47.7342 0.0000
# 6 0.0000 0.0000 0.0000 -2.6738 0.0000 14.9177
#
#
#
# Elastic Compliance Matrix: (Units=1/GPa)
#
#
# Indices 1 2 3 4 5 6 
#
# 1 0.019459 0.010045 -0.010195 0.000000 0.009538 0.000000
# 2 0.010045 0.039406 -0.008762 0.000000 0.006432 0.000000
# 3 -0.010195 -0.008762 0.019735 0.000000 -0.000258 0.000000
# 4 0.000000 0.000000 0.000000 -0.016427 0.000000 -0.002944
# 5 0.009538 0.006432 -0.000258 0.000000 0.027397 0.000000
# 6 0.000000 0.000000 0.000000 -0.002944 0.000000 0.066507
#
#
# Mechanical properties :
#
#
# Convention : Reuss Voigt Hill
#
# Bulk Modulus (GPa) = 16.45426 32.02772 24.24099
# Shear Modulus (GPa) = 25.75220 10.97924 18.36572
#
# Velocity S-wave (km/s) = 3.38720 2.21167 2.86047
# Velocity P-wave (km/s) = 4.75691 4.55971 4.65935
#
# Compressibility (1/GPa) = 0.06077454
#
# Stress axis : x y z
#
# Youngs Moduli (GPa) = 51.39124 25.37716 50.67098
#
# Poissons Ratio (x) = -0.25490 0.51661
# Poissons Ratio (y) = -0.51620 0.44396
# Poissons Ratio (z) = 0.52395 0.22234
#
# Static dielectric constant tensor:
#      x y z
#    x 1.842510 0.000000 0.002110 
#    y 0.000000 1.813060 0.000000 
#    z 0.002110 0.000000 1.829930 
# 
# From -- ./inp_files/70845.got.cif
#   From: 2010.05.17/outbox.cif.g08.bks.cpg/sg15_36_cif.got.tgz:70845.got - 2010.06.03 18:47:42.
