data_PCOD9283471
_publ_section_title
;
Structure prediction by ZEFSAII (Michael W. Deem and Ramdas Pophale) SiO2 
 PCOD9283471
Probable space group: C 2/C
;
_chemical_formula_sum "Si O2"
_cell_formula_units_Z 40
_cell_length_a 6.873956
_cell_length_b 19.641606
_cell_length_c 18.467215
_cell_angle_alpha 90.000000
_cell_angle_beta 53.019398
_cell_angle_gamma 90.000000
_cell_volume 1991.794479
_symmetry_space_group_name_H-M "C 2/C"
_symmetry_group_IT_number 15
_symmetry_cell_setting 'monoclinic'
loop_
_space_group_symop_operation_xyz
x,y,z
-x,y,1/2-z
-x,-y,-z
x,-y,1/2+z
1/2+x,1/2+y,z
1/2-x,1/2+y,1/2-z
1/2-x,1/2-y,-z
1/2+x,1/2-y,1/2+z
loop_
_atom_site_type_symbol
_atom_site_label
_atom_site_fract_x
_atom_site_fract_y
_atom_site_fract_z
Si Si1 0.832732 0.927710 0.933465
Si Si2 0.935934 0.182695 0.011914
Si Si3 0.922466 0.255708 0.652821
Si Si4 0.000000 0.856105 0.250000
Si Si5 0.000000 0.136401 0.250000
Si Si6 0.751769 0.577432 0.563189
O O1 0.948279 0.909033 0.830975
O O2 0.875995 0.008135 0.936127
O O3 0.541485 0.925280 0.995101
O O4 0.927652 0.869884 0.966818
O O5 0.823711 0.137283 0.973137
O O6 0.099211 0.234465 0.927566
O O7 0.704861 0.220680 0.099629
O O8 0.734555 0.315765 0.709560
O O9 0.873770 0.193956 0.719371
O O10 0.828082 0.903100 0.337726
#
# Coordination Sequence:
#
# PCOD9283471 Si02
#       6
#     8   8   8   4   4   8
#     4  11  23  38  65  84 123 159 202 251 302 352
#     4  10  21  42  62  88 122 160 198 256 302 366
#     4  10  22  37  61  94 122 156 207 245 312 367
#     4  10  21  40  62  80 129 154 194 256 302 356
#     4  12  23  38  60  94 119 158 206 248 304 370
#     4  10  22  42  59  91 116 161 205 246 298 369
#
# _framework density 20.082393
#
# number of rings (size 3 to 8) (size 9 to 14) (size 15 to 20)
#    0.000    1.600    2.000    2.400    2.800    0.800 
#    0.000    0.000    4.400    0.000    0.000    0.000 
#    0.000    0.000    0.000    0.000    0.000    0.000 
#
# Total GULP energy -111610.457047 kJ/mol
# GULP energy per Si atom -5580.522852 kJ/mol
# Density = 2.003668 g / cm^3
# Si number density = 20.082393 Si / 1000 Ang^3
#
#
#
# Elastic Constant Matrix: (Units=GPa)
#
#
# Indices 1 2 3 4 5 6 
#
# 1 39.7509 14.5450 21.2129 0.0000 8.5490 0.0000
# 2 14.5450 87.5507 30.4537 0.0000 -2.3349 0.0000
# 3 21.2129 30.4537 110.9495 0.0000 6.5449 0.0000
# 4 0.0000 0.0000 0.0000 342.6191 0.0000 2.8198
# 5 8.5490 -2.3349 6.5449 0.0000 21.0334 0.0000
# 6 0.0000 0.0000 0.0000 2.8198 0.0000 31.5549
#
#
#
# Elastic Compliance Matrix: (Units=1/GPa)
#
#
# Indices 1 2 3 4 5 6 
#
# 1 0.031454 -0.004087 -0.004188 0.000000 -0.011935 0.000000
# 2 -0.004087 0.013292 -0.003109 0.000000 0.004104 0.000000
# 3 -0.004188 -0.003109 0.010785 0.000000 -0.001999 0.000000
# 4 0.000000 0.000000 0.000000 0.002921 0.000000 -0.000261
# 5 -0.011935 0.004104 -0.001999 0.000000 0.053472 0.000000
# 6 0.000000 0.000000 0.000000 -0.000261 0.000000 0.031714
#
#
# Mechanical properties :
#
#
# Convention : Reuss Voigt Hill
#
# Bulk Modulus (GPa) = 30.52253 41.18602 35.85428
# Shear Modulus (GPa) = 28.19653 90.51078 59.35366
#
# Velocity S-wave (km/s) = 3.75112 6.72068 5.44236
# Velocity P-wave (km/s) = 5.83034 8.98757 7.57527
#
# Compressibility (1/GPa) = 0.03276268
#
# Stress axis : x y z
#
# Youngs Moduli (GPa) = 31.79268 75.23401 92.72044
#
# Poissons Ratio (x) = 0.30749 0.38830
# Poissons Ratio (y) = 0.12994 0.28827
# Poissons Ratio (z) = 0.13314 0.23391
#
# Static dielectric constant tensor:
#      x y z
#    x 1.693640 0.000000 0.020250 
#    y 0.000000 1.740070 0.000000 
#    z 0.020250 0.000000 1.720390 
# 
# From -- ./inp_files/77961.got.cif
#   From: 2010.05.17/outbox.cif.g08.bks.cpg/sg15_39_cif.got.tgz:77961.got - 2010.06.03 18:47:42.
