data_PCOD9283289
_publ_section_title
;
Structure prediction by ZEFSAII (Michael W. Deem and Ramdas Pophale) SiO2 
 PCOD9283289
Probable space group: C 2/C
;
_chemical_formula_sum "Si O2"
_cell_formula_units_Z 40
_cell_length_a 16.620918
_cell_length_b 21.797436
_cell_length_c 4.987445
_cell_angle_alpha 90.000000
_cell_angle_beta 91.000063
_cell_angle_gamma 90.000000
_cell_volume 1806.643151
_symmetry_space_group_name_H-M "C 2/C"
_symmetry_group_IT_number 15
_symmetry_cell_setting 'monoclinic'
loop_
_space_group_symop_operation_xyz
x,y,z
-x,y,1/2-z
-x,-y,-z
x,-y,1/2+z
1/2+x,1/2+y,z
1/2-x,1/2+y,1/2-z
1/2-x,1/2-y,-z
1/2+x,1/2-y,1/2+z
loop_
_atom_site_type_symbol
_atom_site_label
_atom_site_fract_x
_atom_site_fract_y
_atom_site_fract_z
Si Si1 0.659475 0.696715 0.436132
Si Si2 0.741111 0.841615 0.056616
Si Si3 0.500000 0.307403 0.750000
Si Si4 0.000000 0.952680 0.250000
Si Si5 0.918743 0.711550 0.160535
Si Si6 0.342174 0.543488 0.523042
O O1 0.706568 0.697518 0.157551
O O2 0.576713 0.658359 0.379597
O O3 0.623552 0.756814 0.582998
O O4 0.724713 0.672702 0.648642
O O5 0.648701 0.826885 0.996125
O O6 0.766465 0.911862 0.017825
O O7 0.544343 0.264709 0.530813
O O8 0.919350 0.918231 0.145919
O O9 0.000000 0.000000 0.500000
O O10 0.000000 0.676417 0.250000
O O11 0.342579 0.512948 0.231624
#
# Coordination Sequence:
#
# PCOD9283289 Si02
#       6
#     8   8   4   4   8   8
#     4  11  23  38  58  91 124 157 197 243 294 364
#     4  12  24  37  65  90 117 164 207 244 303 359
#     4  10  22  40  57  88 134 160 190 245 298 354
#     4   8  16  32  57  74 106 148 180 231 300 340
#     4  10  23  40  61  87 129 161 196 246 303 364
#     4  10  21  40  58  85 118 153 197 252 296 350
#
# _framework density 22.140511
#
# number of rings (size 3 to 8) (size 9 to 14) (size 15 to 20)
#    0.000    1.600    2.000    2.400    5.600    1.600 
#    0.000    2.000    0.000    1.200    0.000    0.000 
#    0.000    0.000    0.000    0.000    0.000    0.000 
#
# Total GULP energy -111564.419028 kJ/mol
# GULP energy per Si atom -5578.220951 kJ/mol
# Density = 2.209012 g / cm^3
# Si number density = 22.140511 Si / 1000 Ang^3
#
#
#
# Elastic Constant Matrix: (Units=GPa)
#
#
# Indices 1 2 3 4 5 6 
#
# 1 160.5837 34.5716 41.2830 0.0000 39.3635 0.0000
# 2 34.5716 43.3795 18.2632 0.0000 8.2155 0.0000
# 3 41.2830 18.2632 138.8101 0.0000 1.4617 0.0000
# 4 0.0000 0.0000 0.0000 32.0784 0.0000 7.9372
# 5 39.3635 8.2155 1.4617 0.0000 52.6710 0.0000
# 6 0.0000 0.0000 0.0000 7.9372 0.0000 19.3837
#
#
#
# Elastic Compliance Matrix: (Units=1/GPa)
#
#
# Indices 1 2 3 4 5 6 
#
# 1 0.009436 -0.005509 -0.002017 0.000000 -0.006137 0.000000
# 2 -0.005509 0.028371 -0.002092 0.000000 -0.000250 0.000000
# 3 -0.002017 -0.002092 0.008062 0.000000 0.001610 0.000000
# 4 0.000000 0.000000 0.000000 0.034688 0.000000 -0.014204
# 5 -0.006137 -0.000250 0.001610 0.000000 0.023566 0.000000
# 6 0.000000 0.000000 0.000000 -0.014204 0.000000 0.057406
#
#
# Mechanical properties :
#
#
# Convention : Reuss Voigt Hill
#
# Bulk Modulus (GPa) = 37.54596 59.00099 48.27347
# Shear Modulus (GPa) = 26.36540 37.40365 31.88452
#
# Velocity S-wave (km/s) = 3.45457 4.11466 3.79898
# Velocity P-wave (km/s) = 5.73646 7.01999 6.41043
#
# Compressibility (1/GPa) = 0.02663402
#
# Stress axis : x y z
#
# Youngs Moduli (GPa) = 105.97640 35.24770 124.03577
#
# Poissons Ratio (x) = 0.19417 0.25017
# Poissons Ratio (y) = 0.58380 0.25945
# Poissons Ratio (z) = 0.21375 0.07373
#
# Static dielectric constant tensor:
#      x y z
#    x 1.991530 0.000000 -0.016940 
#    y 0.000000 1.915290 0.000000 
#    z -0.016940 0.000000 1.903080 
# 
# From -- ./inp_files/7401.got.cif
#   From: 2010.05.17/outbox.cif.g08.bks.cpg/sg15_4_cif.got.tgz:7401.got - 2010.06.03 18:47:42.
