data_PCOD9283749
_publ_section_title
;
Structure prediction by ZEFSAII (Michael W. Deem and Ramdas Pophale) SiO2 
 PCOD9283749
Probable space group: C 2/C
;
_chemical_formula_sum "Si O2"
_cell_formula_units_Z 52
_cell_length_a 25.641667
_cell_length_b 7.794209
_cell_length_c 12.016010
_cell_angle_alpha 90.000000
_cell_angle_beta 61.922775
_cell_angle_gamma 90.000000
_cell_volume 2118.857577
_symmetry_space_group_name_H-M "C 2/C"
_symmetry_group_IT_number 15
_symmetry_cell_setting 'monoclinic'
loop_
_space_group_symop_operation_xyz
x,y,z
-x,y,1/2-z
-x,-y,-z
x,-y,1/2+z
1/2+x,1/2+y,z
1/2-x,1/2+y,1/2-z
1/2-x,1/2-y,-z
1/2+x,1/2-y,1/2+z
loop_
_atom_site_type_symbol
_atom_site_label
_atom_site_fract_x
_atom_site_fract_y
_atom_site_fract_z
Si Si1 0.538449 0.257044 0.517828
Si Si2 0.264344 0.956761 0.549433
Si Si3 0.500000 0.015783 0.750000
Si Si4 0.839102 0.260353 0.307009
Si Si5 0.614215 0.124024 0.258224
Si Si6 0.316370 0.304927 0.505731
Si Si7 0.576103 0.627781 0.440315
O O1 0.531998 0.141951 0.631109
O O2 0.595088 0.213182 0.389400
O O3 0.545196 0.460253 0.524186
O O4 0.476461 0.233689 0.513409
O O5 0.284712 0.133767 0.582922
O O6 0.225655 0.035602 0.483637
O O7 0.219177 0.845364 0.666630
O O8 0.317325 0.835645 0.450331
O O9 0.446585 0.911443 0.748244
O O10 0.857223 0.442423 0.238315
O O11 0.894326 0.138065 0.214650
O O12 0.655984 0.237064 0.138667
O O13 0.369103 0.342707 0.535139
#
# Coordination Sequence:
#
# PCOD9283749 Si02
#       7
#     8   8   4   8   8   8   8
#     4  11  26  43  63 101 133 171 224 272 325 422
#     4   9  21  42  63  93 130 167 238 266 324 395
#     4  12  24  40  70  94 130 180 216 270 328 412
#     4  10  21  40  64  90 130 173 209 286 319 387
#     4  11  23  40  67  96 137 170 218 271 337 397
#     4  10  22  40  68  95 126 183 211 279 331 382
#     4  11  24  41  65  94 138 173 224 271 333 391
#
# _framework density 24.541526999999999
#
# number of rings (size 3 to 8) (size 9 to 14) (size 15 to 20)
#    0.000    1.538    1.538    2.308    4.308    3.692 
#    0.000    0.000    0.000    0.000    0.000    0.000 
#    0.000    0.000    0.000    0.000    0.000    0.000 
#
# Total GULP energy -145065.267917 kJ/mol
# GULP energy per Si atom -5579.433381 kJ/mol
# Density = 2.448567 g / cm^3
# Si number density = 24.541527 Si / 1000 Ang^3
#
#
#
# Elastic Constant Matrix: (Units=GPa)
#
#
# Indices 1 2 3 4 5 6 
#
# 1 89.2698 1.2560 -3.9066 0.0000 1.2999 0.0000
# 2 1.2560 41.0737 -7.4230 0.0000 2.9238 0.0000
# 3 -3.9066 -7.4230 64.1570 0.0000 -19.2334 0.0000
# 4 0.0000 0.0000 0.0000 39.6525 0.0000 -22.8946
# 5 1.2999 2.9238 -19.2334 0.0000 33.2191 0.0000
# 6 0.0000 0.0000 0.0000 -22.8946 0.0000 38.6126
#
#
#
# Elastic Compliance Matrix: (Units=1/GPa)
#
#
# Indices 1 2 3 4 5 6 
#
# 1 0.011234 -0.000224 0.000644 0.000000 -0.000047 0.000000
# 2 -0.000224 0.024882 0.002676 0.000000 -0.000632 0.000000
# 3 0.000644 0.002676 0.019188 0.000000 0.010849 0.000000
# 4 0.000000 0.000000 0.000000 0.038347 0.000000 0.022737
# 5 -0.000047 -0.000632 0.010849 0.000000 0.036442 0.000000
# 6 0.000000 0.000000 0.000000 0.022737 0.000000 0.039380
#
#
# Mechanical properties :
#
#
# Convention : Reuss Voigt Hill
#
# Bulk Modulus (GPa) = 16.26124 19.37258 17.81691
# Shear Modulus (GPa) = 27.20659 35.93513 31.57086
#
# Velocity S-wave (km/s) = 3.33317 3.83071 3.59057
# Velocity P-wave (km/s) = 4.63182 5.24183 4.94624
#
# Compressibility (1/GPa) = 0.06149591
#
# Stress axis : x y z
#
# Youngs Moduli (GPa) = 89.01536 40.18983 52.11622
#
# Poissons Ratio (x) = 0.00899 -0.03357
# Poissons Ratio (y) = 0.01992 -0.13945
# Poissons Ratio (z) = -0.05733 -0.10754
#
# Static dielectric constant tensor:
#      x y z
#    x 1.977020 0.000000 -0.002670 
#    y 0.000000 1.937800 0.000000 
#    z -0.002670 0.000000 1.992370 
# 
# From -- ./inp_files/121582.got.cif
#   From: 2010.05.17/outbox.cif.g08.bks.cpg/sg15_61_cif.got.tgz:121582.got - 2010.06.03 18:47:42.
