data_PCOD9283175
_publ_section_title
;
Structure prediction by ZEFSAII (Michael W. Deem and Ramdas Pophale) SiO2 
 PCOD9283175
Probable space group: C 2/C
;
_chemical_formula_sum "Si O2"
_cell_formula_units_Z 48
_cell_length_a 22.703071
_cell_length_b 7.507842
_cell_length_c 18.373373
_cell_angle_alpha 90.000000
_cell_angle_beta 46.325468
_cell_angle_gamma 90.000000
_cell_volume 2265.121907
_symmetry_space_group_name_H-M "C 2/C"
_symmetry_group_IT_number 15
_symmetry_cell_setting 'monoclinic'
loop_
_space_group_symop_operation_xyz
x,y,z
-x,y,1/2-z
-x,-y,-z
x,-y,1/2+z
1/2+x,1/2+y,z
1/2-x,1/2+y,1/2-z
1/2-x,1/2-y,-z
1/2+x,1/2-y,1/2+z
loop_
_atom_site_type_symbol
_atom_site_label
_atom_site_fract_x
_atom_site_fract_y
_atom_site_fract_z
Si Si1 0.427442 0.384828 0.120049
Si Si2 0.759145 0.301577 0.760305
Si Si3 0.095192 0.188805 0.473438
Si Si4 0.311488 0.410194 0.466338
Si Si5 0.076253 0.878430 0.737981
Si Si6 0.217500 0.355671 0.158603
O O1 0.339880 0.304742 0.211414
O O2 0.415084 0.495680 0.056538
O O3 0.448535 0.522561 0.166638
O O4 0.502020 0.245815 0.049414
O O5 0.671529 0.230260 0.864515
O O6 0.771869 0.484626 0.792770
O O7 0.752464 0.306702 0.678097
O O8 0.124510 0.168773 0.530451
O O9 0.250000 0.250000 0.500000
O O10 0.359984 0.492686 0.357925
O O11 0.265314 0.571547 0.547766
O O12 0.126832 0.701119 0.714353
O O13 0.000000 0.848084 0.750000
#
# Coordination Sequence:
#
# PCOD9283175 Si02
#       6
#     8   8   8   8   8   8
#     4  11  21  41  71  93 131 176 234 272 333 411
#     4  11  20  41  70  93 129 172 224 287 323 390
#     4  10  21  39  68  96 127 175 227 273 332 405
#     4  11  23  43  68  98 134 178 224 276 348 410
#     4  12  23  41  66  96 140 180 214 278 350 405
#     4  11  23  42  66  97 132 173 230 274 341 401
#
# _framework density 21.190912000000001
#
# number of rings (size 3 to 8) (size 9 to 14) (size 15 to 20)
#    0.000    1.000    6.667    2.500    0.000    0.000 
#    3.000    0.833    0.000    0.000    0.000    0.000 
#    0.000    0.000    0.000    0.000    0.000    0.000 
#
# Total GULP energy -133824.604935 kJ/mol
# GULP energy per Si atom -5576.025206 kJ/mol
# Density = 2.114268 g / cm^3
# Si number density = 21.190912 Si / 1000 Ang^3
#
#
#
# Elastic Constant Matrix: (Units=GPa)
#
#
# Indices 1 2 3 4 5 6 
#
# 1 162.7185 28.7712 40.6724 0.0063 -17.4974 -0.0035
# 2 28.7712 27.4948 26.6791 0.0129 -0.5031 -0.0085
# 3 40.6724 26.6791 119.7385 0.0097 -6.8002 -0.0073
# 4 0.0063 0.0129 0.0097 32.8063 -0.0082 3.2936
# 5 -17.4974 -0.5031 -6.8002 -0.0082 47.2469 0.0052
# 6 -0.0035 -0.0085 -0.0073 3.2936 0.0052 37.7467
#
#
#
# Elastic Compliance Matrix: (Units=1/GPa)
#
#
# Indices 1 2 3 4 5 6 
#
# 1 0.007979 -0.007426 -0.000900 0.000003 0.002746 -0.000002
# 2 -0.007426 0.053362 -0.009569 -0.000019 -0.003559 0.000012
# 3 -0.000900 -0.009569 0.010853 0.000001 0.001127 0.000000
# 4 0.000003 -0.000019 0.000001 0.030751 0.000007 -0.002683
# 5 0.002746 -0.003559 0.001127 0.000007 0.022307 -0.000004
# 6 -0.000002 0.000012 0.000000 -0.002683 -0.000004 0.026727
#
#
# Mechanical properties :
#
#
# Convention : Reuss Voigt Hill
#
# Bulk Modulus (GPa) = 27.46969 55.79971 41.63470
# Shear Modulus (GPa) = 25.01217 37.81524 31.41371
#
# Velocity S-wave (km/s) = 3.43931 4.22892 3.85439
# Velocity P-wave (km/s) = 5.36311 7.08760 6.28478
#
# Compressibility (1/GPa) = 0.03640376
#
# Stress axis : x y z
#
# Youngs Moduli (GPa) = 125.33205 18.74010 92.13810
#
# Poissons Ratio (x) = 0.13916 0.08289
# Poissons Ratio (y) = 0.93072 0.88169
# Poissons Ratio (z) = 0.11275 0.17933
#
# Static dielectric constant tensor:
#      x y z
#    x 1.785700 0.000000 -0.028170 
#    y 0.000000 1.847070 0.000000 
#    z -0.028170 0.000000 1.846840 
# 
# From -- ./inp_files/213725.got.cif
#   From: 2010.05.17/outbox.cif.g08.bks.cpg/sg15_107_cif.got.tgz:213725.got - 2010.06.03 18:47:42.
