data_PCOD9283453
_publ_section_title
;
Structure prediction by ZEFSAII (Michael W. Deem and Ramdas Pophale) SiO2 
 PCOD9283453
Probable space group: C 2/C
;
_chemical_formula_sum "Si O2"
_cell_formula_units_Z 56
_cell_length_a 19.896826
_cell_length_b 17.856182
_cell_length_c 15.307924
_cell_angle_alpha 90.000000
_cell_angle_beta 27.288228
_cell_angle_gamma 90.000000
_cell_volume 2493.427559
_symmetry_space_group_name_H-M "C 2/C"
_symmetry_group_IT_number 15
_symmetry_cell_setting 'monoclinic'
loop_
_space_group_symop_operation_xyz
x,y,z
-x,y,1/2-z
-x,-y,-z
x,-y,1/2+z
1/2+x,1/2+y,z
1/2-x,1/2+y,1/2-z
1/2-x,1/2-y,-z
1/2+x,1/2-y,1/2+z
loop_
_atom_site_type_symbol
_atom_site_label
_atom_site_fract_x
_atom_site_fract_y
_atom_site_fract_z
Si Si1 0.136136 0.360486 0.472609
Si Si2 0.876132 0.999501 0.828949
Si Si3 0.592952 0.381068 0.995939
Si Si4 0.296625 0.966015 0.631818
Si Si5 0.533879 0.833376 0.109088
Si Si6 0.164240 0.244930 0.293466
Si Si7 0.300207 0.129006 0.403731
O O1 0.176566 0.445928 0.402857
O O2 0.197304 0.305029 0.330313
O O3 0.190194 0.341939 0.508259
O O4 0.958803 0.357833 0.679324
O O5 0.000000 0.966008 0.750000
O O6 0.961726 0.068144 0.682146
O O7 0.805375 0.949356 0.835879
O O8 0.744846 0.041008 0.032134
O O9 0.708699 0.437649 0.817168
O O10 0.564154 0.318102 0.957012
O O11 0.673401 0.342973 0.985775
O O12 0.443721 0.918006 0.451465
O O13 0.500000 0.833923 0.250000
O O14 0.414469 0.787817 0.193349
O O15 0.689049 0.794683 0.908386
#
# Coordination Sequence:
#
# PCOD9283453 Si02
#       7
#     8   8   8   8   8   8   8
#     4  10  21  40  63 100 133 169 228 269 335 395
#     4   9  19  38  61  94 133 168 216 273 334 399
#     4  10  21  40  61  93 135 174 220 263 338 399
#     4  10  22  39  68  93 128 172 219 287 325 391
#     4  11  26  47  70  95 132 176 228 281 334 395
#     4  11  25  44  70  96 133 182 222 274 338 400
#     4   9  20  37  60  94 133 167 209 269 324 401
#
# _framework density 22.459043999999999
#
# number of rings (size 3 to 8) (size 9 to 14) (size 15 to 20)
#    0.000    2.000    0.000    2.571    8.000    2.857 
#   10.286    2.857    0.000    0.000    0.000    0.000 
#    0.000    0.000    0.000    0.000    0.000    0.000 
#
# Total GULP energy -156513.858306 kJ/mol
# GULP energy per Si atom -5589.780654 kJ/mol
# Density = 2.240793 g / cm^3
# Si number density = 22.459044 Si / 1000 Ang^3
#
#
#
# Elastic Constant Matrix: (Units=GPa)
#
#
# Indices 1 2 3 4 5 6 
#
# 1 28.9330 -2.0973 10.5411 -0.0006 11.6263 -0.0014
# 2 -2.0973 82.9404 25.7714 -0.0012 25.7038 -0.0016
# 3 10.5411 25.7714 88.8461 -0.0015 14.8719 -0.0027
# 4 -0.0006 -0.0012 -0.0015 6.5453 0.0009 -6.0996
# 5 11.6263 25.7038 14.8719 0.0009 26.0408 0.0023
# 6 -0.0014 -0.0016 -0.0027 -6.0996 0.0023 -4.5438
#
#
#
# Elastic Compliance Matrix: (Units=1/GPa)
#
#
# Indices 1 2 3 4 5 6 
#
# 1 0.050002 0.012592 -0.004166 -0.000010 -0.032373 -0.000021
# 2 0.012592 0.021016 -0.003512 -0.000006 -0.024360 -0.000014
# 3 -0.004166 -0.003512 0.013132 -0.000002 -0.002173 -0.000004
# 4 -0.000010 -0.000006 -0.000002 0.067873 0.000017 -0.091113
# 5 -0.032373 -0.024360 -0.002173 0.000017 0.078140 0.000038
# 6 -0.000021 -0.000014 -0.000004 -0.091113 0.000038 -0.097770
#
#
# Mechanical properties :
#
#
# Convention : Reuss Voigt Hill
#
# Bulk Modulus (GPa) = 10.64096 29.90555 20.27325
# Shear Modulus (GPa) = 32.49031 16.70874 24.59952
#
# Velocity S-wave (km/s) = 3.80761 2.73053 3.31313
# Velocity P-wave (km/s) = 4.90701 4.82551 4.86643
#
# Compressibility (1/GPa) = 0.09397649
#
# Stress axis : x y z
#
# Youngs Moduli (GPa) = 19.99926 47.58326 76.14851
#
# Poissons Ratio (x) = -0.59915 0.31722
# Poissons Ratio (y) = -0.25182 0.26746
# Poissons Ratio (z) = 0.08331 0.16713
#
# Static dielectric constant tensor:
#      x y z
#    x 1.860170 0.000000 -0.009830 
#    y 0.000000 1.808490 0.000000 
#    z -0.009830 0.000000 1.798470 
# 
# From -- ./inp_files/169125.got.cif
#   From: 2010.05.17/outbox.cif.g08.bks.cpg/sg15_85_cif.got.tgz:169125.got - 2010.06.03 18:47:42.
