data_PCOD9283834
_publ_section_title
;
Structure prediction by ZEFSAII (Michael W. Deem and Ramdas Pophale) SiO2 
 PCOD9283834
Probable space group: C 2/C
;
_chemical_formula_sum "Si O2"
_cell_formula_units_Z 60
_cell_length_a 20.076199
_cell_length_b 6.495194
_cell_length_c 23.320431
_cell_angle_alpha 90.000000
_cell_angle_beta 118.346242
_cell_angle_gamma 90.000000
_cell_volume 2676.328815
_symmetry_space_group_name_H-M "C 2/C"
_symmetry_group_IT_number 15
_symmetry_cell_setting 'monoclinic'
loop_
_space_group_symop_operation_xyz
x,y,z
-x,y,1/2-z
-x,-y,-z
x,-y,1/2+z
1/2+x,1/2+y,z
1/2-x,1/2+y,1/2-z
1/2-x,1/2-y,-z
1/2+x,1/2-y,1/2+z
loop_
_atom_site_type_symbol
_atom_site_label
_atom_site_fract_x
_atom_site_fract_y
_atom_site_fract_z
Si Si1 0.105324 0.163277 0.060648
Si Si2 0.344816 0.986211 0.514625
Si Si3 0.049895 0.138843 0.445037
Si Si4 0.341673 0.934090 0.224894
Si Si5 0.000000 0.535812 0.250000
Si Si6 0.096806 0.816814 0.374077
Si Si7 0.280603 0.388416 0.621826
Si Si8 0.766838 0.715770 0.809877
O O1 0.118666 0.349422 0.021624
O O2 0.177773 0.142161 0.130027
O O3 0.033003 0.207559 0.070363
O O4 0.088969 0.958451 0.017646
O O5 0.343076 0.825950 0.566413
O O6 0.269599 0.083488 0.455884
O O7 0.399944 0.171135 0.554773
O O8 0.049522 0.952915 0.399841
O O9 0.304366 0.835500 0.152744
O O10 0.305970 0.818769 0.264978
O O11 0.431926 0.916464 0.254176
O O12 0.313429 0.168124 0.223027
O O13 0.956331 0.675770 0.185950
O O14 0.143984 0.980017 0.357240
O O15 0.238530 0.504010 0.656985
#
# Coordination Sequence:
#
# PCOD9283834 Si02
#       8
#     8   8   8   8   4   8   8   8
#     4   9  21  38  63  98 137 171 230 290 339 421
#     4  10  22  42  68 100 134 180 235 288 351 418
#     4  10  21  40  64  98 134 184 221 285 358 410
#     4  12  26  46  72 102 139 190 238 291 358 421
#     4  12  30  50  68 104 150 184 240 298 354 428
#     4  11  26  44  66  99 142 182 232 289 354 422
#     4  11  24  45  71 100 139 181 236 295 349 416
#     4  11  23  44  69 100 134 183 237 287 347 427
#
# _framework density 22.418769999999999
#
# number of rings (size 3 to 8) (size 9 to 14) (size 15 to 20)
#    0.000    1.333    2.667    1.600    3.733    3.200 
#    4.800    0.000    0.000    0.000    0.000    0.000 
#    0.000    0.000    0.000    0.000    0.000    0.000 
#
# Total GULP energy -167705.460926 kJ/mol
# GULP energy per Si atom -5590.182031 kJ/mol
# Density = 2.236774 g / cm^3
# Si number density = 22.418770 Si / 1000 Ang^3
#
#
#
# Elastic Constant Matrix: (Units=GPa)
#
#
# Indices 1 2 3 4 5 6 
#
# 1 82.3793 20.4609 20.7695 0.0000 1.1318 0.0000
# 2 20.4609 57.2086 13.4173 -0.0001 -7.6804 0.0002
# 3 20.7695 13.4173 75.5134 -0.0001 -5.8259 0.0000
# 4 0.0000 -0.0001 -0.0001 24.4774 0.0000 2.1272
# 5 1.1318 -7.6804 -5.8259 0.0000 28.1941 0.0000
# 6 0.0000 0.0002 0.0000 2.1272 0.0000 33.5523
#
#
#
# Elastic Compliance Matrix: (Units=1/GPa)
#
#
# Indices 1 2 3 4 5 6 
#
# 1 0.014146 -0.004630 -0.003261 0.000000 -0.002503 0.000000
# 2 -0.004630 0.020301 -0.001923 0.000000 0.005319 0.000000
# 3 -0.003261 -0.001923 0.014685 0.000000 0.002641 0.000000
# 4 0.000000 0.000000 0.000000 0.041080 0.000000 -0.002604
# 5 -0.002503 0.005319 0.002641 0.000000 0.037564 0.000000
# 6 0.000000 0.000000 0.000000 -0.002604 0.000000 0.029969
#
#
# Mechanical properties :
#
#
# Convention : Reuss Voigt Hill
#
# Bulk Modulus (GPa) = 33.89551 36.04409 34.96980
# Shear Modulus (GPa) = 26.70816 27.94167 27.32492
#
# Velocity S-wave (km/s) = 3.45531 3.53420 3.49498
# Velocity P-wave (km/s) = 5.57413 5.72422 5.64967
#
# Compressibility (1/GPa) = 0.02950244
#
# Stress axis : x y z
#
# Youngs Moduli (GPa) = 70.69328 49.25844 68.09621
#
# Poissons Ratio (x) = 0.22809 0.22206
# Poissons Ratio (y) = 0.32734 0.13096
# Poissons Ratio (z) = 0.23053 0.09473
#
# Static dielectric constant tensor:
#      x y z
#    x 1.830680 0.000000 -0.012560 
#    y 0.000000 1.832570 0.000000 
#    z -0.012560 0.000000 1.819460 
# 
# From -- ./inp_files/300121.got.cif
#   From: 2010.05.17/outbox.cif.g08.bks.cpg/sg15_151_cif.got.tgz:300121.got - 2010.06.03 18:47:42.
