data_PCOD9283830
_publ_section_title
;
Structure prediction by ZEFSAII (Michael W. Deem and Ramdas Pophale) SiO2 
 PCOD9283830
Probable space group: C 2/C
;
_chemical_formula_sum "Si O2"
_cell_formula_units_Z 48
_cell_length_a 16.871899
_cell_length_b 9.724040
_cell_length_c 20.763812
_cell_angle_alpha 90.000000
_cell_angle_beta 34.918241
_cell_angle_gamma 90.000000
_cell_volume 1949.946481
_symmetry_space_group_name_H-M "C 2/C"
_symmetry_group_IT_number 15
_symmetry_cell_setting 'monoclinic'
loop_
_space_group_symop_operation_xyz
x,y,z
-x,y,1/2-z
-x,-y,-z
x,-y,1/2+z
1/2+x,1/2+y,z
1/2-x,1/2+y,1/2-z
1/2-x,1/2-y,-z
1/2+x,1/2-y,1/2+z
loop_
_atom_site_type_symbol
_atom_site_label
_atom_site_fract_x
_atom_site_fract_y
_atom_site_fract_z
Si Si1 0.806185 0.408393 0.253044
Si Si2 0.260402 0.104200 0.172111
Si Si3 0.845381 0.793621 0.374068
Si Si4 0.445018 0.483819 0.892999
Si Si5 0.868087 0.151820 0.066972
Si Si6 0.562038 0.785500 0.050376
O O1 0.731866 0.259437 0.303032
O O2 0.828082 0.490211 0.172030
O O3 0.718870 0.519190 0.350910
O O4 0.963097 0.365688 0.165915
O O5 0.100740 0.063267 0.276380
O O6 0.335162 0.116365 0.054823
O O7 0.750000 0.750000 0.500000
O O8 0.743969 0.762444 0.382715
O O9 0.000000 0.734892 0.250000
O O10 0.882468 0.944421 0.373214
O O11 0.365930 0.345963 0.966002
O O12 0.446726 0.591651 0.951731
O O13 0.964081 0.214187 0.059179
#
# Coordination Sequence:
#
# PCOD9283830 Si02
#       6
#     8   8   8   8   8   8
#     4  11  21  36  61 104 140 182 227 302 362 424
#     4  11  22  37  64 104 148 183 231 303 376 421
#     4  10  25  45  70 101 139 198 244 295 356 450
#     4  10  21  40  64  97 147 188 236 296 368 425
#     4  11  21  40  69 100 147 188 245 296 365 431
#     4  11  22  37  67 108 143 183 233 316 366 428
#
# _framework density 24.616060000000001
#
# number of rings (size 3 to 8) (size 9 to 14) (size 15 to 20)
#    0.000    1.333    5.000    2.000    2.333    2.667 
#    3.000    0.000    0.000    5.000    0.000    0.000 
#    0.000    0.000    0.000    0.000    0.000    0.000 
#
# Total GULP energy -133984.245466 kJ/mol
# GULP energy per Si atom -5582.676894 kJ/mol
# Density = 2.456003 g / cm^3
# Si number density = 24.616060 Si / 1000 Ang^3
#
#
#
# Elastic Constant Matrix: (Units=GPa)
#
#
# Indices 1 2 3 4 5 6 
#
# 1 66.6429 60.3234 22.0042 0.0000 -1.4539 0.0000
# 2 60.3234 118.9056 35.0210 0.0000 -6.5132 0.0000
# 3 22.0042 35.0210 145.5652 0.0000 6.2270 0.0000
# 4 0.0000 0.0000 0.0000 53.3253 0.0000 6.9827
# 5 -1.4539 -6.5132 6.2270 0.0000 21.3068 0.0000
# 6 0.0000 0.0000 0.0000 6.9827 0.0000 51.3615
#
#
#
# Elastic Compliance Matrix: (Units=1/GPa)
#
#
# Indices 1 2 3 4 5 6 
#
# 1 0.027947 -0.014078 -0.000744 0.000000 -0.002179 0.000000
# 2 -0.014078 0.016400 -0.002016 0.000000 0.004642 0.000000
# 3 -0.000744 -0.002016 0.007591 0.000000 -0.002886 0.000000
# 4 0.000000 0.000000 0.000000 0.019093 0.000000 -0.002596
# 5 -0.002179 0.004642 -0.002886 0.000000 0.049047 0.000000
# 6 0.000000 0.000000 0.000000 -0.002596 0.000000 0.019823
#
#
# Mechanical properties :
#
#
# Convention : Reuss Voigt Hill
#
# Bulk Modulus (GPa) = 54.76276 62.86789 58.81533
# Shear Modulus (GPa) = 27.82969 39.44972 33.63970
#
# Velocity S-wave (km/s) = 3.36601 4.00759 3.70073
# Velocity P-wave (km/s) = 6.11570 6.85633 6.49658
#
# Compressibility (1/GPa) = 0.01826059
#
# Stress axis : x y z
#
# Youngs Moduli (GPa) = 35.78239 60.97469 131.73867
#
# Poissons Ratio (x) = 0.85841 0.09806
# Poissons Ratio (y) = 0.50375 0.26561
# Poissons Ratio (z) = 0.02663 0.12293
#
# Static dielectric constant tensor:
#      x y z
#    x 1.960870 0.000000 0.043770 
#    y 0.000000 2.009960 0.000000 
#    z 0.043770 0.000000 2.090390 
# 
# From -- ./inp_files/300465.got.cif
#   From: 2010.05.17/outbox.cif.g08.bks.cpg/sg15_151_cif.got.tgz:300465.got - 2010.06.03 18:47:42.
