data_PCOD9283896
_publ_section_title
;
Structure prediction by ZEFSAII (Michael W. Deem and Ramdas Pophale) SiO2 
 PCOD9283896
Probable space group: C 2/C
;
_chemical_formula_sum "Si O2"
_cell_formula_units_Z 56
_cell_length_a 26.418320
_cell_length_b 18.741592
_cell_length_c 16.959605
_cell_angle_alpha 90.000000
_cell_angle_beta 16.854994
_cell_angle_gamma 90.000000
_cell_volume 2434.732802
_symmetry_space_group_name_H-M "C 2/C"
_symmetry_group_IT_number 15
_symmetry_cell_setting 'monoclinic'
loop_
_space_group_symop_operation_xyz
x,y,z
-x,y,1/2-z
-x,-y,-z
x,-y,1/2+z
1/2+x,1/2+y,z
1/2-x,1/2+y,1/2-z
1/2-x,1/2-y,-z
1/2+x,1/2-y,1/2+z
loop_
_atom_site_type_symbol
_atom_site_label
_atom_site_fract_x
_atom_site_fract_y
_atom_site_fract_z
Si Si1 0.954979 0.583261 0.676646
Si Si2 0.716681 0.495496 0.318871
Si Si3 0.813259 0.704701 0.329469
Si Si4 0.812053 0.536372 0.504795
Si Si5 0.953621 0.888378 0.207352
Si Si6 0.300632 0.152979 0.759121
Si Si7 0.208687 0.707630 0.319482
O O1 0.856759 0.527646 0.878289
O O2 0.827056 0.622701 0.807234
O O3 0.110578 0.535409 0.405286
O O4 0.064551 0.647605 0.552129
O O5 0.546346 0.538885 0.593358
O O6 0.717834 0.413046 0.337379
O O7 0.733552 0.499068 0.199397
O O8 0.750000 0.750000 0.500000
O O9 0.667218 0.643658 0.544815
O O10 0.817001 0.733968 0.233899
O O11 0.001537 0.670231 0.064649
O O12 0.680912 0.592294 0.662137
O O13 0.000000 0.568765 0.250000
O O14 0.103490 0.832555 0.957804
O O15 0.203166 0.226302 0.886779
#
# Coordination Sequence:
#
# PCOD9283896 Si02
#       7
#     8   8   8   8   8   8   8
#     4   9  21  41  61  89 128 168 206 264 314 378
#     4  10  22  39  66  90 128 167 214 262 313 378
#     4  11  22  36  59  96 131 163 201 263 321 383
#     4  10  21  40  65  92 121 168 217 259 313 379
#     4  11  22  39  61  95 130 164 209 265 320 371
#     4  11  22  39  64  95 128 171 211 255 327 387
#     4  10  23  39  60  94 132 162 207 266 321 374
#
# _framework density 23.00047
#
# number of rings (size 3 to 8) (size 9 to 14) (size 15 to 20)
#    0.000    1.714    1.429    3.000    2.000    3.429 
#    0.000    0.000    0.000   23.143    0.000    0.000 
#    0.000    0.000    0.000    0.000    0.000    0.000 
#
# Total GULP energy -156516.104838 kJ/mol
# GULP energy per Si atom -5589.860887 kJ/mol
# Density = 2.294812 g / cm^3
# Si number density = 23.000470 Si / 1000 Ang^3
#
#
#
# Elastic Constant Matrix: (Units=GPa)
#
#
# Indices 1 2 3 4 5 6 
#
# 1 82.8109 28.0047 15.5110 -0.0006 -12.9846 0.0002
# 2 28.0047 118.9063 17.3606 0.0036 -18.1468 -0.0021
# 3 15.5110 17.3606 36.4289 0.0011 -6.7776 -0.0020
# 4 -0.0006 0.0036 0.0011 29.0300 -0.0004 -9.0062
# 5 -12.9846 -18.1468 -6.7776 -0.0004 14.1395 -0.0028
# 6 0.0002 -0.0021 -0.0020 -9.0062 -0.0028 44.5842
#
#
#
# Elastic Compliance Matrix: (Units=1/GPa)
#
#
# Indices 1 2 3 4 5 6 
#
# 1 0.014829 -0.001416 -0.003781 0.000001 0.009988 0.000001
# 2 -0.001416 0.010847 -0.002435 -0.000001 0.011453 0.000001
# 3 -0.003781 -0.002435 0.031833 0.000000 0.008661 0.000002
# 4 0.000001 -0.000001 0.000000 0.036750 0.000002 0.007424
# 5 0.009988 0.011453 0.008661 0.000002 0.098747 0.000007
# 6 0.000001 0.000001 0.000002 0.007424 0.000007 0.023929
#
#
# Mechanical properties :
#
#
# Convention : Reuss Voigt Hill
#
# Bulk Modulus (GPa) = 23.67223 39.98876 31.83050
# Shear Modulus (GPa) = 20.30205 29.36873 24.83539
#
# Velocity S-wave (km/s) = 2.97422 3.57722 3.28956
# Velocity P-wave (km/s) = 4.70202 5.87246 5.31953
#
# Compressibility (1/GPa) = 0.04224359
#
# Stress axis : x y z
#
# Youngs Moduli (GPa) = 67.43603 92.19110 31.41435
#
# Poissons Ratio (x) = 0.13056 0.11877
# Poissons Ratio (y) = 0.09550 0.07651
# Poissons Ratio (z) = 0.25497 0.22452
#
# Static dielectric constant tensor:
#      x y z
#    x 1.927070 0.000000 -0.032250 
#    y 0.000000 1.856140 0.000000 
#    z -0.032250 0.000000 1.853170 
# 
# From -- ./inp_files/223088.got.cif
#   From: 2010.05.17/outbox.cif.g08.bks.cpg/sg15_112_cif.got.tgz:223088.got - 2010.06.03 18:47:42.
