data_PCOD9283775
_publ_section_title
;
Structure prediction by ZEFSAII (Michael W. Deem and Ramdas Pophale) SiO2 
 PCOD9283775
Probable space group: C 2/C
;
_chemical_formula_sum "Si O2"
_cell_formula_units_Z 48
_cell_length_a 30.600201
_cell_length_b 8.119961
_cell_length_c 18.629120
_cell_angle_alpha 90.000000
_cell_angle_beta 154.784912
_cell_angle_gamma 90.000000
_cell_volume 1971.959780
_symmetry_space_group_name_H-M "C 2/C"
_symmetry_group_IT_number 15
_symmetry_cell_setting 'monoclinic'
loop_
_space_group_symop_operation_xyz
x,y,z
-x,y,1/2-z
-x,-y,-z
x,-y,1/2+z
1/2+x,1/2+y,z
1/2-x,1/2+y,1/2-z
1/2-x,1/2-y,-z
1/2+x,1/2-y,1/2+z
loop_
_atom_site_type_symbol
_atom_site_label
_atom_site_fract_x
_atom_site_fract_y
_atom_site_fract_z
Si Si1 0.379900 0.371625 0.812571
Si Si2 0.803726 0.139177 0.905533
Si Si3 0.635024 0.739042 0.360610
Si Si4 0.962062 0.589273 0.269712
Si Si5 0.863427 0.407051 0.885226
Si Si6 0.408168 0.712419 0.814213
O O1 0.291807 0.252953 0.710113
O O2 0.421238 0.313681 0.795721
O O3 0.341509 0.557373 0.741341
O O4 0.476308 0.358472 0.008372
O O5 0.861680 0.247578 0.933278
O O6 0.750986 0.980973 0.792572
O O7 0.866911 0.120107 0.073383
O O8 0.750000 0.750000 0.500000
O O9 0.597657 0.917428 0.330457
O O10 0.894085 0.715231 0.214561
O O11 0.000000 0.653584 0.250000
O O12 0.059378 0.536444 0.463602
O O13 0.895850 0.358665 0.853058
#
# Coordination Sequence:
#
# PCOD9283775 Si02
#       6
#     8   8   8   8   8   8
#     4  10  21  40  64  95 128 165 218 264 329 384
#     4  11  23  41  63  95 132 171 215 274 326 392
#     4  10  21  40  64  92 127 167 214 265 324 389
#     4  12  23  43  66  95 128 171 223 266 327 393
#     4  12  23  42  67  95 129 174 222 266 332 391
#     4  11  22  40  67  93 125 171 213 272 321 388
#
# _framework density 24.341266000000001
#
# number of rings (size 3 to 8) (size 9 to 14) (size 15 to 20)
#    0.000    1.000    5.000    3.500    0.000    0.000 
#    3.000    5.000    0.000    0.000    0.000    0.000 
#    0.000    0.000    0.000    0.000    0.000    0.000 
#
# Total GULP energy -134255.875005 kJ/mol
# GULP energy per Si atom -5593.994792 kJ/mol
# Density = 2.428586 g / cm^3
# Si number density = 24.341266 Si / 1000 Ang^3
#
#
#
# Elastic Constant Matrix: (Units=GPa)
#
#
# Indices 1 2 3 4 5 6 
#
# 1 122.7603 16.2777 5.2490 0.0000 -22.2746 0.0000
# 2 16.2777 45.3022 -1.9011 0.0000 -6.2729 0.0000
# 3 5.2490 -1.9011 33.6493 0.0000 3.6480 0.0000
# 4 0.0000 0.0000 0.0000 31.1429 0.0000 1.6077
# 5 -22.2746 -6.2729 3.6480 0.0000 26.7588 0.0000
# 6 0.0000 0.0000 0.0000 1.6077 0.0000 33.5132
#
#
#
# Elastic Compliance Matrix: (Units=1/GPa)
#
#
# Indices 1 2 3 4 5 6 
#
# 1 0.010078 -0.002604 -0.002601 0.000000 0.008134 0.000000
# 2 -0.002604 0.023505 0.001392 0.000000 0.003152 0.000000
# 3 -0.002601 0.001392 0.030858 0.000000 -0.006046 0.000000
# 4 0.000000 0.000000 0.000000 0.032190 0.000000 -0.001544
# 5 0.008134 0.003152 -0.006046 0.000000 0.045705 0.000000
# 6 0.000000 0.000000 0.000000 -0.001544 0.000000 0.029913
#
#
# Mechanical properties :
#
#
# Convention : Reuss Voigt Hill
#
# Bulk Modulus (GPa) = 17.60082 26.77366 22.18724
# Shear Modulus (GPa) = 25.14931 30.42207 27.78569
#
# Velocity S-wave (km/s) = 3.21782 3.53911 3.38228
# Velocity P-wave (km/s) = 4.58829 5.26531 4.93842
#
# Compressibility (1/GPa) = 0.05681552
#
# Stress axis : x y z
#
# Youngs Moduli (GPa) = 99.22319 42.54474 32.40637
#
# Poissons Ratio (x) = 0.11079 0.08429
# Poissons Ratio (y) = 0.25840 -0.04512
# Poissons Ratio (z) = 0.25808 -0.05924
#
# Static dielectric constant tensor:
#      x y z
#    x 1.903210 0.000000 -0.004190 
#    y 0.000000 1.973360 0.000000 
#    z -0.004190 0.000000 2.052490 
# 
# From -- ./inp_files/208910.got.cif
#   From: 2010.05.17/outbox.cif.g08.bks.cpg/sg15_105_cif.got.tgz:208910.got - 2010.06.03 18:47:42.
