data_PCOD9283136
_publ_section_title
;
Structure prediction by ZEFSAII (Michael W. Deem and Ramdas Pophale) SiO2 
 PCOD9283136
Probable space group: C 2/C
;
_chemical_formula_sum "Si O2"
_cell_formula_units_Z 48
_cell_length_a 9.371699
_cell_length_b 24.290404
_cell_length_c 10.323824
_cell_angle_alpha 90.000000
_cell_angle_beta 71.519992
_cell_angle_gamma 90.000000
_cell_volume 2228.953044
_symmetry_space_group_name_H-M "C 2/C"
_symmetry_group_IT_number 15
_symmetry_cell_setting 'monoclinic'
loop_
_space_group_symop_operation_xyz
x,y,z
-x,y,1/2-z
-x,-y,-z
x,-y,1/2+z
1/2+x,1/2+y,z
1/2-x,1/2+y,1/2-z
1/2-x,1/2-y,-z
1/2+x,1/2-y,1/2+z
loop_
_atom_site_type_symbol
_atom_site_label
_atom_site_fract_x
_atom_site_fract_y
_atom_site_fract_z
Si Si1 0.500000 0.856550 0.750000
Si Si2 0.668756 0.022234 0.931994
Si Si3 0.166619 0.823730 0.483953
Si Si4 0.231523 0.054217 0.329227
Si Si5 0.000000 0.882459 0.750000
Si Si6 0.012929 0.715272 0.507006
Si Si7 0.653847 0.866867 0.284010
O O1 0.642382 0.897684 0.703044
O O2 0.491865 0.818058 0.625584
O O3 0.669194 0.085066 0.883854
O O4 0.736468 0.984909 0.800894
O O5 0.754952 0.020623 0.042669
O O6 0.500000 0.000000 0.000000
O O7 0.036286 0.780380 0.483186
O O8 0.333575 0.798979 0.459363
O O9 0.205415 0.863981 0.353776
O O10 0.121529 0.847408 0.636423
O O11 0.075233 0.082505 0.341766
O O12 0.878272 0.691366 0.634244
O O13 0.500000 0.880429 0.250000
#
# Coordination Sequence:
#
# PCOD9283136 Si02
#       7
#     4   8   8   8   4   8   8
#     4  12  20  44  70 106 128 176 240 296 334 402
#     4  12  23  43  73 105 133 176 243 296 342 401
#     4  10  24  41  65  98 140 188 218 285 355 420
#     4  12  26  43  72 100 139 185 227 292 352 417
#     4  12  28  48  66  98 154 186 224 276 374 432
#     4  10  21  40  70  98 131 178 242 284 342 404
#     4  10  21  39  68 101 137 175 237 293 340 410
#
# _framework density 21.534775
#
# number of rings (size 3 to 8) (size 9 to 14) (size 15 to 20)
#    0.000    1.000    5.000    1.000   10.500    0.667 
#    3.000    1.667    0.000    0.000    0.000    0.000 
#    0.000    0.000    0.000    0.000    0.000    0.000 
#
# Total GULP energy -134048.811167 kJ/mol
# GULP energy per Si atom -5585.367132 kJ/mol
# Density = 2.148576 g / cm^3
# Si number density = 21.534775 Si / 1000 Ang^3
#
#
#
# Elastic Constant Matrix: (Units=GPa)
#
#
# Indices 1 2 3 4 5 6 
#
# 1 30.0191 8.1916 -0.9069 0.0000 12.2286 0.0000
# 2 8.1916 53.2945 27.3677 0.0000 2.5175 0.0000
# 3 -0.9069 27.3677 127.5417 0.0000 8.8574 0.0000
# 4 0.0000 0.0000 0.0000 16.6536 0.0000 12.0106
# 5 12.2286 2.5175 8.8574 0.0000 38.0975 0.0000
# 6 0.0000 0.0000 0.0000 12.0106 0.0000 10.3002
#
#
#
# Elastic Compliance Matrix: (Units=1/GPa)
#
#
# Indices 1 2 3 4 5 6 
#
# 1 0.040701 -0.007026 0.002716 0.000000 -0.013232 0.000000
# 2 -0.007026 0.022305 -0.004971 0.000000 0.001937 0.000000
# 3 0.002716 -0.004971 0.009111 0.000000 -0.002662 0.000000
# 4 0.000000 0.000000 0.000000 0.377553 0.000000 -0.440246
# 5 -0.013232 0.001937 -0.002662 0.000000 0.030986 0.000000
# 6 0.000000 0.000000 0.000000 -0.440246 0.000000 0.610435
#
#
# Mechanical properties :
#
#
# Convention : Reuss Voigt Hill
#
# Bulk Modulus (GPa) = 18.67186 31.12891 24.90038
# Shear Modulus (GPa) = 4.43458 24.75714 14.59586
#
# Velocity S-wave (km/s) = 1.43657 3.39431 2.60625
# Velocity P-wave (km/s) = 3.38246 5.46336 4.54364
#
# Compressibility (1/GPa) = 0.05355653
#
# Stress axis : x y z
#
# Youngs Moduli (GPa) = 24.56925 44.83398 109.75392
#
# Poissons Ratio (x) = 0.31499 -0.29807
# Poissons Ratio (y) = 0.17261 0.54554
# Poissons Ratio (z) = -0.06673 0.22285
#
# Static dielectric constant tensor:
#      x y z
#    x 1.755880 0.000000 0.000720 
#    y 0.000000 2.215350 0.000000 
#    z 0.000720 0.000000 1.812670 
# 
# From -- ./inp_files/33440.got.cif
#   From: 2010.05.17/outbox.cif.g08.bks.cpg/sg15_17_cif.got.tgz:33440.got - 2010.06.03 18:47:42.
