data_PCOD9283873
_publ_section_title
;
Structure prediction by ZEFSAII (Michael W. Deem and Ramdas Pophale) SiO2 
 PCOD9283873
Probable space group: C 2/C
;
_chemical_formula_sum "Si O2"
_cell_formula_units_Z 60
_cell_length_a 24.864336
_cell_length_b 15.332777
_cell_length_c 14.573588
_cell_angle_alpha 90.000000
_cell_angle_beta 148.119215
_cell_angle_gamma 90.000000
_cell_volume 2934.434424
_symmetry_space_group_name_H-M "C 2/C"
_symmetry_group_IT_number 15
_symmetry_cell_setting 'monoclinic'
loop_
_space_group_symop_operation_xyz
x,y,z
-x,y,1/2-z
-x,-y,-z
x,-y,1/2+z
1/2+x,1/2+y,z
1/2-x,1/2+y,1/2-z
1/2-x,1/2-y,-z
1/2+x,1/2-y,1/2+z
loop_
_atom_site_type_symbol
_atom_site_label
_atom_site_fract_x
_atom_site_fract_y
_atom_site_fract_z
Si Si1 0.271078 0.373627 0.332859
Si Si2 0.088529 0.127714 0.715954
Si Si3 0.983318 0.184553 0.073233
Si Si4 0.102105 0.042589 0.343456
Si Si5 0.951634 0.530046 0.282942
Si Si6 0.059478 0.636736 0.602718
Si Si7 0.500000 0.264788 0.250000
Si Si8 0.198988 0.356346 0.029158
O O1 0.374763 0.318528 0.468672
O O2 0.308320 0.451009 0.452772
O O3 0.173690 0.333701 0.242089
O O4 0.231646 0.397613 0.174324
O O5 0.033293 0.123801 0.539198
O O6 0.018458 0.176502 0.687597
O O7 0.117436 0.032036 0.791899
O O8 0.194214 0.180610 0.853601
O O9 0.073337 0.137349 0.259594
O O10 0.003777 0.280090 0.064346
O O11 0.000000 0.017448 0.250000
O O12 0.942517 0.439680 0.324084
O O13 0.844173 0.574053 0.104815
O O14 0.000000 0.521222 0.250000
O O15 0.009930 0.595548 0.438108
O O16 0.396305 0.208206 0.092014
#
# Coordination Sequence:
#
# PCOD9283873 Si02
#       8
#     8   8   8   8   8   8   4   8
#     4  10  21  40  65  89 131 170 210 273 313 388
#     4  11  22  38  64  93 121 168 217 261 327 390
#     4  10  23  40  65  91 130 170 217 270 324 387
#     4  10  21  41  62  88 127 167 210 269 320 381
#     4  11  22  41  69  96 137 170 214 278 324 394
#     4  11  23  42  68  98 131 178 218 263 340 386
#     4  12  22  38  64  90 128 162 206 278 320 388
#     4  11  21  39  64  91 128 167 209 268 328 375
#
# _framework density 20.446871000000002
#
# number of rings (size 3 to 8) (size 9 to 14) (size 15 to 20)
#    0.000    1.333    2.667    3.200    0.000    3.200 
#    0.000    1.333    5.867    0.000    0.000    0.000 
#    0.000    0.000    0.000    0.000    0.000    0.000 
#
# Total GULP energy -167284.357062 kJ/mol
# GULP energy per Si atom -5576.145235 kJ/mol
# Density = 2.040033 g / cm^3
# Si number density = 20.446871 Si / 1000 Ang^3
#
#
#
# Elastic Constant Matrix: (Units=GPa)
#
#
# Indices 1 2 3 4 5 6 
#
# 1 117.9923 41.2481 40.1759 0.0000 -5.6705 0.0000
# 2 41.2481 89.1477 30.6679 0.0000 -6.2242 0.0000
# 3 40.1759 30.6679 103.5521 0.0000 -17.1960 0.0000
# 4 0.0000 0.0000 0.0000 14.2672 0.0000 -7.7694
# 5 -5.6705 -6.2242 -17.1960 0.0000 35.2459 0.0000
# 6 0.0000 0.0000 0.0000 -7.7694 0.0000 16.7480
#
#
#
# Elastic Compliance Matrix: (Units=1/GPa)
#
#
# Indices 1 2 3 4 5 6 
#
# 1 0.010919 -0.004009 -0.003128 0.000000 -0.000478 0.000000
# 2 -0.004009 0.013968 -0.002480 0.000000 0.000612 0.000000
# 3 -0.003128 -0.002480 0.012458 0.000000 0.005137 0.000000
# 4 0.000000 0.000000 0.000000 0.093782 0.000000 0.043506
# 5 -0.000478 0.000612 0.005137 0.000000 0.030910 0.000000
# 6 0.000000 0.000000 0.000000 0.043506 0.000000 0.079891
#
#
# Mechanical properties :
#
#
# Convention : Reuss Voigt Hill
#
# Bulk Modulus (GPa) = 55.21572 59.43068 57.32320
# Shear Modulus (GPa) = 18.71264 26.49224 22.60244
#
# Velocity S-wave (km/s) = 3.02848 3.60344 3.32840
# Velocity P-wave (km/s) = 6.26834 6.81484 6.54729
#
# Compressibility (1/GPa) = 0.01811079
#
# Stress axis : x y z
#
# Youngs Moduli (GPa) = 91.58423 71.59122 80.26921
#
# Poissons Ratio (x) = 0.28703 0.25110
# Poissons Ratio (y) = 0.36719 0.19904
# Poissons Ratio (z) = 0.28649 0.17752
#
# Static dielectric constant tensor:
#      x y z
#    x 1.764350 0.000000 0.008510 
#    y 0.000000 1.725810 0.000000 
#    z 0.008510 0.000000 1.738960 
# 
# From -- ./inp_files/178560.got.cif
#   From: 2010.05.17/outbox.cif.g08.bks.cpg/sg15_90_cif.got.tgz:178560.got - 2010.06.03 18:47:42.
