data_PCOD9283683
_publ_section_title
;
Structure prediction by ZEFSAII (Michael W. Deem and Ramdas Pophale) SiO2 
 PCOD9283683
Probable space group: C 2/C
;
_chemical_formula_sum "Si O2"
_cell_formula_units_Z 40
_cell_length_a 18.157206
_cell_length_b 8.420657
_cell_length_c 13.815131
_cell_angle_alpha 90.000000
_cell_angle_beta 132.033187
_cell_angle_gamma 90.000000
_cell_volume 1568.905670
_symmetry_space_group_name_H-M "C 2/C"
_symmetry_group_IT_number 15
_symmetry_cell_setting 'monoclinic'
loop_
_space_group_symop_operation_xyz
x,y,z
-x,y,1/2-z
-x,-y,-z
x,-y,1/2+z
1/2+x,1/2+y,z
1/2-x,1/2+y,1/2-z
1/2-x,1/2-y,-z
1/2+x,1/2-y,1/2+z
loop_
_atom_site_type_symbol
_atom_site_label
_atom_site_fract_x
_atom_site_fract_y
_atom_site_fract_z
Si Si1 0.303272 0.435470 0.521585
Si Si2 0.215323 0.660462 0.744000
Si Si3 0.067528 0.868053 0.503933
Si Si4 0.601309 0.831286 0.624629
Si Si5 0.405935 0.129181 0.607012
O O1 0.260034 0.342036 0.389914
O O2 0.369290 0.570921 0.531501
O O3 0.378711 0.303373 0.628543
O O4 0.198686 0.470415 0.482688
O O5 0.144310 0.801387 0.650035
O O6 0.317050 0.696829 0.776128
O O7 0.155306 0.497674 0.686402
O O8 0.997864 0.722470 0.410314
O O9 0.000000 0.000000 0.500000
O O10 0.568974 0.839443 0.482978
O O11 0.500000 0.067070 0.750000
#
# Coordination Sequence:
#
# PCOD9283683 Si02
#       5
#     8   8   8   8   8
#     4  10  22  38  63  97 130 174 229 278 330 412
#     4  11  21  40  66  96 131 172 231 285 337 404
#     4  12  21  38  61  98 132 166 224 282 339 396
#     4  11  22  40  68  99 128 179 225 289 344 402
#     4  10  21  40  63  95 136 179 225 271 339 416
#
# _framework density 25.495479
#
# number of rings (size 3 to 8) (size 9 to 14) (size 15 to 20)
#    0.000    1.200    6.000    1.800    0.000    0.000 
#    3.600    1.000    0.000    1.200    0.000    0.000 
#    0.000    0.000    0.000    0.000    0.000    0.000 
#
# Total GULP energy -111572.584448 kJ/mol
# GULP energy per Si atom -5578.629222 kJ/mol
# Density = 2.543745 g / cm^3
# Si number density = 25.495479 Si / 1000 Ang^3
#
#
#
# Elastic Constant Matrix: (Units=GPa)
#
#
# Indices 1 2 3 4 5 6 
#
# 1 118.6738 38.2957 26.3616 0.0000 44.8781 0.0000
# 2 38.2957 98.5392 29.4572 0.0000 28.1206 0.0000
# 3 26.3616 29.4572 95.2329 0.0000 40.5703 0.0000
# 4 0.0000 0.0000 0.0000 49.2540 0.0000 18.4064
# 5 44.8781 28.1206 40.5703 0.0000 36.6679 0.0000
# 6 0.0000 0.0000 0.0000 18.4064 0.0000 35.9505
#
#
#
# Elastic Compliance Matrix: (Units=1/GPa)
#
#
# Indices 1 2 3 4 5 6 
#
# 1 0.018923 -0.000766 0.008730 0.000000 -0.032232 0.000000
# 2 -0.000766 0.013032 0.000074 0.000000 -0.009139 0.000000
# 3 0.008730 0.000074 0.023905 0.000000 -0.037190 0.000000
# 4 0.000000 0.000000 0.000000 0.025107 0.000000 -0.012854
# 5 -0.032232 -0.009139 -0.037190 0.000000 0.114879 0.000000
# 6 0.000000 0.000000 0.000000 -0.012854 0.000000 0.034397
#
#
# Mechanical properties :
#
#
# Convention : Reuss Voigt Hill
#
# Bulk Modulus (GPa) = 13.90101 55.63052 34.76577
# Shear Modulus (GPa) = 20.99569 38.92990 29.96280
#
# Velocity S-wave (km/s) = 2.87279 3.91184 3.43187
# Velocity P-wave (km/s) = 4.05809 6.50157 5.41934
#
# Compressibility (1/GPa) = 0.07193723
#
# Stress axis : x y z
#
# Youngs Moduli (GPa) = 52.84459 76.73604 41.83303
#
# Poissons Ratio (x) = 0.05876 -0.36520
# Poissons Ratio (y) = 0.04046 -0.00312
# Poissons Ratio (z) = -0.46133 -0.00571
#
# Static dielectric constant tensor:
#      x y z
#    x 2.188330 0.000000 0.052860 
#    y 0.000000 2.119480 0.000000 
#    z 0.052860 0.000000 2.064700 
# 
# From -- ./inp_files/214130.got.cif
#   From: 2010.05.17/outbox.cif.g08.bks.cpg/sg15_108_cif.got.tgz:214130.got - 2010.06.03 18:47:42.
