data_PCOD9283387
_publ_section_title
;
Structure prediction by ZEFSAII (Michael W. Deem and Ramdas Pophale) SiO2 
 PCOD9283387
Probable space group: C 2/C
;
_chemical_formula_sum "Si O2"
_cell_formula_units_Z 48
_cell_length_a 8.309832
_cell_length_b 9.055255
_cell_length_c 28.651486
_cell_angle_alpha 90.000000
_cell_angle_beta 94.960350
_cell_angle_gamma 90.000000
_cell_volume 2147.882379
_symmetry_space_group_name_H-M "C 2/C"
_symmetry_group_IT_number 15
_symmetry_cell_setting 'monoclinic'
loop_
_space_group_symop_operation_xyz
x,y,z
-x,y,1/2-z
-x,-y,-z
x,-y,1/2+z
1/2+x,1/2+y,z
1/2-x,1/2+y,1/2-z
1/2-x,1/2-y,-z
1/2+x,1/2-y,1/2+z
loop_
_atom_site_type_symbol
_atom_site_label
_atom_site_fract_x
_atom_site_fract_y
_atom_site_fract_z
Si Si1 0.083855 0.792531 0.970669
Si Si2 0.345742 0.368129 0.776416
Si Si3 0.815946 0.294008 0.638890
Si Si4 0.148503 0.212934 0.697272
Si Si5 0.434704 0.367345 0.056286
Si Si6 0.704027 0.131977 0.889865
O O1 0.078854 0.696067 0.923963
O O2 0.250000 0.750000 0.000000
O O3 0.947368 0.781751 0.007171
O O4 0.097139 0.962615 0.955834
O O5 0.500000 0.323333 0.750000
O O6 0.326307 0.291186 0.826413
O O7 0.197304 0.320970 0.739901
O O8 0.348595 0.543663 0.785141
O O9 0.832412 0.463142 0.623095
O O10 0.974879 0.247180 0.671388
O O11 0.815250 0.197352 0.592034
O O12 0.275367 0.222056 0.657534
O O13 0.615771 0.362390 0.082885
#
# Coordination Sequence:
#
# PCOD9283387 Si02
#       6
#     8   8   8   8   8   8
#     4   9  18  37  60  84 118 155 191 235 289 346
#     4  11  23  40  61  86 118 155 196 243 296 348
#     4  10  21  40  61  86 120 155 196 244 292 346
#     4  10  23  41  60  86 119 155 196 244 293 346
#     4   9  19  38  60  85 120 154 188 238 292 345
#     4   9  20  36  58  88 116 149 194 238 289 347
#
# _framework density 22.347591000000001
#
# number of rings (size 3 to 8) (size 9 to 14) (size 15 to 20)
#    0.000    2.333    0.000    1.500    0.000    8.667 
#    0.000   20.833    0.000    0.000    0.000    0.000 
#    0.000    0.000    0.000    0.000    0.000    0.000 
#
# Total GULP energy -134099.677546 kJ/mol
# GULP energy per Si atom -5587.486564 kJ/mol
# Density = 2.229673 g / cm^3
# Si number density = 22.347591 Si / 1000 Ang^3
#
#
#
# Elastic Constant Matrix: (Units=GPa)
#
#
# Indices 1 2 3 4 5 6 
#
# 1 85.5243 30.9762 61.1588 0.0000 -29.4923 0.0000
# 2 30.9762 47.4480 68.1587 0.0000 -23.4733 0.0000
# 3 61.1588 68.1587 194.6736 0.0000 -49.4737 0.0000
# 4 0.0000 0.0000 0.0000 57.0447 0.0000 4.8900
# 5 -29.4923 -23.4733 -49.4737 0.0000 33.8618 0.0000
# 6 0.0000 0.0000 0.0000 4.8900 0.0000 19.6569
#
#
#
# Elastic Compliance Matrix: (Units=1/GPa)
#
#
# Indices 1 2 3 4 5 6 
#
# 1 0.017932 -0.004549 -0.001389 0.000000 0.010435 0.000000
# 2 -0.004549 0.047011 -0.012336 0.000000 0.010604 0.000000
# 3 -0.001389 -0.012336 0.011789 0.000000 0.007463 0.000000
# 4 0.000000 0.000000 0.000000 0.017912 0.000000 -0.004456
# 5 0.010435 0.010604 0.007463 0.000000 0.056875 0.000000
# 6 0.000000 0.000000 0.000000 -0.004456 0.000000 0.051981
#
#
# Mechanical properties :
#
#
# Convention : Reuss Voigt Hill
#
# Bulk Modulus (GPa) = 24.88499 72.02591 48.45545
# Shear Modulus (GPa) = 19.72833 33.26950 26.49891
#
# Velocity S-wave (km/s) = 2.97441 3.86259 3.44722
# Velocity P-wave (km/s) = 4.79122 7.22445 6.12978
#
# Compressibility (1/GPa) = 0.04018487
#
# Stress axis : x y z
#
# Youngs Moduli (GPa) = 55.76635 21.27142 84.82767
#
# Poissons Ratio (x) = 0.09677 0.11780
# Poissons Ratio (y) = 0.25370 1.04639
# Poissons Ratio (z) = 0.07744 0.26239
#
# Static dielectric constant tensor:
#      x y z
#    x 1.842550 0.000000 -0.032280 
#    y 0.000000 1.751450 0.000000 
#    z -0.032280 0.000000 1.868130 
# 
# From -- ./inp_files/306671.got.cif
#   From: 2010.05.17/outbox.cif.g08.bks.cpg/sg15_154_cif.got.tgz:306671.got - 2010.06.03 18:47:42.
