data_PCOD9283712
_publ_section_title
;
Structure prediction by ZEFSAII (Michael W. Deem and Ramdas Pophale) SiO2 
 PCOD9283712
Probable space group: C 2/C
;
_chemical_formula_sum "Si O2"
_cell_formula_units_Z 64
_cell_length_a 13.800577
_cell_length_b 9.638907
_cell_length_c 26.624249
_cell_angle_alpha 90.000000
_cell_angle_beta 68.848836
_cell_angle_gamma 90.000000
_cell_volume 3303.030398
_symmetry_space_group_name_H-M "C 2/C"
_symmetry_group_IT_number 15
_symmetry_cell_setting 'monoclinic'
loop_
_space_group_symop_operation_xyz
x,y,z
-x,y,1/2-z
-x,-y,-z
x,-y,1/2+z
1/2+x,1/2+y,z
1/2-x,1/2+y,1/2-z
1/2-x,1/2-y,-z
1/2+x,1/2-y,1/2+z
loop_
_atom_site_type_symbol
_atom_site_label
_atom_site_fract_x
_atom_site_fract_y
_atom_site_fract_z
Si Si1 0.316880 0.379318 0.405125
Si Si2 0.533691 0.442018 0.686731
Si Si3 0.373946 0.531015 0.632650
Si Si4 0.941845 0.565205 0.928230
Si Si5 0.812153 0.691154 0.864851
Si Si6 0.601951 0.264801 0.935494
Si Si7 0.725882 0.870215 0.965312
Si Si8 0.026443 0.267346 0.563381
O O1 0.385882 0.439037 0.347204
O O2 0.201381 0.335059 0.413154
O O3 0.309806 0.507904 0.445590
O O4 0.368450 0.252345 0.424144
O O5 0.500000 0.462162 0.750000
O O6 0.432870 0.461155 0.669177
O O7 0.597583 0.296097 0.670772
O O8 0.260309 0.602634 0.659255
O O9 0.368085 0.415352 0.590241
O O10 0.450447 0.651158 0.598748
O O11 0.865590 0.587769 0.895405
O O12 0.006430 0.423890 0.918140
O O13 0.013202 0.700048 0.917128
O O14 0.877194 0.563470 0.992609
O O15 0.733451 0.792100 0.910925
O O16 0.555474 0.261512 0.000298
O O17 0.750000 0.750000 0.000000
#
# Coordination Sequence:
#
# PCOD9283712 Si02
#       8
#     8   8   8   8   8   8   8   8
#     4  10  22  37  58  87 123 168 211 259 314 369
#     4  10  23  48  67  89 121 156 210 279 331 366
#     4  11  24  40  63  94 121 166 214 251 316 378
#     4  11  21  35  55  89 134 170 205 243 295 374
#     4  10  21  40  64  86 123 162 207 260 309 375
#     4  12  22  35  57  94 135 170 208 243 307 384
#     4   9  19  31  55  85 122 170 204 238 299 366
#     4  11  23  34  56  91 134 173 204 250 302 374
#
# _framework density 19.376147
#
# number of rings (size 3 to 8) (size 9 to 14) (size 15 to 20)
#    0.000    1.500    2.500    2.625    8.750    0.000 
#    2.250    0.000    0.000    1.500    0.000    0.000 
#    0.000    0.000    0.000    0.000    0.000    0.000 
#
# Total GULP energy -178432.932237 kJ/mol
# GULP energy per Si atom -5576.029132 kJ/mol
# Density = 1.933205 g / cm^3
# Si number density = 19.376147 Si / 1000 Ang^3
#
#
#
# Elastic Constant Matrix: (Units=GPa)
#
#
# Indices 1 2 3 4 5 6 
#
# 1 99.5208 18.6766 35.8860 0.0000 10.6555 0.0000
# 2 18.6766 86.4688 22.6982 0.0000 4.4529 0.0000
# 3 35.8860 22.6982 82.2644 0.0000 7.4164 0.0000
# 4 0.0000 0.0000 0.0000 11.9208 0.0000 -1.5934
# 5 10.6555 4.4529 7.4164 0.0000 11.7372 0.0000
# 6 0.0000 0.0000 0.0000 -1.5934 0.0000 39.7312
#
#
#
# Elastic Compliance Matrix: (Units=1/GPa)
#
#
# Indices 1 2 3 4 5 6 
#
# 1 0.012780 -0.001149 -0.004508 0.000000 -0.008318 0.000000
# 2 -0.001149 0.012653 -0.002812 0.000000 -0.001981 0.000000
# 3 -0.004508 -0.002812 0.015305 0.000000 -0.004511 0.000000
# 4 0.000000 0.000000 0.000000 0.084339 0.000000 0.003382
# 5 -0.008318 -0.001981 -0.004511 0.000000 0.096353 0.000000
# 6 0.000000 0.000000 0.000000 0.003382 0.000000 0.025305
#
#
# Mechanical properties :
#
#
# Convention : Reuss Voigt Hill
#
# Bulk Modulus (GPa) = 42.01452 46.97505 44.49478
# Shear Modulus (GPa) = 18.40908 25.41072 21.90990
#
# Velocity S-wave (km/s) = 3.08570 3.62531 3.36634
# Velocity P-wave (km/s) = 5.86737 6.46686 6.17440
#
# Compressibility (1/GPa) = 0.02380130
#
# Stress axis : x y z
#
# Youngs Moduli (GPa) = 78.24814 79.03253 65.33829
#
# Poissons Ratio (x) = 0.09078 0.29455
# Poissons Ratio (y) = 0.08988 0.18370
# Poissons Ratio (z) = 0.35275 0.22220
#
# Static dielectric constant tensor:
#      x y z
#    x 1.741930 0.000000 0.000930 
#    y 0.000000 1.702230 0.000000 
#    z 0.000930 0.000000 1.633850 
# 
# From -- ./inp_files/295112.got.cif
#   From: 2010.05.17/outbox.cif.g08.bks.cpg/sg15_148_cif.got.tgz:295112.got - 2010.06.03 18:47:42.
