data_PCOD9283762
_publ_section_title
;
Structure prediction by ZEFSAII (Michael W. Deem and Ramdas Pophale) SiO2 
 PCOD9283762
Probable space group: C 2/C
;
_chemical_formula_sum "Si O2"
_cell_formula_units_Z 52
_cell_length_a 19.271055
_cell_length_b 12.587063
_cell_length_c 20.800734
_cell_angle_alpha 90.000000
_cell_angle_beta 158.801818
_cell_angle_gamma 90.000000
_cell_volume 1824.445767
_symmetry_space_group_name_H-M "C 2/C"
_symmetry_group_IT_number 15
_symmetry_cell_setting 'monoclinic'
loop_
_space_group_symop_operation_xyz
x,y,z
-x,y,1/2-z
-x,-y,-z
x,-y,1/2+z
1/2+x,1/2+y,z
1/2-x,1/2+y,1/2-z
1/2-x,1/2-y,-z
1/2+x,1/2-y,1/2+z
loop_
_atom_site_type_symbol
_atom_site_label
_atom_site_fract_x
_atom_site_fract_y
_atom_site_fract_z
Si Si1 0.531014 0.076015 0.676663
Si Si2 0.000000 0.940114 0.750000
Si Si3 0.139236 0.126487 0.796156
Si Si4 0.882716 0.216199 0.035555
Si Si5 0.775256 0.563086 0.786886
Si Si6 0.400377 0.349545 0.891764
Si Si7 0.720770 0.141277 0.371128
O O1 0.360056 0.162124 0.539559
O O2 0.563530 0.055747 0.628251
O O3 0.580966 0.961002 0.751666
O O4 0.700131 0.152769 0.851239
O O5 0.961001 0.864007 0.656254
O O6 0.157112 0.028764 0.860609
O O7 0.294173 0.116062 0.872404
O O8 0.158404 0.243389 0.842386
O O9 0.927559 0.114975 0.581031
O O10 0.031616 0.228915 0.104364
O O11 0.688982 0.447017 0.724140
O O12 0.597885 0.619885 0.597500
O O13 0.255508 0.334677 0.825109
#
# Coordination Sequence:
#
# PCOD9283762 Si02
#       7
#     8   4   8   8   8   8   8
#     4  10  21  40  64  92 119 153 203 252 303 351
#     4  12  24  40  64  86 122 172 202 232 298 364
#     4  11  21  40  62  89 124 161 198 247 298 356
#     4  11  21  40  62  89 124 161 198 247 298 356
#     4   8  14  31  61  89 117 151 194 247 302 352
#     4   8  14  31  61  89 117 151 194 247 302 352
#     4  10  21  40  64  92 119 153 203 252 303 351
#
# _framework density 28.501808
#
# number of rings (size 3 to 8) (size 9 to 14) (size 15 to 20)
#    0.000    2.154    3.077    2.769    0.000    1.231 
#    2.769    0.769    0.000    6.462    0.000    0.000 
#    0.000    0.000    0.000    0.000    0.000    0.000 
#
# Total GULP energy -145424.339386 kJ/mol
# GULP energy per Si atom -5593.243823 kJ/mol
# Density = 2.843694 g / cm^3
# Si number density = 28.501808 Si / 1000 Ang^3
#
#
#
# Elastic Constant Matrix: (Units=GPa)
#
#
# Indices 1 2 3 4 5 6 
#
# 1 103.3145 13.0343 28.9937 0.0019 -4.0587 -0.0013
# 2 13.0343 260.6855 50.8605 0.0005 0.5868 -0.0037
# 3 28.9937 50.8605 125.5104 -0.0059 -9.9236 -0.0001
# 4 0.0019 0.0005 -0.0059 53.5363 -0.0034 -4.8629
# 5 -4.0587 0.5868 -9.9236 -0.0034 13.7607 0.0000
# 6 -0.0013 -0.0037 -0.0001 -4.8629 0.0000 20.0877
#
#
#
# Elastic Compliance Matrix: (Units=1/GPa)
#
#
# Indices 1 2 3 4 5 6 
#
# 1 0.010378 -0.000083 -0.002250 0.000000 0.001442 0.000001
# 2 -0.000083 0.004195 -0.001799 0.000000 -0.001501 0.000001
# 3 -0.002250 -0.001799 0.009724 0.000002 0.006426 0.000000
# 4 0.000000 0.000000 0.000002 0.019099 0.000006 0.004624
# 5 0.001442 -0.001501 0.006426 0.000006 0.077794 0.000001
# 6 0.000001 0.000001 0.000000 0.004624 0.000001 0.050901
#
#
# Mechanical properties :
#
#
# Convention : Reuss Voigt Hill
#
# Bulk Modulus (GPa) = 62.37318 75.03192 68.70255
# Shear Modulus (GPa) = 26.92531 43.91839 35.42185
#
# Velocity S-wave (km/s) = 3.07691 3.92969 3.52915
# Velocity P-wave (km/s) = 5.87832 6.85364 6.38463
#
# Compressibility (1/GPa) = 0.01603253
#
# Stress axis : x y z
#
# Youngs Moduli (GPa) = 96.36106 238.40093 102.83523
#
# Poissons Ratio (x) = 0.01984 0.23133
# Poissons Ratio (y) = 0.00802 0.18502
# Poissons Ratio (z) = 0.21677 0.42894
#
# Static dielectric constant tensor:
#      x y z
#    x 2.253170 0.000000 0.138950 
#    y 0.000000 2.174290 -0.000010 
#    z 0.138950 -0.000010 2.323650 
# 
# From -- ./inp_files/280023.got.cif
#   From: 2010.05.17/outbox.cif.g08.bks.cpg/sg15_141_cif.got.tgz:280023.got - 2010.06.03 18:47:42.
