data_PCOD9283287
_publ_section_title
;
Structure prediction by ZEFSAII (Michael W. Deem and Ramdas Pophale) SiO2 
 PCOD9283287
Probable space group: C 2/C
;
_chemical_formula_sum "Si O2"
_cell_formula_units_Z 60
_cell_length_a 27.175706
_cell_length_b 15.590176
_cell_length_c 15.054094
_cell_angle_alpha 90.000000
_cell_angle_beta 148.338786
_cell_angle_gamma 90.000000
_cell_volume 3347.799133
_symmetry_space_group_name_H-M "C 2/C"
_symmetry_group_IT_number 15
_symmetry_cell_setting 'monoclinic'
loop_
_space_group_symop_operation_xyz
x,y,z
-x,y,1/2-z
-x,-y,-z
x,-y,1/2+z
1/2+x,1/2+y,z
1/2-x,1/2+y,1/2-z
1/2-x,1/2-y,-z
1/2+x,1/2-y,1/2+z
loop_
_atom_site_type_symbol
_atom_site_label
_atom_site_fract_x
_atom_site_fract_y
_atom_site_fract_z
Si Si1 0.753416 0.616250 0.001520
Si Si2 0.591142 0.817378 0.342557
Si Si3 0.500000 0.635906 0.750000
Si Si4 0.404520 0.682451 0.300006
Si Si5 0.750041 0.285578 0.175084
Si Si6 0.680469 0.754029 0.024436
Si Si7 0.756075 0.421585 0.036693
Si Si8 0.456787 0.579276 0.876722
O O1 0.826367 0.661736 0.047685
O O2 0.774553 0.522066 0.069870
O O3 0.654087 0.600442 0.796839
O O4 0.740736 0.684646 0.061211
O O5 0.500000 0.855662 0.250000
O O6 0.562563 0.743631 0.228641
O O7 0.655350 0.766976 0.511782
O O8 0.660603 0.879705 0.394346
O O9 0.413089 0.699928 0.602743
O O10 0.485344 0.579433 0.816248
O O11 0.329740 0.733866 0.243916
O O12 0.342425 0.604269 0.163094
O O13 0.489546 0.656452 0.492536
O O14 0.774661 0.284509 0.315224
O O15 0.748252 0.376000 0.120527
O O16 0.500000 0.500000 0.000000
#
# Coordination Sequence:
#
# PCOD9283287 Si02
#       8
#     8   8   4   8   8   8   8   8
#     4  10  22  37  56  85 119 148 187 238 280 344
#     4   9  19  33  57  86 113 149 190 235 274 343
#     4  10  22  40  62  80 114 156 196 230 280 364
#     4   9  17  34  56  80 117 148 179 227 292 338
#     4   9  18  36  60  77 112 154 185 228 286 341
#     4  10  21  40  58  81 111 159 190 227 287 341
#     4   9  18  38  55  82 116 146 182 236 288 326
#     4  11  20  36  59  87 119 147 182 242 294 338
#
# _framework density 17.922222000000001
#
# number of rings (size 3 to 8) (size 9 to 14) (size 15 to 20)
#    0.000    2.400    2.667    1.600    1.867    0.000 
#   12.000    0.000    0.000    1.600    0.000    0.000 
#    0.000    0.000    0.000    0.000    0.000    0.000 
#
# Total GULP energy -167029.030104 kJ/mol
# GULP energy per Si atom -5567.634337 kJ/mol
# Density = 1.788143 g / cm^3
# Si number density = 17.922222 Si / 1000 Ang^3
#
#
#
# Elastic Constant Matrix: (Units=GPa)
#
#
# Indices 1 2 3 4 5 6 
#
# 1 67.4721 17.5010 33.3172 0.0000 -10.2715 0.0000
# 2 17.5010 91.5294 10.9359 0.0000 -13.3417 0.0000
# 3 33.3172 10.9359 59.7333 0.0000 -12.7068 0.0000
# 4 0.0000 0.0000 0.0000 20.1008 0.0000 -9.8891
# 5 -10.2715 -13.3417 -12.7068 0.0000 33.0215 0.0000
# 6 0.0000 0.0000 0.0000 -9.8891 0.0000 11.9369
#
#
#
# Elastic Compliance Matrix: (Units=1/GPa)
#
#
# Indices 1 2 3 4 5 6 
#
# 1 0.021129 -0.002531 -0.011045 0.000000 0.001300 0.000000
# 2 -0.002531 0.011996 0.000086 0.000000 0.004092 0.000000
# 3 -0.011045 0.000086 0.024139 0.000000 0.005888 0.000000
# 4 0.000000 0.000000 0.000000 0.083976 0.000000 0.069570
# 5 0.001300 0.004092 0.005888 0.000000 0.034607 0.000000
# 6 0.000000 0.000000 0.000000 0.069570 0.000000 0.141410
#
#
# Mechanical properties :
#
#
# Convention : Reuss Voigt Hill
#
# Bulk Modulus (GPa) = 33.02185 38.02700 35.52443
# Shear Modulus (GPa) = 14.11108 23.47722 18.79415
#
# Velocity S-wave (km/s) = 2.80902 3.62325 3.24180
# Velocity P-wave (km/s) = 5.38385 6.22638 5.82038
#
# Compressibility (1/GPa) = 0.03028298
#
# Stress axis : x y z
#
# Youngs Moduli (GPa) = 47.32741 83.36371 41.42753
#
# Poissons Ratio (x) = 0.21099 0.45759
# Poissons Ratio (y) = 0.11978 -0.00357
# Poissons Ratio (z) = 0.52275 -0.00718
#
# Static dielectric constant tensor:
#      x y z
#    x 1.628660 0.000000 0.002140 
#    y 0.000000 1.625680 0.000000 
#    z 0.002140 0.000000 1.621050 
# 
# From -- ./inp_files/178565.got.cif
#   From: 2010.05.17/outbox.cif.g08.bks.cpg/sg15_90_cif.got.tgz:178565.got - 2010.06.03 18:47:42.
