data_PCOD9283717
_publ_section_title
;
Structure prediction by ZEFSAII (Michael W. Deem and Ramdas Pophale) SiO2 
 PCOD9283717
Probable space group: C 2/C
;
_chemical_formula_sum "Si O2"
_cell_formula_units_Z 64
_cell_length_a 27.493747
_cell_length_b 11.440896
_cell_length_c 14.536556
_cell_angle_alpha 90.000000
_cell_angle_beta 43.798593
_cell_angle_gamma 90.000000
_cell_volume 3164.756598
_symmetry_space_group_name_H-M "C 2/C"
_symmetry_group_IT_number 15
_symmetry_cell_setting 'monoclinic'
loop_
_space_group_symop_operation_xyz
x,y,z
-x,y,1/2-z
-x,-y,-z
x,-y,1/2+z
1/2+x,1/2+y,z
1/2-x,1/2+y,1/2-z
1/2-x,1/2-y,-z
1/2+x,1/2-y,1/2+z
loop_
_atom_site_type_symbol
_atom_site_label
_atom_site_fract_x
_atom_site_fract_y
_atom_site_fract_z
Si Si1 0.923951 0.361992 0.154224
Si Si2 0.568033 0.141125 0.359860
Si Si3 0.291045 0.948002 0.600403
Si Si4 0.932524 0.819451 0.297602
Si Si5 0.348938 0.821168 0.062705
Si Si6 0.811217 0.019214 0.922644
Si Si7 0.226292 0.342177 0.690476
Si Si8 0.671612 0.737829 0.064152
O O1 0.922107 0.502267 0.172014
O O2 0.879200 0.330928 0.123566
O O3 0.886763 0.290119 0.286538
O O4 0.005562 0.338628 0.018299
O O5 0.547835 0.212778 0.296287
O O6 0.644619 0.182483 0.287394
O O7 0.229427 0.980770 0.613726
O O8 0.264963 0.935872 0.739849
O O9 0.325040 0.824647 0.526394
O O10 0.348099 0.050296 0.520444
O O11 0.891627 0.765918 0.440143
O O12 0.000000 0.879417 0.250000
O O13 0.880723 0.904866 0.314376
O O14 0.270188 0.770480 0.162201
O O15 0.834307 0.900250 0.942749
O O16 0.758357 0.099151 0.054972
O O17 0.750000 0.750000 0.000000
#
# Coordination Sequence:
#
# PCOD9283717 Si02
#       8
#     8   8   8   8   8   8   8   8
#     4  11  22  39  63  93 131 165 211 270 327 382
#     4  11  22  40  63  95 133 163 209 280 322 381
#     4  11  22  36  66  94 120 166 209 264 323 368
#     4  11  22  41  64  91 127 173 213 258 324 381
#     4  11  21  37  63  92 123 163 215 259 316 385
#     4  10  23  42  64  90 129 168 213 269 310 389
#     4  11  23  38  65  96 128 165 221 267 319 384
#     4  10  21  40  64  87 122 165 209 256 318 378
#
# _framework density 20.222725000000001
#
# number of rings (size 3 to 8) (size 9 to 14) (size 15 to 20)
#    0.000    1.250    2.500    5.250    1.750    2.000 
#    0.000    2.500    0.000    0.000    0.000    0.000 
#    0.000    0.000    0.000    0.000    0.000    0.000 
#
# Total GULP energy -178656.312778 kJ/mol
# GULP energy per Si atom -5583.009774 kJ/mol
# Density = 2.017670 g / cm^3
# Si number density = 20.222725 Si / 1000 Ang^3
#
#
#
# Elastic Constant Matrix: (Units=GPa)
#
#
# Indices 1 2 3 4 5 6 
#
# 1 73.9559 -0.6958 21.0853 0.0000 -10.0475 0.0000
# 2 -0.6958 60.7509 3.1869 0.0000 -12.4810 0.0000
# 3 21.0853 3.1869 76.6685 0.0000 -23.2807 0.0000
# 4 0.0000 0.0000 0.0000 24.6659 0.0000 1.8672
# 5 -10.0475 -12.4810 -23.2807 0.0000 26.4809 0.0000
# 6 0.0000 0.0000 0.0000 1.8672 0.0000 29.0372
#
#
#
# Elastic Compliance Matrix: (Units=1/GPa)
#
#
# Indices 1 2 3 4 5 6 
#
# 1 0.014878 0.001033 -0.003100 0.000000 0.003406 0.000000
# 2 0.001033 0.018663 0.002360 0.000000 0.011263 0.000000
# 3 -0.003100 0.002360 0.018796 0.000000 0.016461 0.000000
# 4 0.000000 0.000000 0.000000 0.040740 0.000000 -0.002620
# 5 0.003406 0.011263 0.016461 0.000000 0.058835 0.000000
# 6 0.000000 0.000000 0.000000 -0.002620 0.000000 0.034607
#
#
# Mechanical properties :
#
#
# Convention : Reuss Voigt Hill
#
# Bulk Modulus (GPa) = 18.89572 28.72535 23.81053
# Shear Modulus (GPa) = 24.56106 28.55673 26.55889
#
# Velocity S-wave (km/s) = 3.48879 3.76188 3.62791
# Velocity P-wave (km/s) = 5.05895 5.75364 5.41744
#
# Compressibility (1/GPa) = 0.05292204
#
# Stress axis : x y z
#
# Youngs Moduli (GPa) = 67.21348 53.58316 53.20265
#
# Poissons Ratio (x) = -0.05534 0.16495
# Poissons Ratio (y) = -0.06942 -0.12557
# Poissons Ratio (z) = 0.20839 -0.12647
#
# Static dielectric constant tensor:
#      x y z
#    x 1.712660 0.000000 -0.006010 
#    y 0.000000 1.768990 0.000000 
#    z -0.006010 0.000000 1.751900 
# 
# From -- ./inp_files/177811.got.cif
#   From: 2010.05.17/outbox.cif.g08.bks.cpg/sg15_89_cif.got.tgz:177811.got - 2010.06.03 18:47:42.
