data_PCOD9283110
_publ_section_title
;
Structure prediction by ZEFSAII (Michael W. Deem and Ramdas Pophale) SiO2 
 PCOD9283110
Probable space group: C 2/C
;
_chemical_formula_sum "Si O2"
_cell_formula_units_Z 60
_cell_length_a 19.698121
_cell_length_b 18.953462
_cell_length_c 11.243441
_cell_angle_alpha 90.000000
_cell_angle_beta 44.626928
_cell_angle_gamma 90.000000
_cell_volume 2948.840394
_symmetry_space_group_name_H-M "C 2/C"
_symmetry_group_IT_number 15
_symmetry_cell_setting 'monoclinic'
loop_
_space_group_symop_operation_xyz
x,y,z
-x,y,1/2-z
-x,-y,-z
x,-y,1/2+z
1/2+x,1/2+y,z
1/2-x,1/2+y,1/2-z
1/2-x,1/2-y,-z
1/2+x,1/2-y,1/2+z
loop_
_atom_site_type_symbol
_atom_site_label
_atom_site_fract_x
_atom_site_fract_y
_atom_site_fract_z
Si Si1 0.893100 0.529810 0.620006
Si Si2 0.241703 0.348281 0.927713
Si Si3 0.096970 0.754943 0.690426
Si Si4 0.184381 0.153183 0.635036
Si Si5 0.462111 0.187399 0.504620
Si Si6 0.500000 0.281485 0.250000
Si Si7 0.309056 0.793635 0.759248
Si Si8 0.285567 0.994444 0.004994
O O1 0.906686 0.614663 0.596625
O O2 0.854931 0.509819 0.535414
O O3 0.000000 0.500000 0.500000
O O4 0.834456 0.500953 0.810635
O O5 0.314486 0.307989 0.924473
O O6 0.245342 0.324785 0.786328
O O7 0.261773 0.429592 0.918919
O O8 0.134226 0.320346 0.094741
O O9 0.000000 0.779216 0.750000
O O10 0.071518 0.743084 0.857307
O O11 0.257334 0.179218 0.441667
O O12 0.194880 0.208022 0.731910
O O13 0.213735 0.071840 0.611141
O O14 0.076321 0.170437 0.724238
O O15 0.443340 0.226076 0.403981
O O16 0.578848 0.181061 0.374441
#
# Coordination Sequence:
#
# PCOD9283110 Si02
#       8
#     8   8   8   8   8   4   8   8
#     4  12  27  39  66  99 139 175 210 268 350 411
#     4  11  23  41  64  93 134 173 215 275 331 391
#     4  11  23  40  65  93 125 174 222 267 323 399
#     4  10  23  41  67  97 128 174 225 271 327 395
#     4  11  22  40  66  96 130 165 225 272 328 399
#     4  10  24  42  68  98 122 174 230 284 316 382
#     4  10  21  39  67  94 128 170 219 275 321 390
#     4  12  26  44  64 100 139 179 214 275 342 402
#
# _framework density 20.346981
#
# number of rings (size 3 to 8) (size 9 to 14) (size 15 to 20)
#    0.000    1.067    2.667    3.600    9.333    0.000 
#    1.200    0.000    0.000    4.800    0.000    0.000 
#    0.000    0.000    0.000    0.000    0.000    0.000 
#
# Total GULP energy -167322.868235 kJ/mol
# GULP energy per Si atom -5577.428941 kJ/mol
# Density = 2.030067 g / cm^3
# Si number density = 20.346981 Si / 1000 Ang^3
#
#
#
# Elastic Constant Matrix: (Units=GPa)
#
#
# Indices 1 2 3 4 5 6 
#
# 1 70.4475 37.8628 9.6980 0.0000 1.4882 0.0000
# 2 37.8628 142.9966 8.3920 0.0000 -2.5422 0.0000
# 3 9.6980 8.3920 42.2668 0.0000 14.0860 0.0000
# 4 0.0000 0.0000 0.0000 68.8760 0.0000 38.3566
# 5 1.4882 -2.5422 14.0860 0.0000 39.1547 0.0000
# 6 0.0000 0.0000 0.0000 38.3566 0.0000 63.6735
#
#
#
# Elastic Compliance Matrix: (Units=1/GPa)
#
#
# Indices 1 2 3 4 5 6 
#
# 1 0.016926 -0.004297 -0.003094 0.000000 0.000191 0.000000
# 2 -0.004297 0.008208 -0.000995 0.000000 0.001054 0.000000
# 3 -0.003094 -0.000995 0.027893 0.000000 -0.009982 0.000000
# 4 0.000000 0.000000 0.000000 0.021848 0.000000 -0.013161
# 5 0.000191 0.001054 -0.009982 0.000000 0.029192 0.000000
# 6 0.000000 0.000000 0.000000 -0.013161 0.000000 0.023633
#
#
# Mechanical properties :
#
#
# Convention : Reuss Voigt Hill
#
# Bulk Modulus (GPa) = 27.58212 40.84631 34.21421
# Shear Modulus (GPa) = 31.93697 47.65806 39.79752
#
# Velocity S-wave (km/s) = 3.96614 4.84495 4.42740
# Velocity P-wave (km/s) = 5.87869 7.17053 6.55650
#
# Compressibility (1/GPa) = 0.03625538
#
# Stress axis : x y z
#
# Youngs Moduli (GPa) = 59.07991 121.83204 35.85091
#
# Poissons Ratio (x) = 0.52348 0.11093
# Poissons Ratio (y) = 0.25385 0.03568
# Poissons Ratio (z) = 0.18280 0.12124
#
# Static dielectric constant tensor:
#      x y z
#    x 1.733290 0.000000 0.008130 
#    y 0.000000 1.755660 0.000000 
#    z 0.008130 0.000000 1.768570 
# 
# From -- ./inp_files/113780.got.cif
#   From: 2010.05.17/outbox.cif.g08.bks.cpg/sg15_57_cif.got.tgz:113780.got - 2010.06.03 18:47:42.
