data_PCOD9283570
_publ_section_title
;
Structure prediction by ZEFSAII (Michael W. Deem and Ramdas Pophale) SiO2 
 PCOD9283570
Probable space group: C 2/C
;
_chemical_formula_sum "Si O2"
_cell_formula_units_Z 64
_cell_length_a 15.952172
_cell_length_b 15.782589
_cell_length_c 13.871989
_cell_angle_alpha 90.000000
_cell_angle_beta 123.875685
_cell_angle_gamma 90.000000
_cell_volume 2899.646914
_symmetry_space_group_name_H-M "C 2/C"
_symmetry_group_IT_number 15
_symmetry_cell_setting 'monoclinic'
loop_
_space_group_symop_operation_xyz
x,y,z
-x,y,1/2-z
-x,-y,-z
x,-y,1/2+z
1/2+x,1/2+y,z
1/2-x,1/2+y,1/2-z
1/2-x,1/2-y,-z
1/2+x,1/2-y,1/2+z
loop_
_atom_site_type_symbol
_atom_site_label
_atom_site_fract_x
_atom_site_fract_y
_atom_site_fract_z
Si Si1 0.715272 0.139821 0.888713
Si Si2 0.597019 0.231729 0.379149
Si Si3 0.383023 0.523072 0.915003
Si Si4 0.421234 0.035096 0.831445
Si Si5 0.776990 0.109002 0.476303
Si Si6 0.474989 0.864789 0.940427
Si Si7 0.722402 0.503540 0.832586
Si Si8 0.764053 0.681237 0.375557
O O1 0.628697 0.076172 0.794802
O O2 0.710681 0.228963 0.828912
O O3 0.825371 0.097778 0.937125
O O4 0.705264 0.166174 0.992951
O O5 0.500000 0.238120 0.250000
O O6 0.676181 0.162122 0.390966
O O7 0.649409 0.321164 0.430265
O O8 0.559493 0.198658 0.458703
O O9 0.361490 0.544466 0.789517
O O10 0.500000 0.500000 0.000000
O O11 0.321935 0.440097 0.913774
O O12 0.471155 0.942713 0.861585
O O13 0.326793 0.021125 0.843733
O O14 0.496084 0.096002 0.937618
O O15 0.765006 0.039366 0.552912
O O16 0.365996 0.822507 0.878952
O O17 0.701130 0.403473 0.816324
#
# Coordination Sequence:
#
# PCOD9283570 Si02
#       8
#     8   8   8   8   8   8   8   8
#     4  10  22  42  62  94 127 175 219 268 336 391
#     4  11  27  41  70 102 136 174 223 282 343 409
#     4  11  26  42  69  96 128 185 228 268 337 412
#     4   9  20  38  65  92 126 169 211 269 329 391
#     4  11  25  48  66  99 142 176 226 284 340 408
#     4  10  21  40  62  99 125 163 220 271 333 401
#     4  10  21  43  67  91 130 176 213 275 338 389
#     4  10  22  39  65  92 132 168 215 279 326 393
#
# _framework density 22.071653000000001
#
# number of rings (size 3 to 8) (size 9 to 14) (size 15 to 20)
#    0.000    1.750    2.500    0.000    8.750    2.500 
#    0.000    0.000    0.000    0.000    0.000    0.000 
#    0.000    0.000    0.000    0.000    0.000    0.000 
#
# Total GULP energy -178736.778023 kJ/mol
# GULP energy per Si atom -5585.524313 kJ/mol
# Density = 2.202142 g / cm^3
# Si number density = 22.071653 Si / 1000 Ang^3
#
#
#
# Elastic Constant Matrix: (Units=GPa)
#
#
# Indices 1 2 3 4 5 6 
#
# 1 45.4449 23.3958 11.2624 0.0000 2.9897 0.0000
# 2 23.3958 84.2906 5.5737 0.0000 2.6359 0.0000
# 3 11.2624 5.5737 82.9653 0.0000 4.9962 0.0000
# 4 0.0000 0.0000 0.0000 21.0806 0.0000 1.7226
# 5 2.9897 2.6359 4.9962 0.0000 30.2957 0.0000
# 6 0.0000 0.0000 0.0000 1.7226 0.0000 17.3110
#
#
#
# Elastic Compliance Matrix: (Units=1/GPa)
#
#
# Indices 1 2 3 4 5 6 
#
# 1 0.026516 -0.007113 -0.003031 0.000000 -0.001498 0.000000
# 2 -0.007113 0.013850 0.000066 0.000000 -0.000514 0.000000
# 3 -0.003031 0.000066 0.012567 0.000000 -0.001779 0.000000
# 4 0.000000 0.000000 0.000000 0.047826 0.000000 -0.004759
# 5 -0.001498 -0.000514 -0.001779 0.000000 0.033494 0.000000
# 6 0.000000 0.000000 0.000000 -0.004759 0.000000 0.058240
#
#
# Mechanical properties :
#
#
# Convention : Reuss Voigt Hill
#
# Bulk Modulus (GPa) = 30.50901 32.57385 31.54143
# Shear Modulus (GPa) = 22.36387 25.23540 23.79963
#
# Velocity S-wave (km/s) = 3.18660 3.38500 3.28729
# Velocity P-wave (km/s) = 5.23373 5.48342 5.36003
#
# Compressibility (1/GPa) = 0.03277720
#
# Stress axis : x y z
#
# Youngs Moduli (GPa) = 37.71284 72.20427 79.57056
#
# Poissons Ratio (x) = 0.51356 0.24122
# Poissons Ratio (y) = 0.26823 -0.00525
# Poissons Ratio (z) = 0.11433 -0.00477
#
# Static dielectric constant tensor:
#      x y z
#    x 1.819350 0.000000 -0.015810 
#    y 0.000000 1.821460 0.000000 
#    z -0.015810 0.000000 1.833770 
# 
# From -- ./inp_files/162568.got.cif
#   From: 2010.05.17/outbox.cif.g08.bks.cpg/sg15_82_cif.got.tgz:162568.got - 2010.06.03 18:47:42.
