data_PCOD9283699
_publ_section_title
;
Structure prediction by ZEFSAII (Michael W. Deem and Ramdas Pophale) SiO2 
 PCOD9283699
Probable space group: C 2/C
;
_chemical_formula_sum "Si O2"
_cell_formula_units_Z 36
_cell_length_a 17.033227
_cell_length_b 14.637654
_cell_length_c 5.446537
_cell_angle_alpha 90.000000
_cell_angle_beta 83.844138
_cell_angle_gamma 90.000000
_cell_volume 1350.135704
_symmetry_space_group_name_H-M "C 2/C"
_symmetry_group_IT_number 15
_symmetry_cell_setting 'monoclinic'
loop_
_space_group_symop_operation_xyz
x,y,z
-x,y,1/2-z
-x,-y,-z
x,-y,1/2+z
1/2+x,1/2+y,z
1/2-x,1/2+y,1/2-z
1/2-x,1/2-y,-z
1/2+x,1/2-y,1/2+z
loop_
_atom_site_type_symbol
_atom_site_label
_atom_site_fract_x
_atom_site_fract_y
_atom_site_fract_z
Si Si1 0.657062 0.479154 0.675508
Si Si2 0.000000 0.104969 0.750000
Si Si3 0.915271 0.735739 0.500786
Si Si4 0.660029 0.724882 0.988627
Si Si5 0.086900 0.470727 0.668342
O O1 0.697965 0.523419 0.425628
O O2 0.574681 0.536082 0.736769
O O3 0.646215 0.376390 0.595133
O O4 0.020227 0.181584 0.533833
O O5 0.888524 0.719639 0.789184
O O6 0.928311 0.634159 0.395882
O O7 0.858035 0.770219 0.295777
O O8 0.750000 0.750000 0.000000
O O9 0.126740 0.518306 0.420719
O O10 0.000000 0.513561 0.750000
#
# Coordination Sequence:
#
# PCOD9283699 Si02
#       5
#     8   4   8   8   8
#     4  12  24  42  68 109 147 178 227 300 365 434
#     4  12  24  42  76 120 142 170 236 298 418 392
#     4  12  25  42  75 105 138 181 237 304 357 436
#     4  12  27  47  66  96 146 197 238 277 341 429
#     4  10  21  40  63  98 137 172 221 284 358 419
#
# _framework density 26.663988
#
# number of rings (size 3 to 8) (size 9 to 14) (size 15 to 20)
#    0.000    0.444    5.556    2.667    0.000    0.889 
#    0.000    6.667    0.000    0.000    0.000    0.000 
#    0.000    0.000    0.000    0.000    0.000    0.000 
#
# Total GULP energy -100460.625642 kJ/mol
# GULP energy per Si atom -5581.145869 kJ/mol
# Density = 2.660330 g / cm^3
# Si number density = 26.663988 Si / 1000 Ang^3
#
#
#
# Elastic Constant Matrix: (Units=GPa)
#
#
# Indices 1 2 3 4 5 6 
#
# 1 70.3100 27.6225 40.0643 0.0000 8.8292 0.0000
# 2 27.6225 164.9027 27.6497 0.0000 -3.9415 0.0000
# 3 40.0643 27.6497 190.5037 0.0000 15.8100 0.0000
# 4 0.0000 0.0000 0.0000 48.5207 0.0000 11.3494
# 5 8.8292 -3.9415 15.8100 0.0000 39.0135 0.0000
# 6 0.0000 0.0000 0.0000 11.3494 0.0000 3.4952
#
#
#
# Elastic Compliance Matrix: (Units=1/GPa)
#
#
# Indices 1 2 3 4 5 6 
#
# 1 0.017285 -0.002456 -0.003036 0.000000 -0.002930 0.000000
# 2 -0.002456 0.006605 -0.000562 0.000000 0.001451 0.000000
# 3 -0.003036 -0.000562 0.006123 0.000000 -0.001851 0.000000
# 4 0.000000 0.000000 0.000000 0.085711 0.000000 -0.278321
# 5 -0.002930 0.001451 -0.001851 0.000000 0.027192 0.000000
# 6 0.000000 0.000000 0.000000 -0.278321 0.000000 1.189869
#
#
# Mechanical properties :
#
#
# Convention : Reuss Voigt Hill
#
# Bulk Modulus (GPa) = 55.85323 68.48771 62.17047
# Shear Modulus (GPa) = 3.70134 40.23120 21.96627
#
# Velocity S-wave (km/s) = 1.17947 3.88857 2.87334
# Velocity P-wave (km/s) = 4.77990 6.77514 5.86302
#
# Compressibility (1/GPa) = 0.01790407
#
# Stress axis : x y z
#
# Youngs Moduli (GPa) = 57.85208 151.40850 163.32148
#
# Poissons Ratio (x) = 0.37193 0.49577
# Poissons Ratio (y) = 0.14211 0.09185
# Poissons Ratio (z) = 0.17561 0.08515
#
# Static dielectric constant tensor:
#      x y z
#    x 2.166780 0.000000 0.083040 
#    y 0.000000 2.065850 0.000000 
#    z 0.083040 0.000000 2.350040 
# 
# From -- ./inp_files/12566.got.cif
#   From: 2010.05.17/outbox.cif.g08.bks.cpg/sg15_7_cif.got.tgz:12566.got - 2010.06.03 18:47:42.
