data_PCOD9283932
_publ_section_title
;
Structure prediction by ZEFSAII (Michael W. Deem and Ramdas Pophale) SiO2 
 PCOD9283932
Probable space group: C 2/C
;
_chemical_formula_sum "Si O2"
_cell_formula_units_Z 64
_cell_length_a 9.645559
_cell_length_b 26.954405
_cell_length_c 20.046751
_cell_angle_alpha 90.000000
_cell_angle_beta 141.396488
_cell_angle_gamma 90.000000
_cell_volume 3251.885721
_symmetry_space_group_name_H-M "C 2/C"
_symmetry_group_IT_number 15
_symmetry_cell_setting 'monoclinic'
loop_
_space_group_symop_operation_xyz
x,y,z
-x,y,1/2-z
-x,-y,-z
x,-y,1/2+z
1/2+x,1/2+y,z
1/2-x,1/2+y,1/2-z
1/2-x,1/2-y,-z
1/2+x,1/2-y,1/2+z
loop_
_atom_site_type_symbol
_atom_site_label
_atom_site_fract_x
_atom_site_fract_y
_atom_site_fract_z
Si Si1 0.697142 0.161012 0.368776
Si Si2 0.513574 0.776982 0.905090
Si Si3 0.875633 0.757177 0.840143
Si Si4 0.237806 0.512749 0.820051
Si Si5 0.008789 0.929674 0.522084
Si Si6 0.736050 0.489681 0.326434
Si Si7 0.184048 0.432028 0.527527
Si Si8 0.180784 0.313955 0.531015
O O1 0.500000 0.138971 0.250000
O O2 0.582538 0.171595 0.395770
O O3 0.765616 0.213483 0.361047
O O4 0.909690 0.126304 0.450675
O O5 0.325083 0.751377 0.787879
O O6 0.750000 0.750000 0.000000
O O7 0.403177 0.787997 0.933593
O O8 0.009486 0.707710 0.911056
O O9 0.069792 0.794384 0.888222
O O10 0.282354 0.463898 0.880609
O O11 0.251711 0.499624 0.747783
O O12 0.000000 0.533817 0.750000
O O13 0.415170 0.551481 0.916434
O O14 0.838221 0.939050 0.519399
O O15 0.500000 0.463799 0.250000
O O16 0.737568 0.536983 0.377560
O O17 0.943344 0.454965 0.421564
O O18 0.176543 0.373094 0.535642
#
# Coordination Sequence:
#
# PCOD9283932 Si02
#       8
#     8   8   8   8   8   8   8   8
#     4  10  21  40  65  94 128 164 214 263 315 378
#     4  11  23  41  63  96 131 168 211 270 325 386
#     4  10  22  42  67  91 134 172 214 268 326 393
#     4  11  23  40  64  91 130 170 208 262 331 381
#     4  11  22  40  65  95 126 167 217 269 316 395
#     4  11  24  44  64  94 133 171 212 276 329 386
#     4  11  24  42  68  96 128 168 227 270 325 391
#     4  11  23  42  68  97 129 173 222 268 328 392
#
# _framework density 19.680887999999999
#
# number of rings (size 3 to 8) (size 9 to 14) (size 15 to 20)
#    0.000    1.250    5.000    0.750    0.000    5.000 
#    4.500    0.000    2.750    0.000    0.000    0.000 
#    0.000    0.000    0.000    0.000    0.000    0.000 
#
# Total GULP energy -178491.113100 kJ/mol
# GULP energy per Si atom -5577.847284 kJ/mol
# Density = 1.963609 g / cm^3
# Si number density = 19.680888 Si / 1000 Ang^3
#
#
#
# Elastic Constant Matrix: (Units=GPa)
#
#
# Indices 1 2 3 4 5 6 
#
# 1 88.3111 6.6714 41.1846 0.0000 -0.2460 0.0000
# 2 6.6714 58.2860 31.8436 0.0000 -1.2645 0.0000
# 3 41.1846 31.8436 134.6735 0.0001 -0.6722 0.0001
# 4 0.0000 0.0000 0.0001 11.6520 0.0000 7.2217
# 5 -0.2460 -1.2645 -0.6722 0.0000 32.0025 0.0000
# 6 0.0000 0.0000 0.0001 7.2217 0.0000 28.1396
#
#
#
# Elastic Compliance Matrix: (Units=1/GPa)
#
#
# Indices 1 2 3 4 5 6 
#
# 1 0.013240 0.000801 -0.004238 0.000000 0.000044 0.000000
# 2 0.000801 0.019765 -0.004915 0.000000 0.000684 0.000000
# 3 -0.004238 -0.004915 0.009883 0.000000 -0.000019 0.000000
# 4 0.000000 0.000000 0.000000 0.102055 0.000000 -0.026191
# 5 0.000044 0.000684 -0.000019 0.000000 0.031274 0.000000
# 6 0.000000 0.000000 0.000000 -0.026191 0.000000 0.042259
#
#
# Mechanical properties :
#
#
# Convention : Reuss Voigt Hill
#
# Bulk Modulus (GPa) = 38.19110 48.96331 43.57720
# Shear Modulus (GPa) = 20.49945 27.79688 24.14817
#
# Velocity S-wave (km/s) = 3.23087 3.76224 3.50664
# Velocity P-wave (km/s) = 5.77627 6.61855 6.21171
#
# Compressibility (1/GPa) = 0.02618411
#
# Stress axis : x y z
#
# Youngs Moduli (GPa) = 75.53073 50.59410 101.17937
#
# Poissons Ratio (x) = -0.04052 0.42880
# Poissons Ratio (y) = -0.06049 0.49730
# Poissons Ratio (z) = 0.32010 0.24867
#
# Static dielectric constant tensor:
#      x y z
#    x 1.687140 0.000000 0.047290 
#    y 0.000000 1.692880 0.000000 
#    z 0.047290 0.000000 1.518330 
# 
# From -- ./inp_files/194247.got.cif
#   From: 2010.05.17/outbox.cif.g08.bks.cpg/sg15_98_cif.got.tgz:194247.got - 2010.06.03 18:47:42.
