data_PCOD9283986
_publ_section_title
;
Structure prediction by ZEFSAII (Michael W. Deem and Ramdas Pophale) SiO2 
 PCOD9283986
Probable space group: C 2/C
;
_chemical_formula_sum "Si O2"
_cell_formula_units_Z 60
_cell_length_a 25.143152
_cell_length_b 8.232831
_cell_length_c 21.234324
_cell_angle_alpha 90.000000
_cell_angle_beta 137.492063
_cell_angle_gamma 90.000000
_cell_volume 2969.999339
_symmetry_space_group_name_H-M "C 2/C"
_symmetry_group_IT_number 15
_symmetry_cell_setting 'monoclinic'
loop_
_space_group_symop_operation_xyz
x,y,z
-x,y,1/2-z
-x,-y,-z
x,-y,1/2+z
1/2+x,1/2+y,z
1/2-x,1/2+y,1/2-z
1/2-x,1/2-y,-z
1/2+x,1/2-y,1/2+z
loop_
_atom_site_type_symbol
_atom_site_label
_atom_site_fract_x
_atom_site_fract_y
_atom_site_fract_z
Si Si1 0.855950 0.383302 0.840152
Si Si2 0.500000 0.131610 0.250000
Si Si3 0.551296 0.375601 0.402692
Si Si4 0.368861 0.046629 0.713644
Si Si5 0.758852 0.117445 0.690469
Si Si6 0.727522 0.652979 0.043882
Si Si7 0.407475 0.379742 0.799580
Si Si8 0.986288 0.805920 0.992808
O O1 0.874573 0.458093 0.787271
O O2 0.790184 0.245162 0.769695
O O3 0.814184 0.514601 0.847723
O O4 0.933786 0.299387 0.937399
O O5 0.531511 0.247652 0.331960
O O6 0.565871 0.024074 0.275390
O O7 0.640742 0.423557 0.467846
O O8 0.484505 0.516140 0.346135
O O9 0.549213 0.287999 0.468937
O O10 0.380767 0.237860 0.730267
O O11 0.287150 0.990492 0.612542
O O12 0.736832 0.216860 0.608786
O O13 0.835292 0.003308 0.745974
O O14 0.750000 0.750000 0.000000
O O15 0.430833 0.284421 0.884429
O O16 0.000000 0.000000 0.000000
#
# Coordination Sequence:
#
# PCOD9283986 Si02
#       8
#     8   4   8   8   8   8   8   8
#     4  11  22  41  67 100 140 179 221 286 346 407
#     4  12  22  46  70  94 138 188 236 272 340 406
#     4  11  23  43  75  94 134 190 230 276 345 418
#     4  11  25  43  67 103 139 175 234 286 341 409
#     4  11  24  42  70 101 138 181 227 287 355 406
#     4  11  25  47  73  97 135 187 237 280 345 424
#     4  11  25  43  68 103 138 173 228 292 350 408
#     4  10  21  40  66 100 132 174 230 275 345 415
#
# _framework density 20.202024999999999
#
# number of rings (size 3 to 8) (size 9 to 14) (size 15 to 20)
#    0.000    1.067    5.333    1.600    5.600    4.267 
#    0.000    0.667    0.000    0.000    0.000    0.000 
#    0.000    0.000    0.000    0.000    0.000    0.000 
#
# Total GULP energy -167610.481437 kJ/mol
# GULP energy per Si atom -5587.016048 kJ/mol
# Density = 2.015604 g / cm^3
# Si number density = 20.202025 Si / 1000 Ang^3
#
#
#
# Elastic Constant Matrix: (Units=GPa)
#
#
# Indices 1 2 3 4 5 6 
#
# 1 112.8871 61.1692 115.6110 0.0000 44.2127 0.0000
# 2 61.1692 85.6624 -57.2167 0.0000 -23.6340 0.0000
# 3 115.6110 -57.2167 -546.1337 -0.0001 -212.0478 -0.0001
# 4 0.0000 0.0000 -0.0001 61.0360 -0.0001 12.1214
# 5 44.2127 -23.6340 -212.0478 -0.0001 -41.1748 0.0000
# 6 0.0000 0.0000 -0.0001 12.1214 0.0000 38.2266
#
#
#
# Elastic Compliance Matrix: (Units=1/GPa)
#
#
# Indices 1 2 3 4 5 6 
#
# 1 0.009001 -0.004818 0.002417 0.000000 -0.000018 0.000000
# 2 -0.004818 0.013495 -0.002584 0.000000 0.000386 0.000000
# 3 0.002417 -0.002584 0.002633 0.000000 -0.009483 0.000000
# 4 0.000000 0.000000 0.000000 0.017485 0.000000 -0.005544
# 5 -0.000018 0.000386 -0.009483 0.000000 0.024310 0.000000
# 6 0.000000 0.000000 0.000000 -0.005544 0.000000 0.027918
#
#
# Mechanical properties :
#
#
# Convention : Reuss Voigt Hill
#
# Bulk Modulus (GPa) = 65.95995 -12.05080 26.95458
# Shear Modulus (GPa) = 45.51124 -19.52562 12.99281
#
# Velocity S-wave (km/s) = 4.75152 -3.11226 2.53878
# Velocity P-wave (km/s) = 7.92614 4.34660 4.68672
#
# Compressibility (1/GPa) = 0.01516072
#
# Stress axis : x y z
#
# Youngs Moduli (GPa) = 111.10405 74.10289 379.74446
#
# Poissons Ratio (x) = 0.35700 -0.91790
# Poissons Ratio (y) = 0.53526 0.98107
# Poissons Ratio (z) = -0.26856 0.19145
#
# Static dielectric constant tensor:
#      x y z
#    x 2.002090 0.000000 0.219050 
#    y 0.000000 1.508310 0.000000 
#    z 0.219050 0.000000 1.920180 
# 
# From -- ./inp_files/255200.got.cif
#   From: 2010.05.17/outbox.cif.g08.bks.cpg/sg15_128_cif.got.tgz:255200.got - 2010.06.03 18:47:42.
