data_PCOD9283326
_publ_section_title
;
Structure prediction by ZEFSAII (Michael W. Deem and Ramdas Pophale) SiO2 
 PCOD9283326
Probable space group: C 2/C
;
_chemical_formula_sum "Si O2"
_cell_formula_units_Z 60
_cell_length_a 18.185281
_cell_length_b 10.504966
_cell_length_c 23.392760
_cell_angle_alpha 90.000000
_cell_angle_beta 40.890834
_cell_angle_gamma 90.000000
_cell_volume 2925.400470
_symmetry_space_group_name_H-M "C 2/C"
_symmetry_group_IT_number 15
_symmetry_cell_setting 'monoclinic'
loop_
_space_group_symop_operation_xyz
x,y,z
-x,y,1/2-z
-x,-y,-z
x,-y,1/2+z
1/2+x,1/2+y,z
1/2-x,1/2+y,1/2-z
1/2-x,1/2-y,-z
1/2+x,1/2-y,1/2+z
loop_
_atom_site_type_symbol
_atom_site_label
_atom_site_fract_x
_atom_site_fract_y
_atom_site_fract_z
Si Si1 0.500000 0.509787 0.250000
Si Si2 0.133304 0.096187 0.573813
Si Si3 0.392809 0.103301 0.285861
Si Si4 0.290107 0.242044 0.565888
Si Si5 0.627429 0.983526 0.408392
Si Si6 0.317706 0.103466 0.924850
Si Si7 0.436119 0.890310 0.175796
Si Si8 0.200696 0.197671 0.161258
O O1 0.474188 0.440712 0.325528
O O2 0.608207 0.595540 0.197014
O O3 0.195958 0.199451 0.576111
O O4 0.122759 0.167230 0.518762
O O5 0.218019 0.975900 0.513981
O O6 0.500000 0.173659 0.250000
O O7 0.279931 0.181855 0.345747
O O8 0.365073 0.995979 0.349762
O O9 0.425316 0.030245 0.210011
O O10 0.329903 0.112221 0.568571
O O11 0.619926 0.908736 0.352789
O O12 0.500000 0.000000 0.500000
O O13 0.697805 0.115016 0.371427
O O14 0.429156 0.139543 0.896781
O O15 0.273250 0.219965 0.911624
O O16 0.363111 0.791370 0.256505
#
# Coordination Sequence:
#
# PCOD9283326 Si02
#       8
#     4   8   8   8   8   8   8   8
#     4  12  22  40  66 102 122 152 228 284 318 374
#     4  10  22  38  64  96 126 161 210 274 328 376
#     4   8  17  34  65  97 122 159 209 265 324 380
#     4  10  21  40  59  89 131 166 212 257 325 400
#     4  12  27  43  60  91 136 180 218 261 337 409
#     4   9  18  41  69  95 127 167 213 268 326 390
#     4  10  21  40  68  95 131 171 215 268 327 393
#     4  11  23  43  67 100 127 165 226 273 322 391
#
# _framework density 20.510012
#
# number of rings (size 3 to 8) (size 9 to 14) (size 15 to 20)
#    0.000    1.867    2.667    1.600    2.800    2.667 
#    2.400    0.000    0.000    3.200    0.000    0.000 
#    0.000    0.000    0.000    0.000    0.000    0.000 
#
# Total GULP energy -167135.109586 kJ/mol
# GULP energy per Si atom -5571.170320 kJ/mol
# Density = 2.046333 g / cm^3
# Si number density = 20.510012 Si / 1000 Ang^3
#
#
#
# Elastic Constant Matrix: (Units=GPa)
#
#
# Indices 1 2 3 4 5 6 
#
# 1 36.5106 10.7666 8.8555 0.0000 -1.1594 0.0000
# 2 10.7666 78.3383 37.3439 0.0000 -2.4766 0.0000
# 3 8.8555 37.3439 93.6322 0.0000 7.4984 0.0000
# 4 0.0000 0.0000 0.0000 29.1998 0.0000 16.3735
# 5 -1.1594 -2.4766 7.4984 0.0000 21.6938 0.0000
# 6 0.0000 0.0000 0.0000 16.3735 0.0000 8.8848
#
#
#
# Elastic Compliance Matrix: (Units=1/GPa)
#
#
# Indices 1 2 3 4 5 6 
#
# 1 0.028758 -0.003130 -0.001611 0.000000 0.001736 0.000000
# 2 -0.003130 0.016463 -0.006589 0.000000 0.003990 0.000000
# 3 -0.001611 -0.006589 0.013913 0.000000 -0.005647 0.000000
# 4 0.000000 0.000000 0.000000 -1.026278 0.000000 1.891296
# 5 0.001736 0.003990 -0.005647 0.000000 0.048596 0.000000
# 6 0.000000 0.000000 0.000000 1.891296 0.000000 -3.372859
#
#
# Mechanical properties :
#
#
# Convention : Reuss Voigt Hill
#
# Bulk Modulus (GPa) = 27.41692 35.82367 31.62029
# Shear Modulus (GPa) = -1.17465 22.05670 10.44102
#
# Velocity S-wave (km/s) = -0.75760 3.28290 2.25870
# Velocity P-wave (km/s) = 3.55406 5.64573 4.71729
#
# Compressibility (1/GPa) = 0.03647383
#
# Stress axis : x y z
#
# Youngs Moduli (GPa) = 34.77287 60.74376 71.87645
#
# Poissons Ratio (x) = 0.19011 0.11577
# Poissons Ratio (y) = 0.10883 0.47362
# Poissons Ratio (z) = 0.05601 0.40026
#
# Static dielectric constant tensor:
#      x y z
#    x 1.696290 0.000000 0.007080 
#    y 0.000000 1.773110 0.000000 
#    z 0.007080 0.000000 1.822020 
# 
# From -- ./inp_files/277269.got.cif
#   From: 2010.05.17/outbox.cif.g08.bks.cpg/sg15_139_cif.got.tgz:277269.got - 2010.06.03 18:47:42.
