data_PCOD9283131
_publ_section_title
;
Structure prediction by ZEFSAII (Michael W. Deem and Ramdas Pophale) SiO2 
 PCOD9283131
Probable space group: C 2/C
;
_chemical_formula_sum "Si O2"
_cell_formula_units_Z 40
_cell_length_a 12.020518
_cell_length_b 17.015771
_cell_length_c 7.129653
_cell_angle_alpha 90.000000
_cell_angle_beta 93.693863
_cell_angle_gamma 90.000000
_cell_volume 1455.258129
_symmetry_space_group_name_H-M "C 2/C"
_symmetry_group_IT_number 15
_symmetry_cell_setting 'monoclinic'
loop_
_space_group_symop_operation_xyz
x,y,z
-x,y,1/2-z
-x,-y,-z
x,-y,1/2+z
1/2+x,1/2+y,z
1/2-x,1/2+y,1/2-z
1/2-x,1/2-y,-z
1/2+x,1/2-y,1/2+z
loop_
_atom_site_type_symbol
_atom_site_label
_atom_site_fract_x
_atom_site_fract_y
_atom_site_fract_z
Si Si1 0.908430 0.045285 0.364212
Si Si2 0.191180 0.361518 0.944077
Si Si3 0.245253 0.898921 0.143633
Si Si4 0.968047 0.603156 0.535663
Si Si5 0.900025 0.237661 0.857563
O O1 0.831076 0.970536 0.294126
O O2 0.000000 0.089794 0.250000
O O3 0.811643 0.104117 0.410678
O O4 0.000000 0.000000 0.500000
O O5 0.199018 0.356761 0.170594
O O6 0.075742 0.413132 0.917243
O O7 0.166444 0.287794 0.808348
O O8 0.339737 0.925776 0.006582
O O9 0.170909 0.829316 0.052418
O O10 0.950281 0.696751 0.500292
O O11 0.000000 0.580529 0.750000
O O12 0.000000 0.198142 0.750000
#
# Coordination Sequence:
#
# PCOD9283131 Si02
#       5
#     8   8   8   8   8
#     4  12  26  45  64  97 134 178 221 267 336 393
#     4  10  23  43  64  94 135 172 222 269 328 397
#     4  11  22  42  67  95 136 170 222 275 325 394
#     4   9  21  41  64  97 129 169 218 273 330 382
#     4  10  21  39  67  99 131 173 220 272 332 389
#
# _framework density 27.486532
#
# number of rings (size 3 to 8) (size 9 to 14) (size 15 to 20)
#    0.000    1.600    2.000    1.800    2.800    0.800 
#    0.000    7.000    0.000    0.000    0.000    0.000 
#    0.000    0.000    0.000    0.000    0.000    0.000 
#
# Total GULP energy -111561.043479 kJ/mol
# GULP energy per Si atom -5578.052174 kJ/mol
# Density = 2.742397 g / cm^3
# Si number density = 27.486532 Si / 1000 Ang^3
#
#
#
# Elastic Constant Matrix: (Units=GPa)
#
#
# Indices 1 2 3 4 5 6 
#
# 1 293.5795 58.6906 36.3647 0.0000 -46.4208 0.0000
# 2 58.6906 80.0165 -7.5893 0.0000 -10.9459 0.0000
# 3 36.3647 -7.5893 51.0538 0.0000 14.1809 0.0000
# 4 0.0000 0.0000 0.0000 11.5308 0.0000 14.2663
# 5 -46.4208 -10.9459 14.1809 0.0000 53.3159 0.0000
# 6 0.0000 0.0000 0.0000 14.2663 0.0000 30.8928
#
#
#
# Elastic Compliance Matrix: (Units=1/GPa)
#
#
# Indices 1 2 3 4 5 6 
#
# 1 0.006050 -0.004225 -0.006651 0.000000 0.006169 0.000000
# 2 -0.004225 0.015885 0.005924 0.000000 -0.001993 0.000000
# 3 -0.006651 0.005924 0.028588 0.000000 -0.012178 0.000000
# 4 0.000000 0.000000 0.000000 0.202319 0.000000 -0.093431
# 5 0.006169 -0.001993 -0.012178 0.000000 0.026958 0.000000
# 6 0.000000 0.000000 0.000000 -0.093431 0.000000 0.075516
#
#
# Mechanical properties :
#
#
# Convention : Reuss Voigt Hill
#
# Bulk Modulus (GPa) = 24.61838 66.62022 45.61930
# Shear Modulus (GPa) = 13.20098 41.62683 27.41391
#
# Velocity S-wave (km/s) = 2.19389 3.89581 3.16152
# Velocity P-wave (km/s) = 3.92345 6.67281 5.47357
#
# Compressibility (1/GPa) = 0.04062005
#
# Stress axis : x y z
#
# Youngs Moduli (GPa) = 165.28608 62.95118 34.97983
#
# Poissons Ratio (x) = 0.26594 0.23265
# Poissons Ratio (y) = 0.69826 -0.20722
# Poissons Ratio (z) = 1.09932 -0.37292
#
# Static dielectric constant tensor:
#      x y z
#    x 2.229040 0.000000 -0.028090 
#    y 0.000000 1.906540 0.000000 
#    z -0.028090 0.000000 2.377580 
# 
# From -- ./inp_files/29243.got.cif
#   From: 2010.05.17/outbox.cif.g08.bks.cpg/sg15_15_cif.got.tgz:29243.got - 2010.06.03 18:47:42.
