data_PCOD9283308
_publ_section_title
;
Structure prediction by ZEFSAII (Michael W. Deem and Ramdas Pophale) SiO2 
 PCOD9283308
Probable space group: C 2/C
;
_chemical_formula_sum "Si O2"
_cell_formula_units_Z 60
_cell_length_a 17.571794
_cell_length_b 23.083939
_cell_length_c 15.609472
_cell_angle_alpha 90.000000
_cell_angle_beta 34.437712
_cell_angle_gamma 90.000000
_cell_volume 3580.589221
_symmetry_space_group_name_H-M "C 2/C"
_symmetry_group_IT_number 15
_symmetry_cell_setting 'monoclinic'
loop_
_space_group_symop_operation_xyz
x,y,z
-x,y,1/2-z
-x,-y,-z
x,-y,1/2+z
1/2+x,1/2+y,z
1/2-x,1/2+y,1/2-z
1/2-x,1/2-y,-z
1/2+x,1/2-y,1/2+z
loop_
_atom_site_type_symbol
_atom_site_label
_atom_site_fract_x
_atom_site_fract_y
_atom_site_fract_z
Si Si1 0.404905 0.084513 0.133825
Si Si2 0.644011 0.365430 0.422431
Si Si3 0.763996 0.818888 0.979093
Si Si4 0.989684 0.696478 0.157529
Si Si5 0.840478 0.153806 0.219724
Si Si6 0.756471 0.733124 0.691972
Si Si7 0.629389 0.953917 0.290065
Si Si8 0.500000 0.890141 0.250000
O O1 0.446736 0.133131 0.163298
O O2 0.281450 0.111673 0.194356
O O3 0.365367 0.023006 0.210919
O O4 0.531670 0.070337 0.955227
O O5 0.671209 0.342615 0.493690
O O6 0.485079 0.369493 0.556569
O O7 0.709336 0.319083 0.296729
O O8 0.725006 0.424839 0.336356
O O9 0.840924 0.835580 0.821111
O O10 0.750000 0.750000 0.000000
O O11 0.617679 0.848570 0.106569
O O12 0.000000 0.697481 0.250000
O O13 0.873246 0.740633 0.235281
O O14 0.128215 0.713610 0.981216
O O15 0.814164 0.215385 0.198106
O O16 0.563443 0.929930 0.264387
#
# Coordination Sequence:
#
# PCOD9283308 Si02
#       8
#     8   8   8   8   8   8   8   4
#     4  10  22  39  63  82 110 152 198 242 286 337
#     4  11  22  35  57  84 122 156 187 234 288 348
#     4  11  22  31  55  87 126 157 185 226 286 351
#     4  11  23  39  60  87 113 146 194 242 295 343
#     4  11  22  37  56  88 120 153 195 229 288 355
#     4  11  21  37  59  85 117 150 186 236 295 344
#     4  10  21  40  59  84 112 152 197 241 283 333
#     4  10  22  36  58  88 118 148 194 244 276 344
#
# _framework density 16.757019
#
# number of rings (size 3 to 8) (size 9 to 14) (size 15 to 20)
#    0.000    1.333    5.333    0.800    2.800    0.533 
#    0.000    0.000    0.000    0.000    0.000    0.000 
#    0.000    0.000    0.000    0.000    0.000    0.000 
#
# Total GULP energy -167508.068505 kJ/mol
# GULP energy per Si atom -5583.602283 kJ/mol
# Density = 1.671888 g / cm^3
# Si number density = 16.757019 Si / 1000 Ang^3
#
#
#
# Elastic Constant Matrix: (Units=GPa)
#
#
# Indices 1 2 3 4 5 6 
#
# 1 83.8761 37.5244 51.5572 0.0022 12.7132 -0.0005
# 2 37.5244 113.1643 49.9205 0.0006 8.8578 0.0005
# 3 51.5572 49.9205 128.4421 0.0036 1.3389 -0.0014
# 4 0.0022 0.0006 0.0036 24.8912 -0.0026 0.8953
# 5 12.7132 8.8578 1.3389 -0.0026 27.5460 0.0008
# 6 -0.0005 0.0005 -0.0014 0.8953 0.0008 13.5469
#
#
#
# Elastic Compliance Matrix: (Units=1/GPa)
#
#
# Indices 1 2 3 4 5 6 
#
# 1 0.017950 -0.002715 -0.006076 -0.000001 -0.007116 0.000001
# 2 -0.002715 0.011371 -0.003306 0.000000 -0.002243 -0.000001
# 3 -0.006076 -0.003306 0.011475 -0.000001 0.003310 0.000001
# 4 -0.000001 0.000000 -0.000001 0.040271 0.000005 -0.002662
# 5 -0.007116 -0.002243 0.003310 0.000005 0.040148 -0.000002
# 6 0.000001 -0.000001 0.000001 -0.002662 -0.000002 0.073993
#
#
# Mechanical properties :
#
#
# Convention : Reuss Voigt Hill
#
# Bulk Modulus (GPa) = 60.23348 67.05407 63.64378
# Shear Modulus (GPa) = 22.22849 25.62884 23.92867
#
# Velocity S-wave (km/s) = 3.64609 3.91505 3.78296
# Velocity P-wave (km/s) = 7.33134 7.78069 7.55936
#
# Compressibility (1/GPa) = 0.01660206
#
# Stress axis : x y z
#
# Youngs Moduli (GPa) = 55.70916 87.94277 87.14525
#
# Poissons Ratio (x) = 0.23875 0.52950
# Poissons Ratio (y) = 0.15124 0.28813
# Poissons Ratio (z) = 0.33849 0.29077
#
# Static dielectric constant tensor:
#      x y z
#    x 1.548380 0.000000 -0.003810 
#    y 0.000000 1.530680 0.000000 
#    z -0.003810 0.000000 1.560320 
# 
# From -- ./inp_files/42711.got.cif
#   From: 2010.05.17/outbox.cif.g08.bks.cpg/sg15_22_cif.got.tgz:42711.got - 2010.06.03 18:47:42.
