data_PCOD9283314
_publ_section_title
;
Structure prediction by ZEFSAII (Michael W. Deem and Ramdas Pophale) SiO2 
 PCOD9283314
Probable space group: C 2/C
;
_chemical_formula_sum "Si O2"
_cell_formula_units_Z 48
_cell_length_a 24.560393
_cell_length_b 13.595845
_cell_length_c 12.995627
_cell_angle_alpha 90.000000
_cell_angle_beta 148.892189
_cell_angle_gamma 90.000000
_cell_volume 2241.998078
_symmetry_space_group_name_H-M "C 2/C"
_symmetry_group_IT_number 15
_symmetry_cell_setting 'monoclinic'
loop_
_space_group_symop_operation_xyz
x,y,z
-x,y,1/2-z
-x,-y,-z
x,-y,1/2+z
1/2+x,1/2+y,z
1/2-x,1/2+y,1/2-z
1/2-x,1/2-y,-z
1/2+x,1/2-y,1/2+z
loop_
_atom_site_type_symbol
_atom_site_label
_atom_site_fract_x
_atom_site_fract_y
_atom_site_fract_z
Si Si1 0.757529 0.460200 0.696106
Si Si2 0.408633 0.442264 0.250142
Si Si3 0.935309 0.406104 0.856652
Si Si4 0.847697 0.321070 0.346780
Si Si5 0.233004 0.334363 0.057936
Si Si6 0.133711 0.888351 0.678363
O O1 0.660779 0.434269 0.464317
O O2 0.855568 0.390228 0.822899
O O3 0.792829 0.573731 0.733984
O O4 0.723030 0.442879 0.756370
O O5 0.525836 0.400734 0.437098
O O6 0.399012 0.555241 0.271192
O O7 0.347114 0.384355 0.241550
O O8 0.852584 0.410718 0.628660
O O9 0.000000 0.500000 0.000000
O O10 0.026682 0.334775 0.965609
O O11 0.811861 0.300079 0.405976
O O12 0.827335 0.223238 0.248229
O O13 0.250000 0.250000 0.000000
#
# Coordination Sequence:
#
# PCOD9283314 Si02
#       6
#     8   8   8   8   8   8
#     4  10  21  40  59  86 125 156 199 254 306 364
#     4  10  22  38  57  86 122 156 197 254 303 359
#     4   9  20  35  55  84 117 150 193 250 298 355
#     4  11  21  36  61  89 118 162 201 248 307 366
#     4  11  20  35  60  89 116 154 203 250 300 360
#     4  11  22  38  60  87 120 159 203 250 306 363
#
# _framework density 21.409475
#
# number of rings (size 3 to 8) (size 9 to 14) (size 15 to 20)
#    0.000    1.667    1.667    4.000    0.000    2.000 
#    0.000    0.000    0.000    0.000    0.000    0.000 
#    0.000    0.000    0.000    0.000    0.000    0.000 
#
# Total GULP energy -133653.020068 kJ/mol
# GULP energy per Si atom -5568.875836 kJ/mol
# Density = 2.136075 g / cm^3
# Si number density = 21.409475 Si / 1000 Ang^3
#
#
#
# Elastic Constant Matrix: (Units=GPa)
#
#
# Indices 1 2 3 4 5 6 
#
# 1 98.1774 27.0100 16.7408 0.0000 24.8415 0.0000
# 2 27.0100 85.1920 1.1043 0.0000 11.1554 0.0000
# 3 16.7408 1.1043 55.3561 0.0000 17.9388 0.0000
# 4 0.0000 0.0000 0.0000 22.1606 0.0000 3.7950
# 5 24.8415 11.1554 17.9388 0.0000 28.4915 0.0000
# 6 0.0000 0.0000 0.0000 3.7950 0.0000 38.0507
#
#
#
# Elastic Compliance Matrix: (Units=1/GPa)
#
#
# Indices 1 2 3 4 5 6 
#
# 1 0.013756 -0.002996 -0.000746 0.000000 -0.010351 0.000000
# 2 -0.002996 0.013148 0.001841 0.000000 -0.003695 0.000000
# 3 -0.000746 0.001841 0.022962 0.000000 -0.014527 0.000000
# 4 0.000000 0.000000 0.000000 0.045909 0.000000 -0.004579
# 5 -0.010351 -0.003695 -0.014527 0.000000 0.054717 0.000000
# 6 0.000000 0.000000 0.000000 -0.004579 0.000000 0.026737
#
#
# Mechanical properties :
#
#
# Convention : Reuss Voigt Hill
#
# Bulk Modulus (GPa) = 21.70911 36.49286 29.10099
# Shear Modulus (GPa) = 25.46005 30.66525 28.06265
#
# Velocity S-wave (km/s) = 3.45221 3.78871 3.62437
# Velocity P-wave (km/s) = 5.10415 6.01841 5.58004
#
# Compressibility (1/GPa) = 0.04606360
#
# Stress axis : x y z
#
# Youngs Moduli (GPa) = 72.69398 76.05655 43.55115
#
# Poissons Ratio (x) = 0.22789 0.03249
# Poissons Ratio (y) = 0.21781 -0.08019
# Poissons Ratio (z) = 0.05423 -0.14003
#
# Static dielectric constant tensor:
#      x y z
#    x 1.784560 0.000000 -0.000060 
#    y 0.000000 1.907340 0.000000 
#    z -0.000060 0.000000 1.782900 
# 
# From -- ./inp_files/152436.got.cif
#   From: 2010.05.17/outbox.cif.g08.bks.cpg/sg15_77_cif.got.tgz:152436.got - 2010.06.03 18:47:42.
