data_PCOD9283489
_publ_section_title
;
Structure prediction by ZEFSAII (Michael W. Deem and Ramdas Pophale) SiO2 
 PCOD9283489
Probable space group: C 2/C
;
_chemical_formula_sum "Si O2"
_cell_formula_units_Z 40
_cell_length_a 30.876684
_cell_length_b 8.739110
_cell_length_c 16.105717
_cell_angle_alpha 90.000000
_cell_angle_beta 151.436289
_cell_angle_gamma 90.000000
_cell_volume 2077.921212
_symmetry_space_group_name_H-M "C 2/C"
_symmetry_group_IT_number 15
_symmetry_cell_setting 'monoclinic'
loop_
_space_group_symop_operation_xyz
x,y,z
-x,y,1/2-z
-x,-y,-z
x,-y,1/2+z
1/2+x,1/2+y,z
1/2-x,1/2+y,1/2-z
1/2-x,1/2-y,-z
1/2+x,1/2-y,1/2+z
loop_
_atom_site_type_symbol
_atom_site_label
_atom_site_fract_x
_atom_site_fract_y
_atom_site_fract_z
Si Si1 0.734304 0.743202 0.611155
Si Si2 0.613477 0.158884 0.765177
Si Si3 0.232104 0.908224 0.280810
Si Si4 0.550743 0.660125 0.578823
Si Si5 0.341173 0.810645 0.608420
O O1 0.648215 0.748666 0.404660
O O2 0.819055 0.700971 0.696083
O O3 0.726344 0.631224 0.675038
O O4 0.750212 0.913424 0.673009
O O5 0.514325 0.211592 0.570692
O O6 0.631197 0.981483 0.816029
O O7 0.139738 0.860470 0.171969
O O8 0.314085 0.819963 0.466420
O O9 0.500000 0.500000 0.500000
O O10 0.581081 0.705386 0.722944
O O11 0.250000 0.750000 0.500000
#
# Coordination Sequence:
#
# PCOD9283489 Si02
#       5
#     8   8   8   8   8
#     4  10  22  38  62  89 119 159 198 248 298 364
#     4  10  21  40  62  87 123 160 199 244 311 357
#     4  10  22  39  60  89 119 156 204 245 298 360
#     4  11  21  38  63  90 120 155 204 249 304 358
#     4   9  21  38  60  87 116 162 198 240 298 368
#
# _framework density 19.250008999999999
#
# number of rings (size 3 to 8) (size 9 to 14) (size 15 to 20)
#    0.000    2.000    2.000    0.600    8.400    0.800 
#    0.000    1.000    0.000    0.000    0.000    0.000 
#    0.000    0.000    0.000    0.000    0.000    0.000 
#
# Total GULP energy -111593.426396 kJ/mol
# GULP energy per Si atom -5579.671320 kJ/mol
# Density = 1.920619 g / cm^3
# Si number density = 19.250009 Si / 1000 Ang^3
#
#
#
# Elastic Constant Matrix: (Units=GPa)
#
#
# Indices 1 2 3 4 5 6 
#
# 1 65.4862 16.6210 36.2741 0.0000 -28.9367 0.0000
# 2 16.6210 58.8925 37.4007 0.0000 -5.7351 0.0000
# 3 36.2741 37.4007 122.6539 0.0000 -5.6327 0.0000
# 4 0.0000 0.0000 0.0000 39.8945 0.0000 -2.1780
# 5 -28.9367 -5.7351 -5.6327 0.0000 22.2666 0.0000
# 6 0.0000 0.0000 0.0000 -2.1780 0.0000 29.1837
#
#
#
# Elastic Compliance Matrix: (Units=1/GPa)
#
#
# Indices 1 2 3 4 5 6 
#
# 1 0.047712 -0.000594 -0.011219 0.000000 0.059014 0.000000
# 2 -0.000594 0.021396 -0.006203 0.000000 0.003170 0.000000
# 3 -0.011219 -0.006203 0.012768 0.000000 -0.012948 0.000000
# 4 0.000000 0.000000 0.000000 0.025169 0.000000 0.001878
# 5 0.059014 0.003170 -0.012948 0.000000 0.119143 0.000000
# 6 0.000000 0.000000 0.000000 0.001878 0.000000 0.034406
#
#
# Mechanical properties :
#
#
# Convention : Reuss Voigt Hill
#
# Bulk Modulus (GPa) = 21.81322 47.51380 34.66351
# Shear Modulus (GPa) = 16.03041 28.71807 22.37424
#
# Velocity S-wave (km/s) = 2.88887 3.86663 3.41295
# Velocity P-wave (km/s) = 4.74168 6.68360 5.79457
#
# Compressibility (1/GPa) = 0.04584376
#
# Stress axis : x y z
#
# Youngs Moduli (GPa) = 20.95889 46.73840 78.32107
#
# Poissons Ratio (x) = 0.02775 0.87872
# Poissons Ratio (y) = 0.01244 0.48583
# Poissons Ratio (z) = 0.23515 0.28992
#
# Static dielectric constant tensor:
#      x y z
#    x 1.632860 0.000000 -0.003140 
#    y 0.000000 1.710570 0.000000 
#    z -0.003140 0.000000 1.698380 
# 
# From -- ./inp_files/150540.got.cif
#   From: 2010.05.17/outbox.cif.g08.bks.cpg/sg15_76_cif.got.tgz:150540.got - 2010.06.03 18:47:42.
