data_PCOD9283403
_publ_section_title
;
Structure prediction by ZEFSAII (Michael W. Deem and Ramdas Pophale) SiO2 
 PCOD9283403
Probable space group: C 2/C
;
_chemical_formula_sum "Si O2"
_cell_formula_units_Z 60
_cell_length_a 12.922979
_cell_length_b 14.683010
_cell_length_c 15.089362
_cell_angle_alpha 90.000000
_cell_angle_beta 82.401305
_cell_angle_gamma 90.000000
_cell_volume 2838.036867
_symmetry_space_group_name_H-M "C 2/C"
_symmetry_group_IT_number 15
_symmetry_cell_setting 'monoclinic'
loop_
_space_group_symop_operation_xyz
x,y,z
-x,y,1/2-z
-x,-y,-z
x,-y,1/2+z
1/2+x,1/2+y,z
1/2-x,1/2+y,1/2-z
1/2-x,1/2-y,-z
1/2+x,1/2-y,1/2+z
loop_
_atom_site_type_symbol
_atom_site_label
_atom_site_fract_x
_atom_site_fract_y
_atom_site_fract_z
Si Si1 0.299985 0.209514 0.122889
Si Si2 0.879412 0.856634 0.971523
Si Si3 0.933351 0.675070 0.672124
Si Si4 0.570832 0.915170 0.010586
Si Si5 0.000000 0.032616 0.750000
Si Si6 0.794017 0.863318 0.260439
Si Si7 0.587522 0.624379 0.367098
Si Si8 0.232768 0.990274 0.407834
O O1 0.184629 0.170869 0.110393
O O2 0.308107 0.262333 0.214959
O O3 0.330492 0.288236 0.048873
O O4 0.379684 0.130436 0.083041
O O5 0.002597 0.853263 0.951385
O O6 0.850903 0.955901 0.010425
O O7 0.816291 0.634632 0.675367
O O8 0.913007 0.782554 0.686951
O O9 0.000000 0.642064 0.750000
O O10 0.005349 0.654311 0.579059
O O11 0.661825 0.958471 0.059325
O O12 0.500000 0.000000 0.000000
O O13 0.098288 0.096783 0.711532
O O14 0.039310 0.962392 0.820853
O O15 0.774192 0.931488 0.180562
O O16 0.700683 0.592641 0.387529
#
# Coordination Sequence:
#
# PCOD9283403 Si02
#       8
#     8   8   8   8   4   8   8   8
#     4   9  18  35  59  85 118 157 209 249 310 373
#     4   9  16  31  61  84 108 152 199 251 302 362
#     4  12  22  40  67  93 125 166 217 262 311 382
#     4  11  23  42  62  90 124 173 215 257 316 390
#     4  10  24  38  58  92 130 156 204 262 326 372
#     4  10  21  40  61  88 124 166 202 263 319 374
#     4  11  20  35  61  94 119 154 212 264 310 367
#     4   9  20  37  57  87 122 153 201 258 317 367
#
# _framework density 21.141375
#
# number of rings (size 3 to 8) (size 9 to 14) (size 15 to 20)
#    0.000    1.867    3.333    2.000    0.000    2.133 
#    4.800    0.667    0.000    0.000    0.000    0.000 
#    0.000    0.000    0.000    0.000    0.000    0.000 
#
# Total GULP energy -167093.566029 kJ/mol
# GULP energy per Si atom -5569.785534 kJ/mol
# Density = 2.109326 g / cm^3
# Si number density = 21.141375 Si / 1000 Ang^3
#
#
#
# Elastic Constant Matrix: (Units=GPa)
#
#
# Indices 1 2 3 4 5 6 
#
# 1 105.2787 28.1790 6.3467 0.0000 -19.4517 0.0000
# 2 28.1790 67.5927 -0.1901 0.0000 4.2236 0.0000
# 3 6.3467 -0.1901 18.5688 0.0000 -11.4589 0.0000
# 4 0.0000 0.0000 0.0000 8.2681 0.0000 4.3498
# 5 -19.4517 4.2236 -11.4589 0.0000 20.0654 0.0000
# 6 0.0000 0.0000 0.0000 4.3498 0.0000 28.9924
#
#
#
# Elastic Compliance Matrix: (Units=1/GPa)
#
#
# Indices 1 2 3 4 5 6 
#
# 1 0.014715 -0.007359 0.007187 0.000000 0.019919 0.000000
# 2 -0.007359 0.018765 -0.006382 0.000000 -0.014728 0.000000
# 3 0.007187 -0.006382 0.087186 0.000000 0.058100 0.000000
# 4 0.000000 0.000000 0.000000 0.131311 0.000000 -0.019701
# 5 0.019919 -0.014728 0.058100 0.000000 0.105427 0.000000
# 6 0.000000 0.000000 0.000000 -0.019701 0.000000 0.037448
#
#
# Mechanical properties :
#
#
# Convention : Reuss Voigt Hill
#
# Bulk Modulus (GPa) = 9.29725 28.90127 19.09926
# Shear Modulus (GPa) = 11.26604 21.93882 16.60243
#
# Velocity S-wave (km/s) = 2.31095 3.22486 2.80537
# Velocity P-wave (km/s) = 3.39527 5.25038 4.42122
#
# Compressibility (1/GPa) = 0.10755870
#
# Stress axis : x y z
#
# Youngs Moduli (GPa) = 67.95622 53.29101 11.46973
#
# Poissons Ratio (x) = 0.39218 -0.08243
# Poissons Ratio (y) = 0.50010 0.07319
# Poissons Ratio (z) = -0.48840 0.34008
#
# Static dielectric constant tensor:
#      x y z
#    x 1.796650 0.000000 0.045880 
#    y 0.000000 1.814180 0.000000 
#    z 0.045880 0.000000 1.835600 
# 
# From -- ./inp_files/197871.got.cif
#   From: 2010.05.17/outbox.cif.g08.bks.cpg/sg15_99_cif.got.tgz:197871.got - 2010.06.03 18:47:42.
