data_PCOD9283879
_publ_section_title
;
Structure prediction by ZEFSAII (Michael W. Deem and Ramdas Pophale) SiO2 
 PCOD9283879
Probable space group: C 2/C
;
_chemical_formula_sum "Si O2"
_cell_formula_units_Z 64
_cell_length_a 12.495294
_cell_length_b 25.808470
_cell_length_c 17.547684
_cell_angle_alpha 90.000000
_cell_angle_beta 143.072762
_cell_angle_gamma 90.000000
_cell_volume 3399.841726
_symmetry_space_group_name_H-M "C 2/C"
_symmetry_group_IT_number 15
_symmetry_cell_setting 'monoclinic'
loop_
_space_group_symop_operation_xyz
x,y,z
-x,y,1/2-z
-x,-y,-z
x,-y,1/2+z
1/2+x,1/2+y,z
1/2-x,1/2+y,1/2-z
1/2-x,1/2-y,-z
1/2+x,1/2-y,1/2+z
loop_
_atom_site_type_symbol
_atom_site_label
_atom_site_fract_x
_atom_site_fract_y
_atom_site_fract_z
Si Si1 0.168363 0.171645 0.303397
Si Si2 0.154247 0.791378 0.275536
Si Si3 0.468541 0.745627 0.957527
Si Si4 0.699732 0.911257 0.507779
Si Si5 0.800235 0.406156 0.324627
Si Si6 0.690852 0.471808 0.401684
Si Si7 0.538658 0.359403 0.961101
Si Si8 0.990554 0.051196 0.547529
O O1 0.339386 0.207447 0.406214
O O2 0.207695 0.119117 0.370504
O O3 0.000000 0.197671 0.250000
O O4 0.105811 0.157305 0.183805
O O5 0.329452 0.760990 0.405584
O O6 0.069543 0.765074 0.152724
O O7 0.213538 0.850001 0.289095
O O8 0.000000 0.793562 0.250000
O O9 0.409715 0.693547 0.967814
O O10 0.491612 0.899813 0.395312
O O11 0.799259 0.888579 0.490010
O O12 0.728624 0.971863 0.537728
O O13 0.804398 0.435979 0.408707
O O14 0.677080 0.439083 0.197240
O O15 0.500000 0.477003 0.250000
O O16 0.649927 0.450479 0.462936
O O17 0.459560 0.399829 0.975880
O O18 0.000000 0.000000 0.500000
#
# Coordination Sequence:
#
# PCOD9283879 Si02
#       8
#     8   8   8   8   8   8   8   8
#     4  10  23  40  65  97 135 173 214 264 336 398
#     4  12  25  46  67  96 133 176 228 276 332 395
#     4  12  24  44  68  98 134 175 222 278 332 398
#     4  11  22  41  65  97 130 170 218 271 323 403
#     4  11  24  40  67  93 126 170 225 265 324 396
#     4  10  21  40  65  90 125 174 213 263 324 388
#     4  11  23  40  67  96 134 172 213 268 340 382
#     4  11  22  41  63  92 128 167 214 270 330 388
#
# _framework density 18.824406
#
# number of rings (size 3 to 8) (size 9 to 14) (size 15 to 20)
#    0.000    1.000    5.000    3.000    1.750    3.500 
#    0.000    0.000    0.000    0.000    0.000    0.000 
#    0.000    0.000    0.000    0.000    0.000    0.000 
#
# Total GULP energy -178682.170671 kJ/mol
# GULP energy per Si atom -5583.817833 kJ/mol
# Density = 1.878156 g / cm^3
# Si number density = 18.824406 Si / 1000 Ang^3
#
#
#
# Elastic Constant Matrix: (Units=GPa)
#
#
# Indices 1 2 3 4 5 6 
#
# 1 85.1150 53.3743 52.9906 0.0000 -9.1719 0.0000
# 2 53.3743 98.9621 39.8613 0.0000 -12.0990 0.0000
# 3 52.9906 39.8613 94.7146 -0.0001 -14.2678 0.0001
# 4 0.0000 0.0000 -0.0001 21.6826 0.0000 1.4173
# 5 -9.1719 -12.0990 -14.2678 0.0000 30.8731 0.0000
# 6 0.0000 0.0000 0.0001 1.4173 0.0000 27.1093
#
#
#
# Elastic Compliance Matrix: (Units=1/GPa)
#
#
# Indices 1 2 3 4 5 6 
#
# 1 0.022896 -0.008723 -0.009274 0.000000 -0.000903 0.000000
# 2 -0.008723 0.015686 -0.001274 0.000000 0.002967 0.000000
# 3 -0.009274 -0.001274 0.016974 0.000000 0.004590 0.000000
# 4 0.000000 0.000000 0.000000 0.046278 0.000000 -0.002419
# 5 -0.000903 0.002967 0.004590 0.000000 0.035406 0.000000
# 6 0.000000 0.000000 0.000000 -0.002419 0.000000 0.037014
#
#
# Mechanical properties :
#
#
# Convention : Reuss Voigt Hill
#
# Bulk Modulus (GPa) = 58.78044 63.47155 61.12600
# Shear Modulus (GPa) = 22.88654 24.77069 23.82861
#
# Velocity S-wave (km/s) = 3.49060 3.63144 3.56172
# Velocity P-wave (km/s) = 6.89487 7.16757 7.03254
#
# Compressibility (1/GPa) = 0.01701246
#
# Stress axis : x y z
#
# Youngs Moduli (GPa) = 43.67604 63.75271 58.91207
#
# Poissons Ratio (x) = 0.55614 0.54637
# Poissons Ratio (y) = 0.38100 0.07505
# Poissons Ratio (z) = 0.40507 0.08122
#
# Static dielectric constant tensor:
#      x y z
#    x 1.662640 0.000000 -0.022550 
#    y 0.000000 1.641390 0.000000 
#    z -0.022550 0.000000 1.614520 
# 
# From -- ./inp_files/148799.got.cif
#   From: 2010.05.17/outbox.cif.g08.bks.cpg/sg15_75_cif.got.tgz:148799.got - 2010.06.03 18:47:42.
