data_PCOD9283269
_publ_section_title
;
Structure prediction by ZEFSAII (Michael W. Deem and Ramdas Pophale) SiO2 
 PCOD9283269
Probable space group: C 2/C
;
_chemical_formula_sum "Si O2"
_cell_formula_units_Z 56
_cell_length_a 14.378187
_cell_length_b 13.535568
_cell_length_c 13.615086
_cell_angle_alpha 90.000000
_cell_angle_beta 89.750706
_cell_angle_gamma 90.000000
_cell_volume 2649.701129
_symmetry_space_group_name_H-M "C 2/C"
_symmetry_group_IT_number 15
_symmetry_cell_setting 'monoclinic'
loop_
_space_group_symop_operation_xyz
x,y,z
-x,y,1/2-z
-x,-y,-z
x,-y,1/2+z
1/2+x,1/2+y,z
1/2-x,1/2+y,1/2-z
1/2-x,1/2-y,-z
1/2+x,1/2-y,1/2+z
loop_
_atom_site_type_symbol
_atom_site_label
_atom_site_fract_x
_atom_site_fract_y
_atom_site_fract_z
Si Si1 0.439686 0.359543 0.054950
Si Si2 0.907676 0.509785 0.935842
Si Si3 0.344743 0.225474 0.889208
Si Si4 0.000000 0.804471 0.750000
Si Si5 0.092888 0.911930 0.925696
Si Si6 0.000000 0.429720 0.750000
Si Si7 0.855173 0.731799 0.207387
Si Si8 0.713437 0.824539 0.581489
O O1 0.410816 0.473277 0.050326
O O2 0.416434 0.319995 0.162651
O O3 0.380842 0.295745 0.976885
O O4 0.547312 0.355423 0.019507
O O5 0.853145 0.613996 0.933208
O O6 0.941267 0.493894 0.824580
O O7 0.849946 0.411431 0.961610
O O8 0.000000 0.500000 0.000000
O O9 0.417035 0.239424 0.797647
O O10 0.243492 0.258525 0.849498
O O11 0.971267 0.876880 0.662611
O O12 0.193550 0.881707 0.888777
O O13 0.924235 0.361990 0.692824
O O14 0.831745 0.726268 0.323074
O O15 0.750000 0.750000 0.500000
#
# Coordination Sequence:
#
# PCOD9283269 Si02
#       8
#     8   8   8   4   8   4   8   8
#     4  10  23  40  70  97 136 176 227 289 341 427
#     4  11  25  43  68 101 138 182 232 291 349 414
#     4  11  22  42  72  99 136 184 232 285 350 424
#     4  10  21  39  72  96 136 182 229 287 348 424
#     4  10  22  44  63 101 137 176 229 282 356 417
#     4  10  25  41  64 100 138 174 229 291 346 408
#     4  11  23  43  67  97 134 184 232 286 350 416
#     4  11  26  44  66  97 139 182 232 290 351 417
#
# _framework density 21.134459
#
# number of rings (size 3 to 8) (size 9 to 14) (size 15 to 20)
#    0.000    1.429    1.429    2.571    8.000    2.857 
#    5.143    1.429    0.000    0.000    0.000    0.000 
#    0.000    0.000    0.000    0.000    0.000    0.000 
#
# Total GULP energy -156210.556711 kJ/mol
# GULP energy per Si atom -5578.948454 kJ/mol
# Density = 2.108636 g / cm^3
# Si number density = 21.134459 Si / 1000 Ang^3
#
#
#
# Elastic Constant Matrix: (Units=GPa)
#
#
# Indices 1 2 3 4 5 6 
#
# 1 101.0195 44.1872 38.4108 0.0000 0.4797 0.0000
# 2 44.1872 130.5534 60.3764 0.0000 6.4274 0.0000
# 3 38.4108 60.3764 64.6839 0.0000 -18.3669 0.0000
# 4 0.0000 0.0000 0.0000 34.3252 0.0000 -7.7817
# 5 0.4797 6.4274 -18.3669 0.0000 46.4029 0.0000
# 6 0.0000 0.0000 0.0000 -7.7817 0.0000 27.6228
#
#
#
# Elastic Compliance Matrix: (Units=1/GPa)
#
#
# Indices 1 2 3 4 5 6 
#
# 1 0.013332 -0.000399 -0.008526 0.000000 -0.003457 0.000000
# 2 -0.000399 0.016484 -0.017797 0.000000 -0.009323 0.000000
# 3 -0.008526 -0.017797 0.042653 0.000000 0.019436 0.000000
# 4 0.000000 0.000000 0.000000 0.031121 0.000000 0.008767
# 5 -0.003457 -0.009323 0.019436 0.000000 0.030570 0.000000
# 6 0.000000 0.000000 0.000000 0.008767 0.000000 0.038672
#
#
# Mechanical properties :
#
#
# Convention : Reuss Voigt Hill
#
# Bulk Modulus (GPa) = 52.56093 64.68954 58.62523
# Shear Modulus (GPa) = 21.49454 31.88901 26.69177
#
# Velocity S-wave (km/s) = 3.19256 3.88862 3.55766
# Velocity P-wave (km/s) = 6.20594 7.13000 6.68396
#
# Compressibility (1/GPa) = 0.01902554
#
# Stress axis : x y z
#
# Youngs Moduli (GPa) = 75.00810 60.66416 23.44506
#
# Poissons Ratio (x) = 0.02422 0.19989
# Poissons Ratio (y) = 0.02995 0.41724
# Poissons Ratio (z) = 0.63950 1.07962
#
# Static dielectric constant tensor:
#      x y z
#    x 1.945260 0.000000 0.007690 
#    y 0.000000 1.881320 0.000000 
#    z 0.007690 0.000000 1.799530 
# 
# From -- ./inp_files/152634.got.cif
#   From: 2010.05.17/outbox.cif.g08.bks.cpg/sg15_77_cif.got.tgz:152634.got - 2010.06.03 18:47:42.
