data_PCOD9283607
_publ_section_title
;
Structure prediction by ZEFSAII (Michael W. Deem and Ramdas Pophale) SiO2 
 PCOD9283607
Probable space group: C 2/C
;
_chemical_formula_sum "Si O2"
_cell_formula_units_Z 40
_cell_length_a 16.204093
_cell_length_b 14.303927
_cell_length_c 8.144901
_cell_angle_alpha 90.000000
_cell_angle_beta 127.797525
_cell_angle_gamma 90.000000
_cell_volume 1491.738411
_symmetry_space_group_name_H-M "C 2/C"
_symmetry_group_IT_number 15
_symmetry_cell_setting 'monoclinic'
loop_
_space_group_symop_operation_xyz
x,y,z
-x,y,1/2-z
-x,-y,-z
x,-y,1/2+z
1/2+x,1/2+y,z
1/2-x,1/2+y,1/2-z
1/2-x,1/2-y,-z
1/2+x,1/2-y,1/2+z
loop_
_atom_site_type_symbol
_atom_site_label
_atom_site_fract_x
_atom_site_fract_y
_atom_site_fract_z
Si Si1 0.189674 0.107005 0.590889
Si Si2 0.500000 0.037344 0.250000
Si Si3 0.112695 0.069850 0.861987
Si Si4 0.000000 0.221480 0.250000
Si Si5 0.595178 0.873526 0.571970
Si Si6 0.204254 0.233103 0.129271
O O1 0.133493 0.093198 0.698892
O O2 0.289316 0.170933 0.759654
O O3 0.106586 0.162742 0.376960
O O4 0.200046 0.004518 0.527236
O O5 0.426136 0.102336 0.266859
O O6 0.569757 0.967767 0.443794
O O7 0.000000 0.024274 0.750000
O O8 0.111628 0.162287 0.974865
O O9 0.015872 0.292402 0.420176
O O10 0.708325 0.831952 0.677443
O O11 0.250000 0.250000 0.000000
#
# Coordination Sequence:
#
# PCOD9283607 Si02
#       6
#     8   4   8   4   8   8
#     4  10  21  40  63  89 125 160 202 265 308 361
#     4   9  18  34  60  91 110 162 214 247 296 377
#     4  11  22  39  67  92 119 166 211 249 311 374
#     4   9  18  36  56  83 124 156 190 257 310 349
#     4   9  18  35  59  83 123 160 200 254 309 359
#     4   9  21  40  57  86 130 160 194 260 314 352
#
# _framework density 26.814352
#
# number of rings (size 3 to 8) (size 9 to 14) (size 15 to 20)
#    0.000    2.400    1.000    0.600    0.000    3.200 
#   16.200    1.000    4.400    0.000    0.000    0.000 
#    0.000    0.000    0.000    0.000    0.000    0.000 
#
# Total GULP energy -111990.230069 kJ/mol
# GULP energy per Si atom -5599.511503 kJ/mol
# Density = 2.675332 g / cm^3
# Si number density = 26.814352 Si / 1000 Ang^3
#
#
#
# Elastic Constant Matrix: (Units=GPa)
#
#
# Indices 1 2 3 4 5 6 
#
# 1 67.2393 14.0669 16.3559 0.0000 2.1533 0.0000
# 2 14.0669 128.2141 37.8775 0.0000 2.8909 0.0000
# 3 16.3559 37.8775 101.3126 0.0000 3.1034 0.0000
# 4 0.0000 0.0000 0.0000 56.6834 0.0000 13.0611
# 5 2.1533 2.8909 3.1034 0.0000 24.9422 0.0000
# 6 0.0000 0.0000 0.0000 13.0611 0.0000 23.0016
#
#
#
# Elastic Compliance Matrix: (Units=1/GPa)
#
#
# Indices 1 2 3 4 5 6 
#
# 1 0.015637 -0.001076 -0.002093 0.000000 -0.000965 0.000000
# 2 -0.001076 0.008851 -0.003119 0.000000 -0.000545 0.000000
# 3 -0.002093 -0.003119 0.011401 0.000000 -0.000876 0.000000
# 4 0.000000 0.000000 0.000000 0.020298 0.000000 -0.011526
# 5 -0.000965 -0.000545 -0.000876 0.000000 0.040348 0.000000
# 6 0.000000 0.000000 0.000000 -0.011526 0.000000 0.050020
#
#
# Mechanical properties :
#
#
# Convention : Reuss Voigt Hill
#
# Bulk Modulus (GPa) = 42.89063 48.15187 45.52125
# Shear Modulus (GPa) = 29.95785 36.15651 33.05718
#
# Velocity S-wave (km/s) = 3.34613 3.67604 3.51496
# Velocity P-wave (km/s) = 5.56407 6.00118 5.78676
#
# Compressibility (1/GPa) = 0.02331511
#
# Stress axis : x y z
#
# Youngs Moduli (GPa) = 63.94990 112.98008 87.71034
#
# Poissons Ratio (x) = 0.12152 0.18356
# Poissons Ratio (y) = 0.06879 0.27355
# Poissons Ratio (z) = 0.13383 0.35236
#
# Static dielectric constant tensor:
#      x y z
#    x 2.001630 0.000000 -0.021050 
#    y 0.000000 2.085270 0.000000 
#    z -0.021050 0.000000 2.084190 
# 
# From -- ./inp_files/37893.got.cif
#   From: 2010.05.17/outbox.cif.g08.bks.cpg/sg15_19_cif.got.tgz:37893.got - 2010.06.03 18:47:42.
