data_PCOD9283796
_publ_section_title
;
Structure prediction by ZEFSAII (Michael W. Deem and Ramdas Pophale) SiO2 
 PCOD9283796
Probable space group: C 2/C
;
_chemical_formula_sum "Si O2"
_cell_formula_units_Z 44
_cell_length_a 23.355269
_cell_length_b 10.250204
_cell_length_c 23.308963
_cell_angle_alpha 90.000000
_cell_angle_beta 20.920517
_cell_angle_gamma 90.000000
_cell_volume 1992.492729
_symmetry_space_group_name_H-M "C 2/C"
_symmetry_group_IT_number 15
_symmetry_cell_setting 'monoclinic'
loop_
_space_group_symop_operation_xyz
x,y,z
-x,y,1/2-z
-x,-y,-z
x,-y,1/2+z
1/2+x,1/2+y,z
1/2-x,1/2+y,1/2-z
1/2-x,1/2-y,-z
1/2+x,1/2-y,1/2+z
loop_
_atom_site_type_symbol
_atom_site_label
_atom_site_fract_x
_atom_site_fract_y
_atom_site_fract_z
Si Si1 0.286068 0.657847 0.797974
Si Si2 0.034003 0.054071 0.113467
Si Si3 0.849108 0.082484 0.619140
Si Si4 0.431991 0.078636 0.162318
Si Si5 0.635100 0.995792 0.158723
Si Si6 0.000000 0.754343 0.750000
O O1 0.394088 0.541505 0.722593
O O2 0.318200 0.681223 0.699777
O O3 0.343027 0.793750 0.771020
O O4 0.101959 0.622624 0.979708
O O5 0.987076 0.156937 0.205772
O O6 0.106684 0.121044 0.987349
O O7 0.180546 0.969662 0.003528
O O8 0.691460 0.991966 0.764311
O O9 0.000000 0.000000 0.500000
O O10 0.445754 0.981720 0.203217
O O11 0.500000 0.075250 0.250000
O O12 0.640971 0.855070 0.121896
#
# Coordination Sequence:
#
# PCOD9283796 Si02
#       6
#     8   8   8   8   8   4
#     4  11  23  41  67  93 130 164 216 261 318 387
#     4  10  21  40  64  94 128 167 210 266 319 374
#     4   9  20  42  62  93 129 163 207 260 312 380
#     4  11  22  43  63  95 126 169 210 263 322 374
#     4   9  22  40  62  87 133 162 213 261 315 373
#     4  10  22  40  68  92 130 162 220 260 318 370
#
# _framework density 22.082891
#
# number of rings (size 3 to 8) (size 9 to 14) (size 15 to 20)
#    0.545    1.455    0.000    4.364    2.545    0.000 
#   24.545    1.818    0.000    0.000    0.000    0.000 
#    0.000    0.000    0.000    0.000    0.000    0.000 
#
# Total GULP energy -122492.231522 kJ/mol
# GULP energy per Si atom -5567.828706 kJ/mol
# Density = 2.203263 g / cm^3
# Si number density = 22.082891 Si / 1000 Ang^3
#
#
#
# Elastic Constant Matrix: (Units=GPa)
#
#
# Indices 1 2 3 4 5 6 
#
# 1 108.8116 24.2371 39.2981 0.0000 -13.9723 0.0001
# 2 24.2371 58.9989 15.7145 0.0033 10.6245 -0.0007
# 3 39.2981 15.7145 100.1142 0.0052 -26.8565 -0.0010
# 4 0.0000 0.0033 0.0052 22.3726 -0.0008 3.9236
# 5 -13.9723 10.6245 -26.8565 -0.0008 37.2483 0.0001
# 6 0.0001 -0.0007 -0.0010 3.9236 0.0001 25.8135
#
#
#
# Elastic Compliance Matrix: (Units=1/GPa)
#
#
# Indices 1 2 3 4 5 6 
#
# 1 0.011757 -0.004722 -0.002888 0.000002 0.003675 -0.000001
# 2 -0.004722 0.022221 -0.004723 -0.000003 -0.011515 0.000001
# 3 -0.002888 -0.004723 0.014796 -0.000002 0.010932 0.000001
# 4 0.000002 -0.000003 -0.000002 0.045922 0.000001 -0.006980
# 5 0.003675 -0.011515 0.010932 0.000001 0.039392 0.000000
# 6 -0.000001 0.000001 0.000001 -0.006980 0.000000 0.039800
#
#
# Mechanical properties :
#
#
# Convention : Reuss Voigt Hill
#
# Bulk Modulus (GPa) = 41.48150 47.38046 44.43098
# Shear Modulus (GPa) = 24.20232 29.66521 26.93376
#
# Velocity S-wave (km/s) = 3.31414 3.66916 3.49616
# Velocity P-wave (km/s) = 5.78532 6.28113 6.03832
#
# Compressibility (1/GPa) = 0.02410713
#
# Stress axis : x y z
#
# Youngs Moduli (GPa) = 85.05592 45.00206 67.58455
#
# Poissons Ratio (x) = 0.21252 0.19518
# Poissons Ratio (y) = 0.40167 0.31923
# Poissons Ratio (z) = 0.24563 0.21256
#
# Static dielectric constant tensor:
#      x y z
#    x 1.873000 0.000000 -0.026160 
#    y 0.000000 1.801090 0.000000 
#    z -0.026160 0.000000 1.885240 
# 
# From -- ./inp_files/281927.got.cif
#   From: 2010.05.17/outbox.cif.g08.bks.cpg/sg15_141_cif.got.tgz:281927.got - 2010.06.03 18:47:42.
