data_PCOD9283604
_publ_section_title
;
Structure prediction by ZEFSAII (Michael W. Deem and Ramdas Pophale) SiO2 
 PCOD9283604
Probable space group: C 2/C
;
_chemical_formula_sum "Si O2"
_cell_formula_units_Z 44
_cell_length_a 16.980928
_cell_length_b 9.114897
_cell_length_c 13.162739
_cell_angle_alpha 90.000000
_cell_angle_beta 123.719684
_cell_angle_gamma 90.000000
_cell_volume 1694.569133
_symmetry_space_group_name_H-M "C 2/C"
_symmetry_group_IT_number 15
_symmetry_cell_setting 'monoclinic'
loop_
_space_group_symop_operation_xyz
x,y,z
-x,y,1/2-z
-x,-y,-z
x,-y,1/2+z
1/2+x,1/2+y,z
1/2-x,1/2+y,1/2-z
1/2-x,1/2-y,-z
1/2+x,1/2-y,1/2+z
loop_
_atom_site_type_symbol
_atom_site_label
_atom_site_fract_x
_atom_site_fract_y
_atom_site_fract_z
Si Si1 0.841799 0.915282 0.201344
Si Si2 0.500000 0.813520 0.750000
Si Si3 0.866396 0.226920 0.918215
Si Si4 0.902385 0.499385 0.327223
Si Si5 0.418378 0.662724 0.397929
Si Si6 0.227969 0.988692 0.552699
O O1 0.808079 0.836826 0.279968
O O2 0.914689 0.800047 0.204740
O O3 0.891900 0.062107 0.280855
O O4 0.767622 0.940990 0.059889
O O5 0.506062 0.920557 0.656898
O O6 0.873257 0.397496 0.900646
O O7 0.816118 0.153098 0.976625
O O8 0.971446 0.155716 0.989324
O O9 0.911246 0.332104 0.362115
O O10 0.825244 0.514420 0.182523
O O11 0.347414 0.609605 0.436248
#
# Coordination Sequence:
#
# PCOD9283604 Si02
#       6
#     8   4   8   8   8   8
#     4  10  21  40  63  89 121 165 213 249 303 373
#     4  10  22  40  60  90 128 166 208 250 306 368
#     4  10  22  40  64  92 126 167 208 256 310 370
#     4  11  24  41  63  97 130 162 207 262 317 366
#     4  11  23  42  67  93 124 166 212 256 309 376
#     4  11  22  41  68  93 127 166 206 259 312 372
#
# _framework density 25.965302999999999
#
# number of rings (size 3 to 8) (size 9 to 14) (size 15 to 20)
#    0.000    1.455    0.000    7.091    0.000    5.818 
#    0.000   12.727    0.000    0.000    0.000    0.000 
#    0.000    0.000    0.000    0.000    0.000    0.000 
#
# Total GULP energy -123167.349313 kJ/mol
# GULP energy per Si atom -5598.515878 kJ/mol
# Density = 2.590621 g / cm^3
# Si number density = 25.965303 Si / 1000 Ang^3
#
#
#
# Elastic Constant Matrix: (Units=GPa)
#
#
# Indices 1 2 3 4 5 6 
#
# 1 79.4012 30.2388 23.7680 0.0000 -13.2144 0.0000
# 2 30.2388 214.3143 35.2307 0.0000 -19.3463 0.0000
# 3 23.7680 35.2307 151.6080 0.0000 8.1076 0.0000
# 4 0.0000 0.0000 0.0000 16.2347 0.0000 -2.1922
# 5 -13.2144 -19.3463 8.1076 0.0000 21.0313 0.0000
# 6 0.0000 0.0000 0.0000 -2.1922 0.0000 32.2014
#
#
#
# Elastic Compliance Matrix: (Units=1/GPa)
#
#
# Indices 1 2 3 4 5 6 
#
# 1 0.015392 -0.000817 -0.002757 0.000000 0.009982 0.000000
# 2 -0.000817 0.005471 -0.001414 0.000000 0.005064 0.000000
# 3 -0.002757 -0.001414 0.007677 0.000000 -0.005993 0.000000
# 4 0.000000 0.000000 0.000000 0.062168 0.000000 0.004232
# 5 0.009982 0.005064 -0.005993 0.000000 0.060789 0.000000
# 6 0.000000 0.000000 0.000000 0.004232 0.000000 0.031343
#
#
# Mechanical properties :
#
#
# Convention : Reuss Voigt Hill
#
# Bulk Modulus (GPa) = 53.86910 69.31096 61.59003
# Shear Modulus (GPa) = 25.12511 37.63255 31.37883
#
# Velocity S-wave (km/s) = 3.11407 3.81115 3.48011
# Velocity P-wave (km/s) = 5.80702 6.79103 6.31821
#
# Compressibility (1/GPa) = 0.01856352
#
# Stress axis : x y z
#
# Youngs Moduli (GPa) = 64.96836 182.78283 130.25557
#
# Poissons Ratio (x) = 0.14942 0.35910
# Poissons Ratio (y) = 0.05311 0.18418
# Poissons Ratio (z) = 0.17911 0.25846
#
# Static dielectric constant tensor:
#      x y z
#    x 2.078500 0.000000 0.006340 
#    y 0.000000 2.103690 0.000000 
#    z 0.006340 0.000000 2.029310 
# 
# From -- ./inp_files/172108.got.cif
#   From: 2010.05.17/outbox.cif.g08.bks.cpg/sg15_87_cif.got.tgz:172108.got - 2010.06.03 18:47:42.
