data_PCOD9283841
_publ_section_title
;
Structure prediction by ZEFSAII (Michael W. Deem and Ramdas Pophale) SiO2 
 PCOD9283841
Probable space group: C 2/C
;
_chemical_formula_sum "Si O2"
_cell_formula_units_Z 60
_cell_length_a 7.490046
_cell_length_b 11.736284
_cell_length_c 28.028991
_cell_angle_alpha 90.000000
_cell_angle_beta 97.781811
_cell_angle_gamma 90.000000
_cell_volume 2441.206722
_symmetry_space_group_name_H-M "C 2/C"
_symmetry_group_IT_number 15
_symmetry_cell_setting 'monoclinic'
loop_
_space_group_symop_operation_xyz
x,y,z
-x,y,1/2-z
-x,-y,-z
x,-y,1/2+z
1/2+x,1/2+y,z
1/2-x,1/2+y,1/2-z
1/2-x,1/2-y,-z
1/2+x,1/2-y,1/2+z
loop_
_atom_site_type_symbol
_atom_site_label
_atom_site_fract_x
_atom_site_fract_y
_atom_site_fract_z
Si Si1 0.500000 0.418319 0.750000
Si Si2 0.897479 0.048705 0.657297
Si Si3 0.648408 0.887175 0.875712
Si Si4 0.120404 0.111178 0.499662
Si Si5 0.688977 0.641078 0.610651
Si Si6 0.621892 0.955056 0.711794
Si Si7 0.642373 0.026346 0.069060
Si Si8 0.472586 0.230223 0.911275
O O1 0.523605 0.489185 0.701521
O O2 0.294144 0.376886 0.733600
O O3 0.699224 0.293241 0.616115
O O4 0.015848 0.148284 0.638202
O O5 0.821766 0.974767 0.609782
O O6 0.748305 0.010056 0.880807
O O7 0.516903 0.887882 0.826004
O O8 0.511669 0.892848 0.915493
O O9 0.141234 0.157282 0.553414
O O10 0.034735 0.199753 0.459915
O O11 0.300989 0.065506 0.480952
O O12 0.000000 0.000000 0.500000
O O13 0.866671 0.717479 0.621591
O O14 0.500000 0.000607 0.750000
O O15 0.715750 0.055043 0.683288
O O16 0.579498 0.896383 0.073305
#
# Coordination Sequence:
#
# PCOD9283841 Si02
#       8
#     4   8   8   8   8   8   8   8
#     4   8  18  32  68 106 130 182 234 286 366 432
#     4   9  18  37  64 102 135 182 233 291 357 436
#     4  10  21  40  64  99 141 187 235 296 365 433
#     4  12  23  44  66  98 140 193 243 302 350 431
#     4  11  22  42  65  99 148 184 247 291 364 431
#     4   9  18  34  66 106 140 178 242 296 367 442
#     4  10  23  42  66  98 139 182 241 292 356 433
#     4  11  25  42  66 100 142 192 237 299 357 423
#
# _framework density 24.578006999999999
#
# number of rings (size 3 to 8) (size 9 to 14) (size 15 to 20)
#    0.800    1.067    2.667    1.200    0.000    3.733 
#    2.400    0.000    1.467    0.000   10.400    0.000 
#    0.000    0.000    0.000    0.000    0.000    0.000 
#
# Total GULP energy -167535.567836 kJ/mol
# GULP energy per Si atom -5584.518928 kJ/mol
# Density = 2.452207 g / cm^3
# Si number density = 24.578007 Si / 1000 Ang^3
#
#
#
# Elastic Constant Matrix: (Units=GPa)
#
#
# Indices 1 2 3 4 5 6 
#
# 1 207.8496 70.9582 80.0851 0.0000 -8.3714 0.0000
# 2 70.9582 106.4034 35.9500 0.0000 -3.4546 0.0000
# 3 80.0851 35.9500 106.8645 0.0000 -11.0487 0.0000
# 4 0.0000 0.0000 0.0000 3.9447 0.0000 -0.6202
# 5 -8.3714 -3.4546 -11.0487 0.0000 60.0077 0.0000
# 6 0.0000 0.0000 0.0000 -0.6202 0.0000 47.7347
#
#
#
# Elastic Compliance Matrix: (Units=1/GPa)
#
#
# Indices 1 2 3 4 5 6 
#
# 1 0.007856 -0.003667 -0.004651 0.000000 0.000029 0.000000
# 2 -0.003667 0.012315 -0.001401 0.000000 -0.000061 0.000000
# 3 -0.004651 -0.001401 0.013496 0.000000 0.001755 0.000000
# 4 0.000000 0.000000 0.000000 0.254025 0.000000 0.003300
# 5 0.000029 -0.000061 0.001755 0.000000 0.016988 0.000000
# 6 0.000000 0.000000 0.000000 0.003300 0.000000 0.020992
#
#
# Mechanical properties :
#
#
# Convention : Reuss Voigt Hill
#
# Bulk Modulus (GPa) = 70.27810 88.34492 79.31151
# Shear Modulus (GPa) = 14.29169 37.94568 26.11869
#
# Velocity S-wave (km/s) = 2.41401 3.93350 3.26342
# Velocity P-wave (km/s) = 6.03539 7.52679 6.82197
#
# Compressibility (1/GPa) = 0.01422918
#
# Stress axis : x y z
#
# Youngs Moduli (GPa) = 127.28839 81.20218 74.09603
#
# Poissons Ratio (x) = 0.29775 0.34462
# Poissons Ratio (y) = 0.46674 0.10382
# Poissons Ratio (z) = 0.59202 0.11378
#
# Static dielectric constant tensor:
#      x y z
#    x 2.048780 0.000000 0.013710 
#    y 0.000000 1.990900 0.000000 
#    z 0.013710 0.000000 1.962860 
# 
# From -- ./inp_files/307197.got.cif
#   From: 2010.05.17/outbox.cif.g08.bks.cpg/sg15_154_cif.got.tgz:307197.got - 2010.06.03 18:47:42.
