data_PCOD9283929
_publ_section_title
;
Structure prediction by ZEFSAII (Michael W. Deem and Ramdas Pophale) SiO2 
 PCOD9283929
Probable space group: C 2/C
;
_chemical_formula_sum "Si O2"
_cell_formula_units_Z 64
_cell_length_a 14.995092
_cell_length_b 12.075011
_cell_length_c 17.978755
_cell_angle_alpha 90.000000
_cell_angle_beta 99.721388
_cell_angle_gamma 90.000000
_cell_volume 3208.594439
_symmetry_space_group_name_H-M "C 2/C"
_symmetry_group_IT_number 15
_symmetry_cell_setting 'monoclinic'
loop_
_space_group_symop_operation_xyz
x,y,z
-x,y,1/2-z
-x,-y,-z
x,-y,1/2+z
1/2+x,1/2+y,z
1/2-x,1/2+y,1/2-z
1/2-x,1/2-y,-z
1/2+x,1/2-y,1/2+z
loop_
_atom_site_type_symbol
_atom_site_label
_atom_site_fract_x
_atom_site_fract_y
_atom_site_fract_z
Si Si1 0.108373 0.636203 0.196835
Si Si2 0.021826 0.462244 0.085610
Si Si3 0.660850 0.520091 0.131925
Si Si4 0.487828 0.637496 0.831145
Si Si5 0.703239 0.732780 0.228199
Si Si6 0.184615 0.673688 0.571281
Si Si7 0.863748 0.441933 0.183194
Si Si8 0.352762 0.383751 0.029157
O O1 0.086341 0.559066 0.124791
O O2 0.034767 0.733140 0.181262
O O3 0.207603 0.691155 0.215908
O O4 0.103855 0.545965 0.262324
O O5 0.088116 0.358748 0.089783
O O6 0.936807 0.435929 0.126945
O O7 0.000000 0.500000 0.000000
O O8 0.600449 0.419516 0.149001
O O9 0.652668 0.621755 0.190407
O O10 0.764726 0.480918 0.142727
O O11 0.628754 0.554709 0.045252
O O12 0.500000 0.592131 0.750000
O O13 0.571095 0.613036 0.897554
O O14 0.735238 0.780492 0.152061
O O15 0.651697 0.828891 0.269090
O O16 0.254116 0.584472 0.547945
O O17 0.161127 0.757862 0.501552
#
# Coordination Sequence:
#
# PCOD9283929 Si02
#       8
#     8   8   8   8   8   8   8   8
#     4  11  23  40  68  98 128 165 221 273 321 386
#     4  12  24  39  66 100 132 169 219 275 332 393
#     4  10  23  42  63  93 130 177 214 266 335 401
#     4  12  23  39  64  97 127 170 222 270 320 392
#     4  10  21  41  67  91 130 167 219 272 330 390
#     4  10  21  40  65  94 125 166 219 266 329 392
#     4  11  22  43  69  96 128 175 216 282 330 385
#     4  10  22  40  66  91 129 175 210 269 330 394
#
# _framework density 19.946428000000001
#
# number of rings (size 3 to 8) (size 9 to 14) (size 15 to 20)
#    0.000    1.250    2.500    3.750    0.000    4.000 
#    4.500    0.625    2.750    0.000    0.000    0.000 
#    0.000    0.000    0.000    0.000    0.000    0.000 
#
# Total GULP energy -178313.048870 kJ/mol
# GULP energy per Si atom -5572.282777 kJ/mol
# Density = 1.990103 g / cm^3
# Si number density = 19.946428 Si / 1000 Ang^3
#
#
#
# Elastic Constant Matrix: (Units=GPa)
#
#
# Indices 1 2 3 4 5 6 
#
# 1 108.4912 34.9354 64.9303 0.0000 -0.2568 0.0000
# 2 34.9354 56.4076 26.8661 0.0000 -7.7209 0.0000
# 3 64.9303 26.8661 137.2251 0.0000 19.8488 0.0000
# 4 0.0000 0.0000 0.0000 -9.8937 0.0000 19.1833
# 5 -0.2568 -7.7209 19.8488 0.0000 30.3332 0.0000
# 6 0.0000 0.0000 0.0000 19.1833 0.0000 4.4145
#
#
#
# Elastic Compliance Matrix: (Units=1/GPa)
#
#
# Indices 1 2 3 4 5 6 
#
# 1 0.014868 -0.005834 -0.006292 0.000000 0.002758 0.000000
# 2 -0.005834 0.023915 -0.003087 0.000000 0.008058 0.000000
# 3 -0.006292 -0.003087 0.012139 0.000000 -0.008782 0.000000
# 4 0.000000 0.000000 0.000000 -0.010723 0.000000 0.046598
# 5 0.002758 0.008058 -0.008782 0.000000 0.040788 0.000000
# 6 0.000000 0.000000 0.000000 0.046598 0.000000 0.024033
#
#
# Mechanical properties :
#
#
# Convention : Reuss Voigt Hill
#
# Bulk Modulus (GPa) = 48.79039 61.73196 55.26117
# Shear Modulus (GPa) = 35.14256 16.66360 25.90308
#
# Velocity S-wave (km/s) = 4.20199 2.89350 3.60756
# Velocity P-wave (km/s) = 6.93225 6.49455 6.71697
#
# Compressibility (1/GPa) = 0.02049584
#
# Stress axis : x y z
#
# Youngs Moduli (GPa) = 67.25828 41.81530 82.37891
#
# Poissons Ratio (x) = 0.24396 0.51831
# Poissons Ratio (y) = 0.39240 0.25430
# Poissons Ratio (z) = 0.42317 0.12908
#
# Static dielectric constant tensor:
#      x y z
#    x 1.750940 0.000000 0.047610 
#    y 0.000000 1.742740 0.000000 
#    z 0.047610 0.000000 1.549240 
# 
# From -- ./inp_files/204479.got.cif
#   From: 2010.05.17/outbox.cif.g08.bks.cpg/sg15_103_cif.got.tgz:204479.got - 2010.06.03 18:47:42.
