data_PCOD9283931
_publ_section_title
;
Structure prediction by ZEFSAII (Michael W. Deem and Ramdas Pophale) SiO2 
 PCOD9283931
Probable space group: C 2/C
;
_chemical_formula_sum "Si O2"
_cell_formula_units_Z 52
_cell_length_a 17.058722
_cell_length_b 7.783087
_cell_length_c 20.521933
_cell_angle_alpha 90.000000
_cell_angle_beta 54.320991
_cell_angle_gamma 90.000000
_cell_volume 2213.255899
_symmetry_space_group_name_H-M "C 2/C"
_symmetry_group_IT_number 15
_symmetry_cell_setting 'monoclinic'
loop_
_space_group_symop_operation_xyz
x,y,z
-x,y,1/2-z
-x,-y,-z
x,-y,1/2+z
1/2+x,1/2+y,z
1/2-x,1/2+y,1/2-z
1/2-x,1/2-y,-z
1/2+x,1/2-y,1/2+z
loop_
_atom_site_type_symbol
_atom_site_label
_atom_site_fract_x
_atom_site_fract_y
_atom_site_fract_z
Si Si1 0.248770 0.713947 0.305536
Si Si2 0.000000 0.320280 0.750000
Si Si3 0.836156 0.902871 0.641886
Si Si4 0.522347 0.726817 0.011138
Si Si5 0.703980 0.204209 0.094136
Si Si6 0.246395 0.180107 0.931532
Si Si7 0.044927 0.560407 0.375227
O O1 0.328685 0.689266 0.214022
O O2 0.286039 0.685501 0.359958
O O3 0.158662 0.593547 0.332421
O O4 0.214340 0.912789 0.323816
O O5 0.100354 0.231428 0.673433
O O6 0.029394 0.414673 0.804769
O O7 0.946194 0.914284 0.569741
O O8 0.783122 0.784071 0.613633
O O9 0.631865 0.671223 0.971431
O O10 0.498012 0.888799 0.071292
O O11 0.504397 0.793393 0.945575
O O12 0.750000 0.250000 0.000000
O O13 0.695597 0.996603 0.096677
O O14 0.250000 0.250000 0.000000
#
# Coordination Sequence:
#
# PCOD9283931 Si02
#       7
#     8   4   8   8   8   8   8
#     4  10  22  39  64  90 132 169 219 270 328 403
#     4  12  22  40  66  98 134 178 224 276 336 402
#     4  11  22  40  63  95 127 174 220 277 332 401
#     4  10  22  40  68  92 130 174 222 275 344 407
#     4  11  25  41  67  96 136 176 226 284 341 400
#     4  10  23  44  62  95 128 172 218 280 339 404
#     4  10  21  40  65  94 127 177 219 270 336 406
#
# _framework density 23.494799
#
# number of rings (size 3 to 8) (size 9 to 14) (size 15 to 20)
#    0.000    1.538    1.538    2.769    2.154   10.462 
#    0.000    0.000    0.000    0.000    0.000    0.000 
#    0.000    0.000    0.000    0.000    0.000    0.000 
#
# Total GULP energy -144833.909553 kJ/mol
# GULP energy per Si atom -5570.534983 kJ/mol
# Density = 2.344132 g / cm^3
# Si number density = 23.494799 Si / 1000 Ang^3
#
#
#
# Elastic Constant Matrix: (Units=GPa)
#
#
# Indices 1 2 3 4 5 6 
#
# 1 55.9942 9.8657 59.2676 0.0001 9.9791 0.0004
# 2 9.8657 45.5167 17.5805 0.0002 -5.3238 0.0009
# 3 59.2676 17.5805 229.7073 0.0000 7.8760 0.0000
# 4 0.0001 0.0002 0.0000 44.4017 0.0000 -2.4307
# 5 9.9791 -5.3238 7.8760 0.0000 66.9118 0.0001
# 6 0.0004 0.0009 0.0000 -2.4307 0.0001 17.1626
#
#
#
# Elastic Compliance Matrix: (Units=1/GPa)
#
#
# Indices 1 2 3 4 5 6 
#
# 1 0.025694 -0.003554 -0.006241 0.000000 -0.003380 0.000000
# 2 -0.003554 0.023404 -0.000960 0.000000 0.002505 -0.000001
# 3 -0.006241 -0.000960 0.006032 0.000000 0.000144 0.000000
# 4 0.000000 0.000000 0.000000 0.022698 0.000000 0.003215
# 5 -0.003380 0.002505 0.000144 0.000000 0.015631 0.000000
# 6 0.000000 -0.000001 0.000000 0.003215 0.000000 0.058722
#
#
# Mechanical properties :
#
#
# Convention : Reuss Voigt Hill
#
# Bulk Modulus (GPa) = 29.74469 56.07176 42.90823
# Shear Modulus (GPa) = 27.04191 41.99552 34.51872
#
# Velocity S-wave (km/s) = 3.39628 4.23240 3.83718
# Velocity P-wave (km/s) = 5.29785 6.91388 6.15910
#
# Compressibility (1/GPa) = 0.03361944
#
# Stress axis : x y z
#
# Youngs Moduli (GPa) = 38.91982 42.72753 165.77444
#
# Poissons Ratio (x) = 0.15184 1.03468
# Poissons Ratio (y) = 0.13831 0.15918
# Poissons Ratio (z) = 0.24292 0.04103
#
# Static dielectric constant tensor:
#      x y z
#    x 2.275100 0.000000 0.367260 
#    y 0.000000 1.937340 0.000000 
#    z 0.367260 0.000000 2.291010 
# 
# From -- ./inp_files/209482.got.cif
#   From: 2010.05.17/outbox.cif.g08.bks.cpg/sg15_105_cif.got.tgz:209482.got - 2010.06.03 18:47:42.
