data_PCOD9283333
_publ_section_title
;
Structure prediction by ZEFSAII (Michael W. Deem and Ramdas Pophale) SiO2 
 PCOD9283333
Probable space group: C 2/C
;
_chemical_formula_sum "Si O2"
_cell_formula_units_Z 64
_cell_length_a 31.424107
_cell_length_b 19.056227
_cell_length_c 9.844382
_cell_angle_alpha 90.000000
_cell_angle_beta 148.964658
_cell_angle_gamma 90.000000
_cell_volume 3039.297305
_symmetry_space_group_name_H-M "C 2/C"
_symmetry_group_IT_number 15
_symmetry_cell_setting 'monoclinic'
loop_
_space_group_symop_operation_xyz
x,y,z
-x,y,1/2-z
-x,-y,-z
x,-y,1/2+z
1/2+x,1/2+y,z
1/2-x,1/2+y,1/2-z
1/2-x,1/2-y,-z
1/2+x,1/2-y,1/2+z
loop_
_atom_site_type_symbol
_atom_site_label
_atom_site_fract_x
_atom_site_fract_y
_atom_site_fract_z
Si Si1 0.377485 0.056671 0.333877
Si Si2 0.618949 0.208607 0.281137
Si Si3 0.384445 0.069499 0.662133
Si Si4 0.562944 0.773178 0.125992
Si Si5 0.314829 0.577167 0.372172
Si Si6 0.674231 0.736701 0.190805
Si Si7 0.598363 0.690031 0.485323
Si Si8 0.677600 0.548704 0.798250
O O1 0.395457 0.130962 0.313627
O O2 0.408801 0.055223 0.573474
O O3 0.409366 0.992283 0.331790
O O4 0.277318 0.052833 0.065706
O O5 0.681330 0.214309 0.577067
O O6 0.533582 0.235748 0.111727
O O7 0.638665 0.258618 0.208324
O O8 0.415943 0.145449 0.791373
O O9 0.284685 0.071521 0.393744
O O10 0.595642 0.753499 0.068622
O O11 0.606339 0.726005 0.360652
O O12 0.331560 0.657422 0.379259
O O13 0.346565 0.556286 0.609214
O O14 0.345615 0.523287 0.341229
O O15 0.750000 0.750000 0.500000
O O16 0.500000 0.686252 0.250000
O O17 0.639017 0.614332 0.612729
#
# Coordination Sequence:
#
# PCOD9283333 Si02
#       8
#     8   8   8   8   8   8   8   8
#     4  10  23  37  65  91 128 162 216 259 316 369
#     4  11  24  43  62  92 126 170 207 264 313 378
#     4  10  21  40  59  95 123 168 208 259 310 381
#     4  11  24  41  64  91 132 164 210 259 319 376
#     4  10  22  40  63  94 124 161 207 265 314 370
#     4  12  25  40  67  95 126 161 214 261 314 372
#     4  10  22  42  65  89 123 167 215 257 316 384
#     4  10  22  40  64  91 128 161 211 264 315 372
#
# _framework density 21.057497999999999
#
# number of rings (size 3 to 8) (size 9 to 14) (size 15 to 20)
#    0.000    1.500    3.750    0.375    5.250    2.000 
#    0.000    1.875    0.000    0.000    0.000    0.000 
#    0.000    0.000    0.000    0.000    0.000    0.000 
#
# Total GULP energy -178939.230591 kJ/mol
# GULP energy per Si atom -5591.850956 kJ/mol
# Density = 2.100957 g / cm^3
# Si number density = 21.057498 Si / 1000 Ang^3
#
#
#
# Elastic Constant Matrix: (Units=GPa)
#
#
# Indices 1 2 3 4 5 6 
#
# 1 87.9134 55.2852 37.0727 0.0000 -39.6966 0.0000
# 2 55.2852 132.3178 29.7996 0.0000 -32.0795 0.0000
# 3 37.0727 29.7996 73.0215 0.0000 -30.2425 0.0000
# 4 0.0000 0.0000 0.0000 33.9166 0.0000 -14.6033
# 5 -39.6966 -32.0795 -30.2425 0.0000 38.9076 0.0000
# 6 0.0000 0.0000 0.0000 -14.6033 0.0000 45.3678
#
#
#
# Elastic Compliance Matrix: (Units=1/GPa)
#
#
# Indices 1 2 3 4 5 6 
#
# 1 0.023774 -0.004950 -0.002499 0.000000 0.018233 0.000000
# 2 -0.004950 0.010519 -0.000412 0.000000 0.003302 0.000000
# 3 -0.002499 -0.000412 0.020550 0.000000 0.013085 0.000000
# 4 0.000000 0.000000 0.000000 0.034228 0.000000 0.011018
# 5 0.018233 0.003302 0.013085 0.000000 0.057198 0.000000
# 6 0.000000 0.000000 0.000000 0.011018 0.000000 0.025588
#
#
# Mechanical properties :
#
#
# Convention : Reuss Voigt Hill
#
# Bulk Modulus (GPa) = 25.56094 59.72973 42.64534
# Shear Modulus (GPa) = 24.92264 35.04475 29.98369
#
# Velocity S-wave (km/s) = 3.44401 4.08394 3.77755
# Velocity P-wave (km/s) = 5.28961 7.11791 6.27075
#
# Compressibility (1/GPa) = 0.03912219
#
# Stress axis : x y z
#
# Youngs Moduli (GPa) = 42.06197 95.06336 48.66092
#
# Poissons Ratio (x) = 0.47059 0.12159
# Poissons Ratio (y) = 0.20822 0.02004
# Poissons Ratio (z) = 0.10510 0.03916
#
# Static dielectric constant tensor:
#      x y z
#    x 1.747570 0.000000 0.020270 
#    y 0.000000 1.700760 0.000000 
#    z 0.020270 0.000000 1.795850 
# 
# From -- ./inp_files/70602.got.cif
#   From: 2010.05.17/outbox.cif.g08.bks.cpg/sg15_36_cif.got.tgz:70602.got - 2010.06.03 18:47:42.
