data_PCOD9283230
_publ_section_title
;
Structure prediction by ZEFSAII (Michael W. Deem and Ramdas Pophale) SiO2 
 PCOD9283230
Probable space group: C 2/C
;
_chemical_formula_sum "Si O2"
_cell_formula_units_Z 48
_cell_length_a 8.007950
_cell_length_b 27.685485
_cell_length_c 12.927351
_cell_angle_alpha 90.000000
_cell_angle_beta 133.115668
_cell_angle_gamma 90.000000
_cell_volume 2092.142471
_symmetry_space_group_name_H-M "C 2/C"
_symmetry_group_IT_number 15
_symmetry_cell_setting 'monoclinic'
loop_
_space_group_symop_operation_xyz
x,y,z
-x,y,1/2-z
-x,-y,-z
x,-y,1/2+z
1/2+x,1/2+y,z
1/2-x,1/2+y,1/2-z
1/2-x,1/2-y,-z
1/2+x,1/2-y,1/2+z
loop_
_atom_site_type_symbol
_atom_site_label
_atom_site_fract_x
_atom_site_fract_y
_atom_site_fract_z
Si Si1 0.848654 0.876515 0.848304
Si Si2 0.843135 0.373929 0.952567
Si Si3 0.241365 0.714652 0.397738
Si Si4 0.524546 0.218758 0.880590
Si Si5 0.688994 0.512293 0.190102
Si Si6 0.164664 0.521321 0.963264
O O1 0.672575 0.869265 0.677640
O O2 0.854648 0.838570 0.945310
O O3 0.813920 0.932970 0.857113
O O4 0.090217 0.868319 0.894023
O O5 0.985705 0.330400 0.059709
O O6 0.903070 0.426727 0.019688
O O7 0.250000 0.750000 0.500000
O O8 0.335882 0.745561 0.342397
O O9 0.000000 0.701736 0.250000
O O10 0.500000 0.208822 0.750000
O O11 0.750000 0.250000 0.000000
O O12 0.755755 0.477161 0.124025
O O13 0.919568 0.507642 0.359188
O O14 0.422234 0.505532 0.114572
#
# Coordination Sequence:
#
# PCOD9283230 Si02
#       6
#     8   8   8   8   8   8
#     4  10  21  40  68  96 128 183 234 277 348 426
#     4  10  21  39  69  97 125 177 244 286 330 412
#     4  12  26  43  66 101 142 175 225 296 363 424
#     4  12  24  43  70  99 131 178 234 290 346 421
#     4   9  19  36  61  93 132 179 222 283 345 409
#     4   9  19  36  60  94 133 173 228 284 343 408
#
# _framework density 22.942988
#
# number of rings (size 3 to 8) (size 9 to 14) (size 15 to 20)
#    0.000    1.667    1.667    3.000    4.667    0.667 
#    0.000    0.000    0.000    0.000    0.000    0.000 
#    0.000    0.000    0.000    0.000    0.000    0.000 
#
# Total GULP energy -133631.293436 kJ/mol
# GULP energy per Si atom -5567.970560 kJ/mol
# Density = 2.289077 g / cm^3
# Si number density = 22.942988 Si / 1000 Ang^3
#
#
#
# Elastic Constant Matrix: (Units=GPa)
#
#
# Indices 1 2 3 4 5 6 
#
# 1 56.8329 33.6249 11.8669 0.0000 15.3981 0.0000
# 2 33.6249 144.6522 36.6682 0.0000 -5.6497 0.0000
# 3 11.8669 36.6682 91.8308 0.0000 -3.8239 0.0000
# 4 0.0000 0.0000 0.0000 37.8501 0.0000 -11.5151
# 5 15.3981 -5.6497 -3.8239 0.0000 40.6314 0.0000
# 6 0.0000 0.0000 0.0000 -11.5151 0.0000 39.1968
#
#
#
# Elastic Compliance Matrix: (Units=1/GPa)
#
#
# Indices 1 2 3 4 5 6 
#
# 1 0.023879 -0.005621 -0.001256 0.000000 -0.009949 0.000000
# 2 -0.005621 0.009040 -0.002753 0.000000 0.003128 0.000000
# 3 -0.001256 -0.002753 0.012203 0.000000 0.001241 0.000000
# 4 0.000000 0.000000 0.000000 0.029013 0.000000 0.008523
# 5 -0.009949 0.003128 0.001241 0.000000 0.028934 0.000000
# 6 0.000000 0.000000 0.000000 0.008523 0.000000 0.028016
#
#
# Mechanical properties :
#
#
# Convention : Reuss Voigt Hill
#
# Bulk Modulus (GPa) = 38.66629 50.84844 44.75737
# Shear Modulus (GPa) = 31.45360 37.61272 34.53316
#
# Velocity S-wave (km/s) = 3.70665 4.05334 3.88386
# Velocity P-wave (km/s) = 5.93370 6.64208 6.29785
#
# Compressibility (1/GPa) = 0.02586232
#
# Stress axis : x y z
#
# Youngs Moduli (GPa) = 41.87808 110.62199 81.94837
#
# Poissons Ratio (x) = 0.62181 0.10289
# Poissons Ratio (y) = 0.23540 0.22560
# Poissons Ratio (z) = 0.05258 0.30454
#
# Static dielectric constant tensor:
#      x y z
#    x 1.895550 0.000000 0.002550 
#    y 0.000000 1.743160 0.000000 
#    z 0.002550 0.000000 1.969260 
# 
# From -- ./inp_files/139027.got.cif
#   From: 2010.05.17/outbox.cif.g08.bks.cpg/sg15_70_cif.got.tgz:139027.got - 2010.06.03 18:47:42.
