data_PCOD9283951
_publ_section_title
;
Structure prediction by ZEFSAII (Michael W. Deem and Ramdas Pophale) SiO2 
 PCOD9283951
Probable space group: C 2/C
;
_chemical_formula_sum "Si O2"
_cell_formula_units_Z 56
_cell_length_a 20.932974
_cell_length_b 13.810128
_cell_length_c 18.295479
_cell_angle_alpha 90.000000
_cell_angle_beta 30.547357
_cell_angle_gamma 90.000000
_cell_volume 2688.129051
_symmetry_space_group_name_H-M "C 2/C"
_symmetry_group_IT_number 15
_symmetry_cell_setting 'monoclinic'
loop_
_space_group_symop_operation_xyz
x,y,z
-x,y,1/2-z
-x,-y,-z
x,-y,1/2+z
1/2+x,1/2+y,z
1/2-x,1/2+y,1/2-z
1/2-x,1/2-y,-z
1/2+x,1/2-y,1/2+z
loop_
_atom_site_type_symbol
_atom_site_label
_atom_site_fract_x
_atom_site_fract_y
_atom_site_fract_z
Si Si1 0.278599 0.763407 0.791815
Si Si2 0.500000 0.554056 0.750000
Si Si3 0.472939 0.277119 0.547168
Si Si4 0.400487 0.909648 0.788966
Si Si5 0.390414 0.890314 0.233954
Si Si6 0.601127 0.392675 0.543044
Si Si7 0.266517 0.347502 0.436349
Si Si8 0.000000 0.260520 0.250000
O O1 0.397997 0.731711 0.625938
O O2 0.156480 0.799771 0.868223
O O3 0.339165 0.840436 0.788879
O O4 0.224770 0.676567 0.896083
O O5 0.560977 0.486173 0.628174
O O6 0.589918 0.624164 0.706372
O O7 0.448185 0.172865 0.611195
O O8 0.502594 0.359312 0.578184
O O9 0.500000 0.866145 0.750000
O O10 0.444888 0.004364 0.701807
O O11 0.295637 0.932177 0.954165
O O12 0.240499 0.901886 0.373126
O O13 0.418180 0.825669 0.277316
O O14 0.591043 0.306010 0.611774
O O15 0.250000 0.250000 0.500000
#
# Coordination Sequence:
#
# PCOD9283951 Si02
#       8
#     8   4   8   8   8   8   8   4
#     4  11  25  43  67  92 136 179 224 263 340 411
#     4  11  22  42  67 104 122 164 227 290 326 375
#     4  11  24  45  65  94 137 188 215 265 338 419
#     4  11  23  42  67  97 126 165 224 286 333 386
#     4  11  20  40  64  97 131 167 222 276 332 398
#     4  10  21  40  65  95 133 168 225 272 334 395
#     4  10  24  40  69  91 127 167 221 277 328 387
#     4   9  20  34  65  92 130 172 211 282 330 385
#
# _framework density 20.832332000000001
#
# number of rings (size 3 to 8) (size 9 to 14) (size 15 to 20)
#    0.000    1.429    3.571    1.286    8.000    0.571 
#    5.143    1.429    0.000    0.000    0.000    0.000 
#    0.000    0.000    0.000    0.000    0.000    0.000 
#
# Total GULP energy -155976.454994 kJ/mol
# GULP energy per Si atom -5570.587678 kJ/mol
# Density = 2.078492 g / cm^3
# Si number density = 20.832332 Si / 1000 Ang^3
#
#
#
# Elastic Constant Matrix: (Units=GPa)
#
#
# Indices 1 2 3 4 5 6 
#
# 1 135.1194 28.8669 29.9743 0.0000 -8.6786 0.0000
# 2 28.8669 64.8287 10.0287 0.0000 2.0353 0.0000
# 3 29.9743 10.0287 81.2677 0.0000 5.6343 -0.0001
# 4 0.0000 0.0000 0.0000 -15.1382 0.0000 -17.6810
# 5 -8.6786 2.0353 5.6343 0.0000 31.5440 0.0000
# 6 0.0000 0.0000 -0.0001 -17.6810 0.0000 12.8963
#
#
#
# Elastic Compliance Matrix: (Units=1/GPa)
#
#
# Indices 1 2 3 4 5 6 
#
# 1 0.009090 -0.003667 -0.003129 0.000000 0.003296 0.000000
# 2 -0.003667 0.017219 -0.000633 0.000000 -0.002007 0.000000
# 3 -0.003129 -0.000633 0.013764 0.000000 -0.003278 0.000000
# 4 0.000000 0.000000 0.000000 -0.025394 0.000000 -0.034816
# 5 0.003296 -0.002007 -0.003278 0.000000 0.033324 0.000000
# 6 0.000000 0.000000 0.000000 -0.034816 0.000000 0.029809
#
#
# Mechanical properties :
#
#
# Convention : Reuss Voigt Hill
#
# Bulk Modulus (GPa) = 39.65812 46.55062 43.10437
# Shear Modulus (GPa) = 49.46814 20.01682 34.74248
#
# Velocity S-wave (km/s) = 4.87826 3.10313 4.08820
# Velocity P-wave (km/s) = 7.12797 5.93575 6.55900
#
# Compressibility (1/GPa) = 0.02521552
#
# Stress axis : x y z
#
# Youngs Moduli (GPa) = 110.00988 58.07503 72.65097
#
# Poissons Ratio (x) = 0.21297 0.22731
# Poissons Ratio (y) = 0.40342 0.04600
# Poissons Ratio (z) = 0.34419 0.03677
#
# Static dielectric constant tensor:
#      x y z
#    x 1.785600 0.000000 -0.044660 
#    y 0.000000 1.763480 0.000000 
#    z -0.044660 0.000000 1.906190 
# 
# From -- ./inp_files/215743.got.cif
#   From: 2010.05.17/outbox.cif.g08.bks.cpg/sg15_108_cif.got.tgz:215743.got - 2010.06.03 18:47:42.
