data_PCOD9283484
_publ_section_title
;
Structure prediction by ZEFSAII (Michael W. Deem and Ramdas Pophale) SiO2 
 PCOD9283484
Probable space group: C 2/C
;
_chemical_formula_sum "Si O2"
_cell_formula_units_Z 28
_cell_length_a 9.082930
_cell_length_b 13.043807
_cell_length_c 9.713424
_cell_angle_alpha 90.000000
_cell_angle_beta 110.087432
_cell_angle_gamma 90.000000
_cell_volume 1080.803420
_symmetry_space_group_name_H-M "C 2/C"
_symmetry_group_IT_number 15
_symmetry_cell_setting 'monoclinic'
loop_
_space_group_symop_operation_xyz
x,y,z
-x,y,1/2-z
-x,-y,-z
x,-y,1/2+z
1/2+x,1/2+y,z
1/2-x,1/2+y,1/2-z
1/2-x,1/2-y,-z
1/2+x,1/2-y,1/2+z
loop_
_atom_site_type_symbol
_atom_site_label
_atom_site_fract_x
_atom_site_fract_y
_atom_site_fract_z
Si Si1 0.000000 0.382567 0.750000
Si Si2 0.256485 0.493539 0.707190
Si Si3 0.186651 0.878015 0.521844
Si Si4 0.592877 0.699054 0.399397
O O1 0.923016 0.456318 0.840279
O O2 0.689333 0.484023 0.616377
O O3 0.291299 0.592475 0.628900
O O4 0.348805 0.402509 0.660892
O O5 0.152780 0.328228 0.863960
O O6 0.030220 0.822588 0.519374
O O7 0.500000 0.760840 0.250000
O O8 0.750000 0.750000 0.500000
#
# Coordination Sequence:
#
# PCOD9283484 Si02
#       4
#     4   8   8   8
#     4   8  18  30  60  90 134 144 206 254 340 344
#     4   9  18  34  62  91 127 160 208 273 318 371
#     4   9  18  34  62  94 124 160 209 273 320 366
#     4  10  21  40  62  86 129 174 213 261 321 383
#
# _framework density 25.906655000000001
#
# number of rings (size 3 to 8) (size 9 to 14) (size 15 to 20)
#    1.714    1.143    0.000    1.714    0.000    0.000 
#    2.571    1.429    6.286    0.000    0.000    0.000 
#    0.000    0.000    0.000    0.000    0.000    0.000 
#
# Total GULP energy -78116.890170 kJ/mol
# GULP energy per Si atom -5579.777869 kJ/mol
# Density = 2.584769 g / cm^3
# Si number density = 25.906655 Si / 1000 Ang^3
#
#
#
# Elastic Constant Matrix: (Units=GPa)
#
#
# Indices 1 2 3 4 5 6 
#
# 1 250.5568 45.8630 42.8108 0.0000 19.0284 0.0000
# 2 45.8630 46.2345 23.9770 0.0000 1.5984 0.0000
# 3 42.8108 23.9770 75.3637 0.0000 19.1409 0.0000
# 4 0.0000 0.0000 0.0000 6.7469 0.0000 -6.9465
# 5 19.0284 1.5984 19.1409 0.0000 60.0713 0.0000
# 6 0.0000 0.0000 0.0000 -6.9465 0.0000 40.2876
#
#
#
# Elastic Compliance Matrix: (Units=1/GPa)
#
#
# Indices 1 2 3 4 5 6 
#
# 1 0.005083 -0.004374 -0.001215 0.000000 -0.001107 0.000000
# 2 -0.004374 0.029914 -0.007815 0.000000 0.003080 0.000000
# 3 -0.001215 -0.007815 0.017730 0.000000 -0.005057 0.000000
# 4 0.000000 0.000000 0.000000 0.180208 0.000000 0.031072
# 5 -0.001107 0.003080 -0.005057 0.000000 0.018527 0.000000
# 6 0.000000 0.000000 0.000000 0.031072 0.000000 0.030179
#
#
# Mechanical properties :
#
#
# Convention : Reuss Voigt Hill
#
# Bulk Modulus (GPa) = 38.58067 66.38406 52.48237
# Shear Modulus (GPa) = 15.76846 38.72142 27.24494
#
# Velocity S-wave (km/s) = 2.46979 3.87027 3.24645
# Velocity P-wave (km/s) = 4.80184 6.75662 5.86130
#
# Compressibility (1/GPa) = 0.02591972
#
# Stress axis : x y z
#
# Youngs Moduli (GPa) = 196.71748 33.42902 56.40291
#
# Poissons Ratio (x) = 0.14623 0.06852
# Poissons Ratio (y) = 0.86050 0.44076
# Poissons Ratio (z) = 0.23899 0.26123
#
# Static dielectric constant tensor:
#      x y z
#    x 1.834450 0.000000 -0.065620 
#    y 0.000000 2.150630 0.000000 
#    z -0.065620 0.000000 2.040830 
# 
# From -- ./inp_files/40494.got.cif
#   From: 2010.05.17/outbox.cif.g08.bks.cpg/sg15_21_cif.got.tgz:40494.got - 2010.06.03 18:47:42.
