data_PCOD9283384
_publ_section_title
;
Structure prediction by ZEFSAII (Michael W. Deem and Ramdas Pophale) SiO2 
 PCOD9283384
Probable space group: C 2/C
;
_chemical_formula_sum "Si O2"
_cell_formula_units_Z 44
_cell_length_a 21.761697
_cell_length_b 14.420739
_cell_length_c 10.882347
_cell_angle_alpha 90.000000
_cell_angle_beta 34.965689
_cell_angle_gamma 90.000000
_cell_volume 1957.142679
_symmetry_space_group_name_H-M "C 2/C"
_symmetry_group_IT_number 15
_symmetry_cell_setting 'monoclinic'
loop_
_space_group_symop_operation_xyz
x,y,z
-x,y,1/2-z
-x,-y,-z
x,-y,1/2+z
1/2+x,1/2+y,z
1/2-x,1/2+y,1/2-z
1/2-x,1/2-y,-z
1/2+x,1/2-y,1/2+z
loop_
_atom_site_type_symbol
_atom_site_label
_atom_site_fract_x
_atom_site_fract_y
_atom_site_fract_z
Si Si1 0.582978 0.251944 0.212921
Si Si2 0.593348 0.810006 0.304449
Si Si3 0.826585 0.411919 0.103393
Si Si4 0.500000 0.059376 0.750000
Si Si5 0.638017 0.572204 0.738112
Si Si6 0.932524 0.887617 0.735670
O O1 0.500000 0.295940 0.250000
O O2 0.514339 0.209133 0.437437
O O3 0.662344 0.333270 0.124637
O O4 0.633654 0.167084 0.056481
O O5 0.673516 0.861401 0.265707
O O6 0.562417 0.876411 0.243710
O O7 0.625059 0.708399 0.204003
O O8 0.715403 0.443991 0.226842
O O9 0.914119 0.493383 0.958560
O O10 0.636123 0.481508 0.656694
O O11 0.520485 0.594699 0.984393
O O12 0.000000 0.876448 0.750000
#
# Coordination Sequence:
#
# PCOD9283384 Si02
#       6
#     8   8   8   4   8   8
#     4   9  18  38  63  88 122 156 197 246 293 357
#     4  10  21  40  61  85 121 161 200 245 305 352
#     4  11  22  38  60  94 120 159 202 246 301 358
#     4  12  22  40  62  82 124 160 200 254 296 362
#     4  10  22  38  63  92 118 157 202 245 301 360
#     4  10  21  43  62  86 122 161 199 248 302 356
#
# _framework density 22.481753999999999
#
# number of rings (size 3 to 8) (size 9 to 14) (size 15 to 20)
#    0.000    1.818    3.636    1.636    0.000    2.909 
#    6.545    1.818    0.000    0.000    0.000    0.000 
#    0.000    0.000    0.000    0.000    0.000    0.000 
#
# Total GULP energy -122940.480992 kJ/mol
# GULP energy per Si atom -5588.203681 kJ/mol
# Density = 2.243058 g / cm^3
# Si number density = 22.481754 Si / 1000 Ang^3
#
#
#
# Elastic Constant Matrix: (Units=GPa)
#
#
# Indices 1 2 3 4 5 6 
#
# 1 90.0979 36.5083 -4.2767 0.0000 9.3080 0.0000
# 2 36.5083 144.5951 23.5320 0.0000 11.2775 0.0000
# 3 -4.2767 23.5320 40.5560 0.0000 8.3102 0.0000
# 4 0.0000 0.0000 0.0000 7.1163 0.0000 18.0088
# 5 9.3080 11.2775 8.3102 0.0000 32.6237 0.0000
# 6 0.0000 0.0000 0.0000 18.0088 0.0000 -5.0387
#
#
#
# Elastic Compliance Matrix: (Units=1/GPa)
#
#
# Indices 1 2 3 4 5 6 
#
# 1 0.013191 -0.003752 0.004298 0.000000 -0.003561 0.000000
# 2 -0.003752 0.008784 -0.005370 0.000000 -0.000598 0.000000
# 3 0.004298 -0.005370 0.029645 0.000000 -0.006921 0.000000
# 4 0.000000 0.000000 0.000000 0.013990 0.000000 0.050000
# 5 -0.003561 -0.000598 -0.006921 0.000000 0.033638 0.000000
# 6 0.000000 0.000000 0.000000 0.050000 0.000000 -0.019758
#
#
# Mechanical properties :
#
#
# Convention : Reuss Voigt Hill
#
# Bulk Modulus (GPa) = 23.82566 42.97513 33.40040
# Shear Modulus (GPa) = 48.48310 21.57262 35.02786
#
# Velocity S-wave (km/s) = 4.64891 3.10104 3.95151
# Velocity P-wave (km/s) = 6.27991 5.65500 5.97563
#
# Compressibility (1/GPa) = 0.04197155
#
# Stress axis : x y z
#
# Youngs Moduli (GPa) = 75.80647 113.84541 33.73305
#
# Poissons Ratio (x) = 0.42719 -0.14499
# Poissons Ratio (y) = 0.28446 0.18114
# Poissons Ratio (z) = -0.32582 0.61133
#
# Static dielectric constant tensor:
#      x y z
#    x 1.816440 0.000000 -0.016800 
#    y 0.000000 1.831430 0.000000 
#    z -0.016800 0.000000 1.872800 
# 
# From -- ./inp_files/104069.got.cif
#   From: 2010.05.17/outbox.cif.g08.bks.cpg/sg15_53_cif.got.tgz:104069.got - 2010.06.03 18:47:42.
