data_PCOD9283894
_publ_section_title
;
Structure prediction by ZEFSAII (Michael W. Deem and Ramdas Pophale) SiO2 
 PCOD9283894
Probable space group: C 2/C
;
_chemical_formula_sum "Si O2"
_cell_formula_units_Z 40
_cell_length_a 24.633689
_cell_length_b 12.210599
_cell_length_c 7.425838
_cell_angle_alpha 90.000000
_cell_angle_beta 47.993103
_cell_angle_gamma 90.000000
_cell_volume 1659.733174
_symmetry_space_group_name_H-M "C 2/C"
_symmetry_group_IT_number 15
_symmetry_cell_setting 'monoclinic'
loop_
_space_group_symop_operation_xyz
x,y,z
-x,y,1/2-z
-x,-y,-z
x,-y,1/2+z
1/2+x,1/2+y,z
1/2-x,1/2+y,1/2-z
1/2-x,1/2-y,-z
1/2+x,1/2-y,1/2+z
loop_
_atom_site_type_symbol
_atom_site_label
_atom_site_fract_x
_atom_site_fract_y
_atom_site_fract_z
Si Si1 0.922015 0.249606 0.515252
Si Si2 0.192767 0.405299 0.800530
Si Si3 0.849405 0.363194 0.985951
Si Si4 0.084600 0.027006 0.785429
Si Si5 0.662575 0.361911 0.805964
O O1 0.863666 0.310479 0.519844
O O2 0.897954 0.128162 0.620639
O O3 0.000000 0.247580 0.250000
O O4 0.918004 0.322625 0.709878
O O5 0.151996 0.521333 0.911134
O O6 0.207641 0.376466 0.556288
O O7 0.263103 0.402859 0.768015
O O8 0.835091 0.267073 0.160062
O O9 0.096598 0.086494 0.569015
O O10 0.141349 0.925522 0.672613
O O11 0.000000 0.000000 0.000000
#
# Coordination Sequence:
#
# PCOD9283894 Si02
#       5
#     8   8   8   8   8
#     4   9  21  40  64  90 129 168 214 266 317 379
#     4  10  21  40  65  91 133 171 214 257 329 375
#     4   9  22  40  60  94 127 171 215 260 317 382
#     4  11  23  42  67  97 127 169 216 272 333 376
#     4  11  22  40  66  94 133 166 212 275 316 392
#
# _framework density 24.100259999999999
#
# number of rings (size 3 to 8) (size 9 to 14) (size 15 to 20)
#    1.200    0.800    0.000    3.600    2.800    0.800 
#    7.200    4.000    0.000    0.000    0.000    0.000 
#    0.000    0.000    0.000    0.000    0.000    0.000 
#
# Total GULP energy -111544.681430 kJ/mol
# GULP energy per Si atom -5577.234072 kJ/mol
# Density = 2.404541 g / cm^3
# Si number density = 24.100260 Si / 1000 Ang^3
#
#
#
# Elastic Constant Matrix: (Units=GPa)
#
#
# Indices 1 2 3 4 5 6 
#
# 1 84.2758 38.2048 9.1699 0.0000 11.0526 0.0000
# 2 38.2048 193.9104 25.7725 0.0000 4.9869 0.0000
# 3 9.1699 25.7725 49.3906 0.0000 -1.9419 0.0000
# 4 0.0000 0.0000 0.0000 26.2363 0.0000 11.4909
# 5 11.0526 4.9869 -1.9419 0.0000 23.9328 0.0000
# 6 0.0000 0.0000 0.0000 11.4909 0.0000 33.7383
#
#
#
# Elastic Compliance Matrix: (Units=1/GPa)
#
#
# Indices 1 2 3 4 5 6 
#
# 1 0.013909 -0.002374 -0.001581 0.000000 -0.006057 0.000000
# 2 -0.002374 0.005993 -0.002701 0.000000 -0.000371 0.000000
# 3 -0.001581 -0.002701 0.022071 0.000000 0.003084 0.000000
# 4 0.000000 0.000000 0.000000 0.044798 0.000000 -0.015258
# 5 -0.006057 -0.000371 0.003084 0.000000 0.044908 0.000000
# 6 0.000000 0.000000 0.000000 -0.015258 0.000000 0.034837
#
#
# Mechanical properties :
#
#
# Convention : Reuss Voigt Hill
#
# Bulk Modulus (GPa) = 34.89290 52.65234 43.77262
# Shear Modulus (GPa) = 26.40156 33.74345 30.07250
#
# Velocity S-wave (km/s) = 3.31341 3.74589 3.53627
# Velocity P-wave (km/s) = 5.39888 6.37209 5.90557
#
# Compressibility (1/GPa) = 0.02865913
#
# Stress axis : x y z
#
# Youngs Moduli (GPa) = 71.89806 166.85051 45.30802
#
# Poissons Ratio (x) = 0.39616 0.07165
# Poissons Ratio (y) = 0.17071 0.12239
# Poissons Ratio (z) = 0.11370 0.45069
#
# Static dielectric constant tensor:
#      x y z
#    x 2.113290 0.000000 0.178790 
#    y 0.000000 1.981040 0.000000 
#    z 0.178790 0.000000 2.061550 
# 
# From -- ./inp_files/68944.got.cif
#   From: 2010.05.17/outbox.cif.g08.bks.cpg/sg15_35_cif.got.tgz:68944.got - 2010.06.03 18:47:42.
