data_PCOD9283061
_publ_section_title
;
Structure prediction by ZEFSAII (Michael W. Deem and Ramdas Pophale) SiO2 
 PCOD9283061
Probable space group: C 2/C
;
_chemical_formula_sum "Si O2"
_cell_formula_units_Z 40
_cell_length_a 16.365601
_cell_length_b 7.809265
_cell_length_c 13.975279
_cell_angle_alpha 90.000000
_cell_angle_beta 89.783132
_cell_angle_gamma 90.000000
_cell_volume 1786.074191
_symmetry_space_group_name_H-M "C 2/C"
_symmetry_group_IT_number 15
_symmetry_cell_setting 'monoclinic'
loop_
_space_group_symop_operation_xyz
x,y,z
-x,y,1/2-z
-x,-y,-z
x,-y,1/2+z
1/2+x,1/2+y,z
1/2-x,1/2+y,1/2-z
1/2-x,1/2-y,-z
1/2+x,1/2-y,1/2+z
loop_
_atom_site_type_symbol
_atom_site_label
_atom_site_fract_x
_atom_site_fract_y
_atom_site_fract_z
Si Si1 0.221949 0.078784 0.557840
Si Si2 0.267175 0.685737 0.216760
Si Si3 0.571672 0.652393 0.029530
Si Si4 0.560377 0.506476 0.340213
Si Si5 0.305358 0.892157 0.391396
O O1 0.250000 0.250000 0.500000
O O2 0.255297 0.134248 0.660370
O O3 0.128672 0.011566 0.561411
O O4 0.259534 0.936036 0.488842
O O5 0.353811 0.592455 0.191737
O O6 0.266269 0.743135 0.326235
O O7 0.197970 0.562376 0.173465
O O8 0.486095 0.627572 0.083105
O O9 0.608643 0.821229 0.075983
O O10 0.573341 0.652339 0.913687
O O11 0.500000 0.479261 0.250000
#
# Coordination Sequence:
#
# PCOD9283061 Si02
#       5
#     8   8   8   8   8
#     4  10  21  39  66  99 127 165 219 276 321 380
#     4  11  23  42  70  96 131 172 220 276 325 387
#     4  11  22  40  70  92 128 176 219 263 328 393
#     4  11  23  41  63  94 133 174 217 256 333 401
#     4  11  22  40  67 100 127 169 224 272 321 391
#
# _framework density 22.395485000000001
#
# number of rings (size 3 to 8) (size 9 to 14) (size 15 to 20)
#    0.000    1.200    6.000    1.800    0.000    0.000 
#    0.000    1.000    0.000    4.800    0.000    0.000 
#    0.000    0.000    0.000    0.000    0.000    0.000 
#
# Total GULP energy -111426.621496 kJ/mol
# GULP energy per Si atom -5571.331075 kJ/mol
# Density = 2.234451 g / cm^3
# Si number density = 22.395485 Si / 1000 Ang^3
#
#
#
# Elastic Constant Matrix: (Units=GPa)
#
#
# Indices 1 2 3 4 5 6 
#
# 1 67.8898 12.2531 19.3546 0.0000 -4.8969 0.0000
# 2 12.2531 87.9928 33.8821 0.0000 -0.9783 0.0000
# 3 19.3546 33.8821 170.8827 0.0000 19.0641 0.0000
# 4 0.0000 0.0000 0.0000 52.7496 0.0000 3.5813
# 5 -4.8969 -0.9783 19.0641 0.0000 41.4263 0.0000
# 6 0.0000 0.0000 0.0000 3.5813 0.0000 18.1477
#
#
#
# Elastic Compliance Matrix: (Units=1/GPa)
#
#
# Indices 1 2 3 4 5 6 
#
# 1 0.015693 -0.001470 -0.001780 0.000000 0.002640 0.000000
# 2 -0.001470 0.012530 -0.002458 0.000000 0.001253 0.000000
# 3 -0.001780 -0.002458 0.006926 0.000000 -0.003456 0.000000
# 4 0.000000 0.000000 0.000000 0.019215 0.000000 -0.003792
# 5 0.002640 0.001253 -0.003456 0.000000 0.026071 0.000000
# 6 0.000000 0.000000 0.000000 -0.003792 0.000000 0.055852
#
#
# Mechanical properties :
#
#
# Convention : Reuss Voigt Hill
#
# Bulk Modulus (GPa) = 42.13646 50.86055 46.49850
# Shear Modulus (GPa) = 32.13070 39.88310 36.00690
#
# Velocity S-wave (km/s) = 3.79185 4.22460 4.01406
# Velocity P-wave (km/s) = 6.16655 6.82318 6.50316
#
# Compressibility (1/GPa) = 0.02373242
#
# Stress axis : x y z
#
# Youngs Moduli (GPa) = 63.72231 79.81131 144.37399
#
# Poissons Ratio (x) = 0.11735 0.25704
# Poissons Ratio (y) = 0.09370 0.35481
# Poissons Ratio (z) = 0.11345 0.19614
#
# Static dielectric constant tensor:
#      x y z
#    x 1.886270 0.000000 0.023680 
#    y 0.000000 1.914570 0.000000 
#    z 0.023680 0.000000 1.939890 
# 
# From -- ./inp_files/165431.got.cif
#   From: 2010.05.17/outbox.cif.g08.bks.cpg/sg15_83_cif.got.tgz:165431.got - 2010.06.03 18:47:42.
