data_PCOD9283812
_publ_section_title
;
Structure prediction by ZEFSAII (Michael W. Deem and Ramdas Pophale) SiO2 
 PCOD9283812
Probable space group: C 2/C
;
_chemical_formula_sum "Si O2"
_cell_formula_units_Z 56
_cell_length_a 20.584627
_cell_length_b 7.424328
_cell_length_c 28.249839
_cell_angle_alpha 90.000000
_cell_angle_beta 148.808039
_cell_angle_gamma 90.000000
_cell_volume 2235.979937
_symmetry_space_group_name_H-M "C 2/C"
_symmetry_group_IT_number 15
_symmetry_cell_setting 'monoclinic'
loop_
_space_group_symop_operation_xyz
x,y,z
-x,y,1/2-z
-x,-y,-z
x,-y,1/2+z
1/2+x,1/2+y,z
1/2-x,1/2+y,1/2-z
1/2-x,1/2-y,-z
1/2+x,1/2-y,1/2+z
loop_
_atom_site_type_symbol
_atom_site_label
_atom_site_fract_x
_atom_site_fract_y
_atom_site_fract_z
Si Si1 0.322368 0.895227 0.226603
Si Si2 0.798014 0.562858 0.470711
Si Si3 0.350018 0.896663 0.352289
Si Si4 0.889442 0.803021 0.249952
Si Si5 0.418729 0.789944 0.952808
Si Si6 0.848119 0.256977 0.613304
Si Si7 0.415268 0.830345 0.138071
O O1 0.335883 0.837151 0.289643
O O2 0.183348 0.863647 0.120055
O O3 0.435012 0.812413 0.264889
O O4 0.354823 0.105280 0.246833
O O5 0.854530 0.592934 0.454705
O O6 0.776774 0.357749 0.474924
O O7 0.667223 0.670326 0.392945
O O8 0.886792 0.659470 0.564174
O O9 0.210008 0.924835 0.285363
O O10 0.440216 0.764034 0.439600
O O11 0.416080 0.089262 0.403693
O O12 0.865192 0.800339 0.178861
O O13 0.037681 0.825340 0.346169
O O14 0.865217 0.473337 0.624440
#
# Coordination Sequence:
#
# PCOD9283812 Si02
#       7
#     8   8   8   8   8   8   8
#     4  11  23  42  64  95 133 169 217 279 329 390
#     4  11  21  41  66  97 132 171 218 270 332 391
#     4  11  23  44  63  94 132 169 225 265 327 407
#     4  10  22  39  62  93 126 170 221 267 328 395
#     4  11  24  40  69  92 127 181 214 270 333 394
#     4  10  21  40  64  95 129 171 219 271 329 389
#     4  10  23  39  65  99 132 167 217 278 326 390
#
# _framework density 25.044948999999999
#
# number of rings (size 3 to 8) (size 9 to 14) (size 15 to 20)
#    0.000    1.429    2.857    2.143    2.000    2.286 
#    0.000    0.000    0.000    0.000    0.000    0.000 
#    0.000    0.000    0.000    0.000    0.000    0.000 
#
# Total GULP energy -156441.296913 kJ/mol
# GULP energy per Si atom -5587.189175 kJ/mol
# Density = 2.498795 g / cm^3
# Si number density = 25.044949 Si / 1000 Ang^3
#
#
#
# Elastic Constant Matrix: (Units=GPa)
#
#
# Indices 1 2 3 4 5 6 
#
# 1 77.0161 29.0059 28.6360 -0.0001 11.8071 -0.0002
# 2 29.0059 61.5958 26.3783 -0.0003 12.4461 -0.0010
# 3 28.6360 26.3783 97.1676 0.0000 -0.1109 0.0000
# 4 -0.0001 -0.0003 0.0000 36.3432 0.0001 5.0074
# 5 11.8071 12.4461 -0.1109 0.0001 23.3553 0.0000
# 6 -0.0002 -0.0010 0.0000 5.0074 0.0000 30.9702
#
#
#
# Elastic Compliance Matrix: (Units=1/GPa)
#
#
# Indices 1 2 3 4 5 6 
#
# 1 0.017264 -0.005388 -0.003632 0.000000 -0.005874 0.000000
# 2 -0.005388 0.022615 -0.004562 0.000000 -0.009349 0.000001
# 3 -0.003632 -0.004562 0.012605 0.000000 0.004327 0.000000
# 4 0.000000 0.000000 0.000000 0.028142 0.000000 -0.004550
# 5 -0.005874 -0.009349 0.004327 0.000000 0.050789 0.000000
# 6 0.000000 0.000001 0.000000 -0.004550 0.000000 0.033025
#
#
# Mechanical properties :
#
#
# Convention : Reuss Voigt Hill
#
# Bulk Modulus (GPa) = 39.49313 44.86888 42.18100
# Shear Modulus (GPa) = 24.99436 28.25101 26.62269
#
# Velocity S-wave (km/s) = 3.16251 3.36223 3.26390
# Velocity P-wave (km/s) = 5.39800 5.74692 5.57519
#
# Compressibility (1/GPa) = 0.02532086
#
# Stress axis : x y z
#
# Youngs Moduli (GPa) = 57.92270 44.21881 79.33140
#
# Poissons Ratio (x) = 0.23823 0.28814
# Poissons Ratio (y) = 0.31206 0.36193
# Poissons Ratio (z) = 0.21038 0.20174
#
# Static dielectric constant tensor:
#      x y z
#    x 1.976610 0.000000 0.003390 
#    y 0.000000 2.033910 0.000000 
#    z 0.003390 0.000000 2.183590 
# 
# From -- ./inp_files/317538.got.cif
#   From: 2010.05.17/outbox.cif.g08.bks.cpg/sg15_159_cif.got.tgz:317538.got - 2010.06.03 18:47:42.
