data_PCOD9283800
_publ_section_title
;
Structure prediction by ZEFSAII (Michael W. Deem and Ramdas Pophale) SiO2 
 PCOD9283800
Probable space group: C 2/C
;
_chemical_formula_sum "Si O2"
_cell_formula_units_Z 56
_cell_length_a 8.178189
_cell_length_b 21.143103
_cell_length_c 15.350963
_cell_angle_alpha 90.000000
_cell_angle_beta 90.429861
_cell_angle_gamma 90.000000
_cell_volume 2654.295499
_symmetry_space_group_name_H-M "C 2/C"
_symmetry_group_IT_number 15
_symmetry_cell_setting 'monoclinic'
loop_
_space_group_symop_operation_xyz
x,y,z
-x,y,1/2-z
-x,-y,-z
x,-y,1/2+z
1/2+x,1/2+y,z
1/2-x,1/2+y,1/2-z
1/2-x,1/2-y,-z
1/2+x,1/2-y,1/2+z
loop_
_atom_site_type_symbol
_atom_site_label
_atom_site_fract_x
_atom_site_fract_y
_atom_site_fract_z
Si Si1 0.654625 0.614261 0.101985
Si Si2 0.804064 0.212963 0.753647
Si Si3 0.686654 0.140063 0.220180
Si Si4 0.380771 0.242204 0.923933
Si Si5 0.124425 0.552656 0.537338
Si Si6 0.133621 0.639112 0.905084
Si Si7 0.816115 0.065415 0.057812
O O1 0.710704 0.608800 0.201361
O O2 0.581578 0.684945 0.096010
O O3 0.507599 0.570243 0.073691
O O4 0.805037 0.599350 0.037081
O O5 0.776274 0.285107 0.786735
O O6 0.714922 0.212740 0.659478
O O7 0.721830 0.164023 0.819486
O O8 0.000000 0.203185 0.750000
O O9 0.500000 0.135851 0.250000
O O10 0.722124 0.104173 0.132128
O O11 0.541142 0.200931 0.945093
O O12 0.250000 0.250000 0.000000
O O13 0.268588 0.507719 0.568226
O O14 0.000000 0.500000 0.500000
O O15 0.020114 0.591664 0.606396
O O16 0.256672 0.600854 0.969046
#
# Coordination Sequence:
#
# PCOD9283800 Si02
#       7
#     8   8   8   8   8   8   8
#     4  11  22  41  66  95 131 166 224 272 319 390
#     4  10  24  40  63 100 137 165 214 269 328 395
#     4  10  21  40  64  94 131 170 213 266 322 390
#     4  11  23  40  68  95 133 174 212 265 335 398
#     4  10  22  42  64  89 124 173 218 263 324 389
#     4  11  23  41  65  96 133 169 213 269 333 384
#     4  11  24  39  68  96 127 173 223 266 324 388
#
# _framework density 21.097878000000001
#
# number of rings (size 3 to 8) (size 9 to 14) (size 15 to 20)
#    0.000    1.429    1.429    3.857    6.000    3.429 
#    0.000    7.143    0.000    0.000    0.000    0.000 
#    0.000    0.000    0.000    0.000    0.000    0.000 
#
# Total GULP energy -156327.532599 kJ/mol
# GULP energy per Si atom -5583.126164 kJ/mol
# Density = 2.104986 g / cm^3
# Si number density = 21.097878 Si / 1000 Ang^3
#
#
#
# Elastic Constant Matrix: (Units=GPa)
#
#
# Indices 1 2 3 4 5 6 
#
# 1 88.7164 43.7602 30.3286 0.0000 -7.3422 0.0000
# 2 43.7602 89.3531 46.6819 0.0000 -4.5139 0.0000
# 3 30.3286 46.6819 107.1493 0.0000 -19.8679 0.0000
# 4 0.0000 0.0000 0.0000 26.6049 0.0000 -7.6631
# 5 -7.3422 -4.5139 -19.8679 0.0000 34.7255 0.0000
# 6 0.0000 0.0000 0.0000 -7.6631 0.0000 25.4569
#
#
#
# Elastic Compliance Matrix: (Units=1/GPa)
#
#
# Indices 1 2 3 4 5 6 
#
# 1 0.015105 -0.006790 -0.000994 0.000000 0.001742 0.000000
# 2 -0.006790 0.017659 -0.006278 0.000000 -0.002732 0.000000
# 3 -0.000994 -0.006278 0.013602 0.000000 0.006756 0.000000
# 4 0.000000 0.000000 0.000000 0.041155 0.000000 0.012389
# 5 0.001742 -0.002732 0.006756 0.000000 0.032676 0.000000
# 6 0.000000 0.000000 0.000000 0.012389 0.000000 0.043011
#
#
# Mechanical properties :
#
#
# Convention : Reuss Voigt Hill
#
# Bulk Modulus (GPa) = 54.82096 58.52891 56.67493
# Shear Modulus (GPa) = 25.32738 28.32067 26.82403
#
# Velocity S-wave (km/s) = 3.46854 3.66778 3.56955
# Velocity P-wave (km/s) = 6.48703 6.76304 6.62647
#
# Compressibility (1/GPa) = 0.01824120
#
# Stress axis : x y z
#
# Youngs Moduli (GPa) = 66.20176 56.62816 73.51807
#
# Poissons Ratio (x) = 0.38453 0.07309
# Poissons Ratio (y) = 0.44953 0.46156
# Poissons Ratio (z) = 0.06581 0.35552
#
# Static dielectric constant tensor:
#      x y z
#    x 1.807890 0.000000 0.009940 
#    y 0.000000 1.821250 0.000000 
#    z 0.009940 0.000000 1.747920 
# 
# From -- ./inp_files/136437.got.cif
#   From: 2010.05.17/outbox.cif.g08.bks.cpg/sg15_69_cif.got.tgz:136437.got - 2010.06.03 18:47:42.
