data_PCOD9283981
_publ_section_title
;
Structure prediction by ZEFSAII (Michael W. Deem and Ramdas Pophale) SiO2 
 PCOD9283981
Probable space group: C 2/C
;
_chemical_formula_sum "Si O2"
_cell_formula_units_Z 44
_cell_length_a 10.299033
_cell_length_b 23.653159
_cell_length_c 10.828834
_cell_angle_alpha 90.000000
_cell_angle_beta 128.040808
_cell_angle_gamma 90.000000
_cell_volume 2077.579241
_symmetry_space_group_name_H-M "C 2/C"
_symmetry_group_IT_number 15
_symmetry_cell_setting 'monoclinic'
loop_
_space_group_symop_operation_xyz
x,y,z
-x,y,1/2-z
-x,-y,-z
x,-y,1/2+z
1/2+x,1/2+y,z
1/2-x,1/2+y,1/2-z
1/2-x,1/2-y,-z
1/2+x,1/2-y,1/2+z
loop_
_atom_site_type_symbol
_atom_site_label
_atom_site_fract_x
_atom_site_fract_y
_atom_site_fract_z
Si Si1 0.831165 0.560552 0.424082
Si Si2 0.685835 0.932404 0.016386
Si Si3 0.311322 0.653970 0.795734
Si Si4 0.325581 0.229347 0.173044
Si Si5 0.137899 0.880483 0.617160
Si Si6 0.500000 0.123883 0.750000
O O1 0.779544 0.496261 0.419672
O O2 0.679176 0.592019 0.272008
O O3 0.987396 0.568782 0.421426
O O4 0.904832 0.585758 0.593777
O O5 0.770569 0.887482 0.158082
O O6 0.761292 0.916024 0.928380
O O7 0.361307 0.715279 0.775054
O O8 0.139448 0.660097 0.765851
O O9 0.450889 0.625438 0.961509
O O10 0.500000 0.199924 0.250000
O O11 0.207534 0.183200 0.161801
O O12 0.250000 0.250000 0.000000
#
# Coordination Sequence:
#
# PCOD9283981 Si02
#       6
#     8   8   8   8   8   4
#     4  10  24  40  66  93 136 181 214 269 331 401
#     4  10  21  40  65  99 132 170 222 271 330 383
#     4  11  24  44  64  99 134 175 216 279 325 399
#     4  12  22  41  71 103 133 163 220 281 329 378
#     4  12  24  41  70 102 130 173 228 274 334 382
#     4  10  26  48  62  90 140 178 222 264 338 408
#
# _framework density 21.178495999999999
#
# number of rings (size 3 to 8) (size 9 to 14) (size 15 to 20)
#    0.000    1.091    3.636    2.182   10.182    1.455 
#    3.273    3.636    0.000    0.000    0.000    0.000 
#    0.000    0.000    0.000    0.000    0.000    0.000 
#
# Total GULP energy -122952.309340 kJ/mol
# GULP energy per Si atom -5588.741334 kJ/mol
# Density = 2.113029 g / cm^3
# Si number density = 21.178496 Si / 1000 Ang^3
#
#
#
# Elastic Constant Matrix: (Units=GPa)
#
#
# Indices 1 2 3 4 5 6 
#
# 1 63.6745 13.1955 26.7725 0.0000 0.7673 0.0000
# 2 13.1955 92.6224 32.7860 0.0000 3.2775 0.0000
# 3 26.7725 32.7860 134.2855 0.0000 1.5716 0.0000
# 4 0.0000 0.0000 0.0000 -44.6873 0.0000 -29.3821
# 5 0.7673 3.2775 1.5716 0.0000 21.0620 0.0000
# 6 0.0000 0.0000 0.0000 -29.3821 0.0000 -3.6260
#
#
#
# Elastic Compliance Matrix: (Units=1/GPa)
#
#
# Indices 1 2 3 4 5 6 
#
# 1 0.017298 -0.001355 -0.003116 0.000000 -0.000187 0.000000
# 2 -0.001355 0.011980 -0.002636 0.000000 -0.001618 0.000000
# 3 -0.003116 -0.002636 0.008713 0.000000 -0.000126 0.000000
# 4 0.000000 0.000000 0.000000 0.005171 0.000000 -0.041898
# 5 -0.000187 -0.001618 -0.000126 0.000000 0.047747 0.000000
# 6 0.000000 0.000000 0.000000 -0.041898 0.000000 0.063723
#
#
# Mechanical properties :
#
#
# Convention : Reuss Voigt Hill
#
# Bulk Modulus (GPa) = 42.05573 48.45447 45.25510
# Shear Modulus (GPa) = 28.28535 9.07164 18.67849
#
# Velocity S-wave (km/s) = 3.65851 2.07189 2.97300
# Velocity P-wave (km/s) = 6.14387 5.35279 5.76192
#
# Compressibility (1/GPa) = 0.02377797
#
# Stress axis : x y z
#
# Youngs Moduli (GPa) = 57.81037 83.47362 114.77072
#
# Poissons Ratio (x) = 0.11310 0.35759
# Poissons Ratio (y) = 0.07833 0.30252
# Poissons Ratio (z) = 0.18012 0.22002
#
# Static dielectric constant tensor:
#      x y z
#    x 1.834240 0.000000 0.010400 
#    y 0.000000 1.729740 0.000000 
#    z 0.010400 0.000000 1.803340 
# 
# From -- ./inp_files/31858.got.cif
#   From: 2010.05.17/outbox.cif.g08.bks.cpg/sg15_16_cif.got.tgz:31858.got - 2010.06.03 18:47:42.
