data_PCOD9283945
_publ_section_title
;
Structure prediction by ZEFSAII (Michael W. Deem and Ramdas Pophale) SiO2 
 PCOD9283945
Probable space group: C 2/C
;
_chemical_formula_sum "Si O2"
_cell_formula_units_Z 56
_cell_length_a 5.205515
_cell_length_b 20.581510
_cell_length_c 24.595247
_cell_angle_alpha 90.000000
_cell_angle_beta 73.553357
_cell_angle_gamma 90.000000
_cell_volume 2527.252791
_symmetry_space_group_name_H-M "C 2/C"
_symmetry_group_IT_number 15
_symmetry_cell_setting 'monoclinic'
loop_
_space_group_symop_operation_xyz
x,y,z
-x,y,1/2-z
-x,-y,-z
x,-y,1/2+z
1/2+x,1/2+y,z
1/2-x,1/2+y,1/2-z
1/2-x,1/2-y,-z
1/2+x,1/2-y,1/2+z
loop_
_atom_site_type_symbol
_atom_site_label
_atom_site_fract_x
_atom_site_fract_y
_atom_site_fract_z
Si Si1 0.460531 0.246210 0.606995
Si Si2 0.406647 0.686206 0.009435
Si Si3 0.080006 0.130496 0.600595
Si Si4 0.986085 0.011530 0.435727
Si Si5 0.223473 0.304005 0.198311
Si Si6 0.518634 0.826995 0.806885
Si Si7 0.989528 0.588878 0.090802
O O1 0.576276 0.289505 0.551194
O O2 0.327159 0.180276 0.591859
O O3 0.642570 0.223800 0.644676
O O4 0.238215 0.292553 0.649203
O O5 0.181456 0.636155 0.044043
O O6 0.250000 0.750000 0.000000
O O7 0.549879 0.655088 0.949089
O O8 0.936955 0.143285 0.666867
O O9 0.104220 0.054742 0.588349
O O10 0.287473 0.035555 0.403241
O O11 0.754648 0.061722 0.430727
O O12 0.000000 0.000000 0.500000
O O13 0.310672 0.236619 0.220096
O O14 0.000000 0.333218 0.250000
O O15 0.500000 0.862979 0.750000
O O16 0.620203 0.873020 0.849482
#
# Coordination Sequence:
#
# PCOD9283945 Si02
#       7
#     8   8   8   8   8   8   8
#     4   9  20  37  62  96 130 158 216 270 345 404
#     4   9  19  40  60 100 133 163 210 277 351 397
#     4  10  23  38  62  94 131 174 220 274 327 399
#     4  12  26  45  69  94 138 189 232 273 336 404
#     4  11  22  37  68  96 128 174 217 278 344 410
#     4  10  21  40  65  95 130 169 220 284 348 406
#     4  11  26  43  68 100 135 178 233 277 333 414
#
# _framework density 22.158446000000001
#
# number of rings (size 3 to 8) (size 9 to 14) (size 15 to 20)
#    0.000    1.714    2.857    1.286    6.000    1.714 
#    0.000    0.714    3.143    0.000    0.000    0.000 
#    0.000    0.000    0.000    0.000    0.000    0.000 
#
# Total GULP energy -156073.574127 kJ/mol
# GULP energy per Si atom -5574.056219 kJ/mol
# Density = 2.210801 g / cm^3
# Si number density = 22.158446 Si / 1000 Ang^3
#
#
#
# Elastic Constant Matrix: (Units=GPa)
#
#
# Indices 1 2 3 4 5 6 
#
# 1 69.4850 19.9732 29.5856 0.0000 13.5903 0.0000
# 2 19.9732 101.0333 40.6525 0.0000 6.2089 0.0000
# 3 29.5856 40.6525 102.7326 0.0000 4.5201 0.0000
# 4 0.0000 0.0000 0.0000 4.9617 0.0000 25.5801
# 5 13.5903 6.2089 4.5201 0.0000 39.1619 0.0000
# 6 0.0000 0.0000 0.0000 25.5801 0.0000 -4.6172
#
#
#
# Elastic Compliance Matrix: (Units=1/GPa)
#
#
# Indices 1 2 3 4 5 6 
#
# 1 0.017690 -0.001440 -0.004286 0.000000 -0.005416 0.000000
# 2 -0.001440 0.011959 -0.004278 0.000000 -0.000903 0.000000
# 3 -0.004286 -0.004278 0.012630 0.000000 0.000708 0.000000
# 4 0.000000 0.000000 0.000000 0.006818 0.000000 0.037770
# 5 -0.005416 -0.000903 0.000708 0.000000 0.027476 0.000000
# 6 0.000000 0.000000 0.000000 0.037770 0.000000 -0.007326
#
#
# Mechanical properties :
#
#
# Convention : Reuss Voigt Hill
#
# Bulk Modulus (GPa) = 44.90161 50.40816 47.65489
# Shear Modulus (GPa) = 51.71803 20.10393 35.91098
#
# Velocity S-wave (km/s) = 4.83640 3.01538 4.03009
# Velocity P-wave (km/s) = 7.17604 5.90946 6.57333
#
# Compressibility (1/GPa) = 0.02227091
#
# Stress axis : x y z
#
# Youngs Moduli (GPa) = 56.52992 83.61808 79.17531
#
# Poissons Ratio (x) = 0.12037 0.33938
# Poissons Ratio (y) = 0.08138 0.33872
# Poissons Ratio (z) = 0.24231 0.35773
#
# Static dielectric constant tensor:
#      x y z
#    x 1.947170 0.000000 0.219430 
#    y 0.000000 1.866830 0.000000 
#    z 0.219430 0.000000 1.372080 
# 
# From -- ./inp_files/261150.got.cif
#   From: 2010.05.17/outbox.cif.g08.bks.cpg/sg15_131_cif.got.tgz:261150.got - 2010.06.03 18:47:42.
