data_PCOD9283187
_publ_section_title
;
Structure prediction by ZEFSAII (Michael W. Deem and Ramdas Pophale) SiO2 
 PCOD9283187
Probable space group: C 2/C
;
_chemical_formula_sum "Si O2"
_cell_formula_units_Z 56
_cell_length_a 21.673183
_cell_length_b 5.733919
_cell_length_c 26.019692
_cell_angle_alpha 90.000000
_cell_angle_beta 50.791742
_cell_angle_gamma 90.000000
_cell_volume 2505.508836
_symmetry_space_group_name_H-M "C 2/C"
_symmetry_group_IT_number 15
_symmetry_cell_setting 'monoclinic'
loop_
_space_group_symop_operation_xyz
x,y,z
-x,y,1/2-z
-x,-y,-z
x,-y,1/2+z
1/2+x,1/2+y,z
1/2-x,1/2+y,1/2-z
1/2-x,1/2-y,-z
1/2+x,1/2-y,1/2+z
loop_
_atom_site_type_symbol
_atom_site_label
_atom_site_fract_x
_atom_site_fract_y
_atom_site_fract_z
Si Si1 0.784983 0.547977 0.786772
Si Si2 0.692296 0.190746 0.116582
Si Si3 0.133862 0.269451 0.350468
Si Si4 0.008204 0.095661 0.133994
Si Si5 0.480872 0.896832 0.820152
Si Si6 0.210891 0.568129 0.390845
Si Si7 0.315517 0.376245 0.001173
O O1 0.815991 0.433335 0.823333
O O2 0.847326 0.562813 0.708026
O O3 0.707335 0.408758 0.810353
O O4 0.752447 0.795572 0.822628
O O5 0.614741 0.134202 0.125395
O O6 0.714130 0.452173 0.119502
O O7 0.770295 0.103289 0.045820
O O8 0.147592 0.397235 0.397401
O O9 0.051012 0.144308 0.382589
O O10 0.000607 0.337383 0.171262
O O11 0.986157 0.843356 0.170778
O O12 0.100560 0.083813 0.069616
O O13 0.500000 0.879443 0.750000
O O14 0.170267 0.728389 0.454423
O O15 0.250000 0.250000 0.000000
#
# Coordination Sequence:
#
# PCOD9283187 Si02
#       7
#     8   8   8   8   8   8   8
#     4  10  21  39  68  98 132 181 230 291 354 426
#     4  10  23  41  71 100 135 187 238 290 358 423
#     4  11  23  42  67 102 138 184 238 294 362 427
#     4  12  29  43  74 106 144 193 232 302 357 420
#     4  12  27  46  69 108 145 186 234 301 364 426
#     4  10  23  40  70  97 134 187 233 293 350 424
#     4  11  23  46  70 103 142 188 244 287 354 435
#
# _framework density 22.350750999999999
#
# number of rings (size 3 to 8) (size 9 to 14) (size 15 to 20)
#    0.000    1.143    2.857    2.143    8.000    1.714 
#    0.000    6.429    0.000    0.000    0.000    0.000 
#    0.000    0.000    0.000    0.000    0.000    0.000 
#
# Total GULP energy -156300.782024 kJ/mol
# GULP energy per Si atom -5582.170787 kJ/mol
# Density = 2.229988 g / cm^3
# Si number density = 22.350751 Si / 1000 Ang^3
#
#
#
# Elastic Constant Matrix: (Units=GPa)
#
#
# Indices 1 2 3 4 5 6 
#
# 1 97.0076 12.6777 8.7865 -0.0938 -8.0373 -0.1693
# 2 12.6777 88.1906 15.9436 -0.0650 5.3271 -0.1011
# 3 8.7865 15.9436 64.2952 -0.1050 2.8701 -0.1708
# 4 -0.0938 -0.0650 -0.1050 -13.0074 -0.0269 -54.9050
# 5 -8.0373 5.3271 2.8701 -0.0269 26.1277 -0.0856
# 6 -0.1693 -0.1011 -0.1708 -54.9050 -0.0856 -83.7514
#
#
#
# Elastic Compliance Matrix: (Units=1/GPa)
#
#
# Indices 1 2 3 4 5 6 
#
# 1 0.010947 -0.001574 -0.001277 -0.000013 0.003829 -0.000013
# 2 -0.001574 0.012214 -0.002694 0.000005 -0.002679 -0.000006
# 3 -0.001277 -0.002694 0.016469 -0.000002 -0.001653 -0.000025
# 4 -0.000013 0.000005 -0.000002 0.043503 -0.000053 -0.028519
# 5 0.003829 -0.002679 -0.001653 -0.000053 0.040179 -0.000007
# 6 -0.000013 -0.000006 -0.000025 -0.028519 -0.000007 0.006757
#
#
# Mechanical properties :
#
#
# Convention : Reuss Voigt Hill
#
# Bulk Modulus (GPa) = 35.03745 36.03434 35.53589
# Shear Modulus (GPa) = 33.18443 0.01281 16.59862
#
# Velocity S-wave (km/s) = 3.85738 0.07580 2.72810
# Velocity P-wave (km/s) = 5.96233 4.02056 5.08499
#
# Compressibility (1/GPa) = 0.02854089
#
# Stress axis : x y z
#
# Youngs Moduli (GPa) = 91.34926 81.87172 60.71833
#
# Poissons Ratio (x) = 0.12888 0.07751
# Poissons Ratio (y) = 0.14380 0.16358
# Poissons Ratio (z) = 0.11662 0.22057
#
# Static dielectric constant tensor:
#      x y z
#    x 1.872160 -0.000020 0.033820 
#    y -0.000020 1.897420 -0.000040 
#    z 0.033820 -0.000040 1.820220 
# 
# From -- ./inp_files/299872.got.cif
#   From: 2010.05.17/outbox.cif.g08.bks.cpg/sg15_150_cif.got.tgz:299872.got - 2010.06.03 18:47:42.
