data_PCOD9283543
_publ_section_title
;
Structure prediction by ZEFSAII (Michael W. Deem and Ramdas Pophale) SiO2 
 PCOD9283543
Probable space group: C 2/C
;
_chemical_formula_sum "Si O2"
_cell_formula_units_Z 56
_cell_length_a 20.498187
_cell_length_b 14.908081
_cell_length_c 7.399844
_cell_angle_alpha 90.000000
_cell_angle_beta 87.090700
_cell_angle_gamma 90.000000
_cell_volume 2258.393678
_symmetry_space_group_name_H-M "C 2/C"
_symmetry_group_IT_number 15
_symmetry_cell_setting 'monoclinic'
loop_
_space_group_symop_operation_xyz
x,y,z
-x,y,1/2-z
-x,-y,-z
x,-y,1/2+z
1/2+x,1/2+y,z
1/2-x,1/2+y,1/2-z
1/2-x,1/2-y,-z
1/2+x,1/2-y,1/2+z
loop_
_atom_site_type_symbol
_atom_site_label
_atom_site_fract_x
_atom_site_fract_y
_atom_site_fract_z
Si Si1 0.072188 0.630394 0.659220
Si Si2 0.184614 0.071283 0.366191
Si Si3 0.879578 0.478483 0.022539
Si Si4 0.250716 0.407249 0.009399
Si Si5 0.425117 0.798628 0.837715
Si Si6 0.209765 0.795837 0.173688
Si Si7 0.072053 0.188657 0.284869
O O1 0.073637 0.565684 0.488435
O O2 0.092851 0.733125 0.640481
O O3 0.000000 0.631236 0.750000
O O4 0.117085 0.575503 0.791689
O O5 0.190730 0.116532 0.560630
O O6 0.117217 0.104008 0.293318
O O7 0.192940 0.967854 0.409006
O O8 0.234178 0.109354 0.204331
O O9 0.809189 0.521750 0.995666
O O10 0.905493 0.401074 0.886412
O O11 0.248880 0.325425 0.153796
O O12 0.500000 0.791451 0.750000
O O13 0.357482 0.756407 0.764541
O O14 0.427752 0.743799 0.027220
O O15 0.250000 0.750000 0.000000
O O16 0.000000 0.160199 0.250000
#
# Coordination Sequence:
#
# PCOD9283543 Si02
#       7
#     8   8   8   8   8   8   8
#     4  10  21  40  62  92 135 180 226 294 352 423
#     4  11  24  45  70 102 138 187 241 304 365 431
#     4  11  23  39  64 100 136 186 234 289 359 438
#     4  12  25  44  73 101 147 190 243 303 365 436
#     4  10  23  43  71 102 143 186 242 304 371 439
#     4  11  26  47  73 105 149 193 246 310 368 439
#     4   9  22  42  66  94 138 178 236 303 363 435
#
# _framework density 24.796384
#
# number of rings (size 3 to 8) (size 9 to 14) (size 15 to 20)
#    0.000    1.429    1.429    2.571    8.000    2.857 
#    0.000    1.429    0.000    0.000    0.000    0.000 
#    0.000    0.000    0.000    0.000    0.000    0.000 
#
# Total GULP energy -156271.311220 kJ/mol
# GULP energy per Si atom -5581.118258 kJ/mol
# Density = 2.473995 g / cm^3
# Si number density = 24.796384 Si / 1000 Ang^3
#
#
#
# Elastic Constant Matrix: (Units=GPa)
#
#
# Indices 1 2 3 4 5 6 
#
# 1 140.4868 38.1950 41.3353 0.0000 -0.6691 0.0000
# 2 38.1950 60.4746 12.6200 0.0000 -0.0831 0.0000
# 3 41.3353 12.6200 128.7339 0.0000 -8.1281 0.0000
# 4 0.0000 0.0000 0.0000 30.4072 0.0000 9.5039
# 5 -0.6691 -0.0831 -8.1281 0.0000 31.7897 0.0000
# 6 0.0000 0.0000 0.0000 9.5039 0.0000 43.4357
#
#
#
# Elastic Compliance Matrix: (Units=1/GPa)
#
#
# Indices 1 2 3 4 5 6 
#
# 1 0.009306 -0.005358 -0.002491 0.000000 -0.000455 0.000000
# 2 -0.005358 0.019971 -0.000245 0.000000 -0.000123 0.000000
# 3 -0.002491 -0.000245 0.008730 0.000000 0.002179 0.000000
# 4 0.000000 0.000000 0.000000 0.035301 0.000000 -0.007724
# 5 -0.000455 -0.000123 0.002179 0.000000 0.032004 0.000000
# 6 0.000000 0.000000 0.000000 -0.007724 0.000000 0.024713
#
#
# Mechanical properties :
#
#
# Convention : Reuss Voigt Hill
#
# Bulk Modulus (GPa) = 45.83612 57.11066 51.47339
# Shear Modulus (GPa) = 32.57639 36.96287 34.76963
#
# Velocity S-wave (km/s) = 3.62851 3.86509 3.74867
# Velocity P-wave (km/s) = 6.00665 6.55747 6.28810
#
# Compressibility (1/GPa) = 0.02181685
#
# Stress axis : x y z
#
# Youngs Moduli (GPa) = 107.46065 50.07278 114.55346
#
# Poissons Ratio (x) = 0.26829 0.28541
# Poissons Ratio (y) = 0.57578 0.02808
# Poissons Ratio (z) = 0.26773 0.01228
#
# Static dielectric constant tensor:
#      x y z
#    x 2.018150 0.000000 -0.004930 
#    y 0.000000 2.015800 0.000000 
#    z -0.004930 0.000000 2.175860 
# 
# From -- ./inp_files/55636.got.cif
#   From: 2010.05.17/outbox.cif.g08.bks.cpg/sg15_28_cif.got.tgz:55636.got - 2010.06.03 18:47:42.
