data_PCOD9283530
_publ_section_title
;
Structure prediction by ZEFSAII (Michael W. Deem and Ramdas Pophale) SiO2 
 PCOD9283530
Probable space group: C 2/C
;
_chemical_formula_sum "Si O2"
_cell_formula_units_Z 48
_cell_length_a 17.478791
_cell_length_b 19.546594
_cell_length_c 8.815637
_cell_angle_alpha 90.000000
_cell_angle_beta 45.927264
_cell_angle_gamma 90.000000
_cell_volume 2163.899973
_symmetry_space_group_name_H-M "C 2/C"
_symmetry_group_IT_number 15
_symmetry_cell_setting 'monoclinic'
loop_
_space_group_symop_operation_xyz
x,y,z
-x,y,1/2-z
-x,-y,-z
x,-y,1/2+z
1/2+x,1/2+y,z
1/2-x,1/2+y,1/2-z
1/2-x,1/2-y,-z
1/2+x,1/2-y,1/2+z
loop_
_atom_site_type_symbol
_atom_site_label
_atom_site_fract_x
_atom_site_fract_y
_atom_site_fract_z
Si Si1 0.160656 0.385667 0.762982
Si Si2 0.500000 0.941076 0.750000
Si Si3 0.185039 0.151203 0.694245
Si Si4 0.326893 0.145046 0.938143
Si Si5 0.000000 0.192789 0.750000
Si Si6 0.798185 0.533194 0.722522
Si Si7 0.180089 0.248045 0.296803
O O1 0.065860 0.398638 0.779471
O O2 0.240175 0.338710 0.557449
O O3 0.228321 0.455515 0.699515
O O4 0.111502 0.365156 0.991057
O O5 0.590698 0.976011 0.522668
O O6 0.220890 0.079707 0.724922
O O7 0.220948 0.209429 0.765197
O O8 0.066456 0.153190 0.789855
O O9 0.313762 0.077161 0.855178
O O10 0.364609 0.202976 0.772619
O O11 0.219171 0.178245 0.161923
O O12 0.087839 0.237258 0.543833
#
# Coordination Sequence:
#
# PCOD9283530 Si02
#       7
#     8   4   8   8   4   8   8
#     4  11  21  40  67  93 134 168 206 262 322 386
#     4  10  22  37  58 100 126 170 207 244 318 396
#     4  10  23  42  65  92 127 171 212 262 324 381
#     4  10  21  40  62  91 130 162 209 266 317 364
#     4  12  22  43  70  88 124 176 219 262 314 388
#     4  10  22  41  64  92 135 165 207 261 323 383
#     4  10  23  43  62  91 127 167 219 264 318 367
#
# _framework density 22.182171
#
# number of rings (size 3 to 8) (size 9 to 14) (size 15 to 20)
#    0.000    1.667    1.667    3.000    0.000    6.667 
#    3.000    7.500    0.000    0.000    0.000    0.000 
#    0.000    0.000    0.000    0.000    0.000    0.000 
#
# Total GULP energy -133892.714885 kJ/mol
# GULP energy per Si atom -5578.863120 kJ/mol
# Density = 2.213168 g / cm^3
# Si number density = 22.182171 Si / 1000 Ang^3
#
#
#
# Elastic Constant Matrix: (Units=GPa)
#
#
# Indices 1 2 3 4 5 6 
#
# 1 147.8275 28.6186 27.1653 0.0000 20.1952 0.0000
# 2 28.6186 78.4655 29.9419 0.0000 8.3487 0.0000
# 3 27.1653 29.9419 90.0602 0.0000 26.4914 0.0000
# 4 0.0000 0.0000 0.0000 21.9507 0.0000 12.5757
# 5 20.1952 8.3487 26.4914 0.0000 43.0314 0.0000
# 6 0.0000 0.0000 0.0000 12.5757 0.0000 14.0830
#
#
#
# Elastic Compliance Matrix: (Units=1/GPa)
#
#
# Indices 1 2 3 4 5 6 
#
# 1 0.007709 -0.002222 -0.000793 0.000000 -0.002699 0.000000
# 2 -0.002222 0.015238 -0.004681 0.000000 0.000968 0.000000
# 3 -0.000793 -0.004681 0.015291 0.000000 -0.008134 0.000000
# 4 0.000000 0.000000 0.000000 0.093275 0.000000 -0.083292
# 5 -0.002699 0.000968 -0.008134 0.000000 0.029325 0.000000
# 6 0.000000 0.000000 0.000000 -0.083292 0.000000 0.145386
#
#
# Mechanical properties :
#
#
# Convention : Reuss Voigt Hill
#
# Bulk Modulus (GPa) = 43.76766 54.20052 48.98409
# Shear Modulus (GPa) = 15.18688 31.18820 23.18754
#
# Velocity S-wave (km/s) = 2.61941 3.75374 3.23665
# Velocity P-wave (km/s) = 5.37794 6.57835 6.00820
#
# Compressibility (1/GPa) = 0.02284792
#
# Stress axis : x y z
#
# Youngs Moduli (GPa) = 129.71511 65.62546 65.39593
#
# Poissons Ratio (x) = 0.14583 0.05184
# Poissons Ratio (y) = 0.28824 0.30609
# Poissons Ratio (z) = 0.10283 0.30716
#
# Static dielectric constant tensor:
#      x y z
#    x 1.902850 0.000000 0.006030 
#    y 0.000000 1.891900 0.000000 
#    z 0.006030 0.000000 1.819560 
# 
# From -- ./inp_files/50075.got.cif
#   From: 2010.05.17/outbox.cif.g08.bks.cpg/sg15_26_cif.got.tgz:50075.got - 2010.06.03 18:47:42.
