data_PCOD9283119
_publ_section_title
;
Structure prediction by ZEFSAII (Michael W. Deem and Ramdas Pophale) SiO2 
 PCOD9283119
Probable space group: C 2/C
;
_chemical_formula_sum "Si O2"
_cell_formula_units_Z 32
_cell_length_a 12.251360
_cell_length_b 7.408912
_cell_length_c 23.559634
_cell_angle_alpha 90.000000
_cell_angle_beta 142.677003
_cell_angle_gamma 90.000000
_cell_volume 1296.582971
_symmetry_space_group_name_H-M "C 2/C"
_symmetry_group_IT_number 15
_symmetry_cell_setting 'monoclinic'
loop_
_space_group_symop_operation_xyz
x,y,z
-x,y,1/2-z
-x,-y,-z
x,-y,1/2+z
1/2+x,1/2+y,z
1/2-x,1/2+y,1/2-z
1/2-x,1/2-y,-z
1/2+x,1/2-y,1/2+z
loop_
_atom_site_type_symbol
_atom_site_label
_atom_site_fract_x
_atom_site_fract_y
_atom_site_fract_z
Si Si1 0.255068 0.721437 0.087106
Si Si2 0.820370 0.688316 0.729992
Si Si3 0.192993 0.452623 0.963733
Si Si4 0.893162 0.693509 0.257309
O O1 0.476467 0.734654 0.178756
O O2 0.215875 0.701722 0.137576
O O3 0.195312 0.905219 0.029538
O O4 0.184499 0.559084 0.019478
O O5 0.802704 0.487340 0.695538
O O6 0.730359 0.686788 0.754357
O O7 0.020574 0.409539 0.854494
O O8 0.250000 0.250000 0.000000
O O9 0.000000 0.784549 0.250000
#
# Coordination Sequence:
#
# PCOD9283119 Si02
#       4
#     8   8   8   8
#     4   9  20  44  64  95 136 169 215 274 328 377
#     4  10  21  42  67  91 132 174 214 275 318 386
#     4  10  21  39  67  97 132 167 219 269 324 397
#     4  11  23  43  64  96 129 171 224 263 326 395
#
# _framework density 24.680256
#
# number of rings (size 3 to 8) (size 9 to 14) (size 15 to 20)
#    0.000    2.000    5.000    0.000    3.500    3.000 
#    0.000    7.500    0.000    0.000    0.000    0.000 
#    0.000    0.000    0.000    0.000    0.000    0.000 
#
# Total GULP energy -89151.336585 kJ/mol
# GULP energy per Si atom -5571.958537 kJ/mol
# Density = 2.462408 g / cm^3
# Si number density = 24.680256 Si / 1000 Ang^3
#
#
#
# Elastic Constant Matrix: (Units=GPa)
#
#
# Indices 1 2 3 4 5 6 
#
# 1 153.0183 18.2595 18.6530 0.0000 -44.9218 0.0000
# 2 18.2595 123.6001 26.5075 0.0000 -8.1419 0.0000
# 3 18.6530 26.5075 80.5311 0.0000 -36.0447 0.0000
# 4 0.0000 0.0000 0.0000 31.1595 0.0000 -2.8955
# 5 -44.9218 -8.1419 -36.0447 0.0000 34.2256 0.0000
# 6 0.0000 0.0000 0.0000 -2.8955 0.0000 18.2625
#
#
#
# Elastic Compliance Matrix: (Units=1/GPa)
#
#
# Indices 1 2 3 4 5 6 
#
# 1 0.014008 -0.002412 0.010446 0.000000 0.028813 0.000000
# 2 -0.002412 0.009179 -0.005490 0.000000 -0.006764 0.000000
# 3 0.010446 -0.005490 0.032834 0.000000 0.046984 0.000000
# 4 0.000000 0.000000 0.000000 0.032573 0.000000 0.005164
# 5 0.028813 -0.006764 0.046984 0.000000 0.114908 0.000000
# 6 0.000000 0.000000 0.000000 0.005164 0.000000 0.055576
#
#
# Mechanical properties :
#
#
# Convention : Reuss Voigt Hill
#
# Bulk Modulus (GPa) = 16.36403 53.77660 35.07032
# Shear Modulus (GPa) = 18.22423 36.31148 27.26786
#
# Velocity S-wave (km/s) = 2.72032 3.83988 3.32753
# Velocity P-wave (km/s) = 4.06346 6.44176 5.38553
#
# Compressibility (1/GPa) = 0.06110965
#
# Stress axis : x y z
#
# Youngs Moduli (GPa) = 71.38572 108.94759 30.45587
#
# Poissons Ratio (x) = 0.26274 -0.31813
# Poissons Ratio (y) = 0.17216 0.16720
# Poissons Ratio (z) = -0.74567 0.59811
#
# Static dielectric constant tensor:
#      x y z
#    x 1.986060 0.000000 -0.063040 
#    y 0.000000 2.829080 0.000000 
#    z -0.063040 0.000000 1.515870 
# 
# From -- ./inp_files/235979.got.cif
#   From: 2010.05.17/outbox.cif.g08.bks.cpg/sg15_118_cif.got.tgz:235979.got - 2010.06.03 18:47:42.
