data_PCOD9283345
_publ_section_title
;
Structure prediction by ZEFSAII (Michael W. Deem and Ramdas Pophale) SiO2 
 PCOD9283345
Probable space group: C 2/C
;
_chemical_formula_sum "Si O2"
_cell_formula_units_Z 20
_cell_length_a 18.414870
_cell_length_b 11.155068
_cell_length_c 7.895106
_cell_angle_alpha 90.000000
_cell_angle_beta 149.623121
_cell_angle_gamma 90.000000
_cell_volume 820.123938
_symmetry_space_group_name_H-M "C 2/C"
_symmetry_group_IT_number 15
_symmetry_cell_setting 'monoclinic'
loop_
_space_group_symop_operation_xyz
x,y,z
-x,y,1/2-z
-x,-y,-z
x,-y,1/2+z
1/2+x,1/2+y,z
1/2-x,1/2+y,1/2-z
1/2-x,1/2-y,-z
1/2+x,1/2-y,1/2+z
loop_
_atom_site_type_symbol
_atom_site_label
_atom_site_fract_x
_atom_site_fract_y
_atom_site_fract_z
Si Si1 0.950326 0.337805 0.920552
Si Si2 0.500000 0.619618 0.250000
Si Si3 0.190178 0.559307 0.701248
O O1 0.877084 0.428381 0.905950
O O2 0.866383 0.370568 0.578726
O O3 0.948010 0.206851 0.993552
O O4 0.115793 0.369488 0.206957
O O5 0.639321 0.550787 0.464769
#
# Coordination Sequence:
#
# PCOD9283345 Si02
#       3
#     8   4   8
#     4  10  21  40  60  86 124 156 191 246 297 346
#     4  12  22  38  66  90 114 158 202 240 292 352
#     4  10  22  39  62  89 119 157 198 241 295 350
#
# _framework density 24.386557
#
# number of rings (size 3 to 8) (size 9 to 14) (size 15 to 20)
#    0.000    1.600    0.000    7.200    0.000    1.600 
#    0.000    4.000    0.000    0.000    0.000    0.000 
#    0.000    0.000    0.000    0.000    0.000    0.000 
#
# Total GULP energy -55895.624208 kJ/mol
# GULP energy per Si atom -5589.562421 kJ/mol
# Density = 2.433105 g / cm^3
# Si number density = 24.386557 Si / 1000 Ang^3
#
#
#
# Elastic Constant Matrix: (Units=GPa)
#
#
# Indices 1 2 3 4 5 6 
#
# 1 170.0420 39.6235 98.8178 0.0000 20.6954 0.0000
# 2 39.6235 41.0606 41.1246 0.0000 20.8955 0.0000
# 3 98.8178 41.1246 133.1213 0.0000 63.1788 0.0000
# 4 0.0000 0.0000 0.0000 167.0276 0.0000 33.3582
# 5 20.6954 20.8955 63.1788 0.0000 79.0549 0.0000
# 6 0.0000 0.0000 0.0000 33.3582 0.0000 29.0720
#
#
#
# Elastic Compliance Matrix: (Units=1/GPa)
#
#
# Indices 1 2 3 4 5 6 
#
# 1 0.012613 -0.004379 -0.011265 0.000000 0.006858 0.000000
# 2 -0.004379 0.036834 -0.006527 0.000000 -0.003373 0.000000
# 3 -0.011265 -0.006527 0.025249 0.000000 -0.015504 0.000000
# 4 0.000000 0.000000 0.000000 0.007767 0.000000 -0.008912
# 5 0.006858 -0.003373 -0.015504 0.000000 0.024136 0.000000
# 6 0.000000 0.000000 0.000000 -0.008912 0.000000 0.044623
#
#
# Mechanical properties :
#
#
# Convention : Reuss Voigt Hill
#
# Bulk Modulus (GPa) = 32.94605 78.15065 55.54835
# Shear Modulus (GPa) = 24.30917 66.00808 45.15862
#
# Velocity S-wave (km/s) = 3.16068 5.20828 4.30790
# Velocity P-wave (km/s) = 5.18258 8.26344 6.89723
#
# Compressibility (1/GPa) = 0.03035266
#
# Stress axis : x y z
#
# Youngs Moduli (GPa) = 79.28215 27.14849 39.60604
#
# Poissons Ratio (x) = 0.11889 0.44616
# Poissons Ratio (y) = 0.34721 0.25853
# Poissons Ratio (z) = 0.89311 0.17721
#
# Static dielectric constant tensor:
#      x y z
#    x 1.957740 0.000000 -0.058630 
#    y 0.000000 1.912010 0.000000 
#    z -0.058630 0.000000 2.031020 
# 
# From -- ./inp_files/20569.got.cif
#   From: 2010.05.17/outbox.cif.g08.bks.cpg/sg15_11_cif.got.tgz:20569.got - 2010.06.03 18:47:42.
