data_PCOD9283098
_publ_section_title
;
Structure prediction by ZEFSAII (Michael W. Deem and Ramdas Pophale) SiO2 
 PCOD9283098
Probable space group: C 2/C
;
_chemical_formula_sum "Si O2"
_cell_formula_units_Z 64
_cell_length_a 18.115093
_cell_length_b 18.872241
_cell_length_c 16.981657
_cell_angle_alpha 90.000000
_cell_angle_beta 30.025593
_cell_angle_gamma 90.000000
_cell_volume 2905.025446
_symmetry_space_group_name_H-M "C 2/C"
_symmetry_group_IT_number 15
_symmetry_cell_setting 'monoclinic'
loop_
_space_group_symop_operation_xyz
x,y,z
-x,y,1/2-z
-x,-y,-z
x,-y,1/2+z
1/2+x,1/2+y,z
1/2-x,1/2+y,1/2-z
1/2-x,1/2-y,-z
1/2+x,1/2-y,1/2+z
loop_
_atom_site_type_symbol
_atom_site_label
_atom_site_fract_x
_atom_site_fract_y
_atom_site_fract_z
Si Si1 0.180719 0.357236 0.579328
Si Si2 0.793759 0.543746 0.744822
Si Si3 0.390079 0.939005 0.524210
Si Si4 0.413568 0.559206 0.251844
Si Si5 0.538927 0.647996 0.990136
Si Si6 0.290241 0.772380 0.088862
Si Si7 0.099383 0.064383 0.519465
Si Si8 0.585916 0.208013 0.404116
O O1 0.237353 0.290692 0.579805
O O2 0.242580 0.341222 0.434627
O O3 0.275090 0.418572 0.532807
O O4 0.000000 0.363390 0.750000
O O5 0.848441 0.509201 0.612955
O O6 0.702134 0.615613 0.826829
O O7 0.679223 0.487693 0.884712
O O8 0.942252 0.552821 0.657852
O O9 0.261624 0.933373 0.579357
O O10 0.388488 0.869073 0.582698
O O11 0.500000 0.580759 0.250000
O O12 0.461560 0.606405 0.132501
O O13 0.467605 0.479982 0.179838
O O14 0.541292 0.730951 0.006722
O O15 0.458521 0.629095 0.981081
O O16 0.219437 0.745381 0.235023
O O17 0.457929 0.790110 0.956950
#
# Coordination Sequence:
#
# PCOD9283098 Si02
#       8
#     8   8   8   8   8   8   8   8
#     4  11  23  38  57  92 144 184 210 258 318 385
#     4  10  21  39  67  92 129 168 218 278 318 380
#     4  11  22  40  66 100 125 167 227 274 331 388
#     4  11  24  43  66  92 127 169 220 284 335 394
#     4  11  21  43  67  96 128 170 225 270 329 399
#     4  11  23  38  57  93 139 180 212 258 318 391
#     4  11  21  42  66  90 129 183 221 266 321 400
#     4  12  23  40  69  96 132 177 225 274 329 398
#
# _framework density 22.030788000000001
#
# number of rings (size 3 to 8) (size 9 to 14) (size 15 to 20)
#    0.000    1.000    5.000    3.000    0.000    2.000 
#    2.250    2.500    0.000    0.000    0.000    0.000 
#    0.000    0.000    0.000    0.000    0.000    0.000 
#
# Total GULP energy -178492.578949 kJ/mol
# GULP energy per Si atom -5577.893092 kJ/mol
# Density = 2.198064 g / cm^3
# Si number density = 22.030788 Si / 1000 Ang^3
#
#
#
# Elastic Constant Matrix: (Units=GPa)
#
#
# Indices 1 2 3 4 5 6 
#
# 1 87.5135 18.9843 32.8408 0.0009 -38.8513 -0.0002
# 2 18.9843 53.4440 -4.2537 0.0026 -3.4952 -0.0011
# 3 32.8408 -4.2537 64.0049 0.0063 -33.8971 -0.0030
# 4 0.0009 0.0026 0.0063 16.6734 -0.0021 -5.2969
# 5 -38.8513 -3.4952 -33.8971 -0.0021 46.2317 0.0009
# 6 -0.0002 -0.0011 -0.0030 -5.2969 0.0009 23.2617
#
#
#
# Elastic Compliance Matrix: (Units=1/GPa)
#
#
# Indices 1 2 3 4 5 6 
#
# 1 0.020430 -0.006603 -0.003422 0.000003 0.014160 -0.000001
# 2 -0.006603 0.021368 0.004455 -0.000005 -0.000668 0.000001
# 3 -0.003422 0.004455 0.026698 -0.000008 0.017036 0.000001
# 4 0.000003 -0.000005 -0.000008 0.064653 -0.000001 0.014722
# 5 0.014160 -0.000668 0.017036 -0.000001 0.045970 0.000000
# 6 -0.000001 0.000001 0.000001 0.014722 0.000000 0.046341
#
#
# Mechanical properties :
#
#
# Convention : Reuss Voigt Hill
#
# Bulk Modulus (GPa) = 17.43564 33.34504 25.39034
# Shear Modulus (GPa) = 19.55269 27.72610 23.63940
#
# Velocity S-wave (km/s) = 2.98235 3.55141 3.27925
# Velocity P-wave (km/s) = 4.44867 5.65554 5.08802
#
# Compressibility (1/GPa) = 0.05735380
#
# Stress axis : x y z
#
# Youngs Moduli (GPa) = 48.94817 46.79961 37.45598
#
# Poissons Ratio (x) = 0.30903 0.12818
# Poissons Ratio (y) = 0.32322 -0.16686
# Poissons Ratio (z) = 0.16751 -0.20848
#
# Static dielectric constant tensor:
#      x y z
#    x 1.826120 0.000000 -0.021400 
#    y 0.000000 1.843730 0.000000 
#    z -0.021400 0.000000 1.874090 
# 
# From -- ./inp_files/211942.got.cif
#   From: 2010.05.17/outbox.cif.g08.bks.cpg/sg15_106_cif.got.tgz:211942.got - 2010.06.03 18:47:42.
