data_PCOD9283996
_publ_section_title
;
Structure prediction by ZEFSAII (Michael W. Deem and Ramdas Pophale) SiO2 
 PCOD9283996
Probable space group: C 2/C
;
_chemical_formula_sum "Si O2"
_cell_formula_units_Z 48
_cell_length_a 14.591698
_cell_length_b 34.419547
_cell_length_c 5.166704
_cell_angle_alpha 90.000000
_cell_angle_beta 61.778115
_cell_angle_gamma 90.000000
_cell_volume 2286.446521
_symmetry_space_group_name_H-M "C 2/C"
_symmetry_group_IT_number 15
_symmetry_cell_setting 'monoclinic'
loop_
_space_group_symop_operation_xyz
x,y,z
-x,y,1/2-z
-x,-y,-z
x,-y,1/2+z
1/2+x,1/2+y,z
1/2-x,1/2+y,1/2-z
1/2-x,1/2-y,-z
1/2+x,1/2-y,1/2+z
loop_
_atom_site_type_symbol
_atom_site_label
_atom_site_fract_x
_atom_site_fract_y
_atom_site_fract_z
Si Si1 0.742497 0.405498 0.377907
Si Si2 0.878179 0.884762 0.441209
Si Si3 0.894893 0.656562 0.788107
Si Si4 0.122519 0.524517 0.575289
Si Si5 0.771739 0.192194 0.120448
Si Si6 0.608367 0.236511 0.975164
O O1 0.681926 0.410833 0.190576
O O2 0.830253 0.372655 0.197598
O O3 0.805297 0.440959 0.419679
O O4 0.662497 0.392170 0.711990
O O5 0.851219 0.839640 0.405099
O O6 0.000000 0.891167 0.250000
O O7 0.924376 0.698976 0.643686
O O8 0.000000 0.637696 0.750000
O O9 0.811879 0.666922 0.116226
O O10 0.140796 0.510262 0.258013
O O11 0.000000 0.534995 0.750000
O O12 0.699089 0.216363 0.023974
O O13 0.835852 0.224329 0.201375
O O14 0.500000 0.249312 0.250000
#
# Coordination Sequence:
#
# PCOD9283996 Si02
#       6
#     8   8   8   8   8   8
#     4  11  23  40  66  93 125 161 201 253 307 365
#     4  11  23  42  62  90 120 165 214 260 303 356
#     4  11  21  36  55  85 117 154 199 254 314 367
#     4  10  21  40  66 101 134 165 197 237 299 374
#     4  10  22  36  54  78 113 158 204 254 307 359
#     4  11  20  36  54  77 114 153 202 256 308 366
#
# _framework density 20.993276999999999
#
# number of rings (size 3 to 8) (size 9 to 14) (size 15 to 20)
#    0.000    1.333    3.333    3.000    0.000    0.000 
#    0.000    2.500    0.000   10.000    0.000    0.000 
#    0.000    0.000    0.000    0.000    0.000    0.000 
#
# Total GULP energy -133737.783276 kJ/mol
# GULP energy per Si atom -5572.407637 kJ/mol
# Density = 2.094550 g / cm^3
# Si number density = 20.993277 Si / 1000 Ang^3
#
#
#
# Elastic Constant Matrix: (Units=GPa)
#
#
# Indices 1 2 3 4 5 6 
#
# 1 78.7788 24.9986 2.3145 0.0000 -27.5175 0.0000
# 2 24.9986 49.6996 -4.3059 0.0000 -14.4116 0.0000
# 3 2.3145 -4.3059 41.5266 0.0000 -14.8637 0.0000
# 4 0.0000 0.0000 0.0000 17.2430 0.0000 3.4397
# 5 -27.5175 -14.4116 -14.8637 0.0000 18.7146 0.0000
# 6 0.0000 0.0000 0.0000 3.4397 0.0000 30.6273
#
#
#
# Elastic Compliance Matrix: (Units=1/GPa)
#
#
# Indices 1 2 3 4 5 6 
#
# 1 0.041575 0.008999 0.032103 0.000000 0.093558 0.000000
# 2 0.008999 0.035002 0.024467 0.000000 0.059619 0.000000
# 3 0.032103 0.024467 0.067720 0.000000 0.119832 0.000000
# 4 0.000000 0.000000 0.000000 0.059324 0.000000 -0.006663
# 5 0.093558 0.059619 0.119832 0.000000 0.332086 0.000000
# 6 0.000000 0.000000 0.000000 -0.006663 0.000000 0.033399
#
#
# Mechanical properties :
#
#
# Convention : Reuss Voigt Hill
#
# Bulk Modulus (GPa) = 3.63059 24.00215 13.81637
# Shear Modulus (GPa) = 9.43791 23.11684 16.27738
#
# Velocity S-wave (km/s) = 2.12260 3.32196 2.78755
# Velocity P-wave (km/s) = 2.78216 5.11586 4.11779
#
# Compressibility (1/GPa) = 0.27543747
#
# Stress axis : x y z
#
# Youngs Moduli (GPa) = 24.05294 28.56957 14.76661
#
# Poissons Ratio (x) = -0.25710 -0.47406
# Poissons Ratio (y) = -0.21645 -0.36130
# Poissons Ratio (z) = -0.77218 -0.69903
#
# Static dielectric constant tensor:
#      x y z
#    x 1.787370 0.000000 0.021840 
#    y 0.000000 1.798820 0.000000 
#    z 0.021840 0.000000 1.813780 
# 
# From -- ./inp_files/8943.got.cif
#   From: 2010.05.17/outbox.cif.g08.bks.cpg/sg15_5_cif.got.tgz:8943.got - 2010.06.03 18:47:42.
