data_PCOD9283599
_publ_section_title
;
Structure prediction by ZEFSAII (Michael W. Deem and Ramdas Pophale) SiO2 
 PCOD9283599
Probable space group: C 2/C
;
_chemical_formula_sum "Si O2"
_cell_formula_units_Z 56
_cell_length_a 27.116883
_cell_length_b 6.986785
_cell_length_c 15.538759
_cell_angle_alpha 90.000000
_cell_angle_beta 53.505630
_cell_angle_gamma 90.000000
_cell_volume 2366.703072
_symmetry_space_group_name_H-M "C 2/C"
_symmetry_group_IT_number 15
_symmetry_cell_setting 'monoclinic'
loop_
_space_group_symop_operation_xyz
x,y,z
-x,y,1/2-z
-x,-y,-z
x,-y,1/2+z
1/2+x,1/2+y,z
1/2-x,1/2+y,1/2-z
1/2-x,1/2-y,-z
1/2+x,1/2-y,1/2+z
loop_
_atom_site_type_symbol
_atom_site_label
_atom_site_fract_x
_atom_site_fract_y
_atom_site_fract_z
Si Si1 0.405478 0.375811 0.505951
Si Si2 0.655387 0.979151 0.710157
Si Si3 0.841349 0.129655 0.895706
Si Si4 0.673516 0.675619 0.841403
Si Si5 0.229558 0.869288 0.653664
Si Si6 0.972789 0.013473 0.188868
Si Si7 0.450329 0.869844 0.096572
O O1 0.356161 0.381514 0.480681
O O2 0.390790 0.574884 0.569731
O O3 0.474080 0.367902 0.396357
O O4 0.401417 0.198579 0.574834
O O5 0.670540 0.850265 0.613221
O O6 0.669474 0.839449 0.774808
O O7 0.688017 0.181225 0.683898
O O8 0.583370 0.019450 0.792289
O O9 0.788095 0.999239 0.910172
O O10 0.904739 0.065315 0.780246
O O11 0.705152 0.775504 0.890743
O O12 0.711061 0.502364 0.755419
O O13 0.971550 0.172923 0.116899
O O14 0.000000 0.095107 0.250000
O O15 0.500000 0.000000 0.000000
#
# Coordination Sequence:
#
# PCOD9283599 Si02
#       7
#     8   8   8   8   8   8   8
#     4  11  23  41  61  95 133 163 209 273 313 375
#     4  11  21  39  64  89 120 168 205 251 314 379
#     4  10  23  42  62  90 133 168 204 259 324 384
#     4  11  22  40  67  92 124 160 219 265 314 373
#     4  11  21  40  65  91 121 169 210 258 320 381
#     4  10  21  40  63  88 129 167 200 254 323 378
#     4  12  22  36  63  97 124 162 219 257 308 379
#
# _framework density 23.661605999999999
#
# number of rings (size 3 to 8) (size 9 to 14) (size 15 to 20)
#    0.000    1.143    4.286    3.000    0.000    1.714 
#    2.571    0.714    0.000    0.000    0.000    0.000 
#    0.000    0.000    0.000    0.000    0.000    0.000 
#
# Total GULP energy -156455.795880 kJ/mol
# GULP energy per Si atom -5587.706996 kJ/mol
# Density = 2.360775 g / cm^3
# Si number density = 23.661606 Si / 1000 Ang^3
#
#
#
# Elastic Constant Matrix: (Units=GPa)
#
#
# Indices 1 2 3 4 5 6 
#
# 1 83.7934 38.8597 24.2377 0.0000 6.0198 0.0005
# 2 38.8597 111.7666 25.5057 -0.0007 3.9039 0.0022
# 3 24.2377 25.5057 55.2837 0.0000 1.1225 0.0001
# 4 0.0000 -0.0007 0.0000 15.6566 0.0000 -16.0850
# 5 6.0198 3.9039 1.1225 0.0000 38.7404 0.0001
# 6 0.0005 0.0022 0.0001 -16.0850 0.0001 28.1164
#
#
#
# Elastic Compliance Matrix: (Units=1/GPa)
#
#
# Indices 1 2 3 4 5 6 
#
# 1 0.015394 -0.004199 -0.004775 0.000000 -0.001831 0.000000
# 2 -0.004199 0.011175 -0.003307 -0.000001 -0.000378 -0.000001
# 3 -0.004775 -0.003307 0.021699 0.000000 0.000446 0.000000
# 4 0.000000 -0.000001 0.000000 0.154930 0.000000 0.088634
# 5 -0.001831 -0.000378 0.000446 0.000000 0.026122 0.000000
# 6 0.000000 -0.000001 0.000000 0.088634 0.000000 0.086273
#
#
# Mechanical properties :
#
#
# Convention : Reuss Voigt Hill
#
# Bulk Modulus (GPa) = 42.18314 47.56110 44.87212
# Shear Modulus (GPa) = 14.36549 27.31873 20.84211
#
# Velocity S-wave (km/s) = 2.46666 3.40157 2.97112
# Velocity P-wave (km/s) = 5.09695 5.96420 5.54755
#
# Compressibility (1/GPa) = 0.02370616
#
# Stress axis : x y z
#
# Youngs Moduli (GPa) = 64.96069 89.48584 46.08585
#
# Poissons Ratio (x) = 0.37572 0.22005
# Poissons Ratio (y) = 0.27275 0.15241
# Poissons Ratio (z) = 0.31017 0.29595
#
# Static dielectric constant tensor:
#      x y z
#    x 1.930510 0.000000 -0.006270 
#    y 0.000000 1.880890 0.000000 
#    z -0.006270 0.000000 1.932830 
# 
# From -- ./inp_files/223831.got.cif
#   From: 2010.05.17/outbox.cif.g08.bks.cpg/sg15_112_cif.got.tgz:223831.got - 2010.06.03 18:47:42.
