data_PCOD9283160
_publ_section_title
;
Structure prediction by ZEFSAII (Michael W. Deem and Ramdas Pophale) SiO2 
 PCOD9283160
Probable space group: C 2/C
;
_chemical_formula_sum "Si O2"
_cell_formula_units_Z 56
_cell_length_a 13.502303
_cell_length_b 15.128167
_cell_length_c 11.724527
_cell_angle_alpha 90.000000
_cell_angle_beta 97.078760
_cell_angle_gamma 90.000000
_cell_volume 2376.656858
_symmetry_space_group_name_H-M "C 2/C"
_symmetry_group_IT_number 15
_symmetry_cell_setting 'monoclinic'
loop_
_space_group_symop_operation_xyz
x,y,z
-x,y,1/2-z
-x,-y,-z
x,-y,1/2+z
1/2+x,1/2+y,z
1/2-x,1/2+y,1/2-z
1/2-x,1/2-y,-z
1/2+x,1/2-y,1/2+z
loop_
_atom_site_type_symbol
_atom_site_label
_atom_site_fract_x
_atom_site_fract_y
_atom_site_fract_z
Si Si1 0.059401 0.596198 0.565092
Si Si2 0.189967 0.376178 0.878839
Si Si3 0.314743 0.062702 0.372543
Si Si4 0.006644 0.145109 0.476866
Si Si5 0.155554 0.249017 0.193526
Si Si6 0.144977 0.025773 0.947627
Si Si7 0.866787 0.698882 0.555485
O O1 0.094014 0.629373 0.445391
O O2 0.089968 0.495277 0.578397
O O3 0.135394 0.651554 0.654114
O O4 0.954892 0.629771 0.596409
O O5 0.162774 0.404185 0.748763
O O6 0.251018 0.286789 0.864286
O O7 0.269389 0.445741 0.947248
O O8 0.214715 0.003519 0.353624
O O9 0.297889 0.138208 0.466100
O O10 0.936527 0.185906 0.364076
O O11 0.074503 0.059659 0.458343
O O12 0.080888 0.225343 0.513386
O O13 0.929462 0.109309 0.560944
O O14 0.165727 0.255244 0.331307
#
# Coordination Sequence:
#
# PCOD9283160 Si02
#       7
#     8   8   8   8   8   8   8
#     4  10  22  40  62  88 127 169 214 262 324 394
#     4  10  22  40  62  94 129 168 205 268 332 389
#     4  11  24  39  60  93 131 170 212 270 323 392
#     4   9  18  38  63  89 123 162 205 270 317 385
#     4  10  21  39  68  94 122 165 217 265 327 392
#     4   9  20  38  63  89 126 160 213 261 326 387
#     4  11  23  40  65  97 125 169 222 266 325 395
#
# _framework density 23.562508000000001
#
# number of rings (size 3 to 8) (size 9 to 14) (size 15 to 20)
#    0.000    2.000    0.000    3.429    4.000    5.143 
#    2.571    2.143    6.286    0.000    0.000    0.000 
#    0.000    0.000    0.000    0.000    0.000    0.000 
#
# Total GULP energy -156126.346784 kJ/mol
# GULP energy per Si atom -5575.940957 kJ/mol
# Density = 2.350888 g / cm^3
# Si number density = 23.562508 Si / 1000 Ang^3
#
#
#
# Elastic Constant Matrix: (Units=GPa)
#
#
# Indices 1 2 3 4 5 6 
#
# 1 61.5300 4.0273 23.4129 0.0000 -18.2136 0.0000
# 2 4.0273 81.8299 16.4188 0.0000 6.8450 0.0000
# 3 23.4129 16.4188 86.1834 0.0000 -18.5532 0.0000
# 4 0.0000 0.0000 0.0000 32.4405 0.0000 -7.4317
# 5 -18.2136 6.8450 -18.5532 0.0000 18.4127 0.0000
# 6 0.0000 0.0000 0.0000 -7.4317 0.0000 31.9538
#
#
#
# Elastic Compliance Matrix: (Units=1/GPa)
#
#
# Indices 1 2 3 4 5 6 
#
# 1 0.023819 -0.003026 -0.000740 0.000000 0.023940 0.000000
# 2 -0.003026 0.014424 -0.004756 0.000000 -0.013148 0.000000
# 3 -0.000740 -0.004756 0.016516 0.000000 0.017678 0.000000
# 4 0.000000 0.000000 0.000000 0.032560 0.000000 0.007573
# 5 0.023940 -0.013148 0.017678 0.000000 0.100692 0.000000
# 6 0.000000 0.000000 0.000000 0.007573 0.000000 0.033056
#
#
# Mechanical properties :
#
#
# Convention : Reuss Voigt Hill
#
# Bulk Modulus (GPa) = 26.51642 35.25126 30.88384
# Shear Modulus (GPa) = 19.94551 28.94037 24.44294
#
# Velocity S-wave (km/s) = 2.91261 3.50842 3.22431
# Velocity P-wave (km/s) = 4.75281 5.60404 5.19588
#
# Compressibility (1/GPa) = 0.03771248
#
# Stress axis : x y z
#
# Youngs Moduli (GPa) = 41.98405 69.33120 60.54751
#
# Poissons Ratio (x) = 0.20981 0.04483
# Poissons Ratio (y) = 0.12705 0.28797
# Poissons Ratio (z) = 0.03109 0.32975
#
# Static dielectric constant tensor:
#      x y z
#    x 2.040440 0.000000 0.059330 
#    y 0.000000 1.912330 0.000000 
#    z 0.059330 0.000000 1.850470 
# 
# From -- ./inp_files/97053.got.cif
#   From: 2010.05.17/outbox.cif.g08.bks.cpg/sg15_49_cif.got.tgz:97053.got - 2010.06.03 18:47:42.
