data_PCOD9283765
_publ_section_title
;
Structure prediction by ZEFSAII (Michael W. Deem and Ramdas Pophale) SiO2 
 PCOD9283765
Probable space group: C 2/C
;
_chemical_formula_sum "Si O2"
_cell_formula_units_Z 60
_cell_length_a 24.284287
_cell_length_b 19.084273
_cell_length_c 5.426698
_cell_angle_alpha 90.000000
_cell_angle_beta 87.501841
_cell_angle_gamma 90.000000
_cell_volume 2512.601941
_symmetry_space_group_name_H-M "C 2/C"
_symmetry_group_IT_number 15
_symmetry_cell_setting 'monoclinic'
loop_
_space_group_symop_operation_xyz
x,y,z
-x,y,1/2-z
-x,-y,-z
x,-y,1/2+z
1/2+x,1/2+y,z
1/2-x,1/2+y,1/2-z
1/2-x,1/2-y,-z
1/2+x,1/2-y,1/2+z
loop_
_atom_site_type_symbol
_atom_site_label
_atom_site_fract_x
_atom_site_fract_y
_atom_site_fract_z
Si Si1 0.204037 0.465172 0.818920
Si Si2 0.066374 0.962579 0.222329
Si Si3 0.806699 0.667880 0.477031
Si Si4 0.571740 0.966552 0.850917
Si Si5 0.596448 0.318129 0.420979
Si Si6 0.283550 0.299526 0.172541
Si Si7 0.426716 0.180732 0.387286
Si Si8 0.500000 0.734388 0.250000
O O1 0.226079 0.506369 0.573514
O O2 0.207644 0.383315 0.746861
O O3 0.138007 0.476121 0.847402
O O4 0.082087 0.881354 0.241376
O O5 0.000000 0.966871 0.250000
O O6 0.086372 0.002116 0.465986
O O7 0.761905 0.651519 0.693181
O O8 0.802834 0.748421 0.392637
O O9 0.870400 0.658668 0.543330
O O10 0.559316 0.887729 0.770939
O O11 0.552403 0.014154 0.626463
O O12 0.661141 0.326810 0.468215
O O13 0.589276 0.242559 0.296741
O O14 0.549693 0.314547 0.640235
O O15 0.250000 0.250000 0.000000
O O16 0.472328 0.214892 0.552773
#
# Coordination Sequence:
#
# PCOD9283765 Si02
#       8
#     8   8   8   8   8   8   8   4
#     4   9  18  32  56  88 119 162 205 253 307 373
#     4  10  23  43  70 101 136 180 226 280 358 435
#     4   9  20  38  60  89 122 160 210 262 318 383
#     4   9  19  36  59  89 130 173 219 264 323 388
#     4  11  25  42  66  97 133 171 226 286 338 414
#     4  10  21  40  64  92 122 170 214 271 327 396
#     4  10  22  39  64  95 129 169 222 274 331 392
#     4  12  24  38  64  96 126 166 224 280 336 390
#
# _framework density 23.879628
#
# number of rings (size 3 to 8) (size 9 to 14) (size 15 to 20)
#    0.000    2.133    0.000    2.000    8.400    0.000 
#    0.000    2.000    0.000    0.000    0.000    0.000 
#    0.000    0.000    0.000    0.000    0.000    0.000 
#
# Total GULP energy -167632.078305 kJ/mol
# GULP energy per Si atom -5587.735944 kJ/mol
# Density = 2.382528 g / cm^3
# Si number density = 23.879628 Si / 1000 Ang^3
#
#
#
# Elastic Constant Matrix: (Units=GPa)
#
#
# Indices 1 2 3 4 5 6 
#
# 1 105.5089 11.1744 44.1021 0.0000 -37.7361 0.0000
# 2 11.1744 89.7473 24.7937 0.0000 -10.3565 0.0000
# 3 44.1021 24.7937 92.2079 0.0000 -17.7186 0.0000
# 4 0.0000 0.0000 0.0000 41.6395 0.0000 5.6092
# 5 -37.7361 -10.3565 -17.7186 0.0000 30.0438 0.0000
# 6 0.0000 0.0000 0.0000 5.6092 0.0000 18.1652
#
#
#
# Elastic Compliance Matrix: (Units=1/GPa)
#
#
# Indices 1 2 3 4 5 6 
#
# 1 0.019341 0.001612 -0.005537 0.000000 0.021583 0.000000
# 2 0.001612 0.012343 -0.003252 0.000000 0.004362 0.000000
# 3 -0.005537 -0.003252 0.014454 0.000000 0.000449 0.000000
# 4 0.000000 0.000000 0.000000 0.025058 0.000000 -0.007738
# 5 0.021583 0.004362 0.000449 0.000000 0.062163 0.000000
# 6 0.000000 0.000000 0.000000 -0.007738 0.000000 0.057440
#
#
# Mechanical properties :
#
#
# Convention : Reuss Voigt Hill
#
# Bulk Modulus (GPa) = 31.46102 49.73383 40.59743
# Shear Modulus (GPa) = 23.17538 31.79594 27.48566
#
# Velocity S-wave (km/s) = 3.11868 3.65294 3.39633
# Velocity P-wave (km/s) = 5.11582 6.21805 5.69367
#
# Compressibility (1/GPa) = 0.03178536
#
# Stress axis : x y z
#
# Youngs Moduli (GPa) = 51.70409 81.01495 69.18571
#
# Poissons Ratio (x) = -0.13060 0.38305
# Poissons Ratio (y) = -0.08335 0.22498
# Poissons Ratio (z) = 0.28626 0.26345
#
# Static dielectric constant tensor:
#      x y z
#    x 1.996180 0.000000 -0.038710 
#    y 0.000000 1.894880 0.000000 
#    z -0.038710 0.000000 1.953990 
# 
# From -- ./inp_files/15851.got.cif
#   From: 2010.05.17/outbox.cif.g08.bks.cpg/sg15_8_cif.got.tgz:15851.got - 2010.06.03 18:47:42.
