data_PCOD9283942
_publ_section_title
;
Structure prediction by ZEFSAII (Michael W. Deem and Ramdas Pophale) SiO2 
 PCOD9283942
Probable space group: C 2/C
;
_chemical_formula_sum "Si O2"
_cell_formula_units_Z 60
_cell_length_a 10.915337
_cell_length_b 32.736324
_cell_length_c 8.216227
_cell_angle_alpha 90.000000
_cell_angle_beta 97.105440
_cell_angle_gamma 90.000000
_cell_volume 2913.340993
_symmetry_space_group_name_H-M "C 2/C"
_symmetry_group_IT_number 15
_symmetry_cell_setting 'monoclinic'
loop_
_space_group_symop_operation_xyz
x,y,z
-x,y,1/2-z
-x,-y,-z
x,-y,1/2+z
1/2+x,1/2+y,z
1/2-x,1/2+y,1/2-z
1/2-x,1/2-y,-z
1/2+x,1/2-y,1/2+z
loop_
_atom_site_type_symbol
_atom_site_label
_atom_site_fract_x
_atom_site_fract_y
_atom_site_fract_z
Si Si1 0.643993 0.949715 0.789399
Si Si2 0.104166 0.712273 0.622012
Si Si3 0.012411 0.953253 0.947428
Si Si4 0.608298 0.379742 0.399283
Si Si5 0.000000 0.427713 0.250000
Si Si6 0.612833 0.709969 0.892454
Si Si7 0.225402 0.531002 0.940504
Si Si8 0.622510 0.876585 0.013482
O O1 0.500000 0.960799 0.750000
O O2 0.695420 0.957322 0.619901
O O3 0.716428 0.981815 0.917358
O O4 0.646127 0.903123 0.855210
O O5 0.254000 0.712192 0.679730
O O6 0.093583 0.753244 0.514593
O O7 0.089450 0.671106 0.509829
O O8 0.000000 0.710980 0.750000
O O9 0.000000 0.952719 0.750000
O O10 0.144854 0.946197 0.056744
O O11 0.921766 0.918474 0.995499
O O12 0.000000 0.000000 0.000000
O O13 0.500000 0.378847 0.250000
O O14 0.607639 0.334434 0.479088
O O15 0.749813 0.381987 0.364755
O O16 0.121178 0.453972 0.300277
O O17 0.017675 0.400112 0.094895
O O18 0.500000 0.711703 0.750000
#
# Coordination Sequence:
#
# PCOD9283942 Si02
#       8
#     8   8   8   8   4   8   8   8
#     4  12  23  41  56  86 121 163 203 252 317 375
#     4  10  21  40  65  95 129 165 209 263 314 379
#     4  12  25  42  62  90 122 162 211 257 307 366
#     4  10  21  41  63  88 120 164 204 252 307 366
#     4  12  22  38  60  92 116 162 204 252 312 372
#     4   9  21  41  65  93 129 168 208 256 320 381
#     4  12  24  40  62  86 122 161 209 258 311 376
#     4  11  22  38  61  88 124 156 206 257 306 370
#
# _framework density 20.594911
#
# number of rings (size 3 to 8) (size 9 to 14) (size 15 to 20)
#    0.000    1.067    2.667    4.800    0.000    1.600 
#    0.000    1.333    0.000    0.000    0.000    0.000 
#    0.000    0.000    0.000    0.000    0.000    0.000 
#
# Total GULP energy -167135.921322 kJ/mol
# GULP energy per Si atom -5571.197377 kJ/mol
# Density = 2.054804 g / cm^3
# Si number density = 20.594911 Si / 1000 Ang^3
#
#
#
# Elastic Constant Matrix: (Units=GPa)
#
#
# Indices 1 2 3 4 5 6 
#
# 1 94.0287 44.9743 3.8792 0.0000 8.5741 0.0000
# 2 44.9743 181.7022 47.1268 0.0000 -14.1751 0.0000
# 3 3.8792 47.1268 46.8363 0.0000 -3.1022 0.0000
# 4 0.0000 0.0000 0.0000 33.8948 0.0000 -0.4255
# 5 8.5741 -14.1751 -3.1022 0.0000 34.4108 0.0000
# 6 0.0000 0.0000 0.0000 -0.4255 0.0000 28.5293
#
#
#
# Elastic Compliance Matrix: (Units=1/GPa)
#
#
# Indices 1 2 3 4 5 6 
#
# 1 0.013043 -0.004383 0.003013 0.000000 -0.004784 0.000000
# 2 -0.004383 0.009123 -0.008547 0.000000 0.004080 0.000000
# 3 0.003013 -0.008547 0.029595 0.000000 -0.001603 0.000000
# 4 0.000000 0.000000 0.000000 0.029509 0.000000 0.000440
# 5 -0.004784 0.004080 -0.001603 0.000000 0.031789 0.000000
# 6 0.000000 0.000000 0.000000 0.000440 0.000000 0.035058
#
#
# Mechanical properties :
#
#
# Convention : Reuss Voigt Hill
#
# Bulk Modulus (GPa) = 31.32012 57.16976 44.24494
# Shear Modulus (GPa) = 27.99651 34.47277 31.23464
#
# Velocity S-wave (km/s) = 3.69099 4.09571 3.89860
# Velocity P-wave (km/s) = 5.77973 7.08420 6.46495
#
# Compressibility (1/GPa) = 0.03192836
#
# Stress axis : x y z
#
# Youngs Moduli (GPa) = 76.66676 109.60813 33.78955
#
# Poissons Ratio (x) = 0.48043 -0.10181
# Poissons Ratio (y) = 0.33605 0.28879
# Poissons Ratio (z) = -0.23101 0.93679
#
# Static dielectric constant tensor:
#      x y z
#    x 1.450410 0.000000 0.140480 
#    y 0.000000 1.794090 0.000000 
#    z 0.140480 0.000000 1.678530 
# 
# From -- ./inp_files/35256.got.cif
#   From: 2010.05.17/outbox.cif.g08.bks.cpg/sg15_18_cif.got.tgz:35256.got - 2010.06.03 18:47:42.
