data_PCOD9283365
_publ_section_title
;
Structure prediction by ZEFSAII (Michael W. Deem and Ramdas Pophale) SiO2 
 PCOD9283365
Probable space group: C 2/C
;
_chemical_formula_sum "Si O2"
_cell_formula_units_Z 64
_cell_length_a 8.500990
_cell_length_b 12.194087
_cell_length_c 25.092454
_cell_angle_alpha 90.000000
_cell_angle_beta 112.896918
_cell_angle_gamma 90.000000
_cell_volume 2396.176736
_symmetry_space_group_name_H-M "C 2/C"
_symmetry_group_IT_number 15
_symmetry_cell_setting 'monoclinic'
loop_
_space_group_symop_operation_xyz
x,y,z
-x,y,1/2-z
-x,-y,-z
x,-y,1/2+z
1/2+x,1/2+y,z
1/2-x,1/2+y,1/2-z
1/2-x,1/2-y,-z
1/2+x,1/2-y,1/2+z
loop_
_atom_site_type_symbol
_atom_site_label
_atom_site_fract_x
_atom_site_fract_y
_atom_site_fract_z
Si Si1 0.120021 0.644987 0.020506
Si Si2 0.949535 0.034423 0.067635
Si Si3 0.946284 0.991451 0.803734
Si Si4 0.819038 0.230843 0.448431
Si Si5 0.681883 0.840849 0.284752
Si Si6 0.762169 0.867487 0.412004
Si Si7 0.167053 0.648970 0.243326
Si Si8 0.028965 0.413096 0.884774
O O1 0.261276 0.557195 0.020380
O O2 0.212737 0.761580 0.047048
O O3 0.050794 0.600973 0.067548
O O4 0.955780 0.669997 0.961480
O O5 0.937834 0.037848 0.130674
O O6 0.064851 0.127959 0.055509
O O7 0.048981 0.922052 0.068887
O O8 0.764522 0.934983 0.794158
O O9 0.000000 0.969801 0.750000
O O10 0.870301 0.112878 0.795692
O O11 0.750000 0.250000 0.500000
O O12 0.648170 0.196810 0.394336
O O13 0.500000 0.898159 0.250000
O O14 0.698314 0.814251 0.348613
O O15 0.684132 0.734730 0.248398
O O16 0.637110 0.973950 0.398484
O O17 0.000000 0.690223 0.250000
O O18 0.107980 0.591793 0.180648
#
# Coordination Sequence:
#
# PCOD9283365 Si02
#       8
#     8   8   8   8   8   8   8   8
#     4  11  21  40  68  93 125 170 215 267 327 380
#     4  10  22  39  63  96 129 165 217 266 319 390
#     4  11  23  40  62  94 130 169 210 271 324 395
#     4   9  20  39  65  92 128 171 215 270 329 383
#     4  11  23  39  60  91 126 168 219 261 328 391
#     4  10  22  41  63  91 130 170 208 269 324 385
#     4  12  22  37  61  89 125 170 213 266 323 386
#     4  10  21  40  60  91 126 166 214 264 323 382
#
# _framework density 26.709213999999999
#
# number of rings (size 3 to 8) (size 9 to 14) (size 15 to 20)
#    0.000    1.500    1.250    5.250    1.750    2.000 
#    0.000    3.750    0.000    8.250    0.000    0.000 
#    0.000    0.000    0.000    0.000    0.000    0.000 
#
# Total GULP energy -178658.438705 kJ/mol
# GULP energy per Si atom -5583.076210 kJ/mol
# Density = 2.664842 g / cm^3
# Si number density = 26.709214 Si / 1000 Ang^3
#
#
#
# Elastic Constant Matrix: (Units=GPa)
#
#
# Indices 1 2 3 4 5 6 
#
# 1 110.4792 37.6677 16.7377 0.0000 1.7771 0.0000
# 2 37.6677 61.2058 21.1741 0.0000 -6.5981 0.0000
# 3 16.7377 21.1741 92.4904 0.0000 -12.4047 0.0000
# 4 0.0000 0.0000 0.0000 12.9834 0.0000 2.3298
# 5 1.7771 -6.5981 -12.4047 0.0000 47.6281 0.0000
# 6 0.0000 0.0000 0.0000 2.3298 0.0000 40.0675
#
#
#
# Elastic Compliance Matrix: (Units=1/GPa)
#
#
# Indices 1 2 3 4 5 6 
#
# 1 0.011591 -0.007065 -0.000694 0.000000 -0.001592 0.000000
# 2 -0.007065 0.022147 -0.003466 0.000000 0.002429 0.000000
# 3 -0.000694 -0.003466 0.012092 0.000000 0.002695 0.000000
# 4 0.000000 0.000000 0.000000 0.077833 0.000000 -0.004526
# 5 -0.001592 0.002429 0.002695 0.000000 0.022094 0.000000
# 6 0.000000 0.000000 0.000000 -0.004526 0.000000 0.025221
#
#
# Mechanical properties :
#
#
# Convention : Reuss Voigt Hill
#
# Bulk Modulus (GPa) = 42.76906 46.14826 44.45866
# Shear Modulus (GPa) = 24.84821 32.70887 28.77854
#
# Velocity S-wave (km/s) = 3.05343 3.50327 3.28605
# Velocity P-wave (km/s) = 5.33656 5.80339 5.57486
#
# Compressibility (1/GPa) = 0.02338139
#
# Stress axis : x y z
#
# Youngs Moduli (GPa) = 86.27399 45.15241 82.69657
#
# Poissons Ratio (x) = 0.31900 0.05736
# Poissons Ratio (y) = 0.60953 0.28662
# Poissons Ratio (z) = 0.05985 0.15649
#
# Static dielectric constant tensor:
#      x y z
#    x 2.229690 0.000000 -0.035040 
#    y 0.000000 2.122280 0.000000 
#    z -0.035040 0.000000 2.065460 
# 
# From -- ./inp_files/288823.got.cif
#   From: 2010.05.17/outbox.cif.g08.bks.cpg/sg15_145_cif.got.tgz:288823.got - 2010.06.03 18:47:42.
