data_PCOD9283900
_publ_section_title
;
Structure prediction by ZEFSAII (Michael W. Deem and Ramdas Pophale) SiO2 
 PCOD9283900
Probable space group: C 2/C
;
_chemical_formula_sum "Si O2"
_cell_formula_units_Z 48
_cell_length_a 15.619122
_cell_length_b 12.023545
_cell_length_c 12.030275
_cell_angle_alpha 90.000000
_cell_angle_beta 109.124567
_cell_angle_gamma 90.000000
_cell_volume 2134.560691
_symmetry_space_group_name_H-M "C 2/C"
_symmetry_group_IT_number 15
_symmetry_cell_setting 'monoclinic'
loop_
_space_group_symop_operation_xyz
x,y,z
-x,y,1/2-z
-x,-y,-z
x,-y,1/2+z
1/2+x,1/2+y,z
1/2-x,1/2+y,1/2-z
1/2-x,1/2-y,-z
1/2+x,1/2-y,1/2+z
loop_
_atom_site_type_symbol
_atom_site_label
_atom_site_fract_x
_atom_site_fract_y
_atom_site_fract_z
Si Si1 0.062197 0.762342 0.047790
Si Si2 0.608933 0.808357 0.178090
Si Si3 0.647755 0.360480 0.877619
Si Si4 0.326166 0.060562 0.315362
Si Si5 0.773027 0.163324 0.416106
Si Si6 0.952990 0.944500 0.086097
O O1 0.139545 0.823664 0.004641
O O2 0.977726 0.731418 0.930748
O O3 0.101324 0.651229 0.116200
O O4 0.020859 0.840562 0.128067
O O5 0.610459 0.750383 0.299595
O O6 0.695197 0.744106 0.167343
O O7 0.630567 0.937645 0.168241
O O8 0.739891 0.412517 0.862062
O O9 0.577262 0.462849 0.839342
O O10 0.297031 0.083730 0.174997
O O11 0.750000 0.250000 0.500000
O O12 0.856856 0.096538 0.499665
O O13 0.000000 0.000000 0.000000
#
# Coordination Sequence:
#
# PCOD9283900 Si02
#       6
#     8   8   8   8   8   8
#     4  10  21  41  64  95 129 163 209 262 323 387
#     4  10  22  39  62  94 129 163 206 261 322 381
#     4  10  21  40  65  92 124 169 213 262 319 378
#     4  11  23  39  64  94 127 169 214 261 317 387
#     4  10  22  41  60  87 125 164 209 262 314 367
#     4   9  20  40  64  88 120 160 208 260 309 370
#
# _framework density 22.487062000000002
#
# number of rings (size 3 to 8) (size 9 to 14) (size 15 to 20)
#    0.000    2.000    0.000    2.500    0.000    9.333 
#    0.000   18.333    0.000    0.000    0.000    0.000 
#    0.000    0.000    0.000    0.000    0.000    0.000 
#
# Total GULP energy -133669.487885 kJ/mol
# GULP energy per Si atom -5569.561995 kJ/mol
# Density = 2.243588 g / cm^3
# Si number density = 22.487062 Si / 1000 Ang^3
#
#
#
# Elastic Constant Matrix: (Units=GPa)
#
#
# Indices 1 2 3 4 5 6 
#
# 1 60.4335 47.7479 19.1370 0.0000 -2.4960 0.0000
# 2 47.7479 154.2250 5.0312 0.0000 3.0589 0.0000
# 3 19.1370 5.0312 25.1723 0.0000 -8.1344 0.0000
# 4 0.0000 0.0000 0.0000 14.6529 0.0000 -19.8683
# 5 -2.4960 3.0589 -8.1344 0.0000 17.3832 0.0000
# 6 0.0000 0.0000 0.0000 -19.8683 0.0000 34.5702
#
#
#
# Elastic Compliance Matrix: (Units=1/GPa)
#
#
# Indices 1 2 3 4 5 6 
#
# 1 0.030379 -0.008560 -0.022960 0.000000 -0.004876 0.000000
# 2 -0.008560 0.009002 0.004476 0.000000 -0.000719 0.000000
# 3 -0.022960 0.004476 0.064760 0.000000 0.026220 0.000000
# 4 0.000000 0.000000 0.000000 0.309198 0.000000 0.177703
# 5 -0.004876 -0.000719 0.026220 0.000000 0.069223 0.000000
# 6 0.000000 0.000000 0.000000 0.177703 0.000000 0.131057
#
#
# Mechanical properties :
#
#
# Convention : Reuss Voigt Hill
#
# Bulk Modulus (GPa) = 19.97874 42.62921 31.30397
# Shear Modulus (GPa) = 7.30575 24.51557 15.91066
#
# Velocity S-wave (km/s) = 1.80442 3.30541 2.66286
# Velocity P-wave (km/s) = 3.63938 5.79362 4.83793
#
# Compressibility (1/GPa) = 0.05005322
#
# Stress axis : x y z
#
# Youngs Moduli (GPa) = 32.91710 111.08218 15.44160
#
# Poissons Ratio (x) = 0.95083 0.35455
# Poissons Ratio (y) = 0.28176 -0.06911
# Poissons Ratio (z) = 0.75579 -0.49719
#
# Static dielectric constant tensor:
#      x y z
#    x 3.204240 0.000000 -3.187050 
#    y 0.000000 2.167770 0.000000 
#    z -3.187050 0.000000 9.294940 
# 
# From -- ./inp_files/103819.got.cif
#   From: 2010.05.17/outbox.cif.g08.bks.cpg/sg15_52_cif.got.tgz:103819.got - 2010.06.03 18:47:42.
