data_PCOD9283124
_publ_section_title
;
Structure prediction by ZEFSAII (Michael W. Deem and Ramdas Pophale) SiO2 
 PCOD9283124
Probable space group: C 2/C
;
_chemical_formula_sum "Si O2"
_cell_formula_units_Z 40
_cell_length_a 24.304359
_cell_length_b 14.830006
_cell_length_c 13.124927
_cell_angle_alpha 90.000000
_cell_angle_beta 157.678892
_cell_angle_gamma 90.000000
_cell_volume 1796.693131
_symmetry_space_group_name_H-M "C 2/C"
_symmetry_group_IT_number 15
_symmetry_cell_setting 'monoclinic'
loop_
_space_group_symop_operation_xyz
x,y,z
-x,y,1/2-z
-x,-y,-z
x,-y,1/2+z
1/2+x,1/2+y,z
1/2-x,1/2+y,1/2-z
1/2-x,1/2-y,-z
1/2+x,1/2-y,1/2+z
loop_
_atom_site_type_symbol
_atom_site_label
_atom_site_fract_x
_atom_site_fract_y
_atom_site_fract_z
Si Si1 0.116660 0.631991 0.322067
Si Si2 0.644023 0.395399 0.564845
Si Si3 0.632501 0.264941 0.041777
Si Si4 0.570724 0.331585 0.161423
Si Si5 0.681676 0.077378 0.667039
O O1 0.276685 0.619639 0.549110
O O2 0.074468 0.736106 0.228218
O O3 0.144996 0.610493 0.489043
O O4 0.974416 0.576732 0.045939
O O5 0.749632 0.310934 0.733054
O O6 0.570527 0.387630 0.550681
O O7 0.734882 0.484363 0.698841
O O8 0.500000 0.391003 0.250000
O O9 0.576838 0.305741 0.053167
O O10 0.709915 0.344608 0.110274
O O11 0.500000 0.226757 0.750000
#
# Coordination Sequence:
#
# PCOD9283124 Si02
#       5
#     8   8   8   8   8
#     4   9  18  38  67  96 129 173 217 273 325 398
#     4  12  24  42  70  99 135 183 226 272 342 405
#     4  11  25  43  66  97 139 176 226 288 335 392
#     4  10  21  41  71  98 129 185 228 267 341 407
#     4  10  21  39  67  97 139 172 218 279 339 392
#
# _framework density 22.263124000000001
#
# number of rings (size 3 to 8) (size 9 to 14) (size 15 to 20)
#    0.000    1.600    2.000    4.200    2.800    4.000 
#    0.000    6.000    0.000    0.000    0.000    0.000 
#    0.000    0.000    0.000    0.000    0.000    0.000 
#
# Total GULP energy -111665.380738 kJ/mol
# GULP energy per Si atom -5583.269037 kJ/mol
# Density = 2.221245 g / cm^3
# Si number density = 22.263124 Si / 1000 Ang^3
#
#
#
# Elastic Constant Matrix: (Units=GPa)
#
#
# Indices 1 2 3 4 5 6 
#
# 1 57.1363 17.7412 51.3608 0.0000 11.6358 0.0000
# 2 17.7412 98.5244 56.3360 0.0000 19.0076 0.0000
# 3 51.3608 56.3360 144.7996 0.0000 22.4211 0.0000
# 4 0.0000 0.0000 0.0000 2.6399 0.0000 25.7699
# 5 11.6358 19.0076 22.4211 0.0000 31.9104 0.0000
# 6 0.0000 0.0000 0.0000 25.7699 0.0000 24.3896
#
#
#
# Elastic Compliance Matrix: (Units=1/GPa)
#
#
# Indices 1 2 3 4 5 6 
#
# 1 0.026133 0.001281 -0.009172 0.000000 -0.003848 0.000000
# 2 0.001281 0.013783 -0.005019 0.000000 -0.005150 0.000000
# 3 -0.009172 -0.005019 0.012490 0.000000 -0.002442 0.000000
# 4 0.000000 0.000000 0.000000 -0.040670 0.000000 0.042971
# 5 -0.003848 -0.005150 -0.002442 0.000000 0.037524 0.000000
# 6 0.000000 0.000000 0.000000 0.042971 0.000000 -0.004402
#
#
# Mechanical properties :
#
#
# Convention : Reuss Voigt Hill
#
# Bulk Modulus (GPa) = 37.61465 61.25959 49.43712
# Shear Modulus (GPa) = 62.86150 23.45613 43.15882
#
# Velocity S-wave (km/s) = 5.31949 3.24942 4.40771
# Velocity P-wave (km/s) = 7.39334 6.45401 6.93959
#
# Compressibility (1/GPa) = 0.02658539
#
# Stress axis : x y z
#
# Youngs Moduli (GPa) = 38.26634 72.55482 80.06198
#
# Poissons Ratio (x) = -0.09295 0.73433
# Poissons Ratio (y) = -0.04902 0.40185
# Poissons Ratio (z) = 0.35098 0.36417
#
# Static dielectric constant tensor:
#      x y z
#    x 1.927880 0.000000 0.031920 
#    y 0.000000 1.795460 0.000000 
#    z 0.031920 0.000000 1.857540 
# 
# From -- ./inp_files/142869.got.cif
#   From: 2010.05.17/outbox.cif.g08.bks.cpg/sg15_72_cif.got.tgz:142869.got - 2010.06.03 18:47:42.
