data_PCOD9283012
_publ_section_title
;
Structure prediction by ZEFSAII (Michael W. Deem and Ramdas Pophale) SiO2 
 PCOD9283012
Probable space group: C 2/C
;
_chemical_formula_sum "Si O2"
_cell_formula_units_Z 56
_cell_length_a 19.094431
_cell_length_b 18.606367
_cell_length_c 9.150421
_cell_angle_alpha 90.000000
_cell_angle_beta 64.419697
_cell_angle_gamma 90.000000
_cell_volume 2932.289035
_symmetry_space_group_name_H-M "C 2/C"
_symmetry_group_IT_number 15
_symmetry_cell_setting 'monoclinic'
loop_
_space_group_symop_operation_xyz
x,y,z
-x,y,1/2-z
-x,-y,-z
x,-y,1/2+z
1/2+x,1/2+y,z
1/2-x,1/2+y,1/2-z
1/2-x,1/2-y,-z
1/2+x,1/2-y,1/2+z
loop_
_atom_site_type_symbol
_atom_site_label
_atom_site_fract_x
_atom_site_fract_y
_atom_site_fract_z
Si Si1 0.660316 0.838711 0.861392
Si Si2 0.770580 0.954526 0.313750
Si Si3 0.217994 0.173363 0.480756
Si Si4 0.429097 0.711234 0.719861
Si Si5 0.945277 0.465918 0.672623
Si Si6 0.453841 0.444630 0.140751
Si Si7 0.185750 0.431187 0.087517
O O1 0.745780 0.840006 0.710224
O O2 0.616470 0.767514 0.841373
O O3 0.609451 0.904383 0.842864
O O4 0.667807 0.854984 0.026996
O O5 0.751744 0.889155 0.440426
O O6 0.863106 0.966185 0.229639
O O7 0.740487 0.933588 0.180356
O O8 0.726602 0.021916 0.423525
O O9 0.250000 0.250000 0.500000
O O10 0.127791 0.179375 0.601892
O O11 0.500000 0.742951 0.750000
O O12 0.453366 0.640843 0.605015
O O13 0.892037 0.528085 0.791472
O O14 0.000000 0.435381 0.750000
O O15 0.000000 0.500000 0.500000
O O16 0.500000 0.448206 0.250000
O O17 0.500000 0.500000 0.000000
#
# Coordination Sequence:
#
# PCOD9283012 Si02
#       7
#     8   8   8   8   8   8   8
#     4  11  21  38  61  88 128 164 210 257 312 375
#     4  11  20  37  60  93 123 162 210 257 312 381
#     4   9  19  37  60  85 116 160 206 255 310 380
#     4   9  20  39  63  90 121 163 210 256 323 376
#     4  12  22  36  55  85 124 165 216 254 303 366
#     4  10  21  39  66  94 120 152 205 264 314 369
#     4  12  22  36  58  91 126 166 210 256 311 376
#
# _framework density 19.097707
#
# number of rings (size 3 to 8) (size 9 to 14) (size 15 to 20)
#    0.000    1.429    4.286    1.286    0.000    2.286 
#    0.000    6.429    3.143    0.000    0.000    0.000 
#    0.000    0.000    0.000    0.000    0.000    0.000 
#
# Total GULP energy -156097.586728 kJ/mol
# GULP energy per Si atom -5574.913812 kJ/mol
# Density = 1.905424 g / cm^3
# Si number density = 19.097707 Si / 1000 Ang^3
#
#
#
# Elastic Constant Matrix: (Units=GPa)
#
#
# Indices 1 2 3 4 5 6 
#
# 1 102.5981 18.1022 34.9237 0.0000 2.4487 0.0000
# 2 18.1022 92.5977 46.0017 0.0000 -6.4982 0.0000
# 3 34.9237 46.0017 84.4344 0.0000 -3.0590 0.0000
# 4 0.0000 0.0000 0.0000 33.5034 0.0000 -1.0897
# 5 2.4487 -6.4982 -3.0590 0.0000 28.1641 0.0000
# 6 0.0000 0.0000 0.0000 -1.0897 0.0000 22.8065
#
#
#
# Elastic Compliance Matrix: (Units=1/GPa)
#
#
# Indices 1 2 3 4 5 6 
#
# 1 0.011408 0.000049 -0.004799 0.000000 -0.001502 0.000000
# 2 0.000049 0.014992 -0.008095 0.000000 0.002576 0.000000
# 3 -0.004799 -0.008095 0.018258 0.000000 0.000533 0.000000
# 4 0.000000 0.000000 0.000000 0.029894 0.000000 0.001428
# 5 -0.001502 0.002576 0.000533 0.000000 0.036289 0.000000
# 6 0.000000 0.000000 0.000000 0.001428 0.000000 0.043915
#
#
# Mechanical properties :
#
#
# Convention : Reuss Voigt Hill
#
# Bulk Modulus (GPa) = 52.72330 53.07617 52.89973
# Shear Modulus (GPa) = 26.77091 28.93496 27.85293
#
# Velocity S-wave (km/s) = 3.74811 3.89665 3.82310
# Velocity P-wave (km/s) = 6.81162 6.93523 6.87370
#
# Compressibility (1/GPa) = 0.01896695
#
# Stress axis : x y z
#
# Youngs Moduli (GPa) = 87.66008 66.70183 54.76977
#
# Poissons Ratio (x) = -0.00326 0.26286
# Poissons Ratio (y) = -0.00428 0.44336
# Poissons Ratio (z) = 0.42072 0.53994
#
# Static dielectric constant tensor:
#      x y z
#    x 1.690500 0.000000 0.005510 
#    y 0.000000 1.630510 0.000000 
#    z 0.005510 0.000000 1.697860 
# 
# From -- ./inp_files/50094.got.cif
#   From: 2010.05.17/outbox.cif.g08.bks.cpg/sg15_26_cif.got.tgz:50094.got - 2010.06.03 18:47:42.
