data_PCOD9283144
_publ_section_title
;
Structure prediction by ZEFSAII (Michael W. Deem and Ramdas Pophale) SiO2 
 PCOD9283144
Probable space group: C 2/C
;
_chemical_formula_sum "Si O2"
_cell_formula_units_Z 56
_cell_length_a 10.978294
_cell_length_b 11.912829
_cell_length_c 19.446493
_cell_angle_alpha 90.000000
_cell_angle_beta 88.511541
_cell_angle_gamma 90.000000
_cell_volume 2542.403578
_symmetry_space_group_name_H-M "C 2/C"
_symmetry_group_IT_number 15
_symmetry_cell_setting 'monoclinic'
loop_
_space_group_symop_operation_xyz
x,y,z
-x,y,1/2-z
-x,-y,-z
x,-y,1/2+z
1/2+x,1/2+y,z
1/2-x,1/2+y,1/2-z
1/2-x,1/2-y,-z
1/2+x,1/2-y,1/2+z
loop_
_atom_site_type_symbol
_atom_site_label
_atom_site_fract_x
_atom_site_fract_y
_atom_site_fract_z
Si Si1 0.201758 0.579243 0.224585
Si Si2 0.869203 0.677439 0.483346
Si Si3 0.245823 0.967947 0.414374
Si Si4 0.958274 0.710155 0.891314
Si Si5 0.000000 0.754150 0.250000
Si Si6 0.585935 0.432875 0.679282
Si Si7 0.500000 0.104188 0.750000
Si Si8 0.006356 0.143608 0.887845
O O1 0.270812 0.543741 0.154393
O O2 0.107698 0.680091 0.216138
O O3 0.287425 0.600859 0.287566
O O4 0.116936 0.473557 0.241652
O O5 0.750000 0.750000 0.500000
O O6 0.819602 0.554944 0.461620
O O7 0.952925 0.674790 0.549259
O O8 0.947981 0.750726 0.427505
O O9 0.333813 0.860685 0.402024
O O10 0.111811 0.917714 0.430636
O O11 0.943247 0.842168 0.879205
O O12 0.014111 0.675298 0.817593
O O13 0.060412 0.818146 0.313035
O O14 0.500000 0.437952 0.750000
O O15 0.588480 0.551079 0.639241
#
# Coordination Sequence:
#
# PCOD9283144 Si02
#       8
#     8   8   8   8   4   8   4   8
#     4  10  21  39  68 104 135 177 229 293 360 413
#     4  12  29  47  70 101 147 192 234 295 364 439
#     4  11  23  48  71  98 142 182 239 298 351 433
#     4  11  25  45  69 101 134 188 235 294 354 424
#     4  11  20  41  72 104 136 181 237 300 348 420
#     4  12  23  39  67 103 140 177 232 293 352 423
#     4   9  22  41  68  96 134 175 239 290 348 420
#     4  12  25  45  70 104 144 188 241 291 363 430
#
# _framework density 22.026399000000001
#
# number of rings (size 3 to 8) (size 9 to 14) (size 15 to 20)
#    0.000    0.857    4.286    2.143    2.000    4.000 
#    0.000    0.000    0.000    0.000    0.000    0.000 
#    0.000    0.000    0.000    0.000    0.000    0.000 
#
# Total GULP energy -156318.512544 kJ/mol
# GULP energy per Si atom -5582.804019 kJ/mol
# Density = 2.197627 g / cm^3
# Si number density = 22.026399 Si / 1000 Ang^3
#
#
#
# Elastic Constant Matrix: (Units=GPa)
#
#
# Indices 1 2 3 4 5 6 
#
# 1 74.4182 5.3521 30.9749 0.0000 26.3477 0.0000
# 2 5.3521 64.2317 18.8053 0.0000 -0.5055 0.0000
# 3 30.9749 18.8053 95.1066 0.0000 19.7367 0.0000
# 4 0.0000 0.0000 0.0000 45.6215 0.0000 -0.8870
# 5 26.3477 -0.5055 19.7367 0.0000 31.9258 0.0000
# 6 0.0000 0.0000 0.0000 -0.8870 0.0000 54.0165
#
#
#
# Elastic Compliance Matrix: (Units=1/GPa)
#
#
# Indices 1 2 3 4 5 6 
#
# 1 0.020009 -0.000797 -0.003361 0.000000 -0.014448 0.000000
# 2 -0.000797 0.016750 -0.003721 0.000000 0.003224 0.000000
# 3 -0.003361 -0.003721 0.013515 0.000000 -0.005641 0.000000
# 4 0.000000 0.000000 0.000000 0.021927 0.000000 0.000360
# 5 -0.014448 0.003224 -0.005641 0.000000 0.046784 0.000000
# 6 0.000000 0.000000 0.000000 0.000360 0.000000 0.018519
#
#
# Mechanical properties :
#
#
# Convention : Reuss Voigt Hill
#
# Bulk Modulus (GPa) = 28.97193 38.22456 33.59825
# Shear Modulus (GPa) = 30.34575 38.22103 34.28339
#
# Velocity S-wave (km/s) = 3.71576 4.17014 3.94949
# Velocity P-wave (km/s) = 5.62059 6.37012 6.00705
#
# Compressibility (1/GPa) = 0.03451616
#
# Stress axis : x y z
#
# Youngs Moduli (GPa) = 49.97739 59.70173 73.98932
#
# Poissons Ratio (x) = 0.04758 0.24866
# Poissons Ratio (y) = 0.03983 0.27534
# Poissons Ratio (z) = 0.16796 0.22217
#
# Static dielectric constant tensor:
#      x y z
#    x 1.813890 0.000000 -0.033840 
#    y 0.000000 1.859170 0.000000 
#    z -0.033840 0.000000 1.784030 
# 
# From -- ./inp_files/237080.got.cif
#   From: 2010.05.17/outbox.cif.g08.bks.cpg/sg15_119_cif.got.tgz:237080.got - 2010.06.03 18:47:42.
