data_PCOD9283806
_publ_section_title
;
Structure prediction by ZEFSAII (Michael W. Deem and Ramdas Pophale) SiO2 
 PCOD9283806
Probable space group: C 2/C
;
_chemical_formula_sum "Si O2"
_cell_formula_units_Z 52
_cell_length_a 18.627642
_cell_length_b 22.023603
_cell_length_c 8.405701
_cell_angle_alpha 90.000000
_cell_angle_beta 49.525270
_cell_angle_gamma 90.000000
_cell_volume 2623.186846
_symmetry_space_group_name_H-M "C 2/C"
_symmetry_group_IT_number 15
_symmetry_cell_setting 'monoclinic'
loop_
_space_group_symop_operation_xyz
x,y,z
-x,y,1/2-z
-x,-y,-z
x,-y,1/2+z
1/2+x,1/2+y,z
1/2-x,1/2+y,1/2-z
1/2-x,1/2-y,-z
1/2+x,1/2-y,1/2+z
loop_
_atom_site_type_symbol
_atom_site_label
_atom_site_fract_x
_atom_site_fract_y
_atom_site_fract_z
Si Si1 0.500000 0.822453 0.250000
Si Si2 0.847789 0.215973 0.900217
Si Si3 0.459461 0.274908 0.562776
Si Si4 0.693511 0.424168 0.029189
Si Si5 0.401044 0.485594 0.058131
Si Si6 0.400156 0.074466 0.087508
Si Si7 0.000000 0.119554 0.250000
Si Si8 0.500000 0.026299 0.250000
O O1 0.556349 0.778899 0.289014
O O2 0.431352 0.865627 0.449478
O O3 0.882993 0.223630 0.031979
O O4 0.937099 0.235838 0.664565
O O5 0.750000 0.250000 0.000000
O O6 0.834129 0.144327 0.891369
O O7 0.466793 0.337067 0.653864
O O8 0.624018 0.454915 0.003144
O O9 0.795275 0.424368 0.803519
O O10 0.680003 0.466572 0.202313
O O11 0.500000 0.500000 0.000000
O O12 0.418649 0.426487 0.923852
O O13 0.463909 0.064821 0.153119
O O14 0.421086 0.018662 0.937458
#
# Coordination Sequence:
#
# PCOD9283806 Si02
#       8
#     4   8   8   8   8   8   4   4
#     4  10  22  42  68  92 126 176 222 272 332 394
#     4  11  24  42  66  95 128 173 226 276 327 396
#     4  10  23  43  67  89 129 176 219 272 334 392
#     4  12  24  38  64  98 131 164 219 271 319 395
#     4  12  23  38  63  95 136 173 209 257 330 397
#     4  10  21  40  64  95 127 166 218 269 330 392
#     4  11  20  41  64  94 129 176 213 256 336 400
#     4   9  20  41  66  88 131 172 205 274 340 388
#
# _framework density 19.823217
#
# number of rings (size 3 to 8) (size 9 to 14) (size 15 to 20)
#    0.000    1.231    3.077    2.769    2.154    2.462 
#    0.000   11.538    3.385    0.000    0.000    0.000 
#    0.000    0.000    0.000    0.000    0.000    0.000 
#
# Total GULP energy -145253.872188 kJ/mol
# GULP energy per Si atom -5586.687392 kJ/mol
# Density = 1.977810 g / cm^3
# Si number density = 19.823217 Si / 1000 Ang^3
#
#
#
# Elastic Constant Matrix: (Units=GPa)
#
#
# Indices 1 2 3 4 5 6 
#
# 1 83.7890 43.8710 20.3849 0.0000 4.1603 0.0000
# 2 43.8710 106.6698 28.9024 0.0000 5.5548 0.0000
# 3 20.3849 28.9024 104.4871 0.0000 0.8388 0.0000
# 4 0.0000 0.0000 0.0000 31.7492 0.0000 12.4822
# 5 4.1603 5.5548 0.8388 0.0000 31.9795 0.0000
# 6 0.0000 0.0000 0.0000 12.4822 0.0000 23.4989
#
#
#
# Elastic Compliance Matrix: (Units=1/GPa)
#
#
# Indices 1 2 3 4 5 6 
#
# 1 0.015413 -0.005921 -0.001362 0.000000 -0.000941 0.000000
# 2 -0.005921 0.012501 -0.002292 0.000000 -0.001341 0.000000
# 3 -0.001362 -0.002292 0.010468 0.000000 0.000301 0.000000
# 4 0.000000 0.000000 0.000000 0.039811 0.000000 -0.021147
# 5 -0.000941 -0.001341 0.000301 0.000000 0.031618 0.000000
# 6 0.000000 0.000000 0.000000 -0.021147 0.000000 0.053788
#
#
# Mechanical properties :
#
#
# Convention : Reuss Voigt Hill
#
# Bulk Modulus (GPa) = 51.99595 53.47360 52.73478
# Shear Modulus (GPa) = 26.43297 30.89802 28.66549
#
# Velocity S-wave (km/s) = 3.65558 3.95229 3.80683
# Velocity P-wave (km/s) = 6.64112 6.91819 6.78107
#
# Compressibility (1/GPa) = 0.01923227
#
# Stress axis : x y z
#
# Youngs Moduli (GPa) = 64.88052 79.99507 95.53143
#
# Poissons Ratio (x) = 0.47366 0.13008
# Poissons Ratio (y) = 0.38416 0.21895
# Poissons Ratio (z) = 0.08834 0.18334
#
# Static dielectric constant tensor:
#      x y z
#    x 1.703320 0.000000 0.021680 
#    y 0.000000 1.688310 0.000000 
#    z 0.021680 0.000000 1.719310 
# 
# From -- ./inp_files/50620.got.cif
#   From: 2010.05.17/outbox.cif.g08.bks.cpg/sg15_26_cif.got.tgz:50620.got - 2010.06.03 18:47:42.
