data_PCOD9283331
_publ_section_title
;
Structure prediction by ZEFSAII (Michael W. Deem and Ramdas Pophale) SiO2 
 PCOD9283331
Probable space group: C 2/C
;
_chemical_formula_sum "Si O2"
_cell_formula_units_Z 40
_cell_length_a 21.622080
_cell_length_b 9.818746
_cell_length_c 11.614801
_cell_angle_alpha 90.000000
_cell_angle_beta 37.498421
_cell_angle_gamma 90.000000
_cell_volume 1501.055666
_symmetry_space_group_name_H-M "C 2/C"
_symmetry_group_IT_number 15
_symmetry_cell_setting 'monoclinic'
loop_
_space_group_symop_operation_xyz
x,y,z
-x,y,1/2-z
-x,-y,-z
x,-y,1/2+z
1/2+x,1/2+y,z
1/2-x,1/2+y,1/2-z
1/2-x,1/2-y,-z
1/2+x,1/2-y,1/2+z
loop_
_atom_site_type_symbol
_atom_site_label
_atom_site_fract_x
_atom_site_fract_y
_atom_site_fract_z
Si Si1 0.871251 0.638688 0.680198
Si Si2 0.080267 0.189993 0.046427
Si Si3 0.744904 0.335519 0.145533
Si Si4 0.571362 0.109290 0.254239
Si Si5 0.876012 0.918991 0.786678
O O1 0.811419 0.603657 0.653078
O O2 0.875131 0.523111 0.771120
O O3 0.838129 0.783696 0.778440
O O4 0.989345 0.659432 0.468010
O O5 0.000000 0.270949 0.250000
O O6 0.999459 0.089796 0.104147
O O7 0.161680 0.254347 0.839125
O O8 0.178595 0.046393 0.686392
O O9 0.641936 0.397838 0.550259
O O10 0.836815 0.292843 0.923831
O O11 0.500000 0.081681 0.250000
#
# Coordination Sequence:
#
# PCOD9283331 Si02
#       5
#     8   8   8   8   8
#     4  10  21  40  59  92 123 159 207 247 310 357
#     4   8  21  37  61  88 118 154 204 251 298 354
#     4  11  19  38  62  88 125 157 201 251 306 361
#     4   9  21  36  61  83 130 156 196 257 304 354
#     4   9  21  39  64  87 121 161 203 248 299 369
#
# _framework density 26.647912000000002
#
# number of rings (size 3 to 8) (size 9 to 14) (size 15 to 20)
#    1.200    1.200    0.000    1.800    2.800    3.200 
#    7.200    4.000    0.000    0.000    0.000    0.000 
#    0.000    0.000    0.000    0.000    0.000    0.000 
#
# Total GULP energy -111578.174953 kJ/mol
# GULP energy per Si atom -5578.908748 kJ/mol
# Density = 2.658726 g / cm^3
# Si number density = 26.647912 Si / 1000 Ang^3
#
#
#
# Elastic Constant Matrix: (Units=GPa)
#
#
# Indices 1 2 3 4 5 6 
#
# 1 145.2883 66.7455 -15.7585 0.0000 -9.9419 0.0000
# 2 66.7455 100.9267 13.4100 0.0000 6.4747 0.0000
# 3 -15.7585 13.4100 239.7941 0.0000 -14.7477 0.0000
# 4 0.0000 0.0000 0.0000 4.4272 0.0000 -14.3925
# 5 -9.9419 6.4747 -14.7477 0.0000 31.8264 0.0000
# 6 0.0000 0.0000 0.0000 -14.3925 0.0000 28.8247
#
#
#
# Elastic Compliance Matrix: (Units=1/GPa)
#
#
# Indices 1 2 3 4 5 6 
#
# 1 0.011069 -0.007893 0.001524 0.000000 0.005769 0.000000
# 2 -0.007893 0.015785 -0.001802 0.000000 -0.006512 0.000000
# 3 0.001524 -0.001802 0.004553 0.000000 0.002952 0.000000
# 4 0.000000 0.000000 0.000000 -0.362436 0.000000 -0.180968
# 5 0.005769 -0.006512 0.002952 0.000000 0.035915 0.000000
# 6 0.000000 0.000000 0.000000 -0.180968 0.000000 -0.055667
#
#
# Mechanical properties :
#
#
# Convention : Reuss Voigt Hill
#
# Bulk Modulus (GPa) = 66.38092 68.31147 67.34620
# Shear Modulus (GPa) = -15.17828 41.12314 12.97243
#
# Velocity S-wave (km/s) = -2.38919 3.93262 2.20877
# Velocity P-wave (km/s) = 4.16575 6.80523 5.64201
#
# Compressibility (1/GPa) = 0.01506457
#
# Stress axis : x y z
#
# Youngs Moduli (GPa) = 90.34399 63.35135 219.64989
#
# Poissons Ratio (x) = 0.50001 -0.33466
# Poissons Ratio (y) = 0.71305 0.39579
# Poissons Ratio (z) = -0.13765 0.11415
#
# Static dielectric constant tensor:
#      x y z
#    x 2.093400 0.000000 -0.011990 
#    y 0.000000 1.970970 0.000000 
#    z -0.011990 0.000000 2.243290 
# 
# From -- ./inp_files/118278.got.cif
#   From: 2010.05.17/outbox.cif.g08.bks.cpg/sg15_60_cif.got.tgz:118278.got - 2010.06.03 18:47:42.
