data_PCOD9283211
_publ_section_title
;
Structure prediction by ZEFSAII (Michael W. Deem and Ramdas Pophale) SiO2 
 PCOD9283211
Probable space group: C 2/C
;
_chemical_formula_sum "Si O2"
_cell_formula_units_Z 28
_cell_length_a 8.902318
_cell_length_b 16.492470
_cell_length_c 8.822699
_cell_angle_alpha 90.000000
_cell_angle_beta 70.085313
_cell_angle_gamma 90.000000
_cell_volume 1217.897969
_symmetry_space_group_name_H-M "C 2/C"
_symmetry_group_IT_number 15
_symmetry_cell_setting 'monoclinic'
loop_
_space_group_symop_operation_xyz
x,y,z
-x,y,1/2-z
-x,-y,-z
x,-y,1/2+z
1/2+x,1/2+y,z
1/2-x,1/2+y,1/2-z
1/2-x,1/2-y,-z
1/2+x,1/2-y,1/2+z
loop_
_atom_site_type_symbol
_atom_site_label
_atom_site_fract_x
_atom_site_fract_y
_atom_site_fract_z
Si Si1 0.255517 0.476900 0.847646
Si Si2 0.500000 0.256910 0.250000
Si Si3 0.422967 0.605406 0.572003
Si Si4 0.307510 0.112490 0.413540
O O1 0.371043 0.530523 0.697783
O O2 0.157735 0.422715 0.765175
O O3 0.339503 0.417695 0.942022
O O4 0.159098 0.545585 0.970868
O O5 0.611926 0.313873 0.317663
O O6 0.392749 0.198357 0.391081
O O7 0.612985 0.615965 0.485304
#
# Coordination Sequence:
#
# PCOD9283211 Si02
#       4
#     8   4   8   8
#     4  10  21  39  69  78 106 149 209 219 269 329
#     4  12  26  32  58  86 130 138 176 234 308 310
#     4  11  20  38  62  88 103 152 191 241 261 336
#     4  11  21  39  58  87 111 151 185 237 270 344
#
# _framework density 22.990431000000001
#
# number of rings (size 3 to 8) (size 9 to 14) (size 15 to 20)
#    0.000    1.143    2.857    6.857    0.000    2.286 
#    0.000    0.000    0.000    0.000    0.000    0.000 
#    0.000    0.000    0.000    0.000    0.000    0.000 
#
# Total GULP energy -78143.635401 kJ/mol
# GULP energy per Si atom -5581.688243 kJ/mol
# Density = 2.293810 g / cm^3
# Si number density = 22.990431 Si / 1000 Ang^3
#
#
#
# Elastic Constant Matrix: (Units=GPa)
#
#
# Indices 1 2 3 4 5 6 
#
# 1 60.4465 38.9294 33.3062 0.0000 5.6182 0.0000
# 2 38.9294 149.8566 35.5580 0.0000 12.8400 0.0000
# 3 33.3062 35.5580 110.4340 0.0000 22.5303 0.0000
# 4 0.0000 0.0000 0.0000 49.8111 0.0000 -15.4766
# 5 5.6182 12.8400 22.5303 0.0000 44.3593 0.0000
# 6 0.0000 0.0000 0.0000 -15.4766 0.0000 39.9297
#
#
#
# Elastic Compliance Matrix: (Units=1/GPa)
#
#
# Indices 1 2 3 4 5 6 
#
# 1 0.022463 -0.004631 -0.005552 0.000000 0.001315 0.000000
# 2 -0.004631 0.008221 -0.000987 0.000000 -0.001292 0.000000
# 3 -0.005552 -0.000987 0.012099 0.000000 -0.005157 0.000000
# 4 0.000000 0.000000 0.000000 0.022825 0.000000 0.008847
# 5 0.001315 -0.001292 -0.005157 0.000000 0.025370 0.000000
# 6 0.000000 0.000000 0.000000 0.008847 0.000000 0.028473
#
#
# Mechanical properties :
#
#
# Convention : Reuss Voigt Hill
#
# Bulk Modulus (GPa) = 48.91403 59.59160 54.25281
# Shear Modulus (GPa) = 33.64656 41.01625 37.33141
#
# Velocity S-wave (km/s) = 3.82973 4.22839 4.03399
# Velocity P-wave (km/s) = 6.39357 7.05801 6.73399
#
# Compressibility (1/GPa) = 0.02044403
#
# Stress axis : x y z
#
# Youngs Moduli (GPa) = 44.51824 121.64223 82.64887
#
# Poissons Ratio (x) = 0.56328 0.45886
# Poissons Ratio (y) = 0.20615 0.08156
# Poissons Ratio (z) = 0.24716 0.12004
#
# Static dielectric constant tensor:
#      x y z
#    x 1.945560 0.000000 -0.084440 
#    y 0.000000 1.866490 0.000000 
#    z -0.084440 0.000000 1.963200 
# 
# From -- ./inp_files/27565.got.cif
#   From: 2010.05.17/outbox.cif.g08.bks.cpg/sg15_14_cif.got.tgz:27565.got - 2010.06.03 18:47:42.
