data_PCOD9283078
_publ_section_title
;
Structure prediction by ZEFSAII (Michael W. Deem and Ramdas Pophale) SiO2 
 PCOD9283078
Probable space group: C 2/C
;
_chemical_formula_sum "Si O2"
_cell_formula_units_Z 64
_cell_length_a 14.301091
_cell_length_b 25.768928
_cell_length_c 11.259871
_cell_angle_alpha 90.000000
_cell_angle_beta 135.593513
_cell_angle_gamma 90.000000
_cell_volume 2903.609858
_symmetry_space_group_name_H-M "C 2/C"
_symmetry_group_IT_number 15
_symmetry_cell_setting 'monoclinic'
loop_
_space_group_symop_operation_xyz
x,y,z
-x,y,1/2-z
-x,-y,-z
x,-y,1/2+z
1/2+x,1/2+y,z
1/2-x,1/2+y,1/2-z
1/2-x,1/2-y,-z
1/2+x,1/2-y,1/2+z
loop_
_atom_site_type_symbol
_atom_site_label
_atom_site_fract_x
_atom_site_fract_y
_atom_site_fract_z
Si Si1 0.064055 0.102945 0.175808
Si Si2 0.636648 0.135570 0.008354
Si Si3 0.068612 0.518539 0.935854
Si Si4 0.357821 0.281228 0.171717
Si Si5 0.702634 0.799997 0.336801
Si Si6 0.057715 0.260121 0.499202
Si Si7 0.153071 0.125319 0.701871
Si Si8 0.121389 0.011375 0.764516
O O1 0.212543 0.123867 0.317299
O O2 0.000000 0.107445 0.250000
O O3 0.071650 0.041226 0.154620
O O4 0.979638 0.132403 0.999516
O O5 0.575688 0.178578 0.037823
O O6 0.562872 0.081162 0.934857
O O7 0.643293 0.168442 0.893147
O O8 0.000000 0.500540 0.750000
O O9 0.226581 0.504815 0.060486
O O10 0.000000 0.500000 0.000000
O O11 0.500000 0.269076 0.250000
O O12 0.378955 0.264164 0.325667
O O13 0.341104 0.343275 0.169174
O O14 0.250000 0.250000 0.000000
O O15 0.840477 0.770229 0.496249
O O16 0.733445 0.847679 0.274044
O O17 0.595372 0.759621 0.182702
O O18 0.152469 0.064285 0.723449
O O19 0.000000 0.021299 0.750000
#
# Coordination Sequence:
#
# PCOD9283078 Si02
#       8
#     8   8   8   8   8   8   8   8
#     4  10  21  39  67 104 136 176 224 304 357 436
#     4  11  24  42  71 102 145 183 238 292 380 436
#     4  11  27  49  75 109 157 200 250 312 383 459
#     4  11  25  46  63  90 131 177 233 296 351 428
#     4  11  24  42  69 104 140 185 226 307 358 454
#     4  11  25  42  68  99 132 182 239 288 368 436
#     4  11  23  41  73  95 141 185 241 291 381 425
#     4  10  24  44  70 110 143 195 252 308 367 450
#
# _framework density 22.041529000000001
#
# number of rings (size 3 to 8) (size 9 to 14) (size 15 to 20)
#    0.000    1.250    1.250    3.750    8.750    2.000 
#    2.250    0.000    0.000    0.000    0.000    0.000 
#    0.000    0.000    0.000    0.000    0.000    0.000 
#
# Total GULP energy -178289.538105 kJ/mol
# GULP energy per Si atom -5571.548066 kJ/mol
# Density = 2.199136 g / cm^3
# Si number density = 22.041529 Si / 1000 Ang^3
#
#
#
# Elastic Constant Matrix: (Units=GPa)
#
#
# Indices 1 2 3 4 5 6 
#
# 1 48.7923 29.6168 20.1447 0.0000 7.0344 0.0000
# 2 29.6168 114.6351 54.3551 0.0000 6.3577 0.0000
# 3 20.1447 54.3551 114.3994 0.0000 9.5421 0.0000
# 4 0.0000 0.0000 0.0000 35.2080 0.0000 3.4854
# 5 7.0344 6.3577 9.5421 0.0000 33.4041 0.0000
# 6 0.0000 0.0000 0.0000 3.4854 0.0000 34.4657
#
#
#
# Elastic Compliance Matrix: (Units=1/GPa)
#
#
# Indices 1 2 3 4 5 6 
#
# 1 0.025018 -0.005569 -0.001443 0.000000 -0.003796 0.000000
# 2 -0.005569 0.012513 -0.004982 0.000000 0.000214 0.000000
# 3 -0.001443 -0.004982 0.011533 0.000000 -0.002042 0.000000
# 4 0.000000 0.000000 0.000000 0.028690 0.000000 -0.002901
# 5 -0.003796 0.000214 -0.002042 0.000000 0.031279 0.000000
# 6 0.000000 0.000000 0.000000 -0.002901 0.000000 0.029308
#
#
# Mechanical properties :
#
#
# Convention : Reuss Voigt Hill
#
# Bulk Modulus (GPa) = 39.87937 54.00665 46.94301
# Shear Modulus (GPa) = 29.29331 32.19624 30.74477
#
# Velocity S-wave (km/s) = 3.64951 3.82607 3.73883
# Velocity P-wave (km/s) = 5.99088 6.63881 6.32315
#
# Compressibility (1/GPa) = 0.02507562
#
# Stress axis : x y z
#
# Youngs Moduli (GPa) = 39.97050 79.91887 86.70734
#
# Poissons Ratio (x) = 0.44507 0.12510
# Poissons Ratio (y) = 0.22260 0.43201
# Poissons Ratio (z) = 0.05767 0.39819
#
# Static dielectric constant tensor:
#      x y z
#    x 1.882280 0.000000 0.088350 
#    y 0.000000 1.915520 0.000000 
#    z 0.088350 0.000000 1.790370 
# 
# From -- ./inp_files/101348.got.cif
#   From: 2010.05.17/outbox.cif.g08.bks.cpg/sg15_51_cif.got.tgz:101348.got - 2010.06.03 18:47:42.
