data_PCOD9283026
_publ_section_title
;
Structure prediction by ZEFSAII (Michael W. Deem and Ramdas Pophale) SiO2 
 PCOD9283026
Probable space group: C 2/C
;
_chemical_formula_sum "Si O2"
_cell_formula_units_Z 52
_cell_length_a 20.110874
_cell_length_b 8.466483
_cell_length_c 15.481250
_cell_angle_alpha 90.000000
_cell_angle_beta 76.077926
_cell_angle_gamma 90.000000
_cell_volume 2558.532700
_symmetry_space_group_name_H-M "C 2/C"
_symmetry_group_IT_number 15
_symmetry_cell_setting 'monoclinic'
loop_
_space_group_symop_operation_xyz
x,y,z
-x,y,1/2-z
-x,-y,-z
x,-y,1/2+z
1/2+x,1/2+y,z
1/2-x,1/2+y,1/2-z
1/2-x,1/2-y,-z
1/2+x,1/2-y,1/2+z
loop_
_atom_site_type_symbol
_atom_site_label
_atom_site_fract_x
_atom_site_fract_y
_atom_site_fract_z
Si Si1 0.047205 0.582284 0.867942
Si Si2 0.137044 0.342162 0.756367
Si Si3 0.500000 0.644183 0.750000
Si Si4 0.095731 0.425653 0.030974
Si Si5 0.774638 0.600893 0.435448
Si Si6 0.534637 0.547928 0.399700
Si Si7 0.659737 0.647755 0.915917
O O1 0.103037 0.513861 0.784997
O O2 0.046074 0.768198 0.882033
O O3 0.966045 0.548590 0.881725
O O4 0.067610 0.492875 0.949557
O O5 0.194550 0.342529 0.665520
O O6 0.170921 0.274209 0.834567
O O7 0.069153 0.243485 0.747692
O O8 0.507406 0.533152 0.664122
O O9 0.161449 0.522925 0.036379
O O10 0.119773 0.246584 0.003028
O O11 0.750000 0.750000 0.500000
O O12 0.720018 0.460067 0.435338
O O13 0.500000 0.500000 0.500000
O O14 0.609024 0.471981 0.384329
#
# Coordination Sequence:
#
# PCOD9283026 Si02
#       7
#     8   8   4   8   8   8   8
#     4  10  21  40  68  95 127 166 215 279 340 385
#     4  10  24  43  63  91 132 172 222 274 328 398
#     4  10  24  40  64 100 130 170 222 288 334 390
#     4  10  21  39  66  95 125 165 218 270 328 401
#     4  12  26  40  64  94 129 180 224 266 328 402
#     4  11  22  40  69  99 136 167 217 279 343 398
#     4  10  23  43  61  93 132 173 210 273 334 400
#
# _framework density 20.324148000000001
#
# number of rings (size 3 to 8) (size 9 to 14) (size 15 to 20)
#    0.000    1.538    1.538    2.308    6.462    5.538 
#    0.000    3.077    0.000    0.000    0.000    0.000 
#    0.000    0.000    0.000    0.000    0.000    0.000 
#
# Total GULP energy -144990.677235 kJ/mol
# GULP energy per Si atom -5576.564509 kJ/mol
# Density = 2.027789 g / cm^3
# Si number density = 20.324148 Si / 1000 Ang^3
#
#
#
# Elastic Constant Matrix: (Units=GPa)
#
#
# Indices 1 2 3 4 5 6 
#
# 1 144.5517 53.4836 39.0149 0.0000 -55.2427 0.0000
# 2 53.4836 132.0046 35.7039 0.0000 -31.2741 0.0000
# 3 39.0149 35.7039 104.8624 0.0000 -42.6059 0.0000
# 4 0.0000 0.0000 0.0000 44.2168 0.0000 -4.4281
# 5 -55.2427 -31.2741 -42.6059 0.0000 93.9839 0.0000
# 6 0.0000 0.0000 0.0000 -4.4281 0.0000 27.1386
#
#
#
# Elastic Compliance Matrix: (Units=1/GPa)
#
#
# Indices 1 2 3 4 5 6 
#
# 1 0.009880 -0.002686 -0.000938 0.000000 0.004489 0.000000
# 2 -0.002686 0.009337 -0.001911 0.000000 0.000662 0.000000
# 3 -0.000938 -0.001911 0.012323 0.000000 0.004400 0.000000
# 4 0.000000 0.000000 0.000000 0.022992 0.000000 0.003751
# 5 0.004489 0.000662 0.004400 0.000000 0.015493 0.000000
# 6 0.000000 0.000000 0.000000 0.003751 0.000000 0.037460
#
#
# Mechanical properties :
#
#
# Convention : Reuss Voigt Hill
#
# Bulk Modulus (GPa) = 48.84798 70.86929 59.85864
# Shear Modulus (GPa) = 39.87904 49.94895 44.91400
#
# Velocity S-wave (km/s) = 4.43442 4.96281 4.70604
# Velocity P-wave (km/s) = 7.09263 8.23314 7.68407
#
# Compressibility (1/GPa) = 0.02047167
#
# Stress axis : x y z
#
# Youngs Moduli (GPa) = 101.21194 107.09506 81.14669
#
# Poissons Ratio (x) = 0.28767 0.07609
# Poissons Ratio (y) = 0.27186 0.15506
# Poissons Ratio (z) = 0.09491 0.20465
#
# Static dielectric constant tensor:
#      x y z
#    x 1.720220 0.000000 -0.018280 
#    y 0.000000 1.778400 0.000000 
#    z -0.018280 0.000000 1.781710 
# 
# From -- ./inp_files/166225.got.cif
#   From: 2010.05.17/outbox.cif.g08.bks.cpg/sg15_84_cif.got.tgz:166225.got - 2010.06.03 18:47:42.
