data_PCOD9283595
_publ_section_title
;
Structure prediction by ZEFSAII (Michael W. Deem and Ramdas Pophale) SiO2 
 PCOD9283595
Probable space group: C 2/C
;
_chemical_formula_sum "Si O2"
_cell_formula_units_Z 60
_cell_length_a 26.277325
_cell_length_b 8.763945
_cell_length_c 14.196207
_cell_angle_alpha 90.000000
_cell_angle_beta 111.419776
_cell_angle_gamma 90.000000
_cell_volume 3043.477263
_symmetry_space_group_name_H-M "C 2/C"
_symmetry_group_IT_number 15
_symmetry_cell_setting 'monoclinic'
loop_
_space_group_symop_operation_xyz
x,y,z
-x,y,1/2-z
-x,-y,-z
x,-y,1/2+z
1/2+x,1/2+y,z
1/2-x,1/2+y,1/2-z
1/2-x,1/2-y,-z
1/2+x,1/2-y,1/2+z
loop_
_atom_site_type_symbol
_atom_site_label
_atom_site_fract_x
_atom_site_fract_y
_atom_site_fract_z
Si Si1 0.538501 0.435631 0.608465
Si Si2 0.865625 0.533659 0.724375
Si Si3 0.748165 0.123721 0.356324
Si Si4 0.100120 0.672499 0.413623
Si Si5 0.842190 0.119922 0.265582
Si Si6 0.500000 0.349531 0.250000
Si Si7 0.803043 0.099511 0.576621
Si Si8 0.049142 0.404481 0.075416
O O1 0.500000 0.500000 0.500000
O O2 0.604365 0.443208 0.643493
O O3 0.525203 0.537742 0.689462
O O4 0.528051 0.253363 0.607748
O O5 0.810188 0.444621 0.711841
O O6 0.882885 0.479039 0.632233
O O7 0.855369 0.711457 0.735895
O O8 0.916067 0.497332 0.827418
O O9 0.791280 0.122294 0.301892
O O10 0.771274 0.035824 0.464243
O O11 0.737165 0.293444 0.388939
O O12 0.149286 0.791494 0.431630
O O13 0.087864 0.641889 0.514100
O O14 0.046266 0.746105 0.330093
O O15 0.828772 0.019234 0.165594
O O16 0.000000 0.500000 0.000000
#
# Coordination Sequence:
#
# PCOD9283595 Si02
#       8
#     8   8   8   8   8   4   8   8
#     4  11  24  39  64  97 125 165 219 262 320 382
#     4  10  24  40  62  97 126 168 216 268 322 393
#     4  10  22  39  64  90 125 169 215 262 326 384
#     4  11  22  42  65  88 129 173 210 267 334 387
#     4  11  22  40  62  92 129 161 215 271 314 381
#     4  12  22  40  70  94 128 170 216 276 316 392
#     4  10  21  40  63  88 121 172 214 260 329 384
#     4  11  24  43  66  92 132 172 212 267 327 389
#
# _framework density 19.714290999999999
#
# number of rings (size 3 to 8) (size 9 to 14) (size 15 to 20)
#    0.000    1.333    2.667    3.200    0.000    4.800 
#    0.000    2.667    0.000    0.000    0.000    0.000 
#    0.000    0.000    0.000    0.000    0.000    0.000 
#
# Total GULP energy -167564.674816 kJ/mol
# GULP energy per Si atom -5585.489161 kJ/mol
# Density = 1.966942 g / cm^3
# Si number density = 19.714291 Si / 1000 Ang^3
#
#
#
# Elastic Constant Matrix: (Units=GPa)
#
#
# Indices 1 2 3 4 5 6 
#
# 1 71.9316 21.1727 -1.1471 0.0000 -0.4651 0.0000
# 2 21.1727 48.1740 18.2202 0.0000 -0.4645 0.0000
# 3 -1.1471 18.2202 62.4097 0.0000 10.8241 0.0000
# 4 0.0000 0.0000 0.0000 38.3925 0.0000 2.4511
# 5 -0.4651 -0.4645 10.8241 0.0000 45.6871 0.0000
# 6 0.0000 0.0000 0.0000 2.4511 0.0000 22.4702
#
#
#
# Elastic Compliance Matrix: (Units=1/GPa)
#
#
# Indices 1 2 3 4 5 6 
#
# 1 0.016377 -0.008269 0.002816 0.000000 -0.000585 0.000000
# 2 -0.008269 0.027674 -0.008620 0.000000 0.002239 0.000000
# 3 0.002816 -0.008620 0.019399 0.000000 -0.004655 0.000000
# 4 0.000000 0.000000 0.000000 0.026229 0.000000 -0.002861
# 5 -0.000585 0.002239 -0.004655 0.000000 0.023008 0.000000
# 6 0.000000 0.000000 0.000000 -0.002861 0.000000 0.044816
#
#
# Mechanical properties :
#
#
# Convention : Reuss Voigt Hill
#
# Bulk Modulus (GPa) = 28.32390 28.77857 28.55124
# Shear Modulus (GPa) = 25.32741 30.92791 28.12766
#
# Velocity S-wave (km/s) = 3.58819 3.96511 3.78135
# Velocity P-wave (km/s) = 5.61829 5.96593 5.79472
#
# Compressibility (1/GPa) = 0.03530587
#
# Stress axis : x y z
#
# Youngs Moduli (GPa) = 61.06108 36.13520 51.54983
#
# Poissons Ratio (x) = 0.29879 -0.14518
# Poissons Ratio (y) = 0.50489 0.44434
# Poissons Ratio (z) = -0.17197 0.31147
#
# Static dielectric constant tensor:
#      x y z
#    x 1.548220 0.000000 -0.087780 
#    y 0.000000 1.683400 0.000000 
#    z -0.087780 0.000000 1.603170 
# 
# From -- ./inp_files/172419.got.cif
#   From: 2010.05.17/outbox.cif.g08.bks.cpg/sg15_87_cif.got.tgz:172419.got - 2010.06.03 18:47:42.
