data_PCOD9283165
_publ_section_title
;
Structure prediction by ZEFSAII (Michael W. Deem and Ramdas Pophale) SiO2 
 PCOD9283165
Probable space group: C 2/C
;
_chemical_formula_sum "Si O2"
_cell_formula_units_Z 32
_cell_length_a 5.339186
_cell_length_b 26.911215
_cell_length_c 11.885524
_cell_angle_alpha 90.000000
_cell_angle_beta 118.177362
_cell_angle_gamma 90.000000
_cell_volume 1505.373008
_symmetry_space_group_name_H-M "C 2/C"
_symmetry_group_IT_number 15
_symmetry_cell_setting 'monoclinic'
loop_
_space_group_symop_operation_xyz
x,y,z
-x,y,1/2-z
-x,-y,-z
x,-y,1/2+z
1/2+x,1/2+y,z
1/2-x,1/2+y,1/2-z
1/2-x,1/2-y,-z
1/2+x,1/2-y,1/2+z
loop_
_atom_site_type_symbol
_atom_site_label
_atom_site_fract_x
_atom_site_fract_y
_atom_site_fract_z
Si Si1 0.685974 0.852124 0.885094
Si Si2 0.500000 0.017239 0.750000
Si Si3 0.500000 0.548830 0.250000
Si Si4 0.237821 0.306169 0.537042
Si Si5 0.186372 0.094330 0.525125
O O1 0.500000 0.877592 0.750000
O O2 0.487621 0.815549 0.912927
O O3 0.932903 0.821041 0.874509
O O4 0.862742 0.892286 0.994843
O O5 0.345713 0.052270 0.625642
O O6 0.251882 0.984794 0.753244
O O7 0.636676 0.579700 0.383200
O O8 0.250000 0.250000 0.500000
O O9 0.161343 0.351756 0.435623
#
# Coordination Sequence:
#
# PCOD9283165 Si02
#       5
#     8   4   4   8   8
#     4  10  21  39  68  94 133 171 224 262 329 397
#     4  12  28  44  65 104 133 178 224 294 352 384
#     4  12  26  44  71  94 133 180 238 272 342 412
#     4  10  22  40  66  98 136 170 220 271 337 397
#     4  10  26  43  71  96 139 171 228 281 335 404
#
# _framework density 21.257189
#
# number of rings (size 3 to 8) (size 9 to 14) (size 15 to 20)
#    1.500    0.000    0.000    4.500    8.750    0.000 
#    4.500    0.000    0.000    0.000    0.000    0.000 
#    0.000    0.000    0.000    0.000    0.000    0.000 
#
# Total GULP energy -89085.988219 kJ/mol
# GULP energy per Si atom -5567.874264 kJ/mol
# Density = 2.120881 g / cm^3
# Si number density = 21.257189 Si / 1000 Ang^3
#
#
#
# Elastic Constant Matrix: (Units=GPa)
#
#
# Indices 1 2 3 4 5 6 
#
# 1 168.6557 67.5675 33.7014 0.0000 -2.7990 0.0000
# 2 67.5675 173.4520 56.8264 0.0000 -3.1646 0.0000
# 3 33.7014 56.8264 83.5077 0.0000 5.4210 0.0000
# 4 0.0000 0.0000 0.0000 19.0543 0.0000 -7.6199
# 5 -2.7990 -3.1646 5.4210 0.0000 24.1160 0.0000
# 6 0.0000 0.0000 0.0000 -7.6199 0.0000 37.8327
#
#
#
# Elastic Compliance Matrix: (Units=1/GPa)
#
#
# Indices 1 2 3 4 5 6 
#
# 1 0.007145 -0.002324 -0.001356 0.000000 0.000829 0.000000
# 2 -0.002324 0.008286 -0.004824 0.000000 0.001902 0.000000
# 3 -0.001356 -0.004824 0.016091 0.000000 -0.004407 0.000000
# 4 0.000000 0.000000 0.000000 0.057079 0.000000 0.011496
# 5 0.000829 0.001902 -0.004407 0.000000 0.042803 0.000000
# 6 0.000000 0.000000 0.000000 0.011496 0.000000 0.028748
#
#
# Mechanical properties :
#
#
# Convention : Reuss Voigt Hill
#
# Bulk Modulus (GPa) = 68.89900 82.42289 75.66094
# Shear Modulus (GPa) = 27.47302 34.03527 30.75414
#
# Velocity S-wave (km/s) = 3.59891 4.00574 3.80776
# Velocity P-wave (km/s) = 7.05351 7.76227 7.41636
#
# Compressibility (1/GPa) = 0.01451400
#
# Stress axis : x y z
#
# Youngs Moduli (GPa) = 139.95869 120.69003 62.14686
#
# Poissons Ratio (x) = 0.28048 0.08427
# Poissons Ratio (y) = 0.32526 0.29979
# Poissons Ratio (z) = 0.18977 0.58220
#
# Static dielectric constant tensor:
#      x y z
#    x 1.841630 0.000000 0.006320 
#    y 0.000000 1.786500 0.000000 
#    z 0.006320 0.000000 1.786120 
# 
# From -- ./inp_files/72871.got.cif
#   From: 2010.05.17/outbox.cif.g08.bks.cpg/sg15_37_cif.got.tgz:72871.got - 2010.06.03 18:47:42.
