data_PCOD9283645
_publ_section_title
;
Structure prediction by ZEFSAII (Michael W. Deem and Ramdas Pophale) SiO2 
 PCOD9283645
Probable space group: C 2/C
;
_chemical_formula_sum "Si O2"
_cell_formula_units_Z 52
_cell_length_a 11.324870
_cell_length_b 17.169351
_cell_length_c 13.674039
_cell_angle_alpha 90.000000
_cell_angle_beta 72.496679
_cell_angle_gamma 90.000000
_cell_volume 2535.686057
_symmetry_space_group_name_H-M "C 2/C"
_symmetry_group_IT_number 15
_symmetry_cell_setting 'monoclinic'
loop_
_space_group_symop_operation_xyz
x,y,z
-x,y,1/2-z
-x,-y,-z
x,-y,1/2+z
1/2+x,1/2+y,z
1/2-x,1/2+y,1/2-z
1/2-x,1/2-y,-z
1/2+x,1/2-y,1/2+z
loop_
_atom_site_type_symbol
_atom_site_label
_atom_site_fract_x
_atom_site_fract_y
_atom_site_fract_z
Si Si1 0.052278 0.441519 0.628578
Si Si2 0.301326 0.337962 0.900226
Si Si3 0.905155 0.738802 0.366586
Si Si4 0.686953 0.991314 0.930249
Si Si5 0.500000 0.228481 0.750000
Si Si6 0.371256 0.296472 0.097924
Si Si7 0.285195 0.844465 0.182612
O O1 0.101310 0.352942 0.612139
O O2 0.157047 0.495640 0.552704
O O3 0.000000 0.459129 0.750000
O O4 0.935202 0.453480 0.587181
O O5 0.293105 0.428917 0.880896
O O6 0.408925 0.285968 0.829033
O O7 0.180690 0.292448 0.889779
O O8 0.317430 0.330435 0.011954
O O9 0.775373 0.778193 0.371551
O O10 0.000000 0.744668 0.250000
O O11 0.981540 0.787372 0.428649
O O12 0.709010 0.074297 0.874662
O O13 0.581802 0.178291 0.805184
O O14 0.308967 0.343525 0.201922
#
# Coordination Sequence:
#
# PCOD9283645 Si02
#       7
#     8   8   8   8   4   8   8
#     4  10  23  38  65  90 128 160 215 259 321 361
#     4  10  21  40  63  91 128 166 209 257 310 373
#     4   9  18  40  63  89 116 170 206 252 301 384
#     4  11  24  39  62 101 125 160 207 280 305 369
#     4  10  24  42  60  92 124 180 202 250 308 392
#     4   9  19  39  68  84 121 173 213 246 312 380
#     4  10  23  39  65  92 126 156 217 256 310 370
#
# _framework density 20.507270999999999
#
# number of rings (size 3 to 8) (size 9 to 14) (size 15 to 20)
#    0.000    2.154    1.538    0.000    7.538    3.077 
#    4.154    0.769    0.000    0.000    0.000    0.000 
#    0.000    0.000    0.000    0.000    0.000    0.000 
#
# Total GULP energy -145038.338220 kJ/mol
# GULP energy per Si atom -5578.397624 kJ/mol
# Density = 2.046060 g / cm^3
# Si number density = 20.507271 Si / 1000 Ang^3
#
#
#
# Elastic Constant Matrix: (Units=GPa)
#
#
# Indices 1 2 3 4 5 6 
#
# 1 83.2424 30.4859 6.8493 0.0000 7.2504 0.0000
# 2 30.4859 122.7151 43.4511 0.0000 9.3262 0.0000
# 3 6.8493 43.4511 75.1761 0.0000 5.8054 0.0000
# 4 0.0000 0.0000 0.0000 -1.5239 0.0000 6.9954
# 5 7.2504 9.3262 5.8054 0.0000 3.7656 0.0000
# 6 0.0000 0.0000 0.0000 6.9954 0.0000 19.7646
#
#
#
# Elastic Compliance Matrix: (Units=1/GPa)
#
#
# Indices 1 2 3 4 5 6 
#
# 1 0.015015 -0.002494 0.002076 0.000000 -0.025933 0.000000
# 2 -0.002494 0.011928 -0.005399 0.000000 -0.016415 0.000000
# 3 0.002076 -0.005399 0.017606 0.000000 -0.017768 0.000000
# 4 0.000000 0.000000 0.000000 -0.250014 0.000000 0.088489
# 5 -0.025933 -0.016415 -0.017768 0.000000 0.383538 0.000000
# 6 0.000000 0.000000 0.000000 0.088489 0.000000 0.019276
#
#
# Mechanical properties :
#
#
# Convention : Reuss Voigt Hill
#
# Bulk Modulus (GPa) = 30.38268 49.18961 39.78615
# Shear Modulus (GPa) = 22.73192 17.75776 20.24484
#
# Velocity S-wave (km/s) = 3.33300 2.94585 3.14539
# Velocity P-wave (km/s) = 5.44606 5.96735 5.71265
#
# Compressibility (1/GPa) = 0.03291349
#
# Stress axis : x y z
#
# Youngs Moduli (GPa) = 66.60227 83.83668 56.79938
#
# Poissons Ratio (x) = 0.20912 -0.11794
# Poissons Ratio (y) = 0.16613 0.30668
# Poissons Ratio (z) = -0.13829 0.45267
#
# Static dielectric constant tensor:
#      x y z
#    x 1.778640 0.000000 -0.008910 
#    y 0.000000 1.723510 0.000000 
#    z -0.008910 0.000000 1.819820 
# 
# From -- ./inp_files/144167.got.cif
#   From: 2010.05.17/outbox.cif.g08.bks.cpg/sg15_73_cif.got.tgz:144167.got - 2010.06.03 18:47:42.
