data_PCOD9283088
_publ_section_title
;
Structure prediction by ZEFSAII (Michael W. Deem and Ramdas Pophale) SiO2 
 PCOD9283088
Probable space group: C 2/C
;
_chemical_formula_sum "Si O2"
_cell_formula_units_Z 44
_cell_length_a 5.188930
_cell_length_b 13.314727
_cell_length_c 33.836645
_cell_angle_alpha 90.000000
_cell_angle_beta 73.397048
_cell_angle_gamma 90.000000
_cell_volume 2240.280614
_symmetry_space_group_name_H-M "C 2/C"
_symmetry_group_IT_number 15
_symmetry_cell_setting 'monoclinic'
loop_
_space_group_symop_operation_xyz
x,y,z
-x,y,1/2-z
-x,-y,-z
x,-y,1/2+z
1/2+x,1/2+y,z
1/2-x,1/2+y,1/2-z
1/2-x,1/2-y,-z
1/2+x,1/2-y,1/2+z
loop_
_atom_site_type_symbol
_atom_site_label
_atom_site_fract_x
_atom_site_fract_y
_atom_site_fract_z
Si Si1 0.397093 0.497601 0.854224
Si Si2 0.955166 0.179147 0.205084
Si Si3 0.715215 0.865936 0.512228
Si Si4 0.000000 0.554705 0.250000
Si Si5 0.989377 0.411517 0.316733
Si Si6 0.867217 0.043547 0.448021
O O1 0.377596 0.393243 0.830754
O O2 0.677734 0.554031 0.831386
O O3 0.396342 0.475836 0.900498
O O4 0.146030 0.562521 0.849948
O O5 0.659850 0.130833 0.214803
O O6 0.000000 0.166197 0.250000
O O7 0.985893 0.294345 0.193197
O O8 0.750000 0.750000 0.500000
O O9 0.403983 0.893958 0.531716
O O10 0.882590 0.897888 0.543732
O O11 0.831292 0.937882 0.472577
O O12 0.869276 0.475852 0.224800
#
# Coordination Sequence:
#
# PCOD9283088 Si02
#       6
#     8   8   8   4   8   8
#     4  11  25  41  59  91 124 156 201 256 301 355
#     4  11  23  38  61  82 116 158 202 249 305 353
#     4  10  21  39  67  91 121 162 198 240 302 370
#     4  10  22  38  58  80 114 148 206 246 298 350
#     4  11  24  38  60  84 114 159 200 246 298 355
#     4  10  22  40  61  92 126 155 199 248 298 363
#
# _framework density 19.640397
#
# number of rings (size 3 to 8) (size 9 to 14) (size 15 to 20)
#    0.000    1.455    2.727    1.636    2.545    2.909 
#    0.000    0.000    0.000    0.000    0.000    0.000 
#    0.000    0.000    0.000    0.000    0.000    0.000 
#
# Total GULP energy -122746.324028 kJ/mol
# GULP energy per Si atom -5579.378365 kJ/mol
# Density = 1.959569 g / cm^3
# Si number density = 19.640397 Si / 1000 Ang^3
#
#
#
# Elastic Constant Matrix: (Units=GPa)
#
#
# Indices 1 2 3 4 5 6 
#
# 1 57.8493 35.4628 -3.7899 0.0000 24.2968 0.0000
# 2 35.4628 165.8238 42.9448 0.0000 5.5943 0.0000
# 3 -3.7899 42.9448 110.2964 0.0000 31.3438 0.0000
# 4 0.0000 0.0000 0.0000 10.6188 0.0000 0.8281
# 5 24.2968 5.5943 31.3438 0.0000 32.0596 0.0000
# 6 0.0000 0.0000 0.0000 0.8281 0.0000 17.1202
#
#
#
# Elastic Compliance Matrix: (Units=1/GPa)
#
#
# Indices 1 2 3 4 5 6 
#
# 1 0.060057 -0.018024 0.029248 0.000000 -0.070965 0.000000
# 2 -0.018024 0.012202 -0.011974 0.000000 0.023237 0.000000
# 3 0.029248 -0.011974 0.028302 0.000000 -0.047747 0.000000
# 4 0.000000 0.000000 0.000000 0.094529 0.000000 -0.004572
# 5 -0.070965 0.023237 -0.047747 0.000000 0.127600 0.000000
# 6 0.000000 0.000000 0.000000 -0.004572 0.000000 0.058632
#
#
# Mechanical properties :
#
#
# Convention : Reuss Voigt Hill
#
# Bulk Modulus (GPa) = 10.09470 53.68943 31.89206
# Shear Modulus (GPa) = 12.02377 29.24986 20.63681
#
# Velocity S-wave (km/s) = 2.47694 3.86329 3.24502
# Velocity P-wave (km/s) = 3.65120 6.87718 5.50576
#
# Compressibility (1/GPa) = 0.09906191
#
# Stress axis : x y z
#
# Youngs Moduli (GPa) = 16.65078 81.95259 35.33287
#
# Poissons Ratio (x) = 1.47714 -1.03343
# Poissons Ratio (y) = 0.30012 0.42307
# Poissons Ratio (z) = -0.48701 0.98129
#
# Static dielectric constant tensor:
#      x y z
#    x 1.801040 0.000000 -0.005290 
#    y 0.000000 1.641840 0.000000 
#    z -0.005290 0.000000 1.687770 
# 
# From -- ./inp_files/304925.got.cif
#   From: 2010.05.17/outbox.cif.g08.bks.cpg/sg15_153_cif.got.tgz:304925.got - 2010.06.03 18:47:42.
