data_PCOD9283458
_publ_section_title
;
Structure prediction by ZEFSAII (Michael W. Deem and Ramdas Pophale) SiO2 
 PCOD9283458
Probable space group: C 2/C
;
_chemical_formula_sum "Si O2"
_cell_formula_units_Z 44
_cell_length_a 15.575500
_cell_length_b 11.280313
_cell_length_c 29.623419
_cell_angle_alpha 90.000000
_cell_angle_beta 158.742835
_cell_angle_gamma 90.000000
_cell_volume 1886.999267
_symmetry_space_group_name_H-M "C 2/C"
_symmetry_group_IT_number 15
_symmetry_cell_setting 'monoclinic'
loop_
_space_group_symop_operation_xyz
x,y,z
-x,y,1/2-z
-x,-y,-z
x,-y,1/2+z
1/2+x,1/2+y,z
1/2-x,1/2+y,1/2-z
1/2-x,1/2-y,-z
1/2+x,1/2-y,1/2+z
loop_
_atom_site_type_symbol
_atom_site_label
_atom_site_fract_x
_atom_site_fract_y
_atom_site_fract_z
Si Si1 0.762621 0.067676 0.699007
Si Si2 0.261717 0.173715 0.163870
Si Si3 0.990725 0.844473 0.091925
Si Si4 0.500000 0.377097 0.750000
Si Si5 0.985952 0.412384 0.626123
Si Si6 0.760041 0.147710 0.877070
O O1 0.721351 0.184636 0.649654
O O2 0.938675 0.108172 0.824757
O O3 0.542706 0.018406 0.620331
O O4 0.877159 0.961928 0.726297
O O5 0.500000 0.165310 0.250000
O O6 0.314310 0.118322 0.239128
O O7 0.014689 0.120686 0.024325
O O8 0.951511 0.703904 0.078104
O O9 0.185348 0.853706 0.149276
O O10 0.756339 0.917185 0.964745
O O11 0.693042 0.280952 0.861556
O O12 0.500000 0.085199 0.750000
#
# Coordination Sequence:
#
# PCOD9283458 Si02
#       6
#     8   8   8   4   8   8
#     4  11  23  38  64 101 124 164 213 273 319 381
#     4  11  22  40  69  95 127 173 215 257 322 389
#     4  10  21  40  63  91 131 173 206 264 328 377
#     4  10  22  38  62  96 126 160 212 278 310 372
#     4  10  21  40  61  94 133 165 213 265 320 383
#     4  10  22  42  64  91 131 167 212 264 320 372
#
# _framework density 23.317444999999999
#
# number of rings (size 3 to 8) (size 9 to 14) (size 15 to 20)
#    0.545    1.091    4.545    0.000    2.545    0.727 
#    3.273    4.545    0.000    0.000    0.000    0.000 
#    0.000    0.000    0.000    0.000    0.000    0.000 
#
# Total GULP energy -122701.137435 kJ/mol
# GULP energy per Si atom -5577.324429 kJ/mol
# Density = 2.326437 g / cm^3
# Si number density = 23.317445 Si / 1000 Ang^3
#
#
#
# Elastic Constant Matrix: (Units=GPa)
#
#
# Indices 1 2 3 4 5 6 
#
# 1 87.4102 23.2185 38.0716 -0.0004 33.3664 0.0011
# 2 23.2185 131.5100 21.8587 -0.0025 15.3206 0.0011
# 3 38.0716 21.8587 156.7303 -0.0005 18.3891 0.0072
# 4 -0.0004 -0.0025 -0.0005 6.8199 -0.0038 -3.9330
# 5 33.3664 15.3206 18.3891 -0.0038 35.8541 -0.0023
# 6 0.0011 0.0011 0.0072 -3.9330 -0.0023 22.9335
#
#
#
# Elastic Compliance Matrix: (Units=1/GPa)
#
#
# Indices 1 2 3 4 5 6 
#
# 1 0.018874 -0.001064 -0.002584 -0.000010 -0.015784 -0.000003
# 2 -0.001064 0.008148 -0.000623 0.000002 -0.002172 0.000000
# 3 -0.002584 -0.000623 0.007216 -0.000002 -0.001030 -0.000003
# 4 -0.000010 0.000002 -0.000002 0.162722 0.000029 0.027907
# 5 -0.015784 -0.002172 -0.001030 0.000029 0.044036 0.000011
# 6 -0.000003 0.000000 -0.000003 0.027907 0.000011 0.048390
#
#
# Mechanical properties :
#
#
# Convention : Reuss Voigt Hill
#
# Bulk Modulus (GPa) = 38.91760 60.21646 49.56703
# Shear Modulus (GPa) = 16.31351 32.62161 24.46756
#
# Velocity S-wave (km/s) = 2.64792 3.74441 3.24284
# Velocity P-wave (km/s) = 5.10639 6.67644 5.94348
#
# Compressibility (1/GPa) = 0.02569531
#
# Stress axis : x y z
#
# Youngs Moduli (GPa) = 52.98395 122.72283 138.58352
#
# Poissons Ratio (x) = 0.13056 0.35814
# Poissons Ratio (y) = 0.05637 0.08636
# Poissons Ratio (z) = 0.13693 0.07648
#
# Static dielectric constant tensor:
#      x y z
#    x 1.833520 0.000000 0.018280 
#    y 0.000000 1.917810 0.000000 
#    z 0.018280 0.000000 1.951480 
# 
# From -- ./inp_files/314014.got.cif
#   From: 2010.05.17/outbox.cif.g08.bks.cpg/sg15_158_cif.got.tgz:314014.got - 2010.06.03 18:47:42.
