data_PCOD9283686
_publ_section_title
;
Structure prediction by ZEFSAII (Michael W. Deem and Ramdas Pophale) SiO2 
 PCOD9283686
Probable space group: C 2/C
;
_chemical_formula_sum "Si O2"
_cell_formula_units_Z 48
_cell_length_a 14.938358
_cell_length_b 18.475196
_cell_length_c 8.811476
_cell_angle_alpha 90.000000
_cell_angle_beta 107.134063
_cell_angle_gamma 90.000000
_cell_volume 2323.940036
_symmetry_space_group_name_H-M "C 2/C"
_symmetry_group_IT_number 15
_symmetry_cell_setting 'monoclinic'
loop_
_space_group_symop_operation_xyz
x,y,z
-x,y,1/2-z
-x,-y,-z
x,-y,1/2+z
1/2+x,1/2+y,z
1/2-x,1/2+y,1/2-z
1/2-x,1/2-y,-z
1/2+x,1/2-y,1/2+z
loop_
_atom_site_type_symbol
_atom_site_label
_atom_site_fract_x
_atom_site_fract_y
_atom_site_fract_z
Si Si1 0.041392 0.281591 0.530183
Si Si2 0.186261 0.549248 0.331221
Si Si3 0.399660 0.568120 0.408999
Si Si4 0.500000 0.321161 0.750000
Si Si5 0.652593 0.787836 0.895383
Si Si6 0.500000 0.449240 0.250000
Si Si7 0.579018 0.055100 0.980061
O O1 0.054183 0.226309 0.400249
O O2 0.117407 0.272451 0.704165
O O3 0.043755 0.362836 0.462264
O O4 0.937568 0.269767 0.547325
O O5 0.296301 0.542884 0.397373
O O6 0.160954 0.624374 0.402493
O O7 0.161636 0.557588 0.143856
O O8 0.124795 0.482170 0.357711
O O9 0.423829 0.631589 0.303736
O O10 0.442397 0.500502 0.336327
O O11 0.440540 0.591996 0.593993
O O12 0.750000 0.750000 0.000000
O O13 0.500000 0.000000 0.000000
#
# Coordination Sequence:
#
# PCOD9283686 Si02
#       7
#     8   8   8   4   8   4   8
#     4  10  23  41  62  94 131 174 214 268 333 395
#     4  11  22  37  62  93 122 161 214 267 316 391
#     4  10  21  40  63  96 126 168 218 271 330 389
#     4  11  24  40  64  90 137 174 216 270 335 396
#     4  10  21  41  64  89 125 169 221 264 327 399
#     4   9  20  40  66  88 127 168 216 278 329 384
#     4  11  22  39  64  92 126 168 212 263 325 384
#
# _framework density 20.654578999999998
#
# number of rings (size 3 to 8) (size 9 to 14) (size 15 to 20)
#    0.000    1.667    1.667    2.500    2.333    2.667 
#    0.000   10.833    0.000    0.000    0.000    0.000 
#    0.000    0.000    0.000    0.000    0.000    0.000 
#
# Total GULP energy -133786.342877 kJ/mol
# GULP energy per Si atom -5574.430953 kJ/mol
# Density = 2.060757 g / cm^3
# Si number density = 20.654579 Si / 1000 Ang^3
#
#
#
# Elastic Constant Matrix: (Units=GPa)
#
#
# Indices 1 2 3 4 5 6 
#
# 1 86.0328 15.1001 44.0562 0.0000 5.7356 0.0000
# 2 15.1001 75.2147 30.9307 0.0000 -2.9250 0.0000
# 3 44.0562 30.9307 109.5933 0.0000 -3.8516 0.0000
# 4 0.0000 0.0000 0.0000 45.4204 0.0000 -68.4341
# 5 5.7356 -2.9250 -3.8516 0.0000 28.9328 0.0000
# 6 0.0000 0.0000 0.0000 -68.4341 0.0000 444.0629
#
#
#
# Elastic Compliance Matrix: (Units=1/GPa)
#
#
# Indices 1 2 3 4 5 6 
#
# 1 0.015076 -0.000711 -0.005995 0.000000 -0.003859 0.000000
# 2 -0.000711 0.015101 -0.003936 0.000000 0.001144 0.000000
# 3 -0.005995 -0.003936 0.012733 0.000000 0.002486 0.000000
# 4 0.000000 0.000000 0.000000 0.028675 0.000000 0.004419
# 5 -0.003859 0.001144 0.002486 0.000000 0.035774 0.000000
# 6 0.000000 0.000000 0.000000 0.004419 0.000000 0.002933
#
#
# Mechanical properties :
#
#
# Convention : Reuss Voigt Hill
#
# Bulk Modulus (GPa) = 46.24294 50.11276 48.17785
# Shear Modulus (GPa) = 36.02707 115.73346 75.88026
#
# Velocity S-wave (km/s) = 4.18097 7.49363 6.06774
# Velocity P-wave (km/s) = 6.76348 9.95930 8.51270
#
# Compressibility (1/GPa) = 0.02162492
#
# Stress axis : x y z
#
# Youngs Moduli (GPa) = 66.33219 66.22032 78.53663
#
# Poissons Ratio (x) = 0.04710 0.47085
# Poissons Ratio (y) = 0.04718 0.30911
# Poissons Ratio (z) = 0.39768 0.26064
#
# Static dielectric constant tensor:
#      x y z
#    x 1.720610 0.000000 0.023460 
#    y 0.000000 1.782000 0.000000 
#    z 0.023460 0.000000 1.773430 
# 
# From -- ./inp_files/40981.got.cif
#   From: 2010.05.17/outbox.cif.g08.bks.cpg/sg15_21_cif.got.tgz:40981.got - 2010.06.03 18:47:42.
