data_PCOD9283185
_publ_section_title
;
Structure prediction by ZEFSAII (Michael W. Deem and Ramdas Pophale) SiO2 
 PCOD9283185
Probable space group: C 2/C
;
_chemical_formula_sum "Si O2"
_cell_formula_units_Z 64
_cell_length_a 23.160149
_cell_length_b 5.263130
_cell_length_c 32.366887
_cell_angle_alpha 90.000000
_cell_angle_beta 123.469489
_cell_angle_gamma 90.000000
_cell_volume 3291.136941
_symmetry_space_group_name_H-M "C 2/C"
_symmetry_group_IT_number 15
_symmetry_cell_setting 'monoclinic'
loop_
_space_group_symop_operation_xyz
x,y,z
-x,y,1/2-z
-x,-y,-z
x,-y,1/2+z
1/2+x,1/2+y,z
1/2-x,1/2+y,1/2-z
1/2-x,1/2-y,-z
1/2+x,1/2-y,1/2+z
loop_
_atom_site_type_symbol
_atom_site_label
_atom_site_fract_x
_atom_site_fract_y
_atom_site_fract_z
Si Si1 0.138343 0.827615 0.293214
Si Si2 0.180596 0.966178 0.437907
Si Si3 0.728199 0.727570 0.284175
Si Si4 0.227211 0.119681 0.132754
Si Si5 0.456694 0.978354 0.803427
Si Si6 0.653539 0.897828 0.174075
Si Si7 0.767781 0.035951 0.954765
Si Si8 0.046539 0.021524 0.329651
O O1 0.207146 0.805396 0.349419
O O2 0.099882 0.597438 0.253889
O O3 0.171768 0.012871 0.272487
O O4 0.080372 0.953723 0.298911
O O5 0.234881 0.184237 0.445225
O O6 0.109113 0.026829 0.387112
O O7 0.178192 0.997458 0.486716
O O8 0.209658 0.682924 0.440297
O O9 0.707683 0.796870 0.229909
O O10 0.809718 0.664668 0.319047
O O11 0.728772 0.932825 0.320535
O O12 0.167421 0.243151 0.137513
O O13 0.204314 0.007558 0.080383
O O14 0.498306 0.715114 0.823795
O O15 0.417565 0.064513 0.830048
O O16 0.505935 0.212863 0.811316
#
# Coordination Sequence:
#
# PCOD9283185 Si02
#       8
#     8   8   8   8   8   8   8   8
#     4  11  24  38  57  91 124 159 211 249 304 364
#     4  10  21  42  65  92 128 148 205 250 331 371
#     4  11  20  36  62  82 125 161 202 268 305 342
#     4  11  22  36  66  89 124 155 201 273 303 358
#     4  12  27  40  59  84 130 180 208 235 290 377
#     4  11  22  37  54  88 119 169 211 245 299 358
#     4  10  21  39  68  98 117 154 190 276 322 367
#     4  12  26  42  62  87 128 173 202 250 297 376
#
# _framework density 19.446166999999999
#
# number of rings (size 3 to 8) (size 9 to 14) (size 15 to 20)
#    0.000    1.000    3.750    3.375    5.250    2.000 
#    0.000    0.000    0.000    1.500    0.000    0.000 
#    0.000    0.000    0.000    0.000    0.000    0.000 
#
# Total GULP energy -178322.933363 kJ/mol
# GULP energy per Si atom -5572.591668 kJ/mol
# Density = 1.940191 g / cm^3
# Si number density = 19.446167 Si / 1000 Ang^3
#
#
#
# Elastic Constant Matrix: (Units=GPa)
#
#
# Indices 1 2 3 4 5 6 
#
# 1 80.3540 4.3162 23.6376 0.0003 -6.3829 0.0006
# 2 4.3162 52.2132 -2.2890 0.0012 8.9618 0.0025
# 3 23.6376 -2.2890 95.8027 0.0001 -13.5770 0.0003
# 4 0.0003 0.0012 0.0001 12.9369 -0.0001 9.6277
# 5 -6.3829 8.9618 -13.5770 -0.0001 23.6892 -0.0002
# 6 0.0006 0.0025 0.0003 9.6277 -0.0002 19.0833
#
#
#
# Elastic Compliance Matrix: (Units=1/GPa)
#
#
# Indices 1 2 3 4 5 6 
#
# 1 0.013635 -0.001703 -0.003040 0.000000 0.002576 0.000000
# 2 -0.001703 0.020733 -0.000284 0.000000 -0.008465 -0.000003
# 3 -0.003040 -0.000284 0.012060 0.000000 0.006200 0.000000
# 4 0.000000 0.000000 0.000000 0.123768 0.000000 -0.062442
# 5 0.002576 -0.008465 0.006200 0.000000 0.049663 0.000002
# 6 0.000000 -0.000003 0.000000 -0.062442 0.000002 0.083905
#
#
# Mechanical properties :
#
#
# Convention : Reuss Voigt Hill
#
# Bulk Modulus (GPa) = 27.49105 31.07775 29.28440
# Shear Modulus (GPa) = 15.34008 24.65554 19.99781
#
# Velocity S-wave (km/s) = 2.81169 3.56460 3.21030
# Velocity P-wave (km/s) = 4.97077 5.74090 5.36966
#
# Compressibility (1/GPa) = 0.03637547
#
# Stress axis : x y z
#
# Youngs Moduli (GPa) = 73.33947 48.23115 82.91814
#
# Poissons Ratio (x) = 0.08211 0.25206
# Poissons Ratio (y) = 0.12486 0.02357
# Poissons Ratio (z) = 0.22294 0.01371
#
# Static dielectric constant tensor:
#      x y z
#    x 1.766460 0.000000 -0.038400 
#    y 0.000000 1.849030 0.000000 
#    z -0.038400 0.000000 1.707750 
# 
# From -- ./inp_files/317008.got.cif
#   From: 2010.05.17/outbox.cif.g08.bks.cpg/sg15_159_cif.got.tgz:317008.got - 2010.06.03 18:47:42.
