data_PCOD9283744
_publ_section_title
;
Structure prediction by ZEFSAII (Michael W. Deem and Ramdas Pophale) SiO2 
 PCOD9283744
Probable space group: C 2/C
;
_chemical_formula_sum "Si O2"
_cell_formula_units_Z 44
_cell_length_a 24.978334
_cell_length_b 20.040738
_cell_length_c 14.921742
_cell_angle_alpha 90.000000
_cell_angle_beta 16.740669
_cell_angle_gamma 90.000000
_cell_volume 2151.542783
_symmetry_space_group_name_H-M "C 2/C"
_symmetry_group_IT_number 15
_symmetry_cell_setting 'monoclinic'
loop_
_space_group_symop_operation_xyz
x,y,z
-x,y,1/2-z
-x,-y,-z
x,-y,1/2+z
1/2+x,1/2+y,z
1/2-x,1/2+y,1/2-z
1/2-x,1/2-y,-z
1/2+x,1/2-y,1/2+z
loop_
_atom_site_type_symbol
_atom_site_label
_atom_site_fract_x
_atom_site_fract_y
_atom_site_fract_z
Si Si1 0.158866 0.797081 0.219759
Si Si2 0.904262 0.872754 0.494589
Si Si3 0.000000 0.620335 0.250000
Si Si4 0.500000 0.727572 0.250000
Si Si5 0.500000 0.501949 0.250000
Si Si6 0.992819 0.317857 0.414063
Si Si7 0.200988 0.612899 0.743024
O O1 0.073857 0.746641 0.425534
O O2 0.004974 0.842176 0.418316
O O3 0.250000 0.750000 0.000000
O O4 0.322438 0.839172 0.000786
O O5 0.687566 0.856431 0.834990
O O6 0.000000 0.842971 0.250000
O O7 0.951787 0.950997 0.407738
O O8 0.920169 0.592881 0.474605
O O9 0.591824 0.779627 0.173269
O O10 0.338504 0.676550 0.542308
O O11 0.326726 0.550212 0.514280
O O12 0.090387 0.363988 0.331545
#
# Coordination Sequence:
#
# PCOD9283744 Si02
#       7
#     8   8   4   4   4   8   8
#     4  12  19  35  65  99 128 156 211 267 326 383
#     4  10  21  40  64  90 125 173 209 264 316 370
#     4  12  22  37  63 103 121 172 214 252 324 384
#     4  11  24  40  61 103 136 161 200 272 338 377
#     4   9  24  47  60  88 133 175 220 260 322 363
#     4  12  22  38  67  97 130 166 211 265 330 389
#     4  11  23  41  67  91 132 174 211 262 317 389
#
# _framework density 20.450441000000001
#
# number of rings (size 3 to 8) (size 9 to 14) (size 15 to 20)
#    0.545    0.364    5.455    2.727    0.000    0.727 
#    0.000    1.818    0.000    0.000    0.000    0.000 
#    0.000    0.000    0.000    0.000    0.000    0.000 
#
# Total GULP energy -122551.307978 kJ/mol
# GULP energy per Si atom -5570.513999 kJ/mol
# Density = 2.040390 g / cm^3
# Si number density = 20.450441 Si / 1000 Ang^3
#
#
#
# Elastic Constant Matrix: (Units=GPa)
#
#
# Indices 1 2 3 4 5 6 
#
# 1 90.3069 49.6659 35.3487 0.0103 -22.3092 -0.0037
# 2 49.6659 118.1248 52.6924 0.0080 -18.1762 -0.0065
# 3 35.3487 52.6924 85.9699 0.0127 -15.2445 -0.0085
# 4 0.0103 0.0080 0.0127 5.3335 -0.0099 -4.5081
# 5 -22.3092 -18.1762 -15.2445 -0.0099 44.3941 0.0053
# 6 -0.0037 -0.0065 -0.0085 -4.5081 0.0053 2.0560
#
#
#
# Elastic Compliance Matrix: (Units=1/GPa)
#
#
# Indices 1 2 3 4 5 6 
#
# 1 0.016028 -0.004697 -0.002795 0.000020 0.005172 0.000032
# 2 -0.004697 0.013287 -0.006034 -0.000012 0.001008 -0.000021
# 3 -0.002795 -0.006034 0.016816 -0.000014 0.001900 0.000009
# 4 0.000020 -0.000012 -0.000014 -0.219724 0.000008 -0.481780
# 5 0.005172 0.001008 0.001900 0.000008 0.026190 -0.000029
# 6 0.000032 -0.000021 0.000009 -0.481780 -0.000029 -0.569995
#
#
# Mechanical properties :
#
#
# Convention : Reuss Voigt Hill
#
# Bulk Modulus (GPa) = 52.40855 63.31284 57.86069
# Shear Modulus (GPa) = -7.31008 20.80302 6.74647
#
# Velocity S-wave (km/s) = -1.89269 3.19288 1.81827
# Velocity P-wave (km/s) = 4.57235 6.67975 5.72387
#
# Compressibility (1/GPa) = 0.01908086
#
# Stress axis : x y z
#
# Youngs Moduli (GPa) = 62.39155 75.26153 59.46638
#
# Poissons Ratio (x) = 0.35347 0.16618
# Poissons Ratio (y) = 0.29303 0.35882
# Poissons Ratio (z) = 0.17436 0.45413
#
# Static dielectric constant tensor:
#      x y z
#    x 1.773930 -0.000010 0.003590 
#    y -0.000010 1.699840 0.000000 
#    z 0.003590 0.000000 1.730940 
# 
# From -- ./inp_files/174416.got.cif
#   From: 2010.05.17/outbox.cif.g08.bks.cpg/sg15_88_cif.got.tgz:174416.got - 2010.06.03 18:47:42.
