data_PCOD9283393
_publ_section_title
;
Structure prediction by ZEFSAII (Michael W. Deem and Ramdas Pophale) SiO2 
 PCOD9283393
Probable space group: C 2/C
;
_chemical_formula_sum "Si O2"
_cell_formula_units_Z 48
_cell_length_a 11.849951
_cell_length_b 19.123168
_cell_length_c 9.607297
_cell_angle_alpha 90.000000
_cell_angle_beta 66.771018
_cell_angle_gamma 90.000000
_cell_volume 2000.611935
_symmetry_space_group_name_H-M "C 2/C"
_symmetry_group_IT_number 15
_symmetry_cell_setting 'monoclinic'
loop_
_space_group_symop_operation_xyz
x,y,z
-x,y,1/2-z
-x,-y,-z
x,-y,1/2+z
1/2+x,1/2+y,z
1/2-x,1/2+y,1/2-z
1/2-x,1/2-y,-z
1/2+x,1/2-y,1/2+z
loop_
_atom_site_type_symbol
_atom_site_label
_atom_site_fract_x
_atom_site_fract_y
_atom_site_fract_z
Si Si1 0.133567 0.824716 0.920355
Si Si2 0.080867 0.583070 0.914642
Si Si3 0.785475 0.193801 0.821193
Si Si4 0.365954 0.700679 0.481636
Si Si5 0.133676 0.935334 0.705560
Si Si6 0.645837 0.971744 0.086428
O O1 0.251314 0.775896 0.830683
O O2 0.148033 0.904143 0.854731
O O3 0.130447 0.823403 0.088757
O O4 0.012368 0.784569 0.920114
O O5 0.159285 0.651421 0.901028
O O6 0.145664 0.541249 0.751541
O O7 0.940992 0.591144 0.930252
O O8 0.077083 0.540105 0.060643
O O9 0.838567 0.171876 0.648327
O O10 0.250000 0.750000 0.500000
O O11 0.363357 0.638950 0.373622
O O12 0.232311 0.975422 0.564996
O O13 0.000000 0.968146 0.750000
#
# Coordination Sequence:
#
# PCOD9283393 Si02
#       6
#     8   8   8   8   8   8
#     4  10  24  37  57  94 129 159 200 251 317 373
#     4  10  23  39  66  88 120 162 208 267 310 363
#     4  11  22  39  59  90 126 164 201 253 316 371
#     4  11  21  37  61  86 122 163 204 252 294 375
#     4  10  21  40  61  87 120 158 204 254 304 371
#     4  10  22  42  61  93 119 158 218 260 310 368
#
# _framework density 23.992659
#
# number of rings (size 3 to 8) (size 9 to 14) (size 15 to 20)
#    0.000    1.667    3.333    0.500    4.667    0.000 
#    0.000    2.500    0.000    0.000    0.000    0.000 
#    0.000    0.000    0.000    0.000    0.000    0.000 
#
# Total GULP energy -133744.079815 kJ/mol
# GULP energy per Si atom -5572.669992 kJ/mol
# Density = 2.393805 g / cm^3
# Si number density = 23.992659 Si / 1000 Ang^3
#
#
#
# Elastic Constant Matrix: (Units=GPa)
#
#
# Indices 1 2 3 4 5 6 
#
# 1 64.3875 1.1631 37.2703 0.0000 -4.4250 0.0000
# 2 1.1631 18.6249 2.1570 0.0000 8.7131 0.0000
# 3 37.2703 2.1570 105.7586 0.0000 13.1885 0.0000
# 4 0.0000 0.0000 0.0000 24.6308 0.0000 -8.1751
# 5 -4.4250 8.7131 13.1885 0.0000 48.5141 0.0000
# 6 0.0000 0.0000 0.0000 -8.1751 0.0000 16.2072
#
#
#
# Elastic Compliance Matrix: (Units=1/GPa)
#
#
# Indices 1 2 3 4 5 6 
#
# 1 0.020303 -0.002425 -0.007650 0.000000 0.004367 0.000000
# 2 -0.002425 0.058908 0.001035 0.000000 -0.011082 0.000000
# 3 -0.007650 0.001035 0.012670 0.000000 -0.004328 0.000000
# 4 0.000000 0.000000 0.000000 0.048763 0.000000 0.024597
# 5 0.004367 -0.011082 -0.004328 0.000000 0.024178 0.000000
# 6 0.000000 0.000000 0.000000 0.024597 0.000000 0.074108
#
#
# Mechanical properties :
#
#
# Convention : Reuss Voigt Hill
#
# Bulk Modulus (GPa) = 13.54995 29.99466 21.77230
# Shear Modulus (GPa) = 17.75503 27.74913 22.75208
#
# Velocity S-wave (km/s) = 2.72328 3.40452 3.08278
# Velocity P-wave (km/s) = 3.94311 5.28991 4.66536
#
# Compressibility (1/GPa) = 0.07380101
#
# Stress axis : x y z
#
# Youngs Moduli (GPa) = 49.25347 16.97571 78.92603
#
# Poissons Ratio (x) = 0.04117 0.60380
# Poissons Ratio (y) = 0.11944 -0.08170
# Poissons Ratio (z) = 0.37680 -0.01757
#
# Static dielectric constant tensor:
#      x y z
#    x 2.053640 0.000000 -0.022540 
#    y 0.000000 1.977340 0.000000 
#    z -0.022540 0.000000 1.912800 
# 
# From -- ./inp_files/32111.got.cif
#   From: 2010.05.17/outbox.cif.g08.bks.cpg/sg15_17_cif.got.tgz:32111.got - 2010.06.03 18:47:42.
