data_PCOD9283728
_publ_section_title
;
Structure prediction by ZEFSAII (Michael W. Deem and Ramdas Pophale) SiO2 
 PCOD9283728
Probable space group: C 2/C
;
_chemical_formula_sum "Si O2"
_cell_formula_units_Z 56
_cell_length_a 15.900131
_cell_length_b 9.580062
_cell_length_c 31.107596
_cell_angle_alpha 90.000000
_cell_angle_beta 29.412114
_cell_angle_gamma 90.000000
_cell_volume 2326.991214
_symmetry_space_group_name_H-M "C 2/C"
_symmetry_group_IT_number 15
_symmetry_cell_setting 'monoclinic'
loop_
_space_group_symop_operation_xyz
x,y,z
-x,y,1/2-z
-x,-y,-z
x,-y,1/2+z
1/2+x,1/2+y,z
1/2-x,1/2+y,1/2-z
1/2-x,1/2-y,-z
1/2+x,1/2-y,1/2+z
loop_
_atom_site_type_symbol
_atom_site_label
_atom_site_fract_x
_atom_site_fract_y
_atom_site_fract_z
Si Si1 0.372149 0.103160 0.266573
Si Si2 0.608860 0.638100 0.453364
Si Si3 0.690534 0.805738 0.933621
Si Si4 0.180106 0.998477 0.185570
Si Si5 0.985615 0.626689 0.604811
Si Si6 0.135244 0.650387 0.081970
Si Si7 0.439434 0.213791 0.716763
O O1 0.500000 0.109062 0.250000
O O2 0.199992 0.153788 0.366488
O O3 0.456649 0.183926 0.188106
O O4 0.357040 0.937541 0.262246
O O5 0.500000 0.500000 0.500000
O O6 0.468073 0.756076 0.524320
O O7 0.740432 0.624600 0.433239
O O8 0.734979 0.959697 0.897544
O O9 0.862434 0.713593 0.855358
O O10 0.619782 0.804850 0.012829
O O11 0.138695 0.147890 0.226912
O O12 0.000000 0.931730 0.250000
O O13 0.315066 0.924388 0.155977
O O14 0.080484 0.488709 0.581233
O O15 0.943121 0.725421 0.663792
O O16 0.250000 0.750000 0.000000
#
# Coordination Sequence:
#
# PCOD9283728 Si02
#       7
#     8   8   8   8   8   8   8
#     4   9  18  35  59  90 123 160 210 255 306 380
#     4  11  21  37  64  94 123 165 211 256 311 378
#     4  11  22  40  64  89 126 168 206 248 313 390
#     4  10  22  42  64  86 119 166 208 249 309 379
#     4  11  23  40  62  93 124 158 208 263 315 379
#     4  10  22  40  61  89 127 162 201 262 322 367
#     4  10  21  40  64  89 120 161 208 259 309 371
#
# _framework density 24.065408999999999
#
# number of rings (size 3 to 8) (size 9 to 14) (size 15 to 20)
#    0.000    1.714    0.000    6.429    0.000    2.286 
#    0.000   16.429    0.000    0.000    0.000    0.000 
#    0.000    0.000    0.000    0.000    0.000    0.000 
#
# Total GULP energy -156426.138967 kJ/mol
# GULP energy per Si atom -5586.647820 kJ/mol
# Density = 2.401064 g / cm^3
# Si number density = 24.065409 Si / 1000 Ang^3
#
#
#
# Elastic Constant Matrix: (Units=GPa)
#
#
# Indices 1 2 3 4 5 6 
#
# 1 91.8883 22.3572 30.6656 0.0002 -0.4341 0.0002
# 2 22.3572 72.5287 36.7633 0.0000 -0.9874 0.0000
# 3 30.6656 36.7633 122.0105 -0.0006 -0.1142 0.0001
# 4 0.0002 0.0000 -0.0006 35.1599 0.0000 7.8505
# 5 -0.4341 -0.9874 -0.1142 0.0000 51.0465 0.0000
# 6 0.0002 0.0000 0.0001 7.8505 0.0000 32.3532
#
#
#
# Elastic Compliance Matrix: (Units=1/GPa)
#
#
# Indices 1 2 3 4 5 6 
#
# 1 0.012288 -0.002622 -0.002298 0.000000 0.000049 0.000000
# 2 -0.002622 0.016837 -0.004414 0.000000 0.000294 0.000000
# 3 -0.002298 -0.004414 0.010104 0.000000 -0.000082 0.000000
# 4 0.000000 0.000000 0.000000 0.030071 0.000000 -0.007297
# 5 0.000049 0.000294 -0.000082 0.000000 0.019596 0.000000
# 6 0.000000 0.000000 0.000000 -0.007297 0.000000 0.032679
#
#
# Mechanical properties :
#
#
# Convention : Reuss Voigt Hill
#
# Bulk Modulus (GPa) = 48.63816 51.77773 50.20795
# Shear Modulus (GPa) = 33.99118 36.82135 35.40627
#
# Velocity S-wave (km/s) = 3.76233 3.91583 3.83985
# Velocity P-wave (km/s) = 6.25526 6.48129 6.36928
#
# Compressibility (1/GPa) = 0.02055999
#
# Stress axis : x y z
#
# Youngs Moduli (GPa) = 81.38018 59.39200 98.97507
#
# Poissons Ratio (x) = 0.15574 0.22747
# Poissons Ratio (y) = 0.21340 0.43687
# Poissons Ratio (z) = 0.18703 0.26215
#
# Static dielectric constant tensor:
#      x y z
#    x 1.950170 0.000000 0.010340 
#    y 0.000000 1.908330 0.000000 
#    z 0.010340 0.000000 1.994080 
# 
# From -- ./inp_files/313721.got.cif
#   From: 2010.05.17/outbox.cif.g08.bks.cpg/sg15_157_cif.got.tgz:313721.got - 2010.06.03 18:47:42.
