data_PCOD9283305
_publ_section_title
;
Structure prediction by ZEFSAII (Michael W. Deem and Ramdas Pophale) SiO2 
 PCOD9283305
Probable space group: C 2/C
;
_chemical_formula_sum "Si O2"
_cell_formula_units_Z 48
_cell_length_a 27.477980
_cell_length_b 5.413453
_cell_length_c 13.094422
_cell_angle_alpha 90.000000
_cell_angle_beta 77.570380
_cell_angle_gamma 90.000000
_cell_volume 1902.150798
_symmetry_space_group_name_H-M "C 2/C"
_symmetry_group_IT_number 15
_symmetry_cell_setting 'monoclinic'
loop_
_space_group_symop_operation_xyz
x,y,z
-x,y,1/2-z
-x,-y,-z
x,-y,1/2+z
1/2+x,1/2+y,z
1/2-x,1/2+y,1/2-z
1/2-x,1/2-y,-z
1/2+x,1/2-y,1/2+z
loop_
_atom_site_type_symbol
_atom_site_label
_atom_site_fract_x
_atom_site_fract_y
_atom_site_fract_z
Si Si1 0.551664 0.588867 0.024201
Si Si2 0.418230 0.586399 0.260197
Si Si3 0.443398 0.089680 0.239881
Si Si4 0.199220 0.456881 0.857291
Si Si5 0.103890 0.409741 0.518742
Si Si6 0.191414 0.954804 0.725509
O O1 0.549270 0.586914 0.151154
O O2 0.592249 0.370020 0.989297
O O3 0.566525 0.873335 0.998387
O O4 0.500000 0.500000 0.000000
O O5 0.432510 0.345536 0.190719
O O6 0.360019 0.565954 0.311820
O O7 0.429697 0.834937 0.195069
O O8 0.500000 0.086217 0.250000
O O9 0.407003 0.092592 0.354965
O O10 0.193540 0.702305 0.790110
O O11 0.257463 0.458667 0.861684
O O12 0.190032 0.203515 0.796762
O O13 0.158405 0.495908 0.963166
#
# Coordination Sequence:
#
# PCOD9283305 Si02
#       6
#     8   8   8   8   8   8
#     4  10  21  40  59  82 125 157 201 254 303 353
#     4  10  21  40  60  87 116 161 206 244 307 365
#     4  10  21  40  59  82 125 157 201 254 303 353
#     4  10  21  40  63  90 123 159 200 255 311 362
#     4  10  21  40  60  87 116 161 206 244 307 365
#     4  10  21  40  63  90 123 159 200 255 311 362
#
# _framework density 25.234590000000001
#
# number of rings (size 3 to 8) (size 9 to 14) (size 15 to 20)
#    0.000    2.000    0.000    3.000    0.000    0.000 
#   36.000    6.667    0.000    0.000    0.000    0.000 
#    0.000    0.000    0.000    0.000    0.000    0.000 
#
# Total GULP energy -134274.986461 kJ/mol
# GULP energy per Si atom -5594.791103 kJ/mol
# Density = 2.517716 g / cm^3
# Si number density = 25.234590 Si / 1000 Ang^3
#
#
#
# Elastic Constant Matrix: (Units=GPa)
#
#
# Indices 1 2 3 4 5 6 
#
# 1 119.9075 35.5545 19.0079 0.0000 -24.9541 0.0000
# 2 35.5545 242.9926 19.6068 0.0000 -4.5857 0.0000
# 3 19.0079 19.6068 81.3701 0.0000 -21.6670 0.0000
# 4 0.0000 0.0000 0.0000 32.7458 0.0000 -10.2269
# 5 -24.9541 -4.5857 -21.6670 0.0000 44.7272 0.0000
# 6 0.0000 0.0000 0.0000 -10.2269 0.0000 36.4173
#
#
#
# Elastic Compliance Matrix: (Units=1/GPa)
#
#
# Indices 1 2 3 4 5 6 
#
# 1 0.009882 -0.001298 -0.000646 0.000000 0.005067 0.000000
# 2 -0.001298 0.004368 -0.000945 0.000000 -0.000734 0.000000
# 3 -0.000646 -0.000945 0.014404 0.000000 0.006520 0.000000
# 4 0.000000 0.000000 0.000000 0.033474 0.000000 0.009400
# 5 0.005067 -0.000734 0.006520 0.000000 0.028268 0.000000
# 6 0.000000 0.000000 0.000000 0.009400 0.000000 0.030099
#
#
# Mechanical properties :
#
#
# Convention : Reuss Voigt Hill
#
# Bulk Modulus (GPa) = 43.71489 65.84539 54.78014
# Shear Modulus (GPa) = 37.34175 47.45148 42.39661
#
# Velocity S-wave (km/s) = 3.85097 4.34108 4.10335
# Velocity P-wave (km/s) = 6.09379 7.16077 6.64872
#
# Compressibility (1/GPa) = 0.02287550
#
# Stress axis : x y z
#
# Youngs Moduli (GPa) = 101.19803 228.95566 69.42341
#
# Poissons Ratio (x) = 0.29721 0.04487
# Poissons Ratio (y) = 0.13136 0.06558
# Poissons Ratio (z) = 0.06541 0.21628
#
# Static dielectric constant tensor:
#      x y z
#    x 1.952610 0.000000 0.008930 
#    y 0.000000 2.097570 0.000000 
#    z 0.008930 0.000000 2.026740 
# 
# From -- ./inp_files/217739.got.cif
#   From: 2010.05.17/outbox.cif.g08.bks.cpg/sg15_109_cif.got.tgz:217739.got - 2010.06.03 18:47:42.
