data_PCOD9283527
_publ_section_title
;
Structure prediction by ZEFSAII (Michael W. Deem and Ramdas Pophale) SiO2 
 PCOD9283527
Probable space group: C 2/C
;
_chemical_formula_sum "Si O2"
_cell_formula_units_Z 48
_cell_length_a 11.301531
_cell_length_b 22.213945
_cell_length_c 13.370431
_cell_angle_alpha 90.000000
_cell_angle_beta 40.396272
_cell_angle_gamma 90.000000
_cell_volume 2175.356962
_symmetry_space_group_name_H-M "C 2/C"
_symmetry_group_IT_number 15
_symmetry_cell_setting 'monoclinic'
loop_
_space_group_symop_operation_xyz
x,y,z
-x,y,1/2-z
-x,-y,-z
x,-y,1/2+z
1/2+x,1/2+y,z
1/2-x,1/2+y,1/2-z
1/2-x,1/2-y,-z
1/2+x,1/2-y,1/2+z
loop_
_atom_site_type_symbol
_atom_site_label
_atom_site_fract_x
_atom_site_fract_y
_atom_site_fract_z
Si Si1 0.993396 0.046783 0.874319
Si Si2 0.517301 0.771320 0.454171
Si Si3 0.201688 0.552158 0.312806
Si Si4 0.884106 0.512411 0.912590
Si Si5 0.915553 0.819789 0.193779
Si Si6 0.350149 0.332156 0.773081
O O1 0.032751 0.114599 0.883241
O O2 0.000000 0.051263 0.750000
O O3 0.151916 0.000326 0.801153
O O4 0.795244 0.017926 0.018500
O O5 0.696679 0.812759 0.344009
O O6 0.488016 0.732979 0.574795
O O7 0.554622 0.723316 0.343340
O O8 0.331666 0.807689 0.556920
O O9 0.163640 0.550296 0.457626
O O10 0.283929 0.617078 0.239029
O O11 0.016909 0.538831 0.372937
O O12 0.000000 0.543704 0.750000
O O13 0.000000 0.813439 0.250000
O O14 0.500000 0.359936 0.750000
#
# Coordination Sequence:
#
# PCOD9283527 Si02
#       6
#     8   8   8   8   8   8
#     4   9  20  39  61  89 125 160 196 253 311 358
#     4  10  24  40  62  93 117 171 211 254 304 359
#     4  10  23  42  64  92 128 162 202 253 313 372
#     4  10  22  39  62  97 126 158 201 247 315 368
#     4  10  21  40  62  91 128 160 202 255 310 373
#     4  11  23  44  65  87 124 163 213 261 304 362
#
# _framework density 22.065342000000001
#
# number of rings (size 3 to 8) (size 9 to 14) (size 15 to 20)
#    0.000    2.000    0.000    2.500   11.667    0.667 
#    3.000    0.833    0.000    0.000    0.000    0.000 
#    0.000    0.000    0.000    0.000    0.000    0.000 
#
# Total GULP energy -134147.792821 kJ/mol
# GULP energy per Si atom -5589.491368 kJ/mol
# Density = 2.201512 g / cm^3
# Si number density = 22.065342 Si / 1000 Ang^3
#
#
#
# Elastic Constant Matrix: (Units=GPa)
#
#
# Indices 1 2 3 4 5 6 
#
# 1 55.7843 -3.5320 37.1606 0.0002 -4.9346 -0.0001
# 2 -3.5320 56.7200 17.2250 0.0000 -8.6014 0.0000
# 3 37.1606 17.2250 134.9850 0.0002 -13.5170 -0.0002
# 4 0.0002 0.0000 0.0002 -11.4198 -0.0002 -11.5693
# 5 -4.9346 -8.6014 -13.5170 -0.0002 22.8790 0.0001
# 6 -0.0001 0.0000 -0.0002 -11.5693 0.0001 20.7405
#
#
#
# Elastic Compliance Matrix: (Units=1/GPa)
#
#
# Indices 1 2 3 4 5 6 
#
# 1 0.022700 0.003758 -0.006480 0.000000 0.002480 0.000000
# 2 0.003758 0.019733 -0.002900 0.000000 0.006516 0.000000
# 3 -0.006480 -0.002900 0.009899 0.000000 0.003360 0.000000
# 4 0.000000 0.000000 0.000000 -0.055949 0.000000 -0.031209
# 5 0.002480 0.006516 0.003360 0.000000 0.048678 0.000000
# 6 0.000000 0.000000 0.000000 -0.031209 0.000000 0.030806
#
#
# Mechanical properties :
#
#
# Convention : Reuss Voigt Hill
#
# Bulk Modulus (GPa) = 24.33866 38.79960 31.56913
# Shear Modulus (GPa) = 49.59904 19.54899 34.57402
#
# Velocity S-wave (km/s) = 4.74627 2.97974 3.96269
# Velocity P-wave (km/s) = 6.41017 5.42776 5.93931
#
# Compressibility (1/GPa) = 0.04108690
#
# Stress axis : x y z
#
# Youngs Moduli (GPa) = 44.05196 50.67572 101.02207
#
# Poissons Ratio (x) = -0.19043 0.65467
# Poissons Ratio (y) = -0.16553 0.29297
# Poissons Ratio (z) = 0.28548 0.14696
#
# Static dielectric constant tensor:
#      x y z
#    x 1.778750 0.000000 0.033140 
#    y 0.000000 1.767490 0.000000 
#    z 0.033140 0.000000 1.853430 
# 
# From -- ./inp_files/31912.got.cif
#   From: 2010.05.17/outbox.cif.g08.bks.cpg/sg15_16_cif.got.tgz:31912.got - 2010.06.03 18:47:42.
