data_PCOD9283660
_publ_section_title
;
Structure prediction by ZEFSAII (Michael W. Deem and Ramdas Pophale) SiO2 
 PCOD9283660
Probable space group: C 2/C
;
_chemical_formula_sum "Si O2"
_cell_formula_units_Z 44
_cell_length_a 18.444140
_cell_length_b 14.495015
_cell_length_c 8.371118
_cell_angle_alpha 90.000000
_cell_angle_beta 105.259042
_cell_angle_gamma 90.000000
_cell_volume 2159.103396
_symmetry_space_group_name_H-M "C 2/C"
_symmetry_group_IT_number 15
_symmetry_cell_setting 'monoclinic'
loop_
_space_group_symop_operation_xyz
x,y,z
-x,y,1/2-z
-x,-y,-z
x,-y,1/2+z
1/2+x,1/2+y,z
1/2-x,1/2+y,1/2-z
1/2-x,1/2-y,-z
1/2+x,1/2-y,1/2+z
loop_
_atom_site_type_symbol
_atom_site_label
_atom_site_fract_x
_atom_site_fract_y
_atom_site_fract_z
Si Si1 0.188151 0.774933 0.099319
Si Si2 0.412920 0.385572 0.908817
Si Si3 0.287326 0.919377 0.287383
Si Si4 0.918947 0.297672 0.213518
Si Si5 0.000000 0.969697 0.250000
Si Si6 0.734672 0.115751 0.355710
O O1 0.209849 0.877863 0.166584
O O2 0.203143 0.708354 0.257538
O O3 0.250000 0.750000 0.000000
O O4 0.110698 0.750623 0.967158
O O5 0.428667 0.286265 0.842509
O O6 0.438507 0.463299 0.796528
O O7 0.324640 0.385959 0.893606
O O8 0.460301 0.408312 0.093372
O O9 0.355223 0.866716 0.239123
O O10 0.287985 0.895864 0.474159
O O11 0.292865 0.027554 0.260360
O O12 0.000000 0.344257 0.250000
#
# Coordination Sequence:
#
# PCOD9283660 Si02
#       6
#     8   8   8   8   4   8
#     4  10  21  40  63  93 124 164 216 260 313 375
#     4  11  22  40  61  94 132 170 203 265 318 389
#     4  11  24  41  66  96 127 168 219 268 318 379
#     4  11  24  43  63  92 133 171 210 265 328 383
#     4  10  24  36  58  98 134 166 208 248 342 390
#     4  12  23  41  69  93 125 168 225 266 313 374
#
# _framework density 20.378829
#
# number of rings (size 3 to 8) (size 9 to 14) (size 15 to 20)
#    0.000    1.091    4.545    3.818    2.545    1.455 
#    0.000    3.636    0.000    0.000    0.000    0.000 
#    0.000    0.000    0.000    0.000    0.000    0.000 
#
# Total GULP energy -123025.330272 kJ/mol
# GULP energy per Si atom -5592.060467 kJ/mol
# Density = 2.033245 g / cm^3
# Si number density = 20.378829 Si / 1000 Ang^3
#
#
#
# Elastic Constant Matrix: (Units=GPa)
#
#
# Indices 1 2 3 4 5 6 
#
# 1 94.9551 1.6706 15.5378 0.0000 12.8102 0.0000
# 2 1.6706 51.8745 -12.3781 0.0000 2.7193 0.0000
# 3 15.5378 -12.3781 60.0610 0.0000 -8.6007 0.0000
# 4 0.0000 0.0000 0.0000 31.7038 0.0000 -12.8374
# 5 12.8102 2.7193 -8.6007 0.0000 23.5284 0.0000
# 6 0.0000 0.0000 0.0000 -12.8374 0.0000 -9.7897
#
#
#
# Elastic Compliance Matrix: (Units=1/GPa)
#
#
# Indices 1 2 3 4 5 6 
#
# 1 0.012433 -0.001068 -0.004631 0.000000 -0.008338 0.000000
# 2 -0.001068 0.020383 0.004456 0.000000 -0.000145 0.000000
# 3 -0.004631 0.004456 0.020106 0.000000 0.009356 0.000000
# 4 0.000000 0.000000 0.000000 0.020602 0.000000 -0.027017
# 5 -0.008338 -0.000145 0.009356 0.000000 0.050478 0.000000
# 6 0.000000 0.000000 0.000000 -0.027017 0.000000 -0.066721
#
#
# Mechanical properties :
#
#
# Convention : Reuss Voigt Hill
#
# Bulk Modulus (GPa) = 19.82705 24.06125 21.94415
# Shear Modulus (GPa) = 65.29290 22.55919 43.92604
#
# Velocity S-wave (km/s) = 5.66649 3.33076 4.64775
# Velocity P-wave (km/s) = 7.25000 5.15990 6.29234
#
# Compressibility (1/GPa) = 0.05043615
#
# Stress axis : x y z
#
# Youngs Moduli (GPa) = 80.43309 49.06139 49.73696
#
# Poissons Ratio (x) = 0.05241 0.23031
# Poissons Ratio (y) = 0.08592 -0.22164
# Poissons Ratio (z) = 0.37245 -0.21863
#
# Static dielectric constant tensor:
#      x y z
#    x 1.786420 0.000000 0.045920 
#    y 0.000000 1.699770 0.000000 
#    z 0.045920 0.000000 1.774950 
# 
# From -- ./inp_files/47234.got.cif
#   From: 2010.05.17/outbox.cif.g08.bks.cpg/sg15_24_cif.got.tgz:47234.got - 2010.06.03 18:47:42.
