data_PCOD9283116
_publ_section_title
;
Structure prediction by ZEFSAII (Michael W. Deem and Ramdas Pophale) SiO2 
 PCOD9283116
Probable space group: C 2/C
;
_chemical_formula_sum "Si O2"
_cell_formula_units_Z 52
_cell_length_a 10.039656
_cell_length_b 27.855802
_cell_length_c 9.364799
_cell_angle_alpha 90.000000
_cell_angle_beta 72.406624
_cell_angle_gamma 90.000000
_cell_volume 2496.483301
_symmetry_space_group_name_H-M "C 2/C"
_symmetry_group_IT_number 15
_symmetry_cell_setting 'monoclinic'
loop_
_space_group_symop_operation_xyz
x,y,z
-x,y,1/2-z
-x,-y,-z
x,-y,1/2+z
1/2+x,1/2+y,z
1/2-x,1/2+y,1/2-z
1/2-x,1/2-y,-z
1/2+x,1/2-y,1/2+z
loop_
_atom_site_type_symbol
_atom_site_label
_atom_site_fract_x
_atom_site_fract_y
_atom_site_fract_z
Si Si1 0.640186 0.334793 0.799191
Si Si2 0.596323 0.481416 0.094549
Si Si3 0.276318 0.927675 0.605788
Si Si4 0.754601 0.887614 0.494379
Si Si5 0.832166 0.626179 0.797787
Si Si6 0.000000 0.409928 0.750000
Si Si7 0.329250 0.763354 0.327358
O O1 0.500000 0.332150 0.750000
O O2 0.717469 0.379732 0.700415
O O3 0.708395 0.282071 0.761990
O O4 0.635839 0.351472 0.965976
O O5 0.500000 0.459082 0.250000
O O6 0.677832 0.526255 0.135929
O O7 0.696844 0.441868 0.993615
O O8 0.500000 0.500000 0.000000
O O9 0.291828 0.909976 0.437677
O O10 0.414221 0.938553 0.655952
O O11 0.727392 0.887421 0.336188
O O12 0.607593 0.878726 0.621561
O O13 0.784437 0.681492 0.825992
O O14 0.000000 0.625937 0.750000
O O15 0.500000 0.765923 0.250000
O O16 0.250000 0.750000 0.500000
#
# Coordination Sequence:
#
# PCOD9283116 Si02
#       7
#     8   8   8   8   8   4   8
#     4  10  21  40  65  91 126 173 219 258 324 388
#     4  12  25  44  63  93 127 173 217 268 326 382
#     4  11  21  40  67  87 131 169 214 273 321 396
#     4  11  24  40  64  95 129 168 214 268 319 399
#     4  11  22  40  62  95 133 162 209 271 331 379
#     4  10  22  40  60  96 118 170 218 254 338 378
#     4  10  21  39  67  96 129 170 222 269 334 395
#
# _framework density 20.829301000000001
#
# number of rings (size 3 to 8) (size 9 to 14) (size 15 to 20)
#    0.000    1.231    3.077    4.154    0.000    1.231 
#    2.769    0.000    0.000    3.692    0.000    0.000 
#    0.000    0.000    0.000    0.000    0.000    0.000 
#
# Total GULP energy -144761.373056 kJ/mol
# GULP energy per Si atom -5567.745118 kJ/mol
# Density = 2.078189 g / cm^3
# Si number density = 20.829301 Si / 1000 Ang^3
#
#
#
# Elastic Constant Matrix: (Units=GPa)
#
#
# Indices 1 2 3 4 5 6 
#
# 1 74.2426 22.6819 33.7305 0.0000 30.3273 0.0000
# 2 22.6819 84.7757 16.5637 0.0000 4.1288 0.0000
# 3 33.7305 16.5637 114.3801 0.0000 26.2943 0.0000
# 4 0.0000 0.0000 0.0000 62.8669 0.0000 127.8184
# 5 30.3273 4.1288 26.2943 0.0000 49.3500 0.0000
# 6 0.0000 0.0000 0.0000 127.8184 0.0000 469.8011
#
#
#
# Elastic Compliance Matrix: (Units=1/GPa)
#
#
# Indices 1 2 3 4 5 6 
#
# 1 0.020510 -0.004390 -0.002963 0.000000 -0.010659 0.000000
# 2 -0.004390 0.013079 -0.001103 0.000000 0.002191 0.000000
# 3 -0.002963 -0.001103 0.010640 0.000000 -0.003756 0.000000
# 4 0.000000 0.000000 0.000000 0.035598 0.000000 -0.009685
# 5 -0.010659 0.002191 -0.003756 0.000000 0.028631 0.000000
# 6 0.000000 0.000000 0.000000 -0.009685 0.000000 0.004764
#
#
# Mechanical properties :
#
#
# Convention : Reuss Voigt Hill
#
# Bulk Modulus (GPa) = 36.60562 46.59453 41.60007
# Shear Modulus (GPa) = 35.90947 129.76509 82.83728
#
# Velocity S-wave (km/s) = 4.15660 7.90155 6.31316
# Velocity P-wave (km/s) = 6.37563 10.27932 8.55316
#
# Compressibility (1/GPa) = 0.02731821
#
# Stress axis : x y z
#
# Youngs Moduli (GPa) = 48.75598 76.45770 93.98805
#
# Poissons Ratio (x) = 0.33562 0.27844
# Poissons Ratio (y) = 0.21402 0.10369
# Poissons Ratio (z) = 0.14444 0.08435
#
# Static dielectric constant tensor:
#      x y z
#    x 1.623760 0.000000 0.165570 
#    y 0.000000 1.790130 0.000000 
#    z 0.165570 0.000000 1.819220 
# 
# From -- ./inp_files/33585.got.cif
#   From: 2010.05.17/outbox.cif.g08.bks.cpg/sg15_17_cif.got.tgz:33585.got - 2010.06.03 18:47:42.
