data_PCOD9283816
_publ_section_title
;
Structure prediction by ZEFSAII (Michael W. Deem and Ramdas Pophale) SiO2 
 PCOD9283816
Probable space group: C 2/C
;
_chemical_formula_sum "Si O2"
_cell_formula_units_Z 60
_cell_length_a 15.988859
_cell_length_b 11.975044
_cell_length_c 16.577558
_cell_angle_alpha 90.000000
_cell_angle_beta 120.713731
_cell_angle_gamma 90.000000
_cell_volume 2728.834360
_symmetry_space_group_name_H-M "C 2/C"
_symmetry_group_IT_number 15
_symmetry_cell_setting 'monoclinic'
loop_
_space_group_symop_operation_xyz
x,y,z
-x,y,1/2-z
-x,-y,-z
x,-y,1/2+z
1/2+x,1/2+y,z
1/2-x,1/2+y,1/2-z
1/2-x,1/2-y,-z
1/2+x,1/2-y,1/2+z
loop_
_atom_site_type_symbol
_atom_site_label
_atom_site_fract_x
_atom_site_fract_y
_atom_site_fract_z
Si Si1 0.201844 0.786185 0.890984
Si Si2 0.612080 0.974125 0.182727
Si Si3 0.338728 0.528605 0.578971
Si Si4 0.967163 0.937844 0.403087
Si Si5 0.500000 0.160868 0.750000
Si Si6 0.876615 0.720586 0.354053
Si Si7 0.788902 0.048214 0.372460
Si Si8 0.754650 0.698041 0.850624
O O1 0.098283 0.729991 0.818570
O O2 0.282419 0.761857 0.863334
O O3 0.185444 0.918780 0.883218
O O4 0.250000 0.750000 0.000000
O O5 0.591290 0.092093 0.129009
O O6 0.683442 0.014049 0.289890
O O7 0.523139 0.913870 0.182734
O O8 0.671426 0.886293 0.157513
O O9 0.454612 0.544528 0.627601
O O10 0.304562 0.505424 0.470450
O O11 0.285183 0.634921 0.590423
O O12 0.958518 0.807614 0.419065
O O13 0.861212 0.993094 0.342304
O O14 0.000000 0.000000 0.500000
O O15 0.839317 0.767305 0.249523
O O16 0.803759 0.181037 0.385432
#
# Coordination Sequence:
#
# PCOD9283816 Si02
#       8
#     8   8   8   8   4   8   8   8
#     4  12  25  44  72 101 141 186 235 293 353 421
#     4  11  23  43  67  98 134 183 224 285 353 419
#     4  11  24  40  67 101 129 180 236 278 342 427
#     4  10  21  40  64  95 130 172 224 279 333 406
#     4  12  26  44  72 104 138 186 244 284 360 422
#     4  11  23  44  65  95 145 182 224 292 359 413
#     4  10  22  43  69  91 143 177 222 286 352 411
#     4  11  22  40  67  97 134 181 227 281 359 419
#
# _framework density 21.987410000000001
#
# number of rings (size 3 to 8) (size 9 to 14) (size 15 to 20)
#    0.000    1.067    4.000    2.800    1.867    3.733 
#    0.000    3.333    0.000    0.000    0.000    0.000 
#    0.000    0.000    0.000    0.000    0.000    0.000 
#
# Total GULP energy -167623.699614 kJ/mol
# GULP energy per Si atom -5587.456654 kJ/mol
# Density = 2.193737 g / cm^3
# Si number density = 21.987410 Si / 1000 Ang^3
#
#
#
# Elastic Constant Matrix: (Units=GPa)
#
#
# Indices 1 2 3 4 5 6 
#
# 1 62.8642 2.5398 2.7955 0.0000 -11.3698 0.0000
# 2 2.5398 110.8312 -0.7772 0.0000 3.9260 0.0000
# 3 2.7955 -0.7772 37.3542 0.0000 -0.9932 0.0000
# 4 0.0000 0.0000 0.0000 30.6375 0.0000 -4.7963
# 5 -11.3698 3.9260 -0.9932 0.0000 22.0830 0.0000
# 6 0.0000 0.0000 0.0000 -4.7963 0.0000 32.0922
#
#
#
# Elastic Compliance Matrix: (Units=1/GPa)
#
#
# Indices 1 2 3 4 5 6 
#
# 1 0.017643 -0.000737 -0.001092 0.000000 0.009166 0.000000
# 2 -0.000737 0.009111 0.000192 0.000000 -0.001991 0.000000
# 3 -0.001092 0.000192 0.026873 0.000000 0.000612 0.000000
# 4 0.000000 0.000000 0.000000 0.033422 0.000000 0.004995
# 5 0.009166 -0.001991 0.000612 0.000000 0.050384 0.000000
# 6 0.000000 0.000000 0.000000 0.004995 0.000000 0.031907
#
#
# Mechanical properties :
#
#
# Convention : Reuss Voigt Hill
#
# Bulk Modulus (GPa) = 19.85945 24.46284 22.16115
# Shear Modulus (GPa) = 26.39934 30.72865 28.56400
#
# Velocity S-wave (km/s) = 3.46881 3.74245 3.60822
# Velocity P-wave (km/s) = 5.00952 5.46118 5.24022
#
# Compressibility (1/GPa) = 0.05035386
#
# Stress axis : x y z
#
# Youngs Moduli (GPa) = 56.67847 109.75177 37.21240
#
# Poissons Ratio (x) = 0.08085 0.04064
# Poissons Ratio (y) = 0.04175 -0.00714
# Poissons Ratio (z) = 0.06189 -0.02105
#
# Static dielectric constant tensor:
#      x y z
#    x 1.830740 0.000000 0.062540 
#    y 0.000000 1.840370 0.000000 
#    z 0.062540 0.000000 1.844570 
# 
# From -- ./inp_files/204491.got.cif
#   From: 2010.05.17/outbox.cif.g08.bks.cpg/sg15_103_cif.got.tgz:204491.got - 2010.06.03 18:47:42.
