data_PCOD9283943
_publ_section_title
;
Structure prediction by ZEFSAII (Michael W. Deem and Ramdas Pophale) SiO2 
 PCOD9283943
Probable space group: C 2/C
;
_chemical_formula_sum "Si O2"
_cell_formula_units_Z 64
_cell_length_a 24.487589
_cell_length_b 15.937462
_cell_length_c 15.184965
_cell_angle_alpha 90.000000
_cell_angle_beta 28.758257
_cell_angle_gamma 90.000000
_cell_volume 2851.201969
_symmetry_space_group_name_H-M "C 2/C"
_symmetry_group_IT_number 15
_symmetry_cell_setting 'monoclinic'
loop_
_space_group_symop_operation_xyz
x,y,z
-x,y,1/2-z
-x,-y,-z
x,-y,1/2+z
1/2+x,1/2+y,z
1/2-x,1/2+y,1/2-z
1/2-x,1/2-y,-z
1/2+x,1/2-y,1/2+z
loop_
_atom_site_type_symbol
_atom_site_label
_atom_site_fract_x
_atom_site_fract_y
_atom_site_fract_z
Si Si1 0.032032 0.874506 0.805637
Si Si2 0.313387 0.977665 0.720078
Si Si3 0.510282 0.764484 0.467924
Si Si4 0.062032 0.566887 0.811610
Si Si5 0.815010 0.182127 0.156886
Si Si6 0.161170 0.055947 0.811172
Si Si7 0.738825 0.107154 0.426650
Si Si8 0.783530 0.772855 0.354628
O O1 0.991837 0.786013 0.903431
O O2 0.167194 0.872265 0.631841
O O3 0.000000 0.886965 0.750000
O O4 0.961628 0.939415 0.967854
O O5 0.429186 0.956980 0.502116
O O6 0.218874 0.904077 0.845597
O O7 0.361541 0.996732 0.748316
O O8 0.250951 0.057618 0.765058
O O9 0.573349 0.849328 0.355058
O O10 0.570166 0.701478 0.452147
O O11 0.389347 0.785830 0.678920
O O12 0.119874 0.585843 0.637494
O O13 0.732115 0.177612 0.359874
O O14 0.806714 0.251453 0.093444
O O15 0.176885 0.132578 0.721551
O O16 0.201127 0.972181 0.705309
O O17 0.750000 0.750000 0.500000
#
# Coordination Sequence:
#
# PCOD9283943 Si02
#       8
#     8   8   8   8   8   8   8   8
#     4  10  21  40  65  95 129 170 220 274 335 399
#     4  10  22  40  64  95 135 171 220 271 331 399
#     4  10  23  42  65  99 131 170 222 280 337 398
#     4  11  22  39  67  97 132 174 218 277 333 401
#     4  10  22  42  62  90 134 165 221 277 324 404
#     4  10  22  40  61  91 132 170 217 276 326 402
#     4  10  23  39  64  96 130 174 220 271 344 398
#     4  11  24  42  67  92 132 177 223 279 335 403
#
# _framework density 22.446673000000001
#
# number of rings (size 3 to 8) (size 9 to 14) (size 15 to 20)
#    0.000    1.750    1.250    1.875    1.750    8.500 
#    0.000    1.250    0.000    0.000    0.000    0.000 
#    0.000    0.000    0.000    0.000    0.000    0.000 
#
# Total GULP energy -178352.107358 kJ/mol
# GULP energy per Si atom -5573.503355 kJ/mol
# Density = 2.239558 g / cm^3
# Si number density = 22.446673 Si / 1000 Ang^3
#
#
#
# Elastic Constant Matrix: (Units=GPa)
#
#
# Indices 1 2 3 4 5 6 
#
# 1 86.3212 10.6672 14.4028 0.0000 6.4993 0.0000
# 2 10.6672 55.2163 4.8626 0.0000 -0.6986 0.0000
# 3 14.4028 4.8626 76.4674 0.0000 12.3757 0.0000
# 4 0.0000 0.0000 0.0000 22.4944 0.0000 -7.0151
# 5 6.4993 -0.6986 12.3757 0.0000 33.1829 0.0000
# 6 0.0000 0.0000 0.0000 -7.0151 0.0000 39.0554
#
#
#
# Elastic Compliance Matrix: (Units=1/GPa)
#
#
# Indices 1 2 3 4 5 6 
#
# 1 0.012308 -0.002233 -0.001893 0.000000 -0.001752 0.000000
# 2 -0.002233 0.018641 -0.000957 0.000000 0.001187 0.000000
# 3 -0.001893 -0.000957 0.014301 0.000000 -0.004983 0.000000
# 4 0.000000 0.000000 0.000000 0.047094 0.000000 0.008459
# 5 -0.001752 0.001187 -0.004983 0.000000 0.032363 0.000000
# 6 0.000000 0.000000 0.000000 0.008459 0.000000 0.027124
#
#
# Mechanical properties :
#
#
# Convention : Reuss Voigt Hill
#
# Bulk Modulus (GPa) = 28.50209 30.87448 29.68828
# Shear Modulus (GPa) = 28.78658 31.48467 30.13563
#
# Velocity S-wave (km/s) = 3.58501 3.74925 3.66805
# Velocity P-wave (km/s) = 5.46458 5.70324 5.58518
#
# Compressibility (1/GPa) = 0.03508514
#
# Stress axis : x y z
#
# Youngs Moduli (GPa) = 81.24576 53.64430 69.92364
#
# Poissons Ratio (x) = 0.11981 0.13235
# Poissons Ratio (y) = 0.18145 0.06690
# Poissons Ratio (z) = 0.15378 0.05133
#
# Static dielectric constant tensor:
#      x y z
#    x 1.875760 0.000000 -0.018930 
#    y 0.000000 1.935070 0.000000 
#    z -0.018930 0.000000 1.812790 
# 
# From -- ./inp_files/174214.got.cif
#   From: 2010.05.17/outbox.cif.g08.bks.cpg/sg15_88_cif.got.tgz:174214.got - 2010.06.03 18:47:42.
