data_PCOD9283039
_publ_section_title
;
Structure prediction by ZEFSAII (Michael W. Deem and Ramdas Pophale) SiO2 
 PCOD9283039
Probable space group: C 2/C
;
_chemical_formula_sum "Si O2"
_cell_formula_units_Z 44
_cell_length_a 27.521874
_cell_length_b 14.125117
_cell_length_c 10.252187
_cell_angle_alpha 90.000000
_cell_angle_beta 153.995260
_cell_angle_gamma 90.000000
_cell_volume 1747.439681
_symmetry_space_group_name_H-M "C 2/C"
_symmetry_group_IT_number 15
_symmetry_cell_setting 'monoclinic'
loop_
_space_group_symop_operation_xyz
x,y,z
-x,y,1/2-z
-x,-y,-z
x,-y,1/2+z
1/2+x,1/2+y,z
1/2-x,1/2+y,1/2-z
1/2-x,1/2-y,-z
1/2+x,1/2-y,1/2+z
loop_
_atom_site_type_symbol
_atom_site_label
_atom_site_fract_x
_atom_site_fract_y
_atom_site_fract_z
Si Si1 0.500000 0.733022 0.250000
Si Si2 0.102048 0.133763 0.752380
Si Si3 0.920445 0.614898 0.740112
Si Si4 0.772745 0.986558 0.123947
Si Si5 0.000000 0.449275 0.750000
Si Si6 0.500000 0.559327 0.750000
Si Si7 0.130471 0.328627 0.911976
O O1 0.553045 0.672532 0.496281
O O2 0.587342 0.805300 0.391648
O O3 0.183791 0.046694 0.913940
O O4 0.161259 0.220263 0.970051
O O5 0.004958 0.110279 0.621342
O O6 0.810681 0.572620 0.542787
O O7 0.982123 0.524343 0.823038
O O8 0.008942 0.660458 0.052340
O O9 0.885112 0.005547 0.472165
O O10 0.713270 0.893126 0.032609
O O11 0.106142 0.380198 0.989878
#
# Coordination Sequence:
#
# PCOD9283039 Si02
#       7
#     4   8   8   8   4   4   8
#     4   9  21  46  71  99 134 174 224 283 341 400
#     4  11  24  45  67  97 137 181 227 281 337 400
#     4   9  20  38  66  98 126 168 229 285 334 396
#     4  11  23  40  63  93 133 178 221 271 334 404
#     4   9  15  30  57  95 126 152 200 273 341 390
#     4  12  28  44  62  98 144 188 226 266 334 420
#     4  10  21  39  66  96 125 169 227 287 337 389
#
# _framework density 25.179696
#
# number of rings (size 3 to 8) (size 9 to 14) (size 15 to 20)
#    0.000    1.818    0.000    4.364    0.000   10.182 
#    0.000    3.636    0.000    0.000    0.000    0.000 
#    0.000    0.000    0.000    0.000    0.000    0.000 
#
# Total GULP energy -122719.862586 kJ/mol
# GULP energy per Si atom -5578.175572 kJ/mol
# Density = 2.512239 g / cm^3
# Si number density = 25.179696 Si / 1000 Ang^3
#
#
#
# Elastic Constant Matrix: (Units=GPa)
#
#
# Indices 1 2 3 4 5 6 
#
# 1 195.7530 57.1268 39.5643 0.0000 15.7714 0.0000
# 2 57.1268 88.5382 38.1206 0.0000 5.6302 0.0000
# 3 39.5643 38.1206 96.4598 0.0000 25.5315 0.0000
# 4 0.0000 0.0000 0.0000 28.2175 0.0000 3.9793
# 5 15.7714 5.6302 25.5315 0.0000 28.0767 0.0000
# 6 0.0000 0.0000 0.0000 3.9793 0.0000 5.8203
#
#
#
# Elastic Compliance Matrix: (Units=1/GPa)
#
#
# Indices 1 2 3 4 5 6 
#
# 1 0.006528 -0.003833 -0.000521 0.000000 -0.002425 0.000000
# 2 -0.003833 0.016037 -0.005905 0.000000 0.004308 0.000000
# 3 -0.000521 -0.005905 0.016493 0.000000 -0.013521 0.000000
# 4 0.000000 0.000000 0.000000 0.039220 0.000000 -0.026815
# 5 -0.002425 0.004308 -0.013521 0.000000 0.048411 0.000000
# 6 0.000000 0.000000 0.000000 -0.026815 0.000000 0.190147
#
#
# Mechanical properties :
#
#
# Convention : Reuss Voigt Hill
#
# Bulk Modulus (GPa) = 53.94190 72.26385 63.10287
# Shear Modulus (GPa) = 14.55458 28.81884 21.68671
#
# Velocity S-wave (km/s) = 2.40683 3.38676 2.93794
# Velocity P-wave (km/s) = 5.40306 6.63740 6.05178
#
# Compressibility (1/GPa) = 0.01853846
#
# Stress axis : x y z
#
# Youngs Moduli (GPa) = 153.19085 62.35688 60.63053
#
# Poissons Ratio (x) = 0.23905 0.03157
# Poissons Ratio (y) = 0.58726 0.35805
# Poissons Ratio (z) = 0.07977 0.36825
#
# Static dielectric constant tensor:
#      x y z
#    x 2.207440 0.000000 -0.132060 
#    y 0.000000 2.074470 0.000000 
#    z -0.132060 0.000000 2.100260 
# 
# From -- ./inp_files/123410.got.cif
#   From: 2010.05.17/outbox.cif.g08.bks.cpg/sg15_62_cif.got.tgz:123410.got - 2010.06.03 18:47:42.
