data_PCOD9283215
_publ_section_title
;
Structure prediction by ZEFSAII (Michael W. Deem and Ramdas Pophale) SiO2 
 PCOD9283215
Probable space group: C 2/C
;
_chemical_formula_sum "Si O2"
_cell_formula_units_Z 52
_cell_length_a 17.172490
_cell_length_b 9.125988
_cell_length_c 16.993005
_cell_angle_alpha 90.000000
_cell_angle_beta 68.969043
_cell_angle_gamma 90.000000
_cell_volume 2485.678420
_symmetry_space_group_name_H-M "C 2/C"
_symmetry_group_IT_number 15
_symmetry_cell_setting 'monoclinic'
loop_
_space_group_symop_operation_xyz
x,y,z
-x,y,1/2-z
-x,-y,-z
x,-y,1/2+z
1/2+x,1/2+y,z
1/2-x,1/2+y,1/2-z
1/2-x,1/2-y,-z
1/2+x,1/2-y,1/2+z
loop_
_atom_site_type_symbol
_atom_site_label
_atom_site_fract_x
_atom_site_fract_y
_atom_site_fract_z
Si Si1 0.570829 0.900916 0.512013
Si Si2 0.966962 0.931248 0.429735
Si Si3 0.673819 0.147964 0.218686
Si Si4 0.817892 0.896851 0.906812
Si Si5 0.676251 0.928646 0.086775
Si Si6 0.785427 0.581317 0.668029
Si Si7 0.000000 0.181150 0.750000
O O1 0.545031 0.739006 0.545444
O O2 0.648723 0.881897 0.424358
O O3 0.500000 0.000000 0.500000
O O4 0.596972 0.993213 0.578620
O O5 0.007896 0.916848 0.327022
O O6 0.886374 0.025524 0.435631
O O7 0.000000 0.000000 0.500000
O O8 0.740787 0.273181 0.216823
O O9 0.585296 0.220303 0.224553
O O10 0.710799 0.048629 0.134437
O O11 0.667517 0.029302 0.290524
O O12 0.840909 0.732286 0.873466
O O13 0.791886 0.993386 0.842293
O O14 0.736533 0.898459 0.991636
#
# Coordination Sequence:
#
# PCOD9283215 Si02
#       7
#     8   8   8   8   8   8   4
#     4  11  22  42  66 101 132 181 234 283 357 431
#     4  12  25  45  71  99 143 189 232 300 361 427
#     4  12  24  44  67 104 141 188 234 300 359 424
#     4  10  21  43  64 103 130 179 235 284 349 432
#     4  10  21  39  69  90 135 174 224 290 348 420
#     4  11  24  40  70  96 140 180 235 287 353 428
#     4  12  26  46  70 104 152 184 244 298 368 432
#
# _framework density 20.919841999999999
#
# number of rings (size 3 to 8) (size 9 to 14) (size 15 to 20)
#    0.000    0.923    3.077    3.692    0.000    7.385 
#    2.769    0.000    0.000    0.000    0.000    0.000 
#    0.000    0.000    0.000    0.000    0.000    0.000 
#
# Total GULP energy -144896.313929 kJ/mol
# GULP energy per Si atom -5572.935151 kJ/mol
# Density = 2.087223 g / cm^3
# Si number density = 20.919842 Si / 1000 Ang^3
#
#
#
# Elastic Constant Matrix: (Units=GPa)
#
#
# Indices 1 2 3 4 5 6 
#
# 1 72.3115 33.8200 2.3956 0.0000 16.7968 0.0000
# 2 33.8200 128.5071 19.0107 0.0000 8.5611 0.0000
# 3 2.3956 19.0107 63.5756 0.0000 20.1733 0.0000
# 4 0.0000 0.0000 0.0000 41.6028 0.0000 9.6200
# 5 16.7968 8.5611 20.1733 0.0000 28.4773 0.0000
# 6 0.0000 0.0000 0.0000 9.6200 0.0000 13.2861
#
#
#
# Elastic Compliance Matrix: (Units=1/GPa)
#
#
# Indices 1 2 3 4 5 6 
#
# 1 0.019014 -0.004852 0.004941 0.000000 -0.013256 0.000000
# 2 -0.004852 0.009399 -0.003404 0.000000 0.002448 0.000000
# 3 0.004941 -0.003404 0.022137 0.000000 -0.017573 0.000000
# 4 0.000000 0.000000 0.000000 0.028871 0.000000 -0.020904
# 5 -0.013256 0.002448 -0.017573 0.000000 0.054647 0.000000
# 6 0.000000 0.000000 0.000000 -0.020904 0.000000 0.090402
#
#
# Mechanical properties :
#
#
# Convention : Reuss Voigt Hill
#
# Bulk Modulus (GPa) = 22.76913 41.64962 32.20938
# Shear Modulus (GPa) = 20.34665 30.61779 25.48222
#
# Velocity S-wave (km/s) = 3.12204 3.82982 3.49390
# Velocity P-wave (km/s) = 4.88915 6.28563 5.63085
#
# Compressibility (1/GPa) = 0.04391910
#
# Stress axis : x y z
#
# Youngs Moduli (GPa) = 52.59348 106.39319 45.17295
#
# Poissons Ratio (x) = 0.51619 -0.22319
# Poissons Ratio (y) = 0.25517 0.15379
# Poissons Ratio (z) = -0.25985 0.36221
#
# Static dielectric constant tensor:
#      x y z
#    x 1.573850 0.000000 -0.021370 
#    y 0.000000 1.416910 0.000000 
#    z -0.021370 0.000000 1.833000 
# 
# From -- ./inp_files/209042.got.cif
#   From: 2010.05.17/outbox.cif.g08.bks.cpg/sg15_105_cif.got.tgz:209042.got - 2010.06.03 18:47:42.
