data_PCOD9283394
_publ_section_title
;
Structure prediction by ZEFSAII (Michael W. Deem and Ramdas Pophale) SiO2 
 PCOD9283394
Probable space group: C 2/C
;
_chemical_formula_sum "Si O2"
_cell_formula_units_Z 64
_cell_length_a 11.716013
_cell_length_b 23.984819
_cell_length_c 12.194156
_cell_angle_alpha 90.000000
_cell_angle_beta 95.968629
_cell_angle_gamma 90.000000
_cell_volume 3408.060633
_symmetry_space_group_name_H-M "C 2/C"
_symmetry_group_IT_number 15
_symmetry_cell_setting 'monoclinic'
loop_
_space_group_symop_operation_xyz
x,y,z
-x,y,1/2-z
-x,-y,-z
x,-y,1/2+z
1/2+x,1/2+y,z
1/2-x,1/2+y,1/2-z
1/2-x,1/2-y,-z
1/2+x,1/2-y,1/2+z
loop_
_atom_site_type_symbol
_atom_site_label
_atom_site_fract_x
_atom_site_fract_y
_atom_site_fract_z
Si Si1 0.927067 0.243940 0.143582
Si Si2 0.296322 0.170601 0.386446
Si Si3 0.807172 0.380955 0.477307
Si Si4 0.458937 0.225668 0.056260
Si Si5 0.205674 0.351312 0.363070
Si Si6 0.377875 0.674996 0.692153
Si Si7 0.629527 0.046502 0.722064
Si Si8 0.140455 0.421421 0.775074
O O1 0.803516 0.215844 0.131407
O O2 0.904142 0.310199 0.155852
O O3 0.000000 0.221453 0.250000
O O4 0.998234 0.236099 0.039926
O O5 0.422439 0.198040 0.392438
O O6 0.275382 0.145966 0.505720
O O7 0.297959 0.124012 0.294388
O O8 0.877558 0.323224 0.502101
O O9 0.687619 0.362020 0.406931
O O10 0.862360 0.423406 0.394703
O O11 0.816810 0.410525 0.596565
O O12 0.399119 0.264286 0.140467
O O13 0.298712 0.323339 0.292169
O O14 0.191688 0.412224 0.312262
O O15 0.500000 0.653796 0.750000
O O16 0.500000 0.045088 0.750000
O O17 0.670452 0.983048 0.734397
O O18 0.000000 0.414842 0.750000
#
# Coordination Sequence:
#
# PCOD9283394 Si02
#       8
#     8   8   8   8   8   8   8   8
#     4  11  22  35  58  89 124 165 202 245 306 368
#     4  11  23  39  58  89 129 164 202 247 310 364
#     4  11  24  40  61  96 124 159 211 254 311 364
#     4  11  22  37  61  91 129 162 199 251 308 374
#     4  10  21  40  61  87 120 162 203 253 305 370
#     4  11  23  38  64  90 127 165 205 251 305 372
#     4  10  22  39  65  90 120 160 206 255 312 365
#     4  11  25  39  64  93 125 165 200 262 307 368
#
# _framework density 18.779008000000001
#
# number of rings (size 3 to 8) (size 9 to 14) (size 15 to 20)
#    0.000    1.250    1.250    6.750    7.000    1.000 
#    0.000    0.000    0.000    6.000    0.000    0.000 
#    0.000    0.000    0.000    0.000    0.000    0.000 
#
# Total GULP energy -178557.712542 kJ/mol
# GULP energy per Si atom -5579.928517 kJ/mol
# Density = 1.873627 g / cm^3
# Si number density = 18.779008 Si / 1000 Ang^3
#
#
#
# Elastic Constant Matrix: (Units=GPa)
#
#
# Indices 1 2 3 4 5 6 
#
# 1 39.1091 8.6627 29.4201 0.0000 5.7498 0.0000
# 2 8.6627 83.7315 51.0769 0.0000 -6.3548 0.0000
# 3 29.4201 51.0769 138.7636 0.0000 0.7694 0.0000
# 4 0.0000 0.0000 0.0000 25.9698 0.0000 -4.2448
# 5 5.7498 -6.3548 0.7694 0.0000 35.0761 0.0000
# 6 0.0000 0.0000 0.0000 -4.2448 0.0000 17.4589
#
#
#
# Elastic Compliance Matrix: (Units=1/GPa)
#
#
# Indices 1 2 3 4 5 6 
#
# 1 0.031287 0.000545 -0.006807 0.000000 -0.004881 0.000000
# 2 0.000545 0.015714 -0.005916 0.000000 0.002887 0.000000
# 3 -0.006807 -0.005916 0.010828 0.000000 -0.000193 0.000000
# 4 0.000000 0.000000 0.000000 0.040100 0.000000 0.009750
# 5 -0.004881 0.002887 -0.000193 0.000000 0.029837 0.000000
# 6 0.000000 0.000000 0.000000 0.009750 0.000000 0.059648
#
#
# Mechanical properties :
#
#
# Convention : Reuss Voigt Hill
#
# Bulk Modulus (GPa) = 29.87384 48.88041 39.37713
# Shear Modulus (GPa) = 22.42882 27.19725 24.81304
#
# Velocity S-wave (km/s) = 3.45970 3.80976 3.63894
# Velocity P-wave (km/s) = 5.64818 6.74078 6.21852
#
# Compressibility (1/GPa) = 0.03347410
#
# Stress axis : x y z
#
# Youngs Moduli (GPa) = 31.96230 63.63595 92.35101
#
# Poissons Ratio (x) = -0.03468 0.62862
# Poissons Ratio (y) = -0.01742 0.54633
# Poissons Ratio (z) = 0.21756 0.37646
#
# Static dielectric constant tensor:
#      x y z
#    x 1.604600 0.000000 0.036890 
#    y 0.000000 1.660160 0.000000 
#    z 0.036890 0.000000 1.669900 
# 
# From -- ./inp_files/90839.got.cif
#   From: 2010.05.17/outbox.cif.g08.bks.cpg/sg15_46_cif.got.tgz:90839.got - 2010.06.03 18:47:42.
