data_PCOD9283994
_publ_section_title
;
Structure prediction by ZEFSAII (Michael W. Deem and Ramdas Pophale) SiO2 
 PCOD9283994
Probable space group: C 2/C
;
_chemical_formula_sum "Si O2"
_cell_formula_units_Z 56
_cell_length_a 11.513490
_cell_length_b 22.334782
_cell_length_c 11.517529
_cell_angle_alpha 90.000000
_cell_angle_beta 113.819422
_cell_angle_gamma 90.000000
_cell_volume 2709.474144
_symmetry_space_group_name_H-M "C 2/C"
_symmetry_group_IT_number 15
_symmetry_cell_setting 'monoclinic'
loop_
_space_group_symop_operation_xyz
x,y,z
-x,y,1/2-z
-x,-y,-z
x,-y,1/2+z
1/2+x,1/2+y,z
1/2-x,1/2+y,1/2-z
1/2-x,1/2-y,-z
1/2+x,1/2-y,1/2+z
loop_
_atom_site_type_symbol
_atom_site_label
_atom_site_fract_x
_atom_site_fract_y
_atom_site_fract_z
Si Si1 0.296345 0.688433 0.465633
Si Si2 0.305060 0.136523 0.861159
Si Si3 0.635066 0.979121 0.003556
Si Si4 0.500000 0.862175 0.250000
Si Si5 0.407032 0.680566 0.888491
Si Si6 0.742719 0.899143 0.489135
Si Si7 0.329237 0.181995 0.326701
Si Si8 0.000000 0.591593 0.250000
O O1 0.250000 0.750000 0.500000
O O2 0.204085 0.647647 0.505108
O O3 0.442355 0.675886 0.550894
O O4 0.269557 0.689424 0.318638
O O5 0.418797 0.164963 0.827991
O O6 0.173765 0.160603 0.756182
O O7 0.318720 0.065388 0.874758
O O8 0.595456 0.950743 0.862357
O O9 0.737681 0.032148 0.027421
O O10 0.500000 0.000000 0.000000
O O11 0.614446 0.894963 0.360176
O O12 0.353026 0.632950 0.960266
O O13 0.375523 0.752032 0.886464
O O14 0.726777 0.854586 0.590003
O O15 0.432823 0.137061 0.313313
#
# Coordination Sequence:
#
# PCOD9283994 Si02
#       8
#     8   8   8   4   8   8   8   4
#     4  12  25  45  69  99 139 182 239 300 352 435
#     4  11  23  43  67 103 137 182 233 291 367 426
#     4  12  23  40  71 106 147 180 240 301 360 443
#     4  10  21  40  66 100 146 170 227 296 354 426
#     4  11  27  44  70 100 142 185 240 294 371 434
#     4  11  25  43  67 106 142 187 232 294 373 428
#     4  12  24  42  70 102 137 185 238 299 353 436
#     4  12  23  38  70 110 140 180 245 308 362 414
#
# _framework density 20.668218
#
# number of rings (size 3 to 8) (size 9 to 14) (size 15 to 20)
#    0.000    0.571    5.714    2.143    4.000    0.571 
#    0.000    0.714    3.143    0.000    0.000    0.000 
#    0.000    0.000    0.000    0.000    0.000    0.000 
#
# Total GULP energy -155892.844100 kJ/mol
# GULP energy per Si atom -5567.601575 kJ/mol
# Density = 2.062118 g / cm^3
# Si number density = 20.668218 Si / 1000 Ang^3
#
#
#
# Elastic Constant Matrix: (Units=GPa)
#
#
# Indices 1 2 3 4 5 6 
#
# 1 128.4723 42.6108 40.9517 0.0000 -3.9742 0.0000
# 2 42.6108 113.0144 38.3028 0.0000 -7.1419 0.0000
# 3 40.9517 38.3028 83.8793 0.0000 -7.3867 0.0000
# 4 0.0000 0.0000 0.0000 35.6142 0.0000 -2.8951
# 5 -3.9742 -7.1419 -7.3867 0.0000 28.9163 0.0000
# 6 0.0000 0.0000 0.0000 -2.8951 0.0000 29.9934
#
#
#
# Elastic Compliance Matrix: (Units=1/GPa)
#
#
# Indices 1 2 3 4 5 6 
#
# 1 0.009758 -0.002450 -0.003663 0.000000 -0.000200 0.000000
# 2 -0.002450 0.011139 -0.003762 0.000000 0.001453 0.000000
# 3 -0.003663 -0.003762 0.015654 0.000000 0.002566 0.000000
# 4 0.000000 0.000000 0.000000 0.028301 0.000000 0.002732
# 5 -0.000200 0.001453 0.002566 0.000000 0.035570 0.000000
# 6 0.000000 0.000000 0.000000 0.002732 0.000000 0.033604
#
#
# Mechanical properties :
#
#
# Convention : Reuss Voigt Hill
#
# Bulk Modulus (GPa) = 59.52198 63.23296 61.37747
# Shear Modulus (GPa) = 31.37220 32.47149 31.92184
#
# Velocity S-wave (km/s) = 3.90024 3.96799 3.93426
# Velocity P-wave (km/s) = 7.01027 7.18707 7.09922
#
# Compressibility (1/GPa) = 0.01680052
#
# Stress axis : x y z
#
# Youngs Moduli (GPa) = 102.48194 89.77233 63.88096
#
# Poissons Ratio (x) = 0.21997 0.23397
# Poissons Ratio (y) = 0.25112 0.24034
# Poissons Ratio (z) = 0.37535 0.33776
#
# Static dielectric constant tensor:
#      x y z
#    x 1.732400 0.000000 -0.046300 
#    y 0.000000 1.564730 0.000000 
#    z -0.046300 0.000000 1.814670 
# 
# From -- ./inp_files/89695.got.cif
#   From: 2010.05.17/outbox.cif.g08.bks.cpg/sg15_45_cif.got.tgz:89695.got - 2010.06.03 18:47:42.
