data_PCOD9283355
_publ_section_title
;
Structure prediction by ZEFSAII (Michael W. Deem and Ramdas Pophale) SiO2 
 PCOD9283355
Probable space group: C 2/C
;
_chemical_formula_sum "Si O2"
_cell_formula_units_Z 56
_cell_length_a 12.425627
_cell_length_b 26.074608
_cell_length_c 8.998384
_cell_angle_alpha 90.000000
_cell_angle_beta 62.147794
_cell_angle_gamma 90.000000
_cell_volume 2577.682070
_symmetry_space_group_name_H-M "C 2/C"
_symmetry_group_IT_number 15
_symmetry_cell_setting 'monoclinic'
loop_
_space_group_symop_operation_xyz
x,y,z
-x,y,1/2-z
-x,-y,-z
x,-y,1/2+z
1/2+x,1/2+y,z
1/2-x,1/2+y,1/2-z
1/2-x,1/2-y,-z
1/2+x,1/2-y,1/2+z
loop_
_atom_site_type_symbol
_atom_site_label
_atom_site_fract_x
_atom_site_fract_y
_atom_site_fract_z
Si Si1 0.225899 0.660051 0.400261
Si Si2 0.968099 0.839072 0.551008
Si Si3 0.249226 0.542779 0.419606
Si Si4 0.500000 0.402620 0.250000
Si Si5 0.245825 0.055942 0.736583
Si Si6 0.500000 0.419977 0.750000
Si Si7 0.511618 0.771806 0.919639
Si Si8 0.375838 0.160140 0.731063
O O1 0.350776 0.668007 0.231120
O O2 0.194806 0.598828 0.418897
O O3 0.218070 0.676465 0.578442
O O4 0.125903 0.692640 0.380050
O O5 0.024989 0.784563 0.480148
O O6 0.940677 0.866388 0.413608
O O7 0.044687 0.881886 0.591224
O O8 0.262886 0.538340 0.587123
O O9 0.193563 0.491398 0.390050
O O10 0.386946 0.547841 0.267034
O O11 0.386535 0.432757 0.250780
O O12 0.325303 0.107913 0.691566
O O13 0.500000 0.767920 0.750000
O O14 0.402984 0.799187 0.083648
O O15 0.500000 0.152987 0.750000
#
# Coordination Sequence:
#
# PCOD9283355 Si02
#       8
#     8   8   8   4   8   4   8   8
#     4   9  23  44  62  89 131 168 221 265 318 398
#     4  11  24  41  63  95 133 174 212 264 332 390
#     4  10  22  40  61  92 126 170 217 265 325 388
#     4  12  25  40  62 102 142 168 205 272 332 398
#     4  11  24  40  66  95 133 173 214 269 333 384
#     4  10  21  40  60  88 130 168 217 258 314 406
#     4  11  24  41  65  97 127 169 221 274 327 380
#     4   9  22  47  67  92 132 171 226 273 317 386
#
# _framework density 21.724945000000002
#
# number of rings (size 3 to 8) (size 9 to 14) (size 15 to 20)
#    0.000    1.714    2.143    0.429    9.000    3.429 
#    0.000    7.143    0.000    0.000    0.000    0.000 
#    0.000    0.000    0.000    0.000    0.000    0.000 
#
# Total GULP energy -156287.820207 kJ/mol
# GULP energy per Si atom -5581.707865 kJ/mol
# Density = 2.167550 g / cm^3
# Si number density = 21.724945 Si / 1000 Ang^3
#
#
#
# Elastic Constant Matrix: (Units=GPa)
#
#
# Indices 1 2 3 4 5 6 
#
# 1 46.3472 40.8961 33.2763 0.0000 9.3630 0.0000
# 2 40.8961 121.7870 43.8985 0.0000 23.9492 0.0000
# 3 33.2763 43.8985 121.2746 0.0000 6.1864 0.0000
# 4 0.0000 0.0000 0.0000 27.1373 0.0000 12.0626
# 5 9.3630 23.9492 6.1864 0.0000 26.8747 0.0000
# 6 0.0000 0.0000 0.0000 12.0626 0.0000 23.4317
#
#
#
# Elastic Compliance Matrix: (Units=1/GPa)
#
#
# Indices 1 2 3 4 5 6 
#
# 1 0.034226 -0.008769 -0.006079 0.000000 -0.002710 0.000000
# 2 -0.008769 0.013591 -0.002076 0.000000 -0.008578 0.000000
# 3 -0.006079 -0.002076 0.010587 0.000000 0.001531 0.000000
# 4 0.000000 0.000000 0.000000 0.047784 0.000000 -0.024599
# 5 -0.002710 -0.008578 0.001531 0.000000 0.045446 0.000000
# 6 0.000000 0.000000 0.000000 -0.024599 0.000000 0.055341
#
#
# Mechanical properties :
#
#
# Convention : Reuss Voigt Hill
#
# Bulk Modulus (GPa) = 40.72227 58.39452 49.55840
# Shear Modulus (GPa) = 20.07969 26.91125 23.49547
#
# Velocity S-wave (km/s) = 3.04348 3.52337 3.29218
# Velocity P-wave (km/s) = 5.57992 6.59466 6.10840
#
# Compressibility (1/GPa) = 0.02455659
#
# Stress axis : x y z
#
# Youngs Moduli (GPa) = 29.21775 73.57879 94.45530
#
# Poissons Ratio (x) = 0.64521 0.57417
# Poissons Ratio (y) = 0.25621 0.19608
# Poissons Ratio (z) = 0.17761 0.15274
#
# Static dielectric constant tensor:
#      x y z
#    x 1.860140 0.000000 -0.028220 
#    y 0.000000 1.792900 0.000000 
#    z -0.028220 0.000000 1.817150 
# 
# From -- ./inp_files/34230.got.cif
#   From: 2010.05.17/outbox.cif.g08.bks.cpg/sg15_18_cif.got.tgz:34230.got - 2010.06.03 18:47:42.
