data_PCOD9283768
_publ_section_title
;
Structure prediction by ZEFSAII (Michael W. Deem and Ramdas Pophale) SiO2 
 PCOD9283768
Probable space group: C 2/C
;
_chemical_formula_sum "Si O2"
_cell_formula_units_Z 36
_cell_length_a 7.970621
_cell_length_b 18.681810
_cell_length_c 17.454896
_cell_angle_alpha 90.000000
_cell_angle_beta 32.355196
_cell_angle_gamma 90.000000
_cell_volume 1390.968205
_symmetry_space_group_name_H-M "C 2/C"
_symmetry_group_IT_number 15
_symmetry_cell_setting 'monoclinic'
loop_
_space_group_symop_operation_xyz
x,y,z
-x,y,1/2-z
-x,-y,-z
x,-y,1/2+z
1/2+x,1/2+y,z
1/2-x,1/2+y,1/2-z
1/2-x,1/2-y,-z
1/2+x,1/2-y,1/2+z
loop_
_atom_site_type_symbol
_atom_site_label
_atom_site_fract_x
_atom_site_fract_y
_atom_site_fract_z
Si Si1 0.755013 0.844558 0.774044
Si Si2 0.202253 0.130995 0.962331
Si Si3 0.500000 0.405536 0.250000
Si Si4 0.496228 0.004992 0.407821
Si Si5 0.596067 0.685788 0.836206
O O1 0.549678 0.916430 0.855924
O O2 0.569777 0.770578 0.851752
O O3 0.000000 0.849577 0.750000
O O4 0.959683 0.840767 0.618115
O O5 0.092628 0.148475 0.919551
O O6 0.547295 0.168804 0.833517
O O7 0.242188 0.046804 0.967588
O O8 0.310331 0.459704 0.269950
O O9 0.637564 0.350959 0.134334
O O10 0.500000 0.000000 0.500000
#
# Coordination Sequence:
#
# PCOD9283768 Si02
#       5
#     8   8   4   8   8
#     4  12  21  38  69  94 120 166 210 252 309 377
#     4  10  21  40  64  92 124 162 211 250 309 378
#     4  10  22  42  60  90 126 166 204 260 316 356
#     4  11  21  39  64  90 124 167 207 251 311 368
#     4  10  23  40  65  92 125 165 205 260 309 367
#
# _framework density 25.881253999999998
#
# number of rings (size 3 to 8) (size 9 to 14) (size 15 to 20)
#    0.000    1.333    5.556    0.667    0.000    0.000 
#    0.000   28.889    0.000    0.000    0.000    0.000 
#    0.000    0.000    0.000    0.000    0.000    0.000 
#
# Total GULP energy -100713.168471 kJ/mol
# GULP energy per Si atom -5595.176026 kJ/mol
# Density = 2.582235 g / cm^3
# Si number density = 25.881254 Si / 1000 Ang^3
#
#
#
# Elastic Constant Matrix: (Units=GPa)
#
#
# Indices 1 2 3 4 5 6 
#
# 1 103.7425 64.9879 40.0440 -0.0010 28.7560 0.0023
# 2 64.9879 248.7468 67.0919 0.0006 15.9846 0.0001
# 3 40.0440 67.0919 145.2584 -0.0031 40.2933 0.0084
# 4 -0.0010 0.0006 -0.0031 41.0965 0.0000 5.4008
# 5 28.7560 15.9846 40.2933 0.0000 50.6872 -0.0009
# 6 0.0023 0.0001 0.0084 5.4008 -0.0009 24.5830
#
#
#
# Elastic Compliance Matrix: (Units=1/GPa)
#
#
# Indices 1 2 3 4 5 6 
#
# 1 0.013445 -0.002945 -0.000626 0.000001 -0.006201 -0.000001
# 2 -0.002945 0.005241 -0.002070 0.000000 0.001664 0.000001
# 3 -0.000626 -0.002070 0.009921 0.000001 -0.006879 -0.000004
# 4 0.000001 0.000000 0.000001 0.025056 -0.000001 -0.005505
# 5 -0.006201 0.001664 -0.006879 -0.000001 0.028190 0.000004
# 6 -0.000001 0.000001 -0.000004 -0.005505 0.000004 0.041888
#
#
# Mechanical properties :
#
#
# Convention : Reuss Voigt Hill
#
# Bulk Modulus (GPa) = 57.72345 93.55504 75.63925
# Shear Modulus (GPa) = 35.51151 44.98161 40.24656
#
# Velocity S-wave (km/s) = 3.70820 4.17346 3.94769
# Velocity P-wave (km/s) = 6.37855 7.71038 7.07587
#
# Compressibility (1/GPa) = 0.01732398
#
# Stress axis : x y z
#
# Youngs Moduli (GPa) = 74.37858 190.79802 100.79426
#
# Poissons Ratio (x) = 0.56196 0.06308
# Poissons Ratio (y) = 0.21907 0.20868
# Poissons Ratio (z) = 0.04655 0.39503
#
# Static dielectric constant tensor:
#      x y z
#    x 2.084460 0.000000 -0.111790 
#    y 0.000000 2.014700 0.000000 
#    z -0.111790 0.000000 2.154370 
# 
# From -- ./inp_files/77309.got.cif
#   From: 2010.05.17/outbox.cif.g08.bks.cpg/sg15_39_cif.got.tgz:77309.got - 2010.06.03 18:47:42.
