data_PCOD9283283
_publ_section_title
;
Structure prediction by ZEFSAII (Michael W. Deem and Ramdas Pophale) SiO2 
 PCOD9283283
Probable space group: C 2/C
;
_chemical_formula_sum "Si O2"
_cell_formula_units_Z 48
_cell_length_a 25.091483
_cell_length_b 5.775326
_cell_length_c 13.484740
_cell_angle_alpha 90.000000
_cell_angle_beta 105.779213
_cell_angle_gamma 90.000000
_cell_volume 1880.457145
_symmetry_space_group_name_H-M "C 2/C"
_symmetry_group_IT_number 15
_symmetry_cell_setting 'monoclinic'
loop_
_space_group_symop_operation_xyz
x,y,z
-x,y,1/2-z
-x,-y,-z
x,-y,1/2+z
1/2+x,1/2+y,z
1/2-x,1/2+y,1/2-z
1/2-x,1/2-y,-z
1/2+x,1/2-y,1/2+z
loop_
_atom_site_type_symbol
_atom_site_label
_atom_site_fract_x
_atom_site_fract_y
_atom_site_fract_z
Si Si1 0.380919 0.798244 0.090001
Si Si2 0.632926 0.523662 0.733520
Si Si3 0.559129 0.186310 0.314863
Si Si4 0.565888 0.536318 0.019313
Si Si5 0.256909 0.948524 0.335811
Si Si6 0.275369 0.953396 0.131272
O O1 0.366888 0.598607 0.159767
O O2 0.398540 0.692285 0.994656
O O3 0.327702 0.961974 0.081952
O O4 0.435791 0.917174 0.160641
O O5 0.599438 0.753078 0.744961
O O6 0.597500 0.388534 0.634224
O O7 0.697167 0.559901 0.748477
O O8 0.500000 0.270367 0.250000
O O9 0.572088 0.294544 0.429014
O O10 0.500000 0.500000 0.000000
O O11 0.295635 0.946074 0.257927
O O12 0.257340 0.700286 0.392713
O O13 0.254380 0.197004 0.391823
#
# Coordination Sequence:
#
# PCOD9283283 Si02
#       6
#     8   8   8   8   8   8
#     4  10  23  37  59  85 117 158 198 255 296 367
#     4  10  21  40  57  83 120 154 199 244 309 360
#     4  11  22  37  61  83 113 156 200 249 304 360
#     4  11  24  39  55  85 121 155 200 253 303 363
#     4   9  17  33  62  89 117 159 203 249 303 367
#     4   9  17  34  60  91 117 156 208 248 301 362
#
# _framework density 25.525708999999999
#
# number of rings (size 3 to 8) (size 9 to 14) (size 15 to 20)
#    0.000    2.000    3.333    0.000    2.333    2.000 
#    0.000    0.833    0.000    1.000    0.000    0.000 
#    0.000    0.000    0.000    0.000    0.000    0.000 
#
# Total GULP energy -133698.354874 kJ/mol
# GULP energy per Si atom -5570.764786 kJ/mol
# Density = 2.546761 g / cm^3
# Si number density = 25.525709 Si / 1000 Ang^3
#
#
#
# Elastic Constant Matrix: (Units=GPa)
#
#
# Indices 1 2 3 4 5 6 
#
# 1 107.2626 12.1382 42.0538 0.0000 -18.1029 0.0000
# 2 12.1382 118.1901 1.3033 0.0000 -15.4402 0.0000
# 3 42.0538 1.3033 60.6858 0.0000 -9.7713 0.0000
# 4 0.0000 0.0000 0.0000 11.6607 0.0000 3.7015
# 5 -18.1029 -15.4402 -9.7713 0.0000 41.2073 0.0000
# 6 0.0000 0.0000 0.0000 3.7015 0.0000 26.0553
#
#
#
# Elastic Compliance Matrix: (Units=1/GPa)
#
#
# Indices 1 2 3 4 5 6 
#
# 1 0.013430 -0.000823 -0.008722 0.000000 0.003524 0.000000
# 2 -0.000823 0.008954 0.000894 0.000000 0.003206 0.000000
# 3 -0.008722 0.000894 0.022811 0.000000 0.001912 0.000000
# 4 0.000000 0.000000 0.000000 0.089808 0.000000 -0.012758
# 5 0.003524 0.003206 0.001912 0.000000 0.027470 0.000000
# 6 0.000000 0.000000 0.000000 -0.012758 0.000000 0.040192
#
#
# Mechanical properties :
#
#
# Convention : Reuss Voigt Hill
#
# Bulk Modulus (GPa) = 35.84930 44.12544 39.98737
# Shear Modulus (GPa) = 21.80878 31.16087 26.48483
#
# Velocity S-wave (km/s) = 2.92616 3.49773 3.22463
# Velocity P-wave (km/s) = 5.04890 5.79969 5.43727
#
# Compressibility (1/GPa) = 0.02789455
#
# Stress axis : x y z
#
# Youngs Moduli (GPa) = 74.45906 111.67718 43.83847
#
# Poissons Ratio (x) = 0.09189 0.38235
# Poissons Ratio (y) = 0.06126 -0.03919
# Poissons Ratio (z) = 0.64941 -0.09984
#
# Static dielectric constant tensor:
#      x y z
#    x 2.121740 0.000000 -0.046520 
#    y 0.000000 2.176320 0.000000 
#    z -0.046520 0.000000 2.109350 
# 
# From -- ./inp_files/175703.got.cif
#   From: 2010.05.17/outbox.cif.g08.bks.cpg/sg15_88_cif.got.tgz:175703.got - 2010.06.03 18:47:42.
