data_PCOD9283374
_publ_section_title
;
Structure prediction by ZEFSAII (Michael W. Deem and Ramdas Pophale) SiO2 
 PCOD9283374
Probable space group: C 2/C
;
_chemical_formula_sum "Si O2"
_cell_formula_units_Z 36
_cell_length_a 12.657580
_cell_length_b 20.956028
_cell_length_c 5.548231
_cell_angle_alpha 90.000000
_cell_angle_beta 113.253790
_cell_angle_gamma 90.000000
_cell_volume 1352.130701
_symmetry_space_group_name_H-M "C 2/C"
_symmetry_group_IT_number 15
_symmetry_cell_setting 'monoclinic'
loop_
_space_group_symop_operation_xyz
x,y,z
-x,y,1/2-z
-x,-y,-z
x,-y,1/2+z
1/2+x,1/2+y,z
1/2-x,1/2+y,1/2-z
1/2-x,1/2-y,-z
1/2+x,1/2-y,1/2+z
loop_
_atom_site_type_symbol
_atom_site_label
_atom_site_fract_x
_atom_site_fract_y
_atom_site_fract_z
Si Si1 0.610312 0.463496 0.436090
Si Si2 0.163701 0.698452 0.203190
Si Si3 0.500000 0.105148 0.750000
Si Si4 0.127873 0.829018 0.931920
Si Si5 0.807658 0.398840 0.392233
O O1 0.500000 0.420440 0.250000
O O2 0.601330 0.487140 0.702071
O O3 0.739116 0.436177 0.534576
O O4 0.123168 0.769704 0.113453
O O5 0.154545 0.669026 0.460394
O O6 0.295152 0.694151 0.225857
O O7 0.086560 0.651215 0.972300
O O8 0.583229 0.069938 0.636959
O O9 0.204781 0.884387 0.115450
O O10 0.000000 0.847275 0.750000
#
# Coordination Sequence:
#
# PCOD9283374 Si02
#       5
#     8   8   4   8   8
#     4  10  25  47  73 103 137 171 222 294 359 409
#     4  10  21  40  60  93 138 178 216 275 328 398
#     4  10  22  42  62  92 136 180 220 272 336 398
#     4  10  22  37  61  97 136 173 226 271 332 401
#     4  11  24  40  70  93 131 181 227 276 340 414
#
# _framework density 26.624645000000001
#
# number of rings (size 3 to 8) (size 9 to 14) (size 15 to 20)
#    0.000    1.778    1.111    1.333    9.333    0.889 
#    4.000    1.111    0.000    0.000    0.000    0.000 
#    0.000    0.000    0.000    0.000    0.000    0.000 
#
# Total GULP energy -100686.967685 kJ/mol
# GULP energy per Si atom -5593.720427 kJ/mol
# Density = 2.656405 g / cm^3
# Si number density = 26.624645 Si / 1000 Ang^3
#
#
#
# Elastic Constant Matrix: (Units=GPa)
#
#
# Indices 1 2 3 4 5 6 
#
# 1 205.8653 27.7262 45.3272 0.0000 0.6830 0.0000
# 2 27.7262 29.6553 33.1645 0.0000 -6.0310 0.0000
# 3 45.3272 33.1645 121.1550 0.0000 3.1772 0.0000
# 4 0.0000 0.0000 0.0000 34.3993 0.0000 -1.8537
# 5 0.6830 -6.0310 3.1772 0.0000 47.4153 0.0000
# 6 0.0000 0.0000 0.0000 -1.8537 0.0000 29.3539
#
#
#
# Elastic Compliance Matrix: (Units=1/GPa)
#
#
# Indices 1 2 3 4 5 6 
#
# 1 0.005649 -0.004400 -0.000894 0.000000 -0.000581 0.000000
# 2 -0.004400 0.054524 -0.013486 0.000000 0.007902 0.000000
# 3 -0.000894 -0.013486 0.012346 0.000000 -0.002530 0.000000
# 4 0.000000 0.000000 0.000000 0.029170 0.000000 0.001842
# 5 -0.000581 0.007902 -0.002530 0.000000 0.022273 0.000000
# 6 0.000000 0.000000 0.000000 0.001842 0.000000 0.034183
#
#
# Mechanical properties :
#
#
# Convention : Reuss Voigt Hill
#
# Bulk Modulus (GPa) = 28.60497 63.23461 45.91979
# Shear Modulus (GPa) = 24.11284 38.93087 31.52185
#
# Velocity S-wave (km/s) = 3.01268 3.82804 3.44457
# Velocity P-wave (km/s) = 4.78213 6.58335 5.75366
#
# Compressibility (1/GPa) = 0.03495896
#
# Stress axis : x y z
#
# Youngs Moduli (GPa) = 177.02684 18.34056 80.99641
#
# Poissons Ratio (x) = 0.08070 0.07238
# Poissons Ratio (y) = 0.77895 1.09233
# Poissons Ratio (z) = 0.15820 0.24734
#
# Static dielectric constant tensor:
#      x y z
#    x 2.217740 0.000000 -0.034580 
#    y 0.000000 2.135320 0.000000 
#    z -0.034580 0.000000 2.095560 
# 
# From -- ./inp_files/5115.got.cif
#   From: 2010.05.17/outbox.cif.g08.bks.cpg/sg15_3_cif.got.tgz:5115.got - 2010.06.03 18:47:42.
