data_PCOD9283952
_publ_section_title
;
Structure prediction by ZEFSAII (Michael W. Deem and Ramdas Pophale) SiO2 
 PCOD9283952
Probable space group: C 2/C
;
_chemical_formula_sum "Si O2"
_cell_formula_units_Z 44
_cell_length_a 12.124479
_cell_length_b 9.066613
_cell_length_c 21.594662
_cell_angle_alpha 90.000000
_cell_angle_beta 123.733842
_cell_angle_gamma 90.000000
_cell_volume 1974.161906
_symmetry_space_group_name_H-M "C 2/C"
_symmetry_group_IT_number 15
_symmetry_cell_setting 'monoclinic'
loop_
_space_group_symop_operation_xyz
x,y,z
-x,y,1/2-z
-x,-y,-z
x,-y,1/2+z
1/2+x,1/2+y,z
1/2-x,1/2+y,1/2-z
1/2-x,1/2-y,-z
1/2+x,1/2-y,1/2+z
loop_
_atom_site_type_symbol
_atom_site_label
_atom_site_fract_x
_atom_site_fract_y
_atom_site_fract_z
Si Si1 0.000000 0.514325 0.750000
Si Si2 0.194703 0.023602 0.937940
Si Si3 0.692212 0.816641 0.218832
Si Si4 0.628749 0.857427 0.903581
Si Si5 0.904060 0.462773 0.913952
Si Si6 0.430551 0.485347 0.795828
O O1 0.895427 0.614299 0.753761
O O2 0.915385 0.418565 0.675681
O O3 0.194251 0.197180 0.918675
O O4 0.270169 0.926341 0.909472
O O5 0.272474 0.032395 0.027446
O O6 0.042195 0.979977 0.883802
O O7 0.672951 0.643638 0.220829
O O8 0.629089 0.895814 0.138828
O O9 0.843935 0.867026 0.267836
O O10 0.492045 0.851859 0.900931
O O11 0.000000 0.500000 0.000000
O O12 0.500000 0.469456 0.750000
#
# Coordination Sequence:
#
# PCOD9283952 Si02
#       6
#     4   8   8   8   8   8
#     4  10  22  42  68  94 138 172 218 276 332 396
#     4  10  21  40  65  95 135 172 224 268 330 400
#     4  11  25  43  65  98 134 173 227 278 335 394
#     4   9  21  38  67 100 130 177 216 269 333 399
#     4   9  19  39  65  92 129 172 212 270 330 391
#     4  12  26  43  67 100 133 177 230 279 329 407
#
# _framework density 22.287939000000001
#
# number of rings (size 3 to 8) (size 9 to 14) (size 15 to 20)
#    0.000    1.818    2.727    0.000    8.909    0.000 
#    0.000   10.909    0.000    0.000    0.000    0.000 
#    0.000    0.000    0.000    0.000    0.000    0.000 
#
# Total GULP energy -122832.971930 kJ/mol
# GULP energy per Si atom -5583.316906 kJ/mol
# Density = 2.223721 g / cm^3
# Si number density = 22.287939 Si / 1000 Ang^3
#
#
#
# Elastic Constant Matrix: (Units=GPa)
#
#
# Indices 1 2 3 4 5 6 
#
# 1 90.8567 16.9329 38.3335 0.0000 11.3080 0.0000
# 2 16.9329 31.4730 32.9943 0.0000 8.4136 0.0000
# 3 38.3335 32.9943 146.1900 0.0000 7.2029 0.0000
# 4 0.0000 0.0000 0.0000 12.8750 0.0000 9.4593
# 5 11.3080 8.4136 7.2029 0.0000 37.1291 0.0000
# 6 0.0000 0.0000 0.0000 9.4593 0.0000 32.6044
#
#
#
# Elastic Compliance Matrix: (Units=1/GPa)
#
#
# Indices 1 2 3 4 5 6 
#
# 1 0.013070 -0.003755 -0.002449 0.000000 -0.002655 0.000000
# 2 -0.003755 0.044989 -0.008808 0.000000 -0.007343 0.000000
# 3 -0.002449 -0.008808 0.009425 0.000000 0.000913 0.000000
# 4 0.000000 0.000000 0.000000 0.098710 0.000000 -0.028638
# 5 -0.002655 -0.007343 0.000913 0.000000 0.029228 0.000000
# 6 0.000000 0.000000 0.000000 -0.028638 0.000000 0.038979
#
#
# Mechanical properties :
#
#
# Convention : Reuss Voigt Hill
#
# Bulk Modulus (GPa) = 26.69363 49.44904 38.07133
# Shear Modulus (GPa) = 18.05627 28.53897 23.29762
#
# Velocity S-wave (km/s) = 2.84938 3.58224 3.23662
# Velocity P-wave (km/s) = 4.77786 6.27253 5.57551
#
# Compressibility (1/GPa) = 0.03746212
#
# Stress axis : x y z
#
# Youngs Moduli (GPa) = 76.51269 22.22742 106.09661
#
# Poissons Ratio (x) = 0.08346 0.25982
# Poissons Ratio (y) = 0.28729 0.93445
# Poissons Ratio (z) = 0.18737 0.19577
#
# Static dielectric constant tensor:
#      x y z
#    x 1.870930 0.000000 0.015030 
#    y 0.000000 1.799850 0.000000 
#    z 0.015030 0.000000 1.851310 
# 
# From -- ./inp_files/268155.got.cif
#   From: 2010.05.17/outbox.cif.g08.bks.cpg/sg15_135_cif.got.tgz:268155.got - 2010.06.03 18:47:42.
