data_PCOD9283285
_publ_section_title
;
Structure prediction by ZEFSAII (Michael W. Deem and Ramdas Pophale) SiO2 
 PCOD9283285
Probable space group: C 2/C
;
_chemical_formula_sum "Si O2"
_cell_formula_units_Z 56
_cell_length_a 8.088635
_cell_length_b 30.517743
_cell_length_c 16.734585
_cell_angle_alpha 90.000000
_cell_angle_beta 38.319311
_cell_angle_gamma 90.000000
_cell_volume 2561.325387
_symmetry_space_group_name_H-M "C 2/C"
_symmetry_group_IT_number 15
_symmetry_cell_setting 'monoclinic'
loop_
_space_group_symop_operation_xyz
x,y,z
-x,y,1/2-z
-x,-y,-z
x,-y,1/2+z
1/2+x,1/2+y,z
1/2-x,1/2+y,1/2-z
1/2-x,1/2-y,-z
1/2+x,1/2-y,1/2+z
loop_
_atom_site_type_symbol
_atom_site_label
_atom_site_fract_x
_atom_site_fract_y
_atom_site_fract_z
Si Si1 0.277866 0.345046 0.168157
Si Si2 0.191511 0.531202 0.334854
Si Si3 0.126154 0.718206 0.866736
Si Si4 0.460978 0.688635 0.428064
Si Si5 0.209424 0.643680 0.942184
Si Si6 0.179869 0.560051 0.874883
Si Si7 0.656386 0.878201 0.772351
O O1 0.192802 0.304972 0.257810
O O2 0.510490 0.371510 0.124778
O O3 0.000000 0.368523 0.250000
O O4 0.408603 0.326597 0.038150
O O5 0.500000 0.531782 0.250000
O O6 0.114330 0.481026 0.341684
O O7 0.181481 0.569680 0.274074
O O8 0.975924 0.545280 0.484761
O O9 0.259599 0.691791 0.888460
O O10 0.160443 0.770032 0.851258
O O11 0.815246 0.706997 0.001054
O O12 0.566807 0.647261 0.339583
O O13 0.120303 0.612129 0.902483
O O14 0.998755 0.640646 0.092573
O O15 0.500000 0.559061 0.750000
O O16 0.500000 0.868688 0.750000
#
# Coordination Sequence:
#
# PCOD9283285 Si02
#       7
#     8   8   8   8   8   8   8
#     4  10  21  40  57  84 127 164 205 257 313 368
#     4   9  20  37  63  93 119 158 204 266 313 376
#     4  10  23  38  61  89 123 169 217 261 302 369
#     4  10  23  40  56  88 131 168 208 262 314 365
#     4  11  22  38  64  93 117 166 215 255 309 378
#     4   9  18  36  62  91 120 147 202 267 309 363
#     4  11  23  39  60  89 131 164 202 257 319 377
#
# _framework density 21.863679999999999
#
# number of rings (size 3 to 8) (size 9 to 14) (size 15 to 20)
#    0.000    2.000    1.429    1.286    6.000    1.714 
#    0.000    0.000    0.000   34.286    0.000    0.000 
#    0.000    0.000    0.000    0.000    0.000    0.000 
#
# Total GULP energy -155960.384180 kJ/mol
# GULP energy per Si atom -5570.013721 kJ/mol
# Density = 2.181392 g / cm^3
# Si number density = 21.863680 Si / 1000 Ang^3
#
#
#
# Elastic Constant Matrix: (Units=GPa)
#
#
# Indices 1 2 3 4 5 6 
#
# 1 59.0030 5.7458 18.5142 0.0000 -5.7790 0.0000
# 2 5.7458 98.8750 27.2937 0.0000 8.2205 0.0000
# 3 18.5142 27.2937 125.4692 0.0000 2.1688 0.0000
# 4 0.0000 0.0000 0.0000 28.9394 0.0000 -2.0983
# 5 -5.7790 8.2205 2.1688 0.0000 27.3709 0.0000
# 6 0.0000 0.0000 0.0000 -2.0983 0.0000 19.6465
#
#
#
# Elastic Compliance Matrix: (Units=1/GPa)
#
#
# Indices 1 2 3 4 5 6 
#
# 1 0.018255 -0.000694 -0.002617 0.000000 0.004270 0.000000
# 2 -0.000694 0.011047 -0.002244 0.000000 -0.003286 0.000000
# 3 -0.002617 -0.002244 0.008854 0.000000 -0.000580 0.000000
# 4 0.000000 0.000000 0.000000 0.034825 0.000000 0.003719
# 5 0.004270 -0.003286 -0.000580 0.000000 0.038470 0.000000
# 6 0.000000 0.000000 0.000000 0.003719 0.000000 0.051297
#
#
# Mechanical properties :
#
#
# Convention : Reuss Voigt Hill
#
# Bulk Modulus (GPa) = 36.97126 42.93940 39.95533
# Shear Modulus (GPa) = 27.34160 30.64427 28.99294
#
# Velocity S-wave (km/s) = 3.54015 3.74786 3.64549
# Velocity P-wave (km/s) = 5.80145 6.19765 6.00282
#
# Compressibility (1/GPa) = 0.02704803
#
# Stress axis : x y z
#
# Youngs Moduli (GPa) = 54.77913 90.52462 112.93891
#
# Poissons Ratio (x) = 0.06278 0.29552
# Poissons Ratio (y) = 0.03799 0.25342
# Poissons Ratio (z) = 0.14334 0.20313
#
# Static dielectric constant tensor:
#      x y z
#    x 1.855650 0.000000 -0.068290 
#    y 0.000000 1.844310 0.000000 
#    z -0.068290 0.000000 1.815030 
# 
# From -- ./inp_files/194062.got.cif
#   From: 2010.05.17/outbox.cif.g08.bks.cpg/sg15_98_cif.got.tgz:194062.got - 2010.06.03 18:47:42.
