data_PCOD9283341
_publ_section_title
;
Structure prediction by ZEFSAII (Michael W. Deem and Ramdas Pophale) SiO2 
 PCOD9283341
Probable space group: C 2/C
;
_chemical_formula_sum "Si O2"
_cell_formula_units_Z 64
_cell_length_a 19.498921
_cell_length_b 12.202485
_cell_length_c 28.603016
_cell_angle_alpha 90.000000
_cell_angle_beta 28.512663
_cell_angle_gamma 90.000000
_cell_volume 3248.705372
_symmetry_space_group_name_H-M "C 2/C"
_symmetry_group_IT_number 15
_symmetry_cell_setting 'monoclinic'
loop_
_space_group_symop_operation_xyz
x,y,z
-x,y,1/2-z
-x,-y,-z
x,-y,1/2+z
1/2+x,1/2+y,z
1/2-x,1/2+y,1/2-z
1/2-x,1/2-y,-z
1/2+x,1/2-y,1/2+z
loop_
_atom_site_type_symbol
_atom_site_label
_atom_site_fract_x
_atom_site_fract_y
_atom_site_fract_z
Si Si1 0.485173 0.612728 0.614875
Si Si2 0.265300 0.479400 0.476279
Si Si3 0.671692 0.639683 0.146641
Si Si4 0.276112 0.329584 0.028024
Si Si5 0.632568 0.182253 0.987383
Si Si6 0.336133 0.065492 0.141081
Si Si7 0.724863 0.181739 0.833536
Si Si8 0.400935 0.386116 0.639429
O O1 0.578283 0.557440 0.600253
O O2 0.586831 0.695020 0.526547
O O3 0.360534 0.676020 0.717455
O O4 0.428717 0.516082 0.614565
O O5 0.275539 0.561445 0.426616
O O6 0.209512 0.553003 0.553162
O O7 0.181058 0.376621 0.506086
O O8 0.500000 0.630440 0.250000
O O9 0.753245 0.599224 0.143690
O O10 0.713292 0.764989 0.109654
O O11 0.446776 0.344681 0.931625
O O12 0.250000 0.250000 0.000000
O O13 0.746613 0.176309 0.876580
O O14 0.489749 0.121505 0.054371
O O15 0.228905 0.107126 0.245752
O O16 0.353157 0.933532 0.132508
O O17 0.642031 0.294943 0.872743
#
# Coordination Sequence:
#
# PCOD9283341 Si02
#       8
#     8   8   8   8   8   8   8   8
#     4  10  23  43  59  91 124 163 210 252 312 378
#     4  10  22  38  62  86 124 166 205 259 306 378
#     4  11  20  37  62  95 123 159 212 261 314 371
#     4   9  19  34  57  85 120 161 193 246 315 363
#     4  12  23  38  65  92 122 164 213 253 308 371
#     4  11  22  37  60  97 121 153 212 269 303 375
#     4  11  22  38  63  88 123 158 204 263 313 368
#     4  10  21  40  60  85 127 160 200 256 324 366
#
# _framework density 19.700154999999999
#
# number of rings (size 3 to 8) (size 9 to 14) (size 15 to 20)
#    0.000    1.500    2.500    4.500    3.500    0.500 
#    0.000    0.000    5.500    0.000    0.000    0.000 
#    0.000    0.000    0.000    0.000    0.000    0.000 
#
# Total GULP energy -178337.807236 kJ/mol
# GULP energy per Si atom -5573.056476 kJ/mol
# Density = 1.965532 g / cm^3
# Si number density = 19.700155 Si / 1000 Ang^3
#
#
#
# Elastic Constant Matrix: (Units=GPa)
#
#
# Indices 1 2 3 4 5 6 
#
# 1 49.1365 34.6899 -4.8390 0.0007 -7.9816 0.0004
# 2 34.6899 108.1726 8.4787 -0.0001 3.9274 0.0002
# 3 -4.8390 8.4787 24.5633 -0.0004 -3.3591 -0.0001
# 4 0.0007 -0.0001 -0.0004 26.9918 -0.0006 -10.8673
# 5 -7.9816 3.9274 -3.3591 -0.0006 23.9288 -0.0001
# 6 0.0004 0.0002 -0.0001 -10.8673 -0.0001 22.0179
#
#
#
# Elastic Compliance Matrix: (Units=1/GPa)
#
#
# Indices 1 2 3 4 5 6 
#
# 1 0.032296 -0.011857 0.012433 -0.000001 0.014464 -0.000001
# 2 -0.011857 0.013955 -0.008163 0.000000 -0.007391 0.000000
# 3 0.012433 -0.008163 0.047643 0.000001 0.012175 0.000001
# 4 -0.000001 0.000000 0.000001 0.046236 0.000001 0.022821
# 5 0.014464 -0.007391 0.012175 0.000001 0.049537 0.000001
# 6 -0.000001 0.000000 0.000001 0.022821 0.000001 0.056681
#
#
# Mechanical properties :
#
#
# Convention : Reuss Voigt Hill
#
# Bulk Modulus (GPa) = 12.70327 28.72573 20.71450
# Shear Modulus (GPa) = 17.37539 24.15722 20.76630
#
# Velocity S-wave (km/s) = 2.97306 3.50558 3.25024
# Velocity P-wave (km/s) = 4.27174 5.56764 4.96217
#
# Compressibility (1/GPa) = 0.07871987
#
# Stress axis : x y z
#
# Youngs Moduli (GPa) = 30.96356 71.65879 20.98933
#
# Poissons Ratio (x) = 0.84963 -0.26096
# Poissons Ratio (y) = 0.36712 0.17135
# Poissons Ratio (z) = -0.38497 0.58499
#
# Static dielectric constant tensor:
#      x y z
#    x 1.718890 0.000000 0.010000 
#    y 0.000000 1.743610 0.000000 
#    z 0.010000 0.000000 1.694650 
# 
# From -- ./inp_files/316165.got.cif
#   From: 2010.05.17/outbox.cif.g08.bks.cpg/sg15_159_cif.got.tgz:316165.got - 2010.06.03 18:47:42.
