data_PCOD9283696
_publ_section_title
;
Structure prediction by ZEFSAII (Michael W. Deem and Ramdas Pophale) SiO2 
 PCOD9283696
Probable space group: C 2/C
;
_chemical_formula_sum "Si O2"
_cell_formula_units_Z 60
_cell_length_a 23.938501
_cell_length_b 21.214379
_cell_length_c 11.639964
_cell_angle_alpha 90.000000
_cell_angle_beta 23.401331
_cell_angle_gamma 90.000000
_cell_volume 2347.764253
_symmetry_space_group_name_H-M "C 2/C"
_symmetry_group_IT_number 15
_symmetry_cell_setting 'monoclinic'
loop_
_space_group_symop_operation_xyz
x,y,z
-x,y,1/2-z
-x,-y,-z
x,-y,1/2+z
1/2+x,1/2+y,z
1/2-x,1/2+y,1/2-z
1/2-x,1/2-y,-z
1/2+x,1/2-y,1/2+z
loop_
_atom_site_type_symbol
_atom_site_label
_atom_site_fract_x
_atom_site_fract_y
_atom_site_fract_z
Si Si1 0.140700 0.097919 0.284341
Si Si2 0.700844 0.118826 0.285035
Si Si3 0.258811 0.849411 0.332966
Si Si4 0.238786 0.519543 0.033526
Si Si5 0.012907 0.699257 0.930960
Si Si6 0.426855 0.708350 0.774010
Si Si7 0.517235 0.947340 0.603674
Si Si8 0.000000 0.791042 0.750000
O O1 0.264132 0.110022 0.146463
O O2 0.018703 0.146609 0.557430
O O3 0.162055 0.115940 0.110928
O O4 0.150264 0.021066 0.249265
O O5 0.775176 0.060819 0.076477
O O6 0.550077 0.136223 0.511611
O O7 0.782648 0.181169 0.092853
O O8 0.348823 0.807083 0.251422
O O9 0.145183 0.827714 0.454402
O O10 0.384620 0.890054 0.042454
O O11 0.118775 0.473187 0.312141
O O12 0.140045 0.563714 0.142104
O O13 0.043936 0.746538 0.770357
O O14 0.914016 0.737842 0.204444
O O15 0.500000 0.735132 0.750000
O O16 0.500000 0.990817 0.750000
#
# Coordination Sequence:
#
# PCOD9283696 Si02
#       8
#     8   8   8   8   8   8   8   4
#     4  10  22  44  69  98 143 179 231 296 343 431
#     4  11  23  42  68 103 131 190 230 284 365 408
#     4  11  24  44  65 100 137 178 230 284 353 417
#     4  10  21  40  67  99 131 175 235 283 347 420
#     4  12  24  43  67 101 139 182 242 285 341 440
#     4  10  24  42  66  96 146 186 227 286 348 418
#     4  10  21  40  63  97 130 166 219 292 344 402
#     4  12  26  40  72  98 136 192 228 288 360 424
#
# _framework density 25.556228999999998
#
# number of rings (size 3 to 8) (size 9 to 14) (size 15 to 20)
#    0.000    1.333    2.667    2.400    3.733    2.133 
#    1.200    0.000   17.600    0.000    0.000    0.000 
#    0.000    0.000    0.000    0.000    0.000    0.000 
#
# Total GULP energy -167017.467899 kJ/mol
# GULP energy per Si atom -5567.248930 kJ/mol
# Density = 2.549806 g / cm^3
# Si number density = 25.556229 Si / 1000 Ang^3
#
#
#
# Elastic Constant Matrix: (Units=GPa)
#
#
# Indices 1 2 3 4 5 6 
#
# 1 82.1146 16.8580 35.5793 0.0175 -13.4309 -0.0124
# 2 16.8580 53.9457 14.0635 0.0153 -17.3688 -0.0105
# 3 35.5793 14.0635 46.6825 0.0206 -7.5308 -0.0151
# 4 0.0175 0.0153 0.0206 -52.2008 -0.0124 26.5276
# 5 -13.4309 -17.3688 -7.5308 -0.0124 40.8758 0.0098
# 6 -0.0124 -0.0105 -0.0151 26.5276 0.0098 31.1126
#
#
#
# Elastic Compliance Matrix: (Units=1/GPa)
#
#
# Indices 1 2 3 4 5 6 
#
# 1 0.018772 -0.001371 -0.013391 0.000000 0.003118 0.000000
# 2 -0.001371 0.022848 -0.004478 0.000003 0.008433 0.000000
# 3 -0.013391 -0.004478 0.032938 0.000008 -0.000234 0.000002
# 4 0.000000 0.000003 0.000008 -0.013366 -0.000004 0.011396
# 5 0.003118 0.008433 -0.000234 -0.000004 0.029029 -0.000002
# 6 0.000000 0.000000 0.000002 0.011396 -0.000002 0.022425
#
#
# Mechanical properties :
#
#
# Convention : Reuss Voigt Hill
#
# Bulk Modulus (GPa) = 27.71715 35.08269 31.39992
# Shear Modulus (GPa) = 30.64621 11.70700 21.17661
#
# Velocity S-wave (km/s) = 3.46666 2.14262 2.88171
# Velocity P-wave (km/s) = 5.18582 4.45854 4.83587
#
# Compressibility (1/GPa) = 0.03607874
#
# Stress axis : x y z
#
# Youngs Moduli (GPa) = 53.27156 43.76723 30.35974
#
# Poissons Ratio (x) = 0.06001 0.40654
# Poissons Ratio (y) = 0.07305 0.13594
# Poissons Ratio (z) = 0.71335 0.19598
#
# Static dielectric constant tensor:
#      x y z
#    x 2.120670 -0.000020 -0.036340 
#    y -0.000020 2.200410 0.000000 
#    z -0.036340 0.000000 2.126430 
# 
# From -- ./inp_files/119916.got.cif
#   From: 2010.05.17/outbox.cif.g08.bks.cpg/sg15_60_cif.got.tgz:119916.got - 2010.06.03 18:47:42.
