data_PCOD9283575
_publ_section_title
;
Structure prediction by ZEFSAII (Michael W. Deem and Ramdas Pophale) SiO2 
 PCOD9283575
Probable space group: C 2/C
;
_chemical_formula_sum "Si O2"
_cell_formula_units_Z 52
_cell_length_a 17.653172
_cell_length_b 17.852559
_cell_length_c 8.287260
_cell_angle_alpha 90.000000
_cell_angle_beta 55.330748
_cell_angle_gamma 90.000000
_cell_volume 2148.045109
_symmetry_space_group_name_H-M "C 2/C"
_symmetry_group_IT_number 15
_symmetry_cell_setting 'monoclinic'
loop_
_space_group_symop_operation_xyz
x,y,z
-x,y,1/2-z
-x,-y,-z
x,-y,1/2+z
1/2+x,1/2+y,z
1/2-x,1/2+y,1/2-z
1/2-x,1/2-y,-z
1/2+x,1/2-y,1/2+z
loop_
_atom_site_type_symbol
_atom_site_label
_atom_site_fract_x
_atom_site_fract_y
_atom_site_fract_z
Si Si1 0.720961 0.111496 0.961239
Si Si2 0.430314 0.837097 0.061558
Si Si3 0.861284 0.342603 0.665271
Si Si4 0.000000 0.050318 0.750000
Si Si5 0.104883 0.535501 0.650801
Si Si6 0.100697 0.083822 0.957730
Si Si7 0.855880 0.772758 0.913372
O O1 0.649131 0.170468 0.972181
O O2 0.799633 0.090182 0.744779
O O3 0.733083 0.148045 0.121632
O O4 0.668722 0.035597 0.074942
O O5 0.399532 0.915282 0.182981
O O6 0.418336 0.772207 0.209618
O O7 0.535746 0.847187 0.883307
O O8 0.864679 0.406255 0.523529
O O9 0.864398 0.262860 0.579094
O O10 0.075188 0.993720 0.578263
O O11 0.962080 0.091768 0.632242
O O12 0.000000 0.511601 0.750000
O O13 0.108937 0.143617 0.095715
O O14 0.750000 0.750000 0.000000
#
# Coordination Sequence:
#
# PCOD9283575 Si02
#       7
#     8   8   8   4   8   8   8
#     4  12  22  37  66 105 139 180 227 297 349 421
#     4  10  21  40  63 102 140 187 231 277 365 439
#     4  10  23  38  63 101 145 176 233 279 356 442
#     4  10  28  56  74 108 136 188 258 308 378 418
#     4   9  19  35  60  95 140 186 217 265 345 433
#     4  11  27  50  76 102 137 183 250 312 361 431
#     4  11  23  47  70 100 134 194 241 295 357 422
#
# _framework density 24.208058999999999
#
# number of rings (size 3 to 8) (size 9 to 14) (size 15 to 20)
#    0.000    1.538    1.538    3.692    6.462    3.077 
#    5.538    0.000    0.000    0.000    0.000    0.000 
#    0.000    0.000    0.000    0.000    0.000    0.000 
#
# Total GULP energy -145021.332355 kJ/mol
# GULP energy per Si atom -5577.743552 kJ/mol
# Density = 2.415296 g / cm^3
# Si number density = 24.208059 Si / 1000 Ang^3
#
#
#
# Elastic Constant Matrix: (Units=GPa)
#
#
# Indices 1 2 3 4 5 6 
#
# 1 67.0903 11.5362 -3.2197 0.0000 2.2074 0.0000
# 2 11.5362 70.4046 1.5790 0.0000 -1.1613 0.0000
# 3 -3.2197 1.5790 125.1250 0.0000 -16.9264 0.0000
# 4 0.0000 0.0000 0.0000 -17.4785 0.0000 -4.1658
# 5 2.2074 -1.1613 -16.9264 0.0000 27.2246 0.0000
# 6 0.0000 0.0000 0.0000 -4.1658 0.0000 23.5529
#
#
#
# Elastic Compliance Matrix: (Units=1/GPa)
#
#
# Indices 1 2 3 4 5 6 
#
# 1 0.015395 -0.002548 0.000267 0.000000 -0.001191 0.000000
# 2 -0.002548 0.014637 -0.000151 0.000000 0.000737 0.000000
# 3 0.000267 -0.000151 0.008731 0.000000 0.005400 0.000000
# 4 0.000000 0.000000 0.000000 -0.054899 0.000000 -0.009710
# 5 -0.001191 0.000737 0.005400 0.000000 0.040217 0.000000
# 6 0.000000 0.000000 0.000000 -0.009710 0.000000 0.040740
#
#
# Mechanical properties :
#
#
# Convention : Reuss Voigt Hill
#
# Bulk Modulus (GPa) = 29.49824 31.37899 30.43862
# Shear Modulus (GPa) = 61.73960 23.50809 42.62384
#
# Velocity S-wave (km/s) = 5.05560 3.11960 4.20066
# Velocity P-wave (km/s) = 6.80372 5.09571 6.01069
#
# Compressibility (1/GPa) = 0.03390033
#
# Stress axis : x y z
#
# Youngs Moduli (GPa) = 64.95416 68.32134 114.53003
#
# Poissons Ratio (x) = 0.17410 -0.03060
# Poissons Ratio (y) = 0.16552 0.01724
# Poissons Ratio (z) = -0.01736 0.01028
#
# Static dielectric constant tensor:
#      x y z
#    x 2.071730 0.000000 0.064280 
#    y 0.000000 2.003330 0.000000 
#    z 0.064280 0.000000 1.989370 
# 
# From -- ./inp_files/56945.got.cif
#   From: 2010.05.17/outbox.cif.g08.bks.cpg/sg15_29_cif.got.tgz:56945.got - 2010.06.03 18:47:42.
