data_PCOD9283472
_publ_section_title
;
Structure prediction by ZEFSAII (Michael W. Deem and Ramdas Pophale) SiO2 
 PCOD9283472
Probable space group: C 2/C
;
_chemical_formula_sum "Si O2"
_cell_formula_units_Z 40
_cell_length_a 17.674367
_cell_length_b 11.069073
_cell_length_c 12.027840
_cell_angle_alpha 90.000000
_cell_angle_beta 56.429389
_cell_angle_gamma 90.000000
_cell_volume 1960.625389
_symmetry_space_group_name_H-M "C 2/C"
_symmetry_group_IT_number 15
_symmetry_cell_setting 'monoclinic'
loop_
_space_group_symop_operation_xyz
x,y,z
-x,y,1/2-z
-x,-y,-z
x,-y,1/2+z
1/2+x,1/2+y,z
1/2-x,1/2+y,1/2-z
1/2-x,1/2-y,-z
1/2+x,1/2-y,1/2+z
loop_
_atom_site_type_symbol
_atom_site_label
_atom_site_fract_x
_atom_site_fract_y
_atom_site_fract_z
Si Si1 0.313255 0.106279 0.857326
Si Si2 0.766195 0.347091 0.643907
Si Si3 0.502650 0.662800 0.618585
Si Si4 0.059289 0.574650 0.363357
Si Si5 0.144001 0.000473 0.379460
O O1 0.295981 0.227440 0.799458
O O2 0.399040 0.023415 0.756636
O O3 0.219771 0.037542 0.906384
O O4 0.311473 0.144556 0.986468
O O5 0.849213 0.365258 0.660349
O O6 0.697749 0.454519 0.727567
O O7 0.500000 0.621242 0.750000
O O8 0.498377 0.808207 0.624819
O O9 0.587976 0.606767 0.484296
O O10 0.420795 0.605873 0.611481
O O11 0.000000 0.500000 0.500000
#
# Coordination Sequence:
#
# PCOD9283472 Si02
#       5
#     8   8   8   8   8
#     4  10  21  40  62  85 116 159 203 242 297 358
#     4  10  21  40  62  84 116 159 201 242 300 353
#     4  11  23  39  61  89 122 155 202 245 307 358
#     4  11  24  39  59  91 124 154 198 256 301 360
#     4  10  21  41  60  87 117 157 197 253 290 363
#
# _framework density 20.401654000000001
#
# number of rings (size 3 to 8) (size 9 to 14) (size 15 to 20)
#    0.000    1.600    2.000    2.400    2.800    0.000 
#    0.000    3.000    0.000    0.000    0.000    0.000 
#    0.000    0.000    0.000    0.000    0.000    0.000 
#
# Total GULP energy -111460.991577 kJ/mol
# GULP energy per Si atom -5573.049579 kJ/mol
# Density = 2.035522 g / cm^3
# Si number density = 20.401654 Si / 1000 Ang^3
#
#
#
# Elastic Constant Matrix: (Units=GPa)
#
#
# Indices 1 2 3 4 5 6 
#
# 1 15.0217 -1.1942 -9.3204 0.0000 1.2656 0.0000
# 2 -1.1942 91.7228 14.7864 0.0000 1.1818 0.0000
# 3 -9.3204 14.7864 59.9714 0.0000 7.3872 0.0000
# 4 0.0000 0.0000 0.0000 122.6635 0.0000 -35.0454
# 5 1.2656 1.1818 7.3872 0.0000 15.0472 0.0000
# 6 0.0000 0.0000 0.0000 -35.0454 0.0000 37.0757
#
#
#
# Elastic Compliance Matrix: (Units=1/GPa)
#
#
# Indices 1 2 3 4 5 6 
#
# 1 0.076078 -0.001048 0.013688 0.000000 -0.013036 0.000000
# 2 -0.001048 0.011372 -0.003052 0.000000 0.000693 0.000000
# 3 0.013688 -0.003052 0.020933 0.000000 -0.011188 0.000000
# 4 0.000000 0.000000 0.000000 0.011169 0.000000 0.010557
# 5 -0.013036 0.000693 -0.011188 0.000000 0.072992 0.000000
# 6 0.000000 0.000000 0.000000 0.010557 0.000000 0.036951
#
#
# Mechanical properties :
#
#
# Convention : Reuss Voigt Hill
#
# Bulk Modulus (GPa) = 7.83956 19.47326 13.65641
# Shear Modulus (GPa) = 19.77551 45.78691 32.78121
#
# Velocity S-wave (km/s) = 3.11675 4.74252 4.01283
# Velocity P-wave (km/s) = 4.09916 6.28922 5.30836
#
# Compressibility (1/GPa) = 0.12755820
#
# Stress axis : x y z
#
# Youngs Moduli (GPa) = 13.14433 87.93636 47.77245
#
# Poissons Ratio (x) = 0.09217 -0.65390
# Poissons Ratio (y) = 0.01378 0.14581
# Poissons Ratio (z) = -0.17992 0.26839
#
# Static dielectric constant tensor:
#      x y z
#    x 1.742870 0.000000 0.033270 
#    y 0.000000 1.770880 0.000000 
#    z 0.033270 0.000000 1.705300 
# 
# From -- ./inp_files/103578.got.cif
#   From: 2010.05.17/outbox.cif.g08.bks.cpg/sg15_52_cif.got.tgz:103578.got - 2010.06.03 18:47:42.
