data_PCOD9283910
_publ_section_title
;
Structure prediction by ZEFSAII (Michael W. Deem and Ramdas Pophale) SiO2 
 PCOD9283910
Probable space group: C 2/C
;
_chemical_formula_sum "Si O2"
_cell_formula_units_Z 40
_cell_length_a 14.387591
_cell_length_b 7.083430
_cell_length_c 18.785360
_cell_angle_alpha 90.000000
_cell_angle_beta 58.535420
_cell_angle_gamma 90.000000
_cell_volume 1632.982042
_symmetry_space_group_name_H-M "C 2/C"
_symmetry_group_IT_number 15
_symmetry_cell_setting 'monoclinic'
loop_
_space_group_symop_operation_xyz
x,y,z
-x,y,1/2-z
-x,-y,-z
x,-y,1/2+z
1/2+x,1/2+y,z
1/2-x,1/2+y,1/2-z
1/2-x,1/2-y,-z
1/2+x,1/2-y,1/2+z
loop_
_atom_site_type_symbol
_atom_site_label
_atom_site_fract_x
_atom_site_fract_y
_atom_site_fract_z
Si Si1 0.299120 0.985964 0.969479
Si Si2 0.637497 0.361351 0.627211
Si Si3 0.878023 0.970946 0.081758
Si Si4 0.972735 0.587234 0.088771
Si Si5 0.600416 0.719171 0.299581
O O1 0.349552 0.193400 0.935661
O O2 0.209584 0.979942 0.943663
O O3 0.406610 0.858117 0.929319
O O4 0.229629 0.989187 0.069903
O O5 0.511008 0.404531 0.666988
O O6 0.650324 0.280907 0.701297
O O7 0.892253 0.760075 0.106881
O O8 0.843998 0.106764 0.159719
O O9 0.000000 0.000000 0.000000
O O10 0.924554 0.428208 0.160771
O O11 0.000000 0.500000 0.000000
#
# Coordination Sequence:
#
# PCOD9283910 Si02
#       5
#     8   8   8   8   8
#     4  10  21  41  69  95 128 176 225 266 335 400
#     4   9  18  40  66  89 128 173 210 273 327 382
#     4  12  22  42  64  99 133 169 223 273 326 403
#     4  11  22  41  69  92 127 177 218 268 335 394
#     4  10  21  40  65  92 132 170 212 275 334 381
#
# _framework density 24.495065
#
# number of rings (size 3 to 8) (size 9 to 14) (size 15 to 20)
#    0.000    1.600    4.000    2.400    0.000    0.800 
#    7.200    8.000    0.000    0.000    0.000    0.000 
#    0.000    0.000    0.000    0.000    0.000    0.000 
#
# Total GULP energy -111677.499065 kJ/mol
# GULP energy per Si atom -5583.874953 kJ/mol
# Density = 2.443931 g / cm^3
# Si number density = 24.495065 Si / 1000 Ang^3
#
#
#
# Elastic Constant Matrix: (Units=GPa)
#
#
# Indices 1 2 3 4 5 6 
#
# 1 159.2048 32.9398 40.2997 0.0000 5.8731 0.0001
# 2 32.9398 93.4216 33.4760 0.0000 6.5114 0.0002
# 3 40.2997 33.4760 134.1783 0.0000 25.2653 0.0000
# 4 0.0000 0.0000 0.0000 20.5253 0.0000 9.1619
# 5 5.8731 6.5114 25.2653 0.0000 38.3286 0.0000
# 6 0.0001 0.0002 0.0000 9.1619 0.0000 27.6554
#
#
#
# Elastic Compliance Matrix: (Units=1/GPa)
#
#
# Indices 1 2 3 4 5 6 
#
# 1 0.007100 -0.001911 -0.001726 0.000000 0.000375 0.000000
# 2 -0.001911 0.012270 -0.002455 0.000000 -0.000174 0.000000
# 3 -0.001726 -0.002455 0.009653 0.000000 -0.005682 0.000000
# 4 0.000000 0.000000 0.000000 0.057175 0.000000 -0.018941
# 5 0.000375 -0.000174 -0.005682 0.000000 0.029808 0.000000
# 6 0.000000 0.000000 0.000000 -0.018941 0.000000 0.042434
#
#
# Mechanical properties :
#
#
# Convention : Reuss Voigt Hill
#
# Bulk Modulus (GPa) = 59.38364 66.69287 63.03825
# Shear Modulus (GPa) = 28.37104 35.97449 32.17277
#
# Velocity S-wave (km/s) = 3.40698 3.83644 3.62807
# Velocity P-wave (km/s) = 6.30654 6.84913 6.58343
#
# Compressibility (1/GPa) = 0.01683966
#
# Stress axis : x y z
#
# Youngs Moduli (GPa) = 140.85090 81.50251 103.58994
#
# Poissons Ratio (x) = 0.15574 0.17881
# Poissons Ratio (y) = 0.26915 0.25426
# Poissons Ratio (z) = 0.24313 0.20005
#
# Static dielectric constant tensor:
#      x y z
#    x 2.021400 0.000000 -0.038820 
#    y 0.000000 2.017530 0.000000 
#    z -0.038820 0.000000 1.955290 
# 
# From -- ./inp_files/202486.got.cif
#   From: 2010.05.17/outbox.cif.g08.bks.cpg/sg15_102_cif.got.tgz:202486.got - 2010.06.03 18:47:42.
