data_PCOD9283509
_publ_section_title
;
Structure prediction by ZEFSAII (Michael W. Deem and Ramdas Pophale) SiO2 
 PCOD9283509
Probable space group: C 2/C
;
_chemical_formula_sum "Si O2"
_cell_formula_units_Z 56
_cell_length_a 5.138213
_cell_length_b 23.104573
_cell_length_c 22.042646
_cell_angle_alpha 90.000000
_cell_angle_beta 108.407175
_cell_angle_gamma 90.000000
_cell_volume 2482.933844
_symmetry_space_group_name_H-M "C 2/C"
_symmetry_group_IT_number 15
_symmetry_cell_setting 'monoclinic'
loop_
_space_group_symop_operation_xyz
x,y,z
-x,y,1/2-z
-x,-y,-z
x,-y,1/2+z
1/2+x,1/2+y,z
1/2-x,1/2+y,1/2-z
1/2-x,1/2-y,-z
1/2+x,1/2-y,1/2+z
loop_
_atom_site_type_symbol
_atom_site_label
_atom_site_fract_x
_atom_site_fract_y
_atom_site_fract_z
Si Si1 0.002768 0.457108 0.092015
Si Si2 0.581921 0.612143 0.411515
Si Si3 0.399949 0.276301 0.671902
Si Si4 0.732859 0.897265 0.315288
Si Si5 0.298969 0.069547 0.019612
Si Si6 0.901762 0.789944 0.174197
Si Si7 0.506622 0.518007 0.314599
O O1 0.800089 0.502880 0.044257
O O2 0.189462 0.495171 0.150116
O O3 0.871982 0.408479 0.124409
O O4 0.199041 0.434466 0.052838
O O5 0.560628 0.668566 0.368281
O O6 0.900519 0.595522 0.442681
O O7 0.434317 0.561286 0.362506
O O8 0.430510 0.608285 0.465030
O O9 0.500000 0.285382 0.750000
O O10 0.085264 0.255479 0.650106
O O11 0.584175 0.225788 0.654694
O O12 0.500000 0.876442 0.250000
O O13 0.987437 0.853465 0.332950
O O14 0.825335 0.960538 0.299354
O O15 0.000000 0.780859 0.250000
O O16 0.500000 0.549239 0.250000
#
# Coordination Sequence:
#
# PCOD9283509 Si02
#       7
#     8   8   8   8   8   8   8
#     4  10  23  38  58  89 128 167 206 243 309 372
#     4  11  22  40  64  89 123 161 207 259 309 356
#     4  10  21  40  62  90 119 162 205 256 304 371
#     4  12  22  37  61  92 130 160 195 254 315 378
#     4  10  23  40  61  88 123 169 212 250 291 377
#     4  10  22  38  60  87 123 161 205 242 306 375
#     4  11  22  35  58  96 129 156 191 256 322 382
#
# _framework density 22.553963
#
# number of rings (size 3 to 8) (size 9 to 14) (size 15 to 20)
#    0.000    1.429    2.857    3.000    4.000    1.714 
#    0.000    2.143    0.000    5.143    0.000    0.000 
#    0.000    0.000    0.000    0.000    0.000    0.000 
#
# Total GULP energy -156515.262137 kJ/mol
# GULP energy per Si atom -5589.830791 kJ/mol
# Density = 2.250263 g / cm^3
# Si number density = 22.553963 Si / 1000 Ang^3
#
#
#
# Elastic Constant Matrix: (Units=GPa)
#
#
# Indices 1 2 3 4 5 6 
#
# 1 95.4765 32.5530 37.8706 0.0000 -23.6828 0.0000
# 2 32.5530 90.8055 28.5670 0.0000 -17.6156 0.0000
# 3 37.8706 28.5670 91.8818 0.0000 -21.6122 0.0000
# 4 0.0000 0.0000 0.0000 15.6988 0.0000 -12.8238
# 5 -23.6828 -17.6156 -21.6122 0.0000 43.7251 0.0000
# 6 0.0000 0.0000 0.0000 -12.8238 0.0000 28.4257
#
#
#
# Elastic Compliance Matrix: (Units=1/GPa)
#
#
# Indices 1 2 3 4 5 6 
#
# 1 0.014141 -0.002979 -0.003828 0.000000 0.004567 0.000000
# 2 -0.002979 0.013310 -0.002295 0.000000 0.002614 0.000000
# 3 -0.003828 -0.002295 0.014110 0.000000 0.003976 0.000000
# 4 0.000000 0.000000 0.000000 0.100872 0.000000 0.045507
# 5 0.004567 0.002614 0.003976 0.000000 0.028362 0.000000
# 6 0.000000 0.000000 0.000000 0.045507 0.000000 0.055709
#
#
# Mechanical properties :
#
#
# Convention : Reuss Voigt Hill
#
# Bulk Modulus (GPa) = 42.81589 52.90500 47.86045
# Shear Modulus (GPa) = 19.80248 29.51481 24.65864
#
# Velocity S-wave (km/s) = 2.96633 3.62142 3.31012
# Velocity P-wave (km/s) = 5.54591 6.40268 5.98963
#
# Compressibility (1/GPa) = 0.02335581
#
# Stress axis : x y z
#
# Youngs Moduli (GPa) = 70.71825 75.13286 70.87061
#
# Poissons Ratio (x) = 0.22383 0.27128
# Poissons Ratio (y) = 0.21068 0.16267
# Poissons Ratio (z) = 0.27070 0.17246
#
# Static dielectric constant tensor:
#      x y z
#    x 1.907750 0.000000 -0.018140 
#    y 0.000000 1.839310 0.000000 
#    z -0.018140 0.000000 1.837100 
# 
# From -- ./inp_files/227896.got.cif
#   From: 2010.05.17/outbox.cif.g08.bks.cpg/sg15_114_cif.got.tgz:227896.got - 2010.06.03 18:47:42.
