data_PCOD9283142
_publ_section_title
;
Structure prediction by ZEFSAII (Michael W. Deem and Ramdas Pophale) SiO2 
 PCOD9283142
Probable space group: C 2/C
;
_chemical_formula_sum "Si O2"
_cell_formula_units_Z 44
_cell_length_a 14.795463
_cell_length_b 8.661770
_cell_length_c 21.437866
_cell_angle_alpha 90.000000
_cell_angle_beta 138.836282
_cell_angle_gamma 90.000000
_cell_volume 1808.352657
_symmetry_space_group_name_H-M "C 2/C"
_symmetry_group_IT_number 15
_symmetry_cell_setting 'monoclinic'
loop_
_space_group_symop_operation_xyz
x,y,z
-x,y,1/2-z
-x,-y,-z
x,-y,1/2+z
1/2+x,1/2+y,z
1/2-x,1/2+y,1/2-z
1/2-x,1/2-y,-z
1/2+x,1/2-y,1/2+z
loop_
_atom_site_type_symbol
_atom_site_label
_atom_site_fract_x
_atom_site_fract_y
_atom_site_fract_z
Si Si1 0.000000 0.465762 0.750000
Si Si2 0.645335 0.903154 0.122573
Si Si3 0.394707 0.746862 0.244914
Si Si4 0.916869 0.055179 0.827776
Si Si5 0.825508 0.206137 0.603174
Si Si6 0.911946 0.257277 0.937005
O O1 0.956454 0.581052 0.783571
O O2 0.873988 0.359578 0.664528
O O3 0.605186 0.622928 0.200225
O O4 0.766341 0.872360 0.234756
O O5 0.589048 0.077527 0.100096
O O6 0.516344 0.790498 0.046828
O O7 0.500000 0.675479 0.250000
O O8 0.248847 0.765573 0.134676
O O9 0.956210 0.115659 0.916387
O O10 0.034212 0.121684 0.843801
O O11 0.750000 0.250000 0.500000
O O12 0.728288 0.110694 0.599458
#
# Coordination Sequence:
#
# PCOD9283142 Si02
#       6
#     4   8   8   8   8   8
#     4  10  24  42  68  98 136 180 230 284 338 412
#     4  10  21  40  65 102 141 172 222 298 335 407
#     4   9  22  45  67  93 143 180 220 284 346 401
#     4  11  20  39  73  95 133 189 227 274 345 413
#     4  12  22  41  73  99 132 186 237 277 351 414
#     4  10  21  39  68 103 132 179 228 275 352 406
#
# _framework density 24.331537999999998
#
# number of rings (size 3 to 8) (size 9 to 14) (size 15 to 20)
#    0.545    1.091    3.636    2.182    0.000    2.909 
#    0.000    5.455    0.000    0.000    0.000    0.000 
#    0.000    0.000    0.000    0.000    0.000    0.000 
#
# Total GULP energy -122870.022987 kJ/mol
# GULP energy per Si atom -5585.001045 kJ/mol
# Density = 2.427616 g / cm^3
# Si number density = 24.331538 Si / 1000 Ang^3
#
#
#
# Elastic Constant Matrix: (Units=GPa)
#
#
# Indices 1 2 3 4 5 6 
#
# 1 51.3688 39.1078 14.0037 0.0000 17.2726 0.0000
# 2 39.1078 134.2444 39.7354 0.0000 -6.0334 0.0000
# 3 14.0037 39.7354 112.5326 0.0000 3.1949 0.0000
# 4 0.0000 0.0000 0.0000 34.3084 0.0000 -2.3608
# 5 17.2726 -6.0334 3.1949 0.0000 45.1824 0.0000
# 6 0.0000 0.0000 0.0000 -2.3608 0.0000 39.7815
#
#
#
# Elastic Compliance Matrix: (Units=1/GPa)
#
#
# Indices 1 2 3 4 5 6 
#
# 1 0.031337 -0.009696 -0.000099 0.000000 -0.013267 0.000000
# 2 -0.009696 0.011398 -0.002972 0.000000 0.005439 0.000000
# 3 -0.000099 -0.002972 0.009978 0.000000 -0.001065 0.000000
# 4 0.000000 0.000000 0.000000 0.029267 0.000000 0.001737
# 5 -0.013267 0.005439 -0.001065 0.000000 0.028006 0.000000
# 6 0.000000 0.000000 0.000000 0.001737 0.000000 0.025240
#
#
# Mechanical properties :
#
#
# Convention : Reuss Voigt Hill
#
# Bulk Modulus (GPa) = 36.79452 53.75996 45.27724
# Shear Modulus (GPa) = 29.44275 37.54105 33.49190
#
# Velocity S-wave (km/s) = 3.48237 3.93223 3.71412
# Velocity P-wave (km/s) = 5.59680 6.53906 6.08620
#
# Compressibility (1/GPa) = 0.02717796
#
# Stress axis : x y z
#
# Youngs Moduli (GPa) = 31.91135 87.73514 100.21571
#
# Poissons Ratio (x) = 0.85067 0.00995
# Poissons Ratio (y) = 0.30941 0.29789
# Poissons Ratio (z) = 0.00317 0.26079
#
# Static dielectric constant tensor:
#      x y z
#    x 1.989140 0.000000 -0.001390 
#    y 0.000000 1.929630 0.000000 
#    z -0.001390 0.000000 1.904730 
# 
# From -- ./inp_files/295655.got.cif
#   From: 2010.05.17/outbox.cif.g08.bks.cpg/sg15_148_cif.got.tgz:295655.got - 2010.06.03 18:47:42.
