data_PCOD9283361
_publ_section_title
;
Structure prediction by ZEFSAII (Michael W. Deem and Ramdas Pophale) SiO2 
 PCOD9283361
Probable space group: C 2/C
;
_chemical_formula_sum "Si O2"
_cell_formula_units_Z 60
_cell_length_a 9.812216
_cell_length_b 11.866098
_cell_length_c 24.973015
_cell_angle_alpha 90.000000
_cell_angle_beta 112.205367
_cell_angle_gamma 90.000000
_cell_volume 2692.028736
_symmetry_space_group_name_H-M "C 2/C"
_symmetry_group_IT_number 15
_symmetry_cell_setting 'monoclinic'
loop_
_space_group_symop_operation_xyz
x,y,z
-x,y,1/2-z
-x,-y,-z
x,-y,1/2+z
1/2+x,1/2+y,z
1/2-x,1/2+y,1/2-z
1/2-x,1/2-y,-z
1/2+x,1/2-y,1/2+z
loop_
_atom_site_type_symbol
_atom_site_label
_atom_site_fract_x
_atom_site_fract_y
_atom_site_fract_z
Si Si1 0.000000 0.104041 0.250000
Si Si2 0.258079 0.983148 0.515752
Si Si3 0.505145 0.162277 0.391003
Si Si4 0.456671 0.796343 0.330337
Si Si5 0.866481 0.714564 0.204429
Si Si6 0.323474 0.025368 0.288904
Si Si7 0.472107 0.634176 0.955828
Si Si8 0.590282 0.198169 0.967303
O O1 0.011715 0.193359 0.301554
O O2 0.853575 0.028685 0.233607
O O3 0.367043 0.887957 0.553084
O O4 0.121234 0.932049 0.462480
O O5 0.160857 0.049787 0.547527
O O6 0.371486 0.072676 0.506939
O O7 0.586133 0.184599 0.347501
O O8 0.379952 0.075336 0.354226
O O9 0.435468 0.275102 0.405119
O O10 0.290047 0.769901 0.321924
O O11 0.546084 0.807370 0.398785
O O12 0.425505 0.915339 0.296485
O O13 0.850604 0.610810 0.243626
O O14 0.000000 0.784743 0.250000
O O15 0.507215 0.714593 0.012838
O O16 0.750000 0.250000 0.000000
#
# Coordination Sequence:
#
# PCOD9283361 Si02
#       8
#     4   8   8   8   8   8   8   8
#     4  10  26  42  66  96 126 164 228 268 324 402
#     4  10  21  40  60  90 127 172 214 257 318 382
#     4  11  21  40  65  91 127 169 214 264 323 390
#     4  11  22  43  68  92 131 177 207 277 339 376
#     4   9  22  42  62  96 129 158 222 276 320 398
#     4  10  23  41  65  95 125 168 217 270 332 389
#     4  10  23  40  61  91 132 170 215 261 318 384
#     4  10  22  40  64  94 133 168 218 266 316 394
#
# _framework density 22.288025000000001
#
# number of rings (size 3 to 8) (size 9 to 14) (size 15 to 20)
#    0.000    1.867    1.333    1.200    7.467    0.533 
#    7.200    1.333    0.000    0.000    0.000    0.000 
#    0.000    0.000    0.000    0.000    0.000    0.000 
#
# Total GULP energy -167112.402127 kJ/mol
# GULP energy per Si atom -5570.413404 kJ/mol
# Density = 2.223730 g / cm^3
# Si number density = 22.288025 Si / 1000 Ang^3
#
#
#
# Elastic Constant Matrix: (Units=GPa)
#
#
# Indices 1 2 3 4 5 6 
#
# 1 73.9352 13.3341 25.9470 0.0000 15.1663 0.0000
# 2 13.3341 67.2443 23.0602 0.0000 3.8173 0.0000
# 3 25.9470 23.0602 55.4280 0.0000 13.2639 0.0000
# 4 0.0000 0.0000 0.0000 -13.4827 0.0000 12.6803
# 5 15.1663 3.8173 13.2639 0.0000 27.4940 0.0000
# 6 0.0000 0.0000 0.0000 12.6803 0.0000 15.5490
#
#
#
# Elastic Compliance Matrix: (Units=1/GPa)
#
#
# Indices 1 2 3 4 5 6 
#
# 1 0.017148 -0.000944 -0.006108 0.000000 -0.006382 0.000000
# 2 -0.000944 0.017434 -0.007186 0.000000 0.001567 0.000000
# 3 -0.006108 -0.007186 0.025827 0.000000 -0.008093 0.000000
# 4 0.000000 0.000000 0.000000 -0.041975 0.000000 0.034231
# 5 -0.006382 0.001567 -0.008093 0.000000 0.043578 0.000000
# 6 0.000000 0.000000 0.000000 0.034231 0.000000 0.036397
#
#
# Mechanical properties :
#
#
# Convention : Reuss Voigt Hill
#
# Bulk Modulus (GPa) = 31.31500 35.69889 33.50694
# Shear Modulus (GPa) = 36.35604 14.86314 25.60959
#
# Velocity S-wave (km/s) = 4.04318 2.58518 3.39341
# Velocity P-wave (km/s) = 5.98975 4.99627 5.51542
#
# Compressibility (1/GPa) = 0.03193358
#
# Stress axis : x y z
#
# Youngs Moduli (GPa) = 58.31569 57.36004 38.71931
#
# Poissons Ratio (x) = 0.05412 0.23648
# Poissons Ratio (y) = 0.05502 0.27825
# Poissons Ratio (z) = 0.35617 0.41221
#
# Static dielectric constant tensor:
#      x y z
#    x 1.864670 0.000000 -0.026010 
#    y 0.000000 1.632780 0.000000 
#    z -0.026010 0.000000 1.808110 
# 
# From -- ./inp_files/292282.got.cif
#   From: 2010.05.17/outbox.cif.g08.bks.cpg/sg15_147_cif.got.tgz:292282.got - 2010.06.03 18:47:42.
