data_PCOD9283354
_publ_section_title
;
Structure prediction by ZEFSAII (Michael W. Deem and Ramdas Pophale) SiO2 
 PCOD9283354
Probable space group: C 2/C
;
_chemical_formula_sum "Si O2"
_cell_formula_units_Z 44
_cell_length_a 24.911096
_cell_length_b 13.313409
_cell_length_c 21.648013
_cell_angle_alpha 90.000000
_cell_angle_beta 161.759609
_cell_angle_gamma 90.000000
_cell_volume 2247.246804
_symmetry_space_group_name_H-M "C 2/C"
_symmetry_group_IT_number 15
_symmetry_cell_setting 'monoclinic'
loop_
_space_group_symop_operation_xyz
x,y,z
-x,y,1/2-z
-x,-y,-z
x,-y,1/2+z
1/2+x,1/2+y,z
1/2-x,1/2+y,1/2-z
1/2-x,1/2-y,-z
1/2+x,1/2-y,1/2+z
loop_
_atom_site_type_symbol
_atom_site_label
_atom_site_fract_x
_atom_site_fract_y
_atom_site_fract_z
Si Si1 0.882234 0.552241 0.488015
Si Si2 0.197689 0.197406 0.210384
Si Si3 0.296960 0.358891 0.022300
Si Si4 0.214340 0.553625 0.298180
Si Si5 0.330014 0.404975 0.326983
Si Si6 0.500000 0.997771 0.750000
O O1 0.807045 0.660795 0.388641
O O2 0.739792 0.471837 0.306744
O O3 0.940539 0.552170 0.622583
O O4 0.047237 0.512246 0.630603
O O5 0.298362 0.141510 0.265507
O O6 0.200457 0.314563 0.200409
O O7 0.009471 0.149194 0.009346
O O8 0.500000 0.374311 0.250000
O O9 0.250000 0.250000 0.000000
O O10 0.263102 0.387144 0.913697
O O11 0.166582 0.431851 0.915220
O O12 0.337888 0.475306 0.396669
#
# Coordination Sequence:
#
# PCOD9283354 Si02
#       6
#     8   8   8   8   8   4
#     4  10  21  40  60  88 126 156 210 249 316 367
#     4  11  22  36  64  89 123 162 206 264 305 374
#     4  11  24  38  60  87 126 164 205 248 312 379
#     4  10  22  38  58  89 120 161 202 258 311 363
#     4  11  22  37  61  91 120 161 207 263 313 360
#     4  10  24  40  60  88 126 172 196 264 298 380
#
# _framework density 19.579515000000001
#
# number of rings (size 3 to 8) (size 9 to 14) (size 15 to 20)
#    0.000    1.455    0.909    6.545    7.636    0.000 
#    0.000    0.000    2.000    3.273    0.000    0.000 
#    0.000    0.000    0.000    0.000    0.000    0.000 
#
# Total GULP energy -122545.623143 kJ/mol
# GULP energy per Si atom -5570.255597 kJ/mol
# Density = 1.953495 g / cm^3
# Si number density = 19.579515 Si / 1000 Ang^3
#
#
#
# Elastic Constant Matrix: (Units=GPa)
#
#
# Indices 1 2 3 4 5 6 
#
# 1 89.9508 10.3486 33.3365 0.0005 -2.1827 -0.0007
# 2 10.3486 57.4212 0.5548 0.0051 -4.2129 0.0024
# 3 33.3365 0.5548 97.8681 0.0019 17.8905 0.0019
# 4 0.0005 0.0051 0.0019 24.5951 0.0046 5.4375
# 5 -2.1827 -4.2129 17.8905 0.0046 27.4175 0.0036
# 6 -0.0007 0.0024 0.0019 5.4375 0.0036 15.6809
#
#
#
# Elastic Compliance Matrix: (Units=1/GPa)
#
#
# Indices 1 2 3 4 5 6 
#
# 1 0.013436 -0.002059 -0.005339 0.000000 0.004237 0.000001
# 2 -0.002059 0.017969 0.000142 -0.000004 0.002505 -0.000002
# 3 -0.005339 0.000142 0.013750 0.000001 -0.009375 0.000000
# 4 0.000000 -0.000004 0.000001 0.044034 -0.000007 -0.015269
# 5 0.004237 0.002505 -0.009375 -0.000007 0.043313 -0.000007
# 6 0.000001 -0.000002 0.000000 -0.015269 -0.000007 0.069067
#
#
# Mechanical properties :
#
#
# Convention : Reuss Voigt Hill
#
# Bulk Modulus (GPa) = 32.63673 37.07998 34.85835
# Shear Modulus (GPa) = 22.09510 26.93872 24.51691
#
# Velocity S-wave (km/s) = 3.36293 3.71329 3.54244
# Velocity P-wave (km/s) = 5.63774 6.11260 5.87997
#
# Compressibility (1/GPa) = 0.03064032
#
# Stress axis : x y z
#
# Youngs Moduli (GPa) = 74.42833 55.65252 72.72936
#
# Poissons Ratio (x) = 0.11458 0.38834
# Poissons Ratio (y) = 0.15324 -0.01030
# Poissons Ratio (z) = 0.39741 -0.00788
#
# Static dielectric constant tensor:
#      x y z
#    x 1.744180 0.000000 -0.012580 
#    y 0.000000 1.712530 0.000000 
#    z -0.012580 0.000000 1.725970 
# 
# From -- ./inp_files/255665.got.cif
#   From: 2010.05.17/outbox.cif.g08.bks.cpg/sg15_128_cif.got.tgz:255665.got - 2010.06.03 18:47:42.
