data_PCOD9283505
_publ_section_title
;
Structure prediction by ZEFSAII (Michael W. Deem and Ramdas Pophale) SiO2 
 PCOD9283505
Probable space group: C 2/C
;
_chemical_formula_sum "Si O2"
_cell_formula_units_Z 64
_cell_length_a 21.018498
_cell_length_b 15.007572
_cell_length_c 8.954444
_cell_angle_alpha 90.000000
_cell_angle_beta 91.544595
_cell_angle_gamma 90.000000
_cell_volume 2823.533258
_symmetry_space_group_name_H-M "C 2/C"
_symmetry_group_IT_number 15
_symmetry_cell_setting 'monoclinic'
loop_
_space_group_symop_operation_xyz
x,y,z
-x,y,1/2-z
-x,-y,-z
x,-y,1/2+z
1/2+x,1/2+y,z
1/2-x,1/2+y,1/2-z
1/2-x,1/2-y,-z
1/2+x,1/2-y,1/2+z
loop_
_atom_site_type_symbol
_atom_site_label
_atom_site_fract_x
_atom_site_fract_y
_atom_site_fract_z
Si Si1 0.052685 0.063652 0.072902
Si Si2 0.363239 0.473431 0.660781
Si Si3 0.818038 0.211303 0.067076
Si Si4 0.563900 0.072657 0.324735
Si Si5 0.168355 0.160950 0.746783
Si Si6 0.453340 0.728488 0.609192
Si Si7 0.647769 0.028558 0.062326
Si Si8 0.806272 0.626610 0.716856
O O1 0.073635 0.054720 0.244292
O O2 0.033548 0.163648 0.027248
O O3 0.114389 0.025258 0.986157
O O4 0.000000 0.000000 0.000000
O O5 0.319730 0.386137 0.641487
O O6 0.331792 0.554102 0.748280
O O7 0.848234 0.287352 0.173322
O O8 0.750000 0.250000 0.000000
O O9 0.855035 0.194210 0.915932
O O10 0.500000 0.033434 0.250000
O O11 0.544293 0.165605 0.400023
O O12 0.614952 0.087001 0.191947
O O13 0.593985 0.007790 0.447397
O O14 0.119640 0.204398 0.856067
O O15 0.242882 0.176788 0.771078
O O16 0.500000 0.701832 0.750000
O O17 0.674224 0.943830 0.156467
O O18 0.695593 0.074779 0.945264
#
# Coordination Sequence:
#
# PCOD9283505 Si02
#       8
#     8   8   8   8   8   8   8   8
#     4  11  22  39  62  93 129 165 210 258 317 391
#     4  11  22  38  64  88 126 168 207 255 318 383
#     4  10  22  39  60  90 122 165 211 262 307 374
#     4  10  21  41  67  90 124 164 207 263 320 375
#     4  10  21  40  62  89 124 170 207 249 326 377
#     4  10  22  38  63  92 127 164 210 261 316 384
#     4  10  22  41  63  95 121 163 214 262 320 381
#     4  10  23  38  65  87 131 160 211 266 318 374
#
# _framework density 22.666636
#
# number of rings (size 3 to 8) (size 9 to 14) (size 15 to 20)
#    0.000    1.750    1.250    3.000    5.250    0.000 
#    2.250    0.625    0.000    0.000    0.000    0.000 
#    0.000    0.000    0.000    0.000    0.000    0.000 
#
# Total GULP energy -178215.562309 kJ/mol
# GULP energy per Si atom -5569.236322 kJ/mol
# Density = 2.261505 g / cm^3
# Si number density = 22.666636 Si / 1000 Ang^3
#
#
#
# Elastic Constant Matrix: (Units=GPa)
#
#
# Indices 1 2 3 4 5 6 
#
# 1 48.5338 1.6601 3.4206 0.0000 8.2807 0.0000
# 2 1.6601 92.7494 11.6492 0.0000 12.5570 0.0000
# 3 3.4206 11.6492 56.3068 0.0000 3.0033 0.0000
# 4 0.0000 0.0000 0.0000 27.2239 0.0000 4.1503
# 5 8.2807 12.5570 3.0033 0.0000 27.9697 0.0000
# 6 0.0000 0.0000 0.0000 4.1503 0.0000 29.6759
#
#
#
# Elastic Compliance Matrix: (Units=1/GPa)
#
#
# Indices 1 2 3 4 5 6 
#
# 1 0.021790 0.000645 -0.001104 0.000000 -0.006622 0.000000
# 2 0.000645 0.011754 -0.002192 0.000000 -0.005233 0.000000
# 3 -0.001104 -0.002192 0.018315 0.000000 -0.000656 0.000000
# 4 0.000000 0.000000 0.000000 0.037533 0.000000 -0.005249
# 5 -0.006622 -0.005233 -0.000656 0.000000 0.040133 0.000000
# 6 0.000000 0.000000 0.000000 -0.005249 0.000000 0.034432
#
#
# Mechanical properties :
#
#
# Convention : Reuss Voigt Hill
#
# Bulk Modulus (GPa) = 21.47866 25.67219 23.57542
# Shear Modulus (GPa) = 27.05964 29.03122 28.04543
#
# Velocity S-wave (km/s) = 3.45890 3.58270 3.52134
# Velocity P-wave (km/s) = 5.04465 5.33525 5.19198
#
# Compressibility (1/GPa) = 0.04655785
#
# Stress axis : x y z
#
# Youngs Moduli (GPa) = 45.89301 85.07808 54.59899
#
# Poissons Ratio (x) = -0.05489 0.06028
# Poissons Ratio (y) = -0.02961 0.11967
# Poissons Ratio (z) = 0.05067 0.18648
#
# Static dielectric constant tensor:
#      x y z
#    x 1.992490 0.000000 -0.082220 
#    y 0.000000 1.872910 0.000000 
#    z -0.082220 0.000000 1.951380 
# 
# From -- ./inp_files/61932.got.cif
#   From: 2010.05.17/outbox.cif.g08.bks.cpg/sg15_31_cif.got.tgz:61932.got - 2010.06.03 18:47:42.
