data_PCOD9283151
_publ_section_title
;
Structure prediction by ZEFSAII (Michael W. Deem and Ramdas Pophale) SiO2 
 PCOD9283151
Probable space group: C 2/C
;
_chemical_formula_sum "Si O2"
_cell_formula_units_Z 64
_cell_length_a 29.748051
_cell_length_b 9.128266
_cell_length_c 16.675290
_cell_angle_alpha 90.000000
_cell_angle_beta 39.555332
_cell_angle_gamma 90.000000
_cell_volume 2883.626508
_symmetry_space_group_name_H-M "C 2/C"
_symmetry_group_IT_number 15
_symmetry_cell_setting 'monoclinic'
loop_
_space_group_symop_operation_xyz
x,y,z
-x,y,1/2-z
-x,-y,-z
x,-y,1/2+z
1/2+x,1/2+y,z
1/2-x,1/2+y,1/2-z
1/2-x,1/2-y,-z
1/2+x,1/2-y,1/2+z
loop_
_atom_site_type_symbol
_atom_site_label
_atom_site_fract_x
_atom_site_fract_y
_atom_site_fract_z
Si Si1 0.172559 0.622995 0.579892
Si Si2 0.175652 0.926719 0.659512
Si Si3 0.820739 0.216385 0.603434
Si Si4 0.472010 0.705335 0.457632
Si Si5 0.539576 0.213603 0.032218
Si Si6 0.476094 0.965346 0.196305
Si Si7 0.466291 0.548672 0.711418
Si Si8 0.319385 0.607111 0.161291
O O1 0.174834 0.751973 0.642768
O O2 0.245262 0.534016 0.475390
O O3 0.165433 0.708745 0.503349
O O4 0.107561 0.520643 0.692045
O O5 0.113533 0.001892 0.695029
O O6 0.166556 0.949890 0.766797
O O7 0.889845 0.239285 0.563179
O O8 0.752228 0.297495 0.733594
O O9 0.812136 0.038300 0.615841
O O10 0.513171 0.749076 0.480220
O O11 0.486534 0.536391 0.419351
O O12 0.510277 0.792729 0.333665
O O13 0.527862 0.042286 0.062097
O O14 0.481544 0.283346 0.171713
O O15 0.615516 0.283205 0.947524
O O16 0.500000 0.012029 0.250000
O O17 0.500000 0.511818 0.750000
#
# Coordination Sequence:
#
# PCOD9283151 Si02
#       8
#     8   8   8   8   8   8   8   8
#     4  10  21  42  66  94 124 174 222 265 323 394
#     4  10  21  39  68  91 127 167 219 267 321 388
#     4  11  24  41  69  96 129 173 221 268 327 396
#     4  12  22  42  68  93 124 177 225 263 318 401
#     4  12  26  41  62  97 139 165 213 279 338 374
#     4  12  24  42  64  95 128 172 223 275 324 388
#     4  12  22  40  66  98 125 170 221 267 323 392
#     4  11  24  43  65  98 133 170 212 274 331 393
#
# _framework density 22.194275000000001
#
# number of rings (size 3 to 8) (size 9 to 14) (size 15 to 20)
#    0.000    0.750    5.000    3.000    1.750    0.000 
#    4.500    0.625    0.000    0.000    0.000    0.000 
#    0.000    0.000    0.000    0.000    0.000    0.000 
#
# Total GULP energy -178738.094582 kJ/mol
# GULP energy per Si atom -5585.565456 kJ/mol
# Density = 2.214376 g / cm^3
# Si number density = 22.194275 Si / 1000 Ang^3
#
#
#
# Elastic Constant Matrix: (Units=GPa)
#
#
# Indices 1 2 3 4 5 6 
#
# 1 76.3985 14.8317 30.1500 0.0008 -17.3151 -0.0004
# 2 14.8317 56.0731 26.8446 0.0015 -7.8927 -0.0015
# 3 30.1500 26.8446 96.8402 0.0008 -36.0026 -0.0006
# 4 0.0008 0.0015 0.0008 38.8374 -0.0004 -1.5097
# 5 -17.3151 -7.8927 -36.0026 -0.0004 55.6421 0.0001
# 6 -0.0004 -0.0015 -0.0006 -1.5097 0.0001 4.5200
#
#
#
# Elastic Compliance Matrix: (Units=1/GPa)
#
#
# Indices 1 2 3 4 5 6 
#
# 1 0.015341 -0.002142 -0.003319 0.000000 0.002323 0.000000
# 2 -0.002142 0.020905 -0.005627 0.000000 -0.001342 0.000006
# 3 -0.003319 -0.005627 0.016115 0.000000 0.008596 0.000000
# 4 0.000000 0.000000 0.000000 0.026087 0.000000 0.008713
# 5 0.002323 -0.001342 0.008596 0.000000 0.024066 0.000000
# 6 0.000000 0.000006 0.000000 0.008713 0.000000 0.224150
#
#
# Mechanical properties :
#
#
# Convention : Reuss Voigt Hill
#
# Bulk Modulus (GPa) = 33.12832 41.44051 37.28441
# Shear Modulus (GPa) = 13.93128 30.29893 22.11510
#
# Velocity S-wave (km/s) = 2.50811 3.69883 3.16006
# Velocity P-wave (km/s) = 4.83181 6.07898 5.49092
#
# Compressibility (1/GPa) = 0.03018565
#
# Stress axis : x y z
#
# Youngs Moduli (GPa) = 65.18331 47.83431 62.05250
#
# Poissons Ratio (x) = 0.10246 0.20596
# Poissons Ratio (y) = 0.13962 0.34918
# Poissons Ratio (z) = 0.21635 0.26917
#
# Static dielectric constant tensor:
#      x y z
#    x 1.795120 0.000000 -0.078540 
#    y 0.000000 1.784150 0.000000 
#    z -0.078540 0.000000 1.717500 
# 
# From -- ./inp_files/224598.got.cif
#   From: 2010.05.17/outbox.cif.g08.bks.cpg/sg15_113_cif.got.tgz:224598.got - 2010.06.03 18:47:42.
