data_PCOD9283672
_publ_section_title
;
Structure prediction by ZEFSAII (Michael W. Deem and Ramdas Pophale) SiO2 
 PCOD9283672
Probable space group: C 2/C
;
_chemical_formula_sum "Si O2"
_cell_formula_units_Z 48
_cell_length_a 16.640871
_cell_length_b 13.557523
_cell_length_c 12.651527
_cell_angle_alpha 90.000000
_cell_angle_beta 44.715852
_cell_angle_gamma 90.000000
_cell_volume 2008.259506
_symmetry_space_group_name_H-M "C 2/C"
_symmetry_group_IT_number 15
_symmetry_cell_setting 'monoclinic'
loop_
_space_group_symop_operation_xyz
x,y,z
-x,y,1/2-z
-x,-y,-z
x,-y,1/2+z
1/2+x,1/2+y,z
1/2-x,1/2+y,1/2-z
1/2-x,1/2-y,-z
1/2+x,1/2-y,1/2+z
loop_
_atom_site_type_symbol
_atom_site_label
_atom_site_fract_x
_atom_site_fract_y
_atom_site_fract_z
Si Si1 0.397405 0.154254 0.262344
Si Si2 0.920144 0.121943 0.467518
Si Si3 0.310698 0.353772 0.303282
Si Si4 0.500000 0.208262 0.750000
Si Si5 0.071190 0.600224 0.945795
Si Si6 0.676777 0.071674 0.630293
Si Si7 0.000000 0.041794 0.750000
O O1 0.500000 0.169175 0.250000
O O2 0.302357 0.237526 0.337424
O O3 0.346952 0.044311 0.328978
O O4 0.473579 0.166878 0.085532
O O5 0.874958 0.128932 0.630051
O O6 0.991840 0.212663 0.354215
O O7 0.805595 0.106412 0.503395
O O8 0.986121 0.024173 0.368632
O O9 0.184878 0.402118 0.413038
O O10 0.388868 0.395252 0.324531
O O11 0.598379 0.129394 0.621747
O O12 0.126031 0.623384 0.782937
O O13 0.000000 0.500000 0.000000
#
# Coordination Sequence:
#
# PCOD9283672 Si02
#       7
#     8   8   8   4   8   8   4
#     4  11  22  38  63  99 130 171 221 268 334 397
#     4  10  24  41  62  95 127 174 226 277 336 392
#     4  11  23  43  65  95 137 174 224 282 331 406
#     4  11  20  39  66  92 130 171 232 279 326 402
#     4   9  22  41  62  91 129 174 220 267 333 391
#     4  10  21  40  63  94 130 175 217 277 334 396
#     4  11  24  41  66  94 132 179 222 279 340 394
#
# _framework density 23.901292999999999
#
# number of rings (size 3 to 8) (size 9 to 14) (size 15 to 20)
#    0.000    1.667    1.667    2.000    2.333    2.000 
#    0.000   21.667    0.000    0.000    0.000    0.000 
#    0.000    0.000    0.000    0.000    0.000    0.000 
#
# Total GULP energy -133687.346871 kJ/mol
# GULP energy per Si atom -5570.306120 kJ/mol
# Density = 2.384689 g / cm^3
# Si number density = 23.901293 Si / 1000 Ang^3
#
#
#
# Elastic Constant Matrix: (Units=GPa)
#
#
# Indices 1 2 3 4 5 6 
#
# 1 82.0258 55.0889 10.1584 0.0000 -24.3394 0.0000
# 2 55.0889 135.3871 28.9687 0.0000 -21.6848 0.0000
# 3 10.1584 28.9687 109.0546 0.0000 6.8567 0.0000
# 4 0.0000 0.0000 0.0000 -13.7109 0.0000 -3.8738
# 5 -24.3394 -21.6848 6.8567 0.0000 50.3785 0.0000
# 6 0.0000 0.0000 0.0000 -3.8738 0.0000 26.1805
#
#
#
# Elastic Compliance Matrix: (Units=1/GPa)
#
#
# Indices 1 2 3 4 5 6 
#
# 1 0.018372 -0.006401 -0.000399 0.000000 0.006175 0.000000
# 2 -0.006401 0.010804 -0.002392 0.000000 0.001884 0.000000
# 3 -0.000399 -0.002392 0.010005 0.000000 -0.002584 0.000000
# 4 0.000000 0.000000 0.000000 -0.070008 0.000000 -0.010359
# 5 0.006175 0.001884 -0.002584 0.000000 0.023996 0.000000
# 6 0.000000 0.000000 0.000000 -0.010359 0.000000 0.036664
#
#
# Mechanical properties :
#
#
# Convention : Reuss Voigt Hill
#
# Bulk Modulus (GPa) = 48.08561 57.21105 52.64833
# Shear Modulus (GPa) = 90.66176 28.05303 59.35739
#
# Velocity S-wave (km/s) = 6.16556 3.42965 4.98882
# Velocity P-wave (km/s) = 8.41710 6.29855 7.43368
#
# Compressibility (1/GPa) = 0.02079624
#
# Stress axis : x y z
#
# Youngs Moduli (GPa) = 54.43040 92.55512 99.95159
#
# Poissons Ratio (x) = 0.59245 0.03991
# Poissons Ratio (y) = 0.34841 0.23910
# Poissons Ratio (z) = 0.02173 0.22141
#
# Static dielectric constant tensor:
#      x y z
#    x 2.315670 0.000000 0.032600 
#    y 0.000000 1.944440 0.000000 
#    z 0.032600 0.000000 1.975560 
# 
# From -- ./inp_files/162168.got.cif
#   From: 2010.05.17/outbox.cif.g08.bks.cpg/sg15_82_cif.got.tgz:162168.got - 2010.06.03 18:47:42.
