data_PCOD9283541
_publ_section_title
;
Structure prediction by ZEFSAII (Michael W. Deem and Ramdas Pophale) SiO2 
 PCOD9283541
Probable space group: C 2/C
;
_chemical_formula_sum "Si O2"
_cell_formula_units_Z 56
_cell_length_a 12.925545
_cell_length_b 7.813374
_cell_length_c 28.607856
_cell_angle_alpha 90.000000
_cell_angle_beta 71.890923
_cell_angle_gamma 90.000000
_cell_volume 2746.057350
_symmetry_space_group_name_H-M "C 2/C"
_symmetry_group_IT_number 15
_symmetry_cell_setting 'monoclinic'
loop_
_space_group_symop_operation_xyz
x,y,z
-x,y,1/2-z
-x,-y,-z
x,-y,1/2+z
1/2+x,1/2+y,z
1/2-x,1/2+y,1/2-z
1/2-x,1/2-y,-z
1/2+x,1/2-y,1/2+z
loop_
_atom_site_type_symbol
_atom_site_label
_atom_site_fract_x
_atom_site_fract_y
_atom_site_fract_z
Si Si1 0.415530 0.105826 0.913747
Si Si2 0.558493 0.180673 0.486267
Si Si3 0.420931 0.875316 0.187740
Si Si4 0.781677 0.088523 0.403021
Si Si5 0.360987 0.275450 0.455252
Si Si6 0.500000 0.858472 0.750000
Si Si7 0.317468 0.388770 0.302413
Si Si8 0.500000 0.372556 0.750000
O O1 0.530320 0.098515 0.870729
O O2 0.339678 0.227074 0.893305
O O3 0.378099 0.909013 0.926827
O O4 0.414556 0.210770 0.963140
O O5 0.664922 0.139619 0.441142
O O6 0.468605 0.296260 0.472811
O O7 0.500000 0.000000 0.500000
O O8 0.294874 0.825658 0.203493
O O9 0.495342 0.738665 0.204218
O O10 0.434250 0.036992 0.220069
O O11 0.840446 0.943250 0.426914
O O12 0.782665 0.993110 0.353306
O O13 0.250000 0.250000 0.500000
O O14 0.591567 0.758702 0.706802
O O15 0.389973 0.519490 0.262372
#
# Coordination Sequence:
#
# PCOD9283541 Si02
#       8
#     8   8   8   8   8   4   8   4
#     4  11  23  42  64  98 128 170 219 263 319 389
#     4  10  21  40  62  92 131 174 211 260 322 377
#     4  11  22  42  66  91 129 163 209 269 326 382
#     4  12  23  42  65  96 130 170 215 269 316 389
#     4  11  23  40  63  88 132 175 211 261 319 370
#     4  10  24  42  66  96 122 164 218 264 328 390
#     4  11  22  40  68  91 127 165 209 267 326 385
#     4  10  22  42  62  96 120 162 210 260 332 386
#
# _framework density 20.392875
#
# number of rings (size 3 to 8) (size 9 to 14) (size 15 to 20)
#    0.000    1.143    4.286    3.857    0.000    0.571 
#    0.000    0.000    0.000    0.000    0.000    0.000 
#    0.000    0.000    0.000    0.000    0.000    0.000 
#
# Total GULP energy -155901.574786 kJ/mol
# GULP energy per Si atom -5567.913385 kJ/mol
# Density = 2.034646 g / cm^3
# Si number density = 20.392875 Si / 1000 Ang^3
#
#
#
# Elastic Constant Matrix: (Units=GPa)
#
#
# Indices 1 2 3 4 5 6 
#
# 1 95.3962 8.2142 16.9922 0.0000 -27.1821 0.0000
# 2 8.2142 47.6417 -5.7960 0.0000 -6.2490 0.0000
# 3 16.9922 -5.7960 82.7907 0.0000 -26.2989 0.0000
# 4 0.0000 0.0000 0.0000 138.5677 0.0000 57.5535
# 5 -27.1821 -6.2490 -26.2989 0.0000 37.2770 0.0000
# 6 0.0000 0.0000 0.0000 57.5535 0.0000 58.0422
#
#
#
# Elastic Compliance Matrix: (Units=1/GPa)
#
#
# Indices 1 2 3 4 5 6 
#
# 1 0.013288 -0.000978 0.000297 0.000000 0.009735 0.000000
# 2 -0.000978 0.022308 0.003511 0.000000 0.005503 0.000000
# 3 0.000297 0.003511 0.016135 0.000000 0.012188 0.000000
# 4 0.000000 0.000000 0.000000 0.012270 0.000000 -0.012167
# 5 0.009735 0.005503 0.012188 0.000000 0.043446 0.000000
# 6 0.000000 0.000000 0.000000 -0.012167 0.000000 0.029293
#
#
# Mechanical properties :
#
#
# Convention : Reuss Voigt Hill
#
# Bulk Modulus (GPa) = 17.42513 29.40549 23.41531
# Shear Modulus (GPa) = 33.28652 60.53861 46.91257
#
# Velocity S-wave (km/s) = 4.04451 5.45441 4.80149
# Velocity P-wave (km/s) = 5.51126 7.35651 6.49970
#
# Compressibility (1/GPa) = 0.05738837
#
# Stress axis : x y z
#
# Youngs Moduli (GPa) = 75.25723 44.82785 61.97654
#
# Poissons Ratio (x) = 0.04385 -0.01838
# Poissons Ratio (y) = 0.07361 -0.21757
# Poissons Ratio (z) = -0.02232 -0.15737
#
# Static dielectric constant tensor:
#      x y z
#    x 1.632320 0.000000 -0.838030 
#    y 0.000000 1.778920 0.000000 
#    z -0.838030 0.000000 -4.902020 
# 
# From -- ./inp_files/309941.got.cif
#   From: 2010.05.17/outbox.cif.g08.bks.cpg/sg15_155_cif.got.tgz:309941.got - 2010.06.03 18:47:42.
