data_PCOD9283344
_publ_section_title
;
Structure prediction by ZEFSAII (Michael W. Deem and Ramdas Pophale) SiO2 
 PCOD9283344
Probable space group: C 2/C
;
_chemical_formula_sum "Si O2"
_cell_formula_units_Z 48
_cell_length_a 7.005329
_cell_length_b 25.471998
_cell_length_c 14.763255
_cell_angle_alpha 90.000000
_cell_angle_beta 82.131536
_cell_angle_gamma 90.000000
_cell_volume 2609.548669
_symmetry_space_group_name_H-M "C 2/C"
_symmetry_group_IT_number 15
_symmetry_cell_setting 'monoclinic'
loop_
_space_group_symop_operation_xyz
x,y,z
-x,y,1/2-z
-x,-y,-z
x,-y,1/2+z
1/2+x,1/2+y,z
1/2-x,1/2+y,1/2-z
1/2-x,1/2-y,-z
1/2+x,1/2-y,1/2+z
loop_
_atom_site_type_symbol
_atom_site_label
_atom_site_fract_x
_atom_site_fract_y
_atom_site_fract_z
Si Si1 0.000000 0.624420 0.250000
Si Si2 0.000000 0.624525 0.750000
Si Si3 0.815827 0.557556 0.423310
Si Si4 0.543270 0.630934 0.003033
Si Si5 0.900962 0.440087 0.424341
Si Si6 0.866447 0.195760 0.672180
Si Si7 0.822775 0.194814 0.329596
O O1 0.905559 0.588168 0.332867
O O2 0.836592 0.659424 0.211599
O O3 0.983043 0.586618 0.664809
O O4 0.188005 0.659886 0.718362
O O5 0.626179 0.590006 0.463423
O O6 0.804857 0.495535 0.402368
O O7 0.957635 0.556920 0.499817
O O8 0.594110 0.666003 0.087209
O O9 0.730391 0.597590 0.966106
O O10 0.515271 0.667091 0.915775
O O11 0.776942 0.249879 0.641444
O O12 0.000000 0.206604 0.750000
O O13 0.000000 0.204233 0.250000
#
# Coordination Sequence:
#
# PCOD9283344 Si02
#       7
#     4   4   8   8   8   8   8
#     4  12  23  40  64  86 124 158 209 248 306 366
#     4  10  21  40  60  86 120 164 195 250 298 364
#     4  11  22  39  62  90 118 161 198 255 302 361
#     4  11  23  40  63  92 123 158 205 252 304 360
#     4  10  22  39  61  88 124 155 204 246 306 361
#     4  11  23  40  63  90 124 160 205 250 306 365
#     4  12  23  42  61  91 122 161 204 255 303 361
#
# _framework density 18.393986999999999
#
# number of rings (size 3 to 8) (size 9 to 14) (size 15 to 20)
#    0.000    1.000    5.000    2.500    0.000    0.000 
#    0.000    1.667    3.667    0.000    0.000    0.000 
#    0.000    0.000    0.000    0.000    0.000    0.000 
#
# Total GULP energy -133974.411538 kJ/mol
# GULP energy per Si atom -5582.267147 kJ/mol
# Density = 1.835212 g / cm^3
# Si number density = 18.393987 Si / 1000 Ang^3
#
#
#
# Elastic Constant Matrix: (Units=GPa)
#
#
# Indices 1 2 3 4 5 6 
#
# 1 43.4190 8.1863 15.8092 0.0000 5.1967 0.0000
# 2 8.1863 101.4293 28.9462 0.0000 5.2524 0.0000
# 3 15.8092 28.9462 78.9220 0.0000 0.2761 0.0000
# 4 0.0000 0.0000 0.0000 9.5794 0.0000 5.6022
# 5 5.1967 5.2524 0.2761 0.0000 25.3762 0.0000
# 6 0.0000 0.0000 0.0000 5.6022 0.0000 29.5657
#
#
#
# Elastic Compliance Matrix: (Units=1/GPa)
#
#
# Indices 1 2 3 4 5 6 
#
# 1 0.025516 -0.000382 -0.004953 0.000000 -0.005092 0.000000
# 2 -0.000382 0.011146 -0.004004 0.000000 -0.002185 0.000000
# 3 -0.004953 -0.004004 0.015126 0.000000 0.001678 0.000000
# 4 0.000000 0.000000 0.000000 0.117400 0.000000 -0.022245
# 5 -0.005092 -0.002185 0.001678 0.000000 0.040884 0.000000
# 6 0.000000 0.000000 0.000000 -0.022245 0.000000 0.038038
#
#
# Mechanical properties :
#
#
# Convention : Reuss Voigt Hill
#
# Bulk Modulus (GPa) = 30.20298 36.62820 33.41559
# Shear Modulus (GPa) = 17.99695 24.29284 21.14490
#
# Velocity S-wave (km/s) = 3.13136 3.63808 3.39419
# Velocity P-wave (km/s) = 5.43411 6.13220 5.79368
#
# Compressibility (1/GPa) = 0.03310932
#
# Stress axis : x y z
#
# Youngs Moduli (GPa) = 39.19039 89.72095 66.11339
#
# Poissons Ratio (x) = 0.03428 0.32748
# Poissons Ratio (y) = 0.01497 0.26470
# Poissons Ratio (z) = 0.19412 0.35922
#
# Static dielectric constant tensor:
#      x y z
#    x 1.603350 0.000000 0.001050 
#    y 0.000000 1.645240 0.000000 
#    z 0.001050 0.000000 1.615210 
# 
# From -- ./inp_files/130067.got.cif
#   From: 2010.05.17/outbox.cif.g08.bks.cpg/sg15_66_cif.got.tgz:130067.got - 2010.06.03 18:47:42.
