data_PCOD9283793
_publ_section_title
;
Structure prediction by ZEFSAII (Michael W. Deem and Ramdas Pophale) SiO2 
 PCOD9283793
Probable space group: C 2/C
;
_chemical_formula_sum "Si O2"
_cell_formula_units_Z 52
_cell_length_a 30.152014
_cell_length_b 9.392673
_cell_length_c 14.153190
_cell_angle_alpha 90.000000
_cell_angle_beta 141.527535
_cell_angle_gamma 90.000000
_cell_volume 2493.715570
_symmetry_space_group_name_H-M "C 2/C"
_symmetry_group_IT_number 15
_symmetry_cell_setting 'monoclinic'
loop_
_space_group_symop_operation_xyz
x,y,z
-x,y,1/2-z
-x,-y,-z
x,-y,1/2+z
1/2+x,1/2+y,z
1/2-x,1/2+y,1/2-z
1/2-x,1/2-y,-z
1/2+x,1/2-y,1/2+z
loop_
_atom_site_type_symbol
_atom_site_label
_atom_site_fract_x
_atom_site_fract_y
_atom_site_fract_z
Si Si1 0.043723 0.123752 0.662516
Si Si2 0.258862 0.447523 0.142783
Si Si3 0.150281 0.570126 0.821839
Si Si4 0.500000 0.187788 0.250000
Si Si5 0.364954 0.798009 0.829146
Si Si6 0.888714 0.877278 0.821409
Si Si7 0.887312 0.527136 0.534471
O O1 0.049880 0.214526 0.767707
O O2 0.076309 0.209779 0.629027
O O3 0.959678 0.117387 0.502996
O O4 0.086363 0.975686 0.726445
O O5 0.291513 0.289565 0.191949
O O6 0.326302 0.546205 0.275904
O O7 0.226317 0.519060 0.992919
O O8 0.192084 0.458918 0.101556
O O9 0.134843 0.451950 0.718603
O O10 0.138844 0.725126 0.759646
O O11 0.101843 0.556342 0.835572
O O12 0.552560 0.083919 0.395473
O O13 0.384077 0.829286 0.969067
#
# Coordination Sequence:
#
# PCOD9283793 Si02
#       7
#     8   8   8   4   8   8   8
#     4  10  23  40  65  87 128 173 200 274 316 389
#     4   9  22  42  60  94 125 164 214 254 321 386
#     4  10  21  40  64  94 120 167 211 258 313 379
#     4  12  22  44  58  98 122 164 230 258 326 380
#     4  11  21  42  66  88 132 164 207 268 318 368
#     4  10  21  42  61  93 129 163 213 254 337 370
#     4  10  25  36  65  96 120 167 215 266 308 387
#
# _framework density 20.852418
#
# number of rings (size 3 to 8) (size 9 to 14) (size 15 to 20)
#    0.923    0.923    1.538    1.846    2.154    3.692 
#    8.308    0.000    0.000    0.000    0.000    0.000 
#    0.000    0.000    0.000    0.000    0.000    0.000 
#
# Total GULP energy -144806.771895 kJ/mol
# GULP energy per Si atom -5569.491227 kJ/mol
# Density = 2.080496 g / cm^3
# Si number density = 20.852418 Si / 1000 Ang^3
#
#
#
# Elastic Constant Matrix: (Units=GPa)
#
#
# Indices 1 2 3 4 5 6 
#
# 1 56.7091 27.0421 14.0772 0.0000 8.2507 0.0000
# 2 27.0421 148.9364 27.6695 0.0000 3.0356 0.0000
# 3 14.0772 27.6695 49.5761 0.0000 18.7313 0.0000
# 4 0.0000 0.0000 0.0000 30.2968 0.0000 1.4449
# 5 8.2507 3.0356 18.7313 0.0000 26.7484 0.0000
# 6 0.0000 0.0000 0.0000 1.4449 0.0000 10.8689
#
#
#
# Elastic Compliance Matrix: (Units=1/GPa)
#
#
# Indices 1 2 3 4 5 6 
#
# 1 0.020356 -0.003160 -0.002420 0.000000 -0.004226 0.000000
# 2 -0.003160 0.008142 -0.004985 0.000000 0.003542 0.000000
# 3 -0.002420 -0.004985 0.031472 0.000000 -0.020727 0.000000
# 4 0.000000 0.000000 0.000000 0.033217 0.000000 -0.004416
# 5 -0.004226 0.003542 -0.020727 0.000000 0.052801 0.000000
# 6 0.000000 0.000000 0.000000 -0.004416 0.000000 0.092592
#
#
# Mechanical properties :
#
#
# Convention : Reuss Voigt Hill
#
# Bulk Modulus (GPa) = 25.74677 43.64435 34.69556
# Shear Modulus (GPa) = 18.33800 26.01168 22.17484
#
# Velocity S-wave (km/s) = 2.96872 3.53571 3.26455
# Velocity P-wave (km/s) = 4.91172 6.13546 5.55738
#
# Compressibility (1/GPa) = 0.03883982
#
# Stress axis : x y z
#
# Youngs Moduli (GPa) = 49.12458 122.81929 31.77477
#
# Poissons Ratio (x) = 0.38816 0.07688
# Poissons Ratio (y) = 0.15525 0.15840
# Poissons Ratio (z) = 0.11886 0.61226
#
# Static dielectric constant tensor:
#      x y z
#    x 1.754970 0.000000 -0.007870 
#    y 0.000000 1.787230 0.000000 
#    z -0.007870 0.000000 1.790420 
# 
# From -- ./inp_files/181249.got.cif
#   From: 2010.05.17/outbox.cif.g08.bks.cpg/sg15_91_cif.got.tgz:181249.got - 2010.06.03 18:47:42.
