data_PCOD9283937
_publ_section_title
;
Structure prediction by ZEFSAII (Michael W. Deem and Ramdas Pophale) SiO2 
 PCOD9283937
Probable space group: C 2/C
;
_chemical_formula_sum "Si O2"
_cell_formula_units_Z 60
_cell_length_a 7.777454
_cell_length_b 11.891746
_cell_length_c 26.968075
_cell_angle_alpha 90.000000
_cell_angle_beta 90.523562
_cell_angle_gamma 90.000000
_cell_volume 2494.105905
_symmetry_space_group_name_H-M "C 2/C"
_symmetry_group_IT_number 15
_symmetry_cell_setting 'monoclinic'
loop_
_space_group_symop_operation_xyz
x,y,z
-x,y,1/2-z
-x,-y,-z
x,-y,1/2+z
1/2+x,1/2+y,z
1/2-x,1/2+y,1/2-z
1/2-x,1/2-y,-z
1/2+x,1/2-y,1/2+z
loop_
_atom_site_type_symbol
_atom_site_label
_atom_site_fract_x
_atom_site_fract_y
_atom_site_fract_z
Si Si1 0.138515 0.801648 0.880055
Si Si2 0.647690 0.708815 0.816007
Si Si3 0.255387 0.679632 0.786557
Si Si4 0.490217 0.727398 0.585316
Si Si5 0.933910 0.450508 0.551092
Si Si6 0.148031 0.494638 0.651239
Si Si7 0.500000 0.992645 0.750000
Si Si8 0.041253 0.019570 0.057702
O O1 0.134340 0.720974 0.831489
O O2 0.306539 0.751771 0.907863
O O3 0.187055 0.917142 0.853126
O O4 0.013325 0.857427 0.920854
O O5 0.452584 0.662639 0.804984
O O6 0.720035 0.754612 0.763765
O O7 0.612175 0.773929 0.866737
O O8 0.786192 0.616449 0.833631
O O9 0.163937 0.568337 0.766267
O O10 0.460484 0.594956 0.580728
O O11 0.433608 0.815126 0.543790
O O12 0.744551 0.490080 0.563640
O O13 0.000000 0.500000 0.500000
O O14 0.052516 0.487332 0.598163
O O15 0.047698 0.439262 0.697595
O O16 0.000000 0.000000 0.000000
#
# Coordination Sequence:
#
# PCOD9283937 Si02
#       8
#     8   8   8   8   8   8   4   8
#     4  10  22  41  66  95 134 181 229 286 350 422
#     4   9  18  39  69  90 133 186 224 285 357 415
#     4   9  20  37  62  98 134 178 233 281 350 424
#     4  10  23  45  70  98 139 182 226 299 342 412
#     4  11  27  46  69 105 138 184 240 293 362 427
#     4  10  21  40  65  94 136 174 234 288 344 422
#     4  10  22  36  60 102 132 184 226 288 350 422
#     4  12  26  46  71 104 137 187 243 290 362 425
#
# _framework density 24.056716999999999
#
# number of rings (size 3 to 8) (size 9 to 14) (size 15 to 20)
#    0.000    1.867    1.333    1.600    3.733    8.000 
#    0.000    2.667    0.000    0.000    0.000    0.000 
#    0.000    0.000    0.000    0.000    0.000    0.000 
#
# Total GULP energy -167039.671980 kJ/mol
# GULP energy per Si atom -5567.989066 kJ/mol
# Density = 2.400196 g / cm^3
# Si number density = 24.056717 Si / 1000 Ang^3
#
#
#
# Elastic Constant Matrix: (Units=GPa)
#
#
# Indices 1 2 3 4 5 6 
#
# 1 44.8705 17.7273 14.4343 0.0000 -0.7474 0.0000
# 2 17.7273 67.1008 29.6681 0.0000 5.4538 0.0000
# 3 14.4343 29.6681 134.0306 0.0000 -4.6896 0.0000
# 4 0.0000 0.0000 0.0000 43.3709 0.0000 0.9345
# 5 -0.7474 5.4538 -4.6896 0.0000 31.3329 0.0000
# 6 0.0000 0.0000 0.0000 0.9345 0.0000 28.9394
#
#
#
# Elastic Compliance Matrix: (Units=1/GPa)
#
#
# Indices 1 2 3 4 5 6 
#
# 1 0.025176 -0.006203 -0.001286 0.000000 0.001488 0.000000
# 2 -0.006203 0.018426 -0.003546 0.000000 -0.003886 0.000000
# 3 -0.001286 -0.003546 0.008449 0.000000 0.001851 0.000000
# 4 0.000000 0.000000 0.000000 0.023073 0.000000 -0.000745
# 5 0.001488 -0.003886 0.001851 0.000000 0.032904 0.000000
# 6 0.000000 0.000000 0.000000 -0.000745 0.000000 0.034579
#
#
# Mechanical properties :
#
#
# Convention : Reuss Voigt Hill
#
# Bulk Modulus (GPa) = 33.35699 41.07346 37.21523
# Shear Modulus (GPa) = 28.62509 33.00678 30.81594
#
# Velocity S-wave (km/s) = 3.45324 3.70812 3.58295
# Velocity P-wave (km/s) = 5.45856 5.95351 5.71140
#
# Compressibility (1/GPa) = 0.02997873
#
# Stress axis : x y z
#
# Youngs Moduli (GPa) = 39.72088 54.27191 118.35330
#
# Poissons Ratio (x) = 0.33667 0.15221
# Poissons Ratio (y) = 0.24641 0.41974
# Poissons Ratio (z) = 0.05108 0.19247
#
# Static dielectric constant tensor:
#      x y z
#    x 1.902600 0.000000 -0.130610 
#    y 0.000000 2.009790 0.000000 
#    z -0.130610 0.000000 1.992790 
# 
# From -- ./inp_files/288009.got.cif
#   From: 2010.05.17/outbox.cif.g08.bks.cpg/sg15_145_cif.got.tgz:288009.got - 2010.06.03 18:47:42.
