data_PCOD9283036
_publ_section_title
;
Structure prediction by ZEFSAII (Michael W. Deem and Ramdas Pophale) SiO2 
 PCOD9283036
Probable space group: C 2/C
;
_chemical_formula_sum "Si O2"
_cell_formula_units_Z 48
_cell_length_a 12.659517
_cell_length_b 7.733818
_cell_length_c 23.102147
_cell_angle_alpha 90.000000
_cell_angle_beta 62.414046
_cell_angle_gamma 90.000000
_cell_volume 2004.714675
_symmetry_space_group_name_H-M "C 2/C"
_symmetry_group_IT_number 15
_symmetry_cell_setting 'monoclinic'
loop_
_space_group_symop_operation_xyz
x,y,z
-x,y,1/2-z
-x,-y,-z
x,-y,1/2+z
1/2+x,1/2+y,z
1/2-x,1/2+y,1/2-z
1/2-x,1/2-y,-z
1/2+x,1/2-y,1/2+z
loop_
_atom_site_type_symbol
_atom_site_label
_atom_site_fract_x
_atom_site_fract_y
_atom_site_fract_z
Si Si1 0.464542 0.357583 0.462783
Si Si2 0.704158 0.823092 0.922251
Si Si3 0.215504 0.472004 0.533995
Si Si4 0.053914 0.762321 0.147149
Si Si5 0.859341 0.249826 0.275124
Si Si6 0.318451 0.840396 0.775901
O O1 0.500000 0.500000 0.500000
O O2 0.566604 0.215616 0.443101
O O3 0.326138 0.340823 0.513549
O O4 0.464465 0.414390 0.394957
O O5 0.754785 0.648477 0.939308
O O6 0.781263 0.842680 0.844646
O O7 0.706550 0.969979 0.969924
O O8 0.101451 0.388798 0.592850
O O9 0.151687 0.765501 0.173187
O O10 0.927751 0.715742 0.206779
O O11 0.804021 0.193407 0.227152
O O12 0.835109 0.456551 0.285398
O O13 0.000000 0.217082 0.250000
#
# Coordination Sequence:
#
# PCOD9283036 Si02
#       6
#     8   8   8   8   8   8
#     4  10  22  40  66 100 137 177 224 296 350 412
#     4  10  21  41  64  96 137 170 230 297 338 417
#     4  10  21  39  66  95 132 180 222 285 358 413
#     4  11  21  46  68  98 147 180 237 287 364 422
#     4  12  24  48  71 103 142 191 242 292 359 424
#     4  11  25  45  74 100 144 194 228 306 347 430
#
# _framework density 23.943556000000001
#
# number of rings (size 3 to 8) (size 9 to 14) (size 15 to 20)
#    0.000    1.333    5.000    0.500    0.000    3.333 
#   12.000    0.000    0.000    0.000    0.000    0.000 
#    0.000    0.000    0.000    0.000    0.000    0.000 
#
# Total GULP energy -134083.958568 kJ/mol
# GULP energy per Si atom -5586.831607 kJ/mol
# Density = 2.388906 g / cm^3
# Si number density = 23.943556 Si / 1000 Ang^3
#
#
#
# Elastic Constant Matrix: (Units=GPa)
#
#
# Indices 1 2 3 4 5 6 
#
# 1 218.5227 48.9021 63.4046 0.0000 24.1784 0.0000
# 2 48.9021 71.2179 49.2808 0.0000 1.0431 0.0000
# 3 63.4046 49.2808 130.9402 0.0000 32.8732 0.0000
# 4 0.0000 0.0000 0.0000 37.2694 0.0000 8.2241
# 5 24.1784 1.0431 32.8732 0.0000 36.9190 0.0000
# 6 0.0000 0.0000 0.0000 8.2241 0.0000 31.0687
#
#
#
# Elastic Compliance Matrix: (Units=1/GPa)
#
#
# Indices 1 2 3 4 5 6 
#
# 1 0.005924 -0.003479 -0.000785 0.000000 -0.003082 0.000000
# 2 -0.003479 0.022793 -0.009407 0.000000 0.010010 0.000000
# 3 -0.000785 -0.009407 0.014633 0.000000 -0.012249 0.000000
# 4 0.000000 0.000000 0.000000 0.028496 0.000000 -0.007543
# 5 -0.003082 0.010010 -0.012249 0.000000 0.039729 0.000000
# 6 0.000000 0.000000 0.000000 -0.007543 0.000000 0.034183
#
#
# Mechanical properties :
#
#
# Convention : Reuss Voigt Hill
#
# Bulk Modulus (GPa) = 62.47203 82.65064 72.56134
# Shear Modulus (GPa) = 28.02123 38.32431 33.17277
#
# Velocity S-wave (km/s) = 3.42468 4.00510 3.72621
# Velocity P-wave (km/s) = 6.46420 7.48209 6.99170
#
# Compressibility (1/GPa) = 0.01600716
#
# Stress axis : x y z
#
# Youngs Moduli (GPa) = 168.81766 43.87316 68.33848
#
# Poissons Ratio (x) = 0.15263 0.05367
# Poissons Ratio (y) = 0.58730 0.64286
# Poissons Ratio (z) = 0.13258 0.41272
#
# Static dielectric constant tensor:
#      x y z
#    x 1.993820 0.000000 0.073970 
#    y 0.000000 1.897150 0.000000 
#    z 0.073970 0.000000 1.688940 
# 
# From -- ./inp_files/268028.got.cif
#   From: 2010.05.17/outbox.cif.g08.bks.cpg/sg15_135_cif.got.tgz:268028.got - 2010.06.03 18:47:42.
