data_PCOD9283362
_publ_section_title
;
Structure prediction by ZEFSAII (Michael W. Deem and Ramdas Pophale) SiO2 
 PCOD9283362
Probable space group: C 2/C
;
_chemical_formula_sum "Si O2"
_cell_formula_units_Z 48
_cell_length_a 25.701986
_cell_length_b 5.168862
_cell_length_c 20.104268
_cell_angle_alpha 90.000000
_cell_angle_beta 118.905942
_cell_angle_gamma 90.000000
_cell_volume 2338.102641
_symmetry_space_group_name_H-M "C 2/C"
_symmetry_group_IT_number 15
_symmetry_cell_setting 'monoclinic'
loop_
_space_group_symop_operation_xyz
x,y,z
-x,y,1/2-z
-x,-y,-z
x,-y,1/2+z
1/2+x,1/2+y,z
1/2-x,1/2+y,1/2-z
1/2-x,1/2-y,-z
1/2+x,1/2-y,1/2+z
loop_
_atom_site_type_symbol
_atom_site_label
_atom_site_fract_x
_atom_site_fract_y
_atom_site_fract_z
Si Si1 0.493395 0.296404 0.552794
Si Si2 0.295019 0.941679 0.457603
Si Si3 0.216370 0.553501 0.904728
Si Si4 0.105457 0.558651 0.082115
Si Si5 0.046633 0.863040 0.720503
Si Si6 0.377995 0.851135 0.756844
O O1 0.500000 0.500000 0.500000
O O2 0.547909 0.100800 0.572242
O O3 0.507808 0.422121 0.631352
O O4 0.426463 0.206235 0.499042
O O5 0.269245 0.653341 0.446564
O O6 0.339902 0.934193 0.423134
O O7 0.243991 0.160481 0.413147
O O8 0.318390 0.026280 0.545865
O O9 0.179034 0.452788 0.818713
O O10 0.128261 0.677983 0.166407
O O11 0.074407 0.578179 0.729410
O O12 0.000000 0.872092 0.750000
O O13 0.097843 0.078785 0.755727
#
# Coordination Sequence:
#
# PCOD9283362 Si02
#       6
#     8   8   8   8   8   8
#     4  10  21  40  60  90 128 158 204 249 299 377
#     4  10  23  41  63  89 118 164 205 247 311 355
#     4  10  23  42  60  90 123 154 209 255 294 367
#     4  10  23  38  63  90 122 165 202 250 310 362
#     4  11  24  39  61  93 123 163 204 244 310 365
#     4  11  23  41  61  90 126 156 204 261 297 362
#
# _framework density 20.529467
#
# number of rings (size 3 to 8) (size 9 to 14) (size 15 to 20)
#    0.000    1.667    1.667    1.500    4.667    2.667 
#    0.000    0.000    0.000    0.000    0.000    0.000 
#    0.000    0.000    0.000    0.000    0.000    0.000 
#
# Total GULP energy -133609.325969 kJ/mol
# GULP energy per Si atom -5567.055249 kJ/mol
# Density = 2.048274 g / cm^3
# Si number density = 20.529467 Si / 1000 Ang^3
#
#
#
# Elastic Constant Matrix: (Units=GPa)
#
#
# Indices 1 2 3 4 5 6 
#
# 1 58.0449 -3.3224 18.8183 0.0001 -26.1980 0.0000
# 2 -3.3224 55.6300 -18.4354 -0.0003 -3.5221 -0.0001
# 3 18.8183 -18.4354 84.2616 0.0001 4.8450 0.0002
# 4 0.0001 -0.0003 0.0001 26.6235 0.0002 3.4608
# 5 -26.1980 -3.5221 4.8450 0.0002 26.9805 0.0000
# 6 0.0000 -0.0001 0.0002 3.4608 0.0000 15.7343
#
#
#
# Elastic Compliance Matrix: (Units=1/GPa)
#
#
# Indices 1 2 3 4 5 6 
#
# 1 0.038589 0.001292 -0.010609 0.000000 0.039544 0.000000
# 2 0.001292 0.019510 0.003801 0.000000 0.003119 0.000000
# 3 -0.010609 0.003801 0.015796 0.000000 -0.012642 0.000000
# 4 0.000000 0.000000 0.000000 0.038666 -0.000001 -0.008505
# 5 0.039544 0.003119 -0.012642 -0.000001 0.078138 0.000000
# 6 0.000000 0.000000 0.000000 -0.008505 0.000000 0.065426
#
#
# Mechanical properties :
#
#
# Convention : Reuss Voigt Hill
#
# Bulk Modulus (GPa) = 15.90772 21.33974 18.62373
# Shear Modulus (GPa) = 17.35437 27.25940 22.30688
#
# Velocity S-wave (km/s) = 2.91063 3.64788 3.29991
# Velocity P-wave (km/s) = 4.36591 5.30659 4.85907
#
# Compressibility (1/GPa) = 0.06286254
#
# Stress axis : x y z
#
# Youngs Moduli (GPa) = 25.91395 51.25559 63.30886
#
# Poissons Ratio (x) = -0.06625 0.67166
# Poissons Ratio (y) = -0.03349 -0.24061
# Poissons Ratio (z) = 0.27493 -0.19480
#
# Static dielectric constant tensor:
#      x y z
#    x 1.608500 0.000000 -0.098910 
#    y 0.000000 1.704810 0.000000 
#    z -0.098910 0.000000 1.708450 
# 
# From -- ./inp_files/217811.got.cif
#   From: 2010.05.17/outbox.cif.g08.bks.cpg/sg15_109_cif.got.tgz:217811.got - 2010.06.03 18:47:42.
