data_PCOD9283052
_publ_section_title
;
Structure prediction by ZEFSAII (Michael W. Deem and Ramdas Pophale) SiO2 
 PCOD9283052
Probable space group: C 2/C
;
_chemical_formula_sum "Si O2"
_cell_formula_units_Z 40
_cell_length_a 10.792452
_cell_length_b 31.524983
_cell_length_c 5.851088
_cell_angle_alpha 90.000000
_cell_angle_beta 109.925301
_cell_angle_gamma 90.000000
_cell_volume 1871.557172
_symmetry_space_group_name_H-M "C 2/C"
_symmetry_group_IT_number 15
_symmetry_cell_setting 'monoclinic'
loop_
_space_group_symop_operation_xyz
x,y,z
-x,y,1/2-z
-x,-y,-z
x,-y,1/2+z
1/2+x,1/2+y,z
1/2-x,1/2+y,1/2-z
1/2-x,1/2-y,-z
1/2+x,1/2-y,1/2+z
loop_
_atom_site_type_symbol
_atom_site_label
_atom_site_fract_x
_atom_site_fract_y
_atom_site_fract_z
Si Si1 0.126664 0.611528 0.163466
Si Si2 0.342032 0.732963 0.358824
Si Si3 0.848286 0.515352 0.423154
Si Si4 0.634682 0.350973 0.397964
Si Si5 0.326504 0.814481 0.132361
O O1 0.148312 0.566172 0.061834
O O2 0.260598 0.624096 0.381122
O O3 0.000000 0.609052 0.250000
O O4 0.104105 0.649030 0.968940
O O5 0.250000 0.750000 0.500000
O O6 0.416070 0.691920 0.502220
O O7 0.402023 0.777984 0.323414
O O8 0.256496 0.712130 0.105319
O O9 0.793246 0.497493 0.632981
O O10 0.000000 0.500000 0.500000
O O11 0.500000 0.374647 0.250000
O O12 0.722386 0.336654 0.237491
#
# Coordination Sequence:
#
# PCOD9283052 Si02
#       5
#     8   8   8   8   8
#     4  11  23  38  62  97 127 161 215 271 331 398
#     4   8  16  36  55  82 115 165 212 259 318 380
#     4  10  21  39  66  97 134 175 210 269 344 415
#     4  10  22  39  60  87 123 167 219 264 322 394
#     4   9  19  36  60  82 122 161 209 269 318 378
#
# _framework density 21.372575000000001
#
# number of rings (size 3 to 8) (size 9 to 14) (size 15 to 20)
#    0.000    2.400    2.000    0.000    2.800    4.000 
#    0.000   46.000    0.000    1.200    0.000    0.000 
#    0.000    0.000    0.000    0.000    0.000    0.000 
#
# Total GULP energy -111398.272296 kJ/mol
# GULP energy per Si atom -5569.913615 kJ/mol
# Density = 2.132393 g / cm^3
# Si number density = 21.372575 Si / 1000 Ang^3
#
#
#
# Elastic Constant Matrix: (Units=GPa)
#
#
# Indices 1 2 3 4 5 6 
#
# 1 53.0754 -4.0355 5.6903 0.0000 7.4369 0.0000
# 2 -4.0355 130.2567 27.8832 0.0000 -2.2167 0.0000
# 3 5.6903 27.8832 97.3546 0.0000 -2.3084 0.0000
# 4 0.0000 0.0000 0.0000 -52.4277 0.0000 -56.6779
# 5 7.4369 -2.2167 -2.3084 0.0000 42.9312 0.0000
# 6 0.0000 0.0000 0.0000 -56.6779 0.0000 -21.1050
#
#
#
# Elastic Compliance Matrix: (Units=1/GPa)
#
#
# Indices 1 2 3 4 5 6 
#
# 1 0.019543 0.000862 -0.001470 0.000000 -0.003420 0.000000
# 2 0.000862 0.008220 -0.002401 0.000000 0.000146 0.000000
# 3 -0.001470 -0.002401 0.011063 0.000000 0.000726 0.000000
# 4 0.000000 0.000000 0.000000 0.010022 0.000000 -0.026914
# 5 -0.003420 0.000146 0.000726 0.000000 0.023932 0.000000
# 6 0.000000 0.000000 0.000000 -0.026914 0.000000 0.024896
#
#
# Mechanical properties :
#
#
# Convention : Reuss Voigt Hill
#
# Bulk Modulus (GPa) = 30.48099 37.75142 34.11621
# Shear Modulus (GPa) = 43.61823 10.62297 27.12060
#
# Velocity S-wave (km/s) = 4.52248 2.23185 3.56609
# Velocity P-wave (km/s) = 6.44695 4.93390 5.74049
#
# Compressibility (1/GPa) = 0.03280733
#
# Stress axis : x y z
#
# Youngs Moduli (GPa) = 51.16792 121.64895 90.39449
#
# Poissons Ratio (x) = -0.10486 0.13291
# Poissons Ratio (y) = -0.04411 0.21707
# Poissons Ratio (z) = 0.07523 0.29212
#
# Static dielectric constant tensor:
#      x y z
#    x 1.679310 0.000000 -0.042780 
#    y 0.000000 1.771870 0.000000 
#    z -0.042780 0.000000 1.838260 
# 
# From -- ./inp_files/5594.got.cif
#   From: 2010.05.17/outbox.cif.g08.bks.cpg/sg15_3_cif.got.tgz:5594.got - 2010.06.03 18:47:42.
