data_PCOD9283406
_publ_section_title
;
Structure prediction by ZEFSAII (Michael W. Deem and Ramdas Pophale) SiO2 
 PCOD9283406
Probable space group: C 2/C
;
_chemical_formula_sum "Si O2"
_cell_formula_units_Z 60
_cell_length_a 12.024111
_cell_length_b 8.704413
_cell_length_c 30.330737
_cell_angle_alpha 90.000000
_cell_angle_beta 102.995637
_cell_angle_gamma 90.000000
_cell_volume 3093.192835
_symmetry_space_group_name_H-M "C 2/C"
_symmetry_group_IT_number 15
_symmetry_cell_setting 'monoclinic'
loop_
_space_group_symop_operation_xyz
x,y,z
-x,y,1/2-z
-x,-y,-z
x,-y,1/2+z
1/2+x,1/2+y,z
1/2-x,1/2+y,1/2-z
1/2-x,1/2-y,-z
1/2+x,1/2-y,1/2+z
loop_
_atom_site_type_symbol
_atom_site_label
_atom_site_fract_x
_atom_site_fract_y
_atom_site_fract_z
Si Si1 0.666443 0.001222 0.374661
Si Si2 0.419848 0.574348 0.090562
Si Si3 0.782580 0.621650 0.967767
Si Si4 0.858883 0.209327 0.387895
Si Si5 0.000000 0.687183 0.750000
Si Si6 0.664019 0.863880 0.467168
Si Si7 0.412318 0.981392 0.327217
Si Si8 0.312070 0.319999 0.671518
O O1 0.735250 0.146596 0.365204
O O2 0.532780 0.038582 0.357983
O O3 0.702786 0.963629 0.428307
O O4 0.700726 0.852159 0.349311
O O5 0.336581 0.457764 0.058259
O O6 0.556126 0.561751 0.103424
O O7 0.414713 0.739773 0.064643
O O8 0.368201 0.591188 0.134851
O O9 0.844718 0.698374 0.932137
O O10 0.750000 0.750000 0.000000
O O11 0.860446 0.491017 0.997913
O O12 0.893750 0.326446 0.353324
O O13 0.061413 0.576356 0.719831
O O14 0.094771 0.793774 0.781984
O O15 0.750000 0.750000 0.500000
O O16 0.304846 0.095427 0.324371
#
# Coordination Sequence:
#
# PCOD9283406 Si02
#       8
#     8   8   8   8   4   8   8   8
#     4  10  22  41  60  92 128 167 212 256 311 371
#     4  10  21  40  61  88 126 175 209 255 321 375
#     4  11  22  36  58  95 130 165 225 263 301 372
#     4  12  22  39  66  90 129 172 208 264 317 367
#     4  10  22  42  68 100 122 148 210 262 318 390
#     4   9  18  37  55  81 128 165 216 259 298 362
#     4  11  23  44  69  92 125 167 202 259 322 387
#     4  10  21  44  68  91 127 164 203 256 326 381
#
# _framework density 19.397432999999999
#
# number of rings (size 3 to 8) (size 9 to 14) (size 15 to 20)
#    0.000    1.600    6.667    0.000    0.000    4.267 
#    0.000    0.000    0.000    0.000    0.000    0.000 
#    0.000    0.000    0.000    0.000    0.000    0.000 
#
# Total GULP energy -167041.331235 kJ/mol
# GULP energy per Si atom -5568.044375 kJ/mol
# Density = 1.935328 g / cm^3
# Si number density = 19.397433 Si / 1000 Ang^3
#
#
#
# Elastic Constant Matrix: (Units=GPa)
#
#
# Indices 1 2 3 4 5 6 
#
# 1 143.1075 56.6218 54.2280 0.0000 1.5889 0.0000
# 2 56.6218 41.9066 42.7958 0.0000 -10.4259 0.0000
# 3 54.2280 42.7958 120.2843 0.0000 -4.3809 0.0000
# 4 0.0000 0.0000 0.0000 15.2125 0.0000 -1.9843
# 5 1.5889 -10.4259 -4.3809 0.0000 19.3047 0.0000
# 6 0.0000 0.0000 0.0000 -1.9843 0.0000 45.1826
#
#
#
# Elastic Compliance Matrix: (Units=1/GPa)
#
#
# Indices 1 2 3 4 5 6 
#
# 1 0.019728 -0.034066 0.002518 0.000000 -0.019450 0.000000
# 2 -0.034066 0.103123 -0.019362 0.000000 0.054104 0.000000
# 3 0.002518 -0.019362 0.013793 0.000000 -0.007534 0.000000
# 4 0.000000 0.000000 0.000000 0.066114 0.000000 0.002904
# 5 -0.019450 0.054104 -0.007534 0.000000 0.080912 0.000000
# 6 0.000000 0.000000 0.000000 0.002904 0.000000 0.022260
#
#
# Mechanical properties :
#
#
# Convention : Reuss Voigt Hill
#
# Bulk Modulus (GPa) = 28.71505 68.06549 48.39027
# Shear Modulus (GPa) = 11.92301 26.05015 18.98658
#
# Velocity S-wave (km/s) = 2.48194 3.66863 3.13200
# Velocity P-wave (km/s) = 4.80094 7.28775 6.17091
#
# Compressibility (1/GPa) = 0.03482495
#
# Stress axis : x y z
#
# Youngs Moduli (GPa) = 50.68918 9.69715 72.50155
#
# Poissons Ratio (x) = 0.33034 -0.18254
# Poissons Ratio (y) = 1.72676 1.40374
# Poissons Ratio (z) = -0.12762 0.18775
#
# Static dielectric constant tensor:
#      x y z
#    x 1.726350 0.000000 0.028650 
#    y 0.000000 1.668880 0.000000 
#    z 0.028650 0.000000 1.694720 
# 
# From -- ./inp_files/310014.got.cif
#   From: 2010.05.17/outbox.cif.g08.bks.cpg/sg15_156_cif.got.tgz:310014.got - 2010.06.03 18:47:42.
