data_PCOD9283431
_publ_section_title
;
Structure prediction by ZEFSAII (Michael W. Deem and Ramdas Pophale) SiO2 
 PCOD9283431
Probable space group: C 2/C
;
_chemical_formula_sum "Si O2"
_cell_formula_units_Z 64
_cell_length_a 30.960925
_cell_length_b 14.523959
_cell_length_c 8.301140
_cell_angle_alpha 90.000000
_cell_angle_beta 128.877327
_cell_angle_gamma 90.000000
_cell_volume 2905.966490
_symmetry_space_group_name_H-M "C 2/C"
_symmetry_group_IT_number 15
_symmetry_cell_setting 'monoclinic'
loop_
_space_group_symop_operation_xyz
x,y,z
-x,y,1/2-z
-x,-y,-z
x,-y,1/2+z
1/2+x,1/2+y,z
1/2-x,1/2+y,1/2-z
1/2-x,1/2-y,-z
1/2+x,1/2-y,1/2+z
loop_
_atom_site_type_symbol
_atom_site_label
_atom_site_fract_x
_atom_site_fract_y
_atom_site_fract_z
Si Si1 0.796740 0.562879 0.778074
Si Si2 0.711392 0.124491 0.366063
Si Si3 0.432603 0.321149 0.219263
Si Si4 0.169222 0.172878 0.781782
Si Si5 0.629358 0.781631 0.202328
Si Si6 0.059014 0.980121 0.725028
Si Si7 0.032595 0.771852 0.677302
Si Si8 0.672431 0.404692 0.936551
O O1 0.813466 0.456747 0.799542
O O2 0.834877 0.631239 0.763925
O O3 0.734754 0.562025 0.556890
O O4 0.795108 0.598008 0.959037
O O5 0.777164 0.141192 0.489514
O O6 0.682419 0.221564 0.267739
O O7 0.387682 0.328493 0.256148
O O8 0.436270 0.425878 0.160925
O O9 0.490233 0.288424 0.430613
O O10 0.407796 0.250380 0.035470
O O11 0.168743 0.113908 0.619050
O O12 0.585351 0.786001 0.244678
O O13 0.666055 0.691997 0.329920
O O14 0.051307 0.875931 0.770844
O O15 0.119137 0.969058 0.777341
O O16 0.000000 0.000000 0.500000
O O17 0.000000 0.730175 0.750000
#
# Coordination Sequence:
#
# PCOD9283431 Si02
#       8
#     8   8   8   8   8   8   8   8
#     4  11  23  41  61  94 124 168 217 269 324 389
#     4  10  23  40  63  91 126 164 214 269 323 379
#     4  11  20  36  62  88 130 169 206 271 321 387
#     4  10  21  40  61  91 126 169 210 260 325 390
#     4  11  23  38  58  92 125 167 217 262 326 384
#     4   9  20  35  57  92 130 168 214 259 315 390
#     4  10  22  39  59  89 124 168 220 263 327 396
#     4  10  22  37  58  91 131 175 213 257 318 392
#
# _framework density 22.023654000000001
#
# number of rings (size 3 to 8) (size 9 to 14) (size 15 to 20)
#    0.000    1.750    1.250    3.000    1.750   10.000 
#    0.000    0.000    0.000    0.750    0.000    0.000 
#    0.000    0.000    0.000    0.000    0.000    0.000 
#
# Total GULP energy -178792.083110 kJ/mol
# GULP energy per Si atom -5587.252597 kJ/mol
# Density = 2.197353 g / cm^3
# Si number density = 22.023654 Si / 1000 Ang^3
#
#
#
# Elastic Constant Matrix: (Units=GPa)
#
#
# Indices 1 2 3 4 5 6 
#
# 1 113.7758 38.6369 25.0532 0.0000 26.2061 0.0000
# 2 38.6369 77.5895 14.8109 0.0000 20.1620 0.0000
# 3 25.0532 14.8109 70.8970 0.0000 10.9401 0.0000
# 4 0.0000 0.0000 0.0000 23.2976 0.0000 4.0490
# 5 26.2061 20.1620 10.9401 0.0000 21.9614 0.0000
# 6 0.0000 0.0000 0.0000 4.0490 0.0000 15.3976
#
#
#
# Elastic Compliance Matrix: (Units=1/GPa)
#
#
# Indices 1 2 3 4 5 6 
#
# 1 0.012969 -0.003026 -0.002157 0.000000 -0.011623 0.000000
# 2 -0.003026 0.017732 -0.000737 0.000000 -0.012302 0.000000
# 3 -0.002157 -0.000737 0.015729 0.000000 -0.004585 0.000000
# 4 0.000000 0.000000 0.000000 0.044978 0.000000 -0.011828
# 5 -0.011623 -0.012302 -0.004585 0.000000 0.072981 0.000000
# 6 0.000000 0.000000 0.000000 -0.011828 0.000000 0.068055
#
#
# Mechanical properties :
#
#
# Convention : Reuss Voigt Hill
#
# Bulk Modulus (GPa) = 28.91026 46.58490 37.74758
# Shear Modulus (GPa) = 19.54538 24.38209 21.96374
#
# Velocity S-wave (km/s) = 2.98228 3.33090 3.16140
# Velocity P-wave (km/s) = 5.00141 5.99928 5.52292
#
# Compressibility (1/GPa) = 0.03458979
#
# Stress axis : x y z
#
# Youngs Moduli (GPa) = 77.10737 56.39364 63.57822
#
# Poissons Ratio (x) = 0.17065 0.13715
# Poissons Ratio (y) = 0.23333 0.04685
# Poissons Ratio (z) = 0.16634 0.04155
#
# Static dielectric constant tensor:
#      x y z
#    x 1.850610 0.000000 -0.027480 
#    y 0.000000 1.780810 0.000000 
#    z -0.027480 0.000000 1.863350 
# 
# From -- ./inp_files/70168.got.cif
#   From: 2010.05.17/outbox.cif.g08.bks.cpg/sg15_36_cif.got.tgz:70168.got - 2010.06.03 18:47:42.
