data_PCOD9283581
_publ_section_title
;
Structure prediction by ZEFSAII (Michael W. Deem and Ramdas Pophale) SiO2 
 PCOD9283581
Probable space group: C 2/C
;
_chemical_formula_sum "Si O2"
_cell_formula_units_Z 44
_cell_length_a 23.919443
_cell_length_b 10.902028
_cell_length_c 8.138334
_cell_angle_alpha 90.000000
_cell_angle_beta 68.219799
_cell_angle_gamma 90.000000
_cell_volume 1970.739125
_symmetry_space_group_name_H-M "C 2/C"
_symmetry_group_IT_number 15
_symmetry_cell_setting 'monoclinic'
loop_
_space_group_symop_operation_xyz
x,y,z
-x,y,1/2-z
-x,-y,-z
x,-y,1/2+z
1/2+x,1/2+y,z
1/2-x,1/2+y,1/2-z
1/2-x,1/2-y,-z
1/2+x,1/2-y,1/2+z
loop_
_atom_site_type_symbol
_atom_site_label
_atom_site_fract_x
_atom_site_fract_y
_atom_site_fract_z
Si Si1 0.500000 0.653932 0.250000
Si Si2 0.401204 0.375790 0.617475
Si Si3 0.121594 0.392123 0.366193
Si Si4 0.251166 0.630207 0.886413
Si Si5 0.437286 0.109732 0.896388
Si Si6 0.675529 0.436484 0.499152
O O1 0.540097 0.587621 0.341700
O O2 0.543898 0.748007 0.100233
O O3 0.408821 0.237016 0.543333
O O4 0.376716 0.472662 0.513484
O O5 0.349181 0.367954 0.814034
O O6 0.186772 0.393863 0.375079
O O7 0.084436 0.514421 0.447295
O O8 0.116412 0.387649 0.176367
O O9 0.298973 0.637650 0.683763
O O10 0.250000 0.750000 0.000000
O O11 0.272006 0.521954 0.984474
O O12 0.500000 0.061178 0.750000
#
# Coordination Sequence:
#
# PCOD9283581 Si02
#       6
#     4   8   8   8   8   8
#     4   8  20  38  62  90 118 150 194 242 302 354
#     4  10  21  40  63  84 120 157 200 248 293 352
#     4  11  20  39  59  91 121 155 194 243 302 351
#     4  11  22  41  61  89 120 160 202 242 299 352
#     4   9  20  36  61  88 125 146 190 245 302 356
#     4  10  23  42  60  85 121 158 204 249 286 355
#
# _framework density 22.326649
#
# number of rings (size 3 to 8) (size 9 to 14) (size 15 to 20)
#    0.545    1.455    1.818    1.636    0.000    1.455 
#   13.091    0.000    2.000    0.000    0.000    0.000 
#    0.000    0.000    0.000    0.000    0.000    0.000 
#
# Total GULP energy -122646.554220 kJ/mol
# GULP energy per Si atom -5574.843374 kJ/mol
# Density = 2.227583 g / cm^3
# Si number density = 22.326649 Si / 1000 Ang^3
#
#
#
# Elastic Constant Matrix: (Units=GPa)
#
#
# Indices 1 2 3 4 5 6 
#
# 1 152.9226 5.2264 -4.0699 0.0000 34.6230 0.0000
# 2 5.2264 53.3740 23.7359 0.0000 3.0482 0.0000
# 3 -4.0699 23.7359 51.6579 0.0000 5.2418 0.0000
# 4 0.0000 0.0000 0.0000 20.7262 0.0000 4.8778
# 5 34.6230 3.0482 5.2418 0.0000 23.8542 0.0000
# 6 0.0000 0.0000 0.0000 4.8778 0.0000 11.7080
#
#
#
# Elastic Compliance Matrix: (Units=1/GPa)
#
#
# Indices 1 2 3 4 5 6 
#
# 1 0.010093 -0.001459 0.003000 0.000000 -0.015122 0.000000
# 2 -0.001459 0.023768 -0.011192 0.000000 0.001539 0.000000
# 3 0.003000 -0.011192 0.025605 0.000000 -0.008550 0.000000
# 4 0.000000 0.000000 0.000000 0.053493 0.000000 -0.022286
# 5 -0.015122 0.001539 -0.008550 0.000000 0.065552 0.000000
# 6 0.000000 0.000000 0.000000 -0.022286 0.000000 0.094697
#
#
# Mechanical properties :
#
#
# Convention : Reuss Voigt Hill
#
# Bulk Modulus (GPa) = 24.89836 34.19325 29.54581
# Shear Modulus (GPa) = 16.34542 26.79515 21.57029
#
# Velocity S-wave (km/s) = 2.70868 3.46807 3.11162
# Velocity P-wave (km/s) = 4.57806 5.60222 5.11583
#
# Compressibility (1/GPa) = 0.04016328
#
# Stress axis : x y z
#
# Youngs Moduli (GPa) = 99.08212 42.07373 39.05551
#
# Poissons Ratio (x) = 0.06137 -0.11716
# Poissons Ratio (y) = 0.14453 0.43711
# Poissons Ratio (z) = -0.29723 0.47089
#
# Static dielectric constant tensor:
#      x y z
#    x 1.841790 0.000000 -0.030010 
#    y 0.000000 1.882260 0.000000 
#    z -0.030010 0.000000 1.867130 
# 
# From -- ./inp_files/60500.got.cif
#   From: 2010.05.17/outbox.cif.g08.bks.cpg/sg15_31_cif.got.tgz:60500.got - 2010.06.03 18:47:42.
