data_PCOD9283757
_publ_section_title
;
Structure prediction by ZEFSAII (Michael W. Deem and Ramdas Pophale) SiO2 
 PCOD9283757
Probable space group: C 2/C
;
_chemical_formula_sum "Si O2"
_cell_formula_units_Z 32
_cell_length_a 7.820664
_cell_length_b 10.782870
_cell_length_c 27.924073
_cell_angle_alpha 90.000000
_cell_angle_beta 147.389733
_cell_angle_gamma 90.000000
_cell_volume 1269.060899
_symmetry_space_group_name_H-M "C 2/C"
_symmetry_group_IT_number 15
_symmetry_cell_setting 'monoclinic'
loop_
_space_group_symop_operation_xyz
x,y,z
-x,y,1/2-z
-x,-y,-z
x,-y,1/2+z
1/2+x,1/2+y,z
1/2-x,1/2+y,1/2-z
1/2-x,1/2-y,-z
1/2+x,1/2-y,1/2+z
loop_
_atom_site_type_symbol
_atom_site_label
_atom_site_fract_x
_atom_site_fract_y
_atom_site_fract_z
Si Si1 0.834852 0.805156 0.160980
Si Si2 0.756382 0.530651 0.519879
Si Si3 0.850172 0.315128 0.850308
Si Si4 0.348289 0.461779 0.340902
O O1 0.000000 0.782475 0.250000
O O2 0.919521 0.700430 0.141775
O O3 0.010163 0.921390 0.176379
O O4 0.475330 0.850469 0.081698
O O5 0.500000 0.500000 0.500000
O O6 0.585349 0.540689 0.428423
O O7 0.986149 0.409717 0.575408
O O8 0.500000 0.352537 0.750000
O O9 0.814436 0.172814 0.859861
O O10 0.000000 0.512126 0.250000
#
# Coordination Sequence:
#
# PCOD9283757 Si02
#       4
#     8   8   8   8
#     4  10  21  40  64  91 129 165 213 262 310 388
#     4  12  23  37  65 100 126 166 216 261 322 387
#     4   9  22  42  65  86 125 173 204 263 327 375
#     4   9  20  41  62  86 128 169 209 265 318 377
#
# _framework density 25.215495000000001
#
# number of rings (size 3 to 8) (size 9 to 14) (size 15 to 20)
#    1.500    0.500    0.000    3.750    0.000    1.000 
#    0.000    6.250    0.000    0.000    0.000    0.000 
#    0.000    0.000    0.000    0.000    0.000    0.000 
#
# Total GULP energy -89463.201054 kJ/mol
# GULP energy per Si atom -5591.450066 kJ/mol
# Density = 2.515810 g / cm^3
# Si number density = 25.215495 Si / 1000 Ang^3
#
#
#
# Elastic Constant Matrix: (Units=GPa)
#
#
# Indices 1 2 3 4 5 6 
#
# 1 99.9573 23.5676 21.8561 0.0001 10.6734 0.0000
# 2 23.5676 94.8322 63.1869 0.0001 7.6999 0.0000
# 3 21.8561 63.1869 159.8675 0.0003 11.2699 0.0001
# 4 0.0001 0.0001 0.0003 -0.1328 0.0001 -4.2681
# 5 10.6734 7.6999 11.2699 0.0001 42.8916 0.0000
# 6 0.0000 0.0000 0.0001 -4.2681 0.0000 27.4637
#
#
#
# Elastic Compliance Matrix: (Units=1/GPa)
#
#
# Indices 1 2 3 4 5 6 
#
# 1 0.010860 -0.002219 -0.000454 0.000001 -0.002185 0.000000
# 2 -0.002219 0.014820 -0.005507 -0.000001 -0.000661 0.000000
# 3 -0.000454 -0.005507 0.008575 0.000003 -0.001152 0.000000
# 4 0.000001 -0.000001 0.000003 -1.256176 0.000001 -0.195223
# 5 -0.002185 -0.000661 -0.001152 0.000001 0.024280 0.000000
# 6 0.000000 0.000000 0.000000 -0.195223 0.000000 0.006072
#
#
# Mechanical properties :
#
#
# Convention : Reuss Voigt Hill
#
# Bulk Modulus (GPa) = 55.88347 63.54202 59.71274
# Shear Modulus (GPa) = -4.27627 30.44760 13.08567
#
# Velocity S-wave (km/s) = -1.30368 3.47867 2.28053
# Velocity P-wave (km/s) = 4.46591 6.43344 5.53776
#
# Compressibility (1/GPa) = 0.01789438
#
# Stress axis : x y z
#
# Youngs Moduli (GPa) = 92.08099 67.47741 116.61605
#
# Poissons Ratio (x) = 0.14976 0.05289
# Poissons Ratio (y) = 0.20436 0.64225
# Poissons Ratio (z) = 0.04176 0.37163
#
# Static dielectric constant tensor:
#      x y z
#    x 1.989560 0.000000 0.041920 
#    y 0.000000 2.009580 0.000000 
#    z 0.041920 0.000000 1.914850 
# 
# From -- ./inp_files/188596.got.cif
#   From: 2010.05.17/outbox.cif.g08.bks.cpg/sg15_95_cif.got.tgz:188596.got - 2010.06.03 18:47:42.
