data_PCOD9283790
_publ_section_title
;
Structure prediction by ZEFSAII (Michael W. Deem and Ramdas Pophale) SiO2 
 PCOD9283790
Probable space group: C 2/C
;
_chemical_formula_sum "Si O2"
_cell_formula_units_Z 40
_cell_length_a 25.344882
_cell_length_b 7.510338
_cell_length_c 13.165494
_cell_angle_alpha 90.000000
_cell_angle_beta 38.507212
_cell_angle_gamma 90.000000
_cell_volume 1560.289545
_symmetry_space_group_name_H-M "C 2/C"
_symmetry_group_IT_number 15
_symmetry_cell_setting 'monoclinic'
loop_
_space_group_symop_operation_xyz
x,y,z
-x,y,1/2-z
-x,-y,-z
x,-y,1/2+z
1/2+x,1/2+y,z
1/2-x,1/2+y,1/2-z
1/2-x,1/2-y,-z
1/2+x,1/2-y,1/2+z
loop_
_atom_site_type_symbol
_atom_site_label
_atom_site_fract_x
_atom_site_fract_y
_atom_site_fract_z
Si Si1 0.656408 0.223981 0.411447
Si Si2 0.684358 0.409361 0.573424
Si Si3 0.042759 0.626887 0.287108
Si Si4 0.030174 0.262373 0.407675
Si Si5 0.792049 0.357420 0.051300
O O1 0.664330 0.375420 0.485897
O O2 0.563538 0.241698 0.500672
O O3 0.730175 0.252455 0.218419
O O4 0.673882 0.032280 0.437272
O O5 0.750000 0.250000 0.500000
O O6 0.597128 0.379321 0.766851
O O7 0.737637 0.569104 0.539696
O O8 0.067781 0.455075 0.316707
O O9 0.000000 0.555359 0.250000
O O10 0.982895 0.738136 0.451667
O O11 0.122659 0.729306 0.121580
#
# Coordination Sequence:
#
# PCOD9283790 Si02
#       5
#     8   8   8   8   8
#     4  11  24  43  67  96 134 173 218 272 327 391
#     4  10  21  40  64  93 127 175 212 263 327 388
#     4  11  22  38  67  98 128 173 225 269 308 395
#     4  11  22  40  68  93 130 174 224 262 327 389
#     4  11  25  40  68  97 131 174 220 268 330 385
#
# _framework density 25.636268000000001
#
# number of rings (size 3 to 8) (size 9 to 14) (size 15 to 20)
#    0.000    1.200    6.000    0.600    8.400    1.600 
#    0.000    0.000    0.000    0.000    0.000    0.000 
#    0.000    0.000    0.000    0.000    0.000    0.000 
#
# Total GULP energy -112012.039838 kJ/mol
# GULP energy per Si atom -5600.601992 kJ/mol
# Density = 2.557792 g / cm^3
# Si number density = 25.636268 Si / 1000 Ang^3
#
#
#
# Elastic Constant Matrix: (Units=GPa)
#
#
# Indices 1 2 3 4 5 6 
#
# 1 84.4894 9.8726 48.4083 0.0000 17.8773 0.0000
# 2 9.8726 56.7280 21.8379 0.0000 -0.4823 0.0000
# 3 48.4083 21.8379 233.5007 0.0000 17.1779 0.0000
# 4 0.0000 0.0000 0.0000 47.1760 0.0000 -2.6116
# 5 17.8773 -0.4823 17.1779 0.0000 50.9102 0.0000
# 6 0.0000 0.0000 0.0000 -2.6116 0.0000 38.0393
#
#
#
# Elastic Compliance Matrix: (Units=1/GPa)
#
#
# Indices 1 2 3 4 5 6 
#
# 1 0.014352 -0.001563 -0.002520 0.000000 -0.004204 0.000000
# 2 -0.001563 0.018486 -0.001495 0.000000 0.001229 0.000000
# 3 -0.002520 -0.001495 0.005005 0.000000 -0.000818 0.000000
# 4 0.000000 0.000000 0.000000 0.021278 0.000000 0.001461
# 5 -0.004204 0.001229 -0.000818 0.000000 0.021406 0.000000
# 6 0.000000 0.000000 0.000000 0.001461 0.000000 0.026389
#
#
# Mechanical properties :
#
#
# Convention : Reuss Voigt Hill
#
# Bulk Modulus (GPa) = 37.47266 59.43955 48.45611
# Shear Modulus (GPa) = 39.37980 46.86504 43.12242
#
# Velocity S-wave (km/s) = 3.92356 4.28024 4.10577
# Velocity P-wave (km/s) = 5.93081 6.90386 6.43575
#
# Compressibility (1/GPa) = 0.02668612
#
# Stress axis : x y z
#
# Youngs Moduli (GPa) = 69.67758 54.09475 199.79773
#
# Poissons Ratio (x) = 0.08457 0.50346
# Poissons Ratio (y) = 0.10894 0.29873
# Poissons Ratio (z) = 0.17558 0.08088
#
# Static dielectric constant tensor:
#      x y z
#    x 1.998790 0.000000 -0.001340 
#    y 0.000000 2.224230 0.000000 
#    z -0.001340 0.000000 1.972880 
# 
# From -- ./inp_files/181354.got.cif
#   From: 2010.05.17/outbox.cif.g08.bks.cpg/sg15_91_cif.got.tgz:181354.got - 2010.06.03 18:47:42.
