data_PCOD9283292
_publ_section_title
;
Structure prediction by ZEFSAII (Michael W. Deem and Ramdas Pophale) SiO2 
 PCOD9283292
Probable space group: C 2/C
;
_chemical_formula_sum "Si O2"
_cell_formula_units_Z 64
_cell_length_a 26.096400
_cell_length_b 12.642861
_cell_length_c 10.508703
_cell_angle_alpha 90.000000
_cell_angle_beta 110.399505
_cell_angle_gamma 90.000000
_cell_volume 3249.726029
_symmetry_space_group_name_H-M "C 2/C"
_symmetry_group_IT_number 15
_symmetry_cell_setting 'monoclinic'
loop_
_space_group_symop_operation_xyz
x,y,z
-x,y,1/2-z
-x,-y,-z
x,-y,1/2+z
1/2+x,1/2+y,z
1/2-x,1/2+y,1/2-z
1/2-x,1/2-y,-z
1/2+x,1/2-y,1/2+z
loop_
_atom_site_type_symbol
_atom_site_label
_atom_site_fract_x
_atom_site_fract_y
_atom_site_fract_z
Si Si1 0.452483 0.759434 0.939056
Si Si2 0.899685 0.399488 0.673563
Si Si3 0.923810 0.750156 0.958012
Si Si4 0.344275 0.367910 0.344613
Si Si5 0.812229 0.223061 0.064414
Si Si6 0.781055 0.685902 0.136876
Si Si7 0.326270 0.604311 0.333261
Si Si8 0.086969 0.646824 0.833446
O O1 0.434174 0.845372 0.817529
O O2 0.406383 0.669866 0.885231
O O3 0.513239 0.718190 0.968020
O O4 0.448226 0.808124 0.078645
O O5 0.911231 0.340969 0.550146
O O6 0.834876 0.380580 0.644659
O O7 0.916324 0.521546 0.681239
O O8 0.880011 0.844504 0.946620
O O9 0.921696 0.702943 0.811406
O O10 0.329836 0.366506 0.481007
O O11 0.305485 0.277851 0.249966
O O12 0.335617 0.486270 0.291985
O O13 0.821073 0.182958 0.211952
O O14 0.851249 0.322229 0.072049
O O15 0.750000 0.250000 0.000000
O O16 0.732351 0.613400 0.149067
O O17 0.750000 0.750000 0.000000
#
# Coordination Sequence:
#
# PCOD9283292 Si02
#       8
#     8   8   8   8   8   8   8   8
#     4  10  23  43  61  87 126 158 204 260 294 358
#     4  11  23  38  63  93 122 161 203 247 310 361
#     4  11  23  41  62  89 123 159 209 253 296 359
#     4  10  24  41  62  90 122 160 200 245 306 355
#     4  10  21  40  58  88 124 155 203 243 289 365
#     4  11  23  41  59  90 130 155 195 251 299 361
#     4  11  24  39  65  91 120 163 200 245 303 360
#     4  10  23  39  61  91 121 160 203 250 308 356
#
# _framework density 19.693968000000002
#
# number of rings (size 3 to 8) (size 9 to 14) (size 15 to 20)
#    0.000    1.500    2.500    1.500    3.500    3.500 
#    0.000    0.000    0.000    4.500    0.000    0.000 
#    0.000    0.000    0.000    0.000    0.000    0.000 
#
# Total GULP energy -178480.399553 kJ/mol
# GULP energy per Si atom -5577.512486 kJ/mol
# Density = 1.964914 g / cm^3
# Si number density = 19.693968 Si / 1000 Ang^3
#
#
#
# Elastic Constant Matrix: (Units=GPa)
#
#
# Indices 1 2 3 4 5 6 
#
# 1 144.0950 28.6560 25.3024 0.0000 29.4507 0.0000
# 2 28.6560 70.9199 -7.7615 0.0000 14.2715 0.0000
# 3 25.3024 -7.7615 59.3371 0.0000 5.2275 0.0000
# 4 0.0000 0.0000 0.0000 -11.2194 0.0000 -13.7761
# 5 29.4507 14.2715 5.2275 0.0000 32.1958 0.0000
# 6 0.0000 0.0000 0.0000 -13.7761 0.0000 1.2377
#
#
#
# Elastic Compliance Matrix: (Units=1/GPa)
#
#
# Indices 1 2 3 4 5 6 
#
# 1 0.009603 -0.002924 -0.003873 0.000000 -0.006860 0.000000
# 2 -0.002924 0.016799 0.003921 0.000000 -0.005409 0.000000
# 3 -0.003873 0.003921 0.019132 0.000000 -0.001301 0.000000
# 4 0.000000 0.000000 0.000000 -0.006077 0.000000 -0.067640
# 5 -0.006860 -0.005409 -0.001301 0.000000 0.039944 0.000000
# 6 0.000000 0.000000 0.000000 -0.067640 0.000000 0.055087
#
#
# Mechanical properties :
#
#
# Convention : Reuss Voigt Hill
#
# Bulk Modulus (GPa) = 25.13701 40.74953 32.94327
# Shear Modulus (GPa) = 32.57299 19.65316 26.11308
#
# Velocity S-wave (km/s) = 4.07130 3.16243 3.64530
# Velocity P-wave (km/s) = 5.90696 5.83703 5.87210
#
# Compressibility (1/GPa) = 0.03978197
#
# Stress axis : x y z
#
# Youngs Moduli (GPa) = 104.12916 59.52620 52.26856
#
# Poissons Ratio (x) = 0.17405 0.20245
# Poissons Ratio (y) = 0.30446 -0.20493
# Poissons Ratio (z) = 0.40331 -0.23338
#
# Static dielectric constant tensor:
#      x y z
#    x 1.723360 0.000000 -0.000090 
#    y 0.000000 1.797730 0.000000 
#    z -0.000090 0.000000 1.756310 
# 
# From -- ./inp_files/118019.got.cif
#   From: 2010.05.17/outbox.cif.g08.bks.cpg/sg15_60_cif.got.tgz:118019.got - 2010.06.03 18:47:42.
