data_PCOD9283721
_publ_section_title
;
Structure prediction by ZEFSAII (Michael W. Deem and Ramdas Pophale) SiO2 
 PCOD9283721
Probable space group: C 2/C
;
_chemical_formula_sum "Si O2"
_cell_formula_units_Z 32
_cell_length_a 7.613901
_cell_length_b 30.612745
_cell_length_c 6.955674
_cell_angle_alpha 90.000000
_cell_angle_beta 68.008373
_cell_angle_gamma 90.000000
_cell_volume 1503.281164
_symmetry_space_group_name_H-M "C 2/C"
_symmetry_group_IT_number 15
_symmetry_cell_setting 'monoclinic'
loop_
_space_group_symop_operation_xyz
x,y,z
-x,y,1/2-z
-x,-y,-z
x,-y,1/2+z
1/2+x,1/2+y,z
1/2-x,1/2+y,1/2-z
1/2-x,1/2-y,-z
1/2+x,1/2-y,1/2+z
loop_
_atom_site_type_symbol
_atom_site_label
_atom_site_fract_x
_atom_site_fract_y
_atom_site_fract_z
Si Si1 0.820136 0.902170 0.684764
Si Si2 0.184432 0.196638 0.310233
Si Si3 0.000000 0.237665 0.750000
Si Si4 0.856206 0.507622 0.182404
Si Si5 0.000000 0.052440 0.750000
O O1 0.743509 0.853111 0.723429
O O2 0.682087 0.940439 0.807249
O O3 0.000000 0.902969 0.750000
O O4 0.899063 0.916820 0.446416
O O5 0.113095 0.208438 0.552979
O O6 0.351659 0.230856 0.200380
O O7 0.000000 0.200637 0.250000
O O8 0.903714 0.500903 0.414496
O O9 0.663641 0.478825 0.266831
#
# Coordination Sequence:
#
# PCOD9283721 Si02
#       5
#     8   8   4   8   4
#     4  11  23  40  61  89 120 158 201 247 298 348
#     4  10  22  39  62  90 120 151 197 244 296 358
#     4  10  21  40  64  88 116 158 190 240 309 358
#     4  12  23  38  60  84 117 163 206 241 295 349
#     4  12  23  42  60  84 128 160 200 254 289 348
#
# _framework density 21.286771000000002
#
# number of rings (size 3 to 8) (size 9 to 14) (size 15 to 20)
#    0.000    1.000    3.750    3.750    1.750    0.000 
#    0.000    0.000    0.000   10.500    0.000    0.000 
#    0.000    0.000    0.000    0.000    0.000    0.000 
#
# Total GULP energy -89353.063686 kJ/mol
# GULP energy per Si atom -5584.566480 kJ/mol
# Density = 2.123832 g / cm^3
# Si number density = 21.286771 Si / 1000 Ang^3
#
#
#
# Elastic Constant Matrix: (Units=GPa)
#
#
# Indices 1 2 3 4 5 6 
#
# 1 96.5044 18.5684 6.8730 0.0000 31.3499 0.0000
# 2 18.5684 128.1908 28.3080 0.0000 13.8734 0.0000
# 3 6.8730 28.3080 68.7533 0.0000 -4.0295 0.0000
# 4 0.0000 0.0000 0.0000 39.9252 0.0000 -8.2078
# 5 31.3499 13.8734 -4.0295 0.0000 40.9466 0.0000
# 6 0.0000 0.0000 0.0000 -8.2078 0.0000 15.4618
#
#
#
# Elastic Compliance Matrix: (Units=1/GPa)
#
#
# Indices 1 2 3 4 5 6 
#
# 1 0.014098 -0.000462 -0.001853 0.000000 -0.010820 0.000000
# 2 -0.000462 0.009056 -0.003864 0.000000 -0.003095 0.000000
# 3 -0.001853 -0.003864 0.016576 0.000000 0.004359 0.000000
# 4 0.000000 0.000000 0.000000 0.028115 0.000000 0.014925
# 5 -0.010820 -0.003095 0.004359 0.000000 0.034183 0.000000
# 6 0.000000 0.000000 0.000000 0.014925 0.000000 0.072598
#
#
# Mechanical properties :
#
#
# Convention : Reuss Voigt Hill
#
# Bulk Modulus (GPa) = 36.53334 44.54970 40.54152
# Shear Modulus (GPa) = 25.49604 35.24668 30.37136
#
# Velocity S-wave (km/s) = 3.46459 4.07357 3.78136
# Velocity P-wave (km/s) = 5.76231 6.56499 6.17670
#
# Compressibility (1/GPa) = 0.02737226
#
# Stress axis : x y z
#
# Youngs Moduli (GPa) = 70.93259 110.42445 60.32678
#
# Poissons Ratio (x) = 0.05100 0.11180
# Poissons Ratio (y) = 0.03276 0.23309
# Poissons Ratio (z) = 0.13146 0.42666
#
# Static dielectric constant tensor:
#      x y z
#    x 1.775120 0.000000 0.093890 
#    y 0.000000 1.710350 0.000000 
#    z 0.093890 0.000000 1.954290 
# 
# From -- ./inp_files/2593.got.cif
#   From: 2010.05.17/outbox.cif.g08.bks.cpg/sg15_2_cif.got.tgz:2593.got - 2010.06.03 18:47:42.
