data_PCOD9283435
_publ_section_title
;
Structure prediction by ZEFSAII (Michael W. Deem and Ramdas Pophale) SiO2 
 PCOD9283435
Probable space group: C 2/C
;
_chemical_formula_sum "Si O2"
_cell_formula_units_Z 40
_cell_length_a 16.814642
_cell_length_b 14.709874
_cell_length_c 12.931944
_cell_angle_alpha 90.000000
_cell_angle_beta 143.611173
_cell_angle_gamma 90.000000
_cell_volume 1897.609577
_symmetry_space_group_name_H-M "C 2/C"
_symmetry_group_IT_number 15
_symmetry_cell_setting 'monoclinic'
loop_
_space_group_symop_operation_xyz
x,y,z
-x,y,1/2-z
-x,-y,-z
x,-y,1/2+z
1/2+x,1/2+y,z
1/2-x,1/2+y,1/2-z
1/2-x,1/2-y,-z
1/2+x,1/2-y,1/2+z
loop_
_atom_site_type_symbol
_atom_site_label
_atom_site_fract_x
_atom_site_fract_y
_atom_site_fract_z
Si Si1 0.995633 0.729792 0.921832
Si Si2 0.732900 0.650881 0.210643
Si Si3 0.727467 0.490558 0.884531
Si Si4 0.000000 0.582517 0.750000
Si Si5 0.154835 0.164473 0.905119
Si Si6 0.500000 0.627105 0.250000
O O1 0.039906 0.808851 0.888021
O O2 0.874415 0.773999 0.860020
O O3 0.959598 0.647612 0.804733
O O4 0.119490 0.694639 0.120392
O O5 0.724940 0.562084 0.273998
O O6 0.696029 0.620557 0.057421
O O7 0.682358 0.594445 0.841590
O O8 0.623078 0.434787 0.845261
O O9 0.875273 0.477458 0.084571
O O10 0.000000 0.189449 0.750000
O O11 0.250000 0.250000 0.000000
#
# Coordination Sequence:
#
# PCOD9283435 Si02
#       6
#     8   8   8   4   8   4
#     4   9  17  34  62  97 123 157 196 250 305 364
#     4  10  21  40  64  92 121 161 204 243 308 362
#     4  10  21  40  61  92 121 161 205 250 298 362
#     4   9  18  34  61  94 130 152 195 254 306 353
#     4  12  27  46  63  87 124 164 205 255 307 362
#     4   9  16  34  63  92 128 152 199 256 300 351
#
# _framework density 21.079153000000002
#
# number of rings (size 3 to 8) (size 9 to 14) (size 15 to 20)
#    0.000    2.000    1.000    2.400    1.400    5.600 
#    7.200    2.000    0.000    0.000    0.000    0.000 
#    0.000    0.000    0.000    0.000    0.000    0.000 
#
# Total GULP energy -111764.222012 kJ/mol
# GULP energy per Si atom -5588.211101 kJ/mol
# Density = 2.103118 g / cm^3
# Si number density = 21.079153 Si / 1000 Ang^3
#
#
#
# Elastic Constant Matrix: (Units=GPa)
#
#
# Indices 1 2 3 4 5 6 
#
# 1 38.9131 14.4669 32.1838 0.0000 3.4868 0.0000
# 2 14.4669 90.5703 27.6754 0.0000 24.6713 0.0000
# 3 32.1838 27.6754 108.8584 0.0000 8.2740 0.0000
# 4 0.0000 0.0000 0.0000 8.9331 0.0000 -1.0482
# 5 3.4868 24.6713 8.2740 0.0000 24.7964 0.0000
# 6 0.0000 0.0000 0.0000 -1.0482 0.0000 11.3725
#
#
#
# Elastic Compliance Matrix: (Units=1/GPa)
#
#
# Indices 1 2 3 4 5 6 
#
# 1 0.034601 -0.002943 -0.009577 0.000000 0.001258 0.000000
# 2 -0.002943 0.016261 -0.002119 0.000000 -0.015057 0.000000
# 3 -0.009577 -0.002119 0.012614 0.000000 -0.000754 0.000000
# 4 0.000000 0.000000 0.000000 0.113167 0.000000 0.010431
# 5 0.001258 -0.015057 -0.000754 0.000000 0.055384 0.000000
# 6 0.000000 0.000000 0.000000 0.010431 0.000000 0.088893
#
#
# Mechanical properties :
#
#
# Convention : Reuss Voigt Hill
#
# Bulk Modulus (GPa) = 29.24337 42.99933 36.12135
# Shear Modulus (GPa) = 13.82754 19.95477 16.89116
#
# Velocity S-wave (km/s) = 2.56399 3.08012 2.83383
# Velocity P-wave (km/s) = 4.76116 5.75263 5.28022
#
# Compressibility (1/GPa) = 0.03419579
#
# Stress axis : x y z
#
# Youngs Moduli (GPa) = 28.90125 61.49864 79.27858
#
# Poissons Ratio (x) = 0.18100 0.75925
# Poissons Ratio (y) = 0.08506 0.16802
# Poissons Ratio (z) = 0.27679 0.13034
#
# Static dielectric constant tensor:
#      x y z
#    x 2.601310 0.000000 0.288760 
#    y 0.000000 1.765810 0.000000 
#    z 0.288760 0.000000 1.837570 
# 
# From -- ./inp_files/37878.got.cif
#   From: 2010.05.17/outbox.cif.g08.bks.cpg/sg15_19_cif.got.tgz:37878.got - 2010.06.03 18:47:42.
