data_PCOD9283668
_publ_section_title
;
Structure prediction by ZEFSAII (Michael W. Deem and Ramdas Pophale) SiO2 
 PCOD9283668
Probable space group: C 2/C
;
_chemical_formula_sum "Si O2"
_cell_formula_units_Z 56
_cell_length_a 16.085556
_cell_length_b 12.316574
_cell_length_c 13.484009
_cell_angle_alpha 90.000000
_cell_angle_beta 71.106981
_cell_angle_gamma 90.000000
_cell_volume 2527.513396
_symmetry_space_group_name_H-M "C 2/C"
_symmetry_group_IT_number 15
_symmetry_cell_setting 'monoclinic'
loop_
_space_group_symop_operation_xyz
x,y,z
-x,y,1/2-z
-x,-y,-z
x,-y,1/2+z
1/2+x,1/2+y,z
1/2-x,1/2+y,1/2-z
1/2-x,1/2-y,-z
1/2+x,1/2-y,1/2+z
loop_
_atom_site_type_symbol
_atom_site_label
_atom_site_fract_x
_atom_site_fract_y
_atom_site_fract_z
Si Si1 0.187390 0.108392 0.056072
Si Si2 0.896193 0.916327 0.283102
Si Si3 0.875258 0.200339 0.978928
Si Si4 0.177783 0.626657 0.352045
Si Si5 0.070535 0.829590 0.432044
Si Si6 0.410952 0.056857 0.497495
Si Si7 0.784231 0.556123 0.383304
O O1 0.247357 0.180141 0.106323
O O2 0.150592 0.014802 0.143379
O O3 0.106973 0.161205 0.028544
O O4 0.241959 0.053592 0.944684
O O5 0.874574 0.810072 0.358878
O O6 0.880800 0.899739 0.172452
O O7 0.000000 0.933174 0.250000
O O8 0.892530 0.316502 0.022223
O O9 0.785254 0.145129 0.047445
O O10 0.967338 0.140625 0.970298
O O11 0.093889 0.706874 0.386494
O O12 0.158522 0.515551 0.417070
O O13 0.207427 0.588622 0.233405
O O14 0.382007 0.051745 0.393562
O O15 0.500000 0.000000 0.500000
#
# Coordination Sequence:
#
# PCOD9283668 Si02
#       7
#     8   8   8   8   8   8   8
#     4  10  22  38  59  91 129 164 213 272 336 377
#     4   9  20  36  62  91 116 162 220 265 319 391
#     4  10  21  40  63  94 126 168 211 265 322 389
#     4  11  23  39  62  91 125 175 213 264 323 397
#     4  11  21  38  63  90 127 164 215 266 327 389
#     4  11  22  41  65  93 129 164 216 268 323 383
#     4  10  23  39  63  91 125 170 217 266 321 388
#
# _framework density 22.156164
#
# number of rings (size 3 to 8) (size 9 to 14) (size 15 to 20)
#    0.000    1.714    1.429    2.571    0.000   10.286 
#    0.000    0.000    3.143    0.000    0.000    0.000 
#    0.000    0.000    0.000    0.000    0.000    0.000 
#
# Total GULP energy -155947.515525 kJ/mol
# GULP energy per Si atom -5569.554126 kJ/mol
# Density = 2.210574 g / cm^3
# Si number density = 22.156164 Si / 1000 Ang^3
#
#
#
# Elastic Constant Matrix: (Units=GPa)
#
#
# Indices 1 2 3 4 5 6 
#
# 1 111.4544 10.6324 52.8436 0.0000 19.0750 0.0000
# 2 10.6324 57.3251 10.2886 0.0000 -7.3956 0.0000
# 3 52.8436 10.2886 122.2821 0.0000 24.8007 0.0000
# 4 0.0000 0.0000 0.0000 23.7580 0.0000 4.3155
# 5 19.0750 -7.3956 24.8007 0.0000 30.3061 0.0000
# 6 0.0000 0.0000 0.0000 4.3155 0.0000 31.4728
#
#
#
# Elastic Compliance Matrix: (Units=1/GPa)
#
#
# Indices 1 2 3 4 5 6 
#
# 1 0.011875 -0.002092 -0.004000 0.000000 -0.004711 0.000000
# 2 -0.002092 0.019271 -0.002324 0.000000 0.007921 0.000000
# 3 -0.004000 -0.002324 0.011638 0.000000 -0.007573 0.000000
# 4 0.000000 0.000000 0.000000 0.043166 0.000000 -0.005919
# 5 -0.004711 0.007921 -0.007573 0.000000 0.044092 0.000000
# 6 0.000000 0.000000 0.000000 -0.005919 0.000000 0.032585
#
#
# Mechanical properties :
#
#
# Convention : Reuss Voigt Hill
#
# Bulk Modulus (GPa) = 38.53327 48.73230 43.63279
# Shear Modulus (GPa) = 26.58009 31.59387 29.08698
#
# Velocity S-wave (km/s) = 3.46738 3.78029 3.62721
# Velocity P-wave (km/s) = 5.78444 6.41068 6.10559
#
# Compressibility (1/GPa) = 0.02595160
#
# Stress axis : x y z
#
# Youngs Moduli (GPa) = 84.21249 51.89016 85.92621
#
# Poissons Ratio (x) = 0.10857 0.34371
# Poissons Ratio (y) = 0.17620 0.19968
# Poissons Ratio (z) = 0.33685 0.12059
#
# Static dielectric constant tensor:
#      x y z
#    x 1.928170 0.000000 0.064120 
#    y 0.000000 1.929260 0.000000 
#    z 0.064120 0.000000 1.792670 
# 
# From -- ./inp_files/97050.got.cif
#   From: 2010.05.17/outbox.cif.g08.bks.cpg/sg15_49_cif.got.tgz:97050.got - 2010.06.03 18:47:42.
