data_PCOD9283250
_publ_section_title
;
Structure prediction by ZEFSAII (Michael W. Deem and Ramdas Pophale) SiO2 
 PCOD9283250
Probable space group: C 2/C
;
_chemical_formula_sum "Si O2"
_cell_formula_units_Z 52
_cell_length_a 14.477066
_cell_length_b 16.135010
_cell_length_c 19.811791
_cell_angle_alpha 90.000000
_cell_angle_beta 30.701927
_cell_angle_gamma 90.000000
_cell_volume 2362.818629
_symmetry_space_group_name_H-M "C 2/C"
_symmetry_group_IT_number 15
_symmetry_cell_setting 'monoclinic'
loop_
_space_group_symop_operation_xyz
x,y,z
-x,y,1/2-z
-x,-y,-z
x,-y,1/2+z
1/2+x,1/2+y,z
1/2-x,1/2+y,1/2-z
1/2-x,1/2-y,-z
1/2+x,1/2-y,1/2+z
loop_
_atom_site_type_symbol
_atom_site_label
_atom_site_fract_x
_atom_site_fract_y
_atom_site_fract_z
Si Si1 0.000000 0.584812 0.750000
Si Si2 0.078743 0.695769 0.822330
Si Si3 0.299999 0.523560 0.364388
Si Si4 0.870362 0.318657 0.586244
Si Si5 0.278548 0.049520 0.442284
Si Si6 0.444001 0.791299 0.888493
Si Si7 0.891649 0.874911 0.208972
O O1 0.980318 0.644696 0.826130
O O2 0.167214 0.519862 0.645925
O O3 0.186001 0.772780 0.723274
O O4 0.235462 0.635466 0.752686
O O5 0.955505 0.718115 0.964046
O O6 0.500000 0.561953 0.250000
O O7 0.173762 0.586512 0.403706
O O8 0.226397 0.498378 0.483171
O O9 0.333350 0.439605 0.301957
O O10 0.002722 0.308195 0.567062
O O11 0.425376 0.122055 0.362148
O O12 0.081089 0.091818 0.558979
O O13 0.579353 0.718290 0.780409
O O14 0.250000 0.750000 0.000000
#
# Coordination Sequence:
#
# PCOD9283250 Si02
#       7
#     4   8   8   8   8   8   8
#     4  12  26  42  64  96 138 178 228 298 334 416
#     4  11  26  45  68  97 138 176 239 278 357 409
#     4  10  21  39  70  97 132 176 237 277 339 408
#     4  11  24  44  70 100 134 187 227 288 343 420
#     4  10  21  42  63  98 134 179 219 283 345 407
#     4   9  20  42  67 100 136 175 221 276 349 415
#     4   9  21  42  66  96 133 173 221 286 338 423
#
# _framework density 22.007612999999999
#
# number of rings (size 3 to 8) (size 9 to 14) (size 15 to 20)
#    0.000    1.846    1.538    0.923    3.231    6.154 
#   26.308    0.000    0.000    0.000    0.000    0.000 
#    0.000    0.000    0.000    0.000    0.000    0.000 
#
# Total GULP energy -145216.963966 kJ/mol
# GULP energy per Si atom -5585.267845 kJ/mol
# Density = 2.195752 g / cm^3
# Si number density = 22.007613 Si / 1000 Ang^3
#
#
#
# Elastic Constant Matrix: (Units=GPa)
#
#
# Indices 1 2 3 4 5 6 
#
# 1 64.8888 32.4547 11.4354 -0.0026 6.6949 0.0020
# 2 32.4547 73.7950 39.2129 -0.0048 4.8354 -0.0003
# 3 11.4354 39.2129 81.6321 -0.0124 23.8949 0.0028
# 4 -0.0026 -0.0048 -0.0124 15.7674 0.0023 -12.7080
# 5 6.6949 4.8354 23.8949 0.0023 29.1584 -0.0005
# 6 0.0020 -0.0003 0.0028 -12.7080 -0.0005 10.0719
#
#
#
# Elastic Compliance Matrix: (Units=1/GPa)
#
#
# Indices 1 2 3 4 5 6 
#
# 1 0.020826 -0.010995 0.004250 0.000029 -0.006441 0.000030
# 2 -0.010995 0.024684 -0.012969 0.000009 0.009059 0.000019
# 3 0.004250 -0.012969 0.023076 -0.000623 -0.017735 -0.000795
# 4 0.000029 0.000009 -0.000623 -3.748101 0.000722 -4.729117
# 5 -0.006441 0.009059 -0.017735 0.000722 0.048806 0.000920
# 6 0.000030 0.000019 -0.000795 -4.729117 0.000920 -5.867615
#
#
# Mechanical properties :
#
#
# Convention : Reuss Voigt Hill
#
# Bulk Modulus (GPa) = 34.29671 42.94688 38.62180
# Shear Modulus (GPa) = -0.52915 20.14707 9.80896
#
# Velocity S-wave (km/s) = -0.49088 3.02894 2.11347
# Velocity P-wave (km/s) = 3.91108 5.63822 4.85212
#
# Compressibility (1/GPa) = 0.02915731
#
# Stress axis : x y z
#
# Youngs Moduli (GPa) = 48.01693 40.51126 43.33535
#
# Poissons Ratio (x) = 0.44543 -0.18416
# Poissons Ratio (y) = 0.52796 0.56201
# Poissons Ratio (z) = -0.20406 0.52539
#
# Static dielectric constant tensor:
#      x y z
#    x 1.809900 0.000000 -0.013480 
#    y 0.000000 1.812480 0.000000 
#    z -0.013480 0.000000 1.856950 
# 
# From -- ./inp_files/245002.got.cif
#   From: 2010.05.17/outbox.cif.g08.bks.cpg/sg15_123_cif.got.tgz:245002.got - 2010.06.03 18:47:42.
