data_PCOD9283407
_publ_section_title
;
Structure prediction by ZEFSAII (Michael W. Deem and Ramdas Pophale) SiO2 
 PCOD9283407
Probable space group: C 2/C
;
_chemical_formula_sum "Si O2"
_cell_formula_units_Z 44
_cell_length_a 7.058721
_cell_length_b 8.200280
_cell_length_c 35.821790
_cell_angle_alpha 90.000000
_cell_angle_beta 122.647412
_cell_angle_gamma 90.000000
_cell_volume 1745.891745
_symmetry_space_group_name_H-M "C 2/C"
_symmetry_group_IT_number 15
_symmetry_cell_setting 'monoclinic'
loop_
_space_group_symop_operation_xyz
x,y,z
-x,y,1/2-z
-x,-y,-z
x,-y,1/2+z
1/2+x,1/2+y,z
1/2-x,1/2+y,1/2-z
1/2-x,1/2-y,-z
1/2+x,1/2-y,1/2+z
loop_
_atom_site_type_symbol
_atom_site_label
_atom_site_fract_x
_atom_site_fract_y
_atom_site_fract_z
Si Si1 0.544708 0.933555 0.463704
Si Si2 0.000000 0.693433 0.750000
Si Si3 0.754672 0.019065 0.713153
Si Si4 0.815691 0.970895 0.637277
Si Si5 0.102289 0.157501 0.620699
Si Si6 0.329785 0.395966 0.937063
O O1 0.525280 0.738240 0.460050
O O2 0.500000 0.000000 0.500000
O O3 0.343103 0.992496 0.414901
O O4 0.759808 0.017610 0.468044
O O5 0.797282 0.824046 0.721820
O O6 0.924898 0.584215 0.776841
O O7 0.722525 0.045972 0.665624
O O8 0.000000 0.090163 0.750000
O O9 0.813625 0.777219 0.641557
O O10 0.054118 0.046232 0.651461
O O11 0.892277 0.286839 0.597119
O O12 0.115766 0.034556 0.587277
#
# Coordination Sequence:
#
# PCOD9283407 Si02
#       6
#     8   4   8   8   8   8
#     4  10  21  41  64  96 130 172 217 268 323 387
#     4  10  26  42  72  96 138 170 224 278 336 406
#     4  10  26  45  69 101 134 175 223 276 341 399
#     4  10  23  41  66  94 131 170 215 268 325 393
#     4  10  22  39  63  93 123 166 211 259 317 380
#     4  10  21  40  61  88 127 165 213 261 313 375
#
# _framework density 25.202019
#
# number of rings (size 3 to 8) (size 9 to 14) (size 15 to 20)
#    0.545    1.455    0.000    1.636    3.818    5.818 
#    0.000   21.818    0.000    0.000    0.000    0.000 
#    0.000    0.000    0.000    0.000    0.000    0.000 
#
# Total GULP energy -123015.524939 kJ/mol
# GULP energy per Si atom -5591.614770 kJ/mol
# Density = 2.514466 g / cm^3
# Si number density = 25.202019 Si / 1000 Ang^3
#
#
#
# Elastic Constant Matrix: (Units=GPa)
#
#
# Indices 1 2 3 4 5 6 
#
# 1 144.1823 82.8257 63.7580 0.0000 -38.3117 0.0000
# 2 82.8257 153.6974 48.0877 0.0000 -33.4067 0.0000
# 3 63.7580 48.0877 160.3301 0.0000 -46.2834 0.0000
# 4 0.0000 0.0000 0.0000 30.6087 0.0000 -14.3818
# 5 -38.3117 -33.4067 -46.2834 0.0000 64.3745 0.0000
# 6 0.0000 0.0000 0.0000 -14.3818 0.0000 70.4043
#
#
#
# Elastic Compliance Matrix: (Units=1/GPa)
#
#
# Indices 1 2 3 4 5 6 
#
# 1 0.011468 -0.004880 -0.002344 0.000000 0.002607 0.000000
# 2 -0.004880 0.009664 -0.000440 0.000000 0.001794 0.000000
# 3 -0.002344 -0.000440 0.008622 0.000000 0.004576 0.000000
# 4 0.000000 0.000000 0.000000 0.036139 0.000000 0.007382
# 5 0.002607 0.001794 0.004576 0.000000 0.021307 0.000000
# 6 0.000000 0.000000 0.000000 0.007382 0.000000 0.015712
#
#
# Mechanical properties :
#
#
# Convention : Reuss Voigt Hill
#
# Bulk Modulus (GPa) = 69.31863 94.17251 81.74557
# Shear Modulus (GPa) = 40.63422 50.64673 45.64048
#
# Velocity S-wave (km/s) = 4.01975 4.48775 4.26018
# Velocity P-wave (km/s) = 7.00781 8.01882 7.53030
#
# Compressibility (1/GPa) = 0.01442614
#
# Stress axis : x y z
#
# Youngs Moduli (GPa) = 87.19542 103.47991 115.97999
#
# Poissons Ratio (x) = 0.50499 0.27189
# Poissons Ratio (y) = 0.42552 0.05101
# Poissons Ratio (z) = 0.20441 0.04551
#
# Static dielectric constant tensor:
#      x y z
#    x 2.123320 0.000000 0.150480 
#    y 0.000000 2.008790 0.000000 
#    z 0.150480 0.000000 2.054380 
# 
# From -- ./inp_files/306541.got.cif
#   From: 2010.05.17/outbox.cif.g08.bks.cpg/sg15_154_cif.got.tgz:306541.got - 2010.06.03 18:47:42.
