data_PCOD9283992
_publ_section_title
;
Structure prediction by ZEFSAII (Michael W. Deem and Ramdas Pophale) SiO2 
 PCOD9283992
Probable space group: C 2/C
;
_chemical_formula_sum "Si O2"
_cell_formula_units_Z 60
_cell_length_a 9.188080
_cell_length_b 22.382799
_cell_length_c 23.392912
_cell_angle_alpha 90.000000
_cell_angle_beta 145.032604
_cell_angle_gamma 90.000000
_cell_volume 2757.157613
_symmetry_space_group_name_H-M "C 2/C"
_symmetry_group_IT_number 15
_symmetry_cell_setting 'monoclinic'
loop_
_space_group_symop_operation_xyz
x,y,z
-x,y,1/2-z
-x,-y,-z
x,-y,1/2+z
1/2+x,1/2+y,z
1/2-x,1/2+y,1/2-z
1/2-x,1/2-y,-z
1/2+x,1/2-y,1/2+z
loop_
_atom_site_type_symbol
_atom_site_label
_atom_site_fract_x
_atom_site_fract_y
_atom_site_fract_z
Si Si1 0.566422 0.848385 0.143300
Si Si2 0.036794 0.210450 0.359463
Si Si3 0.500000 0.582772 0.750000
Si Si4 0.551021 0.600430 0.442231
Si Si5 0.325112 0.600083 0.485384
Si Si6 0.711604 0.324793 0.171215
Si Si7 0.702274 0.492089 0.420178
Si Si8 0.402173 0.801332 0.874290
O O1 0.492048 0.778530 0.126112
O O2 0.768250 0.870740 0.162480
O O3 0.734736 0.859917 0.254027
O O4 0.330930 0.891813 0.059288
O O5 0.821500 0.192084 0.244512
O O6 0.004482 0.165986 0.401619
O O7 0.293722 0.200719 0.404633
O O8 0.457144 0.537701 0.682531
O O9 0.352505 0.583182 0.427754
O O10 0.575459 0.554380 0.398327
O O11 0.588528 0.633727 0.585056
O O12 0.301469 0.547299 0.523085
O O13 0.105177 0.647989 0.427616
O O14 0.528718 0.267790 0.117065
O O15 0.000000 0.303240 0.250000
O O16 0.000000 0.500000 0.500000
#
# Coordination Sequence:
#
# PCOD9283992 Si02
#       8
#     8   8   4   8   8   8   8   8
#     4  11  22  41  70 102 137 176 231 284 348 415
#     4  10  22  42  69 101 143 183 224 285 348 412
#     4  12  26  46  74 104 130 196 240 296 354 428
#     4  12  25  43  68 104 140 176 228 291 349 409
#     4  12  25  41  70 101 138 181 232 287 345 420
#     4  11  19  40  67 100 137 176 221 281 345 414
#     4  12  27  48  69  96 136 180 244 288 346 422
#     4  10  21  40  66 100 141 184 224 274 349 416
#
# _framework density 21.761541999999999
#
# number of rings (size 3 to 8) (size 9 to 14) (size 15 to 20)
#    0.000    0.800    6.667    2.000    0.000    4.800 
#    0.000    0.000    0.000    0.000    0.000    0.000 
#    0.000    0.000    0.000    0.000    0.000    0.000 
#
# Total GULP energy -167172.494527 kJ/mol
# GULP energy per Si atom -5572.416484 kJ/mol
# Density = 2.171201 g / cm^3
# Si number density = 21.761542 Si / 1000 Ang^3
#
#
#
# Elastic Constant Matrix: (Units=GPa)
#
#
# Indices 1 2 3 4 5 6 
#
# 1 102.6631 41.8632 20.4266 -0.0001 -1.6311 -0.0017
# 2 41.8632 81.7334 23.2055 0.0014 3.9481 -0.0005
# 3 20.4266 23.2055 33.8081 0.0053 -2.4110 -0.0049
# 4 -0.0001 0.0014 0.0053 32.0081 0.0009 -6.2501
# 5 -1.6311 3.9481 -2.4110 0.0009 30.6579 -0.0031
# 6 -0.0017 -0.0005 -0.0049 -6.2501 -0.0031 40.1926
#
#
#
# Elastic Compliance Matrix: (Units=1/GPa)
#
#
# Indices 1 2 3 4 5 6 
#
# 1 0.012767 -0.005494 -0.003866 0.000001 0.001083 0.000000
# 2 -0.005494 0.017802 -0.009135 0.000001 -0.003303 -0.000001
# 3 -0.003866 -0.009135 0.038470 -0.000005 0.003996 0.000004
# 4 0.000001 0.000001 -0.000005 0.032220 -0.000001 0.005010
# 5 0.001083 -0.003303 0.003996 -0.000001 0.033415 0.000003
# 6 0.000000 -0.000001 0.000004 0.005010 0.000003 0.025659
#
#
# Mechanical properties :
#
#
# Convention : Reuss Voigt Hill
#
# Bulk Modulus (GPa) = 31.20211 43.24390 37.22300
# Shear Modulus (GPa) = 24.03767 29.41903 26.72835
#
# Velocity S-wave (km/s) = 3.32715 3.68078 3.50842
# Velocity P-wave (km/s) = 5.39715 6.16272 5.79259
#
# Compressibility (1/GPa) = 0.03204912
#
# Stress axis : x y z
#
# Youngs Moduli (GPa) = 78.32529 56.17305 25.99458
#
# Poissons Ratio (x) = 0.30862 0.10048
# Poissons Ratio (y) = 0.43033 0.23747
# Poissons Ratio (z) = 0.30277 0.51315
#
# Static dielectric constant tensor:
#      x y z
#    x 2.013860 0.000000 0.017540 
#    y 0.000000 1.826210 0.000000 
#    z 0.017540 0.000000 1.825050 
# 
# From -- ./inp_files/266262.got.cif
#   From: 2010.05.17/outbox.cif.g08.bks.cpg/sg15_134_cif.got.tgz:266262.got - 2010.06.03 18:47:42.
