data_PCOD9283792
_publ_section_title
;
Structure prediction by ZEFSAII (Michael W. Deem and Ramdas Pophale) SiO2 
 PCOD9283792
Probable space group: C 2/C
;
_chemical_formula_sum "Si O2"
_cell_formula_units_Z 56
_cell_length_a 23.060074
_cell_length_b 18.586395
_cell_length_c 16.759675
_cell_angle_alpha 90.000000
_cell_angle_beta 21.509792
_cell_angle_gamma 90.000000
_cell_volume 2633.814965
_symmetry_space_group_name_H-M "C 2/C"
_symmetry_group_IT_number 15
_symmetry_cell_setting 'monoclinic'
loop_
_space_group_symop_operation_xyz
x,y,z
-x,y,1/2-z
-x,-y,-z
x,-y,1/2+z
1/2+x,1/2+y,z
1/2-x,1/2+y,1/2-z
1/2-x,1/2-y,-z
1/2+x,1/2-y,1/2+z
loop_
_atom_site_type_symbol
_atom_site_label
_atom_site_fract_x
_atom_site_fract_y
_atom_site_fract_z
Si Si1 0.592383 0.297276 0.213425
Si Si2 0.500000 0.347868 0.750000
Si Si3 0.306768 0.097321 0.917607
Si Si4 0.399416 0.585135 0.168059
Si Si5 0.000000 0.527497 0.250000
Si Si6 0.189590 0.919071 0.211026
Si Si7 0.977360 0.735291 0.633733
Si Si8 0.676468 0.711553 0.327127
O O1 0.500000 0.313325 0.250000
O O2 0.643099 0.368127 0.197329
O O3 0.457055 0.261460 0.441988
O O4 0.750000 0.250000 0.000000
O O5 0.656747 0.397889 0.549630
O O6 0.488944 0.293930 0.689116
O O7 0.401533 0.024404 0.815620
O O8 0.423902 0.160595 0.741938
O O9 0.218879 0.113773 0.113303
O O10 0.376589 0.500458 0.210410
O O11 0.337869 0.624809 0.167116
O O12 0.587174 0.604837 0.920446
O O13 0.877686 0.572479 0.460931
O O14 0.147225 0.728755 0.374940
O O15 0.858194 0.755348 0.715495
#
# Coordination Sequence:
#
# PCOD9283792 Si02
#       8
#     8   4   8   8   4   8   8   8
#     4  11  25  46  69  97 124 168 221 283 333 388
#     4  12  21  32  50  92 139 170 208 254 308 391
#     4  11  21  35  59  91 133 171 219 258 322 387
#     4   9  18  38  60  92 120 172 211 259 318 396
#     4  10  21  40  64  94 119 180 216 274 322 387
#     4   9  20  39  67  90 119 164 222 264 326 390
#     4  12  21  35  55  96 134 180 212 259 319 394
#     4  11  22  38  64  92 133 177 217 269 333 386
#
# _framework density 21.261934
#
# number of rings (size 3 to 8) (size 9 to 14) (size 15 to 20)
#    0.000    1.429    2.857    4.286    1.000    0.000 
#    5.143    0.000    0.000    0.857    0.000    0.000 
#    0.000    0.000    0.000    0.000    0.000    0.000 
#
# Total GULP energy -155905.457201 kJ/mol
# GULP energy per Si atom -5568.052043 kJ/mol
# Density = 2.121354 g / cm^3
# Si number density = 21.261934 Si / 1000 Ang^3
#
#
#
# Elastic Constant Matrix: (Units=GPa)
#
#
# Indices 1 2 3 4 5 6 
#
# 1 52.3721 7.1125 11.8544 0.0007 -0.0097 -0.0003
# 2 7.1125 58.8092 18.5626 0.0013 -3.2192 -0.0013
# 3 11.8544 18.5626 159.2774 0.0012 6.2583 -0.0024
# 4 0.0007 0.0013 0.0012 22.2553 -0.0032 -4.6664
# 5 -0.0097 -3.2192 6.2583 -0.0032 42.2114 0.0012
# 6 -0.0003 -0.0013 -0.0024 -4.6664 0.0012 20.8787
#
#
#
# Elastic Compliance Matrix: (Units=1/GPa)
#
#
# Indices 1 2 3 4 5 6 
#
# 1 0.019643 -0.001985 -0.001232 0.000000 0.000036 0.000000
# 2 -0.001985 0.017971 -0.002012 0.000000 0.001668 0.000001
# 3 -0.001232 -0.002012 0.006649 0.000000 -0.001140 0.000001
# 4 0.000000 0.000000 0.000000 0.047142 0.000003 0.010536
# 5 0.000036 0.001668 -0.001140 0.000003 0.023986 -0.000001
# 6 0.000000 0.000001 0.000001 0.010536 -0.000001 0.050251
#
#
# Mechanical properties :
#
#
# Convention : Reuss Voigt Hill
#
# Bulk Modulus (GPa) = 29.58178 38.39084 33.98631
# Shear Modulus (GPa) = 26.68542 32.59767 29.64155
#
# Velocity S-wave (km/s) = 3.54655 3.91979 3.73783
# Velocity P-wave (km/s) = 5.54202 6.21142 5.88624
#
# Compressibility (1/GPa) = 0.03380459
#
# Stress axis : x y z
#
# Youngs Moduli (GPa) = 50.90982 55.64629 150.39109
#
# Poissons Ratio (x) = 0.11045 0.18528
# Poissons Ratio (y) = 0.10105 0.30261
# Poissons Ratio (z) = 0.06272 0.11197
#
# Static dielectric constant tensor:
#      x y z
#    x 1.821400 0.000000 -0.002120 
#    y 0.000000 1.851650 0.000000 
#    z -0.002120 0.000000 1.839160 
# 
# From -- ./inp_files/220193.got.cif
#   From: 2010.05.17/outbox.cif.g08.bks.cpg/sg15_111_cif.got.tgz:220193.got - 2010.06.03 18:47:42.
