data_PCOD9283016
_publ_section_title
;
Structure prediction by ZEFSAII (Michael W. Deem and Ramdas Pophale) SiO2 
 PCOD9283016
Probable space group: C 2/C
;
_chemical_formula_sum "Si O2"
_cell_formula_units_Z 36
_cell_length_a 9.172980
_cell_length_b 10.496275
_cell_length_c 14.949526
_cell_angle_alpha 90.000000
_cell_angle_beta 109.897054
_cell_angle_gamma 90.000000
_cell_volume 1353.449653
_symmetry_space_group_name_H-M "C 2/C"
_symmetry_group_IT_number 15
_symmetry_cell_setting 'monoclinic'
loop_
_space_group_symop_operation_xyz
x,y,z
-x,y,1/2-z
-x,-y,-z
x,-y,1/2+z
1/2+x,1/2+y,z
1/2-x,1/2+y,1/2-z
1/2-x,1/2-y,-z
1/2+x,1/2-y,1/2+z
loop_
_atom_site_type_symbol
_atom_site_label
_atom_site_fract_x
_atom_site_fract_y
_atom_site_fract_z
Si Si1 0.009891 0.827038 0.083430
Si Si2 0.811694 0.930897 0.544861
Si Si3 0.000000 0.180342 0.250000
Si Si4 0.961666 0.467268 0.601040
Si Si5 0.794332 0.587794 0.740879
O O1 0.116088 0.883512 0.185919
O O2 0.956556 0.684599 0.091303
O O3 0.121546 0.839553 0.020035
O O4 0.872406 0.925731 0.038350
O O5 0.902482 0.887430 0.652341
O O6 0.627399 0.946816 0.491199
O O7 0.125086 0.275014 0.232236
O O8 0.861845 0.512774 0.668480
O O9 0.136280 0.510010 0.662728
#
# Coordination Sequence:
#
# PCOD9283016 Si02
#       5
#     8   8   4   8   8
#     4  10  21  39  66  94 126 164 221 261 310 403
#     4  10  22  40  62  95 127 169 213 265 323 375
#     4  10  22  42  58  84 134 164 204 272 326 362
#     4   9  19  40  64  89 131 171 202 266 323 372
#     4   9  22  39  61  94 129 163 213 263 315 383
#
# _framework density 26.598699
#
# number of rings (size 3 to 8) (size 9 to 14) (size 15 to 20)
#    0.000    2.667    0.000    0.667    3.111    9.778 
#    4.000    5.556    0.000    0.000    0.000    0.000 
#    0.000    0.000    0.000    0.000    0.000    0.000 
#
# Total GULP energy -100761.767130 kJ/mol
# GULP energy per Si atom -5597.875952 kJ/mol
# Density = 2.653816 g / cm^3
# Si number density = 26.598699 Si / 1000 Ang^3
#
#
#
# Elastic Constant Matrix: (Units=GPa)
#
#
# Indices 1 2 3 4 5 6 
#
# 1 81.5836 52.7101 25.8275 0.0000 35.1254 0.0000
# 2 52.7101 191.6747 75.3875 0.0000 14.1366 0.0000
# 3 25.8275 75.3875 213.0655 0.0000 17.1203 0.0000
# 4 0.0000 0.0000 0.0000 29.3159 0.0000 8.3641
# 5 35.1254 14.1366 17.1203 0.0000 40.1909 0.0000
# 6 0.0000 0.0000 0.0000 8.3641 0.0000 22.5961
#
#
#
# Elastic Compliance Matrix: (Units=1/GPa)
#
#
# Indices 1 2 3 4 5 6 
#
# 1 0.023771 -0.005341 0.000545 0.000000 -0.019129 0.000000
# 2 -0.005341 0.007323 -0.002187 0.000000 0.003023 0.000000
# 3 0.000545 -0.002187 0.005568 0.000000 -0.002079 0.000000
# 4 0.000000 0.000000 0.000000 0.038139 0.000000 -0.014117
# 5 -0.019129 0.003023 -0.002079 0.000000 0.041422 0.000000
# 6 0.000000 0.000000 0.000000 -0.014117 0.000000 0.049481
#
#
# Mechanical properties :
#
#
# Convention : Reuss Voigt Hill
#
# Bulk Modulus (GPa) = 44.05666 88.24155 66.14911
# Shear Modulus (GPa) = 26.70461 40.58048 33.64254
#
# Velocity S-wave (km/s) = 3.17200 3.91020 3.56029
# Velocity P-wave (km/s) = 5.47859 7.32348 6.46716
#
# Compressibility (1/GPa) = 0.02269804
#
# Stress axis : x y z
#
# Youngs Moduli (GPa) = 42.06786 136.55902 179.59704
#
# Poissons Ratio (x) = 0.72931 -0.09791
# Poissons Ratio (y) = 0.22467 0.39269
# Poissons Ratio (z) = -0.02293 0.29859
#
# Static dielectric constant tensor:
#      x y z
#    x 2.168470 0.000000 -0.127170 
#    y 0.000000 1.983700 0.000000 
#    z -0.127170 0.000000 2.167890 
# 
# From -- ./inp_files/142016.got.cif
#   From: 2010.05.17/outbox.cif.g08.bks.cpg/sg15_72_cif.got.tgz:142016.got - 2010.06.03 18:47:42.
