data_PCOD9283316
_publ_section_title
;
Structure prediction by ZEFSAII (Michael W. Deem and Ramdas Pophale) SiO2 
 PCOD9283316
Probable space group: C 2/C
;
_chemical_formula_sum "Si O2"
_cell_formula_units_Z 40
_cell_length_a 26.349451
_cell_length_b 9.916148
_cell_length_c 8.936795
_cell_angle_alpha 90.000000
_cell_angle_beta 126.640957
_cell_angle_gamma 90.000000
_cell_volume 1873.624050
_symmetry_space_group_name_H-M "C 2/C"
_symmetry_group_IT_number 15
_symmetry_cell_setting 'monoclinic'
loop_
_space_group_symop_operation_xyz
x,y,z
-x,y,1/2-z
-x,-y,-z
x,-y,1/2+z
1/2+x,1/2+y,z
1/2-x,1/2+y,1/2-z
1/2-x,1/2-y,-z
1/2+x,1/2-y,1/2+z
loop_
_atom_site_type_symbol
_atom_site_label
_atom_site_fract_x
_atom_site_fract_y
_atom_site_fract_z
Si Si1 0.000000 0.561482 0.250000
Si Si2 0.800105 0.038272 0.321240
Si Si3 0.122789 0.925259 0.810679
Si Si4 0.934617 0.661202 0.427101
Si Si5 0.312104 0.238206 0.356454
Si Si6 0.000000 0.117041 0.250000
O O1 0.041204 0.642369 0.199699
O O2 0.043584 0.465786 0.431968
O O3 0.825903 0.030402 0.534770
O O4 0.783060 0.882326 0.259997
O O5 0.862077 0.077809 0.335204
O O6 0.742327 0.136151 0.195294
O O7 0.054374 0.958921 0.753882
O O8 0.143680 0.783508 0.924591
O O9 0.859725 0.680680 0.316525
O O10 0.967259 0.788841 0.566285
#
# Coordination Sequence:
#
# PCOD9283316 Si02
#       6
#     4   8   8   8   8   4
#     4   9  18  34  59  88 118 155 205 234 300 343
#     4  10  21  40  59  87 115 156 199 237 297 350
#     4   9  21  38  61  84 117 158 192 242 302 345
#     4   9  18  37  57  88 120 157 193 247 289 353
#     4   9  21  39  60  84 122 153 198 239 293 348
#     4   9  18  40  57  80 126 151 191 244 302 351
#
# _framework density 21.348998999999999
#
# number of rings (size 3 to 8) (size 9 to 14) (size 15 to 20)
#    1.200    1.600    0.000    0.600    0.000    3.200 
#   14.400    0.000    0.000    0.000    0.000    0.000 
#    0.000    0.000    0.000    0.000    0.000    0.000 
#
# Total GULP energy -111358.823953 kJ/mol
# GULP energy per Si atom -5567.941198 kJ/mol
# Density = 2.130041 g / cm^3
# Si number density = 21.348999 Si / 1000 Ang^3
#
#
#
# Elastic Constant Matrix: (Units=GPa)
#
#
# Indices 1 2 3 4 5 6 
#
# 1 121.9728 53.9907 31.7577 0.0000 -8.2148 0.0000
# 2 53.9907 71.3177 8.9609 0.0000 1.3123 0.0000
# 3 31.7577 8.9609 37.6913 0.0000 -14.4759 0.0000
# 4 0.0000 0.0000 0.0000 7.7622 0.0000 -3.7581
# 5 -8.2148 1.3123 -14.4759 0.0000 39.0352 0.0000
# 6 0.0000 0.0000 0.0000 -3.7581 0.0000 30.1508
#
#
#
# Elastic Compliance Matrix: (Units=1/GPa)
#
#
# Indices 1 2 3 4 5 6 
#
# 1 0.015619 -0.010458 -0.010817 0.000000 -0.000373 0.000000
# 2 -0.010458 0.021599 0.002977 0.000000 -0.001823 0.000000
# 3 -0.010817 0.002977 0.039676 0.000000 0.012337 0.000000
# 4 0.000000 0.000000 0.000000 0.137103 0.000000 0.017089
# 5 -0.000373 -0.001823 0.012337 0.000000 0.030176 0.000000
# 6 0.000000 0.000000 0.000000 0.017089 0.000000 0.035297
#
#
# Mechanical properties :
#
#
# Convention : Reuss Voigt Hill
#
# Bulk Modulus (GPa) = 24.81599 46.71116 35.76357
# Shear Modulus (GPa) = 15.17453 24.47448 19.82451
#
# Velocity S-wave (km/s) = 2.66895 3.38953 3.05059
# Velocity P-wave (km/s) = 4.59857 6.10293 5.40336
#
# Compressibility (1/GPa) = 0.04029660
#
# Stress axis : x y z
#
# Youngs Moduli (GPa) = 64.02347 46.29884 25.20410
#
# Poissons Ratio (x) = 0.48422 0.27264
# Poissons Ratio (y) = 0.66959 -0.07503
# Poissons Ratio (z) = 0.69255 -0.13782
#
# Static dielectric constant tensor:
#      x y z
#    x 1.754900 0.000000 0.008360 
#    y 0.000000 1.787810 0.000000 
#    z 0.008360 0.000000 1.782750 
# 
# From -- ./inp_files/54207.got.cif
#   From: 2010.05.17/outbox.cif.g08.bks.cpg/sg15_28_cif.got.tgz:54207.got - 2010.06.03 18:47:42.
