data_PCOD9283075
_publ_section_title
;
Structure prediction by ZEFSAII (Michael W. Deem and Ramdas Pophale) SiO2 
 PCOD9283075
Probable space group: C 2/C
;
_chemical_formula_sum "Si O2"
_cell_formula_units_Z 56
_cell_length_a 14.416819
_cell_length_b 8.869588
_cell_length_c 22.090209
_cell_angle_alpha 90.000000
_cell_angle_beta 67.352925
_cell_angle_gamma 90.000000
_cell_volume 2606.901471
_symmetry_space_group_name_H-M "C 2/C"
_symmetry_group_IT_number 15
_symmetry_cell_setting 'monoclinic'
loop_
_space_group_symop_operation_xyz
x,y,z
-x,y,1/2-z
-x,-y,-z
x,-y,1/2+z
1/2+x,1/2+y,z
1/2-x,1/2+y,1/2-z
1/2-x,1/2-y,-z
1/2+x,1/2-y,1/2+z
loop_
_atom_site_type_symbol
_atom_site_label
_atom_site_fract_x
_atom_site_fract_y
_atom_site_fract_z
Si Si1 0.565772 0.551920 0.147270
Si Si2 0.315806 0.626304 0.060249
Si Si3 0.662386 0.489694 0.316296
Si Si4 0.140813 0.181612 0.014275
Si Si5 0.562835 0.903261 0.936332
Si Si6 0.886080 0.734315 0.424364
Si Si7 0.248058 0.353797 0.817782
O O1 0.449305 0.503830 0.186053
O O2 0.573733 0.673198 0.090726
O O3 0.610450 0.394428 0.110156
O O4 0.643086 0.623452 0.176729
O O5 0.348120 0.589350 0.119859
O O6 0.196471 0.638726 0.089162
O O7 0.346421 0.484122 0.013492
O O8 0.354659 0.755816 0.004228
O O9 0.738576 0.569868 0.250866
O O10 0.704521 0.319535 0.321699
O O11 0.250000 0.250000 0.000000
O O12 0.090940 0.264392 0.971509
O O13 0.491857 0.848331 0.900093
O O14 0.668344 0.947469 0.879226
O O15 0.500000 0.000000 0.000000
#
# Coordination Sequence:
#
# PCOD9283075 Si02
#       7
#     8   8   8   8   8   8   8
#     4  11  23  45  75  99 137 186 243 291 366 428
#     4  10  21  39  67 101 140 177 231 289 352 428
#     4  12  26  49  72 100 146 195 244 295 370 442
#     4  11  19  38  68  99 141 176 223 301 352 417
#     4  12  24  41  67 106 142 176 236 299 365 426
#     4  10  22  38  70 108 136 185 229 291 368 417
#     4  12  28  47  71 104 144 192 242 302 362 447
#
# _framework density 21.481441
#
# number of rings (size 3 to 8) (size 9 to 14) (size 15 to 20)
#    0.000    0.857    4.286    2.143    6.000    3.429 
#    0.000    2.143    0.000    0.000    0.000    0.000 
#    0.000    0.000    0.000    0.000    0.000    0.000 
#
# Total GULP energy -155974.413472 kJ/mol
# GULP energy per Si atom -5570.514767 kJ/mol
# Density = 2.143255 g / cm^3
# Si number density = 21.481441 Si / 1000 Ang^3
#
#
#
# Elastic Constant Matrix: (Units=GPa)
#
#
# Indices 1 2 3 4 5 6 
#
# 1 139.6164 33.5043 16.2406 0.0000 -9.8075 0.0000
# 2 33.5043 36.1530 25.4610 0.0000 -5.3554 0.0000
# 3 16.2406 25.4610 96.8065 0.0000 -5.5450 0.0000
# 4 0.0000 0.0000 0.0000 26.5514 0.0000 -1.0182
# 5 -9.8075 -5.3554 -5.5450 0.0000 16.3859 0.0000
# 6 0.0000 0.0000 0.0000 -1.0182 0.0000 36.4140
#
#
#
# Elastic Compliance Matrix: (Units=1/GPa)
#
#
# Indices 1 2 3 4 5 6 
#
# 1 0.009410 -0.008938 0.000946 0.000000 0.003031 0.000000
# 2 -0.008938 0.043563 -0.009636 0.000000 0.005627 0.000000
# 3 0.000946 -0.009636 0.012806 0.000000 0.001750 0.000000
# 4 0.000000 0.000000 0.000000 0.037703 0.000000 0.001054
# 5 0.003031 0.005627 0.001750 0.000000 0.065274 0.000000
# 6 0.000000 0.000000 0.000000 0.001054 0.000000 0.027491
#
#
# Mechanical properties :
#
#
# Convention : Reuss Voigt Hill
#
# Bulk Modulus (GPa) = 32.76191 46.99862 39.88026
# Shear Modulus (GPa) = 20.68875 29.02826 24.85850
#
# Velocity S-wave (km/s) = 3.10675 3.68002 3.40547
# Velocity P-wave (km/s) = 5.30599 6.32320 5.83680
#
# Compressibility (1/GPa) = 0.03052325
#
# Stress axis : x y z
#
# Youngs Moduli (GPa) = 106.26715 22.95537 78.08986
#
# Poissons Ratio (x) = 0.20517 -0.07385
# Poissons Ratio (y) = 0.94979 0.75245
# Poissons Ratio (z) = -0.10049 0.22119
#
# Static dielectric constant tensor:
#      x y z
#    x 1.833830 0.000000 -0.006460 
#    y 0.000000 1.793190 0.000000 
#    z -0.006460 0.000000 1.789400 
# 
# From -- ./inp_files/273082.got.cif
#   From: 2010.05.17/outbox.cif.g08.bks.cpg/sg15_137_cif.got.tgz:273082.got - 2010.06.03 18:47:42.
