data_PCOD9283169
_publ_section_title
;
Structure prediction by ZEFSAII (Michael W. Deem and Ramdas Pophale) SiO2 
 PCOD9283169
Probable space group: C 2/C
;
_chemical_formula_sum "Si O2"
_cell_formula_units_Z 64
_cell_length_a 8.053928
_cell_length_b 26.413140
_cell_length_c 13.012602
_cell_angle_alpha 90.000000
_cell_angle_beta 79.435382
_cell_angle_gamma 90.000000
_cell_volume 2721.240849
_symmetry_space_group_name_H-M "C 2/C"
_symmetry_group_IT_number 15
_symmetry_cell_setting 'monoclinic'
loop_
_space_group_symop_operation_xyz
x,y,z
-x,y,1/2-z
-x,-y,-z
x,-y,1/2+z
1/2+x,1/2+y,z
1/2-x,1/2+y,1/2-z
1/2-x,1/2-y,-z
1/2+x,1/2-y,1/2+z
loop_
_atom_site_type_symbol
_atom_site_label
_atom_site_fract_x
_atom_site_fract_y
_atom_site_fract_z
Si Si1 0.216002 0.327954 0.462766
Si Si2 0.167763 0.946698 0.284833
Si Si3 0.409328 0.449648 0.592267
Si Si4 0.240343 0.691062 0.387527
Si Si5 0.675691 0.866966 0.695180
Si Si6 0.277182 0.088516 0.982951
Si Si7 0.506397 0.269158 0.985775
Si Si8 0.648293 0.938174 0.431654
O O1 0.155860 0.341991 0.585673
O O2 0.410173 0.313525 0.457101
O O3 0.175882 0.377913 0.405008
O O4 0.132645 0.275576 0.439239
O O5 0.250757 0.911751 0.362825
O O6 0.297441 0.963254 0.180968
O O7 0.000000 0.924394 0.250000
O O8 0.105101 0.996798 0.351257
O O9 0.325944 0.406782 0.672569
O O10 0.398019 0.565124 0.454289
O O11 0.283078 0.449728 0.506928
O O12 0.210269 0.674856 0.275908
O O13 0.200050 0.643230 0.466900
O O14 0.429612 0.705617 0.394359
O O15 0.131083 0.739491 0.431898
O O16 0.500000 0.892460 0.750000
O O17 0.451023 0.057407 0.983656
#
# Coordination Sequence:
#
# PCOD9283169 Si02
#       8
#     8   8   8   8   8   8   8   8
#     4  10  21  44  68  98 143 184 226 288 353 414
#     4  12  28  49  72 106 143 185 245 284 351 446
#     4  11  27  47  73 104 141 182 239 302 357 415
#     4  11  22  40  68 106 137 180 234 288 349 414
#     4  11  22  42  69 105 136 180 237 289 352 416
#     4  12  25  48  74 103 146 189 230 295 360 422
#     4  10  21  39  68  94 139 183 227 286 344 414
#     4  11  24  50  74 103 145 189 235 292 359 422
#
# _framework density 23.518682999999999
#
# number of rings (size 3 to 8) (size 9 to 14) (size 15 to 20)
#    0.000    1.000    3.750    3.000    1.750    3.000 
#    2.250    7.500    0.000    0.000    0.000    0.000 
#    0.000    0.000    0.000    0.000    0.000    0.000 
#
# Total GULP energy -179022.873277 kJ/mol
# GULP energy per Si atom -5594.464790 kJ/mol
# Density = 2.346515 g / cm^3
# Si number density = 23.518683 Si / 1000 Ang^3
#
#
#
# Elastic Constant Matrix: (Units=GPa)
#
#
# Indices 1 2 3 4 5 6 
#
# 1 155.6591 25.5682 34.9719 0.0000 -10.5851 0.0000
# 2 25.5682 54.7453 18.1528 0.0000 -2.6487 0.0000
# 3 34.9719 18.1528 88.1477 0.0000 -5.3381 0.0000
# 4 0.0000 0.0000 0.0000 27.8194 0.0000 -2.5191
# 5 -10.5851 -2.6487 -5.3381 0.0000 37.2567 0.0000
# 6 0.0000 0.0000 0.0000 -2.5191 0.0000 32.8258
#
#
#
# Elastic Compliance Matrix: (Units=1/GPa)
#
#
# Indices 1 2 3 4 5 6 
#
# 1 0.007492 -0.002649 -0.002330 0.000000 0.001606 0.000000
# 2 -0.002649 0.020567 -0.003169 0.000000 0.000256 0.000000
# 3 -0.002330 -0.003169 0.012980 0.000000 0.000973 0.000000
# 4 0.000000 0.000000 0.000000 0.036198 0.000000 0.002778
# 5 0.001606 0.000256 0.000973 0.000000 0.027455 0.000000
# 6 0.000000 0.000000 0.000000 0.002778 0.000000 0.030677
#
#
# Mechanical properties :
#
#
# Convention : Reuss Voigt Hill
#
# Bulk Modulus (GPa) = 40.41374 50.65977 45.53675
# Shear Modulus (GPa) = 31.26726 34.23765 32.75246
#
# Velocity S-wave (km/s) = 3.65014 3.81959 3.73582
# Velocity P-wave (km/s) = 5.91487 6.40619 6.16543
#
# Compressibility (1/GPa) = 0.02474406
#
# Stress axis : x y z
#
# Youngs Moduli (GPa) = 133.47509 48.62223 77.03931
#
# Poissons Ratio (x) = 0.12879 0.17947
# Poissons Ratio (y) = 0.35356 0.24414
# Poissons Ratio (z) = 0.31095 0.15409
#
# Static dielectric constant tensor:
#      x y z
#    x 1.982920 0.000000 -0.013830 
#    y 0.000000 1.870260 0.000000 
#    z -0.013830 0.000000 1.881040 
# 
# From -- ./inp_files/137877.got.cif
#   From: 2010.05.17/outbox.cif.g08.bks.cpg/sg15_69_cif.got.tgz:137877.got - 2010.06.03 18:47:42.
