data_PCOD9283980
_publ_section_title
;
Structure prediction by ZEFSAII (Michael W. Deem and Ramdas Pophale) SiO2 
 PCOD9283980
Probable space group: C 2/C
;
_chemical_formula_sum "Si O2"
_cell_formula_units_Z 52
_cell_length_a 16.519706
_cell_length_b 11.291356
_cell_length_c 13.313697
_cell_angle_alpha 90.000000
_cell_angle_beta 99.712718
_cell_angle_gamma 90.000000
_cell_volume 2447.805346
_symmetry_space_group_name_H-M "C 2/C"
_symmetry_group_IT_number 15
_symmetry_cell_setting 'monoclinic'
loop_
_space_group_symop_operation_xyz
x,y,z
-x,y,1/2-z
-x,-y,-z
x,-y,1/2+z
1/2+x,1/2+y,z
1/2-x,1/2+y,1/2-z
1/2-x,1/2-y,-z
1/2+x,1/2-y,1/2+z
loop_
_atom_site_type_symbol
_atom_site_label
_atom_site_fract_x
_atom_site_fract_y
_atom_site_fract_z
Si Si1 0.622859 0.415270 0.225568
Si Si2 0.500000 0.232127 0.250000
Si Si3 0.661522 0.790501 0.449345
Si Si4 0.683061 0.112576 0.739620
Si Si5 0.437180 0.061172 0.409556
Si Si6 0.430149 0.685013 0.313974
Si Si7 0.543339 0.373455 0.997628
O O1 0.575210 0.323571 0.288069
O O2 0.720935 0.412828 0.257638
O O3 0.587941 0.548589 0.217880
O O4 0.593487 0.365268 0.111184
O O5 0.482695 0.146040 0.339625
O O6 0.750000 0.750000 0.500000
O O7 0.665522 0.877686 0.355183
O O8 0.619404 0.860416 0.530374
O O9 0.611377 0.665990 0.429322
O O10 0.654566 0.244462 0.703873
O O11 0.621391 0.026001 0.667554
O O12 0.500000 0.000000 0.500000
O O13 0.500000 0.732022 0.250000
O O14 0.467968 0.699872 0.433883
O O15 0.500000 0.500000 0.000000
#
# Coordination Sequence:
#
# PCOD9283980 Si02
#       7
#     8   4   8   8   8   8   8
#     4  11  25  45  69 101 143 179 231 301 353 418
#     4  12  24  46  72  98 140 190 232 290 372 414
#     4  12  23  45  73 101 140 185 235 296 356 422
#     4  12  27  45  72 109 140 189 242 294 355 434
#     4  12  28  47  69 101 146 190 236 289 358 438
#     4  11  23  41  71  99 135 181 238 282 352 429
#     4  10  21  40  65  99 131 175 225 286 348 415
#
# _framework density 21.24352
#
# number of rings (size 3 to 8) (size 9 to 14) (size 15 to 20)
#    0.000    0.615    5.385    1.846    5.385    0.000 
#    0.000    0.769    0.000    0.000    0.000    0.000 
#    0.000    0.000    0.000    0.000    0.000    0.000 
#
# Total GULP energy -144860.806010 kJ/mol
# GULP energy per Si atom -5571.569462 kJ/mol
# Density = 2.119517 g / cm^3
# Si number density = 21.243520 Si / 1000 Ang^3
#
#
#
# Elastic Constant Matrix: (Units=GPa)
#
#
# Indices 1 2 3 4 5 6 
#
# 1 143.7561 62.2848 52.9541 0.0000 17.6911 0.0000
# 2 62.2848 102.8229 38.6909 0.0000 13.1156 0.0000
# 3 52.9541 38.6909 122.8566 0.0000 19.4350 0.0000
# 4 0.0000 0.0000 0.0000 33.7117 0.0000 4.3070
# 5 17.6911 13.1156 19.4350 0.0000 32.8763 0.0000
# 6 0.0000 0.0000 0.0000 4.3070 0.0000 37.4160
#
#
#
# Elastic Compliance Matrix: (Units=1/GPa)
#
#
# Indices 1 2 3 4 5 6 
#
# 1 0.010327 -0.005039 -0.002541 0.000000 -0.002045 0.000000
# 2 -0.005039 0.013695 -0.001882 0.000000 -0.001640 0.000000
# 3 -0.002541 -0.001882 0.010472 0.000000 -0.004072 0.000000
# 4 0.000000 0.000000 0.000000 0.030106 0.000000 -0.003466
# 5 -0.002045 -0.001640 -0.004072 0.000000 0.034579 0.000000
# 6 0.000000 0.000000 0.000000 -0.003466 0.000000 0.027125
#
#
# Mechanical properties :
#
#
# Convention : Reuss Voigt Hill
#
# Bulk Modulus (GPa) = 64.22232 75.25503 69.73868
# Shear Modulus (GPa) = 33.24107 35.16784 34.20446
#
# Velocity S-wave (km/s) = 3.96000 4.07315 4.01697
# Velocity P-wave (km/s) = 7.15583 7.59095 7.37660
#
# Compressibility (1/GPa) = 0.01557091
#
# Stress axis : x y z
#
# Youngs Moduli (GPa) = 96.83474 73.02056 95.49667
#
# Poissons Ratio (x) = 0.36792 0.24264
# Poissons Ratio (y) = 0.48791 0.17970
# Poissons Ratio (z) = 0.24604 0.13741
#
# Static dielectric constant tensor:
#      x y z
#    x 1.765600 0.000000 -0.043640 
#    y 0.000000 1.847880 0.000000 
#    z -0.043640 0.000000 2.055700 
# 
# From -- ./inp_files/152694.got.cif
#   From: 2010.05.17/outbox.cif.g08.bks.cpg/sg15_77_cif.got.tgz:152694.got - 2010.06.03 18:47:42.
