data_PCOD9283579
_publ_section_title
;
Structure prediction by ZEFSAII (Michael W. Deem and Ramdas Pophale) SiO2 
 PCOD9283579
Probable space group: C 2/C
;
_chemical_formula_sum "Si O2"
_cell_formula_units_Z 40
_cell_length_a 20.885198
_cell_length_b 10.621841
_cell_length_c 22.158052
_cell_angle_alpha 90.000000
_cell_angle_beta 21.780315
_cell_angle_gamma 90.000000
_cell_volume 1823.899985
_symmetry_space_group_name_H-M "C 2/C"
_symmetry_group_IT_number 15
_symmetry_cell_setting 'monoclinic'
loop_
_space_group_symop_operation_xyz
x,y,z
-x,y,1/2-z
-x,-y,-z
x,-y,1/2+z
1/2+x,1/2+y,z
1/2-x,1/2+y,1/2-z
1/2-x,1/2-y,-z
1/2+x,1/2-y,1/2+z
loop_
_atom_site_type_symbol
_atom_site_label
_atom_site_fract_x
_atom_site_fract_y
_atom_site_fract_z
Si Si1 0.144063 0.625181 0.923968
Si Si2 0.801376 0.862695 0.412605
Si Si3 0.861834 0.175369 0.624820
Si Si4 0.828155 0.413789 0.520552
Si Si5 0.540447 0.329095 0.851884
O O1 0.255069 0.674221 0.883996
O O2 0.274210 0.598340 0.755197
O O3 0.071508 0.493894 0.014911
O O4 0.003351 0.727948 0.028152
O O5 0.750000 0.750000 0.500000
O O6 0.000000 0.887363 0.250000
O O7 0.688975 0.990289 0.519755
O O8 0.705672 0.259608 0.736094
O O9 0.941074 0.109468 0.495826
O O10 0.632766 0.404728 0.717987
O O11 0.914816 0.279976 0.436233
#
# Coordination Sequence:
#
# PCOD9283579 Si02
#       5
#     8   8   8   8   8
#     4   9  19  33  56  87 111 151 191 247 285 345
#     4  10  21  40  63  84 111 144 197 261 301 329
#     4   9  17  31  56  82 123 148 188 232 286 352
#     4   9  21  35  58  79 121 152 198 238 288 350
#     4   9  18  35  50  84 120 159 186 225 283 366
#
# _framework density 21.931027
#
# number of rings (size 3 to 8) (size 9 to 14) (size 15 to 20)
#    1.200    1.600    0.000    1.200    0.000    8.000 
#    0.000   11.000    0.000    0.000    0.000    0.000 
#    0.000    0.000    0.000    0.000    0.000    0.000 
#
# Total GULP energy -111347.528997 kJ/mol
# GULP energy per Si atom -5567.376450 kJ/mol
# Density = 2.188111 g / cm^3
# Si number density = 21.931027 Si / 1000 Ang^3
#
#
#
# Elastic Constant Matrix: (Units=GPa)
#
#
# Indices 1 2 3 4 5 6 
#
# 1 66.5271 30.5407 29.7554 -0.0007 -6.8769 -0.0018
# 2 30.5407 58.7932 7.6972 0.0041 -2.1526 0.0010
# 3 29.7554 7.6972 64.4358 0.0027 -11.4194 0.0008
# 4 -0.0007 0.0041 0.0027 8.5013 -0.0009 -20.8768
# 5 -6.8769 -2.1526 -11.4194 -0.0009 24.5886 -0.0025
# 6 -0.0018 0.0010 0.0008 -20.8768 -0.0025 21.5670
#
#
#
# Elastic Compliance Matrix: (Units=1/GPa)
#
#
# Indices 1 2 3 4 5 6 
#
# 1 0.024916 -0.011599 -0.009878 -0.000013 0.001365 -0.000010
# 2 -0.011599 0.022687 0.002641 0.000013 -0.000032 0.000011
# 3 -0.009878 0.002641 0.021049 0.000007 0.007244 0.000006
# 4 -0.000013 0.000013 0.000007 -0.085416 -0.000011 -0.082682
# 5 0.001365 -0.000032 0.007244 -0.000011 0.044413 -0.000005
# 6 -0.000010 0.000011 0.000006 -0.082682 -0.000005 -0.033669
#
#
# Mechanical properties :
#
#
# Convention : Reuss Voigt Hill
#
# Bulk Modulus (GPa) = 32.28033 36.19366 34.23699
# Shear Modulus (GPa) = 119.10314 19.04889 69.07602
#
# Velocity S-wave (km/s) = 7.37739 2.95037 5.61830
# Velocity P-wave (km/s) = 9.34446 5.30523 7.59817
#
# Compressibility (1/GPa) = 0.03097862
#
# Stress axis : x y z
#
# Youngs Moduli (GPa) = 40.13526 44.07743 47.50766
#
# Poissons Ratio (x) = 0.51128 0.46929
# Poissons Ratio (y) = 0.46555 -0.12546
# Poissons Ratio (z) = 0.39646 -0.11640
#
# Static dielectric constant tensor:
#      x y z
#    x 1.862830 0.000000 0.067700 
#    y 0.000000 1.875170 0.000000 
#    z 0.067700 0.000000 1.910950 
# 
# From -- ./inp_files/302121.got.cif
#   From: 2010.05.17/outbox.cif.g08.bks.cpg/sg15_152_cif.got.tgz:302121.got - 2010.06.03 18:47:42.
