data_PCOD9283733
_publ_section_title
;
Structure prediction by ZEFSAII (Michael W. Deem and Ramdas Pophale) SiO2 
 PCOD9283733
Probable space group: C 2/C
;
_chemical_formula_sum "Si O2"
_cell_formula_units_Z 36
_cell_length_a 7.710199
_cell_length_b 11.379462
_cell_length_c 20.910435
_cell_angle_alpha 90.000000
_cell_angle_beta 124.441003
_cell_angle_gamma 90.000000
_cell_volume 1513.042426
_symmetry_space_group_name_H-M "C 2/C"
_symmetry_group_IT_number 15
_symmetry_cell_setting 'monoclinic'
loop_
_space_group_symop_operation_xyz
x,y,z
-x,y,1/2-z
-x,-y,-z
x,-y,1/2+z
1/2+x,1/2+y,z
1/2-x,1/2+y,1/2-z
1/2-x,1/2-y,-z
1/2+x,1/2-y,1/2+z
loop_
_atom_site_type_symbol
_atom_site_label
_atom_site_fract_x
_atom_site_fract_y
_atom_site_fract_z
Si Si1 0.474958 0.116174 0.435907
Si Si2 0.000000 0.072468 0.750000
Si Si3 0.585372 0.281818 0.908984
Si Si4 0.452850 0.041792 0.813982
Si Si5 0.781846 0.790795 0.092596
O O1 0.227124 0.125923 0.399282
O O2 0.622706 0.111084 0.529625
O O3 0.557351 0.242693 0.426390
O O4 0.541584 0.032297 0.392121
O O5 0.206210 0.009625 0.768193
O O6 0.080574 0.153090 0.824004
O O7 0.517635 0.174996 0.847591
O O8 0.371710 0.303888 0.904486
O O9 0.750000 0.250000 0.000000
O O10 0.500000 0.019422 0.750000
#
# Coordination Sequence:
#
# PCOD9283733 Si02
#       5
#     8   4   8   8   8
#     4  10  21  40  64  89 124 170 211 258 324 384
#     4  10  22  40  60  88 126 160 206 272 322 374
#     4   9  20  40  64  89 121 165 209 260 319 380
#     4  11  24  41  62  96 130 165 219 269 313 395
#     4   9  20  39  63  89 124 164 208 263 320 384
#
# _framework density 23.793120999999999
#
# number of rings (size 3 to 8) (size 9 to 14) (size 15 to 20)
#    0.000    2.222    0.000    1.333    1.556    9.778 
#    6.000   15.556    0.000    0.000    0.000    0.000 
#    0.000    0.000    0.000    0.000    0.000    0.000 
#
# Total GULP energy -100315.630981 kJ/mol
# GULP energy per Si atom -5573.090610 kJ/mol
# Density = 2.373897 g / cm^3
# Si number density = 23.793121 Si / 1000 Ang^3
#
#
#
# Elastic Constant Matrix: (Units=GPa)
#
#
# Indices 1 2 3 4 5 6 
#
# 1 121.1958 28.3551 35.0365 0.0000 -17.4847 0.0000
# 2 28.3551 41.6773 18.5308 0.0000 -3.8165 0.0000
# 3 35.0365 18.5308 137.0314 0.0000 -23.4005 0.0000
# 4 0.0000 0.0000 0.0000 4.9889 0.0000 -2.6118
# 5 -17.4847 -3.8165 -23.4005 0.0000 37.4850 0.0000
# 6 0.0000 0.0000 0.0000 -2.6118 0.0000 26.7236
#
#
#
# Elastic Compliance Matrix: (Units=1/GPa)
#
#
# Indices 1 2 3 4 5 6 
#
# 1 0.010603 -0.006334 -0.001254 0.000000 0.003518 0.000000
# 2 -0.006334 0.029321 -0.002620 0.000000 -0.001605 0.000000
# 3 -0.001254 -0.002620 0.008761 0.000000 0.004618 0.000000
# 4 0.000000 0.000000 0.000000 0.211255 0.000000 0.020647
# 5 0.003518 -0.001605 0.004618 0.000000 0.031038 0.000000
# 6 0.000000 0.000000 0.000000 0.020647 0.000000 0.039438
#
#
# Mechanical properties :
#
#
# Convention : Reuss Voigt Hill
#
# Bulk Modulus (GPa) = 35.37285 51.52771 43.45028
# Shear Modulus (GPa) = 13.87909 28.37163 21.12536
#
# Velocity S-wave (km/s) = 2.41783 3.45690 2.98296
# Velocity P-wave (km/s) = 4.76378 6.13491 5.49230
#
# Compressibility (1/GPa) = 0.02827027
#
# Stress axis : x y z
#
# Youngs Moduli (GPa) = 94.31240 34.10509 114.14322
#
# Poissons Ratio (x) = 0.21603 0.14309
# Poissons Ratio (y) = 0.59739 0.29901
# Poissons Ratio (z) = 0.11823 0.08934
#
# Static dielectric constant tensor:
#      x y z
#    x 1.953730 0.000000 -0.038190 
#    y 0.000000 1.957740 0.000000 
#    z -0.038190 0.000000 1.946920 
# 
# From -- ./inp_files/187584.got.cif
#   From: 2010.05.17/outbox.cif.g08.bks.cpg/sg15_94_cif.got.tgz:187584.got - 2010.06.03 18:47:42.
