data_PCOD9283822
_publ_section_title
;
Structure prediction by ZEFSAII (Michael W. Deem and Ramdas Pophale) SiO2 
 PCOD9283822
Probable space group: C 2/C
;
_chemical_formula_sum "Si O2"
_cell_formula_units_Z 56
_cell_length_a 26.716784
_cell_length_b 8.977580
_cell_length_c 13.773977
_cell_angle_alpha 90.000000
_cell_angle_beta 56.164582
_cell_angle_gamma 90.000000
_cell_volume 2744.200775
_symmetry_space_group_name_H-M "C 2/C"
_symmetry_group_IT_number 15
_symmetry_cell_setting 'monoclinic'
loop_
_space_group_symop_operation_xyz
x,y,z
-x,y,1/2-z
-x,-y,-z
x,-y,1/2+z
1/2+x,1/2+y,z
1/2-x,1/2+y,1/2-z
1/2-x,1/2-y,-z
1/2+x,1/2-y,1/2+z
loop_
_atom_site_type_symbol
_atom_site_label
_atom_site_fract_x
_atom_site_fract_y
_atom_site_fract_z
Si Si1 0.500000 0.663550 0.250000
Si Si2 0.915020 0.081404 0.917692
Si Si3 0.572672 0.919818 0.278803
Si Si4 0.181876 0.965739 0.632314
Si Si5 0.754233 0.713617 0.640997
Si Si6 0.201413 0.539109 0.082857
Si Si7 0.500000 0.839403 0.750000
Si Si8 0.638072 0.741660 0.343248
O O1 0.536609 0.553250 0.138823
O O2 0.543679 0.774736 0.260299
O O3 0.863363 0.029819 0.898742
O O4 0.947940 0.229734 0.843607
O O5 0.888417 0.125181 0.050687
O O6 0.591222 0.872823 0.367939
O O7 0.636302 0.970457 0.163415
O O8 0.526719 0.053881 0.305297
O O9 0.201071 0.094020 0.688935
O O10 0.203444 0.332843 0.496905
O O11 0.153093 0.836819 0.725670
O O12 0.745309 0.431229 0.510898
O O13 0.725520 0.874596 0.651935
O O14 0.797980 0.703940 0.684174
#
# Coordination Sequence:
#
# PCOD9283822 Si02
#       8
#     4   8   8   8   8   8   4   8
#     4  10  24  46  62  88 136 172 222 264 330 360
#     4  11  22  47  69  88 129 183 211 262 323 395
#     4  11  23  40  65 100 125 165 218 281 307 373
#     4  10  21  40  64  96 127 173 203 258 330 389
#     4   9  19  37  59  94 131 165 205 251 314 407
#     4   9  19  40  67  85 136 166 205 255 333 382
#     4  10  24  44  72  80 124 186 214 262 332 362
#     4  12  23  36  67  98 131 161 220 265 318 388
#
# _framework density 20.406670999999999
#
# number of rings (size 3 to 8) (size 9 to 14) (size 15 to 20)
#    0.857    0.857    2.857    1.714    2.000    1.714 
#    2.571    0.000    3.143    0.000    0.000    0.000 
#    0.000    0.000    0.000    0.000    0.000    0.000 
#
# Total GULP energy -156067.305791 kJ/mol
# GULP energy per Si atom -5573.832350 kJ/mol
# Density = 2.036022 g / cm^3
# Si number density = 20.406671 Si / 1000 Ang^3
#
#
#
# Elastic Constant Matrix: (Units=GPa)
#
#
# Indices 1 2 3 4 5 6 
#
# 1 143.4274 40.1597 22.7464 0.0000 1.8473 0.0000
# 2 40.1597 86.0891 6.5094 0.0000 -2.9850 0.0000
# 3 22.7464 6.5094 19.8489 0.0000 -8.9250 0.0000
# 4 0.0000 0.0000 0.0000 17.4071 0.0000 -16.4019
# 5 1.8473 -2.9850 -8.9250 0.0000 27.0268 0.0000
# 6 0.0000 0.0000 0.0000 -16.4019 0.0000 30.3766
#
#
#
# Elastic Compliance Matrix: (Units=1/GPa)
#
#
# Indices 1 2 3 4 5 6 
#
# 1 0.010177 -0.003967 -0.012767 0.000000 -0.005350 0.000000
# 2 -0.003967 0.013458 0.001084 0.000000 0.002116 0.000000
# 3 -0.012767 0.001084 0.076454 0.000000 0.026240 0.000000
# 4 0.000000 0.000000 0.000000 0.116947 0.000000 0.063146
# 5 -0.005350 0.002116 0.026240 0.000000 0.046265 0.000000
# 6 0.000000 0.000000 0.000000 0.063146 0.000000 0.067016
#
#
# Mechanical properties :
#
#
# Convention : Reuss Voigt Hill
#
# Bulk Modulus (GPa) = 14.53714 43.13294 28.83504
# Shear Modulus (GPa) = 13.00237 26.95875 19.98056
#
# Velocity S-wave (km/s) = 2.52695 3.63860 3.13248
# Velocity P-wave (km/s) = 3.95640 6.23179 5.21959
#
# Compressibility (1/GPa) = 0.06878931
#
# Stress axis : x y z
#
# Youngs Moduli (GPa) = 98.26437 74.30505 13.07979
#
# Poissons Ratio (x) = 0.29480 0.16698
# Poissons Ratio (y) = 0.38986 -0.01418
# Poissons Ratio (z) = 1.25449 -0.08058
#
# Static dielectric constant tensor:
#      x y z
#    x 1.777650 0.000000 0.000030 
#    y 0.000000 1.776080 0.000000 
#    z 0.000030 0.000000 1.718220 
# 
# From -- ./inp_files/180512.got.cif
#   From: 2010.05.17/outbox.cif.g08.bks.cpg/sg15_91_cif.got.tgz:180512.got - 2010.06.03 18:47:42.
