data_PCOD9283736
_publ_section_title
;
Structure prediction by ZEFSAII (Michael W. Deem and Ramdas Pophale) SiO2 
 PCOD9283736
Probable space group: C 2/C
;
_chemical_formula_sum "Si O2"
_cell_formula_units_Z 44
_cell_length_a 15.338958
_cell_length_b 15.135402
_cell_length_c 11.549932
_cell_angle_alpha 90.000000
_cell_angle_beta 139.898539
_cell_angle_gamma 90.000000
_cell_volume 1727.235790
_symmetry_space_group_name_H-M "C 2/C"
_symmetry_group_IT_number 15
_symmetry_cell_setting 'monoclinic'
loop_
_space_group_symop_operation_xyz
x,y,z
-x,y,1/2-z
-x,-y,-z
x,-y,1/2+z
1/2+x,1/2+y,z
1/2-x,1/2+y,1/2-z
1/2-x,1/2-y,-z
1/2+x,1/2-y,1/2+z
loop_
_atom_site_type_symbol
_atom_site_label
_atom_site_fract_x
_atom_site_fract_y
_atom_site_fract_z
Si Si1 0.215152 0.334522 0.249393
Si Si2 0.000000 0.548026 0.750000
Si Si3 0.937504 0.603180 0.370025
Si Si4 0.982673 0.090298 0.049501
Si Si5 0.079579 0.795488 0.219288
Si Si6 0.745555 0.861640 0.613645
O O1 0.063747 0.367001 0.079581
O O2 0.325330 0.399541 0.417905
O O3 0.272132 0.326721 0.172968
O O4 0.242238 0.242260 0.343759
O O5 0.026840 0.479887 0.671681
O O6 0.871351 0.610393 0.593595
O O7 0.191470 0.407085 0.677767
O O8 0.911529 0.690336 0.267464
O O9 0.003485 0.170456 0.977241
O O10 0.105486 0.102366 0.261659
O O11 0.000000 0.000000 0.000000
O O12 0.000000 0.829752 0.250000
#
# Coordination Sequence:
#
# PCOD9283736 Si02
#       6
#     8   4   8   8   8   8
#     4   9  20  40  66  87 128 171 213 263 336 383
#     4  12  26  36  64 100 130 162 232 268 316 402
#     4  11  21  41  64  94 128 170 214 273 330 389
#     4  10  21  40  64  89 128 169 216 269 326 390
#     4   9  19  35  65  94 122 164 221 268 324 383
#     4  11  22  43  62  92 132 175 207 274 337 386
#
# _framework density 25.474229000000001
#
# number of rings (size 3 to 8) (size 9 to 14) (size 15 to 20)
#    1.091    0.727    2.727    1.636    0.000    2.182 
#    0.000    3.636    2.000    0.000    0.000    0.000 
#    0.000    0.000    0.000    0.000    0.000    0.000 
#
# Total GULP energy -122911.554325 kJ/mol
# GULP energy per Si atom -5586.888833 kJ/mol
# Density = 2.541625 g / cm^3
# Si number density = 25.474229 Si / 1000 Ang^3
#
#
#
# Elastic Constant Matrix: (Units=GPa)
#
#
# Indices 1 2 3 4 5 6 
#
# 1 123.2412 18.7435 29.0767 0.0000 16.4970 0.0000
# 2 18.7435 114.9423 22.9540 0.0000 8.5857 0.0000
# 3 29.0767 22.9540 129.6861 0.0000 20.8575 0.0000
# 4 0.0000 0.0000 0.0000 35.8396 0.0000 3.8319
# 5 16.4970 8.5857 20.8575 0.0000 46.2094 0.0000
# 6 0.0000 0.0000 0.0000 3.8319 0.0000 18.4304
#
#
#
# Elastic Compliance Matrix: (Units=1/GPa)
#
#
# Indices 1 2 3 4 5 6 
#
# 1 0.008920 -0.000990 -0.001447 0.000000 -0.002347 0.000000
# 2 -0.000990 0.009174 -0.001277 0.000000 -0.000775 0.000000
# 3 -0.001447 -0.001277 0.008777 0.000000 -0.003208 0.000000
# 4 0.000000 0.000000 0.000000 0.028536 0.000000 -0.005933
# 5 -0.002347 -0.000775 -0.003208 0.000000 0.024070 0.000000
# 6 0.000000 0.000000 0.000000 -0.005933 0.000000 0.055492
#
#
# Mechanical properties :
#
#
# Convention : Reuss Voigt Hill
#
# Bulk Modulus (GPa) = 51.43302 56.60200 54.01751
# Shear Modulus (GPa) = 33.58380 39.90225 36.74302
#
# Velocity S-wave (km/s) = 3.63484 3.96204 3.80196
# Velocity P-wave (km/s) = 6.15225 6.57251 6.36585
#
# Compressibility (1/GPa) = 0.01944276
#
# Stress axis : x y z
#
# Youngs Moduli (GPa) = 112.10196 108.99869 113.92896
#
# Poissons Ratio (x) = 0.10794 0.16488
# Poissons Ratio (y) = 0.11101 0.14551
# Poissons Ratio (z) = 0.16224 0.13922
#
# Static dielectric constant tensor:
#      x y z
#    x 2.052420 0.000000 -0.072940 
#    y 0.000000 1.973770 0.000000 
#    z -0.072940 0.000000 2.059700 
# 
# From -- ./inp_files/168550.got.cif
#   From: 2010.05.17/outbox.cif.g08.bks.cpg/sg15_85_cif.got.tgz:168550.got - 2010.06.03 18:47:42.
