data_PCOD9283498
_publ_section_title
;
Structure prediction by ZEFSAII (Michael W. Deem and Ramdas Pophale) SiO2 
 PCOD9283498
Probable space group: C 2/C
;
_chemical_formula_sum "Si O2"
_cell_formula_units_Z 48
_cell_length_a 9.380508
_cell_length_b 26.517990
_cell_length_c 14.669983
_cell_angle_alpha 90.000000
_cell_angle_beta 36.840317
_cell_angle_gamma 90.000000
_cell_volume 2188.006986
_symmetry_space_group_name_H-M "C 2/C"
_symmetry_group_IT_number 15
_symmetry_cell_setting 'monoclinic'
loop_
_space_group_symop_operation_xyz
x,y,z
-x,y,1/2-z
-x,-y,-z
x,-y,1/2+z
1/2+x,1/2+y,z
1/2-x,1/2+y,1/2-z
1/2-x,1/2-y,-z
1/2+x,1/2-y,1/2+z
loop_
_atom_site_type_symbol
_atom_site_label
_atom_site_fract_x
_atom_site_fract_y
_atom_site_fract_z
Si Si1 0.409757 0.162300 0.111679
Si Si2 0.675042 0.623618 0.731596
Si Si3 0.238795 0.765153 0.401724
Si Si4 0.915453 0.464508 0.189610
Si Si5 0.251050 0.944475 0.657598
Si Si6 0.821015 0.802936 0.508988
O O1 0.283652 0.214377 0.148555
O O2 0.247109 0.112964 0.195297
O O3 0.601287 0.148418 0.933924
O O4 0.574182 0.167471 0.117779
O O5 0.500000 0.595825 0.750000
O O6 0.736375 0.582906 0.776440
O O7 0.517390 0.668996 0.848430
O O8 0.500000 0.790292 0.250000
O O9 0.250000 0.750000 0.500000
O O10 0.984722 0.793265 0.513905
O O11 0.825679 0.518532 0.200572
O O12 0.000000 0.468250 0.250000
O O13 0.086196 0.449597 0.016438
O O14 0.000000 0.961295 0.750000
O O15 0.750000 0.750000 0.500000
#
# Coordination Sequence:
#
# PCOD9283498 Si02
#       6
#     8   8   8   8   8   8
#     4   9  19  37  58  82 116 160 199 245 310 369
#     4   9  17  34  60  84 114 155 203 250 305 372
#     4  11  22  36  56  84 117 151 195 247 301 362
#     4  10  22  38  61  90 120 160 209 259 320 382
#     4  10  21  40  62  88 124 161 207 266 318 372
#     4   9  19  35  57  85 116 155 199 243 296 367
#
# _framework density 21.937771999999999
#
# number of rings (size 3 to 8) (size 9 to 14) (size 15 to 20)
#    0.000    2.333    0.000    2.000    0.000    6.667 
#    0.000    5.833    0.000    0.000    0.000    0.000 
#    0.000    0.000    0.000    0.000    0.000    0.000 
#
# Total GULP energy -133658.604445 kJ/mol
# GULP energy per Si atom -5569.108519 kJ/mol
# Density = 2.188784 g / cm^3
# Si number density = 21.937772 Si / 1000 Ang^3
#
#
#
# Elastic Constant Matrix: (Units=GPa)
#
#
# Indices 1 2 3 4 5 6 
#
# 1 187.9306 32.9034 27.6595 0.0000 10.0754 0.0000
# 2 32.9034 80.2031 7.9704 0.0000 6.5798 0.0000
# 3 27.6595 7.9704 20.4837 0.0000 7.1358 0.0000
# 4 0.0000 0.0000 0.0000 9.2272 0.0000 -1.8962
# 5 10.0754 6.5798 7.1358 0.0000 28.3910 0.0000
# 6 0.0000 0.0000 0.0000 -1.8962 0.0000 28.3461
#
#
#
# Elastic Compliance Matrix: (Units=1/GPa)
#
#
# Indices 1 2 3 4 5 6 
#
# 1 0.006934 -0.002000 -0.008647 0.000000 0.000176 0.000000
# 2 -0.002000 0.013641 -0.001921 0.000000 -0.001969 0.000000
# 3 -0.008647 -0.001921 0.065778 0.000000 -0.013019 0.000000
# 4 0.000000 0.000000 0.000000 0.109886 0.000000 0.007351
# 5 0.000176 -0.001969 -0.013019 0.000000 0.038888 0.000000
# 6 0.000000 0.000000 0.000000 0.007351 0.000000 0.035770
#
#
# Mechanical properties :
#
#
# Convention : Reuss Voigt Hill
#
# Bulk Modulus (GPa) = 16.33519 47.29820 31.81669
# Shear Modulus (GPa) = 15.80075 27.86514 21.83295
#
# Velocity S-wave (km/s) = 2.68667 3.56784 3.15814
# Velocity P-wave (km/s) = 4.13359 6.21125 5.27571
#
# Compressibility (1/GPa) = 0.06121754
#
# Stress axis : x y z
#
# Youngs Moduli (GPa) = 144.20696 73.30665 15.20258
#
# Poissons Ratio (x) = 0.14661 0.13145
# Poissons Ratio (y) = 0.28842 0.02921
# Poissons Ratio (z) = 1.24693 0.14086
#
# Static dielectric constant tensor:
#      x y z
#    x 1.887120 0.000000 -0.050910 
#    y 0.000000 1.815500 0.000000 
#    z -0.050910 0.000000 1.861310 
# 
# From -- ./inp_files/138886.got.cif
#   From: 2010.05.17/outbox.cif.g08.bks.cpg/sg15_70_cif.got.tgz:138886.got - 2010.06.03 18:47:42.
