data_PCOD9283456
_publ_section_title
;
Structure prediction by ZEFSAII (Michael W. Deem and Ramdas Pophale) SiO2 
 PCOD9283456
Probable space group: C 2/C
;
_chemical_formula_sum "Si O2"
_cell_formula_units_Z 56
_cell_length_a 17.533437
_cell_length_b 26.868912
_cell_length_c 8.734321
_cell_angle_alpha 90.000000
_cell_angle_beta 136.525250
_cell_angle_gamma 90.000000
_cell_volume 2831.109825
_symmetry_space_group_name_H-M "C 2/C"
_symmetry_group_IT_number 15
_symmetry_cell_setting 'monoclinic'
loop_
_space_group_symop_operation_xyz
x,y,z
-x,y,1/2-z
-x,-y,-z
x,-y,1/2+z
1/2+x,1/2+y,z
1/2-x,1/2+y,1/2-z
1/2-x,1/2-y,-z
1/2+x,1/2-y,1/2+z
loop_
_atom_site_type_symbol
_atom_site_label
_atom_site_fract_x
_atom_site_fract_y
_atom_site_fract_z
Si Si1 0.133592 0.316571 0.600613
Si Si2 0.863697 0.942567 0.210234
Si Si3 0.621222 0.294200 0.984515
Si Si4 0.124955 0.949920 0.636676
Si Si5 0.273276 0.125794 0.534428
Si Si6 0.063925 0.641115 0.485281
Si Si7 0.238288 0.835805 0.417388
O O1 0.134053 0.265092 0.508886
O O2 0.154137 0.358212 0.504659
O O3 0.022343 0.328634 0.534740
O O4 0.233430 0.320170 0.869714
O O5 0.791494 0.894117 0.144369
O O6 0.993523 0.936808 0.446130
O O7 0.840800 0.995023 0.257643
O O8 0.849297 0.946619 0.006104
O O9 0.500000 0.307022 0.750000
O O10 0.706648 0.326817 0.008193
O O11 0.639054 0.308365 0.188413
O O12 0.186182 0.913099 0.841765
O O13 0.359059 0.108873 0.790600
O O14 0.151343 0.675625 0.520986
O O15 0.000000 0.615407 0.250000
#
# Coordination Sequence:
#
# PCOD9283456 Si02
#       7
#     8   8   8   8   8   8   8
#     4  11  21  40  59  86 119 165 213 252 300 353
#     4  10  21  40  61  94 126 155 197 244 310 383
#     4  11  23  36  57  89 125 159 201 253 302 366
#     4  10  22  37  65  94 123 159 192 247 314 378
#     4  11  21  38  62  91 120 161 202 256 308 362
#     4   9  21  37  61  83 115 163 206 249 298 353
#     4  10  21  40  62  86 123 162 204 250 305 364
#
# _framework density 19.780228999999999
#
# number of rings (size 3 to 8) (size 9 to 14) (size 15 to 20)
#    0.000    1.714    1.429    3.000    4.000    1.143 
#    0.000    1.429    0.000    9.429    0.000    0.000 
#    0.000    0.000    0.000    0.000    0.000    0.000 
#
# Total GULP energy -155980.086331 kJ/mol
# GULP energy per Si atom -5570.717369 kJ/mol
# Density = 1.973521 g / cm^3
# Si number density = 19.780229 Si / 1000 Ang^3
#
#
#
# Elastic Constant Matrix: (Units=GPa)
#
#
# Indices 1 2 3 4 5 6 
#
# 1 31.7153 -1.4774 1.5144 0.0000 1.7554 0.0000
# 2 -1.4774 39.4839 -3.4464 0.0000 12.7781 0.0000
# 3 1.5144 -3.4464 146.6609 0.0000 -13.1050 0.0000
# 4 0.0000 0.0000 0.0000 -3.3788 0.0000 -13.2822
# 5 1.7554 12.7781 -13.1050 0.0000 20.9109 0.0000
# 6 0.0000 0.0000 0.0000 -13.2822 0.0000 18.6598
#
#
#
# Elastic Compliance Matrix: (Units=1/GPa)
#
#
# Indices 1 2 3 4 5 6 
#
# 1 0.031951 0.002672 -0.000691 0.000000 -0.004748 0.000000
# 2 0.002672 0.031944 -0.001103 0.000000 -0.020436 0.000000
# 3 -0.000691 -0.001103 0.007272 0.000000 0.005290 0.000000
# 4 0.000000 0.000000 0.000000 -0.077923 0.000000 -0.055466
# 5 -0.004748 -0.020436 0.005290 0.000000 0.064023 0.000000
# 6 0.000000 0.000000 0.000000 -0.055466 0.000000 0.014110
#
#
# Mechanical properties :
#
#
# Convention : Reuss Voigt Hill
#
# Bulk Modulus (GPa) = 13.71327 23.44904 18.58115
# Shear Modulus (GPa) = 53.23160 21.98970 37.61065
#
# Velocity S-wave (km/s) = 5.19326 3.33783 4.36527
# Velocity P-wave (km/s) = 6.55040 5.17063 5.90098
#
# Compressibility (1/GPa) = 0.07292208
#
# Stress axis : x y z
#
# Youngs Moduli (GPa) = 31.29809 31.30481 137.50753
#
# Poissons Ratio (x) = -0.08364 0.09507
# Poissons Ratio (y) = -0.08362 0.15167
# Poissons Ratio (z) = 0.02164 0.03453
#
# Static dielectric constant tensor:
#      x y z
#    x 1.714830 0.000000 0.010970 
#    y 0.000000 1.684490 0.000000 
#    z 0.010970 0.000000 1.744560 
# 
# From -- ./inp_files/52360.got.cif
#   From: 2010.05.17/outbox.cif.g08.bks.cpg/sg15_27_cif.got.tgz:52360.got - 2010.06.03 18:47:42.
