data_PCOD9283241
_publ_section_title
;
Structure prediction by ZEFSAII (Michael W. Deem and Ramdas Pophale) SiO2 
 PCOD9283241
Probable space group: C 2/C
;
_chemical_formula_sum "Si O2"
_cell_formula_units_Z 44
_cell_length_a 28.188149
_cell_length_b 15.105892
_cell_length_c 13.338832
_cell_angle_alpha 90.000000
_cell_angle_beta 21.397257
_cell_angle_gamma 90.000000
_cell_volume 2072.162981
_symmetry_space_group_name_H-M "C 2/C"
_symmetry_group_IT_number 15
_symmetry_cell_setting 'monoclinic'
loop_
_space_group_symop_operation_xyz
x,y,z
-x,y,1/2-z
-x,-y,-z
x,-y,1/2+z
1/2+x,1/2+y,z
1/2-x,1/2+y,1/2-z
1/2-x,1/2-y,-z
1/2+x,1/2-y,1/2+z
loop_
_atom_site_type_symbol
_atom_site_label
_atom_site_fract_x
_atom_site_fract_y
_atom_site_fract_z
Si Si1 0.500000 0.620229 0.250000
Si Si2 0.358853 0.930304 0.531665
Si Si3 0.337512 0.486646 0.935551
Si Si4 0.217611 0.157944 0.120396
Si Si5 0.079678 0.817905 0.273868
Si Si6 0.326834 0.249128 0.197155
O O1 0.531523 0.558073 0.281099
O O2 0.377660 0.683231 0.513640
O O3 0.306338 0.881608 0.534947
O O4 0.376767 0.847947 0.571919
O O5 0.500000 0.974520 0.250000
O O6 0.253718 0.994938 0.788633
O O7 0.282824 0.418800 0.962523
O O8 0.366124 0.582274 0.833905
O O9 0.072282 0.174359 0.449464
O O10 0.250000 0.250000 0.000000
O O11 0.106450 0.778208 0.330646
O O12 0.172144 0.761353 0.017667
#
# Coordination Sequence:
#
# PCOD9283241 Si02
#       6
#     4   8   8   8   8   8
#     4  12  20  40  68 100 134 178 216 268 344 394
#     4  11  24  44  64  96 135 180 224 284 340 395
#     4  11  25  40  67 101 129 174 224 280 325 405
#     4  12  24  43  68  99 137 173 227 280 336 403
#     4  10  22  43  66  99 125 174 226 271 331 402
#     4  10  21  39  70  91 130 173 219 265 334 404
#
# _framework density 21.233851999999999
#
# number of rings (size 3 to 8) (size 9 to 14) (size 15 to 20)
#    0.000    1.091    2.727    3.818    2.545    2.909 
#    3.273    0.000    0.000    0.000    0.000    0.000 
#    0.000    0.000    0.000    0.000    0.000    0.000 
#
# Total GULP energy -122871.919053 kJ/mol
# GULP energy per Si atom -5585.087230 kJ/mol
# Density = 2.118552 g / cm^3
# Si number density = 21.233852 Si / 1000 Ang^3
#
#
#
# Elastic Constant Matrix: (Units=GPa)
#
#
# Indices 1 2 3 4 5 6 
#
# 1 68.4107 36.5886 46.6801 0.0000 1.6674 0.0000
# 2 36.5886 99.5825 27.2068 0.0000 1.1236 0.0000
# 3 46.6801 27.2068 103.1189 0.0000 -10.9205 0.0000
# 4 0.0000 0.0000 0.0000 34.3861 0.0000 10.4783
# 5 1.6674 1.1236 -10.9205 0.0000 23.9599 0.0000
# 6 0.0000 0.0000 0.0000 10.4783 0.0000 28.8706
#
#
#
# Elastic Compliance Matrix: (Units=1/GPa)
#
#
# Indices 1 2 3 4 5 6 
#
# 1 0.025292 -0.006374 -0.010425 0.000000 -0.006213 0.000000
# 2 -0.006374 0.012512 -0.000452 0.000000 -0.000349 0.000000
# 3 -0.010425 -0.000452 0.015357 0.000000 0.007746 0.000000
# 4 0.000000 0.000000 0.000000 0.032698 0.000000 -0.011867
# 5 -0.006213 -0.000349 0.007746 0.000000 0.045716 0.000000
# 6 0.000000 0.000000 0.000000 -0.011867 0.000000 0.038944
#
#
# Mechanical properties :
#
#
# Convention : Reuss Voigt Hill
#
# Bulk Modulus (GPa) = 53.60282 54.67367 54.13824
# Shear Modulus (GPa) = 23.66959 28.15242 25.91100
#
# Velocity S-wave (km/s) = 3.34235 3.64514 3.49702
# Velocity P-wave (km/s) = 6.33987 6.59699 6.46971
#
# Compressibility (1/GPa) = 0.01865573
#
# Stress axis : x y z
#
# Youngs Moduli (GPa) = 39.53797 79.92600 65.11829
#
# Poissons Ratio (x) = 0.50948 0.67889
# Poissons Ratio (y) = 0.25203 0.02946
# Poissons Ratio (z) = 0.41220 0.03616
#
# Static dielectric constant tensor:
#      x y z
#    x 1.791070 0.000000 0.041720 
#    y 0.000000 1.712580 0.000000 
#    z 0.041720 0.000000 1.845700 
# 
# From -- ./inp_files/182258.got.cif
#   From: 2010.05.17/outbox.cif.g08.bks.cpg/sg15_92_cif.got.tgz:182258.got - 2010.06.03 18:47:42.
