data_PCOD9283335
_publ_section_title
;
Structure prediction by ZEFSAII (Michael W. Deem and Ramdas Pophale) SiO2 
 PCOD9283335
Probable space group: C 2/C
;
_chemical_formula_sum "Si O2"
_cell_formula_units_Z 40
_cell_length_a 11.246905
_cell_length_b 15.424455
_cell_length_c 9.441185
_cell_angle_alpha 90.000000
_cell_angle_beta 61.214518
_cell_angle_gamma 90.000000
_cell_volume 1435.443040
_symmetry_space_group_name_H-M "C 2/C"
_symmetry_group_IT_number 15
_symmetry_cell_setting 'monoclinic'
loop_
_space_group_symop_operation_xyz
x,y,z
-x,y,1/2-z
-x,-y,-z
x,-y,1/2+z
1/2+x,1/2+y,z
1/2-x,1/2+y,1/2-z
1/2-x,1/2-y,-z
1/2+x,1/2-y,1/2+z
loop_
_atom_site_type_symbol
_atom_site_label
_atom_site_fract_x
_atom_site_fract_y
_atom_site_fract_z
Si Si1 0.202481 0.178455 0.740913
Si Si2 0.720451 0.503333 0.891468
Si Si3 0.576215 0.264677 0.016827
Si Si4 0.145594 0.108399 0.198921
Si Si5 0.442712 0.082516 0.117261
O O1 0.246233 0.086390 0.775110
O O2 0.321575 0.251027 0.672985
O O3 0.148305 0.188794 0.609894
O O4 0.072549 0.197695 0.910927
O O5 0.626520 0.435150 0.864016
O O6 0.865231 0.454778 0.801342
O O7 0.655503 0.532115 0.073856
O O8 0.542154 0.164162 0.072454
O O9 0.311250 0.123339 0.105297
O O10 0.000000 0.153522 0.250000
O O11 0.500000 0.000000 0.000000
#
# Coordination Sequence:
#
# PCOD9283335 Si02
#       5
#     8   8   8   8   8
#     4  10  22  38  67 100 149 180 240 293 374 423
#     4  10  23  42  71 105 145 192 246 302 355 442
#     4  10  21  40  60 104 138 189 229 301 356 435
#     4  10  23  41  67 102 146 187 247 303 365 418
#     4  10  22  41  68 102 144 192 246 297 356 431
#
# _framework density 27.865960999999999
#
# number of rings (size 3 to 8) (size 9 to 14) (size 15 to 20)
#    1.200    0.800    2.000    0.600    2.800   10.400 
#    0.000    1.000    0.000    0.000    0.000    0.000 
#    0.000    0.000    0.000    0.000    0.000    0.000 
#
# Total GULP energy -111564.297196 kJ/mol
# GULP energy per Si atom -5578.214860 kJ/mol
# Density = 2.780254 g / cm^3
# Si number density = 27.865961 Si / 1000 Ang^3
#
#
#
# Elastic Constant Matrix: (Units=GPa)
#
#
# Indices 1 2 3 4 5 6 
#
# 1 105.4940 21.6659 25.0059 0.0000 -31.3469 0.0000
# 2 21.6659 82.9808 2.0279 0.0000 -9.6205 0.0000
# 3 25.0059 2.0279 125.0810 0.0000 -24.5285 0.0000
# 4 0.0000 0.0000 0.0000 34.1895 0.0000 -16.5762
# 5 -31.3469 -9.6205 -24.5285 0.0000 53.5808 0.0000
# 6 0.0000 0.0000 0.0000 -16.5762 0.0000 56.0538
#
#
#
# Elastic Compliance Matrix: (Units=1/GPa)
#
#
# Indices 1 2 3 4 5 6 
#
# 1 0.012062 -0.002415 -0.001179 0.000000 0.006083 0.000000
# 2 -0.002415 0.012798 0.000493 0.000000 0.001111 0.000000
# 3 -0.001179 0.000493 0.008904 0.000000 0.003475 0.000000
# 4 0.000000 0.000000 0.000000 0.034144 0.000000 0.010097
# 5 0.006083 0.001111 0.003475 0.000000 0.024013 0.000000
# 6 0.000000 0.000000 0.000000 0.010097 0.000000 0.020826
#
#
# Mechanical properties :
#
#
# Convention : Reuss Voigt Hill
#
# Bulk Modulus (GPa) = 36.28223 45.66171 40.97197
# Shear Modulus (GPa) = 39.02052 46.42190 42.72121
#
# Velocity S-wave (km/s) = 3.74611 4.08597 3.91973
# Velocity P-wave (km/s) = 5.63557 6.21948 5.93471
#
# Compressibility (1/GPa) = 0.02756170
#
# Stress axis : x y z
#
# Youngs Moduli (GPa) = 82.90173 78.13519 112.30922
#
# Poissons Ratio (x) = 0.18872 0.13245
# Poissons Ratio (y) = 0.20024 -0.05539
# Poissons Ratio (z) = 0.09777 -0.03853
#
# Static dielectric constant tensor:
#      x y z
#    x 2.378030 0.000000 0.096660 
#    y 0.000000 2.215180 0.000000 
#    z 0.096660 0.000000 2.227160 
# 
# From -- ./inp_files/87094.got.cif
#   From: 2010.05.17/outbox.cif.g08.bks.cpg/sg15_44_cif.got.tgz:87094.got - 2010.06.03 18:47:42.
