data_PCOD9283096
_publ_section_title
;
Structure prediction by ZEFSAII (Michael W. Deem and Ramdas Pophale) SiO2 
 PCOD9283096
Probable space group: C 2/C
;
_chemical_formula_sum "Si O2"
_cell_formula_units_Z 40
_cell_length_a 8.085631
_cell_length_b 20.240487
_cell_length_c 15.929391
_cell_angle_alpha 90.000000
_cell_angle_beta 129.452254
_cell_angle_gamma 90.000000
_cell_volume 2012.974089
_symmetry_space_group_name_H-M "C 2/C"
_symmetry_group_IT_number 15
_symmetry_cell_setting 'monoclinic'
loop_
_space_group_symop_operation_xyz
x,y,z
-x,y,1/2-z
-x,-y,-z
x,-y,1/2+z
1/2+x,1/2+y,z
1/2-x,1/2+y,1/2-z
1/2-x,1/2-y,-z
1/2+x,1/2-y,1/2+z
loop_
_atom_site_type_symbol
_atom_site_label
_atom_site_fract_x
_atom_site_fract_y
_atom_site_fract_z
Si Si1 0.353338 0.488248 0.371408
Si Si2 0.667793 0.186716 0.679252
Si Si3 0.266299 0.653058 0.896011
Si Si4 0.239719 0.799886 0.575371
Si Si5 0.500000 0.901594 0.750000
Si Si6 0.000000 0.075140 0.750000
O O1 0.500000 0.500000 0.500000
O O2 0.224204 0.422888 0.358066
O O3 0.200525 0.549560 0.300668
O O4 0.481729 0.467027 0.329078
O O5 0.733640 0.191209 0.797802
O O6 0.412278 0.176134 0.596047
O O7 0.736474 0.251661 0.653677
O O8 0.795474 0.124238 0.682602
O O9 0.511360 0.662986 0.999854
O O10 0.250000 0.750000 0.500000
O O11 0.425579 0.853838 0.649556
#
# Coordination Sequence:
#
# PCOD9283096 Si02
#       6
#     8   8   8   8   4   4
#     4  11  22  44  67  95 134 168 221 277 329 395
#     4  10  21  39  67  92 127 171 215 268 327 399
#     4  10  21  42  66  91 133 171 212 273 336 383
#     4  12  23  40  64  99 130 174 219 268 330 398
#     4  12  25  42  66  94 133 172 220 274 324 398
#     4  10  21  42  66  96 125 174 224 268 334 402
#
# _framework density 19.871096999999999
#
# number of rings (size 3 to 8) (size 9 to 14) (size 15 to 20)
#    0.000    1.200    2.000    7.200    0.000    0.000 
#    3.600    4.000    0.000    0.000    0.000    0.000 
#    0.000    0.000    0.000    0.000    0.000    0.000 
#
# Total GULP energy -111623.708873 kJ/mol
# GULP energy per Si atom -5581.185444 kJ/mol
# Density = 1.982587 g / cm^3
# Si number density = 19.871097 Si / 1000 Ang^3
#
#
#
# Elastic Constant Matrix: (Units=GPa)
#
#
# Indices 1 2 3 4 5 6 
#
# 1 101.4058 53.6554 44.7808 0.0000 11.7889 0.0000
# 2 53.6554 119.2588 58.2137 0.0000 -0.2292 0.0000
# 3 44.7808 58.2137 106.2533 0.0000 22.1215 0.0000
# 4 0.0000 0.0000 0.0000 41.8586 0.0000 4.6318
# 5 11.7889 -0.2292 22.1215 0.0000 29.6142 0.0000
# 6 0.0000 0.0000 0.0000 4.6318 0.0000 27.6992
#
#
#
# Elastic Compliance Matrix: (Units=1/GPa)
#
#
# Indices 1 2 3 4 5 6 
#
# 1 0.014092 -0.005261 -0.002227 0.000000 -0.003987 0.000000
# 2 -0.005261 0.014269 -0.007175 0.000000 0.007565 0.000000
# 3 -0.002227 -0.007175 0.016706 0.000000 -0.011649 0.000000
# 4 0.000000 0.000000 0.000000 0.024340 0.000000 -0.004070
# 5 -0.003987 0.007565 -0.011649 0.000000 0.044115 0.000000
# 6 0.000000 0.000000 0.000000 -0.004070 0.000000 0.036783
#
#
# Mechanical properties :
#
#
# Convention : Reuss Voigt Hill
#
# Bulk Modulus (GPa) = 63.52663 71.13530 67.33097
# Shear Modulus (GPa) = 27.04489 31.18559 29.11524
#
# Velocity S-wave (km/s) = 3.69320 3.96586 3.83195
# Velocity P-wave (km/s) = 7.08696 7.53968 7.31682
#
# Compressibility (1/GPa) = 0.01574143
#
# Stress axis : x y z
#
# Youngs Moduli (GPa) = 70.96367 70.08183 59.85742
#
# Poissons Ratio (x) = 0.36868 0.13328
# Poissons Ratio (y) = 0.37332 0.42950
# Poissons Ratio (z) = 0.15801 0.50287
#
# Static dielectric constant tensor:
#      x y z
#    x 1.712980 0.000000 0.027330 
#    y 0.000000 1.719530 0.000000 
#    z 0.027330 0.000000 1.697330 
# 
# From -- ./inp_files/76950.got.cif
#   From: 2010.05.17/outbox.cif.g08.bks.cpg/sg15_39_cif.got.tgz:76950.got - 2010.06.03 18:47:42.
