data_PCOD9283033
_publ_section_title
;
Structure prediction by ZEFSAII (Michael W. Deem and Ramdas Pophale) SiO2 
 PCOD9283033
Probable space group: C 2/C
;
_chemical_formula_sum "Si O2"
_cell_formula_units_Z 56
_cell_length_a 15.477339
_cell_length_b 13.940338
_cell_length_c 23.452804
_cell_angle_alpha 90.000000
_cell_angle_beta 30.124435
_cell_angle_gamma 90.000000
_cell_volume 2539.592072
_symmetry_space_group_name_H-M "C 2/C"
_symmetry_group_IT_number 15
_symmetry_cell_setting 'monoclinic'
loop_
_space_group_symop_operation_xyz
x,y,z
-x,y,1/2-z
-x,-y,-z
x,-y,1/2+z
1/2+x,1/2+y,z
1/2-x,1/2+y,1/2-z
1/2-x,1/2-y,-z
1/2+x,1/2-y,1/2+z
loop_
_atom_site_type_symbol
_atom_site_label
_atom_site_fract_x
_atom_site_fract_y
_atom_site_fract_z
Si Si1 0.858258 0.132446 0.880630
Si Si2 0.706015 0.878332 0.784895
Si Si3 0.934310 0.782009 0.451873
Si Si4 0.178949 0.849926 0.658993
Si Si5 0.358317 0.855829 0.375862
Si Si6 0.500241 0.396144 0.526562
Si Si7 0.570909 0.034896 0.548385
O O1 0.931251 0.139706 0.903374
O O2 0.000000 0.124348 0.750000
O O3 0.751389 0.232039 0.933193
O O4 0.718633 0.047070 0.961956
O O5 0.556779 0.801970 0.859601
O O6 0.810698 0.838072 0.779341
O O7 0.831312 0.883217 0.660350
O O8 0.611129 0.980447 0.850610
O O9 0.002750 0.821974 0.472610
O O10 0.155710 0.757932 0.630757
O O11 0.000000 0.906519 0.750000
O O12 0.363357 0.896925 0.539640
O O13 0.500000 0.892873 0.250000
O O14 0.167719 0.889709 0.470159
O O15 0.414665 0.897520 0.404275
O O16 0.500000 0.500000 0.500000
#
# Coordination Sequence:
#
# PCOD9283033 Si02
#       7
#     8   8   8   8   8   8   8
#     4  10  21  39  66  95 130 177 226 281 351 412
#     4  11  24  44  66 100 132 180 226 286 346 417
#     4  10  22  42  64  95 133 175 226 284 347 412
#     4  11  23  43  68  95 137 179 232 282 352 413
#     4  11  24  44  65  97 134 183 228 282 352 412
#     4  12  24  42  67  99 137 176 233 286 348 416
#     4  11  23  40  65  97 135 174 230 285 343 411
#
# _framework density 22.050785000000001
#
# number of rings (size 3 to 8) (size 9 to 14) (size 15 to 20)
#    0.000    1.143    1.429    4.714    0.000    2.286 
#    2.571    3.571    0.000    0.000    0.000    0.000 
#    0.000    0.000    0.000    0.000    0.000    0.000 
#
# Total GULP energy -156385.205558 kJ/mol
# GULP energy per Si atom -5585.185913 kJ/mol
# Density = 2.200060 g / cm^3
# Si number density = 22.050785 Si / 1000 Ang^3
#
#
#
# Elastic Constant Matrix: (Units=GPa)
#
#
# Indices 1 2 3 4 5 6 
#
# 1 74.7807 13.9494 16.8803 0.0003 11.6301 -0.0004
# 2 13.9494 73.3608 29.7346 -0.0006 12.5948 0.0001
# 3 16.8803 29.7346 148.0358 0.0012 17.1203 -0.0030
# 4 0.0003 -0.0006 0.0012 23.7717 -0.0016 4.1630
# 5 11.6301 12.5948 17.1203 -0.0016 42.4040 0.0018
# 6 -0.0004 0.0001 -0.0030 4.1630 0.0018 11.5263
#
#
#
# Elastic Compliance Matrix: (Units=1/GPa)
#
#
# Indices 1 2 3 4 5 6 
#
# 1 0.014395 -0.001844 -0.000921 -0.000001 -0.003029 0.000001
# 2 -0.001844 0.015547 -0.002556 0.000000 -0.003080 -0.000001
# 3 -0.000921 -0.002556 0.007612 -0.000001 -0.002061 0.000003
# 4 -0.000001 0.000000 -0.000001 0.044907 0.000003 -0.016219
# 5 -0.003029 -0.003080 -0.002061 0.000003 0.026160 -0.000006
# 6 0.000001 -0.000001 0.000003 -0.016219 -0.000006 0.092616
#
#
# Mechanical properties :
#
#
# Convention : Reuss Voigt Hill
#
# Bulk Modulus (GPa) = 37.15843 46.36732 41.76288
# Shear Modulus (GPa) = 22.63974 31.24795 26.94384
#
# Velocity S-wave (km/s) = 3.20771 3.76851 3.49936
# Velocity P-wave (km/s) = 5.53236 6.32524 5.94204
#
# Compressibility (1/GPa) = 0.02691179
#
# Stress axis : x y z
#
# Youngs Moduli (GPa) = 69.46713 64.32205 131.37180
#
# Poissons Ratio (x) = 0.11861 0.12097
# Poissons Ratio (y) = 0.12810 0.33582
# Poissons Ratio (z) = 0.06397 0.16442
#
# Static dielectric constant tensor:
#      x y z
#    x 1.766240 0.000020 0.002810 
#    y 0.000020 2.088260 0.000020 
#    z 0.002810 0.000020 1.830610 
# 
# From -- ./inp_files/274464.got.cif
#   From: 2010.05.17/outbox.cif.g08.bks.cpg/sg15_138_cif.got.tgz:274464.got - 2010.06.03 18:47:42.
