data_PCOD9283475
_publ_section_title
;
Structure prediction by ZEFSAII (Michael W. Deem and Ramdas Pophale) SiO2 
 PCOD9283475
Probable space group: C 2/C
;
_chemical_formula_sum "Si O2"
_cell_formula_units_Z 40
_cell_length_a 5.129760
_cell_length_b 30.070937
_cell_length_c 12.260405
_cell_angle_alpha 90.000000
_cell_angle_beta 76.614153
_cell_angle_gamma 90.000000
_cell_volume 1839.870094
_symmetry_space_group_name_H-M "C 2/C"
_symmetry_group_IT_number 15
_symmetry_cell_setting 'monoclinic'
loop_
_space_group_symop_operation_xyz
x,y,z
-x,y,1/2-z
-x,-y,-z
x,-y,1/2+z
1/2+x,1/2+y,z
1/2-x,1/2+y,1/2-z
1/2-x,1/2-y,-z
1/2+x,1/2-y,1/2+z
loop_
_atom_site_type_symbol
_atom_site_label
_atom_site_fract_x
_atom_site_fract_y
_atom_site_fract_z
Si Si1 0.440057 0.910304 0.626821
Si Si2 0.793581 0.121418 0.670038
Si Si3 0.204866 0.781682 0.331393
Si Si4 0.295965 0.814322 0.668939
Si Si5 0.487298 0.552124 0.479549
O O1 0.500000 0.911600 0.750000
O O2 0.378329 0.859257 0.600344
O O3 0.712566 0.928652 0.549491
O O4 0.182048 0.938028 0.613716
O O5 0.500000 0.120964 0.750000
O O6 0.836867 0.170218 0.609949
O O7 0.000000 0.117776 0.750000
O O8 0.832328 0.080488 0.585763
O O9 0.500000 0.781337 0.250000
O O10 0.177644 0.733629 0.391684
O O11 0.000000 0.781784 0.250000
O O12 0.500000 0.811934 0.750000
O O13 0.000000 0.819728 0.750000
O O14 0.500000 0.500000 0.500000
#
# Coordination Sequence:
#
# PCOD9283475 Si02
#       5
#     8   8   8   8   8
#     4  11  23  42  64  89 121 157 193 243 303 357
#     4  10  21  40  62  86 119 160 198 244 299 352
#     4   8  15  29  54  83 114 151 191 232 286 348
#     4   9  16  31  56  86 116 152 190 233 289 352
#     4  12  26  42  61  90 120 154 206 256 293 349
#
# _framework density 21.740663999999999
#
# number of rings (size 3 to 8) (size 9 to 14) (size 15 to 20)
#    0.000    2.000    0.000    4.800    0.000    2.400 
#    0.000    2.000    0.000    0.000    0.000    0.000 
#    0.000    0.000    0.000    0.000    0.000    0.000 
#
# Total GULP energy -111654.282482 kJ/mol
# GULP energy per Si atom -5582.714124 kJ/mol
# Density = 2.169118 g / cm^3
# Si number density = 21.740664 Si / 1000 Ang^3
#
#
#
# Elastic Constant Matrix: (Units=GPa)
#
#
# Indices 1 2 3 4 5 6 
#
# 1 168.2710 47.4217 22.4274 0.0000 6.0050 0.0000
# 2 47.4217 256.3090 61.4448 0.0000 -0.0863 0.0000
# 3 22.4274 61.4448 37.6666 0.0000 11.0034 0.0000
# 4 0.0000 0.0000 0.0000 38.4714 0.0000 2.3516
# 5 6.0050 -0.0863 11.0034 0.0000 36.0283 0.0000
# 6 0.0000 0.0000 0.0000 2.3516 0.0000 55.2872
#
#
#
# Elastic Compliance Matrix: (Units=1/GPa)
#
#
# Indices 1 2 3 4 5 6 
#
# 1 0.006487 -0.000468 -0.003056 0.000000 -0.000149 0.000000
# 2 -0.000468 0.006875 -0.012039 0.000000 0.003771 0.000000
# 3 -0.003056 -0.012039 0.052556 0.000000 -0.015571 0.000000
# 4 0.000000 0.000000 0.000000 0.026061 0.000000 -0.001108
# 5 -0.000149 0.003771 -0.015571 0.000000 0.032545 0.000000
# 6 0.000000 0.000000 0.000000 -0.001108 0.000000 0.018135
#
#
# Mechanical properties :
#
#
# Convention : Reuss Voigt Hill
#
# Bulk Modulus (GPa) = 28.74149 80.53715 54.63932
# Shear Modulus (GPa) = 26.97118 48.02091 37.49604
#
# Velocity S-wave (km/s) = 3.52602 4.70489 4.15745
# Velocity P-wave (km/s) = 5.46131 8.16331 6.94498
#
# Compressibility (1/GPa) = 0.03479291
#
# Stress axis : x y z
#
# Youngs Moduli (GPa) = 154.14872 145.44537 19.02729
#
# Poissons Ratio (x) = 0.06801 0.05815
# Poissons Ratio (y) = 0.07208 0.22907
# Poissons Ratio (z) = 0.47112 1.75102
#
# Static dielectric constant tensor:
#      x y z
#    x 1.750230 0.000000 0.030610 
#    y 0.000000 1.834680 0.000000 
#    z 0.030610 0.000000 1.842660 
# 
# From -- ./inp_files/73347.got.cif
#   From: 2010.05.17/outbox.cif.g08.bks.cpg/sg15_37_cif.got.tgz:73347.got - 2010.06.03 18:47:42.
