data_PCOD9283529
_publ_section_title
;
Structure prediction by ZEFSAII (Michael W. Deem and Ramdas Pophale) SiO2 
 PCOD9283529
Probable space group: C 2/C
;
_chemical_formula_sum "Si O2"
_cell_formula_units_Z 40
_cell_length_a 13.433272
_cell_length_b 12.640381
_cell_length_c 9.767119
_cell_angle_alpha 90.000000
_cell_angle_beta 101.696098
_cell_angle_gamma 90.000000
_cell_volume 1624.037667
_symmetry_space_group_name_H-M "C 2/C"
_symmetry_group_IT_number 15
_symmetry_cell_setting 'monoclinic'
loop_
_space_group_symop_operation_xyz
x,y,z
-x,y,1/2-z
-x,-y,-z
x,-y,1/2+z
1/2+x,1/2+y,z
1/2-x,1/2+y,1/2-z
1/2-x,1/2-y,-z
1/2+x,1/2-y,1/2+z
loop_
_atom_site_type_symbol
_atom_site_label
_atom_site_fract_x
_atom_site_fract_y
_atom_site_fract_z
Si Si1 0.285260 0.337615 0.762187
Si Si2 0.389494 0.545197 0.770753
Si Si3 0.778520 0.666232 0.929139
Si Si4 0.757455 0.665849 0.587511
Si Si5 0.608522 0.035884 0.347354
O O1 0.378442 0.420013 0.787682
O O2 0.266866 0.305389 0.586638
O O3 0.181819 0.408197 0.755565
O O4 0.281115 0.302504 0.933815
O O5 0.500000 0.576574 0.750000
O O6 0.306627 0.578072 0.634318
O O7 0.295421 0.200793 0.764765
O O8 0.650209 0.611619 0.608558
O O9 0.880833 0.613228 0.018073
O O10 0.842326 0.574673 0.595998
O O11 0.500000 0.025950 0.250000
#
# Coordination Sequence:
#
# PCOD9283529 Si02
#       5
#     8   8   8   8   8
#     4   9  20  39  59  87 126 160 205 263 312 373
#     4  10  21  40  64  92 124 164 210 256 312 383
#     4   9  19  37  60  87 122 159 205 264 316 374
#     4  10  21  40  62  91 129 163 204 263 316 370
#     4  10  21  40  64  91 123 166 214 260 316 382
#
# _framework density 24.62997
#
# number of rings (size 3 to 8) (size 9 to 14) (size 15 to 20)
#    0.000    2.400    0.000    1.200    0.000    8.000 
#    0.000   44.000    0.000    0.000    0.000    0.000 
#    0.000    0.000    0.000    0.000    0.000    0.000 
#
# Total GULP energy -111409.812186 kJ/mol
# GULP energy per Si atom -5570.490609 kJ/mol
# Density = 2.457391 g / cm^3
# Si number density = 24.629970 Si / 1000 Ang^3
#
#
#
# Elastic Constant Matrix: (Units=GPa)
#
#
# Indices 1 2 3 4 5 6 
#
# 1 129.7475 58.2219 49.3567 0.0000 20.1954 0.0000
# 2 58.2219 167.2751 96.6907 0.0000 3.8280 0.0000
# 3 49.3567 96.6907 227.3658 0.0000 -21.3055 0.0000
# 4 0.0000 0.0000 0.0000 71.1766 0.0000 -10.8988
# 5 20.1954 3.8280 -21.3055 0.0000 32.4386 0.0000
# 6 0.0000 0.0000 0.0000 -10.8988 0.0000 12.2177
#
#
#
# Elastic Compliance Matrix: (Units=1/GPa)
#
#
# Indices 1 2 3 4 5 6 
#
# 1 0.010767 -0.002384 -0.002051 0.000000 -0.007769 0.000000
# 2 -0.002384 0.008813 -0.003398 0.000000 -0.001788 0.000000
# 3 -0.002051 -0.003398 0.006868 0.000000 0.006189 0.000000
# 4 0.000000 0.000000 0.000000 0.016272 0.000000 0.014516
# 5 -0.007769 -0.001788 0.006189 0.000000 0.039940 0.000000
# 6 0.000000 0.000000 0.000000 0.014516 0.000000 0.094797
#
#
# Mechanical properties :
#
#
# Convention : Reuss Voigt Hill
#
# Bulk Modulus (GPa) = 92.74949 103.65856 98.20402
# Shear Modulus (GPa) = 25.41714 44.50784 34.96249
#
# Velocity S-wave (km/s) = 3.21590 4.25557 3.77173
# Velocity P-wave (km/s) = 7.17832 8.14396 7.67634
#
# Compressibility (1/GPa) = 0.01078173
#
# Stress axis : x y z
#
# Youngs Moduli (GPa) = 92.87939 113.47055 145.59253
#
# Poissons Ratio (x) = 0.27050 0.29868
# Poissons Ratio (y) = 0.22141 0.49470
# Poissons Ratio (z) = 0.19054 0.38555
#
# Static dielectric constant tensor:
#      x y z
#    x 1.817610 0.000000 -0.100570 
#    y 0.000000 1.962280 0.000000 
#    z -0.100570 0.000000 2.105170 
# 
# From -- ./inp_files/151036.got.cif
#   From: 2010.05.17/outbox.cif.g08.bks.cpg/sg15_76_cif.got.tgz:151036.got - 2010.06.03 18:47:42.
