data_PCOD9283477
_publ_section_title
;
Structure prediction by ZEFSAII (Michael W. Deem and Ramdas Pophale) SiO2 
 PCOD9283477
Probable space group: C 2/C
;
_chemical_formula_sum "Si O2"
_cell_formula_units_Z 40
_cell_length_a 5.193198
_cell_length_b 25.526491
_cell_length_c 15.159430
_cell_angle_alpha 90.000000
_cell_angle_beta 121.657879
_cell_angle_gamma 90.000000
_cell_volume 1710.562898
_symmetry_space_group_name_H-M "C 2/C"
_symmetry_group_IT_number 15
_symmetry_cell_setting 'monoclinic'
loop_
_space_group_symop_operation_xyz
x,y,z
-x,y,1/2-z
-x,-y,-z
x,-y,1/2+z
1/2+x,1/2+y,z
1/2-x,1/2+y,1/2-z
1/2-x,1/2-y,-z
1/2+x,1/2-y,1/2+z
loop_
_atom_site_type_symbol
_atom_site_label
_atom_site_fract_x
_atom_site_fract_y
_atom_site_fract_z
Si Si1 0.957962 0.586148 0.640157
Si Si2 0.331261 0.980897 0.881549
Si Si3 0.638968 0.310322 0.676736
Si Si4 0.397712 0.420113 0.918582
Si Si5 0.860856 0.303539 0.323396
O O1 0.042859 0.642278 0.612399
O O2 0.000000 0.596904 0.750000
O O3 0.172890 0.536165 0.667265
O O4 0.625787 0.571481 0.542748
O O5 0.025246 0.954335 0.859669
O O6 0.560413 0.939152 0.879232
O O7 0.500000 0.000000 0.000000
O O8 0.500000 0.316864 0.750000
O O9 0.572674 0.360129 0.604513
O O10 0.552942 0.253257 0.622016
O O11 0.000000 0.309314 0.750000
O O12 0.500000 0.306524 0.250000
O O13 0.000000 0.300364 0.250000
#
# Coordination Sequence:
#
# PCOD9283477 Si02
#       5
#     8   8   8   8   8
#     4  10  22  39  62  88 121 157 194 241 295 350
#     4  10  22  40  58  83 119 153 192 244 290 344
#     4  10  21  40  62  86 120 157 197 247 294 341
#     4  11  23  40  62  90 119 153 200 243 291 354
#     4   9  20  37  58  86 118 154 197 240 288 348
#
# _framework density 23.384115999999999
#
# number of rings (size 3 to 8) (size 9 to 14) (size 15 to 20)
#    0.000    2.000    0.000    3.600    0.000   12.800 
#    0.000    2.000    0.000   20.400    0.000    0.000 
#    0.000    0.000    0.000    0.000    0.000    0.000 
#
# Total GULP energy -111662.049412 kJ/mol
# GULP energy per Si atom -5583.102471 kJ/mol
# Density = 2.333089 g / cm^3
# Si number density = 23.384116 Si / 1000 Ang^3
#
#
#
# Elastic Constant Matrix: (Units=GPa)
#
#
# Indices 1 2 3 4 5 6 
#
# 1 137.9189 20.3047 22.2386 0.0000 8.3659 0.0000
# 2 20.3047 191.7765 23.0332 0.0000 -3.6166 0.0000
# 3 22.2386 23.0332 62.7115 0.0000 15.4793 0.0000
# 4 0.0000 0.0000 0.0000 72.5283 0.0000 -20.3980
# 5 8.3659 -3.6166 15.4793 0.0000 20.1456 0.0000
# 6 0.0000 0.0000 0.0000 -20.3980 0.0000 47.9338
#
#
#
# Elastic Compliance Matrix: (Units=1/GPa)
#
#
# Indices 1 2 3 4 5 6 
#
# 1 0.007785 -0.000602 -0.002116 0.000000 -0.001715 0.000000
# 2 -0.000602 0.005664 -0.002690 0.000000 0.003334 0.000000
# 3 -0.002116 -0.002690 0.021703 0.000000 -0.016280 0.000000
# 4 0.000000 0.000000 0.000000 0.015662 0.000000 0.006665
# 5 -0.001715 0.003334 -0.016280 0.000000 0.063458 0.000000
# 6 0.000000 0.000000 0.000000 0.006665 0.000000 0.023698
#
#
# Mechanical properties :
#
#
# Convention : Reuss Voigt Hill
#
# Bulk Modulus (GPa) = 41.09232 58.17331 49.63282
# Shear Modulus (GPa) = 31.86785 49.91023 40.88904
#
# Velocity S-wave (km/s) = 3.69562 4.62493 4.18614
# Velocity P-wave (km/s) = 5.98506 7.31104 6.68103
#
# Compressibility (1/GPa) = 0.02433545
#
# Stress axis : x y z
#
# Youngs Moduli (GPa) = 128.45972 176.55122 46.07724
#
# Poissons Ratio (x) = 0.10636 0.09750
# Poissons Ratio (y) = 0.07739 0.12393
# Poissons Ratio (z) = 0.27181 0.47485
#
# Static dielectric constant tensor:
#      x y z
#    x 1.937240 0.000000 -0.085170 
#    y 0.000000 2.215560 0.000000 
#    z -0.085170 0.000000 1.978210 
# 
# From -- ./inp_files/129105.got.cif
#   From: 2010.05.17/outbox.cif.g08.bks.cpg/sg15_65_cif.got.tgz:129105.got - 2010.06.03 18:47:42.
