data_PCOD9283246
_publ_section_title
;
Structure prediction by ZEFSAII (Michael W. Deem and Ramdas Pophale) SiO2 
 PCOD9283246
Probable space group: C 2/C
;
_chemical_formula_sum "Si O2"
_cell_formula_units_Z 48
_cell_length_a 22.587494
_cell_length_b 11.804232
_cell_length_c 12.734380
_cell_angle_alpha 90.000000
_cell_angle_beta 145.188977
_cell_angle_gamma 90.000000
_cell_volume 1938.304399
_symmetry_space_group_name_H-M "C 2/C"
_symmetry_group_IT_number 15
_symmetry_cell_setting 'monoclinic'
loop_
_space_group_symop_operation_xyz
x,y,z
-x,y,1/2-z
-x,-y,-z
x,-y,1/2+z
1/2+x,1/2+y,z
1/2-x,1/2+y,1/2-z
1/2-x,1/2-y,-z
1/2+x,1/2-y,1/2+z
loop_
_atom_site_type_symbol
_atom_site_label
_atom_site_fract_x
_atom_site_fract_y
_atom_site_fract_z
Si Si1 0.315955 0.186119 0.370332
Si Si2 0.305857 0.139434 0.669303
Si Si3 0.667114 0.944481 0.063284
Si Si4 0.016673 0.799414 0.649629
Si Si5 0.335292 0.715784 0.538054
Si Si6 0.355424 0.511579 0.698106
O O1 0.265663 0.259882 0.389139
O O2 0.407130 0.255924 0.448587
O O3 0.224946 0.167507 0.152374
O O4 0.366480 0.074024 0.493277
O O5 0.343880 0.079742 0.830286
O O6 0.401679 0.200489 0.754527
O O7 0.234568 0.052771 0.501399
O O8 0.619594 0.837484 0.932473
O O9 0.788028 0.951044 0.200997
O O10 0.059169 0.914960 0.660843
O O11 0.000000 0.818838 0.750000
O O12 0.250000 0.750000 0.500000
O O13 0.396139 0.616004 0.686372
#
# Coordination Sequence:
#
# PCOD9283246 Si02
#       6
#     8   8   8   8   8   8
#     4  11  21  41  68 104 134 185 240 289 354 426
#     4  11  22  41  68  97 140 185 234 294 356 417
#     4  10  21  39  70  94 135 188 229 286 358 418
#     4  12  24  37  69 109 138 179 243 297 347 416
#     4   9  21  40  68  93 136 190 228 286 366 416
#     4  11  20  42  68  98 137 186 234 296 351 420
#
# _framework density 24.763912000000001
#
# number of rings (size 3 to 8) (size 9 to 14) (size 15 to 20)
#    0.000    1.333    5.000    1.500    0.000    0.667 
#    0.000    7.500   22.000    0.000    0.000    0.000 
#    0.000    0.000    0.000    0.000    0.000    0.000 
#
# Total GULP energy -134150.995088 kJ/mol
# GULP energy per Si atom -5589.624795 kJ/mol
# Density = 2.470755 g / cm^3
# Si number density = 24.763912 Si / 1000 Ang^3
#
#
#
# Elastic Constant Matrix: (Units=GPa)
#
#
# Indices 1 2 3 4 5 6 
#
# 1 82.0841 15.2824 21.8505 0.0000 5.5578 0.0000
# 2 15.2824 152.4739 22.8006 0.0000 9.6874 0.0000
# 3 21.8505 22.8006 34.9299 0.0000 13.8465 0.0000
# 4 0.0000 0.0000 0.0000 2.5544 0.0000 -25.3412
# 5 5.5578 9.6874 13.8465 0.0000 33.2398 0.0000
# 6 0.0000 0.0000 0.0000 -25.3412 0.0000 43.8938
#
#
#
# Elastic Compliance Matrix: (Units=1/GPa)
#
#
# Indices 1 2 3 4 5 6 
#
# 1 0.014693 -0.000117 -0.009768 0.000000 0.001646 0.000000
# 2 -0.000117 0.007270 -0.004600 0.000000 -0.000183 0.000000
# 3 -0.009768 -0.004600 0.043794 0.000000 -0.015269 0.000000
# 4 0.000000 0.000000 0.000000 -0.082810 0.000000 -0.047809
# 5 0.001646 -0.000183 -0.015269 0.000000 0.036223 0.000000
# 6 0.000000 0.000000 0.000000 -0.047809 0.000000 -0.004819
#
#
# Mechanical properties :
#
#
# Convention : Reuss Voigt Hill
#
# Bulk Modulus (GPa) = 27.18208 43.26165 35.22187
# Shear Modulus (GPa) = 89.95633 29.90790 59.93211
#
# Velocity S-wave (km/s) = 6.03361 3.47900 4.92483
# Velocity P-wave (km/s) = 7.71619 5.80047 6.82587
#
# Compressibility (1/GPa) = 0.03678894
#
# Stress axis : x y z
#
# Youngs Moduli (GPa) = 68.05963 137.55807 22.83401
#
# Poissons Ratio (x) = 0.01604 0.22303
# Poissons Ratio (y) = 0.00794 0.10503
# Poissons Ratio (z) = 0.66478 0.63273
#
# Static dielectric constant tensor:
#      x y z
#    x 1.947390 0.000000 -0.045670 
#    y 0.000000 2.034380 0.000000 
#    z -0.045670 0.000000 2.006160 
# 
# From -- ./inp_files/167896.got.cif
#   From: 2010.05.17/outbox.cif.g08.bks.cpg/sg15_84_cif.got.tgz:167896.got - 2010.06.03 18:47:42.
