data_PCOD9283037
_publ_section_title
;
Structure prediction by ZEFSAII (Michael W. Deem and Ramdas Pophale) SiO2 
 PCOD9283037
Probable space group: C 2/C
;
_chemical_formula_sum "Si O2"
_cell_formula_units_Z 52
_cell_length_a 18.997040
_cell_length_b 8.899938
_cell_length_c 14.109614
_cell_angle_alpha 90.000000
_cell_angle_beta 88.492915
_cell_angle_gamma 90.000000
_cell_volume 2384.722198
_symmetry_space_group_name_H-M "C 2/C"
_symmetry_group_IT_number 15
_symmetry_cell_setting 'monoclinic'
loop_
_space_group_symop_operation_xyz
x,y,z
-x,y,1/2-z
-x,-y,-z
x,-y,1/2+z
1/2+x,1/2+y,z
1/2-x,1/2+y,1/2-z
1/2-x,1/2-y,-z
1/2+x,1/2-y,1/2+z
loop_
_atom_site_type_symbol
_atom_site_label
_atom_site_fract_x
_atom_site_fract_y
_atom_site_fract_z
Si Si1 0.422680 0.053046 0.383147
Si Si2 0.666803 0.749457 0.514609
Si Si3 0.170982 0.375560 0.797982
Si Si4 0.205427 0.089455 0.697064
Si Si5 0.500000 0.827864 0.250000
Si Si6 0.100865 0.907834 0.836715
Si Si7 0.033331 0.215529 0.855226
O O1 0.364358 0.083104 0.465998
O O2 0.373761 0.067415 0.290852
O O3 0.475721 0.188323 0.411926
O O4 0.475144 0.924671 0.342679
O O5 0.750000 0.750000 0.500000
O O6 0.659293 0.646784 0.609967
O O7 0.634483 0.667422 0.426601
O O8 0.219574 0.239767 0.757294
O O9 0.223192 0.503441 0.832537
O O10 0.108794 0.299230 0.861279
O O11 0.157631 0.987694 0.766862
O O12 0.437409 0.720477 0.220715
O O13 0.047247 0.040605 0.870567
O O14 0.000000 0.227450 0.750000
#
# Coordination Sequence:
#
# PCOD9283037 Si02
#       7
#     8   8   8   8   4   8   8
#     4  10  21  39  66  95 134 178 217 286 339 393
#     4  11  26  45  68 101 142 177 229 283 344 402
#     4   9  18  34  63  90 127 176 226 257 336 397
#     4  10  22  41  67  95 134 187 215 285 338 402
#     4  12  24  38  74 100 132 186 234 276 336 416
#     4  11  24  42  68 103 131 180 234 276 337 418
#     4   9  17  38  61  93 128 174 221 270 337 390
#
# _framework density 21.805475999999999
#
# number of rings (size 3 to 8) (size 9 to 14) (size 15 to 20)
#    0.000    1.846    3.077    2.769    4.308    1.231 
#    0.000    3.077    0.000    0.000    0.000    0.000 
#    0.000    0.000    0.000    0.000    0.000    0.000 
#
# Total GULP energy -144889.210439 kJ/mol
# GULP energy per Si atom -5572.661940 kJ/mol
# Density = 2.175585 g / cm^3
# Si number density = 21.805476 Si / 1000 Ang^3
#
#
#
# Elastic Constant Matrix: (Units=GPa)
#
#
# Indices 1 2 3 4 5 6 
#
# 1 74.2175 37.6857 -0.4588 0.0000 3.5957 0.0000
# 2 37.6857 79.8279 -1.4965 0.0000 4.0367 0.0000
# 3 -0.4588 -1.4965 42.9025 0.0000 10.6538 0.0000
# 4 0.0000 0.0000 0.0000 7.2973 0.0000 7.5215
# 5 3.5957 4.0367 10.6538 0.0000 26.2150 0.0000
# 6 0.0000 0.0000 0.0000 7.5215 0.0000 51.1279
#
#
#
# Elastic Compliance Matrix: (Units=1/GPa)
#
#
# Indices 1 2 3 4 5 6 
#
# 1 0.017758 -0.008317 0.000208 0.000000 -0.001239 0.000000
# 2 -0.008317 0.016561 0.000933 0.000000 -0.001789 0.000000
# 3 0.000208 0.000933 0.026011 0.000000 -0.010743 0.000000
# 4 0.000000 0.000000 0.000000 0.161531 0.000000 -0.023763
# 5 -0.001239 -0.001789 -0.010743 0.000000 0.042958 0.000000
# 6 0.000000 0.000000 0.000000 -0.023763 0.000000 0.023055
#
#
# Mechanical properties :
#
#
# Convention : Reuss Voigt Hill
#
# Bulk Modulus (GPa) = 21.74958 29.82319 25.78639
# Shear Modulus (GPa) = 15.74539 27.67585 21.71062
#
# Velocity S-wave (km/s) = 2.69008 3.56647 3.15882
# Velocity P-wave (km/s) = 4.43224 5.53771 5.01552
#
# Compressibility (1/GPa) = 0.04597790
#
# Stress axis : x y z
#
# Youngs Moduli (GPa) = 56.31146 60.38213 38.44492
#
# Poissons Ratio (x) = 0.50219 -0.00798
# Poissons Ratio (y) = 0.46834 -0.03586
# Poissons Ratio (z) = -0.01169 -0.05633
#
# Static dielectric constant tensor:
#      x y z
#    x 1.845250 0.000000 -0.092980 
#    y 0.000000 1.834300 0.000000 
#    z -0.092980 0.000000 1.840300 
# 
# From -- ./inp_files/166293.got.cif
#   From: 2010.05.17/outbox.cif.g08.bks.cpg/sg15_84_cif.got.tgz:166293.got - 2010.06.03 18:47:42.
