data_PCOD9283512
_publ_section_title
;
Structure prediction by ZEFSAII (Michael W. Deem and Ramdas Pophale) SiO2 
 PCOD9283512
Probable space group: C 2/C
;
_chemical_formula_sum "Si O2"
_cell_formula_units_Z 32
_cell_length_a 22.830330
_cell_length_b 5.317905
_cell_length_c 10.573132
_cell_angle_alpha 90.000000
_cell_angle_beta 73.145310
_cell_angle_gamma 90.000000
_cell_volume 1228.536173
_symmetry_space_group_name_H-M "C 2/C"
_symmetry_group_IT_number 15
_symmetry_cell_setting 'monoclinic'
loop_
_space_group_symop_operation_xyz
x,y,z
-x,y,1/2-z
-x,-y,-z
x,-y,1/2+z
1/2+x,1/2+y,z
1/2-x,1/2+y,1/2-z
1/2-x,1/2-y,-z
1/2+x,1/2-y,1/2+z
loop_
_atom_site_type_symbol
_atom_site_label
_atom_site_fract_x
_atom_site_fract_y
_atom_site_fract_z
Si Si1 0.385847 0.791584 0.724775
Si Si2 0.015608 0.753941 0.068683
Si Si3 0.140549 0.501934 0.026934
Si Si4 0.736902 0.446892 0.177637
O O1 0.456703 0.736208 0.699889
O O2 0.333915 0.603641 0.808030
O O3 0.373776 0.821377 0.582554
O O4 0.372893 0.043850 0.816395
O O5 0.000000 0.500000 0.000000
O O6 0.089282 0.722321 0.037583
O O7 0.000000 0.000000 0.000000
O O8 0.212927 0.542230 0.964947
O O9 0.743692 0.703199 0.252139
#
# Coordination Sequence:
#
# PCOD9283512 Si02
#       4
#     8   8   8   8
#     4  10  21  40  64  94 127 166 210 260 314 374
#     4  10  21  40  62  90 122 160 202 250 304 364
#     4  10  21  40  64  94 127 166 210 260 314 374
#     4  10  21  40  63  92 125 164 209 260 313 372
#
# _framework density 26.047260999999999
#
# number of rings (size 3 to 8) (size 9 to 14) (size 15 to 20)
#    0.000    2.000    0.000    3.000    0.000    0.000 
#    0.000   71.250    0.000    0.000    0.000    0.000 
#    0.000    0.000    0.000    0.000    0.000    0.000 
#
# Total GULP energy -89091.746603 kJ/mol
# GULP energy per Si atom -5568.234163 kJ/mol
# Density = 2.598798 g / cm^3
# Si number density = 26.047261 Si / 1000 Ang^3
#
#
#
# Elastic Constant Matrix: (Units=GPa)
#
#
# Indices 1 2 3 4 5 6 
#
# 1 223.5953 30.2013 16.2688 0.0000 -31.0695 0.0000
# 2 30.2013 100.7924 14.4785 0.0000 4.8990 0.0000
# 3 16.2688 14.4785 90.5402 0.0000 -51.2972 0.0000
# 4 0.0000 0.0000 0.0000 -9.2002 0.0000 5.6853
# 5 -31.0695 4.8990 -51.2972 0.0000 55.3553 0.0000
# 6 0.0000 0.0000 0.0000 5.6853 0.0000 34.3744
#
#
#
# Elastic Compliance Matrix: (Units=1/GPa)
#
#
# Indices 1 2 3 4 5 6 
#
# 1 0.005365 -0.002246 0.002555 0.000000 0.005578 0.000000
# 2 -0.002246 0.011816 -0.005879 0.000000 -0.007755 0.000000
# 3 0.002555 -0.005879 0.026598 0.000000 0.026603 0.000000
# 4 0.000000 0.000000 0.000000 -0.098615 0.000000 0.016310
# 5 0.005578 -0.007755 0.026603 0.000000 0.046535 0.000000
# 6 0.000000 0.000000 0.000000 0.016310 0.000000 0.026394
#
#
# Mechanical properties :
#
#
# Convention : Reuss Voigt Hill
#
# Bulk Modulus (GPa) = 30.63792 59.64724 45.14258
# Shear Modulus (GPa) = 124.65103 39.70454 82.17779
#
# Velocity S-wave (km/s) = 6.92529 3.90850 5.62299
# Velocity P-wave (km/s) = 8.70253 6.58163 7.71531
#
# Compressibility (1/GPa) = 0.03263929
#
# Stress axis : x y z
#
# Youngs Moduli (GPa) = 186.39862 84.63268 37.59654
#
# Poissons Ratio (x) = 0.19006 -0.09608
# Poissons Ratio (y) = 0.41860 0.22105
# Poissons Ratio (z) = -0.47633 0.49760
#
# Static dielectric constant tensor:
#      x y z
#    x 2.120480 0.000000 0.063730 
#    y 0.000000 2.031070 0.000000 
#    z 0.063730 0.000000 2.204370 
# 
# From -- ./inp_files/115310.got.cif
#   From: 2010.05.17/outbox.cif.g08.bks.cpg/sg15_58_cif.got.tgz:115310.got - 2010.06.03 18:47:42.
