data_PCOD9283094
_publ_section_title
;
Structure prediction by ZEFSAII (Michael W. Deem and Ramdas Pophale) SiO2 
 PCOD9283094
Probable space group: C 2/C
;
_chemical_formula_sum "Si O2"
_cell_formula_units_Z 40
_cell_length_a 25.966968
_cell_length_b 16.806957
_cell_length_c 5.033578
_cell_angle_alpha 90.000000
_cell_angle_beta 117.826990
_cell_angle_gamma 90.000000
_cell_volume 1942.749494
_symmetry_space_group_name_H-M "C 2/C"
_symmetry_group_IT_number 15
_symmetry_cell_setting 'monoclinic'
loop_
_space_group_symop_operation_xyz
x,y,z
-x,y,1/2-z
-x,-y,-z
x,-y,1/2+z
1/2+x,1/2+y,z
1/2-x,1/2+y,1/2-z
1/2-x,1/2-y,-z
1/2+x,1/2-y,1/2+z
loop_
_atom_site_type_symbol
_atom_site_label
_atom_site_fract_x
_atom_site_fract_y
_atom_site_fract_z
Si Si1 0.903887 0.052413 0.747456
Si Si2 0.500000 0.057691 0.250000
Si Si3 0.198696 0.827883 0.576226
Si Si4 0.000000 0.832787 0.250000
Si Si5 0.052883 0.313484 0.175781
Si Si6 0.679781 0.779780 0.531699
O O1 0.844148 0.097639 0.531275
O O2 0.956543 0.112232 0.811333
O O3 0.907751 0.977553 0.557782
O O4 0.551168 0.120827 0.437992
O O5 0.500000 0.000000 0.500000
O O6 0.266281 0.840513 0.815666
O O7 0.194884 0.789896 0.275359
O O8 0.177772 0.761025 0.737354
O O9 0.037860 0.773187 0.522668
O O10 0.116648 0.312868 0.451511
O O11 0.000000 0.331985 0.250000
#
# Coordination Sequence:
#
# PCOD9283094 Si02
#       6
#     8   4   8   4   8   8
#     4  12  25  40  60  88 136 176 207 260 320 370
#     4  11  24  44  60  91 132 160 196 257 344 390
#     4  10  21  41  62  89 123 161 217 266 310 372
#     4  11  24  38  60  97 130 170 226 253 304 386
#     4  11  23  39  71  97 126 166 215 269 311 384
#     4  10  21  39  67  92 117 159 214 274 312 357
#
# _framework density 20.589378
#
# number of rings (size 3 to 8) (size 9 to 14) (size 15 to 20)
#    0.000    1.200    3.000    3.000    5.600    0.000 
#    0.000    2.000    0.000    0.000    0.000    0.000 
#    0.000    0.000    0.000    0.000    0.000    0.000 
#
# Total GULP energy -111715.259354 kJ/mol
# GULP energy per Si atom -5585.762968 kJ/mol
# Density = 2.054252 g / cm^3
# Si number density = 20.589378 Si / 1000 Ang^3
#
#
#
# Elastic Constant Matrix: (Units=GPa)
#
#
# Indices 1 2 3 4 5 6 
#
# 1 106.5348 18.1127 20.5970 0.0000 30.3240 0.0000
# 2 18.1127 68.1052 6.1237 0.0000 16.2540 0.0000
# 3 20.5970 6.1237 57.6256 0.0000 9.4580 0.0000
# 4 0.0000 0.0000 0.0000 9.6502 0.0000 -3.3213
# 5 30.3240 16.2540 9.4580 0.0000 48.8263 0.0000
# 6 0.0000 0.0000 0.0000 -3.3213 0.0000 24.7785
#
#
#
# Elastic Compliance Matrix: (Units=1/GPa)
#
#
# Indices 1 2 3 4 5 6 
#
# 1 0.012051 -0.001394 -0.003106 0.000000 -0.006419 0.000000
# 2 -0.001394 0.016152 -0.000493 0.000000 -0.004416 0.000000
# 3 -0.003106 -0.000493 0.018769 0.000000 -0.001543 0.000000
# 4 0.000000 0.000000 0.000000 0.108637 0.000000 0.014562
# 5 -0.006419 -0.004416 -0.001543 0.000000 0.026236 0.000000
# 6 0.000000 0.000000 0.000000 0.014562 0.000000 0.042309
#
#
# Mechanical properties :
#
#
# Convention : Reuss Voigt Hill
#
# Bulk Modulus (GPa) = 27.03718 35.77026 31.40372
# Shear Modulus (GPa) = 20.28650 29.14648 24.71649
#
# Velocity S-wave (km/s) = 3.14234 3.76654 3.46851
# Velocity P-wave (km/s) = 5.13087 6.02716 5.59698
#
# Compressibility (1/GPa) = 0.03698610
#
# Stress axis : x y z
#
# Youngs Moduli (GPa) = 82.97996 61.91150 53.27907
#
# Poissons Ratio (x) = 0.08629 0.16547
# Poissons Ratio (y) = 0.11566 0.02629
# Poissons Ratio (z) = 0.25772 0.03055
#
# Static dielectric constant tensor:
#      x y z
#    x 1.792740 0.000000 0.006590 
#    y 0.000000 1.711840 0.000000 
#    z 0.006590 0.000000 1.783770 
# 
# From -- ./inp_files/12824.got.cif
#   From: 2010.05.17/outbox.cif.g08.bks.cpg/sg15_7_cif.got.tgz:12824.got - 2010.06.03 18:47:42.
