data_PCOD9283880
_publ_section_title
;
Structure prediction by ZEFSAII (Michael W. Deem and Ramdas Pophale) SiO2 
 PCOD9283880
Probable space group: C 2/C
;
_chemical_formula_sum "Si O2"
_cell_formula_units_Z 60
_cell_length_a 23.553982
_cell_length_b 24.187498
_cell_length_c 17.030844
_cell_angle_alpha 90.000000
_cell_angle_beta 161.806327
_cell_angle_gamma 90.000000
_cell_volume 3029.466154
_symmetry_space_group_name_H-M "C 2/C"
_symmetry_group_IT_number 15
_symmetry_cell_setting 'monoclinic'
loop_
_space_group_symop_operation_xyz
x,y,z
-x,y,1/2-z
-x,-y,-z
x,-y,1/2+z
1/2+x,1/2+y,z
1/2-x,1/2+y,1/2-z
1/2-x,1/2-y,-z
1/2+x,1/2-y,1/2+z
loop_
_atom_site_type_symbol
_atom_site_label
_atom_site_fract_x
_atom_site_fract_y
_atom_site_fract_z
Si Si1 0.182345 0.489977 0.938805
Si Si2 0.085856 0.732040 0.188518
Si Si3 0.845352 0.542619 0.275911
Si Si4 0.484275 0.844455 0.036316
Si Si5 0.500000 0.253917 0.250000
Si Si6 0.374621 0.666827 0.341746
Si Si7 0.694756 0.880223 0.459978
Si Si8 0.018437 0.046414 0.958662
O O1 0.167398 0.464005 0.833481
O O2 0.248936 0.554623 0.024221
O O3 0.000000 0.491472 0.750000
O O4 0.320694 0.449977 0.163553
O O5 0.973684 0.694569 0.981212
O O6 0.302754 0.718000 0.473153
O O7 0.033447 0.724509 0.210597
O O8 0.030609 0.792989 0.082071
O O9 0.910348 0.600201 0.398110
O O10 0.000000 0.500000 0.500000
O O11 0.658327 0.528936 0.074507
O O12 0.315397 0.818648 0.863901
O O13 0.644873 0.857615 0.308203
O O14 0.418264 0.604178 0.423685
O O15 0.327489 0.658478 0.186943
O O16 0.500000 0.880856 0.250000
O O17 0.000000 0.000000 0.000000
#
# Coordination Sequence:
#
# PCOD9283880 Si02
#       8
#     8   8   8   8   4   8   8   8
#     4  11  21  39  60  90 128 170 209 259 318 373
#     4  11  22  45  66  92 122 163 210 257 314 364
#     4  11  22  39  62  91 126 168 212 256 313 379
#     4  10  21  40  65  90 126 168 205 254 316 380
#     4  10  24  42  68  86 128 158 208 266 310 362
#     4  10  21  40  65  90 126 168 205 254 316 380
#     4   9  18  36  64  90 124 165 200 241 312 381
#     4  11  22  39  62  91 126 168 212 256 313 379
#
# _framework density 19.80547
#
# number of rings (size 3 to 8) (size 9 to 14) (size 15 to 20)
#    0.000    1.600    4.000    1.200    0.000    2.667 
#    7.200    0.000    0.000    0.000    0.000    0.000 
#    0.000    0.000    0.000    0.000    0.000    0.000 
#
# Total GULP energy -167082.346226 kJ/mol
# GULP energy per Si atom -5569.411541 kJ/mol
# Density = 1.976039 g / cm^3
# Si number density = 19.805470 Si / 1000 Ang^3
#
#
#
# Elastic Constant Matrix: (Units=GPa)
#
#
# Indices 1 2 3 4 5 6 
#
# 1 128.7327 29.5308 38.9982 0.0000 -33.3261 0.0000
# 2 29.5308 46.3736 7.1800 0.0000 -6.2157 0.0000
# 3 38.9982 7.1800 71.8284 0.0000 -21.0780 0.0000
# 4 0.0000 0.0000 0.0000 13.6069 0.0000 -9.5306
# 5 -33.3261 -6.2157 -21.0780 0.0000 44.7773 0.0000
# 6 0.0000 0.0000 0.0000 -9.5306 0.0000 18.2410
#
#
#
# Elastic Compliance Matrix: (Units=1/GPa)
#
#
# Indices 1 2 3 4 5 6 
#
# 1 0.012027 -0.006198 -0.004103 0.000000 0.006160 0.000000
# 2 -0.006198 0.025309 0.000595 0.000000 -0.000820 0.000000
# 3 -0.004103 0.000595 0.017658 0.000000 0.005341 0.000000
# 4 0.000000 0.000000 0.000000 0.115911 0.000000 0.060561
# 5 0.006160 -0.000820 0.005341 0.000000 0.029317 0.000000
# 6 0.000000 0.000000 0.000000 0.060561 0.000000 0.086464
#
#
# Mechanical properties :
#
#
# Convention : Reuss Voigt Hill
#
# Bulk Modulus (GPa) = 28.10479 44.26141 36.18310
# Shear Modulus (GPa) = 15.72527 26.74008 21.23267
#
# Velocity S-wave (km/s) = 2.82083 3.67841 3.27779
# Velocity P-wave (km/s) = 4.98304 6.35905 5.71263
#
# Compressibility (1/GPa) = 0.03558112
#
# Stress axis : x y z
#
# Youngs Moduli (GPa) = 83.14289 39.51150 56.63309
#
# Poissons Ratio (x) = 0.24490 0.23236
# Poissons Ratio (y) = 0.51534 -0.03368
# Poissons Ratio (z) = 0.34113 -0.02350
#
# Static dielectric constant tensor:
#      x y z
#    x 1.694790 0.000000 0.032380 
#    y 0.000000 1.651270 0.000000 
#    z 0.032380 0.000000 1.683150 
# 
# From -- ./inp_files/169981.got.cif
#   From: 2010.05.17/outbox.cif.g08.bks.cpg/sg15_85_cif.got.tgz:169981.got - 2010.06.03 18:47:42.
