data_PCOD9283307
_publ_section_title
;
Structure prediction by ZEFSAII (Michael W. Deem and Ramdas Pophale) SiO2 
 PCOD9283307
Probable space group: C 2/C
;
_chemical_formula_sum "Si O2"
_cell_formula_units_Z 44
_cell_length_a 10.474810
_cell_length_b 16.628505
_cell_length_c 20.051534
_cell_angle_alpha 90.000000
_cell_angle_beta 141.015790
_cell_angle_gamma 90.000000
_cell_volume 2197.206751
_symmetry_space_group_name_H-M "C 2/C"
_symmetry_group_IT_number 15
_symmetry_cell_setting 'monoclinic'
loop_
_space_group_symop_operation_xyz
x,y,z
-x,y,1/2-z
-x,-y,-z
x,-y,1/2+z
1/2+x,1/2+y,z
1/2-x,1/2+y,1/2-z
1/2-x,1/2-y,-z
1/2+x,1/2-y,1/2+z
loop_
_atom_site_type_symbol
_atom_site_label
_atom_site_fract_x
_atom_site_fract_y
_atom_site_fract_z
Si Si1 0.234242 0.667281 0.357273
Si Si2 0.966984 0.145068 0.914466
Si Si3 0.525564 0.537996 0.406763
Si Si4 0.500000 0.519933 0.750000
Si Si5 0.257627 0.837031 0.302853
Si Si6 0.873578 0.605759 0.635820
O O1 0.315389 0.658279 0.465412
O O2 0.372938 0.607117 0.369488
O O3 0.275574 0.759359 0.354922
O O4 0.000000 0.648728 0.250000
O O5 0.917327 0.181824 0.823159
O O6 0.789278 0.165682 0.895196
O O7 0.943654 0.048990 0.895558
O O8 0.541265 0.531632 0.333169
O O9 0.736194 0.550845 0.532037
O O10 0.314391 0.581791 0.689497
O O11 0.460469 0.852787 0.343453
O O12 0.000000 0.569434 0.750000
#
# Coordination Sequence:
#
# PCOD9283307 Si02
#       6
#     8   8   8   4   8   8
#     4  11  22  39  63  88 113 159 208 244 289 358
#     4   9  21  38  61  87 119 151 199 254 288 348
#     4  10  22  39  60  91 120 152 199 254 288 358
#     4  10  22  42  54  86 138 150 188 250 306 342
#     4  10  21  40  59  83 125 161 189 240 313 349
#     4   9  18  36  62  85 113 158 198 237 300 343
#
# _framework density 20.025424999999998
#
# number of rings (size 3 to 8) (size 9 to 14) (size 15 to 20)
#    0.000    2.182    0.909    2.182    0.000   13.091 
#    8.182    0.000    0.000    0.000    0.000    0.000 
#    0.000    0.000    0.000    0.000    0.000    0.000 
#
# Total GULP energy -122685.585250 kJ/mol
# GULP energy per Si atom -5576.617511 kJ/mol
# Density = 1.997985 g / cm^3
# Si number density = 20.025425 Si / 1000 Ang^3
#
#
#
# Elastic Constant Matrix: (Units=GPa)
#
#
# Indices 1 2 3 4 5 6 
#
# 1 66.8043 4.0973 33.6200 -0.0001 -2.4335 0.0000
# 2 4.0973 42.2557 15.6030 -0.0002 -6.1950 0.0000
# 3 33.6200 15.6030 125.6925 -0.0007 -1.0627 0.0000
# 4 -0.0001 -0.0002 -0.0007 24.5820 -0.0001 0.5234
# 5 -2.4335 -6.1950 -1.0627 -0.0001 36.4405 0.0000
# 6 0.0000 0.0000 0.0000 0.5234 0.0000 15.0539
#
#
#
# Elastic Compliance Matrix: (Units=1/GPa)
#
#
# Indices 1 2 3 4 5 6 
#
# 1 0.017337 0.000191 -0.004652 0.000000 0.001055 0.000000
# 2 0.000191 0.025441 -0.003173 0.000000 0.004245 0.000000
# 3 -0.004652 -0.003173 0.009589 0.000000 -0.000571 0.000000
# 4 0.000000 0.000000 0.000000 0.040710 0.000000 -0.001415
# 5 0.001055 0.004245 -0.000571 0.000000 0.028218 0.000000
# 6 0.000000 0.000000 0.000000 -0.001415 0.000000 0.066477
#
#
# Mechanical properties :
#
#
# Convention : Reuss Voigt Hill
#
# Bulk Modulus (GPa) = 26.95487 37.93258 32.44372
# Shear Modulus (GPa) = 23.21182 27.31075 25.26128
#
# Velocity S-wave (km/s) = 3.40828 3.69698 3.55556
# Velocity P-wave (km/s) = 5.38312 6.09974 5.75260
#
# Compressibility (1/GPa) = 0.03709905
#
# Stress axis : x y z
#
# Youngs Moduli (GPa) = 57.68003 39.30650 104.28202
#
# Poissons Ratio (x) = -0.00752 0.48513
# Poissons Ratio (y) = -0.01104 0.33093
# Poissons Ratio (z) = 0.26833 0.12474
#
# Static dielectric constant tensor:
#      x y z
#    x 1.761650 0.000000 0.000980 
#    y 0.000000 1.681010 0.000000 
#    z 0.000980 0.000000 1.740070 
# 
# From -- ./inp_files/270488.got.cif
#   From: 2010.05.17/outbox.cif.g08.bks.cpg/sg15_136_cif.got.tgz:270488.got - 2010.06.03 18:47:42.
