data_PCOD9283003
_publ_section_title
;
Structure prediction by ZEFSAII (Michael W. Deem and Ramdas Pophale) SiO2 
 PCOD9283003
Probable space group: C 2/C
;
_chemical_formula_sum "Si O2"
_cell_formula_units_Z 36
_cell_length_a 8.216683
_cell_length_b 13.423840
_cell_length_c 16.622434
_cell_angle_alpha 90.000000
_cell_angle_beta 115.368566
_cell_angle_gamma 90.000000
_cell_volume 1656.646898
_symmetry_space_group_name_H-M "C 2/C"
_symmetry_group_IT_number 15
_symmetry_cell_setting 'monoclinic'
loop_
_space_group_symop_operation_xyz
x,y,z
-x,y,1/2-z
-x,-y,-z
x,-y,1/2+z
1/2+x,1/2+y,z
1/2-x,1/2+y,1/2-z
1/2-x,1/2-y,-z
1/2+x,1/2-y,1/2+z
loop_
_atom_site_type_symbol
_atom_site_label
_atom_site_fract_x
_atom_site_fract_y
_atom_site_fract_z
Si Si1 0.000000 0.827535 0.250000
Si Si2 0.580577 0.200368 0.418994
Si Si3 0.629755 0.908580 0.500717
Si Si4 0.338536 0.992767 0.152962
Si Si5 0.038601 0.986669 0.839331
O O1 0.983199 0.757704 0.324263
O O2 0.128504 0.912948 0.318587
O O3 0.750000 0.250000 0.500000
O O4 0.440436 0.181507 0.460991
O O5 0.649939 0.097213 0.393394
O O6 0.828335 0.936292 0.571755
O O7 0.500000 0.000000 0.500000
O O8 0.630931 0.905741 0.405379
O O9 0.500000 0.992692 0.250000
O O10 0.146105 0.986097 0.155533
O O11 0.000000 0.924121 0.750000
#
# Coordination Sequence:
#
# PCOD9283003 Si02
#       5
#     4   8   8   8   8
#     4  10  22  36  64  90 132 162 212 262 332 354
#     4  11  23  40  65  94 130 167 208 269 336 374
#     4  10  21  39  66  93 124 172 217 256 318 396
#     4  11  22  40  67  92 127 175 223 257 317 398
#     4  10  22  39  65  91 127 170 223 262 310 389
#
# _framework density 21.730640000000001
#
# number of rings (size 3 to 8) (size 9 to 14) (size 15 to 20)
#    0.667    0.889    1.111    6.000    3.111    0.000 
#    0.000    4.444    0.000    0.000    0.000    0.000 
#    0.000    0.000    0.000    0.000    0.000    0.000 
#
# Total GULP energy -100215.342123 kJ/mol
# GULP energy per Si atom -5567.519007 kJ/mol
# Density = 2.168118 g / cm^3
# Si number density = 21.730640 Si / 1000 Ang^3
#
#
#
# Elastic Constant Matrix: (Units=GPa)
#
#
# Indices 1 2 3 4 5 6 
#
# 1 144.6241 18.4778 80.7947 0.0000 -7.0800 0.0000
# 2 18.4778 50.5482 47.2124 0.0000 -6.0027 0.0000
# 3 80.7947 47.2124 197.8462 0.0000 -12.7093 0.0000
# 4 0.0000 0.0000 0.0000 3.1218 0.0000 -6.6951
# 5 -7.0800 -6.0027 -12.7093 0.0000 34.3813 0.0000
# 6 0.0000 0.0000 0.0000 -6.6951 0.0000 9.0976
#
#
#
# Elastic Compliance Matrix: (Units=1/GPa)
#
#
# Indices 1 2 3 4 5 6 
#
# 1 0.008969 0.000223 -0.003682 0.000000 0.000525 0.000000
# 2 0.000223 0.025634 -0.006062 0.000000 0.002281 0.000000
# 3 -0.003682 -0.006062 0.008080 0.000000 0.001170 0.000000
# 4 0.000000 0.000000 0.000000 -0.553946 0.000000 -0.407658
# 5 0.000525 0.002281 0.001170 0.000000 0.030024 0.000000
# 6 0.000000 0.000000 0.000000 -0.407658 0.000000 -0.190083
#
#
# Mechanical properties :
#
#
# Convention : Reuss Voigt Hill
#
# Bulk Modulus (GPa) = 42.29951 76.22093 59.26022
# Shear Modulus (GPa) = -7.75915 25.75569 8.99827
#
# Velocity S-wave (km/s) = -1.89165 3.44644 2.03711
# Velocity P-wave (km/s) = 3.83881 7.14064 5.73259
#
# Compressibility (1/GPa) = 0.02364093
#
# Stress axis : x y z
#
# Youngs Moduli (GPa) = 111.49928 39.01058 123.76648
#
# Poissons Ratio (x) = -0.00869 0.45571
# Poissons Ratio (y) = -0.02485 0.75022
# Poissons Ratio (z) = 0.41054 0.23647
#
# Static dielectric constant tensor:
#      x y z
#    x 1.788140 0.000000 -0.013480 
#    y 0.000000 1.890240 0.000000 
#    z -0.013480 0.000000 1.985890 
# 
# From -- ./inp_files/132852.got.cif
#   From: 2010.05.17/outbox.cif.g08.bks.cpg/sg15_67_cif.got.tgz:132852.got - 2010.06.03 18:47:42.
