data_PCOD9283290
_publ_section_title
;
Structure prediction by ZEFSAII (Michael W. Deem and Ramdas Pophale) SiO2 
 PCOD9283290
Probable space group: C 2/C
;
_chemical_formula_sum "Si O2"
_cell_formula_units_Z 64
_cell_length_a 27.737534
_cell_length_b 14.721137
_cell_length_c 8.911013
_cell_angle_alpha 90.000000
_cell_angle_beta 67.101213
_cell_angle_gamma 90.000000
_cell_volume 3351.870350
_symmetry_space_group_name_H-M "C 2/C"
_symmetry_group_IT_number 15
_symmetry_cell_setting 'monoclinic'
loop_
_space_group_symop_operation_xyz
x,y,z
-x,y,1/2-z
-x,-y,-z
x,-y,1/2+z
1/2+x,1/2+y,z
1/2-x,1/2+y,1/2-z
1/2-x,1/2-y,-z
1/2+x,1/2-y,1/2+z
loop_
_atom_site_type_symbol
_atom_site_label
_atom_site_fract_x
_atom_site_fract_y
_atom_site_fract_z
Si Si1 0.797256 0.727167 0.548732
Si Si2 0.640577 0.606862 0.611883
Si Si3 0.375408 0.099611 0.814234
Si Si4 0.888309 0.595480 0.439216
Si Si5 0.851642 0.916393 0.045285
Si Si6 0.450257 0.749778 0.724585
Si Si7 0.058583 0.762712 0.613084
Si Si8 0.259611 0.845043 0.410111
O O1 0.750000 0.750000 0.500000
O O2 0.823940 0.825740 0.532065
O O3 0.838596 0.653551 0.436549
O O4 0.775792 0.681823 0.723079
O O5 0.631145 0.514952 0.533576
O O6 0.591530 0.671030 0.699478
O O7 0.659080 0.586866 0.761377
O O8 0.384414 0.095497 0.624091
O O9 0.410425 0.181880 0.838010
O O10 0.312459 0.111591 0.915352
O O11 0.390459 0.005077 0.872779
O O12 0.935503 0.657196 0.325806
O O13 0.898191 0.844759 0.947944
O O14 0.795861 0.896426 0.031338
O O15 0.500000 0.713777 0.750000
O O16 0.452903 0.766047 0.544439
O O17 0.000000 0.783252 0.750000
O O18 0.250000 0.750000 0.500000
#
# Coordination Sequence:
#
# PCOD9283290 Si02
#       8
#     8   8   8   8   8   8   8   8
#     4  10  21  40  58  87 126 168 205 247 305 358
#     4  10  24  40  63  91 128 162 208 258 303 371
#     4  11  23  40  62  96 127 165 206 253 312 369
#     4  10  23  38  62  93 125 162 206 253 306 373
#     4  11  24  41  61  96 124 167 210 251 312 364
#     4  10  22  44  67  89 121 164 208 260 316 366
#     4  11  24  43  66  90 125 160 208 265 312 370
#     4  11  23  38  63  90 129 168 205 252 300 371
#
# _framework density 19.093819
#
# number of rings (size 3 to 8) (size 9 to 14) (size 15 to 20)
#    0.000    1.500    2.500    1.500    3.500    4.000 
#    0.000    5.000    0.000    0.000    0.000    0.000 
#    0.000    0.000    0.000    0.000    0.000    0.000 
#
# Total GULP energy -178334.437427 kJ/mol
# GULP energy per Si atom -5572.951170 kJ/mol
# Density = 1.905036 g / cm^3
# Si number density = 19.093819 Si / 1000 Ang^3
#
#
#
# Elastic Constant Matrix: (Units=GPa)
#
#
# Indices 1 2 3 4 5 6 
#
# 1 84.6301 17.2883 24.8354 0.0000 3.2648 0.0000
# 2 17.2883 117.8157 28.4694 0.0000 0.1065 0.0000
# 3 24.8354 28.4694 54.0196 0.0000 -9.2562 0.0000
# 4 0.0000 0.0000 0.0000 12.9504 0.0000 28.9880
# 5 3.2648 0.1065 -9.2562 0.0000 25.4864 0.0000
# 6 0.0000 0.0000 0.0000 28.9880 0.0000 -9.0054
#
#
#
# Elastic Compliance Matrix: (Units=1/GPa)
#
#
# Indices 1 2 3 4 5 6 
#
# 1 0.014129 -0.000365 -0.007052 0.000000 -0.004369 0.000000
# 2 -0.000365 0.009835 -0.005347 0.000000 -0.001936 0.000000
# 3 -0.007052 -0.005347 0.026372 0.000000 0.010503 0.000000
# 4 0.000000 0.000000 0.000000 0.009411 0.000000 0.030293
# 5 -0.004369 -0.001936 0.010503 0.000000 0.043619 0.000000
# 6 0.000000 0.000000 0.000000 0.030293 0.000000 -0.013533
#
#
# Mechanical properties :
#
#
# Convention : Reuss Voigt Hill
#
# Bulk Modulus (GPa) = 40.31116 44.18350 42.24733
# Shear Modulus (GPa) = 40.44321 18.27776 29.36048
#
# Velocity S-wave (km/s) = 4.60731 3.09732 3.92560
# Velocity P-wave (km/s) = 7.03285 5.99847 6.53616
#
# Compressibility (1/GPa) = 0.02480703
#
# Stress axis : x y z
#
# Youngs Moduli (GPa) = 70.77777 101.67434 37.91934
#
# Poissons Ratio (x) = 0.03714 0.26740
# Poissons Ratio (y) = 0.02585 0.20277
# Poissons Ratio (z) = 0.49911 0.54368
#
# Static dielectric constant tensor:
#      x y z
#    x 1.552280 0.000000 0.096140 
#    y 0.000000 1.656250 0.000000 
#    z 0.096140 0.000000 1.637840 
# 
# From -- ./inp_files/66187.got.cif
#   From: 2010.05.17/outbox.cif.g08.bks.cpg/sg15_34_cif.got.tgz:66187.got - 2010.06.03 18:47:42.
