data_PCOD9283262
_publ_section_title
;
Structure prediction by ZEFSAII (Michael W. Deem and Ramdas Pophale) SiO2 
 PCOD9283262
Probable space group: C 2/C
;
_chemical_formula_sum "Si O2"
_cell_formula_units_Z 48
_cell_length_a 7.236272
_cell_length_b 12.738602
_cell_length_c 20.882161
_cell_angle_alpha 90.000000
_cell_angle_beta 78.506618
_cell_angle_gamma 90.000000
_cell_volume 1886.318401
_symmetry_space_group_name_H-M "C 2/C"
_symmetry_group_IT_number 15
_symmetry_cell_setting 'monoclinic'
loop_
_space_group_symop_operation_xyz
x,y,z
-x,y,1/2-z
-x,-y,-z
x,-y,1/2+z
1/2+x,1/2+y,z
1/2-x,1/2+y,1/2-z
1/2-x,1/2-y,-z
1/2+x,1/2-y,1/2+z
loop_
_atom_site_type_symbol
_atom_site_label
_atom_site_fract_x
_atom_site_fract_y
_atom_site_fract_z
Si Si1 0.892544 0.863267 0.929120
Si Si2 0.407295 0.008102 0.326033
Si Si3 0.018775 0.302364 0.509530
Si Si4 0.764080 0.437298 0.104651
Si Si5 0.411510 0.232788 0.345664
Si Si6 0.175155 0.720865 0.689183
O O1 0.881207 0.790099 0.867673
O O2 0.030486 0.805710 0.968379
O O3 0.898951 0.982527 0.905204
O O4 0.690208 0.851498 0.978561
O O5 0.500000 0.007204 0.250000
O O6 0.312176 0.122002 0.337764
O O7 0.572631 0.999353 0.368012
O O8 0.295620 0.899101 0.336311
O O9 0.147928 0.385534 0.464481
O O10 0.052081 0.274702 0.580498
O O11 0.697321 0.341968 0.154980
O O12 0.621594 0.238606 0.300528
O O13 0.000000 0.725510 0.750000
#
# Coordination Sequence:
#
# PCOD9283262 Si02
#       6
#     8   8   8   8   8   8
#     4  10  21  39  72 101 131 183 217 263 342 401
#     4  11  25  46  67  93 131 181 223 279 333 386
#     4  10  21  40  68 103 139 172 216 272 335 402
#     4  12  23  43  70 102 136 174 219 283 332 395
#     4  11  26  44  69 104 132 174 229 271 334 403
#     4  10  22  46  66  91 135 181 223 274 331 392
#
# _framework density 25.446393
#
# number of rings (size 3 to 8) (size 9 to 14) (size 15 to 20)
#    0.000    1.333    5.000    1.000    0.000    4.667 
#    6.000    0.833    0.000    0.000    0.000    0.000 
#    0.000    0.000    0.000    0.000    0.000    0.000 
#
# Total GULP energy -134400.445453 kJ/mol
# GULP energy per Si atom -5600.018561 kJ/mol
# Density = 2.538848 g / cm^3
# Si number density = 25.446393 Si / 1000 Ang^3
#
#
#
# Elastic Constant Matrix: (Units=GPa)
#
#
# Indices 1 2 3 4 5 6 
#
# 1 67.5626 32.9028 20.0959 0.0000 -12.5033 0.0000
# 2 32.9028 206.8509 41.6197 0.0000 -13.1453 0.0000
# 3 20.0959 41.6197 82.4465 0.0000 -12.8588 0.0000
# 4 0.0000 0.0000 0.0000 36.3791 0.0000 -5.4656
# 5 -12.5033 -13.1453 -12.8588 0.0000 37.7248 0.0000
# 6 0.0000 0.0000 0.0000 -5.4656 0.0000 45.5394
#
#
#
# Elastic Compliance Matrix: (Units=1/GPa)
#
#
# Indices 1 2 3 4 5 6 
#
# 1 0.017297 -0.001969 -0.002572 0.000000 0.004170 0.000000
# 2 -0.001969 0.005641 -0.002284 0.000000 0.000534 0.000000
# 3 -0.002572 -0.002284 0.014419 0.000000 0.003266 0.000000
# 4 0.000000 0.000000 0.000000 0.027993 0.000000 0.003360
# 5 0.004170 0.000534 0.003266 0.000000 0.029189 0.000000
# 6 0.000000 0.000000 0.000000 0.003360 0.000000 0.022362
#
#
# Mechanical properties :
#
#
# Convention : Reuss Voigt Hill
#
# Bulk Modulus (GPa) = 42.18281 60.67741 51.43011
# Shear Modulus (GPa) = 36.11330 41.41143 38.76236
#
# Velocity S-wave (km/s) = 3.77130 4.03848 3.90718
# Velocity P-wave (km/s) = 5.96462 6.75594 6.37258
#
# Compressibility (1/GPa) = 0.02370634
#
# Stress axis : x y z
#
# Youngs Moduli (GPa) = 57.81500 177.26760 69.35507
#
# Poissons Ratio (x) = 0.34901 0.17836
# Poissons Ratio (y) = 0.11383 0.15844
# Poissons Ratio (z) = 0.14868 0.40496
#
# Static dielectric constant tensor:
#      x y z
#    x 2.063400 0.000000 -0.010230 
#    y 0.000000 2.005310 0.000000 
#    z -0.010230 0.000000 1.973080 
# 
# From -- ./inp_files/263488.got.cif
#   From: 2010.05.17/outbox.cif.g08.bks.cpg/sg15_132_cif.got.tgz:263488.got - 2010.06.03 18:47:42.
