data_PCOD9283352
_publ_section_title
;
Structure prediction by ZEFSAII (Michael W. Deem and Ramdas Pophale) SiO2 
 PCOD9283352
Probable space group: C 2/C
;
_chemical_formula_sum "Si O2"
_cell_formula_units_Z 48
_cell_length_a 28.477906
_cell_length_b 8.911910
_cell_length_c 13.924378
_cell_angle_alpha 90.000000
_cell_angle_beta 41.464986
_cell_angle_gamma 90.000000
_cell_volume 2340.017222
_symmetry_space_group_name_H-M "C 2/C"
_symmetry_group_IT_number 15
_symmetry_cell_setting 'monoclinic'
loop_
_space_group_symop_operation_xyz
x,y,z
-x,y,1/2-z
-x,-y,-z
x,-y,1/2+z
1/2+x,1/2+y,z
1/2-x,1/2+y,1/2-z
1/2-x,1/2-y,-z
1/2+x,1/2-y,1/2+z
loop_
_atom_site_type_symbol
_atom_site_label
_atom_site_fract_x
_atom_site_fract_y
_atom_site_fract_z
Si Si1 0.064781 0.668737 0.048681
Si Si2 0.656145 0.775255 0.221964
Si Si3 0.654437 0.767648 0.593115
Si Si4 0.963315 0.844926 0.090521
Si Si5 0.985421 0.647386 0.663938
Si Si6 0.727794 0.496363 0.519417
O O1 0.122370 0.692501 0.876787
O O2 0.102076 0.669454 0.093499
O O3 0.010926 0.802698 0.110063
O O4 0.019127 0.517979 0.104546
O O5 0.597626 0.836607 0.235515
O O6 0.675698 0.602545 0.167274
O O7 0.726801 0.871692 0.104251
O O8 0.613838 0.708720 0.751646
O O9 0.687468 0.608638 0.509656
O O10 0.715629 0.891211 0.516695
O O11 0.977332 0.741548 0.976726
O O12 0.000000 0.000000 0.000000
O O13 0.000000 0.700569 0.750000
#
# Coordination Sequence:
#
# PCOD9283352 Si02
#       6
#     8   8   8   8   8   8
#     4  11  22  38  64  88 117 156 203 253 305 366
#     4  10  21  40  60  88 119 157 202 247 303 361
#     4  11  22  39  60  88 120 161 201 243 307 363
#     4  11  23  39  61  90 123 153 198 260 308 355
#     4  11  22  39  65  90 116 155 202 255 309 368
#     4  10  22  39  59  81 124 163 198 246 292 369
#
# _framework density 20.512668999999999
#
# number of rings (size 3 to 8) (size 9 to 14) (size 15 to 20)
#    0.000    1.333    0.000    8.500    0.000    4.000 
#    0.000    6.667    0.000    0.000    0.000    0.000 
#    0.000    0.000    0.000    0.000    0.000    0.000 
#
# Total GULP energy -133692.618968 kJ/mol
# GULP energy per Si atom -5570.525790 kJ/mol
# Density = 2.046598 g / cm^3
# Si number density = 20.512669 Si / 1000 Ang^3
#
#
#
# Elastic Constant Matrix: (Units=GPa)
#
#
# Indices 1 2 3 4 5 6 
#
# 1 63.1620 44.6711 30.9286 0.0000 5.1536 0.0000
# 2 44.6711 150.0996 32.4347 0.0001 -10.1658 0.0000
# 3 30.9286 32.4347 102.6374 0.0000 -1.8457 0.0000
# 4 0.0000 0.0001 0.0000 35.6089 0.0000 -2.1985
# 5 5.1536 -10.1658 -1.8457 0.0000 23.1740 0.0000
# 6 0.0000 0.0000 0.0000 -2.1985 0.0000 23.3085
#
#
#
# Elastic Compliance Matrix: (Units=1/GPa)
#
#
# Indices 1 2 3 4 5 6 
#
# 1 0.023688 -0.006496 -0.005239 0.000000 -0.008535 0.000000
# 2 -0.006496 0.009141 -0.000834 0.000000 0.005388 0.000000
# 3 -0.005239 -0.000834 0.011616 0.000000 0.001724 0.000000
# 4 0.000000 0.000000 0.000000 0.028247 0.000000 0.002664
# 5 -0.008535 0.005388 0.001724 0.000000 0.047551 0.000000
# 6 0.000000 0.000000 0.000000 0.002664 0.000000 0.043154
#
#
# Mechanical properties :
#
#
# Convention : Reuss Voigt Hill
#
# Bulk Modulus (GPa) = 51.79388 59.10755 55.45072
# Shear Modulus (GPa) = 25.64485 30.27590 27.96037
#
# Velocity S-wave (km/s) = 3.53965 3.84599 3.69599
# Velocity P-wave (km/s) = 6.48151 6.97136 6.73089
#
# Compressibility (1/GPa) = 0.01930730
#
# Stress axis : x y z
#
# Youngs Moduli (GPa) = 42.21527 109.40166 86.08552
#
# Poissons Ratio (x) = 0.71065 0.45099
# Poissons Ratio (y) = 0.27422 0.07182
# Poissons Ratio (z) = 0.22116 0.09127
#
# Static dielectric constant tensor:
#      x y z
#    x 1.741520 0.000000 -0.080430 
#    y 0.000000 1.775560 0.000000 
#    z -0.080430 0.000000 1.844080 
# 
# From -- ./inp_files/180698.got.cif
#   From: 2010.05.17/outbox.cif.g08.bks.cpg/sg15_91_cif.got.tgz:180698.got - 2010.06.03 18:47:42.
