data_PCOD9283255
_publ_section_title
;
Structure prediction by ZEFSAII (Michael W. Deem and Ramdas Pophale) SiO2 
 PCOD9283255
Probable space group: C 2/C
;
_chemical_formula_sum "Si O2"
_cell_formula_units_Z 48
_cell_length_a 5.761493
_cell_length_b 23.251038
_cell_length_c 20.983773
_cell_angle_alpha 90.000000
_cell_angle_beta 126.963879
_cell_angle_gamma 90.000000
_cell_volume 2246.031085
_symmetry_space_group_name_H-M "C 2/C"
_symmetry_group_IT_number 15
_symmetry_cell_setting 'monoclinic'
loop_
_space_group_symop_operation_xyz
x,y,z
-x,y,1/2-z
-x,-y,-z
x,-y,1/2+z
1/2+x,1/2+y,z
1/2-x,1/2+y,1/2-z
1/2-x,1/2-y,-z
1/2+x,1/2-y,1/2+z
loop_
_atom_site_type_symbol
_atom_site_label
_atom_site_fract_x
_atom_site_fract_y
_atom_site_fract_z
Si Si1 0.926197 0.867881 0.427814
Si Si2 0.744541 0.526390 0.916514
Si Si3 0.169330 0.284398 0.063566
Si Si4 0.320902 0.116393 0.829432
Si Si5 0.560029 0.331349 0.929856
Si Si6 0.145713 0.074553 0.202203
O O1 0.618981 0.874050 0.341545
O O2 0.911663 0.870478 0.501921
O O3 0.119442 0.919642 0.434731
O O4 0.063555 0.806043 0.434353
O O5 0.867409 0.556016 0.873161
O O6 0.501766 0.480339 0.856877
O O7 0.000000 0.500000 0.000000
O O8 0.177940 0.328512 0.123967
O O9 0.159030 0.220407 0.088901
O O10 0.874102 0.300770 0.977061
O O11 0.000000 0.113209 0.750000
O O12 0.465766 0.369173 0.854718
O O13 0.500000 0.071963 0.250000
O O14 0.000000 0.075818 0.250000
#
# Coordination Sequence:
#
# PCOD9283255 Si02
#       6
#     8   8   8   8   8   8
#     4  10  21  39  71 103 126 184 233 302 344 428
#     4  11  25  42  68  94 136 183 245 296 352 423
#     4   9  20  40  70 101 133 178 235 291 350 425
#     4  10  22  38  62  96 138 174 234 287 362 412
#     4  10  22  43  70  99 141 179 237 289 355 429
#     4  12  30  48  69 106 150 194 237 296 375 439
#
# _framework density 21.371030999999999
#
# number of rings (size 3 to 8) (size 9 to 14) (size 15 to 20)
#    0.000    1.667    0.000    4.000    9.333    4.000 
#    0.000    0.000    0.000    0.000    0.000    0.000 
#    0.000    0.000    0.000    0.000    0.000    0.000 
#
# Total GULP energy -133881.475123 kJ/mol
# GULP energy per Si atom -5578.394797 kJ/mol
# Density = 2.132239 g / cm^3
# Si number density = 21.371031 Si / 1000 Ang^3
#
#
#
# Elastic Constant Matrix: (Units=GPa)
#
#
# Indices 1 2 3 4 5 6 
#
# 1 109.1402 41.6241 50.7760 0.0000 19.9998 0.0000
# 2 41.6241 136.3904 56.6667 0.0000 5.2415 0.0000
# 3 50.7760 56.6667 111.1120 0.0000 19.2121 0.0000
# 4 0.0000 0.0000 0.0000 22.3729 0.0000 -7.3042
# 5 19.9998 5.2415 19.2121 0.0000 29.7309 0.0000
# 6 0.0000 0.0000 0.0000 -7.3042 0.0000 37.2054
#
#
#
# Elastic Compliance Matrix: (Units=1/GPa)
#
#
# Indices 1 2 3 4 5 6 
#
# 1 0.012780 -0.002116 -0.003759 0.000000 -0.005795 0.000000
# 2 -0.002116 0.009722 -0.004437 0.000000 0.002576 0.000000
# 3 -0.003759 -0.004437 0.013969 0.000000 -0.005716 0.000000
# 4 0.000000 0.000000 0.000000 0.047758 0.000000 0.009376
# 5 -0.005795 0.002576 -0.005716 0.000000 0.040772 0.000000
# 6 0.000000 0.000000 0.000000 0.009376 0.000000 0.028718
#
#
# Mechanical properties :
#
#
# Convention : Reuss Voigt Hill
#
# Bulk Modulus (GPa) = 63.10165 72.75293 67.92729
# Shear Modulus (GPa) = 27.83556 31.70023 29.76790
#
# Velocity S-wave (km/s) = 3.61292 3.85558 3.73622
# Velocity P-wave (km/s) = 6.85529 7.34420 7.10396
#
# Compressibility (1/GPa) = 0.01584745
#
# Stress axis : x y z
#
# Youngs Moduli (GPa) = 78.24518 102.86025 71.58770
#
# Poissons Ratio (x) = 0.21762 0.26912
# Poissons Ratio (y) = 0.16555 0.31762
# Poissons Ratio (z) = 0.29415 0.45637
#
# Static dielectric constant tensor:
#      x y z
#    x 1.954610 0.000000 -0.009530 
#    y 0.000000 1.749850 0.000000 
#    z -0.009530 0.000000 1.798210 
# 
# From -- ./inp_files/185717.got.cif
#   From: 2010.05.17/outbox.cif.g08.bks.cpg/sg15_93_cif.got.tgz:185717.got - 2010.06.03 18:47:42.
