data_PCOD9283586
_publ_section_title
;
Structure prediction by ZEFSAII (Michael W. Deem and Ramdas Pophale) SiO2 
 PCOD9283586
Probable space group: C 2/C
;
_chemical_formula_sum "Si O2"
_cell_formula_units_Z 56
_cell_length_a 8.927397
_cell_length_b 26.449514
_cell_length_c 12.797120
_cell_angle_alpha 90.000000
_cell_angle_beta 89.513549
_cell_angle_gamma 90.000000
_cell_volume 3021.615045
_symmetry_space_group_name_H-M "C 2/C"
_symmetry_group_IT_number 15
_symmetry_cell_setting 'monoclinic'
loop_
_space_group_symop_operation_xyz
x,y,z
-x,y,1/2-z
-x,-y,-z
x,-y,1/2+z
1/2+x,1/2+y,z
1/2-x,1/2+y,1/2-z
1/2-x,1/2-y,-z
1/2+x,1/2-y,1/2+z
loop_
_atom_site_type_symbol
_atom_site_label
_atom_site_fract_x
_atom_site_fract_y
_atom_site_fract_z
Si Si1 0.169976 0.301090 0.469145
Si Si2 0.667912 0.947461 0.204394
Si Si3 0.680191 0.798480 0.058581
Si Si4 0.102075 0.376817 0.653749
Si Si5 0.678476 0.342361 0.238145
Si Si6 0.329361 0.088431 0.028530
Si Si7 0.675258 0.550774 0.227983
O O1 0.250000 0.250000 0.500000
O O2 0.158858 0.335751 0.571995
O O3 0.263679 0.325981 0.375404
O O4 0.999009 0.292699 0.433130
O O5 0.500000 0.946116 0.250000
O O6 0.757604 0.898257 0.242119
O O7 0.750663 0.997446 0.242693
O O8 0.661719 0.941779 0.079239
O O9 0.751652 0.806688 0.172092
O O10 0.750000 0.750000 0.000000
O O11 0.703571 0.852299 0.997813
O O12 0.237004 0.407736 0.703447
O O13 0.000000 0.355801 0.750000
O O14 0.987647 0.412167 0.588983
O O15 0.500000 0.341374 0.250000
O O16 0.209509 0.065135 0.107959
O O17 0.500000 0.550372 0.250000
#
# Coordination Sequence:
#
# PCOD9283586 Si02
#       7
#     8   8   8   8   8   8   8
#     4  11  23  38  61  90 119 157 198 240 297 351
#     4  11  22  39  63  86 114 153 194 239 293 348
#     4  10  21  40  63  86 118 157 197 244 295 347
#     4   9  20  40  60  81 114 153 195 239 286 345
#     4  11  23  39  59  88 122 154 196 244 291 350
#     4   9  21  40  60  84 113 151 195 236 285 345
#     4  11  24  38  58  88 118 151 191 238 291 347
#
# _framework density 18.533135000000001
#
# number of rings (size 3 to 8) (size 9 to 14) (size 15 to 20)
#    0.000    1.714    0.000    5.571    0.000   11.429 
#    0.000    0.000    0.000    0.000    0.000    0.000 
#    0.000    0.000    0.000    0.000    0.000    0.000 
#
# Total GULP energy -156435.198012 kJ/mol
# GULP energy per Si atom -5586.971358 kJ/mol
# Density = 1.849095 g / cm^3
# Si number density = 18.533135 Si / 1000 Ang^3
#
#
#
# Elastic Constant Matrix: (Units=GPa)
#
#
# Indices 1 2 3 4 5 6 
#
# 1 156.5307 72.9840 96.5545 0.0000 -27.2361 0.0000
# 2 72.9840 81.2858 77.9541 0.0000 -18.5924 0.0000
# 3 96.5545 77.9541 185.5076 0.0000 -17.7033 0.0000
# 4 0.0000 0.0000 0.0000 14.5644 0.0000 -3.7443
# 5 -27.2361 -18.5924 -17.7033 0.0000 30.9579 0.0000
# 6 0.0000 0.0000 0.0000 -3.7443 0.0000 28.1964
#
#
#
# Elastic Compliance Matrix: (Units=1/GPa)
#
#
# Indices 1 2 3 4 5 6 
#
# 1 0.012431 -0.007171 -0.002987 0.000000 0.004922 0.000000
# 2 -0.007171 0.026721 -0.006946 0.000000 0.005767 0.000000
# 3 -0.002987 -0.006946 0.009747 0.000000 -0.001226 0.000000
# 4 0.000000 0.000000 0.000000 0.071087 0.000000 0.009440
# 5 0.004922 0.005767 -0.001226 0.000000 0.039394 0.000000
# 6 0.000000 0.000000 0.000000 0.009440 0.000000 0.036719
#
#
# Mechanical properties :
#
#
# Convention : Reuss Voigt Hill
#
# Bulk Modulus (GPa) = 68.06772 102.03437 85.05104
# Shear Modulus (GPa) = 21.25795 26.46585 23.86190
#
# Velocity S-wave (km/s) = 3.39045 3.78303 3.59210
# Velocity P-wave (km/s) = 7.22040 8.61721 7.94954
#
# Compressibility (1/GPa) = 0.01469125
#
# Stress axis : x y z
#
# Youngs Moduli (GPa) = 80.44400 37.42322 102.59270
#
# Poissons Ratio (x) = 0.26836 0.30645
# Poissons Ratio (y) = 0.57687 0.71262
# Poissons Ratio (z) = 0.24029 0.25994
#
# Static dielectric constant tensor:
#      x y z
#    x 1.612810 0.000000 0.016160 
#    y 0.000000 1.634060 0.000000 
#    z 0.016160 0.000000 1.619660 
# 
# From -- ./inp_files/81291.got.cif
#   From: 2010.05.17/outbox.cif.g08.bks.cpg/sg15_41_cif.got.tgz:81291.got - 2010.06.03 18:47:42.
