data_PCOD9283971
_publ_section_title
;
Structure prediction by ZEFSAII (Michael W. Deem and Ramdas Pophale) SiO2 
 PCOD9283971
Probable space group: C 2/C
;
_chemical_formula_sum "Si O2"
_cell_formula_units_Z 40
_cell_length_a 8.278497
_cell_length_b 18.095424
_cell_length_c 12.305386
_cell_angle_alpha 90.000000
_cell_angle_beta 72.253555
_cell_angle_gamma 90.000000
_cell_volume 1755.664780
_symmetry_space_group_name_H-M "C 2/C"
_symmetry_group_IT_number 15
_symmetry_cell_setting 'monoclinic'
loop_
_space_group_symop_operation_xyz
x,y,z
-x,y,1/2-z
-x,-y,-z
x,-y,1/2+z
1/2+x,1/2+y,z
1/2-x,1/2+y,1/2-z
1/2-x,1/2-y,-z
1/2+x,1/2-y,1/2+z
loop_
_atom_site_type_symbol
_atom_site_label
_atom_site_fract_x
_atom_site_fract_y
_atom_site_fract_z
Si Si1 0.832885 0.422432 0.858861
Si Si2 0.607301 0.881171 0.413866
Si Si3 0.203534 0.255704 0.692634
Si Si4 0.355748 0.442626 0.188648
Si Si5 0.735176 0.811962 0.094671
O O1 0.768613 0.340017 0.844361
O O2 0.690226 0.482884 0.863714
O O3 0.000000 0.433907 0.750000
O O4 0.885300 0.423099 0.974148
O O5 0.713783 0.804532 0.403757
O O6 0.694431 0.923099 0.296876
O O7 0.420391 0.860993 0.414350
O O8 0.287928 0.234576 0.790247
O O9 0.000000 0.245867 0.750000
O O10 0.500000 0.448966 0.250000
O O11 0.375961 0.373216 0.101788
O O12 0.750000 0.750000 0.000000
#
# Coordination Sequence:
#
# PCOD9283971 Si02
#       5
#     8   8   8   8   8
#     4  11  24  42  66  95 129 173 220 261 322 394
#     4  11  23  42  67  92 130 172 213 271 325 379
#     4  10  21  40  65  97 132 169 218 268 320 387
#     4  11  26  45  64  96 134 167 213 272 327 381
#     4  11  22  39  66  94 127 169 212 259 315 381
#
# _framework density 22.783391999999999
#
# number of rings (size 3 to 8) (size 9 to 14) (size 15 to 20)
#    0.000    1.200    0.000    9.000    0.000    8.800 
#    0.000    2.000    0.000    0.000    0.000    0.000 
#    0.000    0.000    0.000    0.000    0.000    0.000 
#
# Total GULP energy -111830.972160 kJ/mol
# GULP energy per Si atom -5591.548608 kJ/mol
# Density = 2.273154 g / cm^3
# Si number density = 22.783392 Si / 1000 Ang^3
#
#
#
# Elastic Constant Matrix: (Units=GPa)
#
#
# Indices 1 2 3 4 5 6 
#
# 1 79.6674 38.1745 33.7904 0.0000 41.5982 0.0000
# 2 38.1745 125.0666 46.9239 0.0000 30.9430 0.0000
# 3 33.7904 46.9239 134.7205 0.0000 36.2728 0.0000
# 4 0.0000 0.0000 0.0000 14.8151 0.0000 19.9351
# 5 41.5982 30.9430 36.2728 0.0000 39.1957 0.0000
# 6 0.0000 0.0000 0.0000 19.9351 0.0000 33.1552
#
#
#
# Elastic Compliance Matrix: (Units=1/GPa)
#
#
# Indices 1 2 3 4 5 6 
#
# 1 0.028647 -0.001821 0.001662 0.000000 -0.030504 0.000000
# 2 -0.001821 0.010390 -0.001963 0.000000 -0.004453 0.000000
# 3 0.001662 -0.001963 0.010318 0.000000 -0.009763 0.000000
# 4 0.000000 0.000000 0.000000 0.353504 0.000000 -0.212550
# 5 -0.030504 -0.004453 -0.009763 0.000000 0.070437 0.000000
# 6 0.000000 0.000000 0.000000 -0.212550 0.000000 0.157961
#
#
# Mechanical properties :
#
#
# Convention : Reuss Voigt Hill
#
# Bulk Modulus (GPa) = 22.16721 64.13689 43.15205
# Shear Modulus (GPa) = 7.68594 32.13757 19.91176
#
# Velocity S-wave (km/s) = 1.83870 3.75983 2.95949
# Velocity P-wave (km/s) = 3.77603 6.86005 5.53709
#
# Compressibility (1/GPa) = 0.04511168
#
# Stress axis : x y z
#
# Youngs Moduli (GPa) = 34.90731 96.24822 96.91512
#
# Poissons Ratio (x) = 0.17523 -0.16106
# Poissons Ratio (y) = 0.06355 0.19026
# Poissons Ratio (z) = -0.05801 0.18895
#
# Static dielectric constant tensor:
#      x y z
#    x 1.876590 0.000000 -0.016700 
#    y 0.000000 1.892980 0.000000 
#    z -0.016700 0.000000 1.860420 
# 
# From -- ./inp_files/76919.got.cif
#   From: 2010.05.17/outbox.cif.g08.bks.cpg/sg15_39_cif.got.tgz:76919.got - 2010.06.03 18:47:42.
