data_PCOD9283670
_publ_section_title
;
Structure prediction by ZEFSAII (Michael W. Deem and Ramdas Pophale) SiO2 
 PCOD9283670
Probable space group: C 2/C
;
_chemical_formula_sum "Si O2"
_cell_formula_units_Z 64
_cell_length_a 11.786695
_cell_length_b 15.447878
_cell_length_c 29.681044
_cell_angle_alpha 90.000000
_cell_angle_beta 33.631732
_cell_angle_gamma 90.000000
_cell_volume 2993.190602
_symmetry_space_group_name_H-M "C 2/C"
_symmetry_group_IT_number 15
_symmetry_cell_setting 'monoclinic'
loop_
_space_group_symop_operation_xyz
x,y,z
-x,y,1/2-z
-x,-y,-z
x,-y,1/2+z
1/2+x,1/2+y,z
1/2-x,1/2+y,1/2-z
1/2-x,1/2-y,-z
1/2+x,1/2-y,1/2+z
loop_
_atom_site_type_symbol
_atom_site_label
_atom_site_fract_x
_atom_site_fract_y
_atom_site_fract_z
Si Si1 0.714678 0.371559 0.046575
Si Si2 0.412880 0.960913 0.483281
Si Si3 0.755518 0.667206 0.932964
Si Si4 0.211348 0.344187 0.769470
Si Si5 0.578548 0.669532 0.082629
Si Si6 0.093651 0.462225 0.329191
Si Si7 0.102973 0.743344 0.393383
Si Si8 0.534685 0.666741 0.791210
O O1 0.736339 0.470962 0.026447
O O2 0.527616 0.321913 0.085086
O O3 0.667465 0.360222 0.114752
O O4 0.927841 0.326310 0.963535
O O5 0.292034 0.872230 0.528742
O O6 0.573916 0.959337 0.389939
O O7 0.500000 0.000000 0.500000
O O8 0.909588 0.728869 0.910365
O O9 0.703079 0.717603 0.904883
O O10 0.883623 0.581065 0.881044
O O11 0.575018 0.654206 0.029785
O O12 0.401862 0.362801 0.673779
O O13 0.110392 0.437936 0.809598
O O14 0.245061 0.301879 0.808322
O O15 0.086427 0.266238 0.786954
O O16 0.285191 0.400272 0.253564
O O17 0.500000 0.660245 0.750000
#
# Coordination Sequence:
#
# PCOD9283670 Si02
#       8
#     8   8   8   8   8   8   8   8
#     4  10  21  40  63  94 129 166 223 266 322 398
#     4  11  21  38  65  97 129 170 218 273 331 389
#     4  10  22  43  67  93 133 177 212 267 341 390
#     4  11  23  43  65 100 131 169 226 279 321 394
#     4  10  22  38  66  95 132 168 221 269 325 401
#     4  11  23  43  63  98 136 167 224 281 322 399
#     4  10  22  41  68  91 130 175 217 269 330 393
#     4  11  24  42  66  95 134 175 214 275 338 390
#
# _framework density 21.381865999999999
#
# number of rings (size 3 to 8) (size 9 to 14) (size 15 to 20)
#    0.000    1.500    2.500    2.250    1.750    0.500 
#    0.000    6.250    0.000    0.000    0.000    0.000 
#    0.000    0.000    0.000    0.000    0.000    0.000 
#
# Total GULP energy -178564.169884 kJ/mol
# GULP energy per Si atom -5580.130309 kJ/mol
# Density = 2.133320 g / cm^3
# Si number density = 21.381866 Si / 1000 Ang^3
#
#
#
# Elastic Constant Matrix: (Units=GPa)
#
#
# Indices 1 2 3 4 5 6 
#
# 1 53.3583 29.5793 16.1785 0.0001 20.4833 -0.0005
# 2 29.5793 124.4661 33.0816 -0.0014 2.4030 0.0004
# 3 16.1785 33.0816 125.9981 -0.0006 18.7715 0.0004
# 4 0.0001 -0.0014 -0.0006 39.7039 -0.0014 0.7557
# 5 20.4833 2.4030 18.7715 -0.0014 22.3321 0.0008
# 6 -0.0005 0.0004 0.0004 0.7557 0.0008 19.1000
#
#
#
# Elastic Compliance Matrix: (Units=1/GPa)
#
#
# Indices 1 2 3 4 5 6 
#
# 1 0.035803 -0.008580 0.002756 -0.000002 -0.034232 0.000003
# 2 -0.008580 0.010718 -0.003101 0.000001 0.009323 -0.000001
# 3 0.002756 -0.003101 0.009973 0.000000 -0.010576 0.000000
# 4 -0.000002 0.000001 0.000000 0.025205 0.000003 -0.000997
# 5 -0.034232 0.009323 -0.010576 0.000003 0.084064 -0.000004
# 6 0.000003 -0.000001 0.000000 -0.000997 -0.000004 0.052396
#
#
# Mechanical properties :
#
#
# Convention : Reuss Voigt Hill
#
# Bulk Modulus (GPa) = 25.87862 51.27792 38.57827
# Shear Modulus (GPa) = 20.08913 31.22606 25.65760
#
# Velocity S-wave (km/s) = 3.06852 3.82566 3.46782
# Velocity P-wave (km/s) = 4.96827 6.59911 5.84089
#
# Compressibility (1/GPa) = 0.03864193
#
# Stress axis : x y z
#
# Youngs Moduli (GPa) = 27.93044 93.30400 100.27285
#
# Poissons Ratio (x) = 0.80056 -0.27630
# Poissons Ratio (y) = 0.23965 0.31098
# Poissons Ratio (z) = -0.07696 0.28936
#
# Static dielectric constant tensor:
#      x y z
#    x 1.786280 0.000000 0.011280 
#    y 0.000000 1.787420 0.000000 
#    z 0.011280 0.000000 1.830730 
# 
# From -- ./inp_files/293039.got.cif
#   From: 2010.05.17/outbox.cif.g08.bks.cpg/sg15_147_cif.got.tgz:293039.got - 2010.06.03 18:47:42.
