data_PCOD9283015
_publ_section_title
;
Structure prediction by ZEFSAII (Michael W. Deem and Ramdas Pophale) SiO2 
 PCOD9283015
Probable space group: C 2/C
;
_chemical_formula_sum "Si O2"
_cell_formula_units_Z 32
_cell_length_a 27.586263
_cell_length_b 8.102272
_cell_length_c 16.439950
_cell_angle_alpha 90.000000
_cell_angle_beta 158.472676
_cell_angle_gamma 90.000000
_cell_volume 1348.345015
_symmetry_space_group_name_H-M "C 2/C"
_symmetry_group_IT_number 15
_symmetry_cell_setting 'monoclinic'
loop_
_space_group_symop_operation_xyz
x,y,z
-x,y,1/2-z
-x,-y,-z
x,-y,1/2+z
1/2+x,1/2+y,z
1/2-x,1/2+y,1/2-z
1/2-x,1/2-y,-z
1/2+x,1/2-y,1/2+z
loop_
_atom_site_type_symbol
_atom_site_label
_atom_site_fract_x
_atom_site_fract_y
_atom_site_fract_z
Si Si1 0.575414 0.843649 0.532568
Si Si2 0.663268 0.212394 0.942465
Si Si3 0.430362 0.649811 0.438297
Si Si4 0.847569 0.025167 0.949133
O O1 0.463463 0.883678 0.289551
O O2 0.502336 0.802938 0.504602
O O3 0.636127 0.673167 0.590859
O O4 0.696562 0.967461 0.725233
O O5 0.750000 0.250000 0.000000
O O6 0.773323 0.138411 0.173628
O O7 0.622155 0.386432 0.917843
O O8 0.500000 0.500000 0.500000
O O9 0.431795 0.621631 0.537712
#
# Coordination Sequence:
#
# PCOD9283015 Si02
#       4
#     8   8   8   8
#     4  10  22  39  69  93 136 177 228 270 337 394
#     4  10  21  39  66  94 125 176 223 270 331 403
#     4   9  20  37  61  96 128 168 219 276 325 390
#     4  11  20  38  67  97 131 181 220 275 335 393
#
# _framework density 23.732799
#
# number of rings (size 3 to 8) (size 9 to 14) (size 15 to 20)
#    0.000    2.000    2.500    0.750    0.000    4.000 
#    0.000    0.000   22.000   19.500    0.000    0.000 
#    0.000    0.000    0.000    0.000    0.000    0.000 
#
# Total GULP energy -89116.573006 kJ/mol
# GULP energy per Si atom -5569.785813 kJ/mol
# Density = 2.367878 g / cm^3
# Si number density = 23.732799 Si / 1000 Ang^3
#
#
#
# Elastic Constant Matrix: (Units=GPa)
#
#
# Indices 1 2 3 4 5 6 
#
# 1 186.6353 27.5315 23.6010 0.0000 20.1374 0.0000
# 2 27.5315 28.9569 26.1063 0.0000 10.2978 0.0000
# 3 23.6010 26.1063 108.0811 0.0000 24.6594 0.0000
# 4 0.0000 0.0000 0.0000 52.7774 0.0000 15.0211
# 5 20.1374 10.2978 24.6594 0.0000 41.0453 0.0000
# 6 0.0000 0.0000 0.0000 15.0211 0.0000 36.9655
#
#
#
# Elastic Compliance Matrix: (Units=1/GPa)
#
#
# Indices 1 2 3 4 5 6 
#
# 1 0.006361 -0.005758 0.000445 0.000000 -0.001944 0.000000
# 2 -0.005758 0.050422 -0.010059 0.000000 -0.003782 0.000000
# 3 0.000445 -0.010059 0.012815 0.000000 -0.005394 0.000000
# 4 0.000000 0.000000 0.000000 0.021425 0.000000 -0.008706
# 5 -0.001944 -0.003782 -0.005394 0.000000 0.029507 0.000000
# 6 0.000000 0.000000 0.000000 -0.008706 0.000000 0.030590
#
#
# Mechanical properties :
#
#
# Convention : Reuss Voigt Hill
#
# Bulk Modulus (GPa) = 25.73647 53.12789 39.43218
# Shear Modulus (GPa) = 25.66528 42.58660 34.12594
#
# Velocity S-wave (km/s) = 3.29207 4.24065 3.79611
# Velocity P-wave (km/s) = 5.03171 6.81263 5.98874
#
# Compressibility (1/GPa) = 0.03885537
#
# Stress axis : x y z
#
# Youngs Moduli (GPa) = 157.21213 19.83248 78.03078
#
# Poissons Ratio (x) = 0.11419 -0.03474
# Poissons Ratio (y) = 0.90522 0.78491
# Poissons Ratio (z) = -0.07000 0.19949
#
# Static dielectric constant tensor:
#      x y z
#    x 2.037640 0.000000 -0.149470 
#    y 0.000000 2.046840 0.000000 
#    z -0.149470 0.000000 2.242700 
# 
# From -- ./inp_files/149854.got.cif
#   From: 2010.05.17/outbox.cif.g08.bks.cpg/sg15_75_cif.got.tgz:149854.got - 2010.06.03 18:47:42.
