data_PCOD9283068
_publ_section_title
;
Structure prediction by ZEFSAII (Michael W. Deem and Ramdas Pophale) SiO2 
 PCOD9283068
Probable space group: C 2/C
;
_chemical_formula_sum "Si O2"
_cell_formula_units_Z 40
_cell_length_a 9.183260
_cell_length_b 10.877634
_cell_length_c 16.049245
_cell_angle_alpha 90.000000
_cell_angle_beta 107.940682
_cell_angle_gamma 90.000000
_cell_volume 1525.239658
_symmetry_space_group_name_H-M "C 2/C"
_symmetry_group_IT_number 15
_symmetry_cell_setting 'monoclinic'
loop_
_space_group_symop_operation_xyz
x,y,z
-x,y,1/2-z
-x,-y,-z
x,-y,1/2+z
1/2+x,1/2+y,z
1/2-x,1/2+y,1/2-z
1/2-x,1/2-y,-z
1/2+x,1/2-y,1/2+z
loop_
_atom_site_type_symbol
_atom_site_label
_atom_site_fract_x
_atom_site_fract_y
_atom_site_fract_z
Si Si1 0.754956 0.493998 0.234388
Si Si2 0.305667 0.560918 0.956687
Si Si3 0.000000 0.280624 0.250000
Si Si4 0.500000 0.800499 0.750000
Si Si5 0.518423 0.222159 0.933132
Si Si6 0.679426 0.382501 0.389447
O O1 0.862464 0.612501 0.254741
O O2 0.940542 0.780415 0.162487
O O3 0.858425 0.371173 0.242751
O O4 0.670314 0.491958 0.131272
O O5 0.399376 0.685281 0.990048
O O6 0.343003 0.457793 0.030707
O O7 0.127930 0.602383 0.940178
O O8 0.020237 0.215589 0.341379
O O9 0.320508 0.525266 0.689979
O O10 0.347677 0.181122 0.925681
#
# Coordination Sequence:
#
# PCOD9283068 Si02
#       6
#     8   8   4   4   8   8
#     4   9  21  42  62  88 130 168 207 264 320 374
#     4  10  21  39  67 100 127 165 221 262 316 395
#     4   7  14  33  58  88 122 161 204 249 310 384
#     4  11  26  43  64  94 132 173 220 263 314 386
#     4   9  19  37  66  97 129 165 208 266 323 375
#     4  11  24  42  67  94 128 174 213 262 324 376
#
# _framework density 26.225387999999999
#
# number of rings (size 3 to 8) (size 9 to 14) (size 15 to 20)
#    0.000    2.400    0.000    1.800    0.000   11.200 
#    0.000    2.000    0.000    0.000    0.000    0.000 
#    0.000    0.000    0.000    0.000    0.000    0.000 
#
# Total GULP energy -112162.664982 kJ/mol
# GULP energy per Si atom -5608.133249 kJ/mol
# Density = 2.616570 g / cm^3
# Si number density = 26.225388 Si / 1000 Ang^3
#
#
#
# Elastic Constant Matrix: (Units=GPa)
#
#
# Indices 1 2 3 4 5 6 
#
# 1 72.5964 46.3632 45.9321 0.0000 19.4905 0.0000
# 2 46.3632 119.5205 63.6430 0.0000 0.8108 0.0000
# 3 45.9321 63.6430 173.7129 0.0000 0.6275 0.0000
# 4 0.0000 0.0000 0.0000 41.9228 0.0000 8.1887
# 5 19.4905 0.8108 0.6275 0.0000 47.6600 0.0000
# 6 0.0000 0.0000 0.0000 8.1887 0.0000 45.1012
#
#
#
# Elastic Compliance Matrix: (Units=1/GPa)
#
#
# Indices 1 2 3 4 5 6 
#
# 1 0.022888 -0.006971 -0.003465 0.000000 -0.009196 0.000000
# 2 -0.006971 0.012519 -0.002753 0.000000 0.002674 0.000000
# 3 -0.003465 -0.002753 0.007676 0.000000 0.001363 0.000000
# 4 0.000000 0.000000 0.000000 0.024730 0.000000 -0.004490
# 5 -0.009196 0.002674 0.001363 0.000000 0.024679 0.000000
# 6 0.000000 0.000000 0.000000 -0.004490 0.000000 0.022988
#
#
# Mechanical properties :
#
#
# Convention : Reuss Voigt Hill
#
# Bulk Modulus (GPa) = 59.86023 75.30071 67.58047
# Shear Modulus (GPa) = 33.91539 40.92957 37.42248
#
# Velocity S-wave (km/s) = 3.60005 3.95484 3.78161
# Velocity P-wave (km/s) = 6.33682 7.04482 6.70018
#
# Compressibility (1/GPa) = 0.01670558
#
# Stress axis : x y z
#
# Youngs Moduli (GPa) = 43.69137 79.88076 130.27024
#
# Poissons Ratio (x) = 0.55686 0.45134
# Poissons Ratio (y) = 0.30458 0.35861
# Poissons Ratio (z) = 0.15137 0.21990
#
# Static dielectric constant tensor:
#      x y z
#    x 2.092450 0.000000 0.046870 
#    y 0.000000 2.018110 0.000000 
#    z 0.046870 0.000000 2.062480 
# 
# From -- ./inp_files/196373.got.cif
#   From: 2010.05.17/outbox.cif.g08.bks.cpg/sg15_99_cif.got.tgz:196373.got - 2010.06.03 18:47:42.
