data_PCOD9283402
_publ_section_title
;
Structure prediction by ZEFSAII (Michael W. Deem and Ramdas Pophale) SiO2 
 PCOD9283402
Probable space group: C 2/C
;
_chemical_formula_sum "Si O2"
_cell_formula_units_Z 48
_cell_length_a 17.947117
_cell_length_b 11.101098
_cell_length_c 14.107610
_cell_angle_alpha 90.000000
_cell_angle_beta 124.412990
_cell_angle_gamma 90.000000
_cell_volume 2318.784202
_symmetry_space_group_name_H-M "C 2/C"
_symmetry_group_IT_number 15
_symmetry_cell_setting 'monoclinic'
loop_
_space_group_symop_operation_xyz
x,y,z
-x,y,1/2-z
-x,-y,-z
x,-y,1/2+z
1/2+x,1/2+y,z
1/2-x,1/2+y,1/2-z
1/2-x,1/2-y,-z
1/2+x,1/2-y,1/2+z
loop_
_atom_site_type_symbol
_atom_site_label
_atom_site_fract_x
_atom_site_fract_y
_atom_site_fract_z
Si Si1 0.415252 0.201988 0.977615
Si Si2 0.114468 0.191751 0.647727
Si Si3 0.598932 0.192635 0.317605
Si Si4 0.832889 0.932031 0.810932
Si Si5 0.221748 0.759761 0.872539
Si Si6 0.136965 0.464818 0.226334
O O1 0.365910 0.317169 0.894719
O O2 0.404154 0.086317 0.901055
O O3 0.520722 0.239517 0.061302
O O4 0.374937 0.180064 0.054119
O O5 0.151178 0.224830 0.779671
O O6 0.189997 0.235529 0.628635
O O7 0.103909 0.048271 0.634288
O O8 0.500000 0.251802 0.250000
O O9 0.589197 0.065735 0.255326
O O10 0.820876 0.883766 0.695286
O O11 0.735175 0.978981 0.774440
O O12 0.151995 0.653495 0.799746
O O13 0.250000 0.750000 0.000000
#
# Coordination Sequence:
#
# PCOD9283402 Si02
#       6
#     8   8   8   8   8   8
#     4  10  23  40  63  90 123 166 203 254 314 361
#     4  10  21  40  61  88 124 156 207 257 298 372
#     4  10  22  38  62  92 120 161 205 252 312 364
#     4  10  21  41  59  88 124 159 205 254 300 369
#     4  10  22  38  59  88 121 163 203 250 311 360
#     4  10  22  38  58  90 122 158 204 255 302 362
#
# _framework density 20.700503000000001
#
# number of rings (size 3 to 8) (size 9 to 14) (size 15 to 20)
#    0.000    2.000    1.667    0.500    2.333    7.333 
#    0.000    4.167    0.000    0.000    0.000    0.000 
#    0.000    0.000    0.000    0.000    0.000    0.000 
#
# Total GULP energy -133839.727757 kJ/mol
# GULP energy per Si atom -5576.655323 kJ/mol
# Density = 2.065339 g / cm^3
# Si number density = 20.700503 Si / 1000 Ang^3
#
#
#
# Elastic Constant Matrix: (Units=GPa)
#
#
# Indices 1 2 3 4 5 6 
#
# 1 58.3140 20.9604 32.4848 0.0000 -11.7037 0.0000
# 2 20.9604 98.8155 40.0173 0.0000 -7.4384 0.0000
# 3 32.4848 40.0173 155.0983 0.0000 -31.6357 0.0000
# 4 0.0000 0.0000 0.0000 26.5019 0.0000 5.1895
# 5 -11.7037 -7.4384 -31.6357 0.0000 39.6142 0.0000
# 6 0.0000 0.0000 0.0000 5.1895 0.0000 18.0731
#
#
#
# Elastic Compliance Matrix: (Units=1/GPa)
#
#
# Indices 1 2 3 4 5 6 
#
# 1 0.020445 -0.002932 -0.002874 0.000000 0.003195 0.000000
# 2 -0.002932 0.011723 -0.002554 0.000000 -0.000705 0.000000
# 3 -0.002874 -0.002554 0.008885 0.000000 0.005767 0.000000
# 4 0.000000 0.000000 0.000000 0.039981 0.000000 -0.011480
# 5 0.003195 -0.000705 0.005767 0.000000 0.030660 0.000000
# 6 0.000000 0.000000 0.000000 -0.011480 0.000000 0.058627
#
#
# Mechanical properties :
#
#
# Convention : Reuss Voigt Hill
#
# Bulk Modulus (GPa) = 41.09909 55.46142 48.28026
# Shear Modulus (GPa) = 25.62098 31.42219 28.52159
#
# Velocity S-wave (km/s) = 3.52191 3.90031 3.71593
# Velocity P-wave (km/s) = 6.03620 6.86540 6.46411
#
# Compressibility (1/GPa) = 0.02433144
#
# Stress axis : x y z
#
# Youngs Moduli (GPa) = 48.91258 85.30061 112.55269
#
# Poissons Ratio (x) = 0.25013 0.32346
# Poissons Ratio (y) = 0.14343 0.28750
# Poissons Ratio (z) = 0.14057 0.21789
#
# Static dielectric constant tensor:
#      x y z
#    x 1.769870 0.000000 0.007110 
#    y 0.000000 1.774880 0.000000 
#    z 0.007110 0.000000 1.777630 
# 
# From -- ./inp_files/104287.got.cif
#   From: 2010.05.17/outbox.cif.g08.bks.cpg/sg15_53_cif.got.tgz:104287.got - 2010.06.03 18:47:42.
