data_PCOD9283771
_publ_section_title
;
Structure prediction by ZEFSAII (Michael W. Deem and Ramdas Pophale) SiO2 
 PCOD9283771
Probable space group: C 2/C
;
_chemical_formula_sum "Si O2"
_cell_formula_units_Z 48
_cell_length_a 9.602162
_cell_length_b 22.383240
_cell_length_c 11.377556
_cell_angle_alpha 90.000000
_cell_angle_beta 99.156406
_cell_angle_gamma 90.000000
_cell_volume 2414.190069
_symmetry_space_group_name_H-M "C 2/C"
_symmetry_group_IT_number 15
_symmetry_cell_setting 'monoclinic'
loop_
_space_group_symop_operation_xyz
x,y,z
-x,y,1/2-z
-x,-y,-z
x,-y,1/2+z
1/2+x,1/2+y,z
1/2-x,1/2+y,1/2-z
1/2-x,1/2-y,-z
1/2+x,1/2-y,1/2+z
loop_
_atom_site_type_symbol
_atom_site_label
_atom_site_fract_x
_atom_site_fract_y
_atom_site_fract_z
Si Si1 0.614374 0.472082 0.663978
Si Si2 0.384822 0.807967 0.478660
Si Si3 0.835608 0.369731 0.718658
Si Si4 0.094586 0.196104 0.863885
Si Si5 0.703231 0.184068 0.036690
Si Si6 0.580814 0.407203 0.052175
O O1 0.500000 0.480304 0.750000
O O2 0.740237 0.428429 0.716860
O O3 0.529386 0.437730 0.550863
O O4 0.656967 0.537933 0.627226
O O5 0.323965 0.840847 0.587352
O O6 0.261599 0.812428 0.365320
O O7 0.408509 0.739772 0.524182
O O8 0.542546 0.829332 0.473435
O O9 0.796909 0.325465 0.821485
O O10 0.000000 0.385129 0.750000
O O11 0.000000 0.226115 0.750000
O O12 0.014000 0.135202 0.879409
O O13 0.750000 0.250000 0.000000
O O14 0.809778 0.135727 0.998127
#
# Coordination Sequence:
#
# PCOD9283771 Si02
#       6
#     8   8   8   8   8   8
#     4  11  22  42  61  90 123 175 217 256 309 383
#     4  10  22  38  63  92 127 164 206 255 330 381
#     4  10  21  40  64  92 125 169 211 260 325 380
#     4  11  21  39  61  92 128 166 203 259 317 381
#     4  11  21  39  65 100 131 160 212 272 321 380
#     4  11  23  38  64  92 128 163 217 262 311 379
#
# _framework density 19.882446000000002
#
# number of rings (size 3 to 8) (size 9 to 14) (size 15 to 20)
#    0.000    1.333    5.000    2.000    0.000    0.000 
#    0.000    7.500    0.000    0.000    0.000    0.000 
#    0.000    0.000    0.000    0.000    0.000    0.000 
#
# Total GULP energy -133941.660667 kJ/mol
# GULP energy per Si atom -5580.902528 kJ/mol
# Density = 1.983719 g / cm^3
# Si number density = 19.882446 Si / 1000 Ang^3
#
#
#
# Elastic Constant Matrix: (Units=GPa)
#
#
# Indices 1 2 3 4 5 6 
#
# 1 124.2109 53.4742 42.0740 0.0000 6.4022 0.0000
# 2 53.4742 133.6802 32.8377 0.0000 -13.5859 0.0000
# 3 42.0740 32.8377 56.2422 0.0000 1.5944 0.0000
# 4 0.0000 0.0000 0.0000 456.6271 0.0000 -462.5962
# 5 6.4022 -13.5859 1.5944 0.0000 31.3294 0.0000
# 6 0.0000 0.0000 0.0000 -462.5962 0.0000 529.6293
#
#
#
# Elastic Compliance Matrix: (Units=1/GPa)
#
#
# Indices 1 2 3 4 5 6 
#
# 1 0.012083 -0.003512 -0.006885 0.000000 -0.003642 0.000000
# 2 -0.003512 0.010300 -0.003538 0.000000 0.005364 0.000000
# 3 -0.006885 -0.003538 0.025037 0.000000 -0.001402 0.000000
# 4 0.000000 0.000000 0.000000 0.019019 0.000000 0.016612
# 5 -0.003642 0.005364 -0.001402 0.000000 0.035061 0.000000
# 6 0.000000 0.000000 0.000000 0.016612 0.000000 0.016397
#
#
# Mechanical properties :
#
#
# Convention : Reuss Voigt Hill
#
# Bulk Modulus (GPa) = 51.15633 63.43389 57.29511
# Shear Modulus (GPa) = 32.83366 215.90032 124.36699
#
# Velocity S-wave (km/s) = 4.06814 10.43188 7.91751
# Velocity P-wave (km/s) = 6.91748 13.30686 10.60481
#
# Compressibility (1/GPa) = 0.01954792
#
# Stress axis : x y z
#
# Youngs Moduli (GPa) = 82.76275 97.08941 39.94160
#
# Poissons Ratio (x) = 0.34099 0.27500
# Poissons Ratio (y) = 0.29067 0.14133
# Poissons Ratio (z) = 0.56983 0.34354
#
# Static dielectric constant tensor:
#      x y z
#    x 1.720000 0.000000 0.037330 
#    y 0.000000 1.708200 0.000000 
#    z 0.037330 0.000000 1.899030 
# 
# From -- ./inp_files/79277.got.cif
#   From: 2010.05.17/outbox.cif.g08.bks.cpg/sg15_40_cif.got.tgz:79277.got - 2010.06.03 18:47:42.
