data_PCOD9283602
_publ_section_title
;
Structure prediction by ZEFSAII (Michael W. Deem and Ramdas Pophale) SiO2 
 PCOD9283602
Probable space group: C 2/C
;
_chemical_formula_sum "Si O2"
_cell_formula_units_Z 44
_cell_length_a 13.691248
_cell_length_b 13.864879
_cell_length_c 9.346858
_cell_angle_alpha 90.000000
_cell_angle_beta 102.344602
_cell_angle_gamma 90.000000
_cell_volume 1733.268072
_symmetry_space_group_name_H-M "C 2/C"
_symmetry_group_IT_number 15
_symmetry_cell_setting 'monoclinic'
loop_
_space_group_symop_operation_xyz
x,y,z
-x,y,1/2-z
-x,-y,-z
x,-y,1/2+z
1/2+x,1/2+y,z
1/2-x,1/2+y,1/2-z
1/2-x,1/2-y,-z
1/2+x,1/2-y,1/2+z
loop_
_atom_site_type_symbol
_atom_site_label
_atom_site_fract_x
_atom_site_fract_y
_atom_site_fract_z
Si Si1 0.500000 0.359945 0.250000
Si Si2 0.375026 0.897858 0.961735
Si Si3 0.359423 0.908432 0.282553
Si Si4 0.853927 0.010430 0.875906
Si Si5 0.854296 0.874941 0.638354
Si Si6 0.026751 0.753819 0.520700
O O1 0.559545 0.426723 0.161546
O O2 0.566870 0.304623 0.389379
O O3 0.403928 0.909152 0.137073
O O4 0.263594 0.850459 0.914074
O O5 0.454110 0.825170 0.923487
O O6 0.383490 0.001260 0.890883
O O7 0.244575 0.933934 0.208921
O O8 0.391344 0.807577 0.364855
O O9 0.857080 0.025357 0.046262
O O10 0.865979 0.905681 0.807972
O O11 0.941582 0.809396 0.595199
#
# Coordination Sequence:
#
# PCOD9283602 Si02
#       6
#     4   8   8   8   8   8
#     4  10  24  40  60  86 126 158 196 250 306 360
#     4  10  21  40  63  89 121 162 200 250 304 368
#     4  10  22  39  64  89 121 157 205 250 305 359
#     4   9  20  42  62  87 119 160 204 244 304 365
#     4   9  20  41  64  87 122 160 202 251 302 359
#     4  11  22  36  59  91 125 157 201 250 304 356
#
# _framework density 25.385570999999999
#
# number of rings (size 3 to 8) (size 9 to 14) (size 15 to 20)
#    0.000    2.182    0.000    1.636    2.545    3.636 
#    9.818    0.000    0.000    0.000    0.000    0.000 
#    0.000    0.000    0.000    0.000    0.000    0.000 
#
# Total GULP energy -122773.102963 kJ/mol
# GULP energy per Si atom -5580.595589 kJ/mol
# Density = 2.532779 g / cm^3
# Si number density = 25.385571 Si / 1000 Ang^3
#
#
#
# Elastic Constant Matrix: (Units=GPa)
#
#
# Indices 1 2 3 4 5 6 
#
# 1 68.6857 3.6266 -18.6842 0.0000 16.4248 0.0000
# 2 3.6266 82.8772 -2.5127 0.0000 8.9880 0.0000
# 3 -18.6842 -2.5127 94.9940 0.0000 11.0231 0.0000
# 4 0.0000 0.0000 0.0000 25.7648 0.0000 -7.6407
# 5 16.4248 8.9880 11.0231 0.0000 35.9444 0.0000
# 6 0.0000 0.0000 0.0000 -7.6407 0.0000 31.0434
#
#
#
# Elastic Compliance Matrix: (Units=1/GPa)
#
#
# Indices 1 2 3 4 5 6 
#
# 1 0.018183 0.000418 0.004732 0.000000 -0.009864 0.000000
# 2 0.000418 0.012459 0.000825 0.000000 -0.003559 0.000000
# 3 0.004732 0.000825 0.012188 0.000000 -0.006106 0.000000
# 4 0.000000 0.000000 0.000000 0.041869 0.000000 0.010305
# 5 -0.009864 -0.003559 -0.006106 0.000000 0.035091 0.000000
# 6 0.000000 0.000000 0.000000 0.010305 0.000000 0.034749
#
#
# Mechanical properties :
#
#
# Convention : Reuss Voigt Hill
#
# Bulk Modulus (GPa) = 18.25521 23.49070 20.87296
# Shear Modulus (GPa) = 31.08489 36.15900 33.62194
#
# Velocity S-wave (km/s) = 3.50310 3.77821 3.64325
# Velocity P-wave (km/s) = 4.85480 5.32041 5.09293
#
# Compressibility (1/GPa) = 0.05477887
#
# Stress axis : x y z
#
# Youngs Moduli (GPa) = 54.99591 80.26478 82.04707
#
# Poissons Ratio (x) = -0.03352 -0.38826
# Poissons Ratio (y) = -0.02297 -0.06766
# Poissons Ratio (z) = -0.26025 -0.06619
#
# Static dielectric constant tensor:
#      x y z
#    x 2.107930 0.000000 -0.010860 
#    y 0.000000 2.099180 0.000000 
#    z -0.010860 0.000000 2.117610 
# 
# From -- ./inp_files/95738.got.cif
#   From: 2010.05.17/outbox.cif.g08.bks.cpg/sg15_48_cif.got.tgz:95738.got - 2010.06.03 18:47:42.
