data_PCOD9283780
_publ_section_title
;
Structure prediction by ZEFSAII (Michael W. Deem and Ramdas Pophale) SiO2 
 PCOD9283780
Probable space group: C 2/C
;
_chemical_formula_sum "Si O2"
_cell_formula_units_Z 44
_cell_length_a 12.645080
_cell_length_b 5.125022
_cell_length_c 24.393320
_cell_angle_alpha 90.000000
_cell_angle_beta 86.537693
_cell_angle_gamma 90.000000
_cell_volume 1577.955696
_symmetry_space_group_name_H-M "C 2/C"
_symmetry_group_IT_number 15
_symmetry_cell_setting 'monoclinic'
loop_
_space_group_symop_operation_xyz
x,y,z
-x,y,1/2-z
-x,-y,-z
x,-y,1/2+z
1/2+x,1/2+y,z
1/2-x,1/2+y,1/2-z
1/2-x,1/2-y,-z
1/2+x,1/2-y,1/2+z
loop_
_atom_site_type_symbol
_atom_site_label
_atom_site_fract_x
_atom_site_fract_y
_atom_site_fract_z
Si Si1 0.298535 0.641468 0.726397
Si Si2 0.514678 0.840980 0.367967
Si Si3 0.500000 0.006776 0.250000
Si Si4 0.633031 0.718267 0.573057
Si Si5 0.631968 0.459287 0.952762
Si Si6 0.220622 0.646482 0.383552
O O1 0.287428 0.354086 0.750505
O O2 0.404034 0.791001 0.741696
O O3 0.280615 0.626566 0.661617
O O4 0.543536 0.610003 0.409860
O O5 0.483599 0.833659 0.305225
O O6 0.440159 0.059836 0.398824
O O7 0.634293 0.957412 0.360762
O O8 0.598088 0.631315 0.513672
O O9 0.663978 0.473246 0.611076
O O10 0.753280 0.825989 0.560964
O O11 0.667248 0.758140 0.942091
#
# Coordination Sequence:
#
# PCOD9283780 Si02
#       6
#     8   8   4   8   8   8
#     4  11  26  45  71 101 141 189 236 297 362 429
#     4  10  22  40  61  93 132 174 229 292 352 429
#     4  10  24  44  66 102 138 182 242 288 362 432
#     4  10  21  40  64  92 131 178 223 283 366 422
#     4  10  22  39  63  96 129 172 230 291 345 436
#     4  10  23  39  62  92 134 168 235 289 353 432
#
# _framework density 27.884180000000001
#
# number of rings (size 3 to 8) (size 9 to 14) (size 15 to 20)
#    0.000    1.818    0.000    2.182   10.182    2.909 
#    3.273    0.000    0.000    0.000    0.000    0.000 
#    0.000    0.000    0.000    0.000    0.000    0.000 
#
# Total GULP energy -123196.062953 kJ/mol
# GULP energy per Si atom -5599.821043 kJ/mol
# Density = 2.782071 g / cm^3
# Si number density = 27.884180 Si / 1000 Ang^3
#
#
#
# Elastic Constant Matrix: (Units=GPa)
#
#
# Indices 1 2 3 4 5 6 
#
# 1 164.4114 25.5487 57.6946 0.0000 27.3489 0.0000
# 2 25.5487 103.8642 41.2412 0.0000 -5.4402 0.0000
# 3 57.6946 41.2412 153.5651 0.0000 -3.9014 0.0000
# 4 0.0000 0.0000 0.0000 48.0562 0.0000 -4.3759
# 5 27.3489 -5.4402 -3.9014 0.0000 45.7733 0.0000
# 6 0.0000 0.0000 0.0000 -4.3759 0.0000 54.1523
#
#
#
# Elastic Compliance Matrix: (Units=1/GPa)
#
#
# Indices 1 2 3 4 5 6 
#
# 1 0.008145 -0.001131 -0.002890 0.000000 -0.005247 0.000000
# 2 -0.001131 0.010984 -0.002480 0.000000 0.001770 0.000000
# 3 -0.002890 -0.002480 0.008318 0.000000 0.002141 0.000000
# 4 0.000000 0.000000 0.000000 0.020963 0.000000 0.001694
# 5 -0.005247 0.001770 0.002141 0.000000 0.025375 0.000000
# 6 0.000000 0.000000 0.000000 0.001694 0.000000 0.018603
#
#
# Mechanical properties :
#
#
# Convention : Reuss Voigt Hill
#
# Bulk Modulus (GPa) = 69.22592 74.53440 71.88016
# Shear Modulus (GPa) = 45.37055 49.42010 47.39532
#
# Velocity S-wave (km/s) = 4.03812 4.21448 4.12724
# Velocity P-wave (km/s) = 6.82803 7.10426 6.96751
#
# Compressibility (1/GPa) = 0.01444546
#
# Stress axis : x y z
#
# Youngs Moduli (GPa) = 122.77611 91.04548 120.22254
#
# Poissons Ratio (x) = 0.10297 0.34740
# Poissons Ratio (y) = 0.13885 0.29813
# Poissons Ratio (z) = 0.35478 0.22578
#
# Static dielectric constant tensor:
#      x y z
#    x 2.210210 0.000000 -0.075140 
#    y 0.000000 2.362870 0.000000 
#    z -0.075140 0.000000 2.175630 
# 
# From -- ./inp_files/294266.got.cif
#   From: 2010.05.17/outbox.cif.g08.bks.cpg/sg15_148_cif.got.tgz:294266.got - 2010.06.03 18:47:42.
