data_PCOD9283022
_publ_section_title
;
Structure prediction by ZEFSAII (Michael W. Deem and Ramdas Pophale) SiO2 
 PCOD9283022
Probable space group: C 2/C
;
_chemical_formula_sum "Si O2"
_cell_formula_units_Z 56
_cell_length_a 18.183065
_cell_length_b 9.672574
_cell_length_c 15.353808
_cell_angle_alpha 90.000000
_cell_angle_beta 60.498821
_cell_angle_gamma 90.000000
_cell_volume 2350.265780
_symmetry_space_group_name_H-M "C 2/C"
_symmetry_group_IT_number 15
_symmetry_cell_setting 'monoclinic'
loop_
_space_group_symop_operation_xyz
x,y,z
-x,y,1/2-z
-x,-y,-z
x,-y,1/2+z
1/2+x,1/2+y,z
1/2-x,1/2+y,1/2-z
1/2-x,1/2-y,-z
1/2+x,1/2-y,1/2+z
loop_
_atom_site_type_symbol
_atom_site_label
_atom_site_fract_x
_atom_site_fract_y
_atom_site_fract_z
Si Si1 0.043205 0.187937 0.538789
Si Si2 0.140592 0.476474 0.849740
Si Si3 0.063124 0.510674 0.060181
Si Si4 0.887020 0.113386 0.510721
Si Si5 0.879292 0.146003 0.312919
Si Si6 0.741405 0.272235 0.278884
Si Si7 0.500000 0.394097 0.250000
Si Si8 0.500000 0.874202 0.250000
O O1 0.086051 0.335787 0.516087
O O2 0.004412 0.186931 0.658359
O O3 0.973657 0.170915 0.503835
O O4 0.100211 0.052409 0.501348
O O5 0.199906 0.612102 0.802443
O O6 0.177791 0.343746 0.774822
O O7 0.039972 0.502467 0.888596
O O8 0.125218 0.427882 0.959778
O O9 0.067090 0.464714 0.157446
O O10 0.871351 0.166863 0.421708
O O11 0.813612 0.141214 0.621109
O O12 0.798205 0.167854 0.302936
O O13 0.942570 0.260054 0.235095
O O14 0.920980 0.996565 0.281902
#
# Coordination Sequence:
#
# PCOD9283022 Si02
#       8
#     8   8   8   8   8   8   4   4
#     4  10  21  39  66  94 136 172 224 274 331 414
#     4  11  27  41  68  96 139 175 230 272 352 393
#     4  11  23  44  64  96 130 181 222 276 332 422
#     4  10  22  38  65  98 133 174 227 275 342 389
#     4  10  22  38  66  95 132 171 228 279 337 400
#     4  12  24  44  65 100 136 177 222 293 336 405
#     4   9  21  38  62 104 127 179 216 280 338 412
#     4  11  21  40  68  94 125 173 226 278 330 404
#
# _framework density 23.827093000000001
#
# number of rings (size 3 to 8) (size 9 to 14) (size 15 to 20)
#    0.000    1.429    2.857    1.714    6.000    1.143 
#    0.000    0.000    0.000    3.429    0.000    0.000 
#    0.000    0.000    0.000    0.000    0.000    0.000 
#
# Total GULP energy -156079.427325 kJ/mol
# GULP energy per Si atom -5574.265262 kJ/mol
# Density = 2.377286 g / cm^3
# Si number density = 23.827093 Si / 1000 Ang^3
#
#
#
# Elastic Constant Matrix: (Units=GPa)
#
#
# Indices 1 2 3 4 5 6 
#
# 1 43.3417 7.2524 9.4464 0.0000 -13.3716 0.0000
# 2 7.2524 118.8686 40.0565 0.0000 -10.4899 0.0000
# 3 9.4464 40.0565 125.4794 0.0000 -14.6491 0.0000
# 4 0.0000 0.0000 0.0000 44.2342 0.0000 -7.7309
# 5 -13.3716 -10.4899 -14.6491 0.0000 32.0460 0.0000
# 6 0.0000 0.0000 0.0000 -7.7309 0.0000 5.9744
#
#
#
# Elastic Compliance Matrix: (Units=1/GPa)
#
#
# Indices 1 2 3 4 5 6 
#
# 1 0.026571 -0.000477 -0.000604 0.000000 0.010655 0.000000
# 2 -0.000477 0.009535 -0.002817 0.000000 0.001634 0.000000
# 3 -0.000604 -0.002817 0.009272 0.000000 0.003064 0.000000
# 4 0.000000 0.000000 0.000000 0.029214 0.000000 0.037803
# 5 0.010655 0.001634 0.003064 0.000000 0.037587 0.000000
# 6 0.000000 0.000000 0.000000 0.037803 0.000000 0.216299
#
#
# Mechanical properties :
#
#
# Convention : Reuss Voigt Hill
#
# Bulk Modulus (GPa) = 26.60899 44.57780 35.59339
# Shear Modulus (GPa) = 14.33475 31.84655 23.09065
#
# Velocity S-wave (km/s) = 2.45545 3.65988 3.11640
# Velocity P-wave (km/s) = 4.38529 6.05054 5.28393
#
# Compressibility (1/GPa) = 0.03758128
#
# Stress axis : x y z
#
# Youngs Moduli (GPa) = 37.63477 104.87302 107.85184
#
# Poissons Ratio (x) = 0.05006 0.06515
# Poissons Ratio (y) = 0.01796 0.30384
# Poissons Ratio (z) = 0.02273 0.29545
#
# Static dielectric constant tensor:
#      x y z
#    x 2.120630 0.000000 0.057910 
#    y 0.000000 1.985480 0.000000 
#    z 0.057910 0.000000 2.044760 
# 
# From -- ./inp_files/213816.got.cif
#   From: 2010.05.17/outbox.cif.g08.bks.cpg/sg15_107_cif.got.tgz:213816.got - 2010.06.03 18:47:42.
