data_PCOD9283429
_publ_section_title
;
Structure prediction by ZEFSAII (Michael W. Deem and Ramdas Pophale) SiO2 
 PCOD9283429
Probable space group: C 2/C
;
_chemical_formula_sum "Si O2"
_cell_formula_units_Z 48
_cell_length_a 7.478787
_cell_length_b 27.718455
_cell_length_c 11.972123
_cell_angle_alpha 90.000000
_cell_angle_beta 56.207549
_cell_angle_gamma 90.000000
_cell_volume 2062.540862
_symmetry_space_group_name_H-M "C 2/C"
_symmetry_group_IT_number 15
_symmetry_cell_setting 'monoclinic'
loop_
_space_group_symop_operation_xyz
x,y,z
-x,y,1/2-z
-x,-y,-z
x,-y,1/2+z
1/2+x,1/2+y,z
1/2-x,1/2+y,1/2-z
1/2-x,1/2-y,-z
1/2+x,1/2-y,1/2+z
loop_
_atom_site_type_symbol
_atom_site_label
_atom_site_fract_x
_atom_site_fract_y
_atom_site_fract_z
Si Si1 0.616276 0.802648 0.961509
Si Si2 0.485893 0.909092 0.939271
Si Si3 0.211561 0.761653 0.231293
Si Si4 0.751908 0.342775 0.363353
Si Si5 0.771047 0.446963 0.438968
Si Si6 0.291664 0.450741 0.641799
O O1 0.516999 0.852508 0.949443
O O2 0.746492 0.772396 0.825757
O O3 0.415044 0.771805 0.081414
O O4 0.775751 0.820535 0.004370
O O5 0.541134 0.936436 0.036356
O O6 0.659794 0.927612 0.788270
O O7 0.264010 0.921694 0.953571
O O8 0.131806 0.812912 0.311557
O O9 0.000000 0.739130 0.250000
O O10 0.743569 0.399848 0.371931
O O11 0.000000 0.330879 0.250000
O O12 0.542815 0.450801 0.581321
O O13 0.781719 0.495142 0.363064
#
# Coordination Sequence:
#
# PCOD9283429 Si02
#       6
#     8   8   8   8   8   8
#     4  10  23  42  63  91 127 174 213 265 328 394
#     4  10  22  40  64  92 131 167 214 270 326 381
#     4  11  23  39  64  93 126 163 214 270 322 386
#     4   9  21  40  61  87 127 163 214 259 333 384
#     4  10  21  40  61  91 125 170 213 263 322 392
#     4  10  22  37  63  92 126 164 219 263 323 382
#
# _framework density 23.272268
#
# number of rings (size 3 to 8) (size 9 to 14) (size 15 to 20)
#    0.000    2.000    0.000    2.000    7.000    1.333 
#    3.000    5.000    0.000    0.000    0.000    0.000 
#    0.000    0.000    0.000    0.000    0.000    0.000 
#
# Total GULP energy -134053.503773 kJ/mol
# GULP energy per Si atom -5585.562657 kJ/mol
# Density = 2.321930 g / cm^3
# Si number density = 23.272268 Si / 1000 Ang^3
#
#
#
# Elastic Constant Matrix: (Units=GPa)
#
#
# Indices 1 2 3 4 5 6 
#
# 1 64.0182 14.8456 20.9126 0.0000 10.1949 0.0000
# 2 14.8456 127.1844 47.9150 0.0000 15.2851 0.0000
# 3 20.9126 47.9150 93.8601 0.0000 -2.9470 0.0000
# 4 0.0000 0.0000 0.0000 7.2667 0.0000 -18.4861
# 5 10.1949 15.2851 -2.9470 0.0000 30.3005 0.0000
# 6 0.0000 0.0000 0.0000 -18.4861 0.0000 -9.5610
#
#
#
# Elastic Compliance Matrix: (Units=1/GPa)
#
#
# Indices 1 2 3 4 5 6 
#
# 1 0.018043 0.000360 -0.004413 0.000000 -0.006681 0.000000
# 2 0.000360 0.010715 -0.005741 0.000000 -0.006084 0.000000
# 3 -0.004413 -0.005741 0.014751 0.000000 0.005816 0.000000
# 4 0.000000 0.000000 0.000000 0.023251 0.000000 -0.044955
# 5 -0.006681 -0.006084 0.005816 0.000000 0.038886 0.000000
# 6 0.000000 0.000000 0.000000 -0.044955 0.000000 -0.017671
#
#
# Mechanical properties :
#
#
# Convention : Reuss Voigt Hill
#
# Bulk Modulus (GPa) = 41.80795 50.26765 46.03780
# Shear Modulus (GPa) = 43.27665 19.02722 31.15194
#
# Velocity S-wave (km/s) = 4.31696 2.86246 3.66264
# Velocity P-wave (km/s) = 6.54614 5.70715 6.14099
#
# Compressibility (1/GPa) = 0.02391890
#
# Stress axis : x y z
#
# Youngs Moduli (GPa) = 55.42344 93.33008 67.79298
#
# Poissons Ratio (x) = -0.03356 0.29920
# Poissons Ratio (y) = -0.01993 0.38919
# Poissons Ratio (z) = 0.24461 0.53580
#
# Static dielectric constant tensor:
#      x y z
#    x 1.957280 0.000000 0.030800 
#    y 0.000000 1.867290 0.000000 
#    z 0.030800 0.000000 1.923300 
# 
# From -- ./inp_files/80546.got.cif
#   From: 2010.05.17/outbox.cif.g08.bks.cpg/sg15_41_cif.got.tgz:80546.got - 2010.06.03 18:47:42.
