data_PCOD9283984
_publ_section_title
;
Structure prediction by ZEFSAII (Michael W. Deem and Ramdas Pophale) SiO2 
 PCOD9283984
Probable space group: C 2/C
;
_chemical_formula_sum "Si O2"
_cell_formula_units_Z 60
_cell_length_a 23.132095
_cell_length_b 9.875958
_cell_length_c 26.316470
_cell_angle_alpha 90.000000
_cell_angle_beta 151.564586
_cell_angle_gamma 90.000000
_cell_volume 2862.739816
_symmetry_space_group_name_H-M "C 2/C"
_symmetry_group_IT_number 15
_symmetry_cell_setting 'monoclinic'
loop_
_space_group_symop_operation_xyz
x,y,z
-x,y,1/2-z
-x,-y,-z
x,-y,1/2+z
1/2+x,1/2+y,z
1/2-x,1/2+y,1/2-z
1/2-x,1/2-y,-z
1/2+x,1/2-y,1/2+z
loop_
_atom_site_type_symbol
_atom_site_label
_atom_site_fract_x
_atom_site_fract_y
_atom_site_fract_z
Si Si1 0.334323 0.729005 0.128407
Si Si2 0.509357 0.343470 0.023688
Si Si3 0.565772 0.603781 0.679183
Si Si4 0.918348 0.666190 0.513547
Si Si5 0.835775 0.380447 0.428947
Si Si6 0.123544 0.308441 0.923493
Si Si7 0.500000 0.015644 0.750000
Si Si8 0.480111 0.668325 0.145904
O O1 0.203634 0.700216 0.049604
O O2 0.363414 0.683735 0.092975
O O3 0.418716 0.648067 0.233022
O O4 0.389798 0.880379 0.177793
O O5 0.574210 0.339998 0.128531
O O6 0.572872 0.266275 0.026816
O O7 0.500000 0.500000 0.000000
O O8 0.389105 0.251990 0.941893
O O9 0.701239 0.590351 0.804963
O O10 0.482751 0.698877 0.650118
O O11 0.489446 0.464235 0.618863
O O12 0.917441 0.516377 0.489807
O O13 0.009014 0.707148 0.629860
O O14 0.838614 0.355990 0.491291
O O15 0.059678 0.423136 0.839736
O O16 0.250000 0.250000 0.000000
#
# Coordination Sequence:
#
# PCOD9283984 Si02
#       8
#     8   8   8   8   8   8   4   8
#     4  10  23  37  65 101 129 174 217 277 348 403
#     4  11  26  46  67  98 134 185 230 290 342 403
#     4  11  24  44  67  96 136 178 230 281 344 410
#     4  12  23  42  72  95 136 177 228 283 339 403
#     4  11  25  44  67 103 131 178 236 281 343 410
#     4  11  25  39  66  96 138 183 221 279 344 416
#     4  10  22  42  58 100 140 174 224 274 344 410
#     4  10  21  40  65  99 136 167 223 277 341 411
#
# _framework density 20.958943000000001
#
# number of rings (size 3 to 8) (size 9 to 14) (size 15 to 20)
#    0.000    1.333    2.667    3.200    3.733    4.267 
#    0.000    1.333    0.000    0.000    0.000    0.000 
#    0.000    0.000    0.000    0.000    0.000    0.000 
#
# Total GULP energy -167174.361893 kJ/mol
# GULP energy per Si atom -5572.478730 kJ/mol
# Density = 2.091124 g / cm^3
# Si number density = 20.958943 Si / 1000 Ang^3
#
#
#
# Elastic Constant Matrix: (Units=GPa)
#
#
# Indices 1 2 3 4 5 6 
#
# 1 107.5950 38.5893 17.9533 0.0000 -10.7402 0.0000
# 2 38.5893 117.9120 6.6006 0.0000 -0.6512 0.0000
# 3 17.9533 6.6006 39.5185 0.0000 -3.1782 0.0000
# 4 0.0000 0.0000 0.0000 23.9413 0.0000 -8.3314
# 5 -10.7402 -0.6512 -3.1782 0.0000 8.5586 0.0000
# 6 0.0000 0.0000 0.0000 -8.3314 0.0000 36.0548
#
#
#
# Elastic Compliance Matrix: (Units=1/GPa)
#
#
# Indices 1 2 3 4 5 6 
#
# 1 0.012777 -0.003878 -0.004011 0.000000 0.014249 0.000000
# 2 -0.003878 0.009738 -0.000203 0.000000 -0.004201 0.000000
# 3 -0.004011 -0.000203 0.027578 0.000000 0.005193 0.000000
# 4 0.000000 0.000000 0.000000 0.045421 0.000000 0.010496
# 5 0.014249 -0.004201 0.005193 0.000000 0.136332 0.000000
# 6 0.000000 0.000000 0.000000 0.010496 0.000000 0.030161
#
#
# Mechanical properties :
#
#
# Convention : Reuss Voigt Hill
#
# Bulk Modulus (GPa) = 29.48975 43.47910 36.48443
# Shear Modulus (GPa) = 17.27157 27.16977 22.22067
#
# Velocity S-wave (km/s) = 2.87377 3.60437 3.25960
# Velocity P-wave (km/s) = 5.01121 6.17348 5.62246
#
# Compressibility (1/GPa) = 0.03391008
#
# Stress axis : x y z
#
# Youngs Moduli (GPa) = 78.26789 102.68765 36.26061
#
# Poissons Ratio (x) = 0.39825 0.14543
# Poissons Ratio (y) = 0.30354 0.00734
# Poissons Ratio (z) = 0.31391 0.02080
#
# Static dielectric constant tensor:
#      x y z
#    x 1.779010 0.000000 0.036840 
#    y 0.000000 1.872820 0.000000 
#    z 0.036840 0.000000 1.866440 
# 
# From -- ./inp_files/302077.got.cif
#   From: 2010.05.17/outbox.cif.g08.bks.cpg/sg15_152_cif.got.tgz:302077.got - 2010.06.03 18:47:42.
