data_PCOD9283521
_publ_section_title
;
Structure prediction by ZEFSAII (Michael W. Deem and Ramdas Pophale) SiO2 
 PCOD9283521
Probable space group: C 2/C
;
_chemical_formula_sum "Si O2"
_cell_formula_units_Z 52
_cell_length_a 21.560530
_cell_length_b 7.266893
_cell_length_c 23.354114
_cell_angle_alpha 90.000000
_cell_angle_beta 134.930995
_cell_angle_gamma 90.000000
_cell_volume 2590.472674
_symmetry_space_group_name_H-M "C 2/C"
_symmetry_group_IT_number 15
_symmetry_cell_setting 'monoclinic'
loop_
_space_group_symop_operation_xyz
x,y,z
-x,y,1/2-z
-x,-y,-z
x,-y,1/2+z
1/2+x,1/2+y,z
1/2-x,1/2+y,1/2-z
1/2-x,1/2-y,-z
1/2+x,1/2-y,1/2+z
loop_
_atom_site_type_symbol
_atom_site_label
_atom_site_fract_x
_atom_site_fract_y
_atom_site_fract_z
Si Si1 0.322832 0.569278 0.495832
Si Si2 0.717054 0.429605 0.306965
Si Si3 0.336377 0.049663 0.192846
Si Si4 0.500000 0.841728 0.250000
Si Si5 0.353116 0.774020 0.308336
Si Si6 0.457299 0.281282 0.597368
Si Si7 0.201788 0.499705 0.521383
O O1 0.254654 0.530529 0.400467
O O2 0.415870 0.473448 0.551420
O O3 0.276164 0.483694 0.521541
O O4 0.329258 0.788601 0.504690
O O5 0.653148 0.265216 0.285429
O O6 0.675673 0.579795 0.238069
O O7 0.796619 0.326466 0.326521
O O8 0.754018 0.525756 0.387984
O O9 0.415265 0.968961 0.206297
O O10 0.334476 0.930864 0.249026
O O11 0.514397 0.725085 0.317247
O O12 0.457400 0.768472 0.383686
O O13 0.379621 0.133997 0.539552
#
# Coordination Sequence:
#
# PCOD9283521 Si02
#       7
#     8   8   8   4   8   8   8
#     4  10  21  40  62  91 124 161 200 243 318 368
#     4  11  23  43  65  85 121 170 208 247 309 364
#     4  10  21  42  64  88 128 158 201 256 303 366
#     4  10  22  36  62  98 124 158 200 256 306 356
#     4  11  24  41  62  91 119 167 209 252 305 356
#     4  11  23  38  61  94 127 157 203 253 303 364
#     4  10  22  39  63  91 123 163 199 248 307 369
#
# _framework density 20.073557999999998
#
# number of rings (size 3 to 8) (size 9 to 14) (size 15 to 20)
#    0.000    1.538    3.077    1.385    4.308    3.077 
#    0.000    3.846    0.000    0.000    0.000    0.000 
#    0.000    0.000    0.000    0.000    0.000    0.000 
#
# Total GULP energy -145322.224924 kJ/mol
# GULP energy per Si atom -5589.316343 kJ/mol
# Density = 2.002787 g / cm^3
# Si number density = 20.073558 Si / 1000 Ang^3
#
#
#
# Elastic Constant Matrix: (Units=GPa)
#
#
# Indices 1 2 3 4 5 6 
#
# 1 41.8745 -12.0407 2.0790 0.0000 1.0044 -0.0001
# 2 -12.0407 50.6056 16.8868 -0.0001 12.7500 0.0000
# 3 2.0790 16.8868 43.7057 0.0000 0.6028 0.0000
# 4 0.0000 -0.0001 0.0000 11.9349 0.0000 -9.4522
# 5 1.0044 12.7500 0.6028 0.0000 20.3096 0.0000
# 6 -0.0001 0.0000 0.0000 -9.4522 0.0000 7.8653
#
#
#
# Elastic Compliance Matrix: (Units=1/GPa)
#
#
# Indices 1 2 3 4 5 6 
#
# 1 0.027206 0.010059 -0.005077 0.000007 -0.007510 0.000008
# 2 0.010059 0.031220 -0.012269 0.000000 -0.019733 0.000000
# 3 -0.005077 -0.012269 0.027764 0.000002 0.007129 0.000002
# 4 0.000007 0.000000 0.000002 1.737295 0.000007 2.087812
# 5 -0.007510 -0.019733 0.007129 0.000007 0.061785 0.000008
# 6 0.000008 0.000000 0.000002 2.087812 0.000008 2.636190
#
#
# Mechanical properties :
#
#
# Convention : Reuss Voigt Hill
#
# Bulk Modulus (GPa) = 13.96338 16.67067 15.31703
# Shear Modulus (GPa) = 1.09651 16.63935 8.86793
#
# Velocity S-wave (km/s) = 0.73989 2.88222 2.10412
# Velocity P-wave (km/s) = 2.77509 4.40444 3.68105
#
# Compressibility (1/GPa) = 0.07161588
#
# Stress axis : x y z
#
# Youngs Moduli (GPa) = 36.75710 32.03100 36.01802
#
# Poissons Ratio (x) = -0.32222 0.18287
# Poissons Ratio (y) = -0.36976 0.44190
# Poissons Ratio (z) = 0.18663 0.39298
#
# Static dielectric constant tensor:
#      x y z
#    x 1.702020 0.000000 -0.004200 
#    y 0.000000 1.715040 0.000000 
#    z -0.004200 0.000000 1.690370 
# 
# From -- ./inp_files/279616.got.cif
#   From: 2010.05.17/outbox.cif.g08.bks.cpg/sg15_140_cif.got.tgz:279616.got - 2010.06.03 18:47:42.
