data_PCOD9283678
_publ_section_title
;
Structure prediction by ZEFSAII (Michael W. Deem and Ramdas Pophale) SiO2 
 PCOD9283678
Probable space group: C 2/C
;
_chemical_formula_sum "Si O2"
_cell_formula_units_Z 52
_cell_length_a 26.376560
_cell_length_b 7.941043
_cell_length_c 11.148218
_cell_angle_alpha 90.000000
_cell_angle_beta 87.838197
_cell_angle_gamma 90.000000
_cell_volume 2333.414819
_symmetry_space_group_name_H-M "C 2/C"
_symmetry_group_IT_number 15
_symmetry_cell_setting 'monoclinic'
loop_
_space_group_symop_operation_xyz
x,y,z
-x,y,1/2-z
-x,-y,-z
x,-y,1/2+z
1/2+x,1/2+y,z
1/2-x,1/2+y,1/2-z
1/2-x,1/2-y,-z
1/2+x,1/2-y,1/2+z
loop_
_atom_site_type_symbol
_atom_site_label
_atom_site_fract_x
_atom_site_fract_y
_atom_site_fract_z
Si Si1 0.477973 0.073565 0.878052
Si Si2 0.163060 0.166668 0.433034
Si Si3 0.203983 0.026015 0.125517
Si Si4 0.000000 0.901958 0.750000
Si Si5 0.373837 0.902002 0.858853
Si Si6 0.284623 0.868586 0.287189
Si Si7 0.392813 0.570186 0.731862
O O1 0.500000 0.997770 0.750000
O O2 0.492041 0.270460 0.861087
O O3 0.418125 0.037034 0.873898
O O4 0.500000 0.000000 0.000000
O O5 0.131604 0.290031 0.521534
O O6 0.184520 0.278560 0.323637
O O7 0.208334 0.082073 0.505318
O O8 0.129128 0.014203 0.385907
O O9 0.222359 0.216323 0.119912
O O10 0.234011 0.938550 0.231713
O O11 0.144514 0.012665 0.164675
O O12 0.049861 0.012524 0.758194
O O13 0.386695 0.769487 0.751672
O O14 0.320314 0.987850 0.836534
#
# Coordination Sequence:
#
# PCOD9283678 Si02
#       7
#     8   8   8   4   8   8   8
#     4  10  23  42  68  98 137 179 233 283 349 412
#     4  10  22  42  66  95 134 176 222 276 339 415
#     4  10  21  40  63  95 128 176 212 276 332 403
#     4  10  22  42  66  92 132 184 218 288 346 404
#     4  11  24  42  66 101 130 179 227 281 345 410
#     4  11  23  42  68  94 139 168 225 276 338 413
#     4  10  22  42  61  91 131 169 227 274 336 404
#
# _framework density 22.284935000000001
#
# number of rings (size 3 to 8) (size 9 to 14) (size 15 to 20)
#    0.462    1.231    0.000    5.077    3.231    2.462 
#    5.538    8.462    0.000    0.000    0.000    0.000 
#    0.000    0.000    0.000    0.000    0.000    0.000 
#
# Total GULP energy -145249.522665 kJ/mol
# GULP energy per Si atom -5586.520103 kJ/mol
# Density = 2.223421 g / cm^3
# Si number density = 22.284935 Si / 1000 Ang^3
#
#
#
# Elastic Constant Matrix: (Units=GPa)
#
#
# Indices 1 2 3 4 5 6 
#
# 1 103.0544 16.7802 13.4337 0.0000 10.9833 0.0000
# 2 16.7802 66.4088 -16.8789 0.0000 1.3203 0.0000
# 3 13.4337 -16.8789 59.1355 0.0000 2.5954 0.0000
# 4 0.0000 0.0000 0.0000 21.7405 0.0000 4.4037
# 5 10.9833 1.3203 2.5954 0.0000 21.8896 0.0000
# 6 0.0000 0.0000 0.0000 4.4037 0.0000 38.2791
#
#
#
# Elastic Compliance Matrix: (Units=1/GPa)
#
#
# Indices 1 2 3 4 5 6 
#
# 1 0.011266 -0.003602 -0.003366 0.000000 -0.005036 0.000000
# 2 -0.003602 0.017439 0.005793 0.000000 0.000069 0.000000
# 3 -0.003366 0.005793 0.019371 0.000000 -0.000957 0.000000
# 4 0.000000 0.000000 0.000000 0.047094 0.000000 -0.005418
# 5 -0.005036 0.000069 -0.000957 0.000000 0.048320 0.000000
# 6 0.000000 0.000000 0.000000 -0.005418 0.000000 0.026747
#
#
# Mechanical properties :
#
#
# Convention : Reuss Voigt Hill
#
# Bulk Modulus (GPa) = 21.86994 28.36316 25.11655
# Shear Modulus (GPa) = 26.61981 30.73275 28.67628
#
# Velocity S-wave (km/s) = 3.45993 3.71763 3.59109
# Velocity P-wave (km/s) = 5.07904 5.58416 5.33757
#
# Compressibility (1/GPa) = 0.04572486
#
# Stress axis : x y z
#
# Youngs Moduli (GPa) = 88.76498 57.34124 51.62483
#
# Poissons Ratio (x) = 0.20655 0.17378
# Poissons Ratio (y) = 0.31974 -0.29906
# Poissons Ratio (z) = 0.29881 -0.33218
#
# Static dielectric constant tensor:
#      x y z
#    x 1.795730 0.000000 -0.036700 
#    y 0.000000 1.833380 0.000000 
#    z -0.036700 0.000000 1.889640 
# 
# From -- ./inp_files/121562.got.cif
#   From: 2010.05.17/outbox.cif.g08.bks.cpg/sg15_61_cif.got.tgz:121562.got - 2010.06.03 18:47:42.
