data_PCOD9283325
_publ_section_title
;
Structure prediction by ZEFSAII (Michael W. Deem and Ramdas Pophale) SiO2 
 PCOD9283325
Probable space group: C 2/C
;
_chemical_formula_sum "Si O2"
_cell_formula_units_Z 44
_cell_length_a 7.311410
_cell_length_b 9.676456
_cell_length_c 26.480781
_cell_angle_alpha 90.000000
_cell_angle_beta 102.975580
_cell_angle_gamma 90.000000
_cell_volume 1825.638893
_symmetry_space_group_name_H-M "C 2/C"
_symmetry_group_IT_number 15
_symmetry_cell_setting 'monoclinic'
loop_
_space_group_symop_operation_xyz
x,y,z
-x,y,1/2-z
-x,-y,-z
x,-y,1/2+z
1/2+x,1/2+y,z
1/2-x,1/2+y,1/2-z
1/2-x,1/2-y,-z
1/2+x,1/2-y,1/2+z
loop_
_atom_site_type_symbol
_atom_site_label
_atom_site_fract_x
_atom_site_fract_y
_atom_site_fract_z
Si Si1 0.090689 0.223928 0.202181
Si Si2 0.033270 0.003272 0.125126
Si Si3 0.024221 0.852053 0.527663
Si Si4 0.035899 0.713276 0.430278
Si Si5 0.500000 0.148685 0.250000
Si Si6 0.014718 0.508723 0.852430
O O1 0.014641 0.074632 0.178551
O O2 0.313375 0.227926 0.223358
O O3 0.000000 0.260394 0.250000
O O4 0.045338 0.334321 0.156066
O O5 0.953045 0.112033 0.079055
O O6 0.259546 0.996799 0.133053
O O7 0.971773 0.848713 0.106515
O O8 0.950400 0.746111 0.480392
O O9 0.244065 0.816830 0.547477
O O10 0.000000 0.000000 0.500000
O O11 0.950338 0.582391 0.395716
O O12 0.551138 0.060169 0.203853
#
# Coordination Sequence:
#
# PCOD9283325 Si02
#       6
#     8   8   8   8   4   8
#     4  11  24  45  65  92 132 174 213 269 325 381
#     4   9  20  39  60  91 128 162 215 266 317 388
#     4   8  15  33  61  90 124 171 204 260 331 376
#     4   9  17  33  63  91 124 168 209 263 327 377
#     4  10  24  44  62  90 130 170 222 266 316 388
#     4  10  21  40  59  89 129 161 213 272 311 383
#
# _framework density 24.101151999999999
#
# number of rings (size 3 to 8) (size 9 to 14) (size 15 to 20)
#    0.000    2.545    0.909    0.000    2.545    0.000 
#   13.091    0.909    0.000   37.091    0.000    0.000 
#    0.000    0.000    0.000    0.000    0.000    0.000 
#
# Total GULP energy -122826.886557 kJ/mol
# GULP energy per Si atom -5583.040298 kJ/mol
# Density = 2.404630 g / cm^3
# Si number density = 24.101152 Si / 1000 Ang^3
#
#
#
# Elastic Constant Matrix: (Units=GPa)
#
#
# Indices 1 2 3 4 5 6 
#
# 1 59.8401 31.1754 28.1285 0.0000 1.3270 0.0000
# 2 31.1754 114.2631 67.0673 0.0000 12.8776 0.0000
# 3 28.1285 67.0673 125.1834 0.0000 16.1104 0.0000
# 4 0.0000 0.0000 0.0000 59.7746 0.0000 14.3715
# 5 1.3270 12.8776 16.1104 0.0000 22.4943 0.0000
# 6 0.0000 0.0000 0.0000 14.3715 0.0000 27.6336
#
#
#
# Elastic Compliance Matrix: (Units=1/GPa)
#
#
# Indices 1 2 3 4 5 6 
#
# 1 0.020116 -0.004307 -0.002619 0.000000 0.003154 0.000000
# 2 -0.004307 0.013834 -0.006011 0.000000 -0.003360 0.000000
# 3 -0.002619 -0.006011 0.012485 0.000000 -0.005346 0.000000
# 4 0.000000 0.000000 0.000000 0.019120 0.000000 -0.009944
# 5 0.003154 -0.003360 -0.005346 0.000000 0.050022 0.000000
# 6 0.000000 0.000000 0.000000 -0.009944 0.000000 0.041359
#
#
# Mechanical properties :
#
#
# Convention : Reuss Voigt Hill
#
# Bulk Modulus (GPa) = 48.63452 61.33654 54.98553
# Shear Modulus (GPa) = 26.36236 33.50819 29.93528
#
# Velocity S-wave (km/s) = 3.31089 3.73274 3.52812
# Velocity P-wave (km/s) = 5.90246 6.63948 6.28179
#
# Compressibility (1/GPa) = 0.02056153
#
# Stress axis : x y z
#
# Youngs Moduli (GPa) = 49.71180 72.28611 80.09455
#
# Poissons Ratio (x) = 0.31133 0.20973
# Poissons Ratio (y) = 0.21411 0.48148
# Poissons Ratio (z) = 0.13017 0.43454
#
# Static dielectric constant tensor:
#      x y z
#    x 1.923910 0.000000 -0.054720 
#    y 0.000000 1.919950 0.000000 
#    z -0.054720 0.000000 2.004120 
# 
# From -- ./inp_files/306462.got.cif
#   From: 2010.05.17/outbox.cif.g08.bks.cpg/sg15_154_cif.got.tgz:306462.got - 2010.06.03 18:47:42.
