data_PCOD9283311
_publ_section_title
;
Structure prediction by ZEFSAII (Michael W. Deem and Ramdas Pophale) SiO2 
 PCOD9283311
Probable space group: C 2/C
;
_chemical_formula_sum "Si O2"
_cell_formula_units_Z 36
_cell_length_a 13.493162
_cell_length_b 4.964727
_cell_length_c 25.851080
_cell_angle_alpha 90.000000
_cell_angle_beta 82.080067
_cell_angle_gamma 90.000000
_cell_volume 1715.242131
_symmetry_space_group_name_H-M "C 2/C"
_symmetry_group_IT_number 15
_symmetry_cell_setting 'monoclinic'
loop_
_space_group_symop_operation_xyz
x,y,z
-x,y,1/2-z
-x,-y,-z
x,-y,1/2+z
1/2+x,1/2+y,z
1/2-x,1/2+y,1/2-z
1/2-x,1/2-y,-z
1/2+x,1/2-y,1/2+z
loop_
_atom_site_type_symbol
_atom_site_label
_atom_site_fract_x
_atom_site_fract_y
_atom_site_fract_z
Si Si1 0.441372 0.566221 0.149973
Si Si2 0.825231 0.498441 0.497652
Si Si3 0.522017 0.066489 0.418128
Si Si4 0.301085 0.282663 0.229289
Si Si5 0.000000 0.833937 0.250000
O O1 0.448684 0.870370 0.131212
O O2 0.333709 0.442368 0.175261
O O3 0.503693 0.511159 0.197750
O O4 0.476960 0.373725 0.101169
O O5 0.750000 0.250000 0.500000
O O6 0.893663 0.484298 0.544407
O O7 0.911315 0.501597 0.447380
O O8 0.750000 0.750000 0.500000
O O9 0.268779 0.527141 0.268993
O O10 0.401291 0.162959 0.248036
#
# Coordination Sequence:
#
# PCOD9283311 Si02
#       5
#     8   8   8   8   4
#     4  10  22  42  62  91 126 168 196 252 303 351
#     4  11  24  45  66  92 119 160 200 259 318 364
#     4  11  23  44  63  91 129 150 208 261 296 368
#     4  10  21  40  59  85 126 166 200 251 290 346
#     4   8  24  40  60  88 136 154 212 238 306 348
#
# _framework density 20.988289000000002
#
# number of rings (size 3 to 8) (size 9 to 14) (size 15 to 20)
#    1.333    0.444    0.000    4.000    0.000    7.111 
#   24.000    0.000    0.000    0.000    0.000    0.000 
#    0.000    0.000    0.000    0.000    0.000    0.000 
#
# Total GULP energy -100263.782449 kJ/mol
# GULP energy per Si atom -5570.210136 kJ/mol
# Density = 2.094052 g / cm^3
# Si number density = 20.988289 Si / 1000 Ang^3
#
#
#
# Elastic Constant Matrix: (Units=GPa)
#
#
# Indices 1 2 3 4 5 6 
#
# 1 115.4777 35.3746 28.3446 0.0000 -14.4385 0.0000
# 2 35.3746 99.1490 -0.7432 0.0000 -9.1384 0.0000
# 3 28.3446 -0.7432 59.6278 0.0000 -1.9154 0.0000
# 4 0.0000 0.0000 0.0000 -4.6020 0.0000 -115.0093
# 5 -14.4385 -9.1384 -1.9154 0.0000 27.5853 0.0000
# 6 0.0000 0.0000 0.0000 -115.0093 0.0000 -301.9437
#
#
#
# Elastic Compliance Matrix: (Units=1/GPa)
#
#
# Indices 1 2 3 4 5 6 
#
# 1 0.011736 -0.003814 -0.005482 0.000000 0.004499 0.000000
# 2 -0.003814 0.011646 0.002022 0.000000 0.002002 0.000000
# 3 -0.005482 0.002022 0.019374 0.000000 -0.000854 0.000000
# 4 0.000000 0.000000 0.000000 0.025507 0.000000 -0.009716
# 5 0.004499 0.002002 -0.000854 0.000000 0.039210 0.000000
# 6 0.000000 0.000000 0.000000 -0.009716 0.000000 0.000389
#
#
# Mechanical properties :
#
#
# Convention : Reuss Voigt Hill
#
# Bulk Modulus (GPa) = 35.44819 44.46740 39.95779
# Shear Modulus (GPa) = 37.93285 -41.70685 -1.88700
#
# Velocity S-wave (km/s) = 4.25589 -4.46258 -0.94922
# Velocity P-wave (km/s) = 6.40908 2.30653 4.22825
#
# Compressibility (1/GPa) = 0.02821019
#
# Stress axis : x y z
#
# Youngs Moduli (GPa) = 85.20832 85.86507 51.61483
#
# Poissons Ratio (x) = 0.32746 0.28294
# Poissons Ratio (y) = 0.32495 -0.10438
# Poissons Ratio (z) = 0.46709 -0.17365
#
# Static dielectric constant tensor:
#      x y z
#    x 1.769210 0.000000 -0.052050 
#    y 0.000000 1.896880 0.000000 
#    z -0.052050 0.000000 1.707970 
# 
# From -- ./inp_files/267041.got.cif
#   From: 2010.05.17/outbox.cif.g08.bks.cpg/sg15_134_cif.got.tgz:267041.got - 2010.06.03 18:47:42.
