data_PCOD9283091
_publ_section_title
;
Structure prediction by ZEFSAII (Michael W. Deem and Ramdas Pophale) SiO2 
 PCOD9283091
Probable space group: C 2/C
;
_chemical_formula_sum "Si O2"
_cell_formula_units_Z 64
_cell_length_a 28.471058
_cell_length_b 5.304594
_cell_length_c 22.952104
_cell_angle_alpha 90.000000
_cell_angle_beta 84.974166
_cell_angle_gamma 90.000000
_cell_volume 3453.069413
_symmetry_space_group_name_H-M "C 2/C"
_symmetry_group_IT_number 15
_symmetry_cell_setting 'monoclinic'
loop_
_space_group_symop_operation_xyz
x,y,z
-x,y,1/2-z
-x,-y,-z
x,-y,1/2+z
1/2+x,1/2+y,z
1/2-x,1/2+y,1/2-z
1/2-x,1/2-y,-z
1/2+x,1/2-y,1/2+z
loop_
_atom_site_type_symbol
_atom_site_label
_atom_site_fract_x
_atom_site_fract_y
_atom_site_fract_z
Si Si1 0.397330 0.804321 0.841427
Si Si2 0.434411 0.698435 0.399913
Si Si3 0.955909 0.163283 0.526648
Si Si4 0.396826 0.619344 0.131624
Si Si5 0.526000 0.029372 0.876845
Si Si6 0.043811 0.848159 0.276159
Si Si7 0.194897 0.658090 0.217215
Si Si8 0.804178 0.155768 0.204410
O O1 0.413701 0.563323 0.878076
O O2 0.424516 0.776257 0.777093
O O3 0.342415 0.817819 0.830631
O O4 0.411480 0.063281 0.870634
O O5 0.429604 0.730994 0.469809
O O6 0.490448 0.735193 0.380188
O O7 0.980511 0.378111 0.562914
O O8 0.919106 0.024921 0.574019
O O9 0.000000 0.000000 0.500000
O O10 0.421476 0.506282 0.186926
O O11 0.341575 0.634346 0.148168
O O12 0.419476 0.894932 0.126834
O O13 0.519903 0.857085 0.821247
O O14 0.000000 0.989215 0.250000
O O15 0.186672 0.405816 0.257147
O O16 0.249511 0.657259 0.191793
O O17 0.189024 0.906351 0.257412
#
# Coordination Sequence:
#
# PCOD9283091 Si02
#       8
#     8   8   8   8   8   8   8   8
#     4  12  24  39  61  88 127 160 198 248 313 383
#     4  12  25  40  59  85 121 172 204 244 304 361
#     4  11  24  42  58  84 124 167 226 258 291 352
#     4  11  23  37  62  87 120 162 205 263 301 361
#     4  11  23  37  60  85 120 165 205 258 296 362
#     4  11  22  35  54  90 127 158 190 245 313 386
#     4  10  21  41  62  94 126 158 197 257 313 392
#     4  10  21  39  67  91 124 159 203 253 320 370
#
# _framework density 18.534236
#
# number of rings (size 3 to 8) (size 9 to 14) (size 15 to 20)
#    0.000    1.000    3.750    3.375    5.250    0.500 
#    0.000    0.000    0.000    1.500    0.000    0.000 
#    0.000    0.000    0.000    0.000    0.000    0.000 
#
# Total GULP energy -178692.274044 kJ/mol
# GULP energy per Si atom -5584.133564 kJ/mol
# Density = 1.849205 g / cm^3
# Si number density = 18.534236 Si / 1000 Ang^3
#
#
#
# Elastic Constant Matrix: (Units=GPa)
#
#
# Indices 1 2 3 4 5 6 
#
# 1 122.0722 25.2019 43.8050 0.0000 -11.5604 0.0000
# 2 25.2019 83.8836 31.3458 0.0000 -2.1770 0.0000
# 3 43.8050 31.3458 113.5553 0.0000 1.9351 0.0000
# 4 0.0000 0.0000 0.0000 27.3661 0.0000 3.7176
# 5 -11.5604 -2.1770 1.9351 0.0000 25.5900 0.0000
# 6 0.0000 0.0000 0.0000 3.7176 0.0000 15.8010
#
#
#
# Elastic Compliance Matrix: (Units=1/GPa)
#
#
# Indices 1 2 3 4 5 6 
#
# 1 0.010268 -0.001617 -0.003596 0.000000 0.004773 0.000000
# 2 -0.001617 0.013598 -0.003141 0.000000 0.000664 0.000000
# 3 -0.003596 -0.003141 0.011107 0.000000 -0.002732 0.000000
# 4 0.000000 0.000000 0.000000 0.037748 0.000000 -0.008881
# 5 0.004773 0.000664 -0.002732 0.000000 0.041497 0.000000
# 6 0.000000 0.000000 0.000000 -0.008881 0.000000 0.065377
#
#
# Mechanical properties :
#
#
# Convention : Reuss Voigt Hill
#
# Bulk Modulus (GPa) = 54.75025 57.80183 56.27604
# Shear Modulus (GPa) = 24.70453 28.36200 26.53326
#
# Velocity S-wave (km/s) = 3.65487 3.91608 3.78773
# Velocity P-wave (km/s) = 6.88585 7.19040 7.03977
#
# Compressibility (1/GPa) = 0.01826476
#
# Stress axis : x y z
#
# Youngs Moduli (GPa) = 97.38842 73.53930 90.03301
#
# Poissons Ratio (x) = 0.11894 0.32375
# Poissons Ratio (y) = 0.15751 0.28280
# Poissons Ratio (z) = 0.35020 0.23099
#
# Static dielectric constant tensor:
#      x y z
#    x 1.666590 0.000000 0.006980 
#    y 0.000000 1.698420 0.000000 
#    z 0.006980 0.000000 1.679770 
# 
# From -- ./inp_files/256555.got.cif
#   From: 2010.05.17/outbox.cif.g08.bks.cpg/sg15_129_cif.got.tgz:256555.got - 2010.06.03 18:47:42.
