data_PCOD9283300
_publ_section_title
;
Structure prediction by ZEFSAII (Michael W. Deem and Ramdas Pophale) SiO2 
 PCOD9283300
Probable space group: C 2/C
;
_chemical_formula_sum "Si O2"
_cell_formula_units_Z 52
_cell_length_a 8.919187
_cell_length_b 24.433651
_cell_length_c 14.301320
_cell_angle_alpha 90.000000
_cell_angle_beta 50.023920
_cell_angle_gamma 90.000000
_cell_volume 2388.338061
_symmetry_space_group_name_H-M "C 2/C"
_symmetry_group_IT_number 15
_symmetry_cell_setting 'monoclinic'
loop_
_space_group_symop_operation_xyz
x,y,z
-x,y,1/2-z
-x,-y,-z
x,-y,1/2+z
1/2+x,1/2+y,z
1/2-x,1/2+y,1/2-z
1/2-x,1/2-y,-z
1/2+x,1/2-y,1/2+z
loop_
_atom_site_type_symbol
_atom_site_label
_atom_site_fract_x
_atom_site_fract_y
_atom_site_fract_z
Si Si1 0.000000 0.725421 0.250000
Si Si2 0.115152 0.551618 0.548114
Si Si3 0.710167 0.502697 0.190834
Si Si4 0.220402 0.450767 0.635447
Si Si5 0.000000 0.363872 0.250000
Si Si6 0.602559 0.342785 0.911031
Si Si7 0.309405 0.723017 0.650462
Si Si8 0.500000 0.683044 0.250000
O O1 0.192245 0.688630 0.160983
O O2 0.050818 0.761096 0.320287
O O3 0.233308 0.551988 0.403728
O O4 0.194321 0.497259 0.568752
O O5 0.888979 0.539784 0.612765
O O6 0.108831 0.599028 0.628437
O O7 0.500000 0.479675 0.250000
O O8 0.704924 0.522392 0.299136
O O9 0.363349 0.401160 0.554175
O O10 0.000000 0.430714 0.750000
O O11 0.151633 0.323470 0.240358
O O12 0.546012 0.350174 0.825152
O O13 0.439229 0.303877 0.018759
O O14 0.186704 0.775939 0.666127
#
# Coordination Sequence:
#
# PCOD9283300 Si02
#       8
#     4   8   8   8   4   8   8   4
#     4  10  22  45  60  92 128 151 200 264 310 374
#     4  10  22  44  59  86 135 164 193 267 309 352
#     4  10  22  38  63  88 122 161 213 247 302 365
#     4  10  21  40  58  93 124 157 212 244 310 370
#     4  11  22  43  60  84 128 171 202 253 308 358
#     4  11  21  39  67  91 121 163 198 265 307 359
#     4  10  23  40  62  92 120 163 211 244 311 375
#     4   9  22  40  62  88 128 156 208 255 310 370
#
# _framework density 21.772462999999998
#
# number of rings (size 3 to 8) (size 9 to 14) (size 15 to 20)
#    0.000    1.846    3.077    0.923    3.231    1.846 
#    9.692    1.538    0.000    0.000    0.000    0.000 
#    0.000    0.000    0.000    0.000    0.000    0.000 
#
# Total GULP energy -145278.059930 kJ/mol
# GULP energy per Si atom -5587.617690 kJ/mol
# Density = 2.172291 g / cm^3
# Si number density = 21.772463 Si / 1000 Ang^3
#
#
#
# Elastic Constant Matrix: (Units=GPa)
#
#
# Indices 1 2 3 4 5 6 
#
# 1 155.3206 34.3468 24.5992 0.0000 4.7760 0.0000
# 2 34.3468 51.8217 -4.0787 0.0000 1.2022 0.0000
# 3 24.5992 -4.0787 40.3528 0.0000 0.8429 0.0000
# 4 0.0000 0.0000 0.0000 -57.6730 0.0000 21.7758
# 5 4.7760 1.2022 0.8429 0.0000 30.6113 0.0000
# 6 0.0000 0.0000 0.0000 21.7758 0.0000 -3.0849
#
#
#
# Elastic Compliance Matrix: (Units=1/GPa)
#
#
# Indices 1 2 3 4 5 6 
#
# 1 0.008805 -0.006284 -0.005983 0.000000 -0.000962 0.000000
# 2 -0.006284 0.023958 0.006255 0.000000 -0.000133 0.000000
# 3 -0.005983 0.006255 0.029063 0.000000 -0.000112 0.000000
# 4 0.000000 0.000000 0.000000 0.010412 0.000000 0.073500
# 5 -0.000962 -0.000133 -0.000112 0.000000 0.032826 0.000000
# 6 0.000000 0.000000 0.000000 0.073500 0.000000 0.194664
#
#
# Mechanical properties :
#
#
# Convention : Reuss Voigt Hill
#
# Bulk Modulus (GPa) = 20.07946 39.69218 29.88582
# Shear Modulus (GPa) = 15.22751 6.81252 11.02002
#
# Velocity S-wave (km/s) = 2.64747 1.77081 2.25221
# Velocity P-wave (km/s) = 4.31137 4.73825 4.52984
#
# Compressibility (1/GPa) = 0.04980213
#
# Stress axis : x y z
#
# Youngs Moduli (GPa) = 113.57022 41.74038 34.40785
#
# Poissons Ratio (x) = 0.26232 0.20585
# Poissons Ratio (y) = 0.71373 -0.21523
# Poissons Ratio (z) = 0.67946 -0.26110
#
# Static dielectric constant tensor:
#      x y z
#    x 1.785180 0.000000 -0.021570 
#    y 0.000000 1.797000 0.000000 
#    z -0.021570 0.000000 1.821850 
# 
# From -- ./inp_files/138478.got.cif
#   From: 2010.05.17/outbox.cif.g08.bks.cpg/sg15_70_cif.got.tgz:138478.got - 2010.06.03 18:47:42.
