data_PCOD9283191
_publ_section_title
;
Structure prediction by ZEFSAII (Michael W. Deem and Ramdas Pophale) SiO2 
 PCOD9283191
Probable space group: C 2/C
;
_chemical_formula_sum "Si O2"
_cell_formula_units_Z 44
_cell_length_a 14.057347
_cell_length_b 8.923120
_cell_length_c 20.022941
_cell_angle_alpha 90.000000
_cell_angle_beta 45.425200
_cell_angle_gamma 90.000000
_cell_volume 1789.089753
_symmetry_space_group_name_H-M "C 2/C"
_symmetry_group_IT_number 15
_symmetry_cell_setting 'monoclinic'
loop_
_space_group_symop_operation_xyz
x,y,z
-x,y,1/2-z
-x,-y,-z
x,-y,1/2+z
1/2+x,1/2+y,z
1/2-x,1/2+y,1/2-z
1/2-x,1/2-y,-z
1/2+x,1/2-y,1/2+z
loop_
_atom_site_type_symbol
_atom_site_label
_atom_site_fract_x
_atom_site_fract_y
_atom_site_fract_z
Si Si1 0.514740 0.687379 0.051672
Si Si2 0.746588 0.857748 0.383161
Si Si3 0.671148 0.094034 0.318818
Si Si4 0.162579 0.927552 0.351594
Si Si5 0.500000 0.140708 0.250000
Si Si6 0.394218 0.991737 0.434993
O O1 0.384074 0.761312 0.078709
O O2 0.451498 0.541480 0.118431
O O3 0.588611 0.815085 0.058033
O O4 0.618663 0.618334 0.947277
O O5 0.877247 0.760798 0.306785
O O6 0.726375 0.921323 0.468949
O O7 0.752565 0.007814 0.335028
O O8 0.687229 0.268874 0.305712
O O9 0.519883 0.063401 0.412353
O O10 0.704606 0.016102 0.232319
O O11 0.431978 0.036749 0.341448
#
# Coordination Sequence:
#
# PCOD9283191 Si02
#       6
#     8   8   8   8   4   8
#     4  10  21  39  68  99 139 179 243 301 352 410
#     4  11  22  41  64 100 142 190 235 292 349 428
#     4  11  20  38  68  98 135 178 244 292 348 419
#     4  11  20  34  65 110 130 167 234 310 349 406
#     4  12  26  38  72 108 152 196 232 286 372 438
#     4  11  21  44  63  98 142 191 232 290 352 429
#
# _framework density 24.593513999999999
#
# number of rings (size 3 to 8) (size 9 to 14) (size 15 to 20)
#    0.000    1.091    3.636    6.000    0.000    0.000 
#    0.000    0.000    0.000   27.273    0.000    0.000 
#    0.000    0.000    0.000    0.000    0.000    0.000 
#
# Total GULP energy -122674.883759 kJ/mol
# GULP energy per Si atom -5576.131080 kJ/mol
# Density = 2.453754 g / cm^3
# Si number density = 24.593514 Si / 1000 Ang^3
#
#
#
# Elastic Constant Matrix: (Units=GPa)
#
#
# Indices 1 2 3 4 5 6 
#
# 1 31.1396 26.1234 45.3465 0.0000 10.3630 0.0000
# 2 26.1234 205.3118 66.6538 0.0000 14.0665 0.0000
# 3 45.3465 66.6538 171.0598 0.0000 21.4936 0.0000
# 4 0.0000 0.0000 0.0000 58.9773 0.0000 0.2516
# 5 10.3630 14.0665 21.4936 0.0000 36.0984 0.0000
# 6 0.0000 0.0000 0.0000 0.2516 0.0000 14.0595
#
#
#
# Elastic Compliance Matrix: (Units=1/GPa)
#
#
# Indices 1 2 3 4 5 6 
#
# 1 0.055133 -0.002367 -0.012776 0.000000 -0.007298 0.000000
# 2 -0.002367 0.005708 -0.001516 0.000000 -0.000642 0.000000
# 3 -0.012776 -0.001516 0.010039 0.000000 -0.001719 0.000000
# 4 0.000000 0.000000 0.000000 0.016957 0.000000 -0.000303
# 5 -0.007298 -0.000642 -0.001719 0.000000 0.031071 0.000000
# 6 0.000000 0.000000 0.000000 -0.000303 0.000000 0.071131
#
#
# Mechanical properties :
#
#
# Convention : Reuss Voigt Hill
#
# Bulk Modulus (GPa) = 26.62270 75.97318 51.29794
# Shear Modulus (GPa) = 21.19739 39.78620 30.49180
#
# Velocity S-wave (km/s) = 2.93902 4.02649 3.52494
# Velocity P-wave (km/s) = 4.72924 7.25089 6.12132
#
# Compressibility (1/GPa) = 0.03756193
#
# Stress axis : x y z
#
# Youngs Moduli (GPa) = 18.13808 175.19352 99.60793
#
# Poissons Ratio (x) = 0.41474 1.27257
# Poissons Ratio (y) = 0.04294 0.15099
# Poissons Ratio (z) = 0.23173 0.26557
#
# Static dielectric constant tensor:
#      x y z
#    x 2.133950 0.000000 0.022650 
#    y 0.000000 1.995890 0.000000 
#    z 0.022650 0.000000 1.970690 
# 
# From -- ./inp_files/276481.got.cif
#   From: 2010.05.17/outbox.cif.g08.bks.cpg/sg15_139_cif.got.tgz:276481.got - 2010.06.03 18:47:42.
