data_PCOD9283638
_publ_section_title
;
Structure prediction by ZEFSAII (Michael W. Deem and Ramdas Pophale) SiO2 
 PCOD9283638
Probable space group: C 2/C
;
_chemical_formula_sum "Si O2"
_cell_formula_units_Z 44
_cell_length_a 14.113178
_cell_length_b 12.920287
_cell_length_c 14.073589
_cell_angle_alpha 90.000000
_cell_angle_beta 123.634541
_cell_angle_gamma 90.000000
_cell_volume 2136.641783
_symmetry_space_group_name_H-M "C 2/C"
_symmetry_group_IT_number 15
_symmetry_cell_setting 'monoclinic'
loop_
_space_group_symop_operation_xyz
x,y,z
-x,y,1/2-z
-x,-y,-z
x,-y,1/2+z
1/2+x,1/2+y,z
1/2-x,1/2+y,1/2-z
1/2-x,1/2-y,-z
1/2+x,1/2-y,1/2+z
loop_
_atom_site_type_symbol
_atom_site_label
_atom_site_fract_x
_atom_site_fract_y
_atom_site_fract_z
Si Si1 0.274832 0.246514 0.293318
Si Si2 0.466149 0.882105 0.997775
Si Si3 0.628960 0.236814 0.885100
Si Si4 0.462159 0.427837 0.391146
Si Si5 0.500000 0.427325 0.750000
Si Si6 0.841076 0.227188 0.470079
O O1 0.350584 0.154090 0.380029
O O2 0.164954 0.276900 0.295683
O O3 0.359606 0.345726 0.344865
O O4 0.229943 0.210321 0.166237
O O5 0.439783 0.847435 0.092347
O O6 0.569317 0.815847 0.010560
O O7 0.500000 0.000000 0.000000
O O8 0.569074 0.348326 0.854645
O O9 0.750000 0.250000 0.000000
O O10 0.500000 0.500000 0.500000
O O11 0.433413 0.499287 0.285040
O O12 0.577676 0.362053 0.443143
O O13 0.750000 0.250000 0.500000
#
# Coordination Sequence:
#
# PCOD9283638 Si02
#       6
#     8   8   8   8   4   8
#     4  10  22  41  63  89 128 167 205 263 320 369
#     4  10  23  42  63  94 127 161 208 259 315 385
#     4  10  21  40  63  91 125 161 207 258 315 386
#     4  11  23  39  62  94 121 158 215 261 308 379
#     4  12  22  40  66  90 126 168 206 264 318 370
#     4  11  24  41  60  89 127 164 209 259 309 372
#
# _framework density 20.593064999999999
#
# number of rings (size 3 to 8) (size 9 to 14) (size 15 to 20)
#    0.000    1.455    0.000    6.545    0.000   10.909 
#    0.000    5.455    0.000    0.000    0.000    0.000 
#    0.000    0.000    0.000    0.000    0.000    0.000 
#
# Total GULP energy -122663.335142 kJ/mol
# GULP energy per Si atom -5575.606143 kJ/mol
# Density = 2.054619 g / cm^3
# Si number density = 20.593065 Si / 1000 Ang^3
#
#
#
# Elastic Constant Matrix: (Units=GPa)
#
#
# Indices 1 2 3 4 5 6 
#
# 1 148.7346 54.5159 28.9393 0.0000 -16.8130 0.0000
# 2 54.5159 125.3201 20.6783 0.0000 0.5510 0.0000
# 3 28.9393 20.6783 100.2658 0.0000 -0.3126 0.0000
# 4 0.0000 0.0000 0.0000 24.2265 0.0000 -13.2136
# 5 -16.8130 0.5510 -0.3126 0.0000 42.5945 0.0000
# 6 0.0000 0.0000 0.0000 -13.2136 0.0000 20.8965
#
#
#
# Elastic Compliance Matrix: (Units=1/GPa)
#
#
# Indices 1 2 3 4 5 6 
#
# 1 0.008760 -0.003531 -0.001789 0.000000 0.003490 0.000000
# 2 -0.003531 0.009684 -0.000983 0.000000 -0.001526 0.000000
# 3 -0.001789 -0.000983 0.010691 0.000000 -0.000615 0.000000
# 4 0.000000 0.000000 0.000000 0.063008 0.000000 0.039842
# 5 0.003490 -0.001526 -0.000615 0.000000 0.024870 0.000000
# 6 0.000000 0.000000 0.000000 0.039842 0.000000 0.073049
#
#
# Mechanical properties :
#
#
# Convention : Reuss Voigt Hill
#
# Bulk Modulus (GPa) = 60.49946 64.73195 62.61570
# Shear Modulus (GPa) = 24.01793 35.55598 29.78695
#
# Velocity S-wave (km/s) = 3.41884 4.15975 3.80736
# Velocity P-wave (km/s) = 6.71021 7.38738 7.05692
#
# Compressibility (1/GPa) = 0.01652907
#
# Stress axis : x y z
#
# Youngs Moduli (GPa) = 114.15138 103.25817 93.53891
#
# Poissons Ratio (x) = 0.36460 0.16738
# Poissons Ratio (y) = 0.40306 0.09194
# Poissons Ratio (z) = 0.20426 0.10149
#
# Static dielectric constant tensor:
#      x y z
#    x 1.871720 0.000000 0.083380 
#    y 0.000000 1.363120 0.000000 
#    z 0.083380 0.000000 1.851780 
# 
# From -- ./inp_files/152276.got.cif
#   From: 2010.05.17/outbox.cif.g08.bks.cpg/sg15_77_cif.got.tgz:152276.got - 2010.06.03 18:47:42.
