data_PCOD9283679
_publ_section_title
;
Structure prediction by ZEFSAII (Michael W. Deem and Ramdas Pophale) SiO2 
 PCOD9283679
Probable space group: C 2/C
;
_chemical_formula_sum "Si O2"
_cell_formula_units_Z 40
_cell_length_a 9.790865
_cell_length_b 24.875609
_cell_length_c 18.627255
_cell_angle_alpha 90.000000
_cell_angle_beta 25.027137
_cell_angle_gamma 90.000000
_cell_volume 1919.255285
_symmetry_space_group_name_H-M "C 2/C"
_symmetry_group_IT_number 15
_symmetry_cell_setting 'monoclinic'
loop_
_space_group_symop_operation_xyz
x,y,z
-x,y,1/2-z
-x,-y,-z
x,-y,1/2+z
1/2+x,1/2+y,z
1/2-x,1/2+y,1/2-z
1/2-x,1/2-y,-z
1/2+x,1/2-y,1/2+z
loop_
_atom_site_type_symbol
_atom_site_label
_atom_site_fract_x
_atom_site_fract_y
_atom_site_fract_z
Si Si1 0.639743 0.057427 0.955900
Si Si2 0.852021 0.341464 0.524428
Si Si3 0.830246 0.391436 0.903264
Si Si4 0.634945 0.794389 0.841076
Si Si5 0.233760 0.676375 0.702539
O O1 0.000000 0.065480 0.750000
O O2 0.384782 0.100550 0.045618
O O3 0.658307 0.069514 0.032791
O O4 0.500000 0.000000 0.000000
O O5 0.507042 0.314655 0.672092
O O6 0.015093 0.304917 0.508473
O O7 0.035812 0.346030 0.363041
O O8 0.000000 0.411729 0.750000
O O9 0.998040 0.335611 0.848597
O O10 0.469834 0.369814 0.061926
O O11 0.611594 0.731238 0.840063
O O12 0.000000 0.694075 0.750000
#
# Coordination Sequence:
#
# PCOD9283679 Si02
#       5
#     8   8   8   8   8
#     4  11  25  48  74  96 126 173 225 285 344 396
#     4  10  21  40  63  95 129 173 228 263 324 406
#     4  11  25  43  65 101 137 171 225 282 326 393
#     4  10  22  37  63  93 136 187 213 264 320 399
#     4  12  22  38  61  95 142 180 223 261 330 391
#
# _framework density 20.841417
#
# number of rings (size 3 to 8) (size 9 to 14) (size 15 to 20)
#    0.000    1.200    4.000    2.400    8.400    0.000 
#    0.000    2.000    0.000    0.000    0.000    0.000 
#    0.000    0.000    0.000    0.000    0.000    0.000 
#
# Total GULP energy -111569.139517 kJ/mol
# GULP energy per Si atom -5578.456976 kJ/mol
# Density = 2.079398 g / cm^3
# Si number density = 20.841417 Si / 1000 Ang^3
#
#
#
# Elastic Constant Matrix: (Units=GPa)
#
#
# Indices 1 2 3 4 5 6 
#
# 1 84.2382 19.9676 38.7502 -0.0174 23.9205 0.0042
# 2 19.9676 85.7412 17.6217 -0.0403 0.6051 0.0097
# 3 38.7502 17.6217 109.6240 -0.1355 30.0325 0.0668
# 4 -0.0174 -0.0403 -0.1355 17.7196 0.0057 -6.4403
# 5 23.9205 0.6051 30.0325 0.0057 37.5381 0.0191
# 6 0.0042 0.0097 0.0668 -6.4403 0.0191 14.5407
#
#
#
# Elastic Compliance Matrix: (Units=1/GPa)
#
#
# Indices 1 2 3 4 5 6 
#
# 1 0.016254 -0.003092 -0.003105 -0.000005 -0.007823 0.000020
# 2 -0.003092 0.012739 -0.001842 0.000011 0.003239 0.000002
# 3 -0.003105 -0.001842 0.012763 0.000091 -0.008203 -0.000005
# 4 -0.000005 0.000011 0.000091 0.067263 -0.000095 0.029792
# 5 -0.007823 0.003239 -0.008203 -0.000095 0.038135 -0.000054
# 6 0.000020 0.000002 -0.000005 0.029792 -0.000054 0.081968
#
#
# Mechanical properties :
#
#
# Convention : Reuss Voigt Hill
#
# Bulk Modulus (GPa) = 38.94432 48.03138 43.48785
# Shear Modulus (GPa) = 19.70367 27.51061 23.60714
#
# Velocity S-wave (km/s) = 3.07809 3.63712 3.36922
# Velocity P-wave (km/s) = 5.59995 6.38234 6.00390
#
# Compressibility (1/GPa) = 0.02567768
#
# Stress axis : x y z
#
# Youngs Moduli (GPa) = 61.52349 78.50051 78.35032
#
# Poissons Ratio (x) = 0.24271 0.24330
# Poissons Ratio (y) = 0.19022 0.14432
# Poissons Ratio (z) = 0.19104 0.14460
#
# Static dielectric constant tensor:
#      x y z
#    x 1.746470 0.000000 -0.028090 
#    y 0.000000 1.742870 0.000070 
#    z -0.028090 0.000070 1.857440 
# 
# From -- ./inp_files/193421.got.cif
#   From: 2010.05.17/outbox.cif.g08.bks.cpg/sg15_97_cif.got.tgz:193421.got - 2010.06.03 18:47:42.
