data_PCOD9283620
_publ_section_title
;
Structure prediction by ZEFSAII (Michael W. Deem and Ramdas Pophale) SiO2 
 PCOD9283620
Probable space group: C 2/C
;
_chemical_formula_sum "Si O2"
_cell_formula_units_Z 32
_cell_length_a 7.350161
_cell_length_b 12.914736
_cell_length_c 16.030320
_cell_angle_alpha 90.000000
_cell_angle_beta 78.613411
_cell_angle_gamma 90.000000
_cell_volume 1491.733674
_symmetry_space_group_name_H-M "C 2/C"
_symmetry_group_IT_number 15
_symmetry_cell_setting 'monoclinic'
loop_
_space_group_symop_operation_xyz
x,y,z
-x,y,1/2-z
-x,-y,-z
x,-y,1/2+z
1/2+x,1/2+y,z
1/2-x,1/2+y,1/2-z
1/2-x,1/2-y,-z
1/2+x,1/2-y,1/2+z
loop_
_atom_site_type_symbol
_atom_site_label
_atom_site_fract_x
_atom_site_fract_y
_atom_site_fract_z
Si Si1 0.582919 0.987086 0.373849
Si Si2 0.647239 0.246884 0.920280
Si Si3 0.257512 0.438225 0.684677
Si Si4 0.100975 0.069783 0.060134
O O1 0.621933 0.867622 0.388791
O O2 0.367422 0.005526 0.374323
O O3 0.677463 0.029486 0.280223
O O4 0.686133 0.049454 0.438155
O O5 0.754406 0.317370 0.841594
O O6 0.456031 0.311344 0.949118
O O7 0.750000 0.250000 0.000000
O O8 0.474163 0.461703 0.652072
O O9 0.000000 0.000000 0.000000
#
# Coordination Sequence:
#
# PCOD9283620 Si02
#       4
#     8   8   8   8
#     4  11  20  44  61  86 134 155 202 266 302 360
#     4  10  22  41  62  92 126 159 207 254 305 369
#     4   9  24  39  61  95 120 162 209 252 306 372
#     4  10  21  40  63  90 121 161 205 254 304 368
#
# _framework density 21.451550000000001
#
# number of rings (size 3 to 8) (size 9 to 14) (size 15 to 20)
#    1.500    0.500    2.500    0.750    0.000    8.000 
#   13.500    2.500    0.000    0.000    0.000    0.000 
#    0.000    0.000    0.000    0.000    0.000    0.000 
#
# Total GULP energy -89112.415800 kJ/mol
# GULP energy per Si atom -5569.525987 kJ/mol
# Density = 2.140273 g / cm^3
# Si number density = 21.451550 Si / 1000 Ang^3
#
#
#
# Elastic Constant Matrix: (Units=GPa)
#
#
# Indices 1 2 3 4 5 6 
#
# 1 87.7187 25.7346 26.4127 0.0000 32.9618 0.0000
# 2 25.7346 160.1155 34.6960 0.0000 18.4155 0.0000
# 3 26.4127 34.6960 85.0282 0.0000 13.2890 0.0000
# 4 0.0000 0.0000 0.0000 39.9517 0.0000 3.7074
# 5 32.9618 18.4155 13.2890 0.0000 44.3848 0.0000
# 6 0.0000 0.0000 0.0000 3.7074 0.0000 21.2023
#
#
#
# Elastic Compliance Matrix: (Units=1/GPa)
#
#
# Indices 1 2 3 4 5 6 
#
# 1 0.016778 -0.000721 -0.003165 0.000000 -0.011213 0.000000
# 2 -0.000721 0.007075 -0.002400 0.000000 -0.001681 0.000000
# 3 -0.003165 -0.002400 0.013848 0.000000 -0.000800 0.000000
# 4 0.000000 0.000000 0.000000 0.025443 0.000000 -0.004449
# 5 -0.011213 -0.001681 -0.000800 0.000000 0.031795 0.000000
# 6 0.000000 0.000000 0.000000 -0.004449 0.000000 0.047943
#
#
# Mechanical properties :
#
#
# Convention : Reuss Voigt Hill
#
# Bulk Modulus (GPa) = 39.79513 56.28324 48.03919
# Shear Modulus (GPa) = 30.51926 37.50903 34.01414
#
# Velocity S-wave (km/s) = 3.77597 4.18610 3.98631
# Velocity P-wave (km/s) = 6.13205 7.04691 6.60534
#
# Compressibility (1/GPa) = 0.02512870
#
# Stress axis : x y z
#
# Youngs Moduli (GPa) = 59.60091 141.34557 72.21050
#
# Poissons Ratio (x) = 0.10193 0.22856
# Poissons Ratio (y) = 0.04298 0.17332
# Poissons Ratio (z) = 0.18864 0.33925
#
# Static dielectric constant tensor:
#      x y z
#    x 1.768560 0.000000 -0.004340 
#    y 0.000000 1.741070 0.000000 
#    z -0.004340 0.000000 1.790590 
# 
# From -- ./inp_files/187428.got.cif
#   From: 2010.05.17/outbox.cif.g08.bks.cpg/sg15_94_cif.got.tgz:187428.got - 2010.06.03 18:47:42.
