data_PCOD9283567
_publ_section_title
;
Structure prediction by ZEFSAII (Michael W. Deem and Ramdas Pophale) SiO2 
 PCOD9283567
Probable space group: C 2/C
;
_chemical_formula_sum "Si O2"
_cell_formula_units_Z 32
_cell_length_a 16.248333
_cell_length_b 7.072845
_cell_length_c 25.177019
_cell_angle_alpha 90.000000
_cell_angle_beta 25.326280
_cell_angle_gamma 90.000000
_cell_volume 1237.713470
_symmetry_space_group_name_H-M "C 2/C"
_symmetry_group_IT_number 15
_symmetry_cell_setting 'monoclinic'
loop_
_space_group_symop_operation_xyz
x,y,z
-x,y,1/2-z
-x,-y,-z
x,-y,1/2+z
1/2+x,1/2+y,z
1/2-x,1/2+y,1/2-z
1/2-x,1/2-y,-z
1/2+x,1/2-y,1/2+z
loop_
_atom_site_type_symbol
_atom_site_label
_atom_site_fract_x
_atom_site_fract_y
_atom_site_fract_z
Si Si1 0.744820 0.022346 0.500611
Si Si2 0.181601 0.066514 0.248214
Si Si3 0.770147 0.173529 0.876726
Si Si4 0.338993 0.001184 0.771426
O O1 0.750000 0.250000 0.500000
O O2 0.568673 0.961965 0.640581
O O3 0.967299 0.979566 0.381902
O O4 0.691795 0.925865 0.475130
O O5 0.178603 0.273484 0.222833
O O6 0.285647 0.938051 0.144203
O O7 0.270165 0.075182 0.254651
O O8 0.733141 0.389733 0.880202
O O9 0.000000 0.142223 0.750000
#
# Coordination Sequence:
#
# PCOD9283567 Si02
#       4
#     8   8   8   8
#     4   9  22  42  68  95 135 179 218 270 343 391
#     4  10  21  40  62  96 133 173 218 277 327 392
#     4  10  22  40  65  95 130 172 225 269 330 391
#     4  11  21  41  67  92 136 172 221 280 326 393
#
# _framework density 25.854126000000001
#
# number of rings (size 3 to 8) (size 9 to 14) (size 15 to 20)
#    0.000    2.000    2.500    0.000    0.000   10.000 
#    0.000    3.750    0.000    0.000    0.000    0.000 
#    0.000    0.000    0.000    0.000    0.000    0.000 
#
# Total GULP energy -89440.638802 kJ/mol
# GULP energy per Si atom -5590.039925 kJ/mol
# Density = 2.579528 g / cm^3
# Si number density = 25.854126 Si / 1000 Ang^3
#
#
#
# Elastic Constant Matrix: (Units=GPa)
#
#
# Indices 1 2 3 4 5 6 
#
# 1 144.0674 45.1555 19.3804 -0.0077 15.3556 0.0243
# 2 45.1555 154.5178 31.1818 -0.0207 27.5550 0.0234
# 3 19.3804 31.1818 49.4509 -0.0199 0.1969 0.0094
# 4 -0.0077 -0.0207 -0.0199 16.2435 -0.0010 7.8386
# 5 15.3556 27.5550 0.1969 -0.0010 36.0369 -0.0050
# 6 0.0243 0.0234 0.0094 7.8386 -0.0050 38.4064
#
#
#
# Elastic Compliance Matrix: (Units=1/GPa)
#
#
# Indices 1 2 3 4 5 6 
#
# 1 0.007936 -0.001483 -0.002166 0.000001 -0.002235 -0.000004
# 2 -0.001483 0.009051 -0.005101 0.000007 -0.006261 -0.000006
# 3 -0.002166 -0.005101 0.024269 0.000025 0.004691 -0.000006
# 4 0.000001 0.000007 0.000025 0.068289 -0.000006 -0.013938
# 5 -0.002235 -0.006261 0.004691 -0.000006 0.033463 0.000010
# 6 -0.000004 -0.000006 -0.000006 -0.013938 0.000010 0.028882
#
#
# Mechanical properties :
#
#
# Convention : Reuss Voigt Hill
#
# Bulk Modulus (GPa) = 42.09613 59.94126 51.01870
# Shear Modulus (GPa) = 25.34097 34.95857 30.14977
#
# Velocity S-wave (km/s) = 3.13413 3.68114 3.41860
# Velocity P-wave (km/s) = 5.42352 6.42670 5.94630
#
# Compressibility (1/GPa) = 0.02375515
#
# Stress axis : x y z
#
# Youngs Moduli (GPa) = 126.01187 110.48362 41.20533
#
# Poissons Ratio (x) = 0.16389 0.08924
# Poissons Ratio (y) = 0.18693 0.21019
# Poissons Ratio (z) = 0.27292 0.56357
#
# Static dielectric constant tensor:
#      x y z
#    x 1.975590 0.000000 -0.081620 
#    y 0.000000 2.083250 0.000030 
#    z -0.081620 0.000030 1.873340 
# 
# From -- ./inp_files/258671.got.cif
#   From: 2010.05.17/outbox.cif.g08.bks.cpg/sg15_130_cif.got.tgz:258671.got - 2010.06.03 18:47:42.
