data_PCOD9283108
_publ_section_title
;
Structure prediction by ZEFSAII (Michael W. Deem and Ramdas Pophale) SiO2 
 PCOD9283108
Probable space group: C 2/C
;
_chemical_formula_sum "Si O2"
_cell_formula_units_Z 48
_cell_length_a 14.978209
_cell_length_b 25.828801
_cell_length_c 9.734815
_cell_angle_alpha 90.000000
_cell_angle_beta 140.681439
_cell_angle_gamma 90.000000
_cell_volume 2386.319620
_symmetry_space_group_name_H-M "C 2/C"
_symmetry_group_IT_number 15
_symmetry_cell_setting 'monoclinic'
loop_
_space_group_symop_operation_xyz
x,y,z
-x,y,1/2-z
-x,-y,-z
x,-y,1/2+z
1/2+x,1/2+y,z
1/2-x,1/2+y,1/2-z
1/2-x,1/2-y,-z
1/2+x,1/2-y,1/2+z
loop_
_atom_site_type_symbol
_atom_site_label
_atom_site_fract_x
_atom_site_fract_y
_atom_site_fract_z
Si Si1 0.255152 0.384549 0.701166
Si Si2 0.496835 0.146165 0.086149
Si Si3 0.097178 0.239641 0.753562
Si Si4 0.103433 0.015555 0.001368
Si Si5 0.023140 0.173251 0.423328
Si Si6 0.247869 0.409703 0.376991
O O1 0.130589 0.366032 0.650077
O O2 0.321967 0.432644 0.860751
O O3 0.375372 0.341674 0.816632
O O4 0.211232 0.401437 0.494132
O O5 0.500000 0.128543 0.250000
O O6 0.507189 0.208727 0.109623
O O7 0.368131 0.117531 0.857199
O O8 0.112172 0.206395 0.635087
O O9 0.000000 0.210908 0.750000
O O10 0.250000 0.250000 0.000000
O O11 0.215648 0.969633 0.106759
O O12 0.000000 0.023136 0.750000
O O13 0.000000 0.000000 0.000000
O O14 0.108394 0.121388 0.486184
O O15 0.000000 0.201117 0.250000
#
# Coordination Sequence:
#
# PCOD9283108 Si02
#       6
#     8   8   8   8   8   8
#     4  11  24  42  66  94 126 170 214 264 319 382
#     4  11  26  42  62  93 131 170 210 260 327 382
#     4  11  23  42  63  92 130 167 213 267 319 380
#     4  12  23  42  69  98 127 165 217 268 319 379
#     4  10  21  39  67  94 122 165 218 261 313 381
#     4  11  23  43  63  95 132 163 209 269 317 386
#
# _framework density 20.114657000000001
#
# number of rings (size 3 to 8) (size 9 to 14) (size 15 to 20)
#    0.000    1.000    3.333    4.000    2.333    4.000 
#    0.000    4.167    0.000    0.000    0.000    0.000 
#    0.000    0.000    0.000    0.000    0.000    0.000 
#
# Total GULP energy -134013.828574 kJ/mol
# GULP energy per Si atom -5583.909524 kJ/mol
# Density = 2.006888 g / cm^3
# Si number density = 20.114657 Si / 1000 Ang^3
#
#
#
# Elastic Constant Matrix: (Units=GPa)
#
#
# Indices 1 2 3 4 5 6 
#
# 1 139.1268 11.6825 48.5627 0.0000 -13.8045 0.0000
# 2 11.6825 54.6067 46.7166 0.0000 -18.6850 0.0000
# 3 48.5627 46.7166 152.3022 0.0000 -26.6135 0.0000
# 4 0.0000 0.0000 0.0000 33.4734 0.0000 -2.0303
# 5 -13.8045 -18.6850 -26.6135 0.0000 43.2709 0.0000
# 6 0.0000 0.0000 0.0000 -2.0303 0.0000 26.7423
#
#
#
# Elastic Compliance Matrix: (Units=1/GPa)
#
#
# Indices 1 2 3 4 5 6 
#
# 1 0.008175 0.001019 -0.002674 0.000000 0.001403 0.000000
# 2 0.001019 0.026857 -0.007260 0.000000 0.007457 0.000000
# 3 -0.002674 -0.007260 0.010026 0.000000 0.002178 0.000000
# 4 0.000000 0.000000 0.000000 0.030013 0.000000 0.002279
# 5 0.001403 0.007457 0.002178 0.000000 0.028118 0.000000
# 6 0.000000 0.000000 0.000000 0.002279 0.000000 0.037567
#
#
# Mechanical properties :
#
#
# Convention : Reuss Voigt Hill
#
# Bulk Modulus (GPa) = 36.72653 62.21770 49.47212
# Shear Modulus (GPa) = 29.82196 36.63558 33.22877
#
# Velocity S-wave (km/s) = 3.85463 4.27234 4.06885
# Velocity P-wave (km/s) = 6.17326 7.43881 6.83539
#
# Compressibility (1/GPa) = 0.02722827
#
# Stress axis : x y z
#
# Youngs Moduli (GPa) = 122.32868 37.23359 99.74043
#
# Poissons Ratio (x) = -0.03793 0.26669
# Poissons Ratio (y) = -0.12463 0.72411
# Poissons Ratio (z) = 0.32709 0.27031
#
# Static dielectric constant tensor:
#      x y z
#    x 1.842730 0.000000 -0.012630 
#    y 0.000000 2.542180 0.000000 
#    z -0.012630 0.000000 1.721320 
# 
# From -- ./inp_files/43952.got.cif
#   From: 2010.05.17/outbox.cif.g08.bks.cpg/sg15_22_cif.got.tgz:43952.got - 2010.06.03 18:47:42.
