data_PCOD9283546
_publ_section_title
;
Structure prediction by ZEFSAII (Michael W. Deem and Ramdas Pophale) SiO2 
 PCOD9283546
Probable space group: C 2/C
;
_chemical_formula_sum "Si O2"
_cell_formula_units_Z 60
_cell_length_a 11.531690
_cell_length_b 18.240610
_cell_length_c 14.025961
_cell_angle_alpha 90.000000
_cell_angle_beta 102.993520
_cell_angle_gamma 90.000000
_cell_volume 2874.750865
_symmetry_space_group_name_H-M "C 2/C"
_symmetry_group_IT_number 15
_symmetry_cell_setting 'monoclinic'
loop_
_space_group_symop_operation_xyz
x,y,z
-x,y,1/2-z
-x,-y,-z
x,-y,1/2+z
1/2+x,1/2+y,z
1/2-x,1/2+y,1/2-z
1/2-x,1/2-y,-z
1/2+x,1/2-y,1/2+z
loop_
_atom_site_type_symbol
_atom_site_label
_atom_site_fract_x
_atom_site_fract_y
_atom_site_fract_z
Si Si1 0.615038 0.268853 0.446075
Si Si2 0.658106 0.566054 0.995801
Si Si3 0.177236 0.606031 0.151952
Si Si4 0.443783 0.171831 0.548251
Si Si5 0.894362 0.199826 0.160157
Si Si6 0.000000 0.692723 0.250000
Si Si7 0.497337 0.444796 0.864263
Si Si8 0.893488 0.457814 0.426885
O O1 0.750000 0.250000 0.500000
O O2 0.606033 0.355759 0.455182
O O3 0.525076 0.225820 0.499097
O O4 0.582221 0.241826 0.333930
O O5 0.585447 0.503885 0.926124
O O6 0.795027 0.565067 0.987285
O O7 0.627642 0.552570 0.101861
O O8 0.292449 0.654921 0.195952
O O9 0.171504 0.517858 0.152488
O O10 0.075622 0.639423 0.197808
O O11 0.146296 0.628908 0.037383
O O12 0.367677 0.224801 0.602138
O O13 0.539374 0.112484 0.606160
O O14 0.948270 0.135449 0.104789
O O15 0.000000 0.220543 0.250000
O O16 0.500000 0.453455 0.750000
O O17 0.000000 0.500000 0.500000
#
# Coordination Sequence:
#
# PCOD9283546 Si02
#       8
#     8   8   8   8   8   4   8   8
#     4  11  22  38  67  92 128 172 218 276 334 392
#     4  11  21  40  67  91 132 176 222 274 341 402
#     4  10  22  43  64  90 134 169 222 277 336 408
#     4  10  21  40  62  93 125 170 220 264 337 400
#     4  11  22  38  64  93 127 166 216 275 335 396
#     4  10  26  42  66 102 124 178 230 280 334 412
#     4  10  23  39  61  98 130 172 220 277 337 406
#     4  10  21  40  64  91 126 175 218 268 337 412
#
# _framework density 20.871373999999999
#
# number of rings (size 3 to 8) (size 9 to 14) (size 15 to 20)
#    0.000    1.600    4.000    0.400    2.800    0.000 
#    1.200    0.000    2.933    0.000    0.000    0.000 
#    0.000    0.000    0.000    0.000    0.000    0.000 
#
# Total GULP energy -167260.210549 kJ/mol
# GULP energy per Si atom -5575.340352 kJ/mol
# Density = 2.082387 g / cm^3
# Si number density = 20.871374 Si / 1000 Ang^3
#
#
#
# Elastic Constant Matrix: (Units=GPa)
#
#
# Indices 1 2 3 4 5 6 
#
# 1 61.7931 -4.6737 13.8402 0.0000 -6.7435 0.0000
# 2 -4.6737 116.3856 35.8126 0.0000 -6.8563 0.0000
# 3 13.8402 35.8126 72.6187 0.0000 -4.1216 0.0000
# 4 0.0000 0.0000 0.0000 13.0977 0.0000 2.1820
# 5 -6.7435 -6.8563 -4.1216 0.0000 22.0268 0.0000
# 6 0.0000 0.0000 0.0000 2.1820 0.0000 31.5197
#
#
#
# Elastic Compliance Matrix: (Units=1/GPa)
#
#
# Indices 1 2 3 4 5 6 
#
# 1 0.017907 0.002350 -0.004265 0.000000 0.005416 0.000000
# 2 0.002350 0.010548 -0.005481 0.000000 0.002977 0.000000
# 3 -0.004265 -0.005481 0.017299 0.000000 0.000225 0.000000
# 4 0.000000 0.000000 0.000000 0.077240 0.000000 -0.005347
# 5 0.005416 0.002977 0.000225 0.000000 0.048026 0.000000
# 6 0.000000 0.000000 0.000000 -0.005347 0.000000 0.032096
#
#
# Mechanical properties :
#
#
# Convention : Reuss Voigt Hill
#
# Bulk Modulus (GPa) = 32.29543 37.86175 35.07859
# Shear Modulus (GPa) = 21.90781 27.05006 24.47893
#
# Velocity S-wave (km/s) = 3.24336 3.60396 3.42840
# Velocity P-wave (km/s) = 5.43442 5.95801 5.70223
#
# Compressibility (1/GPa) = 0.03096413
#
# Stress axis : x y z
#
# Youngs Moduli (GPa) = 55.84410 94.80052 57.80632
#
# Poissons Ratio (x) = -0.22282 0.24652
# Poissons Ratio (y) = -0.13125 0.31684
# Poissons Ratio (z) = 0.23815 0.51961
#
# Static dielectric constant tensor:
#      x y z
#    x 1.977820 0.000000 0.062020 
#    y 0.000000 1.782040 0.000000 
#    z 0.062020 0.000000 1.788840 
# 
# From -- ./inp_files/145727.got.cif
#   From: 2010.05.17/outbox.cif.g08.bks.cpg/sg15_73_cif.got.tgz:145727.got - 2010.06.03 18:47:42.
