data_PCOD9283730
_publ_section_title
;
Structure prediction by ZEFSAII (Michael W. Deem and Ramdas Pophale) SiO2 
 PCOD9283730
Probable space group: C 2/C
;
_chemical_formula_sum "Si O2"
_cell_formula_units_Z 60
_cell_length_a 20.327296
_cell_length_b 29.264085
_cell_length_c 4.910648
_cell_angle_alpha 90.000000
_cell_angle_beta 65.507949
_cell_angle_gamma 90.000000
_cell_volume 2658.298386
_symmetry_space_group_name_H-M "C 2/C"
_symmetry_group_IT_number 15
_symmetry_cell_setting 'monoclinic'
loop_
_space_group_symop_operation_xyz
x,y,z
-x,y,1/2-z
-x,-y,-z
x,-y,1/2+z
1/2+x,1/2+y,z
1/2-x,1/2+y,1/2-z
1/2-x,1/2-y,-z
1/2+x,1/2-y,1/2+z
loop_
_atom_site_type_symbol
_atom_site_label
_atom_site_fract_x
_atom_site_fract_y
_atom_site_fract_z
Si Si1 0.329720 0.889334 0.534261
Si Si2 0.841221 0.034246 0.509014
Si Si3 0.076396 0.529639 0.532731
Si Si4 0.955163 0.332736 0.593459
Si Si5 0.746781 0.623990 0.688737
Si Si6 0.500000 0.465865 0.750000
Si Si7 0.918693 0.234959 0.796383
Si Si8 0.680785 0.716260 0.047092
O O1 0.353657 0.941447 0.517435
O O2 0.393408 0.862049 0.565278
O O3 0.320047 0.875977 0.239897
O O4 0.260903 0.877998 0.842658
O O5 0.789021 0.076273 0.657365
O O6 0.921866 0.056998 0.384906
O O7 0.833706 0.993264 0.740821
O O8 0.077091 0.515570 0.218456
O O9 0.000000 0.552680 0.750000
O O10 0.923601 0.289712 0.813874
O O11 0.000000 0.358863 0.750000
O O12 0.000000 0.316287 0.250000
O O13 0.708154 0.669290 0.864772
O O14 0.500000 0.500000 0.500000
O O15 0.882279 0.231358 0.558759
O O16 0.000000 0.218996 0.750000
O O17 0.861661 0.212184 0.097166
O O18 0.750000 0.750000 0.000000
#
# Coordination Sequence:
#
# PCOD9283730 Si02
#       8
#     8   8   8   8   8   4   8   8
#     4  12  24  40  60  89 128 166 214 266 312 376
#     4  10  21  40  64  89 123 159 206 266 318 383
#     4  10  22  39  59  85 121 167 215 262 321 382
#     4  11  22  39  65  94 121 160 215 266 316 370
#     4  12  26  40  62  95 129 169 223 255 325 403
#     4   8  16  34  60  84 108 150 196 244 316 378
#     4  11  23  43  68  97 129 165 218 271 330 390
#     4  12  24  44  68  94 138 180 216 266 338 403
#
# _framework density 22.570830000000001
#
# number of rings (size 3 to 8) (size 9 to 14) (size 15 to 20)
#    0.000    1.067    0.000    7.600    0.000    4.800 
#    2.400    0.000    2.933    0.000    0.000    0.000 
#    0.000    0.000    0.000    0.000    0.000    0.000 
#
# Total GULP energy -167387.191553 kJ/mol
# GULP energy per Si atom -5579.573052 kJ/mol
# Density = 2.251946 g / cm^3
# Si number density = 22.570830 Si / 1000 Ang^3
#
#
#
# Elastic Constant Matrix: (Units=GPa)
#
#
# Indices 1 2 3 4 5 6 
#
# 1 105.3665 12.6920 3.3161 0.0000 9.8957 0.0000
# 2 12.6920 62.3483 9.7928 0.0000 -17.3805 0.0000
# 3 3.3161 9.7928 87.2418 0.0000 6.4464 0.0000
# 4 0.0000 0.0000 0.0000 21.0388 0.0000 -3.1734
# 5 9.8957 -17.3805 6.4464 0.0000 41.0143 0.0000
# 6 0.0000 0.0000 0.0000 -3.1734 0.0000 33.0408
#
#
#
# Elastic Compliance Matrix: (Units=1/GPa)
#
#
# Indices 1 2 3 4 5 6 
#
# 1 0.010231 -0.003200 0.000256 0.000000 -0.003865 0.000000
# 2 -0.003200 0.019811 -0.002812 0.000000 0.009609 0.000000
# 3 0.000256 -0.002812 0.012000 0.000000 -0.003140 0.000000
# 4 0.000000 0.000000 0.000000 0.048230 0.000000 0.004632
# 5 -0.003865 0.009609 -0.003140 0.000000 0.029880 0.000000
# 6 0.000000 0.000000 0.000000 0.004632 0.000000 0.030711
#
#
# Mechanical properties :
#
#
# Convention : Reuss Voigt Hill
#
# Bulk Modulus (GPa) = 32.75551 34.06204 33.40877
# Shear Modulus (GPa) = 28.97680 34.29583 31.63632
#
# Velocity S-wave (km/s) = 3.58693 3.90227 3.74792
# Velocity P-wave (km/s) = 5.63015 5.95211 5.79336
#
# Compressibility (1/GPa) = 0.03052922
#
# Stress axis : x y z
#
# Youngs Moduli (GPa) = 97.74120 50.47748 83.33114
#
# Poissons Ratio (x) = 0.16154 -0.02133
# Poissons Ratio (y) = 0.31280 0.23434
# Poissons Ratio (z) = -0.02501 0.14195
#
# Static dielectric constant tensor:
#      x y z
#    x 1.976040 0.000000 -0.043890 
#    y 0.000000 1.825630 0.000000 
#    z -0.043890 0.000000 1.817620 
# 
# From -- ./inp_files/14392.got.cif
#   From: 2010.05.17/outbox.cif.g08.bks.cpg/sg15_8_cif.got.tgz:14392.got - 2010.06.03 18:47:42.
