data_PCOD9283615
_publ_section_title
;
Structure prediction by ZEFSAII (Michael W. Deem and Ramdas Pophale) SiO2 
 PCOD9283615
Probable space group: C 2/C
;
_chemical_formula_sum "Si O2"
_cell_formula_units_Z 52
_cell_length_a 14.588471
_cell_length_b 8.871673
_cell_length_c 29.523125
_cell_angle_alpha 90.000000
_cell_angle_beta 140.651374
_cell_angle_gamma 90.000000
_cell_volume 2422.660158
_symmetry_space_group_name_H-M "C 2/C"
_symmetry_group_IT_number 15
_symmetry_cell_setting 'monoclinic'
loop_
_space_group_symop_operation_xyz
x,y,z
-x,y,1/2-z
-x,-y,-z
x,-y,1/2+z
1/2+x,1/2+y,z
1/2-x,1/2+y,1/2-z
1/2-x,1/2-y,-z
1/2+x,1/2-y,1/2+z
loop_
_atom_site_type_symbol
_atom_site_label
_atom_site_fract_x
_atom_site_fract_y
_atom_site_fract_z
Si Si1 0.984673 0.407346 0.948169
Si Si2 0.744102 0.505877 0.492995
Si Si3 0.600480 0.236194 0.883494
Si Si4 0.798040 0.141401 0.309173
Si Si5 0.000000 0.822391 0.750000
Si Si6 0.454865 0.566271 0.934787
Si Si7 0.737025 0.535022 0.793911
O O1 0.882393 0.505496 0.877120
O O2 0.142715 0.393031 0.986079
O O3 0.918257 0.241217 0.927055
O O4 0.000000 0.500000 0.000000
O O5 0.706237 0.627830 0.439324
O O6 0.826956 0.591493 0.565585
O O7 0.592990 0.445711 0.454024
O O8 0.448125 0.282510 0.848644
O O9 0.570204 0.230198 0.818416
O O10 0.699920 0.287970 0.279479
O O11 0.744758 0.029794 0.249640
O O12 0.833733 0.039467 0.366076
O O13 0.116784 0.932364 0.771656
O O14 0.500000 0.500000 0.000000
#
# Coordination Sequence:
#
# PCOD9283615 Si02
#       7
#     8   8   8   8   4   8   8
#     4  12  24  40  67  95 124 169 214 260 319 374
#     4  10  21  40  63  89 132 165 205 257 321 367
#     4   9  19  37  64  90 122 162 205 255 313 374
#     4  10  21  42  62  90 123 166 204 261 311 375
#     4  10  22  36  64  94 120 164 214 258 310 374
#     4  11  25  40  63  96 130 165 212 263 311 380
#     4  11  22  40  65  88 124 162 214 255 319 373
#
# _framework density 21.464009999999998
#
# number of rings (size 3 to 8) (size 9 to 14) (size 15 to 20)
#    0.000    1.538    1.538    3.231    6.462    0.000 
#    0.000    4.615    0.000    0.923    0.000    0.000 
#    0.000    0.000    0.000    0.000    0.000    0.000 
#
# Total GULP energy -145325.865549 kJ/mol
# GULP energy per Si atom -5589.456367 kJ/mol
# Density = 2.141516 g / cm^3
# Si number density = 21.464010 Si / 1000 Ang^3
#
#
#
# Elastic Constant Matrix: (Units=GPa)
#
#
# Indices 1 2 3 4 5 6 
#
# 1 38.5850 0.6367 11.0104 0.0000 -10.8591 0.0000
# 2 0.6367 121.1590 31.4465 0.0000 -30.3720 0.0000
# 3 11.0104 31.4465 118.6056 0.0000 -46.6168 0.0000
# 4 0.0000 0.0000 0.0000 30.7749 0.0000 0.2947
# 5 -10.8591 -30.3720 -46.6168 0.0000 47.8847 0.0000
# 6 0.0000 0.0000 0.0000 0.2947 0.0000 26.8172
#
#
#
# Elastic Compliance Matrix: (Units=1/GPa)
#
#
# Indices 1 2 3 4 5 6 
#
# 1 0.027984 0.001721 -0.000212 0.000000 0.007231 0.000000
# 2 0.001721 0.009924 -0.000265 0.000000 0.006427 0.000000
# 3 -0.000212 -0.000265 0.013665 0.000000 0.013087 0.000000
# 4 0.000000 0.000000 0.000000 0.032497 0.000000 -0.000357
# 5 0.007231 0.006427 0.013087 0.000000 0.039340 0.000000
# 6 0.000000 0.000000 0.000000 -0.000357 0.000000 0.037293
#
#
# Mechanical properties :
#
#
# Convention : Reuss Voigt Hill
#
# Bulk Modulus (GPa) = 18.49764 40.50411 29.50088
# Shear Modulus (GPa) = 28.37083 36.77908 32.57496
#
# Velocity S-wave (km/s) = 3.63958 4.14396 3.89994
# Velocity P-wave (km/s) = 5.12823 6.46593 5.83554
#
# Compressibility (1/GPa) = 0.05406094
#
# Stress axis : x y z
#
# Youngs Moduli (GPa) = 35.73477 100.76093 73.18001
#
# Poissons Ratio (x) = -0.17337 0.01551
# Poissons Ratio (y) = -0.06149 0.01939
# Poissons Ratio (z) = 0.00757 0.02670
#
# Static dielectric constant tensor:
#      x y z
#    x 2.760070 0.000000 -0.109940 
#    y 0.000000 1.784500 0.000000 
#    z -0.109940 0.000000 1.776990 
# 
# From -- ./inp_files/313072.got.cif
#   From: 2010.05.17/outbox.cif.g08.bks.cpg/sg15_157_cif.got.tgz:313072.got - 2010.06.03 18:47:42.
