data_PCOD9283761
_publ_section_title
;
Structure prediction by ZEFSAII (Michael W. Deem and Ramdas Pophale) SiO2 
 PCOD9283761
Probable space group: C 2/C
;
_chemical_formula_sum "Si O2"
_cell_formula_units_Z 64
_cell_length_a 14.760149
_cell_length_b 20.255903
_cell_length_c 18.319532
_cell_angle_alpha 90.000000
_cell_angle_beta 144.366456
_cell_angle_gamma 90.000000
_cell_volume 3190.996938
_symmetry_space_group_name_H-M "C 2/C"
_symmetry_group_IT_number 15
_symmetry_cell_setting 'monoclinic'
loop_
_space_group_symop_operation_xyz
x,y,z
-x,y,1/2-z
-x,-y,-z
x,-y,1/2+z
1/2+x,1/2+y,z
1/2-x,1/2+y,1/2-z
1/2-x,1/2-y,-z
1/2+x,1/2-y,1/2+z
loop_
_atom_site_type_symbol
_atom_site_label
_atom_site_fract_x
_atom_site_fract_y
_atom_site_fract_z
Si Si1 0.596471 0.136913 0.639123
Si Si2 0.257767 0.086145 0.156786
Si Si3 0.015664 0.365611 0.926078
Si Si4 0.597469 0.285481 0.157875
Si Si5 0.671400 0.941439 0.327006
Si Si6 0.039078 0.146215 0.465536
Si Si7 0.434135 0.756189 0.125751
Si Si8 0.711483 0.673362 0.987868
O O1 0.520895 0.115937 0.514011
O O2 0.732698 0.189824 0.709338
O O3 0.660785 0.080027 0.734465
O O4 0.480298 0.178489 0.612702
O O5 0.406985 0.088745 0.306361
O O6 0.268336 0.143550 0.102460
O O7 0.262108 0.015038 0.122341
O O8 0.101754 0.099582 0.100976
O O9 0.941347 0.292053 0.865707
O O10 0.190723 0.364327 0.009187
O O11 0.572998 0.307425 0.057940
O O12 0.474419 0.325680 0.126971
O O13 0.500000 0.936917 0.250000
O O14 0.800803 0.892377 0.444739
O O15 0.995020 0.192914 0.369670
O O16 0.500000 0.760077 0.250000
O O17 0.250000 0.750000 0.000000
O O18 0.750000 0.750000 0.000000
#
# Coordination Sequence:
#
# PCOD9283761 Si02
#       8
#     8   8   8   8   8   8   8   8
#     4  11  23  38  59  90 124 163 201 255 321 373
#     4  11  23  40  64  88 124 165 212 250 310 385
#     4  11  21  34  60  89 125 161 201 252 313 375
#     4   9  19  36  57  86 127 154 198 254 311 375
#     4  11  23  43  63  87 122 165 214 257 306 382
#     4  10  21  40  64  92 117 165 208 256 311 373
#     4  12  24  39  65  96 132 163 207 264 329 385
#     4   9  20  36  58  91 117 158 207 256 308 368
#
# _framework density 20.056426999999999
#
# number of rings (size 3 to 8) (size 9 to 14) (size 15 to 20)
#    0.000    1.500    1.250    4.875    5.250    1.000 
#    0.000    0.000    0.000    0.000    0.000    0.000 
#    0.000    0.000    0.000    0.000    0.000    0.000 
#
# Total GULP energy -178733.163046 kJ/mol
# GULP energy per Si atom -5585.411345 kJ/mol
# Density = 2.001078 g / cm^3
# Si number density = 20.056427 Si / 1000 Ang^3
#
#
#
# Elastic Constant Matrix: (Units=GPa)
#
#
# Indices 1 2 3 4 5 6 
#
# 1 99.5438 13.4874 20.7171 -0.0004 5.3298 -0.0002
# 2 13.4874 39.4917 4.2860 -0.0008 -6.5889 -0.0006
# 3 20.7171 4.2860 48.0272 -0.0009 -10.5881 -0.0007
# 4 -0.0004 -0.0008 -0.0009 21.6551 -0.0008 4.8144
# 5 5.3298 -6.5889 -10.5881 -0.0008 34.7620 -0.0005
# 6 -0.0002 -0.0006 -0.0007 4.8144 -0.0005 22.7902
#
#
#
# Elastic Compliance Matrix: (Units=1/GPa)
#
#
# Indices 1 2 3 4 5 6 
#
# 1 0.012062 -0.004227 -0.005800 0.000000 -0.004417 0.000000
# 2 -0.004227 0.027710 0.000698 0.000001 0.006113 0.000001
# 3 -0.005800 0.000698 0.025177 0.000001 0.008690 0.000001
# 4 0.000000 0.000001 0.000001 0.048454 0.000002 -0.010236
# 5 -0.004417 0.006113 0.008690 0.000002 0.033250 0.000001
# 6 0.000000 0.000001 0.000001 -0.010236 0.000001 0.046041
#
#
# Mechanical properties :
#
#
# Convention : Reuss Voigt Hill
#
# Bulk Modulus (GPa) = 21.60233 29.33823 25.47028
# Shear Modulus (GPa) = 22.04770 25.74625 23.89698
#
# Velocity S-wave (km/s) = 3.31914 3.58675 3.45554
# Velocity P-wave (km/s) = 5.04808 5.64027 5.35237
#
# Compressibility (1/GPa) = 0.04629131
#
# Stress axis : x y z
#
# Youngs Moduli (GPa) = 82.90427 36.08870 39.71908
#
# Poissons Ratio (x) = 0.15255 0.23036
# Poissons Ratio (y) = 0.35044 -0.02773
# Poissons Ratio (z) = 0.48082 -0.02520
#
# Static dielectric constant tensor:
#      x y z
#    x 1.737360 0.000000 0.015780 
#    y 0.000000 1.713830 0.000000 
#    z 0.015780 0.000000 1.686000 
# 
# From -- ./inp_files/206468.got.cif
#   From: 2010.05.17/outbox.cif.g08.bks.cpg/sg15_104_cif.got.tgz:206468.got - 2010.06.03 18:47:42.
