data_PCOD9283178
_publ_section_title
;
Structure prediction by ZEFSAII (Michael W. Deem and Ramdas Pophale) SiO2 
 PCOD9283178
Probable space group: C 2/C
;
_chemical_formula_sum "Si O2"
_cell_formula_units_Z 44
_cell_length_a 7.889608
_cell_length_b 28.204615
_cell_length_c 8.943095
_cell_angle_alpha 90.000000
_cell_angle_beta 73.075534
_cell_angle_gamma 90.000000
_cell_volume 1903.857289
_symmetry_space_group_name_H-M "C 2/C"
_symmetry_group_IT_number 15
_symmetry_cell_setting 'monoclinic'
loop_
_space_group_symop_operation_xyz
x,y,z
-x,y,1/2-z
-x,-y,-z
x,-y,1/2+z
1/2+x,1/2+y,z
1/2-x,1/2+y,1/2-z
1/2-x,1/2-y,-z
1/2+x,1/2-y,1/2+z
loop_
_atom_site_type_symbol
_atom_site_label
_atom_site_fract_x
_atom_site_fract_y
_atom_site_fract_z
Si Si1 0.203469 0.533892 0.146580
Si Si2 0.500000 0.274604 0.250000
Si Si3 0.214159 0.363572 0.692358
Si Si4 0.364436 0.210251 0.050903
Si Si5 0.683244 0.157261 0.855766
Si Si6 0.703184 0.441624 0.213562
O O1 0.280082 0.582581 0.200065
O O2 0.291041 0.485193 0.174654
O O3 0.000000 0.529965 0.250000
O O4 0.220412 0.540504 0.964717
O O5 0.512393 0.239034 0.107759
O O6 0.672437 0.305670 0.238673
O O7 0.249435 0.323208 0.806881
O O8 0.252239 0.350720 0.510827
O O9 0.000000 0.367385 0.750000
O O10 0.250000 0.250000 0.000000
O O11 0.484368 0.176895 0.916895
O O12 0.695155 0.106470 0.774033
O O13 0.500000 0.427046 0.250000
#
# Coordination Sequence:
#
# PCOD9283178 Si02
#       6
#     8   4   8   8   8   8
#     4  10  21  39  68  96 132 178 223 275 334 403
#     4  12  22  42  64  86 130 170 212 268 330 394
#     4   8  17  39  63  85 124 175 212 257 332 396
#     4  11  23  40  66  95 124 168 226 273 331 394
#     4  10  21  42  64  88 127 175 214 265 338 398
#     4  11  22  42  66  98 136 177 222 274 344 406
#
# _framework density 23.110976999999998
#
# number of rings (size 3 to 8) (size 9 to 14) (size 15 to 20)
#    0.000    1.818    3.636    2.727    0.000    0.727 
#    6.545    0.000    0.000    0.000    0.000    0.000 
#    0.000    0.000    0.000    0.000    0.000    0.000 
#
# Total GULP energy -122911.737804 kJ/mol
# GULP energy per Si atom -5586.897173 kJ/mol
# Density = 2.305838 g / cm^3
# Si number density = 23.110977 Si / 1000 Ang^3
#
#
#
# Elastic Constant Matrix: (Units=GPa)
#
#
# Indices 1 2 3 4 5 6 
#
# 1 59.5298 30.0437 -3.1760 0.0000 -0.6032 0.0000
# 2 30.0437 186.2490 13.0432 0.0000 19.5631 0.0000
# 3 -3.1760 13.0432 38.2553 0.0000 -2.5100 0.0000
# 4 0.0000 0.0000 0.0000 41.8534 0.0000 15.7889
# 5 -0.6032 19.5631 -2.5100 0.0000 25.3264 0.0000
# 6 0.0000 0.0000 0.0000 15.7889 0.0000 51.7978
#
#
#
# Elastic Compliance Matrix: (Units=1/GPa)
#
#
# Indices 1 2 3 4 5 6 
#
# 1 0.018823 -0.003621 0.003030 0.000000 0.003546 0.000000
# 2 -0.003621 0.006749 -0.002969 0.000000 -0.005593 0.000000
# 3 0.003030 -0.002969 0.027739 0.000000 0.005114 0.000000
# 4 0.000000 0.000000 0.000000 0.026997 0.000000 -0.008229
# 5 0.003546 -0.005593 0.005114 0.000000 0.044396 0.000000
# 6 0.000000 0.000000 0.000000 -0.008229 0.000000 0.021814
#
#
# Mechanical properties :
#
#
# Convention : Reuss Voigt Hill
#
# Bulk Modulus (GPa) = 21.64868 40.42845 31.03856
# Shear Modulus (GPa) = 29.57950 40.07040 34.82495
#
# Velocity S-wave (km/s) = 3.58144 4.16844 3.88604
# Velocity P-wave (km/s) = 5.14683 6.37958 5.79607
#
# Compressibility (1/GPa) = 0.04619219
#
# Stress axis : x y z
#
# Youngs Moduli (GPa) = 53.12552 148.17747 36.04982
#
# Poissons Ratio (x) = 0.53655 -0.10923
# Poissons Ratio (y) = 0.19237 0.10702
# Poissons Ratio (z) = -0.16097 0.43988
#
# Static dielectric constant tensor:
#      x y z
#    x 1.737400 0.000000 -0.057220 
#    y 0.000000 1.900680 0.000000 
#    z -0.057220 0.000000 1.820150 
# 
# From -- ./inp_files/25467.got.cif
#   From: 2010.05.17/outbox.cif.g08.bks.cpg/sg15_13_cif.got.tgz:25467.got - 2010.06.03 18:47:42.
