data_PCOD9283327
_publ_section_title
;
Structure prediction by ZEFSAII (Michael W. Deem and Ramdas Pophale) SiO2 
 PCOD9283327
Probable space group: C 2/C
;
_chemical_formula_sum "Si O2"
_cell_formula_units_Z 64
_cell_length_a 12.591231
_cell_length_b 12.811402
_cell_length_c 21.598734
_cell_angle_alpha 90.000000
_cell_angle_beta 110.337327
_cell_angle_gamma 90.000000
_cell_volume 3266.929731
_symmetry_space_group_name_H-M "C 2/C"
_symmetry_group_IT_number 15
_symmetry_cell_setting 'monoclinic'
loop_
_space_group_symop_operation_xyz
x,y,z
-x,y,1/2-z
-x,-y,-z
x,-y,1/2+z
1/2+x,1/2+y,z
1/2-x,1/2+y,1/2-z
1/2-x,1/2-y,-z
1/2+x,1/2-y,1/2+z
loop_
_atom_site_type_symbol
_atom_site_label
_atom_site_fract_x
_atom_site_fract_y
_atom_site_fract_z
Si Si1 0.865989 0.676490 0.719582
Si Si2 0.736867 0.269502 0.319805
Si Si3 0.338389 0.286451 0.967849
Si Si4 0.601317 0.729207 0.513037
Si Si5 0.253371 0.462689 0.799312
Si Si6 0.125350 0.986150 0.300771
Si Si7 0.812612 0.835959 0.599497
Si Si8 0.619275 0.492818 0.059860
O O1 0.810442 0.705057 0.774140
O O2 0.826344 0.558567 0.698096
O O3 0.826826 0.759192 0.660504
O O4 0.000000 0.682403 0.750000
O O5 0.811633 0.266378 0.396766
O O6 0.699125 0.149587 0.302318
O O7 0.645998 0.361789 0.309825
O O8 0.315739 0.410540 0.956914
O O9 0.250000 0.250000 0.000000
O O10 0.471111 0.264994 0.007917
O O11 0.683763 0.823614 0.548474
O O12 0.609978 0.704890 0.441553
O O13 0.655276 0.625106 0.554888
O O14 0.289139 0.473373 0.735339
O O15 0.366598 0.480440 0.864675
O O16 0.000000 0.007891 0.250000
O O17 0.152536 0.050084 0.368699
O O18 0.500000 0.500000 0.000000
#
# Coordination Sequence:
#
# PCOD9283327 Si02
#       8
#     8   8   8   8   8   8   8   8
#     4  11  21  38  64  88 122 165 207 263 317 379
#     4  10  23  42  58  91 128 159 212 255 319 379
#     4  10  22  39  62  90 125 167 206 258 322 381
#     4  10  22  39  65  93 124 165 214 271 311 382
#     4  10  21  40  59  90 124 160 207 257 317 383
#     4  11  25  38  65  92 122 167 210 266 308 375
#     4  11  22  39  65  95 123 162 223 264 320 369
#     4   9  19  35  61  85 119 163 205 254 306 378
#
# _framework density 19.590259
#
# number of rings (size 3 to 8) (size 9 to 14) (size 15 to 20)
#    0.000    1.750    2.500    1.125    7.000    1.500 
#    0.000    5.625    0.000    0.000    0.000    0.000 
#    0.000    0.000    0.000    0.000    0.000    0.000 
#
# Total GULP energy -178413.820459 kJ/mol
# GULP energy per Si atom -5575.431889 kJ/mol
# Density = 1.954567 g / cm^3
# Si number density = 19.590259 Si / 1000 Ang^3
#
#
#
# Elastic Constant Matrix: (Units=GPa)
#
#
# Indices 1 2 3 4 5 6 
#
# 1 71.5177 16.1273 28.4558 0.0000 -10.9488 0.0000
# 2 16.1273 104.3415 32.9323 0.0000 -4.9106 0.0000
# 3 28.4558 32.9323 91.7870 0.0000 -4.3781 0.0000
# 4 0.0000 0.0000 0.0000 11.5877 0.0000 9.6278
# 5 -10.9488 -4.9106 -4.3781 0.0000 18.6162 0.0000
# 6 0.0000 0.0000 0.0000 9.6278 0.0000 17.1056
#
#
#
# Elastic Compliance Matrix: (Units=1/GPa)
#
#
# Indices 1 2 3 4 5 6 
#
# 1 0.017389 -0.000790 -0.004682 0.000000 0.008917 0.000000
# 2 -0.000790 0.010915 -0.003596 0.000000 0.001569 0.000000
# 3 -0.004682 -0.003596 0.013613 0.000000 -0.000501 0.000000
# 4 0.000000 0.000000 0.000000 0.162107 0.000000 -0.091241
# 5 0.008917 0.001569 -0.000501 0.000000 0.059257 0.000000
# 6 0.000000 0.000000 0.000000 -0.091241 0.000000 0.109815
#
#
# Mechanical properties :
#
#
# Convention : Reuss Voigt Hill
#
# Bulk Modulus (GPa) = 42.05337 46.96411 44.50874
# Shear Modulus (GPa) = 12.52633 22.13729 17.33181
#
# Velocity S-wave (km/s) = 2.53141 3.36522 2.97764
# Velocity P-wave (km/s) = 5.48244 6.25498 5.88141
#
# Compressibility (1/GPa) = 0.02377931
#
# Stress axis : x y z
#
# Youngs Moduli (GPa) = 57.50814 91.61729 73.46057
#
# Poissons Ratio (x) = 0.07240 0.34394
# Poissons Ratio (y) = 0.04545 0.26419
# Poissons Ratio (z) = 0.26925 0.32949
#
# Static dielectric constant tensor:
#      x y z
#    x 1.662370 0.000000 0.006900 
#    y 0.000000 1.733420 0.000000 
#    z 0.006900 0.000000 1.729250 
# 
# From -- ./inp_files/268915.got.cif
#   From: 2010.05.17/outbox.cif.g08.bks.cpg/sg15_135_cif.got.tgz:268915.got - 2010.06.03 18:47:42.
