data_PCOD9283324
_publ_section_title
;
Structure prediction by ZEFSAII (Michael W. Deem and Ramdas Pophale) SiO2 
 PCOD9283324
Probable space group: C 2/C
;
_chemical_formula_sum "Si O2"
_cell_formula_units_Z 32
_cell_length_a 12.782476
_cell_length_b 6.629429
_cell_length_c 13.880902
_cell_angle_alpha 90.000000
_cell_angle_beta 82.710277
_cell_angle_gamma 90.000000
_cell_volume 1166.767240
_symmetry_space_group_name_H-M "C 2/C"
_symmetry_group_IT_number 15
_symmetry_cell_setting 'monoclinic'
loop_
_space_group_symop_operation_xyz
x,y,z
-x,y,1/2-z
-x,-y,-z
x,-y,1/2+z
1/2+x,1/2+y,z
1/2-x,1/2+y,1/2-z
1/2-x,1/2-y,-z
1/2+x,1/2-y,1/2+z
loop_
_atom_site_type_symbol
_atom_site_label
_atom_site_fract_x
_atom_site_fract_y
_atom_site_fract_z
Si Si1 0.217573 0.323635 0.896383
Si Si2 0.515258 0.558226 0.862658
Si Si3 0.397032 0.138750 0.492321
Si Si4 0.080456 0.346077 0.166175
O O1 0.121361 0.180332 0.875754
O O2 0.319807 0.293043 0.817833
O O3 0.250000 0.250000 0.000000
O O4 0.182577 0.556939 0.917199
O O5 0.500000 0.589119 0.750000
O O6 0.499618 0.316200 0.875034
O O7 0.427644 0.645338 0.947349
O O8 0.364702 0.027406 0.395950
O O9 0.500000 0.000000 0.500000
O O10 0.000000 0.441321 0.250000
#
# Coordination Sequence:
#
# PCOD9283324 Si02
#       4
#     8   8   8   8
#     4   9  20  39  61  88 121 159 203 252 304 368
#     4  10  21  40  60  91 126 157 209 255 304 376
#     4   9  19  37  60  86 120 159 201 252 301 365
#     4  10  21  40  59  89 125 160 200 258 312 361
#
# _framework density 27.426207999999999
#
# number of rings (size 3 to 8) (size 9 to 14) (size 15 to 20)
#    0.000    2.500    0.000    0.750    0.000   10.000 
#   36.000    0.000    0.000    0.000    0.000    0.000 
#    0.000    0.000    0.000    0.000    0.000    0.000 
#
# Total GULP energy -89189.004837 kJ/mol
# GULP energy per Si atom -5574.312802 kJ/mol
# Density = 2.736378 g / cm^3
# Si number density = 27.426208 Si / 1000 Ang^3
#
#
#
# Elastic Constant Matrix: (Units=GPa)
#
#
# Indices 1 2 3 4 5 6 
#
# 1 112.7121 -6.8428 21.0435 0.0000 -13.5905 0.0000
# 2 -6.8428 106.1568 5.7771 0.0000 3.7688 0.0000
# 3 21.0435 5.7771 64.4609 0.0000 9.1985 0.0000
# 4 0.0000 0.0000 0.0000 23.4727 0.0000 -6.4211
# 5 -13.5905 3.7688 9.1985 0.0000 57.5842 0.0000
# 6 0.0000 0.0000 0.0000 -6.4211 0.0000 38.6405
#
#
#
# Elastic Compliance Matrix: (Units=1/GPa)
#
#
# Indices 1 2 3 4 5 6 
#
# 1 0.009964 0.000742 -0.003733 0.000000 0.002899 0.000000
# 2 0.000742 0.009535 -0.001057 0.000000 -0.000280 0.000000
# 3 -0.003733 -0.001057 0.017338 0.000000 -0.003581 0.000000
# 4 0.000000 0.000000 0.000000 0.044631 0.000000 0.007417
# 5 0.002899 -0.000280 -0.003581 0.000000 0.018641 0.000000
# 6 0.000000 0.000000 0.000000 0.007417 0.000000 0.027112
#
#
# Mechanical properties :
#
#
# Convention : Reuss Voigt Hill
#
# Bulk Modulus (GPa) = 34.79248 35.92059 35.35654
# Shear Modulus (GPa) = 34.50739 41.49629 38.00184
#
# Velocity S-wave (km/s) = 3.55095 3.89397 3.72641
# Velocity P-wave (km/s) = 5.43375 5.77434 5.60663
#
# Compressibility (1/GPa) = 0.02874184
#
# Stress axis : x y z
#
# Youngs Moduli (GPa) = 100.36361 104.87293 57.67772
#
# Poissons Ratio (x) = -0.07787 0.21531
# Poissons Ratio (y) = -0.07452 0.06097
# Poissons Ratio (z) = 0.37465 0.11085
#
# Static dielectric constant tensor:
#      x y z
#    x 2.273140 0.000000 0.001800 
#    y 0.000000 2.219750 0.000000 
#    z 0.001800 0.000000 3.287960 
# 
# From -- ./inp_files/149802.got.cif
#   From: 2010.05.17/outbox.cif.g08.bks.cpg/sg15_75_cif.got.tgz:149802.got - 2010.06.03 18:47:42.
