data_PCOD9283745
_publ_section_title
;
Structure prediction by ZEFSAII (Michael W. Deem and Ramdas Pophale) SiO2 
 PCOD9283745
Probable space group: C 2/C
;
_chemical_formula_sum "Si O2"
_cell_formula_units_Z 48
_cell_length_a 28.488144
_cell_length_b 9.314875
_cell_length_c 8.845823
_cell_angle_alpha 90.000000
_cell_angle_beta 81.408361
_cell_angle_gamma 90.000000
_cell_volume 2321.016947
_symmetry_space_group_name_H-M "C 2/C"
_symmetry_group_IT_number 15
_symmetry_cell_setting 'monoclinic'
loop_
_space_group_symop_operation_xyz
x,y,z
-x,y,1/2-z
-x,-y,-z
x,-y,1/2+z
1/2+x,1/2+y,z
1/2-x,1/2+y,1/2-z
1/2-x,1/2-y,-z
1/2+x,1/2-y,1/2+z
loop_
_atom_site_type_symbol
_atom_site_label
_atom_site_fract_x
_atom_site_fract_y
_atom_site_fract_z
Si Si1 0.153943 0.896480 0.990425
Si Si2 0.905142 0.903985 0.185282
Si Si3 0.460946 0.799856 0.479927
Si Si4 0.216514 0.646766 0.917245
Si Si5 0.000000 0.055197 0.250000
Si Si6 0.747410 0.405892 0.429104
Si Si7 0.000000 0.472495 0.750000
O O1 0.171446 0.746322 0.912892
O O2 0.114874 0.965614 0.902537
O O3 0.197618 0.010674 0.978678
O O4 0.132014 0.870272 0.165258
O O5 0.954638 0.956509 0.235299
O O6 0.913295 0.771682 0.067319
O O7 0.489053 0.663214 0.395418
O O8 0.483094 0.875035 0.618216
O O9 0.461643 0.919125 0.346516
O O10 0.242899 0.606732 0.751880
O O11 0.250000 0.750000 0.000000
O O12 0.211683 0.503347 0.015636
O O13 0.750000 0.250000 0.500000
#
# Coordination Sequence:
#
# PCOD9283745 Si02
#       7
#     8   8   8   8   4   8   4
#     4  11  24  40  64 101 132 168 225 285 327 395
#     4  12  23  40  64  98 135 168 229 289 326 395
#     4  10  21  40  64  90 125 175 223 266 340 398
#     4  10  21  40  65  95 127 172 212 266 342 402
#     4  11  23  40  66  96 123 185 220 276 348 379
#     4  11  21  41  71  93 132 173 216 267 343 422
#     4   9  21  40  66  88 121 171 238 258 328 431
#
# _framework density 20.680592000000001
#
# number of rings (size 3 to 8) (size 9 to 14) (size 15 to 20)
#    0.000    1.333    1.667    6.000    2.333    0.000 
#    0.000    3.333    0.000    0.000    0.000    0.000 
#    0.000    0.000    0.000    0.000    0.000    0.000 
#
# Total GULP energy -133968.152564 kJ/mol
# GULP energy per Si atom -5582.006357 kJ/mol
# Density = 2.063352 g / cm^3
# Si number density = 20.680592 Si / 1000 Ang^3
#
#
#
# Elastic Constant Matrix: (Units=GPa)
#
#
# Indices 1 2 3 4 5 6 
#
# 1 65.6528 34.4798 30.9613 0.0000 -12.1622 0.0000
# 2 34.4798 121.7369 37.2879 0.0000 -5.3259 0.0000
# 3 30.9613 37.2879 134.3333 0.0000 -30.0401 0.0000
# 4 0.0000 0.0000 0.0000 36.6273 0.0000 -0.5927
# 5 -12.1622 -5.3259 -30.0401 0.0000 39.3554 0.0000
# 6 0.0000 0.0000 0.0000 -0.5927 0.0000 35.8668
#
#
#
# Elastic Compliance Matrix: (Units=1/GPa)
#
#
# Indices 1 2 3 4 5 6 
#
# 1 0.019449 -0.004616 -0.002408 0.000000 0.003548 0.000000
# 2 -0.004616 0.010096 -0.002113 0.000000 -0.001673 0.000000
# 3 -0.002408 -0.002113 0.010075 0.000000 0.006660 0.000000
# 4 0.000000 0.000000 0.000000 0.027309 0.000000 0.000451
# 5 0.003548 -0.001673 0.006660 0.000000 0.031363 0.000000
# 6 0.000000 0.000000 0.000000 0.000451 0.000000 0.027888
#
#
# Mechanical properties :
#
#
# Convention : Reuss Voigt Hill
#
# Bulk Modulus (GPa) = 46.84569 58.57565 52.71067
# Shear Modulus (GPa) = 32.98850 36.96949 34.97899
#
# Velocity S-wave (km/s) = 3.99826 4.23264 4.11712
# Velocity P-wave (km/s) = 6.63445 7.22997 6.93860
#
# Compressibility (1/GPa) = 0.02134668
#
# Stress axis : x y z
#
# Youngs Moduli (GPa) = 51.41784 99.05265 99.25620
#
# Poissons Ratio (x) = 0.45719 0.23901
# Poissons Ratio (y) = 0.23733 0.20968
# Poissons Ratio (z) = 0.12381 0.20925
#
# Static dielectric constant tensor:
#      x y z
#    x 1.786750 0.000000 0.004740 
#    y 0.000000 1.757630 0.000000 
#    z 0.004740 0.000000 1.758490 
# 
# From -- ./inp_files/68622.got.cif
#   From: 2010.05.17/outbox.cif.g08.bks.cpg/sg15_35_cif.got.tgz:68622.got - 2010.06.03 18:47:42.
