data_PCOD9283719
_publ_section_title
;
Structure prediction by ZEFSAII (Michael W. Deem and Ramdas Pophale) SiO2 
 PCOD9283719
Probable space group: C 2/C
;
_chemical_formula_sum "Si O2"
_cell_formula_units_Z 52
_cell_length_a 15.033779
_cell_length_b 13.309772
_cell_length_c 16.910434
_cell_angle_alpha 90.000000
_cell_angle_beta 55.895529
_cell_angle_gamma 90.000000
_cell_volume 2801.770552
_symmetry_space_group_name_H-M "C 2/C"
_symmetry_group_IT_number 15
_symmetry_cell_setting 'monoclinic'
loop_
_space_group_symop_operation_xyz
x,y,z
-x,y,1/2-z
-x,-y,-z
x,-y,1/2+z
1/2+x,1/2+y,z
1/2-x,1/2+y,1/2-z
1/2-x,1/2-y,-z
1/2+x,1/2-y,1/2+z
loop_
_atom_site_type_symbol
_atom_site_label
_atom_site_fract_x
_atom_site_fract_y
_atom_site_fract_z
Si Si1 0.995276 0.967920 0.911433
Si Si2 0.631043 0.141525 0.109695
Si Si3 0.703138 0.463905 0.702690
Si Si4 0.000000 0.644266 0.750000
Si Si5 0.657243 0.378211 0.099547
Si Si6 0.848718 0.196217 0.408868
Si Si7 0.589166 0.040757 0.297335
O O1 0.111725 0.949329 0.814772
O O2 0.921389 0.870276 0.932057
O O3 0.937855 0.057645 0.891942
O O4 0.000000 0.000000 0.000000
O O5 0.627599 0.261595 0.118139
O O6 0.633780 0.095169 0.196091
O O7 0.521937 0.097181 0.126178
O O8 0.736122 0.112206 0.007763
O O9 0.683159 0.570876 0.670402
O O10 0.687266 0.380667 0.642298
O O11 0.820502 0.458238 0.681702
O O12 0.081802 0.716293 0.664847
O O13 0.057870 0.570613 0.783624
O O14 0.750000 0.250000 0.500000
#
# Coordination Sequence:
#
# PCOD9283719 Si02
#       7
#     8   8   8   4   8   8   8
#     4  11  24  41  65  93 125 162 213 262 315 374
#     4   9  21  41  61  88 122 165 204 251 309 374
#     4  11  24  41  63  96 124 161 213 263 308 378
#     4  10  22  46  60  92 130 170 210 258 312 386
#     4  10  21  40  64  87 124 159 207 258 310 363
#     4  11  24  43  66  90 131 171 210 262 324 377
#     4  10  24  38  65  87 128 164 207 254 312 371
#
# _framework density 18.559691999999998
#
# number of rings (size 3 to 8) (size 9 to 14) (size 15 to 20)
#    0.000    1.846    1.538    2.308   15.077    3.077 
#    5.538    0.000    0.000    0.000    0.000    0.000 
#    0.000    0.000    0.000    0.000    0.000    0.000 
#
# Total GULP energy -145243.454208 kJ/mol
# GULP energy per Si atom -5586.286700 kJ/mol
# Density = 1.851745 g / cm^3
# Si number density = 18.559692 Si / 1000 Ang^3
#
#
#
# Elastic Constant Matrix: (Units=GPa)
#
#
# Indices 1 2 3 4 5 6 
#
# 1 139.8734 49.9596 35.6654 0.0000 4.0082 0.0000
# 2 49.9596 115.1468 40.2287 0.0000 -14.3516 0.0000
# 3 35.6654 40.2287 86.2723 0.0000 -18.0971 0.0000
# 4 0.0000 0.0000 0.0000 30.8419 0.0000 -10.3330
# 5 4.0082 -14.3516 -18.0971 0.0000 25.5529 0.0000
# 6 0.0000 0.0000 0.0000 -10.3330 0.0000 11.2964
#
#
#
# Elastic Compliance Matrix: (Units=1/GPa)
#
#
# Indices 1 2 3 4 5 6 
#
# 1 0.009520 -0.003661 -0.003492 0.000000 -0.006022 0.000000
# 2 -0.003661 0.011959 -0.002975 0.000000 0.005184 0.000000
# 3 -0.003492 -0.002975 0.016662 0.000000 0.010677 0.000000
# 4 0.000000 0.000000 0.000000 0.046751 0.000000 0.042764
# 5 -0.006022 0.005184 0.010677 0.000000 0.050552 0.000000
# 6 0.000000 0.000000 0.000000 0.042764 0.000000 0.127641
#
#
# Mechanical properties :
#
#
# Convention : Reuss Voigt Hill
#
# Bulk Modulus (GPa) = 55.91676 65.88889 60.90282
# Shear Modulus (GPa) = 17.28301 27.90082 22.59192
#
# Velocity S-wave (km/s) = 3.05489 3.88145 3.49271
# Velocity P-wave (km/s) = 6.52967 7.46094 7.01079
#
# Compressibility (1/GPa) = 0.01788373
#
# Stress axis : x y z
#
# Youngs Moduli (GPa) = 105.04293 83.62134 60.01776
#
# Poissons Ratio (x) = 0.30616 0.20956
# Poissons Ratio (y) = 0.38459 0.17858
# Poissons Ratio (z) = 0.36677 0.24881
#
# Static dielectric constant tensor:
#      x y z
#    x 1.620290 0.000000 -0.004580 
#    y 0.000000 1.621710 0.000000 
#    z -0.004580 0.000000 1.623820 
# 
# From -- ./inp_files/203894.got.cif
#   From: 2010.05.17/outbox.cif.g08.bks.cpg/sg15_102_cif.got.tgz:203894.got - 2010.06.03 18:47:42.
