data_PCOD9283421
_publ_section_title
;
Structure prediction by ZEFSAII (Michael W. Deem and Ramdas Pophale) SiO2 
 PCOD9283421
Probable space group: C 2/C
;
_chemical_formula_sum "Si O2"
_cell_formula_units_Z 64
_cell_length_a 27.819032
_cell_length_b 15.484884
_cell_length_c 9.049493
_cell_angle_alpha 90.000000
_cell_angle_beta 58.423308
_cell_angle_gamma 90.000000
_cell_volume 3321.109841
_symmetry_space_group_name_H-M "C 2/C"
_symmetry_group_IT_number 15
_symmetry_cell_setting 'monoclinic'
loop_
_space_group_symop_operation_xyz
x,y,z
-x,y,1/2-z
-x,-y,-z
x,-y,1/2+z
1/2+x,1/2+y,z
1/2-x,1/2+y,1/2-z
1/2-x,1/2-y,-z
1/2+x,1/2-y,1/2+z
loop_
_atom_site_type_symbol
_atom_site_label
_atom_site_fract_x
_atom_site_fract_y
_atom_site_fract_z
Si Si1 0.102735 0.404758 0.713023
Si Si2 0.774346 0.626886 0.566013
Si Si3 0.510018 0.592569 0.558784
Si Si4 0.695378 0.326229 0.931509
Si Si5 0.040750 0.520267 0.572510
Si Si6 0.135486 0.918423 0.784691
Si Si7 0.402915 0.704644 0.699735
Si Si8 0.662601 0.406566 0.399663
O O1 0.166352 0.418692 0.554880
O O2 0.063611 0.445667 0.646235
O O3 0.091716 0.303301 0.758388
O O4 0.092393 0.442404 0.894453
O O5 0.741599 0.629546 0.461776
O O6 0.789110 0.725305 0.589332
O O7 0.728947 0.591885 0.755209
O O8 0.500000 0.583956 0.750000
O O9 0.500000 0.500000 0.500000
O O10 0.573496 0.619947 0.416048
O O11 0.463051 0.660589 0.582368
O O12 0.684584 0.366155 0.790045
O O13 0.635254 0.338276 0.110582
O O14 0.000000 0.574501 0.750000
O O15 0.000000 0.500000 0.500000
O O16 0.148428 0.919761 0.591776
O O17 0.135409 0.014653 0.852120
O O18 0.364414 0.682637 0.618860
#
# Coordination Sequence:
#
# PCOD9283421 Si02
#       8
#     8   8   8   8   8   8   8   8
#     4  10  21  41  68  91 121 163 213 261 323 394
#     4   9  20  39  64  89 121 166 210 267 313 372
#     4  12  23  37  59  89 129 172 214 258 309 382
#     4   9  19  40  61  86 124 165 212 261 319 367
#     4   9  20  41  63  88 121 153 194 261 326 370
#     4  12  23  38  60  90 130 176 214 260 323 384
#     4  10  21  40  61  90 124 166 217 258 321 382
#     4  11  23  39  60  89 133 171 211 266 320 373
#
# _framework density 19.270668000000001
#
# number of rings (size 3 to 8) (size 9 to 14) (size 15 to 20)
#    0.000    1.750    2.500    3.000    0.000    4.000 
#    2.250    3.750    0.000    0.000    0.000    0.000 
#    0.000    0.000    0.000    0.000    0.000    0.000 
#
# Total GULP energy -178293.500972 kJ/mol
# GULP energy per Si atom -5571.671905 kJ/mol
# Density = 1.922681 g / cm^3
# Si number density = 19.270668 Si / 1000 Ang^3
#
#
#
# Elastic Constant Matrix: (Units=GPa)
#
#
# Indices 1 2 3 4 5 6 
#
# 1 104.1811 39.2495 65.2382 0.0000 -12.4792 0.0000
# 2 39.2495 51.0328 26.8506 0.0000 3.9783 0.0000
# 3 65.2382 26.8506 160.9762 0.0000 4.1119 0.0000
# 4 0.0000 0.0000 0.0000 24.1155 0.0000 -0.4632
# 5 -12.4792 3.9783 4.1119 0.0000 45.2143 0.0000
# 6 0.0000 0.0000 0.0000 -0.4632 0.0000 27.3972
#
#
#
# Elastic Compliance Matrix: (Units=1/GPa)
#
#
# Indices 1 2 3 4 5 6 
#
# 1 0.018301 -0.011617 -0.005647 0.000000 0.006587 0.000000
# 2 -0.011617 0.028967 0.000024 0.000000 -0.005757 0.000000
# 3 -0.005647 0.000024 0.008556 0.000000 -0.002339 0.000000
# 4 0.000000 0.000000 0.000000 0.041481 0.000000 0.000701
# 5 0.006587 -0.005757 -0.002339 0.000000 0.024654 0.000000
# 6 0.000000 0.000000 0.000000 0.000701 0.000000 0.036512
#
#
# Mechanical properties :
#
#
# Convention : Reuss Voigt Hill
#
# Bulk Modulus (GPa) = 46.85605 64.31852 55.58728
# Shear Modulus (GPa) = 24.99173 31.66884 28.33029
#
# Velocity S-wave (km/s) = 3.60513 4.05825 3.83838
# Velocity P-wave (km/s) = 6.45730 7.44366 6.96795
#
# Compressibility (1/GPa) = 0.02134196
#
# Stress axis : x y z
#
# Youngs Moduli (GPa) = 54.64286 34.52252 116.87024
#
# Poissons Ratio (x) = 0.40106 0.65998
# Poissons Ratio (y) = 0.63481 -0.00276
# Poissons Ratio (z) = 0.30858 -0.00081
#
# Static dielectric constant tensor:
#      x y z
#    x 1.719910 0.000000 -0.026350 
#    y 0.000000 1.696750 0.000000 
#    z -0.026350 0.000000 1.685920 
# 
# From -- ./inp_files/69938.got.cif
#   From: 2010.05.17/outbox.cif.g08.bks.cpg/sg15_35_cif.got.tgz:69938.got - 2010.06.03 18:47:42.
