data_PCOD9283979
_publ_section_title
;
Structure prediction by ZEFSAII (Michael W. Deem and Ramdas Pophale) SiO2 
 PCOD9283979
Probable space group: C 2/C
;
_chemical_formula_sum "Si O2"
_cell_formula_units_Z 52
_cell_length_a 8.406567
_cell_length_b 15.113366
_cell_length_c 29.714914
_cell_angle_alpha 90.000000
_cell_angle_beta 40.284361
_cell_angle_gamma 90.000000
_cell_volume 2441.055685
_symmetry_space_group_name_H-M "C 2/C"
_symmetry_group_IT_number 15
_symmetry_cell_setting 'monoclinic'
loop_
_space_group_symop_operation_xyz
x,y,z
-x,y,1/2-z
-x,-y,-z
x,-y,1/2+z
1/2+x,1/2+y,z
1/2-x,1/2+y,1/2-z
1/2-x,1/2-y,-z
1/2+x,1/2-y,1/2+z
loop_
_atom_site_type_symbol
_atom_site_label
_atom_site_fract_x
_atom_site_fract_y
_atom_site_fract_z
Si Si1 0.034657 0.499736 0.412270
Si Si2 0.500000 0.015831 0.750000
Si Si3 0.089771 0.241087 0.607781
Si Si4 0.051849 0.312186 0.947251
Si Si5 0.533026 0.587466 0.796431
Si Si6 0.805439 0.573428 0.377499
Si Si7 0.287351 0.648821 0.477491
O O1 0.953064 0.593095 0.451242
O O2 0.912428 0.502176 0.389338
O O3 0.933241 0.416473 0.461636
O O4 0.329058 0.490329 0.346272
O O5 0.655558 0.958322 0.681276
O O6 0.300533 0.063988 0.759962
O O7 0.909765 0.248137 0.603377
O O8 0.350247 0.228727 0.525049
O O9 0.064426 0.333883 0.638964
O O10 0.052135 0.166296 0.652386
O O11 0.292648 0.338284 0.922778
O O12 0.500000 0.609751 0.750000
O O13 0.522383 0.598703 0.445729
O O14 0.250000 0.750000 0.500000
#
# Coordination Sequence:
#
# PCOD9283979 Si02
#       7
#     8   4   8   8   8   8   8
#     4  11  23  42  70  95 139 184 223 293 352 413
#     4  12  28  44  70  98 134 190 240 278 344 436
#     4  10  23  43  67  95 139 178 227 289 351 417
#     4  10  21  40  65  99 130 174 223 287 357 406
#     4  12  25  49  67  98 140 189 239 283 350 423
#     4  11  24  44  64 103 139 181 236 281 353 424
#     4  12  22  39  68 107 136 175 224 296 353 408
#
# _framework density 21.30226
#
# number of rings (size 3 to 8) (size 9 to 14) (size 15 to 20)
#    0.000    0.923    4.615    1.846    3.231    1.231 
#    2.769    3.077    0.000    0.000    0.000    0.000 
#    0.000    0.000    0.000    0.000    0.000    0.000 
#
# Total GULP energy -144840.325617 kJ/mol
# GULP energy per Si atom -5570.781755 kJ/mol
# Density = 2.125378 g / cm^3
# Si number density = 21.302260 Si / 1000 Ang^3
#
#
#
# Elastic Constant Matrix: (Units=GPa)
#
#
# Indices 1 2 3 4 5 6 
#
# 1 160.2145 31.9962 42.0262 0.0018 14.9556 -0.0015
# 2 31.9962 52.9367 21.3714 0.0021 22.0738 0.0000
# 3 42.0262 21.3714 57.5102 0.0035 19.7034 0.0012
# 4 0.0018 0.0021 0.0035 20.6214 -0.0015 14.1706
# 5 14.9556 22.0738 19.7034 -0.0015 44.5022 0.0001
# 6 -0.0015 0.0000 0.0012 14.1706 0.0001 32.7336
#
#
#
# Elastic Compliance Matrix: (Units=1/GPa)
#
#
# Indices 1 2 3 4 5 6 
#
# 1 0.008141 -0.003354 -0.005111 0.000000 0.001190 0.000000
# 2 -0.003354 0.026872 -0.003955 -0.000004 -0.010451 0.000002
# 3 -0.005111 -0.003955 0.025146 -0.000004 -0.007455 0.000001
# 4 0.000000 -0.000004 -0.000004 0.069028 0.000006 -0.029883
# 5 0.001190 -0.010451 -0.007455 0.000006 0.030555 -0.000002
# 6 0.000000 0.000002 0.000001 -0.029883 -0.000002 0.043486
#
#
# Mechanical properties :
#
#
# Convention : Reuss Voigt Hill
#
# Bulk Modulus (GPa) = 28.31137 51.27211 39.79174
# Shear Modulus (GPa) = 20.84725 31.25595 26.05160
#
# Velocity S-wave (km/s) = 3.13172 3.83464 3.50086
# Velocity P-wave (km/s) = 5.13771 6.61264 5.92128
#
# Compressibility (1/GPa) = 0.03532150
#
# Stress axis : x y z
#
# Youngs Moduli (GPa) = 122.83749 37.21358 39.76717
#
# Poissons Ratio (x) = 0.12480 0.20323
# Poissons Ratio (y) = 0.41195 0.15726
# Poissons Ratio (z) = 0.62777 0.14716
#
# Static dielectric constant tensor:
#      x y z
#    x 1.933470 0.000000 0.006310 
#    y 0.000000 1.765870 0.000000 
#    z 0.006310 0.000000 1.854820 
# 
# From -- ./inp_files/308200.got.cif
#   From: 2010.05.17/outbox.cif.g08.bks.cpg/sg15_155_cif.got.tgz:308200.got - 2010.06.03 18:47:42.
