data_PCOD9283947
_publ_section_title
;
Structure prediction by ZEFSAII (Michael W. Deem and Ramdas Pophale) SiO2 
 PCOD9283947
Probable space group: C 2/C
;
_chemical_formula_sum "Si O2"
_cell_formula_units_Z 64
_cell_length_a 17.521296
_cell_length_b 14.401766
_cell_length_c 23.781985
_cell_angle_alpha 90.000000
_cell_angle_beta 25.647896
_cell_angle_gamma 90.000000
_cell_volume 2597.508291
_symmetry_space_group_name_H-M "C 2/C"
_symmetry_group_IT_number 15
_symmetry_cell_setting 'monoclinic'
loop_
_space_group_symop_operation_xyz
x,y,z
-x,y,1/2-z
-x,-y,-z
x,-y,1/2+z
1/2+x,1/2+y,z
1/2-x,1/2+y,1/2-z
1/2-x,1/2-y,-z
1/2+x,1/2-y,1/2+z
loop_
_atom_site_type_symbol
_atom_site_label
_atom_site_fract_x
_atom_site_fract_y
_atom_site_fract_z
Si Si1 0.670304 0.295759 0.945629
Si Si2 0.297955 0.900954 0.115176
Si Si3 0.794865 0.135802 0.703903
Si Si4 0.680135 0.874707 0.094560
Si Si5 0.999831 0.233814 0.367239
Si Si6 0.137492 0.578921 0.105717
Si Si7 0.217853 0.399850 0.854989
Si Si8 0.306938 0.936484 0.759430
O O1 0.742031 0.191932 0.892382
O O2 0.733632 0.339103 0.962690
O O3 0.728755 0.365369 0.856481
O O4 0.461853 0.303389 0.077719
O O5 0.181021 0.897993 0.248999
O O6 0.263545 0.007085 0.119517
O O7 0.504152 0.888994 0.997267
O O8 0.636126 0.207461 0.811918
O O9 0.749202 0.045259 0.695959
O O10 0.500000 0.876154 0.250000
O O11 0.617665 0.813623 0.083628
O O12 0.729333 0.979676 0.047584
O O13 0.861181 0.827447 0.994354
O O14 0.125753 0.175771 0.239719
O O15 0.000000 0.579908 0.250000
O O16 0.016249 0.577720 0.130995
O O17 0.243871 0.414638 0.770320
#
# Coordination Sequence:
#
# PCOD9283947 Si02
#       8
#     8   8   8   8   8   8   8   8
#     4  11  22  38  68  97 132 174 225 280 339 387
#     4  10  23  40  59  94 132 171 223 268 324 395
#     4  11  22  38  64 100 130 173 219 283 334 393
#     4  10  23  39  61  94 134 168 209 270 340 396
#     4  11  22  38  63  97 129 167 216 267 334 402
#     4   9  20  40  63  93 132 166 212 278 337 385
#     4  10  22  41  66  92 132 180 218 269 331 397
#     4  10  21  40  65  95 131 167 223 281 336 396
#
# _framework density 24.638997
#
# number of rings (size 3 to 8) (size 9 to 14) (size 15 to 20)
#    0.000    1.750    2.500    1.125    5.250    1.000 
#    0.000    0.625    2.750    2.250    0.000    0.000 
#    0.000    0.000    0.000    0.000    0.000    0.000 
#
# Total GULP energy -178463.143982 kJ/mol
# GULP energy per Si atom -5576.973249 kJ/mol
# Density = 2.458292 g / cm^3
# Si number density = 24.638997 Si / 1000 Ang^3
#
#
#
# Elastic Constant Matrix: (Units=GPa)
#
#
# Indices 1 2 3 4 5 6 
#
# 1 44.0511 23.5250 -4.4074 0.0058 -14.6074 0.0036
# 2 23.5250 127.5012 3.6818 0.0285 -11.6202 0.0045
# 3 -4.4074 3.6818 43.3804 0.0615 3.0913 0.0018
# 4 0.0058 0.0285 0.0615 31.4187 -0.0046 -2.7720
# 5 -14.6074 -11.6202 3.0913 -0.0046 20.8145 -0.0040
# 6 0.0036 0.0045 0.0018 -2.7720 -0.0040 27.4952
#
#
#
# Elastic Compliance Matrix: (Units=1/GPa)
#
#
# Indices 1 2 3 4 5 6 
#
# 1 0.031598 -0.004110 0.002165 -0.000004 0.019559 -0.000001
# 2 -0.004110 0.008845 -0.001329 -0.000004 0.002251 -0.000001
# 3 0.002165 -0.001329 0.023579 -0.000046 -0.002724 -0.000007
# 4 -0.000004 -0.000004 -0.000046 0.032114 0.000010 0.003238
# 5 0.019559 0.002251 -0.002724 0.000010 0.063431 0.000008
# 6 -0.000001 -0.000001 -0.000007 0.003238 0.000008 0.036696
#
#
# Mechanical properties :
#
#
# Convention : Reuss Voigt Hill
#
# Bulk Modulus (GPa) = 17.39874 28.94794 23.17334
# Shear Modulus (GPa) = 22.52572 28.75456 25.64014
#
# Velocity S-wave (km/s) = 3.02690 3.41989 3.22938
# Velocity P-wave (km/s) = 4.39238 5.23150 4.83020
#
# Compressibility (1/GPa) = 0.05747544
#
# Stress axis : x y z
#
# Youngs Moduli (GPa) = 31.64722 113.05928 42.41091
#
# Poissons Ratio (x) = 0.46468 -0.09184
# Poissons Ratio (y) = 0.13007 0.05635
# Poissons Ratio (z) = -0.06853 0.15022
#
# Static dielectric constant tensor:
#      x y z
#    x 2.019330 0.000000 -0.021450 
#    y 0.000000 2.017980 0.000010 
#    z -0.021450 0.000010 2.039010 
# 
# From -- ./inp_files/317988.got.cif
#   From: 2010.05.17/outbox.cif.g08.bks.cpg/sg15_159_cif.got.tgz:317988.got - 2010.06.03 18:47:42.
