data_PCOD9283997
_publ_section_title
;
Structure prediction by ZEFSAII (Michael W. Deem and Ramdas Pophale) SiO2 
 PCOD9283997
Probable space group: C 2/C
;
_chemical_formula_sum "Si O2"
_cell_formula_units_Z 64
_cell_length_a 15.389645
_cell_length_b 16.645742
_cell_length_c 14.276299
_cell_angle_alpha 90.000000
_cell_angle_beta 127.882727
_cell_angle_gamma 90.000000
_cell_volume 2886.506717
_symmetry_space_group_name_H-M "C 2/C"
_symmetry_group_IT_number 15
_symmetry_cell_setting 'monoclinic'
loop_
_space_group_symop_operation_xyz
x,y,z
-x,y,1/2-z
-x,-y,-z
x,-y,1/2+z
1/2+x,1/2+y,z
1/2-x,1/2+y,1/2-z
1/2-x,1/2-y,-z
1/2+x,1/2-y,1/2+z
loop_
_atom_site_type_symbol
_atom_site_label
_atom_site_fract_x
_atom_site_fract_y
_atom_site_fract_z
Si Si1 0.096409 0.331795 0.885364
Si Si2 0.816533 0.804456 0.948617
Si Si3 0.297010 0.843668 0.294778
Si Si4 0.168058 0.219470 0.528268
Si Si5 0.889961 0.930966 0.621590
Si Si6 0.770863 0.481803 0.831021
Si Si7 0.615751 0.540110 0.053121
Si Si8 0.974799 0.371632 0.997133
O O1 0.211737 0.355962 0.914296
O O2 0.000000 0.342746 0.750000
O O3 0.046046 0.363235 0.948867
O O4 0.127876 0.239580 0.927445
O O5 0.788272 0.736419 0.853318
O O6 0.904237 0.865475 0.966854
O O7 0.233342 0.824735 0.156502
O O8 0.425366 0.868133 0.361401
O O9 0.256166 0.921598 0.326370
O O10 0.250000 0.250000 0.500000
O O11 0.097612 0.151716 0.427244
O O12 0.099635 0.293357 0.527997
O O13 0.796915 0.930910 0.638535
O O14 0.000000 0.952002 0.750000
O O15 0.855390 0.998631 0.525237
O O16 0.713034 0.467208 0.692857
O O17 0.893787 0.447194 0.927423
O O18 0.500000 0.500000 0.000000
#
# Coordination Sequence:
#
# PCOD9283997 Si02
#       8
#     8   8   8   8   8   8   8   8
#     4  10  21  40  66 101 135 183 234 286 356 427
#     4  10  25  42  68 103 140 181 238 296 354 433
#     4  11  26  47  74 104 144 192 241 296 368 435
#     4  12  26  47  73 106 142 191 248 305 366 446
#     4  12  28  45  72 109 146 191 239 307 372 435
#     4  12  25  49  68 105 149 184 246 299 361 432
#     4  12  26  45  71 104 143 189 238 303 367 433
#     4  11  26  45  75 101 144 194 238 303 359 436
#
# _framework density 22.172129000000002
#
# number of rings (size 3 to 8) (size 9 to 14) (size 15 to 20)
#    0.000    0.750    3.750    2.625   10.500    1.500 
#    0.000    0.000    0.000    0.000    0.000    0.000 
#    0.000    0.000    0.000    0.000    0.000    0.000 
#
# Total GULP energy -178504.775878 kJ/mol
# GULP energy per Si atom -5578.274246 kJ/mol
# Density = 2.212166 g / cm^3
# Si number density = 22.172129 Si / 1000 Ang^3
#
#
#
# Elastic Constant Matrix: (Units=GPa)
#
#
# Indices 1 2 3 4 5 6 
#
# 1 88.1481 14.0802 11.0445 0.0000 -1.1642 0.0000
# 2 14.0802 97.3393 3.8833 0.0000 -13.5826 0.0000
# 3 11.0445 3.8833 75.5240 0.0000 -16.9340 0.0000
# 4 0.0000 0.0000 0.0000 24.7660 0.0000 6.2358
# 5 -1.1642 -13.5826 -16.9340 0.0000 31.9417 0.0000
# 6 0.0000 0.0000 0.0000 6.2358 0.0000 26.2176
#
#
#
# Elastic Compliance Matrix: (Units=1/GPa)
#
#
# Indices 1 2 3 4 5 6 
#
# 1 0.011863 -0.001831 -0.001950 0.000000 -0.001380 0.000000
# 2 -0.001831 0.011224 0.000846 0.000000 0.005155 0.000000
# 3 -0.001950 0.000846 0.015375 0.000000 0.008440 0.000000
# 4 0.000000 0.000000 0.000000 0.042950 0.000000 -0.010216
# 5 -0.001380 0.005155 0.008440 0.000000 0.037923 0.000000
# 6 0.000000 0.000000 0.000000 -0.010216 0.000000 0.040572
#
#
# Mechanical properties :
#
#
# Convention : Reuss Voigt Hill
#
# Bulk Modulus (GPa) = 30.68173 35.44749 33.06461
# Shear Modulus (GPa) = 28.30613 32.05195 30.17904
#
# Velocity S-wave (km/s) = 3.57691 3.80622 3.69335
# Velocity P-wave (km/s) = 5.56121 5.94463 5.75611
#
# Compressibility (1/GPa) = 0.03259268
#
# Stress axis : x y z
#
# Youngs Moduli (GPa) = 84.29500 89.09743 65.04115
#
# Poissons Ratio (x) = 0.16312 0.12684
# Poissons Ratio (y) = 0.15432 -0.05505
# Poissons Ratio (z) = 0.16439 -0.07541
#
# Static dielectric constant tensor:
#      x y z
#    x 2.284870 0.000000 0.046940 
#    y 0.000000 1.879400 0.000000 
#    z 0.046940 0.000000 1.860100 
# 
# From -- ./inp_files/155508.got.cif
#   From: 2010.05.17/outbox.cif.g08.bks.cpg/sg15_78_cif.got.tgz:155508.got - 2010.06.03 18:47:42.
