data_PCOD9283962
_publ_section_title
;
Structure prediction by ZEFSAII (Michael W. Deem and Ramdas Pophale) SiO2 
 PCOD9283962
Probable space group: C 2/C
;
_chemical_formula_sum "Si O2"
_cell_formula_units_Z 44
_cell_length_a 25.833383
_cell_length_b 6.447655
_cell_length_c 13.575145
_cell_angle_alpha 90.000000
_cell_angle_beta 120.321539
_cell_angle_gamma 90.000000
_cell_volume 1951.829659
_symmetry_space_group_name_H-M "C 2/C"
_symmetry_group_IT_number 15
_symmetry_cell_setting 'monoclinic'
loop_
_space_group_symop_operation_xyz
x,y,z
-x,y,1/2-z
-x,-y,-z
x,-y,1/2+z
1/2+x,1/2+y,z
1/2-x,1/2+y,1/2-z
1/2-x,1/2-y,-z
1/2+x,1/2-y,1/2+z
loop_
_atom_site_type_symbol
_atom_site_label
_atom_site_fract_x
_atom_site_fract_y
_atom_site_fract_z
Si Si1 0.846917 0.302950 0.441846
Si Si2 0.687376 0.960323 0.772974
Si Si3 0.421839 0.220517 0.752117
Si Si4 0.453022 0.875852 0.063789
Si Si5 0.250000 0.250000 0.000000
Si Si6 0.393420 0.421480 0.362360
O O1 0.803254 0.432275 0.324782
O O2 0.909814 0.429164 0.505065
O O3 0.816614 0.305292 0.519328
O O4 0.863065 0.084228 0.408279
O O5 0.656338 0.738293 0.724171
O O6 0.639919 0.113992 0.777624
O O7 0.741205 0.913595 0.898082
O O8 0.476729 0.089045 0.851434
O O9 0.430778 0.226106 0.644621
O O10 0.421268 0.445833 0.800801
O O11 0.441968 0.713688 0.966539
#
# Coordination Sequence:
#
# PCOD9283962 Si02
#       6
#     8   8   8   8   4   8
#     4  10  24  44  64  96 126 167 218 266 328 383
#     4  10  24  44  64  96 126 167 218 266 328 383
#     4  10  21  40  65  96 132 166 204 260 326 391
#     4  10  21  40  65  96 132 166 204 260 326 391
#     4  12  24  44  68  86 128 174 212 270 318 374
#     4  10  23  40  64  96 124 162 215 258 316 398
#
# _framework density 22.542950000000001
#
# number of rings (size 3 to 8) (size 9 to 14) (size 15 to 20)
#    0.000    1.818    1.818    0.545    5.091    8.000 
#    0.000   10.909    0.000    0.000    0.000    0.000 
#    0.000    0.000    0.000    0.000    0.000    0.000 
#
# Total GULP energy -122516.796462 kJ/mol
# GULP energy per Si atom -5568.945294 kJ/mol
# Density = 2.249164 g / cm^3
# Si number density = 22.542950 Si / 1000 Ang^3
#
#
#
# Elastic Constant Matrix: (Units=GPa)
#
#
# Indices 1 2 3 4 5 6 
#
# 1 25.3762 -13.4591 3.2317 0.0000 -16.1186 0.0000
# 2 -13.4591 63.0581 19.2750 0.0000 -5.6522 0.0000
# 3 3.2317 19.2750 65.0674 0.0000 -2.7586 0.0000
# 4 0.0000 0.0000 0.0000 21.5623 0.0000 -2.9416
# 5 -16.1186 -5.6522 -2.7586 0.0000 35.2185 0.0000
# 6 0.0000 0.0000 0.0000 -2.9416 0.0000 17.7774
#
#
#
# Elastic Compliance Matrix: (Units=1/GPa)
#
#
# Indices 1 2 3 4 5 6 
#
# 1 0.076526 0.022436 -0.008839 0.000000 0.037932 0.000000
# 2 0.022436 0.024220 -0.007714 0.000000 0.013551 0.000000
# 3 -0.008839 -0.007714 0.017928 0.000000 -0.003879 0.000000
# 4 0.000000 0.000000 0.000000 0.047448 0.000000 0.007851
# 5 0.037932 0.013551 -0.003879 0.000000 0.047626 0.000000
# 6 0.000000 0.000000 0.000000 0.007851 0.000000 0.057550
#
#
# Mechanical properties :
#
#
# Convention : Reuss Voigt Hill
#
# Bulk Modulus (GPa) = 7.66642 19.06633 13.36637
# Shear Modulus (GPa) = 16.50090 24.54193 20.52141
#
# Velocity S-wave (km/s) = 2.70844 3.30309 3.02043
# Velocity P-wave (km/s) = 3.63167 4.79826 4.25514
#
# Compressibility (1/GPa) = 0.13043902
#
# Stress axis : x y z
#
# Youngs Moduli (GPa) = 13.06743 41.28861 55.77715
#
# Poissons Ratio (x) = -0.92633 0.49300
# Poissons Ratio (y) = -0.29317 0.43029
# Poissons Ratio (z) = 0.11550 0.31852
#
# Static dielectric constant tensor:
#      x y z
#    x 0.836330 0.000000 -0.080250 
#    y 0.000000 1.816820 0.000000 
#    z -0.080250 0.000000 1.887060 
# 
# From -- ./inp_files/175776.got.cif
#   From: 2010.05.17/outbox.cif.g08.bks.cpg/sg15_88_cif.got.tgz:175776.got - 2010.06.03 18:47:42.
