data_PCOD9283810
_publ_section_title
;
Structure prediction by ZEFSAII (Michael W. Deem and Ramdas Pophale) SiO2 
 PCOD9283810
Probable space group: C 2/C
;
_chemical_formula_sum "Si O2"
_cell_formula_units_Z 56
_cell_length_a 12.163889
_cell_length_b 14.141469
_cell_length_c 29.244933
_cell_angle_alpha 90.000000
_cell_angle_beta 29.084820
_cell_angle_gamma 90.000000
_cell_volume 2445.381821
_symmetry_space_group_name_H-M "C 2/C"
_symmetry_group_IT_number 15
_symmetry_cell_setting 'monoclinic'
loop_
_space_group_symop_operation_xyz
x,y,z
-x,y,1/2-z
-x,-y,-z
x,-y,1/2+z
1/2+x,1/2+y,z
1/2-x,1/2+y,1/2-z
1/2-x,1/2-y,-z
1/2+x,1/2-y,1/2+z
loop_
_atom_site_type_symbol
_atom_site_label
_atom_site_fract_x
_atom_site_fract_y
_atom_site_fract_z
Si Si1 0.197169 0.750093 0.093256
Si Si2 0.253451 0.888416 0.343634
Si Si3 0.477300 0.448870 0.160492
Si Si4 0.591284 0.323364 0.498383
Si Si5 0.785222 0.616187 0.024712
Si Si6 0.240750 0.482741 0.330181
Si Si7 0.404033 0.192750 0.121932
O O1 0.079855 0.851052 0.142120
O O2 0.018175 0.687490 0.130443
O O3 0.324081 0.699310 0.088768
O O4 0.399389 0.775049 0.984359
O O5 0.500000 0.932305 0.250000
O O6 0.170781 0.882904 0.425693
O O7 0.264802 0.780895 0.319271
O O8 0.076836 0.935563 0.373259
O O9 0.252321 0.467556 0.271238
O O10 0.649444 0.536157 0.101391
O O11 0.665363 0.368513 0.519124
O O12 0.707751 0.219153 0.454837
O O13 0.041409 0.579883 0.923770
O O14 0.500000 0.463274 0.250000
O O15 0.188671 0.592076 0.358132
#
# Coordination Sequence:
#
# PCOD9283810 Si02
#       7
#     8   8   8   8   8   8   8
#     4   9  18  40  64  90 119 169 210 257 319 382
#     4  10  21  40  64  95 128 173 219 261 323 389
#     4  11  24  41  67  96 129 167 220 272 314 389
#     4  10  23  41  68  87 130 177 206 264 332 374
#     4  11  25  44  62  98 133 164 224 268 318 391
#     4  12  25  39  65 100 130 169 211 277 330 375
#     4   9  19  35  63  95 123 159 216 261 314 385
#
# _framework density 22.900310999999999
#
# number of rings (size 3 to 8) (size 9 to 14) (size 15 to 20)
#    0.000    1.714    1.429    3.000    6.000    1.714 
#    5.143    0.000    0.000    0.000    0.000    0.000 
#    0.000    0.000    0.000    0.000    0.000    0.000 
#
# Total GULP energy -156481.801179 kJ/mol
# GULP energy per Si atom -5588.635756 kJ/mol
# Density = 2.284819 g / cm^3
# Si number density = 22.900311 Si / 1000 Ang^3
#
#
#
# Elastic Constant Matrix: (Units=GPa)
#
#
# Indices 1 2 3 4 5 6 
#
# 1 121.6222 8.0648 -3.9515 0.0038 -14.4835 0.0056
# 2 8.0648 60.6596 13.2591 0.0003 -5.8795 0.0021
# 3 -3.9515 13.2591 49.5561 0.0200 -6.1511 0.0164
# 4 0.0038 0.0003 0.0200 14.4584 -0.0086 0.1208
# 5 -14.4835 -5.8795 -6.1511 -0.0086 31.9711 -0.0037
# 6 0.0056 0.0021 0.0164 0.1208 -0.0037 17.0614
#
#
#
# Elastic Compliance Matrix: (Units=1/GPa)
#
#
# Indices 1 2 3 4 5 6 
#
# 1 0.008831 -0.001108 0.001508 -0.000002 0.004087 -0.000003
# 2 -0.001108 0.017826 -0.004624 0.000007 0.001887 0.000003
# 3 0.001508 -0.004624 0.022042 -0.000028 0.004074 -0.000020
# 4 -0.000002 0.000007 -0.000028 0.069168 0.000014 -0.000490
# 5 0.004087 0.001887 0.004074 0.000014 0.034261 0.000002
# 6 -0.000003 0.000003 -0.000020 -0.000490 0.000002 0.058615
#
#
# Mechanical properties :
#
#
# Convention : Reuss Voigt Hill
#
# Bulk Modulus (GPa) = 24.84289 29.62029 27.23159
# Shear Modulus (GPa) = 21.49537 26.99588 24.24563
#
# Velocity S-wave (km/s) = 3.06706 3.43715 3.25737
# Velocity P-wave (km/s) = 4.83884 5.35860 5.10533
#
# Compressibility (1/GPa) = 0.04025297
#
# Stress axis : x y z
#
# Youngs Moduli (GPa) = 113.23309 56.09714 45.36769
#
# Poissons Ratio (x) = 0.06213 -0.06841
# Poissons Ratio (y) = 0.12541 0.20976
# Poissons Ratio (z) = -0.17074 0.25937
#
# Static dielectric constant tensor:
#      x y z
#    x 1.959300 0.000000 0.012150 
#    y 0.000000 1.846260 0.000020 
#    z 0.012150 0.000020 1.857880 
# 
# From -- ./inp_files/311332.got.cif
#   From: 2010.05.17/outbox.cif.g08.bks.cpg/sg15_156_cif.got.tgz:311332.got - 2010.06.03 18:47:42.
