data_PCOD9283182
_publ_section_title
;
Structure prediction by ZEFSAII (Michael W. Deem and Ramdas Pophale) SiO2 
 PCOD9283182
Probable space group: C 2/C
;
_chemical_formula_sum "Si O2"
_cell_formula_units_Z 36
_cell_length_a 15.039870
_cell_length_b 9.755685
_cell_length_c 20.358199
_cell_angle_alpha 90.000000
_cell_angle_beta 28.343994
_cell_angle_gamma 90.000000
_cell_volume 1418.140011
_symmetry_space_group_name_H-M "C 2/C"
_symmetry_group_IT_number 15
_symmetry_cell_setting 'monoclinic'
loop_
_space_group_symop_operation_xyz
x,y,z
-x,y,1/2-z
-x,-y,-z
x,-y,1/2+z
1/2+x,1/2+y,z
1/2-x,1/2+y,1/2-z
1/2-x,1/2-y,-z
1/2+x,1/2-y,1/2+z
loop_
_atom_site_type_symbol
_atom_site_label
_atom_site_fract_x
_atom_site_fract_y
_atom_site_fract_z
Si Si1 0.363042 0.036758 0.972152
Si Si2 0.077941 0.200781 0.991015
Si Si3 0.500000 0.057323 0.250000
Si Si4 0.231764 0.188051 0.647085
Si Si5 0.205314 0.025093 0.789442
O O1 0.321554 0.186710 0.029141
O O2 0.573719 0.002334 0.860525
O O3 0.385065 0.026559 0.879395
O O4 0.229636 0.919947 0.088896
O O5 0.945626 0.283043 0.026881
O O6 0.189509 0.100605 0.870236
O O7 0.927344 0.107004 0.127517
O O8 0.358910 0.166285 0.308643
O O9 0.144848 0.121940 0.768880
#
# Coordination Sequence:
#
# PCOD9283182 Si02
#       5
#     8   8   4   8   8
#     4  11  24  39  67  96 132 175 218 269 325 398
#     4  10  21  39  68  97 129 165 225 267 333 376
#     4  12  24  46  60  96 140 176 218 270 328 392
#     4  11  23  39  68  95 131 173 221 266 333 386
#     4  10  21  40  68  99 128 168 214 284 319 393
#
# _framework density 25.385363999999999
#
# number of rings (size 3 to 8) (size 9 to 14) (size 15 to 20)
#    0.000    1.333    2.222    4.667    9.333    0.000 
#    0.000    2.222    0.000    0.000    0.000    0.000 
#    0.000    0.000    0.000    0.000    0.000    0.000 
#
# Total GULP energy -100761.270441 kJ/mol
# GULP energy per Si atom -5597.848358 kJ/mol
# Density = 2.532759 g / cm^3
# Si number density = 25.385364 Si / 1000 Ang^3
#
#
#
# Elastic Constant Matrix: (Units=GPa)
#
#
# Indices 1 2 3 4 5 6 
#
# 1 72.5057 29.7614 10.7621 0.0026 28.5807 0.0002
# 2 29.7614 152.2509 44.3175 0.0050 29.4760 -0.0002
# 3 10.7621 44.3175 66.7181 0.0099 19.8549 -0.0011
# 4 0.0026 0.0050 0.0099 31.4912 -0.0038 14.9283
# 5 28.5807 29.4760 19.8549 -0.0038 36.6052 -0.0001
# 6 0.0002 -0.0002 -0.0011 14.9283 -0.0001 45.5851
#
#
#
# Elastic Compliance Matrix: (Units=1/GPa)
#
#
# Indices 1 2 3 4 5 6 
#
# 1 0.020385 -0.001633 0.002554 -0.000005 -0.015986 0.000002
# 2 -0.001633 0.008890 -0.004640 0.000000 -0.003367 0.000000
# 3 0.002554 -0.004640 0.020439 -0.000009 -0.009344 0.000003
# 4 -0.000005 0.000000 -0.000009 0.037590 0.000013 -0.012310
# 5 -0.015986 -0.003367 -0.009344 0.000013 0.047580 -0.000004
# 6 0.000002 0.000000 0.000003 -0.012310 -0.000004 0.025968
#
#
# Mechanical properties :
#
#
# Convention : Reuss Voigt Hill
#
# Bulk Modulus (GPa) = 23.65398 51.23963 37.44681
# Shear Modulus (GPa) = 27.41500 36.51189 31.96344
#
# Velocity S-wave (km/s) = 3.28983 3.79661 3.55227
# Velocity P-wave (km/s) = 4.87533 6.28073 5.62212
#
# Compressibility (1/GPa) = 0.04227619
#
# Stress axis : x y z
#
# Youngs Moduli (GPa) = 49.05588 112.49045 48.92566
#
# Poissons Ratio (x) = 0.18372 -0.12496
# Poissons Ratio (y) = 0.08012 0.22700
# Poissons Ratio (z) = -0.12529 0.52191
#
# Static dielectric constant tensor:
#      x y z
#    x 2.071750 0.000000 -0.002650 
#    y 0.000000 1.973120 0.000000 
#    z -0.002650 0.000000 1.980750 
# 
# From -- ./inp_files/102530.got.cif
#   From: 2010.05.17/outbox.cif.g08.bks.cpg/sg15_52_cif.got.tgz:102530.got - 2010.06.03 18:47:42.
