data_PCOD9283845
_publ_section_title
;
Structure prediction by ZEFSAII (Michael W. Deem and Ramdas Pophale) SiO2 
 PCOD9283845
Probable space group: C 2/C
;
_chemical_formula_sum "Si O2"
_cell_formula_units_Z 40
_cell_length_a 5.391027
_cell_length_b 15.218073
_cell_length_c 20.006480
_cell_angle_alpha 90.000000
_cell_angle_beta 109.720942
_cell_angle_gamma 90.000000
_cell_volume 1545.082673
_symmetry_space_group_name_H-M "C 2/C"
_symmetry_group_IT_number 15
_symmetry_cell_setting 'monoclinic'
loop_
_space_group_symop_operation_xyz
x,y,z
-x,y,1/2-z
-x,-y,-z
x,-y,1/2+z
1/2+x,1/2+y,z
1/2-x,1/2+y,1/2-z
1/2-x,1/2-y,-z
1/2+x,1/2-y,1/2+z
loop_
_atom_site_type_symbol
_atom_site_label
_atom_site_fract_x
_atom_site_fract_y
_atom_site_fract_z
Si Si1 0.292174 0.260352 0.355968
Si Si2 0.000000 0.144408 0.750000
Si Si3 0.854023 0.607913 0.056251
Si Si4 0.898610 0.509262 0.810335
Si Si5 0.000000 0.140632 0.250000
Si Si6 0.750479 0.353159 0.021177
O O1 0.352811 0.293873 0.288167
O O2 0.536693 0.201440 0.404426
O O3 0.217923 0.340973 0.396627
O O4 0.049139 0.194200 0.322621
O O5 0.178295 0.079555 0.811505
O O6 0.927158 0.530405 0.114573
O O7 0.541721 0.610255 0.018011
O O8 0.024812 0.602091 0.003204
O O9 0.747926 0.422743 0.769108
O O10 0.000000 0.549270 0.750000
O O11 0.750000 0.250000 0.000000
#
# Coordination Sequence:
#
# PCOD9283845 Si02
#       6
#     8   4   8   8   4   8
#     4  10  22  38  66  99 132 161 220 284 340 382
#     4  11  26  42  58 103 134 174 216 283 344 386
#     4  10  23  41  71  93 128 177 230 264 334 404
#     4  10  24  43  64  88 134 183 222 268 330 413
#     4   9  22  38  66  95 120 172 224 269 330 408
#     4  10  21  40  65 102 130 168 216 289 330 394
#
# _framework density 25.888580999999999
#
# number of rings (size 3 to 8) (size 9 to 14) (size 15 to 20)
#    0.000    2.000    0.000    2.400   18.200    1.600 
#    0.000    2.000    0.000    0.000    0.000    0.000 
#    0.000    0.000    0.000    0.000    0.000    0.000 
#
# Total GULP energy -111916.536218 kJ/mol
# GULP energy per Si atom -5595.826811 kJ/mol
# Density = 2.582966 g / cm^3
# Si number density = 25.888581 Si / 1000 Ang^3
#
#
#
# Elastic Constant Matrix: (Units=GPa)
#
#
# Indices 1 2 3 4 5 6 
#
# 1 110.9102 12.6407 33.2771 0.0000 -2.6694 0.0000
# 2 12.6407 84.3908 10.6538 0.0000 -0.8648 0.0000
# 3 33.2771 10.6538 86.0625 0.0000 -11.8035 0.0000
# 4 0.0000 0.0000 0.0000 24.6623 0.0000 -6.4089
# 5 -2.6694 -0.8648 -11.8035 0.0000 50.4150 0.0000
# 6 0.0000 0.0000 0.0000 -6.4089 0.0000 17.2504
#
#
#
# Elastic Compliance Matrix: (Units=1/GPa)
#
#
# Indices 1 2 3 4 5 6 
#
# 1 0.010299 -0.001054 -0.003905 0.000000 -0.000387 0.000000
# 2 -0.001054 0.012147 -0.001111 0.000000 -0.000108 0.000000
# 3 -0.003905 -0.001111 0.013675 0.000000 0.002976 0.000000
# 4 0.000000 0.000000 0.000000 0.044881 0.000000 0.016674
# 5 -0.000387 -0.000108 0.002976 0.000000 0.020510 0.000000
# 6 0.000000 0.000000 0.000000 0.016674 0.000000 0.064165
#
#
# Mechanical properties :
#
#
# Convention : Reuss Voigt Hill
#
# Bulk Modulus (GPa) = 41.69884 43.83406 42.76645
# Shear Modulus (GPa) = 26.90950 33.45167 30.18058
#
# Velocity S-wave (km/s) = 3.22752 3.59853 3.41807
# Velocity P-wave (km/s) = 5.48008 5.85103 5.66859
#
# Compressibility (1/GPa) = 0.02398148
#
# Stress axis : x y z
#
# Youngs Moduli (GPa) = 97.10025 82.32749 73.12645
#
# Poissons Ratio (x) = 0.08674 0.28554
# Poissons Ratio (y) = 0.10231 0.08124
# Poissons Ratio (z) = 0.37915 0.09147
#
# Static dielectric constant tensor:
#      x y z
#    x 2.526020 0.000000 -0.123400 
#    y 0.000000 2.060780 0.000000 
#    z -0.123400 0.000000 2.136200 
# 
# From -- ./inp_files/226880.got.cif
#   From: 2010.05.17/outbox.cif.g08.bks.cpg/sg15_114_cif.got.tgz:226880.got - 2010.06.03 18:47:42.
