data_PCOD9283492
_publ_section_title
;
Structure prediction by ZEFSAII (Michael W. Deem and Ramdas Pophale) SiO2 
 PCOD9283492
Probable space group: C 2/C
;
_chemical_formula_sum "Si O2"
_cell_formula_units_Z 64
_cell_length_a 14.846326
_cell_length_b 16.321550
_cell_length_c 15.558854
_cell_angle_alpha 90.000000
_cell_angle_beta 56.788531
_cell_angle_gamma 90.000000
_cell_volume 3154.309093
_symmetry_space_group_name_H-M "C 2/C"
_symmetry_group_IT_number 15
_symmetry_cell_setting 'monoclinic'
loop_
_space_group_symop_operation_xyz
x,y,z
-x,y,1/2-z
-x,-y,-z
x,-y,1/2+z
1/2+x,1/2+y,z
1/2-x,1/2+y,1/2-z
1/2-x,1/2-y,-z
1/2+x,1/2-y,1/2+z
loop_
_atom_site_type_symbol
_atom_site_label
_atom_site_fract_x
_atom_site_fract_y
_atom_site_fract_z
Si Si1 0.117864 0.253625 0.870638
Si Si2 0.448617 0.966413 0.193374
Si Si3 0.383976 0.313200 0.490743
Si Si4 0.642850 0.896453 0.984837
Si Si5 0.704260 0.695669 0.652989
Si Si6 0.719196 0.137159 0.623973
Si Si7 0.257797 0.490513 0.307192
Si Si8 0.374854 0.484067 0.581742
O O1 0.106834 0.339128 0.925399
O O2 0.143964 0.250381 0.755911
O O3 0.218798 0.209474 0.862460
O O4 0.009518 0.201993 0.941674
O O5 0.500000 0.011106 0.250000
O O6 0.388791 0.888063 0.268118
O O7 0.350448 0.004833 0.192559
O O8 0.542305 0.945227 0.077795
O O9 0.362463 0.312908 0.400007
O O10 0.314689 0.240423 0.569119
O O11 0.346706 0.398949 0.550598
O O12 0.735304 0.957723 0.903665
O O13 0.688406 0.846434 0.042113
O O14 0.725993 0.605266 0.680244
O O15 0.798198 0.057668 0.588648
O O16 0.352829 0.519786 0.195523
O O17 0.500000 0.500000 0.500000
#
# Coordination Sequence:
#
# PCOD9283492 Si02
#       8
#     8   8   8   8   8   8   8   8
#     4  12  22  40  63  86 128 158 206 252 315 367
#     4   9  19  37  61  86 117 157 197 246 312 361
#     4  11  24  39  65  93 122 166 207 253 310 375
#     4  11  23  37  62  95 118 162 211 256 306 374
#     4  11  23  42  62  91 129 162 204 256 314 368
#     4  10  21  40  62  87 125 161 203 254 313 365
#     4  11  21  40  63  89 126 163 206 261 303 365
#     4  11  20  40  65  90 123 168 210 255 309 369
#
# _framework density 20.289704
#
# number of rings (size 3 to 8) (size 9 to 14) (size 15 to 20)
#    0.000    1.250    3.750    3.375    0.000    0.000 
#    0.000    5.625    0.000    0.000    0.000    0.000 
#    0.000    0.000    0.000    0.000    0.000    0.000 
#
# Total GULP energy -178670.306274 kJ/mol
# GULP energy per Si atom -5583.447071 kJ/mol
# Density = 2.024352 g / cm^3
# Si number density = 20.289704 Si / 1000 Ang^3
#
#
#
# Elastic Constant Matrix: (Units=GPa)
#
#
# Indices 1 2 3 4 5 6 
#
# 1 33.2264 0.4308 19.6082 0.0000 -5.9151 0.0000
# 2 0.4308 38.6425 36.0750 0.0000 13.5182 0.0000
# 3 19.6082 36.0750 153.6970 0.0000 6.3257 0.0000
# 4 0.0000 0.0000 0.0000 18.5625 0.0000 6.8263
# 5 -5.9151 13.5182 6.3257 0.0000 35.8352 0.0000
# 6 0.0000 0.0000 0.0000 6.8263 0.0000 23.3472
#
#
#
# Elastic Compliance Matrix: (Units=1/GPa)
#
#
# Indices 1 2 3 4 5 6 
#
# 1 0.034110 0.002480 -0.005164 0.000000 0.005607 0.000000
# 2 0.002480 0.038487 -0.008833 0.000000 -0.012550 0.000000
# 3 -0.005164 -0.008833 0.009203 0.000000 0.000855 0.000000
# 4 0.000000 0.000000 0.000000 0.060362 0.000000 -0.017649
# 5 0.005607 -0.012550 0.000855 0.000000 0.033414 0.000000
# 6 0.000000 0.000000 0.000000 -0.017649 0.000000 0.047992
#
#
# Mechanical properties :
#
#
# Convention : Reuss Voigt Hill
#
# Bulk Modulus (GPa) = 17.01701 37.53265 27.27483
# Shear Modulus (GPa) = 18.78329 26.84577 22.81453
#
# Velocity S-wave (km/s) = 3.04592 3.64142 3.35690
# Velocity P-wave (km/s) = 4.55801 6.01818 5.33825
#
# Compressibility (1/GPa) = 0.05876472
#
# Stress axis : x y z
#
# Youngs Moduli (GPa) = 29.31670 25.98248 108.65652
#
# Poissons Ratio (x) = -0.06443 0.56115
# Poissons Ratio (y) = -0.07270 0.95981
# Poissons Ratio (z) = 0.15141 0.22951
#
# Static dielectric constant tensor:
#      x y z
#    x 1.735480 0.000000 0.024430 
#    y 0.000000 1.716760 0.000000 
#    z 0.024430 0.000000 1.726290 
# 
# From -- ./inp_files/155479.got.cif
#   From: 2010.05.17/outbox.cif.g08.bks.cpg/sg15_78_cif.got.tgz:155479.got - 2010.06.03 18:47:42.
