data_PCOD9283590
_publ_section_title
;
Structure prediction by ZEFSAII (Michael W. Deem and Ramdas Pophale) SiO2 
 PCOD9283590
Probable space group: C 2/C
;
_chemical_formula_sum "Si O2"
_cell_formula_units_Z 64
_cell_length_a 30.245893
_cell_length_b 21.391525
_cell_length_c 15.377130
_cell_angle_alpha 90.000000
_cell_angle_beta 160.877525
_cell_angle_gamma 90.000000
_cell_volume 3259.208521
_symmetry_space_group_name_H-M "C 2/C"
_symmetry_group_IT_number 15
_symmetry_cell_setting 'monoclinic'
loop_
_space_group_symop_operation_xyz
x,y,z
-x,y,1/2-z
-x,-y,-z
x,-y,1/2+z
1/2+x,1/2+y,z
1/2-x,1/2+y,1/2-z
1/2-x,1/2-y,-z
1/2+x,1/2-y,1/2+z
loop_
_atom_site_type_symbol
_atom_site_label
_atom_site_fract_x
_atom_site_fract_y
_atom_site_fract_z
Si Si1 0.470336 0.775595 0.594693
Si Si2 0.885153 0.072970 0.183382
Si Si3 0.010962 0.155595 0.977188
Si Si4 0.150690 0.526106 0.270317
Si Si5 0.861397 0.524218 0.448605
Si Si6 0.727065 0.886551 0.229196
Si Si7 0.567143 0.534668 0.969804
Si Si8 0.727405 0.857280 0.030837
O O1 0.500000 0.756480 0.750000
O O2 0.434184 0.716127 0.469727
O O3 0.356050 0.828617 0.387360
O O4 0.603997 0.809011 0.805908
O O5 0.907558 0.130980 0.287985
O O6 0.848412 0.095887 0.018559
O O7 0.013359 0.026674 0.419546
O O8 0.760184 0.029433 0.981604
O O9 0.858137 0.167275 0.723752
O O10 0.015005 0.096059 0.920884
O O11 0.161405 0.550674 0.190680
O O12 0.180100 0.579725 0.394456
O O13 0.000000 0.500000 0.000000
O O14 0.865221 0.448878 0.443749
O O15 0.728057 0.536320 0.257623
O O16 0.000000 0.545403 0.750000
O O17 0.764463 0.871574 0.199917
O O18 0.500000 0.532106 0.750000
#
# Coordination Sequence:
#
# PCOD9283590 Si02
#       8
#     8   8   8   8   8   8   8   8
#     4  10  23  44  63  86 119 172 218 257 314 381
#     4  11  24  37  61  96 128 165 205 267 329 376
#     4  12  25  37  62  95 128 163 208 270 316 380
#     4  11  22  35  59  95 128 161 213 265 316 375
#     4  11  22  37  63  94 129 171 205 259 328 384
#     4  10  21  40  63  87 123 167 216 259 311 379
#     4  12  22  41  62  95 134 166 206 260 328 386
#     4  11  21  39  64  89 123 166 220 262 307 382
#
# _framework density 19.636669999999999
#
# number of rings (size 3 to 8) (size 9 to 14) (size 15 to 20)
#    0.000    1.000    3.750    5.250    3.500    0.500 
#    0.000    0.000    0.000    0.000    0.000    0.000 
#    0.000    0.000    0.000    0.000    0.000    0.000 
#
# Total GULP energy -178969.972198 kJ/mol
# GULP energy per Si atom -5592.811631 kJ/mol
# Density = 1.959198 g / cm^3
# Si number density = 19.636670 Si / 1000 Ang^3
#
#
#
# Elastic Constant Matrix: (Units=GPa)
#
#
# Indices 1 2 3 4 5 6 
#
# 1 108.8167 56.7593 45.8839 0.0000 7.1532 0.0000
# 2 56.7593 92.4891 27.4260 0.0000 -6.4969 0.0000
# 3 45.8839 27.4260 90.1166 0.0000 17.5019 0.0000
# 4 0.0000 0.0000 0.0000 23.2741 0.0000 -5.3244
# 5 7.1532 -6.4969 17.5019 0.0000 35.2770 0.0000
# 6 0.0000 0.0000 0.0000 -5.3244 0.0000 36.7047
#
#
#
# Elastic Compliance Matrix: (Units=1/GPa)
#
#
# Indices 1 2 3 4 5 6 
#
# 1 0.015850 -0.008375 -0.005088 0.000000 -0.002232 0.000000
# 2 -0.008375 0.016964 -0.002031 0.000000 0.005830 0.000000
# 3 -0.005088 -0.002031 0.015689 0.000000 -0.007126 0.000000
# 4 0.000000 0.000000 0.000000 0.044441 0.000000 0.006447
# 5 -0.002232 0.005830 -0.007126 0.000000 0.033409 0.000000
# 6 0.000000 0.000000 0.000000 0.006447 0.000000 0.028180
#
#
# Mechanical properties :
#
#
# Convention : Reuss Voigt Hill
#
# Bulk Modulus (GPa) = 57.09163 61.28453 59.18808
# Shear Modulus (GPa) = 26.12891 29.80806 27.96848
#
# Velocity S-wave (km/s) = 3.65172 3.90035 3.77808
# Velocity P-wave (km/s) = 6.84961 7.18057 7.01704
#
# Compressibility (1/GPa) = 0.01751570
#
# Stress axis : x y z
#
# Youngs Moduli (GPa) = 63.08951 58.95007 63.73764
#
# Poissons Ratio (x) = 0.49372 0.32430
# Poissons Ratio (y) = 0.52839 0.12942
# Poissons Ratio (z) = 0.32100 0.11970
#
# Static dielectric constant tensor:
#      x y z
#    x 1.729490 0.000000 -0.004460 
#    y 0.000000 1.654330 0.000000 
#    z -0.004460 0.000000 1.696980 
# 
# From -- ./inp_files/183146.got.cif
#   From: 2010.05.17/outbox.cif.g08.bks.cpg/sg15_92_cif.got.tgz:183146.got - 2010.06.03 18:47:42.
