data_PCOD9283233
_publ_section_title
;
Structure prediction by ZEFSAII (Michael W. Deem and Ramdas Pophale) SiO2 
 PCOD9283233
Probable space group: C 2/C
;
_chemical_formula_sum "Si O2"
_cell_formula_units_Z 56
_cell_length_a 16.467535
_cell_length_b 9.322986
_cell_length_c 25.111963
_cell_angle_alpha 90.000000
_cell_angle_beta 46.730921
_cell_angle_gamma 90.000000
_cell_volume 2807.248325
_symmetry_space_group_name_H-M "C 2/C"
_symmetry_group_IT_number 15
_symmetry_cell_setting 'monoclinic'
loop_
_space_group_symop_operation_xyz
x,y,z
-x,y,1/2-z
-x,-y,-z
x,-y,1/2+z
1/2+x,1/2+y,z
1/2-x,1/2+y,1/2-z
1/2-x,1/2-y,-z
1/2+x,1/2-y,1/2+z
loop_
_atom_site_type_symbol
_atom_site_label
_atom_site_fract_x
_atom_site_fract_y
_atom_site_fract_z
Si Si1 0.699202 0.912800 0.406756
Si Si2 0.522267 0.570076 0.059646
Si Si3 0.789151 0.346837 0.688757
Si Si4 0.256978 0.621445 0.168081
Si Si5 0.868605 0.658957 0.804277
Si Si6 0.310427 0.352941 0.930118
Si Si7 0.991695 0.766466 0.032863
O O1 0.755449 0.764145 0.362035
O O2 0.576828 0.860318 0.480968
O O3 0.706620 0.011039 0.350189
O O4 0.748703 0.008083 0.432666
O O5 0.388851 0.590591 0.117794
O O6 0.577305 0.595540 0.091212
O O7 0.552212 0.411402 0.025483
O O8 0.565296 0.685635 0.996968
O O9 0.792874 0.367738 0.750026
O O10 0.679974 0.252049 0.723374
O O11 0.898828 0.266527 0.617999
O O12 0.197739 0.489082 0.166610
O O13 0.836946 0.753951 0.868619
O O14 0.000000 0.634470 0.750000
O O15 0.250000 0.250000 0.000000
#
# Coordination Sequence:
#
# PCOD9283233 Si02
#       7
#     8   8   8   8   8   8   8
#     4  10  24  39  64 101 133 162 217 278 317 388
#     4  10  21  41  68  94 130 173 211 265 329 382
#     4  11  21  41  68  96 126 175 218 263 324 387
#     4  11  23  43  67  93 132 173 220 267 323 382
#     4  11  24  44  63  93 130 171 217 268 321 393
#     4  11  25  43  68  94 132 175 212 266 337 384
#     4  10  21  39  69  98 127 163 222 267 312 389
#
# _framework density 19.948360999999998
#
# number of rings (size 3 to 8) (size 9 to 14) (size 15 to 20)
#    0.000    1.429    1.429    3.857    4.000    4.000 
#    2.571    0.714    0.000    0.000    0.000    0.000 
#    0.000    0.000    0.000    0.000    0.000    0.000 
#
# Total GULP energy -156285.614448 kJ/mol
# GULP energy per Si atom -5581.629087 kJ/mol
# Density = 1.990296 g / cm^3
# Si number density = 19.948361 Si / 1000 Ang^3
#
#
#
# Elastic Constant Matrix: (Units=GPa)
#
#
# Indices 1 2 3 4 5 6 
#
# 1 115.4734 73.8199 37.1766 0.0000 2.2852 0.0001
# 2 73.8199 142.5870 32.4526 0.0000 1.0642 0.0001
# 3 37.1766 32.4526 80.8415 0.0000 -2.3833 0.0000
# 4 0.0000 0.0000 0.0000 20.1359 0.0000 -1.8309
# 5 2.2852 1.0642 -2.3833 0.0000 33.0886 0.0000
# 6 0.0001 0.0001 0.0000 -1.8309 0.0000 20.3431
#
#
#
# Elastic Compliance Matrix: (Units=1/GPa)
#
#
# Indices 1 2 3 4 5 6 
#
# 1 0.014002 -0.006349 -0.003921 0.000000 -0.001045 0.000000
# 2 -0.006349 0.010604 -0.001337 0.000000 0.000001 0.000000
# 3 -0.003921 -0.001337 0.014751 0.000000 0.001376 0.000000
# 4 0.000000 0.000000 0.000000 0.050072 0.000000 0.004507
# 5 -0.001045 0.000001 0.001376 0.000000 0.030393 0.000000
# 6 0.000000 0.000000 0.000000 0.004507 0.000000 0.049562
#
#
# Mechanical properties :
#
#
# Convention : Reuss Voigt Hill
#
# Bulk Modulus (GPa) = 61.94945 69.53333 65.74139
# Shear Modulus (GPa) = 25.25508 27.74370 26.49939
#
# Velocity S-wave (km/s) = 3.56198 3.73336 3.64868
# Velocity P-wave (km/s) = 6.93104 7.31548 7.12585
#
# Compressibility (1/GPa) = 0.01614219
#
# Stress axis : x y z
#
# Youngs Moduli (GPa) = 71.41990 94.29991 67.79394
#
# Poissons Ratio (x) = 0.59868 0.26583
# Poissons Ratio (y) = 0.45342 0.09067
# Poissons Ratio (z) = 0.28005 0.12612
#
# Static dielectric constant tensor:
#      x y z
#    x 1.727000 0.000000 -0.006940 
#    y 0.000000 1.742070 0.000000 
#    z -0.006940 0.000000 1.730240 
# 
# From -- ./inp_files/276503.got.cif
#   From: 2010.05.17/outbox.cif.g08.bks.cpg/sg15_139_cif.got.tgz:276503.got - 2010.06.03 18:47:42.
