data_PCOD9283476
_publ_section_title
;
Structure prediction by ZEFSAII (Michael W. Deem and Ramdas Pophale) SiO2 
 PCOD9283476
Probable space group: C 2/C
;
_chemical_formula_sum "Si O2"
_cell_formula_units_Z 48
_cell_length_a 22.984052
_cell_length_b 4.885520
_cell_length_c 25.365581
_cell_angle_alpha 90.000000
_cell_angle_beta 134.036076
_cell_angle_gamma 90.000000
_cell_volume 2047.632717
_symmetry_space_group_name_H-M "C 2/C"
_symmetry_group_IT_number 15
_symmetry_cell_setting 'monoclinic'
loop_
_space_group_symop_operation_xyz
x,y,z
-x,y,1/2-z
-x,-y,-z
x,-y,1/2+z
1/2+x,1/2+y,z
1/2-x,1/2+y,1/2-z
1/2-x,1/2-y,-z
1/2+x,1/2-y,1/2+z
loop_
_atom_site_type_symbol
_atom_site_label
_atom_site_fract_x
_atom_site_fract_y
_atom_site_fract_z
Si Si1 0.013138 0.387239 0.385693
Si Si2 0.244530 0.614443 0.177071
Si Si3 0.042465 0.098745 0.974038
Si Si4 0.842418 0.386418 0.772221
Si Si5 0.785926 0.217443 0.434326
Si Si6 0.678593 0.037252 0.939992
O O1 0.033611 0.588750 0.448610
O O2 0.086991 0.367006 0.390867
O O3 0.930240 0.510516 0.311761
O O4 0.005045 0.086932 0.404584
O O5 0.172765 0.572778 0.174492
O O6 0.275181 0.923455 0.201387
O O7 0.224765 0.481952 0.108714
O O8 0.318394 0.423237 0.244426
O O9 0.138765 0.044615 0.039886
O O10 0.000000 0.000000 0.000000
O O11 0.816117 0.306409 0.511479
O O12 0.702129 0.072433 0.397239
O O13 0.750000 0.250000 0.000000
#
# Coordination Sequence:
#
# PCOD9283476 Si02
#       6
#     8   8   8   8   8   8
#     4  11  22  39  61  85 126 158 200 250 303 359
#     4  10  22  39  63  87 122 157 200 246 298 361
#     4  11  22  35  60  95 121 153 196 258 313 363
#     4  10  22  40  60  90 120 162 198 244 302 355
#     4  10  22  38  62  90 119 159 204 245 308 362
#     4  10  21  40  62  86 119 162 197 250 305 357
#
# _framework density 23.441701999999999
#
# number of rings (size 3 to 8) (size 9 to 14) (size 15 to 20)
#    0.000    1.667    1.667    2.500    2.333    4.000 
#    0.000    0.833    0.000    0.000    0.000    0.000 
#    0.000    0.000    0.000    0.000    0.000    0.000 
#
# Total GULP energy -134106.142490 kJ/mol
# GULP energy per Si atom -5587.755937 kJ/mol
# Density = 2.338835 g / cm^3
# Si number density = 23.441702 Si / 1000 Ang^3
#
#
#
# Elastic Constant Matrix: (Units=GPa)
#
#
# Indices 1 2 3 4 5 6 
#
# 1 160.4560 8.9353 21.8845 -0.0015 9.7713 0.0228
# 2 8.9353 70.8878 -10.2564 0.0018 -3.9530 0.0852
# 3 21.8845 -10.2564 42.2207 0.0011 6.7427 -0.0068
# 4 -0.0015 0.0018 0.0011 30.9727 -0.0074 -1.8226
# 5 9.7713 -3.9530 6.7427 -0.0074 46.3582 -0.0116
# 6 0.0228 0.0852 -0.0068 -1.8226 -0.0116 21.7037
#
#
#
# Elastic Compliance Matrix: (Units=1/GPa)
#
#
# Indices 1 2 3 4 5 6 
#
# 1 0.006890 -0.001471 -0.003764 0.000000 -0.001030 -0.000003
# 2 -0.001471 0.014960 0.004242 -0.000004 0.000969 -0.000056
# 3 -0.003764 0.004242 0.027112 -0.000002 -0.002788 -0.000006
# 4 0.000000 -0.000004 -0.000002 0.032447 0.000006 0.002725
# 5 -0.001030 0.000969 -0.002788 0.000006 0.022276 0.000009
# 6 -0.000003 -0.000056 -0.000006 0.002725 0.000009 0.046304
#
#
# Mechanical properties :
#
#
# Convention : Reuss Voigt Hill
#
# Bulk Modulus (GPa) = 21.28749 34.96568 28.12659
# Shear Modulus (GPa) = 29.82684 36.67368 33.25026
#
# Velocity S-wave (km/s) = 3.57092 3.95962 3.77028
# Velocity P-wave (km/s) = 5.10908 5.98775 5.56578
#
# Compressibility (1/GPa) = 0.04697594
#
# Stress axis : x y z
#
# Youngs Moduli (GPa) = 145.13237 66.84506 36.88426
#
# Poissons Ratio (x) = 0.09830 0.13884
# Poissons Ratio (y) = 0.21343 -0.15645
# Poissons Ratio (z) = 0.54630 -0.28354
#
# Static dielectric constant tensor:
#      x y z
#    x 1.931490 -0.000020 0.033590 
#    y -0.000020 1.910490 0.000010 
#    z 0.033590 0.000010 1.950440 
# 
# From -- ./inp_files/279049.got.cif
#   From: 2010.05.17/outbox.cif.g08.bks.cpg/sg15_140_cif.got.tgz:279049.got - 2010.06.03 18:47:42.
