data_PCOD9283559
_publ_section_title
;
Structure prediction by ZEFSAII (Michael W. Deem and Ramdas Pophale) SiO2 
 PCOD9283559
Probable space group: C 2/C
;
_chemical_formula_sum "Si O2"
_cell_formula_units_Z 48
_cell_length_a 18.342012
_cell_length_b 18.875897
_cell_length_c 7.907504
_cell_angle_alpha 90.000000
_cell_angle_beta 44.573817
_cell_angle_gamma 90.000000
_cell_volume 1921.429413
_symmetry_space_group_name_H-M "C 2/C"
_symmetry_group_IT_number 15
_symmetry_cell_setting 'monoclinic'
loop_
_space_group_symop_operation_xyz
x,y,z
-x,y,1/2-z
-x,-y,-z
x,-y,1/2+z
1/2+x,1/2+y,z
1/2-x,1/2+y,1/2-z
1/2-x,1/2-y,-z
1/2+x,1/2-y,1/2+z
loop_
_atom_site_type_symbol
_atom_site_label
_atom_site_fract_x
_atom_site_fract_y
_atom_site_fract_z
Si Si1 0.706839 0.421448 0.448425
Si Si2 0.941824 0.245910 0.011110
Si Si3 0.492698 0.911415 0.577285
Si Si4 0.000000 0.365106 0.250000
Si Si5 0.761110 0.573023 0.478173
Si Si6 0.734736 0.174401 0.323790
Si Si7 0.000000 0.159145 0.250000
O O1 0.702262 0.501843 0.523417
O O2 0.738649 0.374340 0.557899
O O3 0.598213 0.391037 0.564147
O O4 0.770434 0.417433 0.165843
O O5 0.000000 0.215769 0.750000
O O6 0.982184 0.326662 0.953772
O O7 0.815518 0.240428 0.207651
O O8 0.977403 0.203514 0.117655
O O9 0.500000 0.939010 0.750000
O O10 0.548035 0.920182 0.309270
O O11 0.377463 0.933325 0.716693
O O12 0.892295 0.319804 0.466087
O O13 0.727746 0.639149 0.416096
#
# Coordination Sequence:
#
# PCOD9283559 Si02
#       7
#     8   8   8   4   8   8   4
#     4  11  22  41  65  99 138 177 224 278 337 403
#     4  10  21  42  67  97 133 175 224 280 336 399
#     4  10  22  41  65  93 129 173 226 273 330 394
#     4  10  21  40  62  94 130 172 221 266 336 396
#     4  11  22  41  64  98 136 175 224 273 337 404
#     4  10  22  41  64  96 136 175 223 275 335 406
#     4  10  23  40  68 104 132 172 225 280 344 402
#
# _framework density 24.981403
#
# number of rings (size 3 to 8) (size 9 to 14) (size 15 to 20)
#    0.000    1.667    1.667    2.500    0.000    1.333 
#    3.000   26.667    0.000    0.000    0.000    0.000 
#    0.000    0.000    0.000    0.000    0.000    0.000 
#
# Total GULP energy -133645.530173 kJ/mol
# GULP energy per Si atom -5568.563757 kJ/mol
# Density = 2.492454 g / cm^3
# Si number density = 24.981403 Si / 1000 Ang^3
#
#
#
# Elastic Constant Matrix: (Units=GPa)
#
#
# Indices 1 2 3 4 5 6 
#
# 1 106.6095 31.3149 18.9263 0.0000 7.2067 0.0000
# 2 31.3149 96.0346 5.6255 0.0000 -15.4662 0.0000
# 3 18.9263 5.6255 93.4258 0.0000 0.6366 0.0000
# 4 0.0000 0.0000 0.0000-2346.6899 0.0000 426.8927
# 5 7.2067 -15.4662 0.6366 0.0000 67.8680 0.0000
# 6 0.0000 0.0000 0.0000 426.8927 0.0000 -54.9011
#
#
#
# Elastic Compliance Matrix: (Units=1/GPa)
#
#
# Indices 1 2 3 4 5 6 
#
# 1 0.010981 -0.003788 -0.001983 0.000000 -0.002011 0.000000
# 2 -0.003788 0.012158 0.000014 0.000000 0.003173 0.000000
# 3 -0.001983 0.000014 0.011104 0.000000 0.000110 0.000000
# 4 0.000000 0.000000 0.000000 0.001028 0.000000 0.007994
# 5 -0.002011 0.003173 0.000110 0.000000 0.015670 0.000000
# 6 0.000000 0.000000 0.000000 0.007994 0.000000 0.043944
#
#
# Mechanical properties :
#
#
# Convention : Reuss Voigt Hill
#
# Bulk Modulus (GPa) = 43.99787 45.31148 44.65467
# Shear Modulus (GPa) = 43.86899 -450.73106 -203.43104
#
# Velocity S-wave (km/s) = 4.19509 -13.44687 -9.03381
# Velocity P-wave (km/s) = 6.41214 14.93029 9.53410
#
# Compressibility (1/GPa) = 0.02272837
#
# Stress axis : x y z
#
# Youngs Moduli (GPa) = 91.06911 82.24792 90.05956
#
# Poissons Ratio (x) = 0.31158 0.17856
# Poissons Ratio (y) = 0.34499 -0.00123
# Poissons Ratio (z) = 0.18056 -0.00113
#
# Static dielectric constant tensor:
#      x y z
#    x 2.126860 0.000000 0.100330 
#    y 0.000000 2.074390 0.000000 
#    z 0.100330 0.000000 2.158380 
# 
# From -- ./inp_files/57759.got.cif
#   From: 2010.05.17/outbox.cif.g08.bks.cpg/sg15_29_cif.got.tgz:57759.got - 2010.06.03 18:47:42.
