data_PCOD9283271
_publ_section_title
;
Structure prediction by ZEFSAII (Michael W. Deem and Ramdas Pophale) SiO2 
 PCOD9283271
Probable space group: C 2/C
;
_chemical_formula_sum "Si O2"
_cell_formula_units_Z 52
_cell_length_a 8.697987
_cell_length_b 22.901003
_cell_length_c 17.062695
_cell_angle_alpha 90.000000
_cell_angle_beta 131.318024
_cell_angle_gamma 90.000000
_cell_volume 2552.662978
_symmetry_space_group_name_H-M "C 2/C"
_symmetry_group_IT_number 15
_symmetry_cell_setting 'monoclinic'
loop_
_space_group_symop_operation_xyz
x,y,z
-x,y,1/2-z
-x,-y,-z
x,-y,1/2+z
1/2+x,1/2+y,z
1/2-x,1/2+y,1/2-z
1/2-x,1/2-y,-z
1/2+x,1/2-y,1/2+z
loop_
_atom_site_type_symbol
_atom_site_label
_atom_site_fract_x
_atom_site_fract_y
_atom_site_fract_z
Si Si1 0.598233 0.712812 0.397600
Si Si2 0.343557 0.410765 0.625656
Si Si3 0.016369 0.134645 0.849543
Si Si4 0.569021 0.509431 0.612835
Si Si5 0.500000 0.051190 0.250000
Si Si6 0.810176 0.258634 0.803400
Si Si7 0.944410 0.370539 0.580817
O O1 0.750000 0.750000 0.500000
O O2 0.612968 0.643588 0.417685
O O3 0.362877 0.732640 0.321230
O O4 0.690978 0.725560 0.342979
O O5 0.500000 0.401596 0.750000
O O6 0.404785 0.471956 0.608135
O O7 0.119192 0.400687 0.585406
O O8 0.000000 0.128422 0.750000
O O9 0.930293 0.076498 0.861280
O O10 0.898382 0.193973 0.831936
O O11 0.245957 0.138192 0.960825
O O12 0.500000 0.500000 0.500000
O O13 0.797055 0.484752 0.704333
O O14 0.573993 0.088989 0.349148
O O15 0.981668 0.308315 0.860261
#
# Coordination Sequence:
#
# PCOD9283271 Si02
#       7
#     8   8   8   8   4   8   8
#     4  10  21  39  73 101 132 176 222 279 344 407
#     4  11  21  45  73  96 133 182 232 272 335 421
#     4  12  29  44  64 102 147 180 222 288 356 402
#     4  12  27  47  68 102 137 181 232 286 337 407
#     4  12  24  44  78  98 130 180 240 282 332 410
#     4  10  23  43  64 104 136 172 225 276 347 407
#     4  11  24  46  74 100 132 186 232 279 341 419
#
# _framework density 20.370884
#
# number of rings (size 3 to 8) (size 9 to 14) (size 15 to 20)
#    0.000    0.923    6.154    0.923    7.538    4.308 
#    0.000    0.000    0.000    0.000    0.000    0.000 
#    0.000    0.000    0.000    0.000    0.000    0.000 
#
# Total GULP energy -145231.470395 kJ/mol
# GULP energy per Si atom -5585.825784 kJ/mol
# Density = 2.032452 g / cm^3
# Si number density = 20.370884 Si / 1000 Ang^3
#
#
#
# Elastic Constant Matrix: (Units=GPa)
#
#
# Indices 1 2 3 4 5 6 
#
# 1 56.4895 52.0166 17.6997 0.0000 14.0145 0.0000
# 2 52.0166 141.7079 20.5676 0.0000 12.8110 0.0000
# 3 17.6997 20.5676 117.7225 0.0000 17.9596 0.0000
# 4 0.0000 0.0000 0.0000 11.9481 0.0000 15.0854
# 5 14.0145 12.8110 17.9596 0.0000 27.8467 0.0000
# 6 0.0000 0.0000 0.0000 15.0854 0.0000 21.8089
#
#
#
# Elastic Compliance Matrix: (Units=1/GPa)
#
#
# Indices 1 2 3 4 5 6 
#
# 1 0.029454 -0.009767 -0.001271 0.000000 -0.009510 0.000000
# 2 -0.009767 0.010680 -0.000441 0.000000 0.000287 0.000000
# 3 -0.001271 -0.000441 0.009576 0.000000 -0.005334 0.000000
# 4 0.000000 0.000000 0.000000 0.660783 0.000000 -0.457070
# 5 -0.009510 0.000287 -0.005334 0.000000 0.044005 0.000000
# 6 0.000000 0.000000 0.000000 -0.457070 0.000000 0.362013
#
#
# Mechanical properties :
#
#
# Convention : Reuss Voigt Hill
#
# Bulk Modulus (GPa) = 37.38138 55.16530 46.27334
# Shear Modulus (GPa) = 4.35393 27.36314 15.85854
#
# Velocity S-wave (km/s) = 1.46355 3.66901 2.79317
# Velocity P-wave (km/s) = 4.60936 6.71477 5.75909
#
# Compressibility (1/GPa) = 0.02675129
#
# Stress axis : x y z
#
# Youngs Moduli (GPa) = 33.95113 93.63114 104.42306
#
# Poissons Ratio (x) = 0.91454 0.13273
# Poissons Ratio (y) = 0.33162 0.04607
# Poissons Ratio (z) = 0.04316 0.04131
#
# Static dielectric constant tensor:
#      x y z
#    x 1.745320 0.000000 -0.002920 
#    y 0.000000 1.722480 0.000000 
#    z -0.002920 0.000000 1.730860 
# 
# From -- ./inp_files/192622.got.cif
#   From: 2010.05.17/outbox.cif.g08.bks.cpg/sg15_97_cif.got.tgz:192622.got - 2010.06.03 18:47:42.
