data_PCOD9283692
_publ_section_title
;
Structure prediction by ZEFSAII (Michael W. Deem and Ramdas Pophale) SiO2 
 PCOD9283692
Probable space group: C 2/C
;
_chemical_formula_sum "Si O2"
_cell_formula_units_Z 56
_cell_length_a 14.533308
_cell_length_b 13.780110
_cell_length_c 20.528788
_cell_angle_alpha 90.000000
_cell_angle_beta 138.097999
_cell_angle_gamma 90.000000
_cell_volume 2745.775095
_symmetry_space_group_name_H-M "C 2/C"
_symmetry_group_IT_number 15
_symmetry_cell_setting 'monoclinic'
loop_
_space_group_symop_operation_xyz
x,y,z
-x,y,1/2-z
-x,-y,-z
x,-y,1/2+z
1/2+x,1/2+y,z
1/2-x,1/2+y,1/2-z
1/2-x,1/2-y,-z
1/2+x,1/2-y,1/2+z
loop_
_atom_site_type_symbol
_atom_site_label
_atom_site_fract_x
_atom_site_fract_y
_atom_site_fract_z
Si Si1 0.688860 0.316776 0.183960
Si Si2 0.559645 0.081467 0.981525
Si Si3 0.715820 0.613890 0.227262
Si Si4 0.917931 0.525937 0.773956
Si Si5 0.567613 0.284840 0.537745
Si Si6 0.152818 0.973909 0.823664
Si Si7 0.847944 0.194413 0.680239
O O1 0.747874 0.207343 0.209846
O O2 0.795605 0.393895 0.210995
O O3 0.674161 0.320834 0.254199
O O4 0.542128 0.324355 0.071300
O O5 0.514894 0.053632 0.885586
O O6 0.493974 0.184108 0.966667
O O7 0.723715 0.080045 0.075428
O O8 0.500000 0.000000 0.000000
O O9 0.845402 0.575885 0.254133
O O10 0.598510 0.643371 0.114278
O O11 0.682001 0.531644 0.261725
O O12 0.000000 0.524038 0.750000
O O13 0.717863 0.256793 0.588091
O O14 0.000000 0.932591 0.750000
O O15 0.153798 0.085143 0.848775
O O16 0.000000 0.236261 0.750000
#
# Coordination Sequence:
#
# PCOD9283692 Si02
#       7
#     8   8   8   8   8   8   8
#     4  11  22  43  67  94 138 179 222 285 338 406
#     4  12  19  44  72  91 128 187 234 266 338 410
#     4  11  22  43  65  95 138 176 225 279 341 397
#     4  12  26  45  69 103 142 181 224 289 347 405
#     4  11  22  38  69  96 131 183 218 276 349 405
#     4  11  22  39  69  95 124 174 235 278 320 403
#     4  10  21  40  63  96 130 168 231 283 328 405
#
# _framework density 20.394970000000001
#
# number of rings (size 3 to 8) (size 9 to 14) (size 15 to 20)
#    0.000    0.857    8.571    0.000    0.000    5.143 
#    5.143    1.429    0.000    0.000    0.000    0.000 
#    0.000    0.000    0.000    0.000    0.000    0.000 
#
# Total GULP energy -156346.659082 kJ/mol
# GULP energy per Si atom -5583.809253 kJ/mol
# Density = 2.034855 g / cm^3
# Si number density = 20.394970 Si / 1000 Ang^3
#
#
#
# Elastic Constant Matrix: (Units=GPa)
#
#
# Indices 1 2 3 4 5 6 
#
# 1 92.1007 -3.6497 40.7014 0.0000 13.6672 0.0000
# 2 -3.6497 44.4217 16.9670 0.0000 5.0195 0.0000
# 3 40.7014 16.9670 153.9078 0.0000 32.3732 0.0000
# 4 0.0000 0.0000 0.0000 31.5074 0.0000 9.7048
# 5 13.6672 5.0195 32.3732 0.0000 32.7101 0.0000
# 6 0.0000 0.0000 0.0000 9.7048 0.0000 20.8667
#
#
#
# Elastic Compliance Matrix: (Units=1/GPa)
#
#
# Indices 1 2 3 4 5 6 
#
# 1 0.012713 0.002521 -0.003083 0.000000 -0.002647 0.000000
# 2 0.002521 0.024046 -0.002930 0.000000 -0.001844 0.000000
# 3 -0.003083 -0.002930 0.009182 0.000000 -0.007349 0.000000
# 4 0.000000 0.000000 0.000000 0.037046 0.000000 -0.017229
# 5 -0.002647 -0.001844 -0.007349 0.000000 0.039234 0.000000
# 6 0.000000 0.000000 0.000000 -0.017229 0.000000 0.055936
#
#
# Mechanical properties :
#
#
# Convention : Reuss Voigt Hill
#
# Bulk Modulus (GPa) = 25.66915 44.27418 34.97167
# Shear Modulus (GPa) = 25.23652 32.77761 29.00706
#
# Velocity S-wave (km/s) = 3.52147 4.01327 3.77539
# Velocity P-wave (km/s) = 5.39886 6.57500 6.01574
#
# Compressibility (1/GPa) = 0.03895727
#
# Stress axis : x y z
#
# Youngs Moduli (GPa) = 78.66013 41.58687 108.91411
#
# Poissons Ratio (x) = -0.10485 0.33579
# Poissons Ratio (y) = -0.19832 0.31910
# Poissons Ratio (z) = 0.24251 0.12184
#
# Static dielectric constant tensor:
#      x y z
#    x 1.736100 0.000000 0.018180 
#    y 0.000000 1.788230 0.000000 
#    z 0.018180 0.000000 1.716540 
# 
# From -- ./inp_files/244565.got.cif
#   From: 2010.05.17/outbox.cif.g08.bks.cpg/sg15_123_cif.got.tgz:244565.got - 2010.06.03 18:47:42.
