data_PCOD9283398
_publ_section_title
;
Structure prediction by ZEFSAII (Michael W. Deem and Ramdas Pophale) SiO2 
 PCOD9283398
Probable space group: C 2/C
;
_chemical_formula_sum "Si O2"
_cell_formula_units_Z 60
_cell_length_a 17.642538
_cell_length_b 19.253765
_cell_length_c 9.874764
_cell_angle_alpha 90.000000
_cell_angle_beta 116.753358
_cell_angle_gamma 90.000000
_cell_volume 2995.241478
_symmetry_space_group_name_H-M "C 2/C"
_symmetry_group_IT_number 15
_symmetry_cell_setting 'monoclinic'
loop_
_space_group_symop_operation_xyz
x,y,z
-x,y,1/2-z
-x,-y,-z
x,-y,1/2+z
1/2+x,1/2+y,z
1/2-x,1/2+y,1/2-z
1/2-x,1/2-y,-z
1/2+x,1/2-y,1/2+z
loop_
_atom_site_type_symbol
_atom_site_label
_atom_site_fract_x
_atom_site_fract_y
_atom_site_fract_z
Si Si1 0.862864 0.330284 0.057112
Si Si2 0.500000 0.156994 0.250000
Si Si3 0.097726 0.821851 0.808512
Si Si4 0.825480 0.330519 0.505067
Si Si5 0.779949 0.077578 0.941266
Si Si6 0.064171 0.436334 0.561808
Si Si7 0.725753 0.022636 0.629072
Si Si8 0.267950 0.297531 0.794575
O O1 0.807039 0.378455 0.110424
O O2 0.936580 0.379759 0.059005
O O3 0.802178 0.307718 0.880519
O O4 0.891112 0.259408 0.147404
O O5 0.579349 0.195876 0.382582
O O6 0.455781 0.107361 0.322534
O O7 0.148577 0.869364 0.954808
O O8 0.146656 0.829568 0.703571
O O9 0.000000 0.839322 0.750000
O O10 0.826931 0.410151 0.460666
O O11 0.767991 0.328595 0.594421
O O12 0.786515 0.281389 0.357492
O O13 0.771677 0.015055 0.042213
O O14 0.786854 0.048171 0.796944
O O15 0.158547 0.468015 0.636052
O O16 0.000000 0.500000 0.500000
#
# Coordination Sequence:
#
# PCOD9283398 Si02
#       8
#     8   4   8   8   8   8   8   8
#     4  10  21  40  61  87 126 164 208 256 310 393
#     4  12  22  38  54  94 134 166 198 260 308 382
#     4  11  24  41  64  88 122 164 221 274 319 363
#     4  11  22  37  62  89 127 165 208 257 319 387
#     4  10  23  40  65  91 122 162 217 256 315 393
#     4  11  23  35  55  94 134 163 201 247 317 394
#     4  11  22  39  64  90 124 172 205 253 321 385
#     4  10  22  40  61  88 120 167 215 259 313 380
#
# _framework density 20.031773000000001
#
# number of rings (size 3 to 8) (size 9 to 14) (size 15 to 20)
#    0.000    1.333    2.667    4.000    7.467    1.067 
#    0.000    0.667    0.000    0.000    0.000    0.000 
#    0.000    0.000    0.000    0.000    0.000    0.000 
#
# Total GULP energy -167551.974085 kJ/mol
# GULP energy per Si atom -5585.065803 kJ/mol
# Density = 1.998618 g / cm^3
# Si number density = 20.031773 Si / 1000 Ang^3
#
#
#
# Elastic Constant Matrix: (Units=GPa)
#
#
# Indices 1 2 3 4 5 6 
#
# 1 82.1285 6.8696 22.3647 0.0000 -4.1396 0.0000
# 2 6.8696 69.7712 20.4737 0.0000 7.3979 0.0000
# 3 22.3647 20.4737 57.8528 0.0000 -14.9544 0.0000
# 4 0.0000 0.0000 0.0000 29.0723 0.0000 -4.5453
# 5 -4.1396 7.3979 -14.9544 0.0000 16.1126 0.0000
# 6 0.0000 0.0000 0.0000 -4.5453 0.0000 31.2768
#
#
#
# Elastic Compliance Matrix: (Units=1/GPa)
#
#
# Indices 1 2 3 4 5 6 
#
# 1 0.013678 0.000761 -0.006234 0.000000 -0.002621 0.000000
# 2 0.000761 0.020295 -0.012939 0.000000 -0.021131 0.000000
# 3 -0.006234 -0.012939 0.033412 0.000000 0.035349 0.000000
# 4 0.000000 0.000000 0.000000 0.035197 0.000000 0.005115
# 5 -0.002621 -0.021131 0.035349 0.000000 0.103900 0.000000
# 6 0.000000 0.000000 0.000000 0.005115 0.000000 0.032716
#
#
# Mechanical properties :
#
#
# Convention : Reuss Voigt Hill
#
# Bulk Modulus (GPa) = 32.72267 34.35205 33.53736
# Shear Modulus (GPa) = 17.46977 25.96196 21.71586
#
# Velocity S-wave (km/s) = 2.95634 3.60396 3.29610
# Velocity P-wave (km/s) = 5.29378 5.87401 5.59143
#
# Compressibility (1/GPa) = 0.03055985
#
# Stress axis : x y z
#
# Youngs Moduli (GPa) = 73.11006 49.27330 29.92974
#
# Poissons Ratio (x) = -0.03748 0.18660
# Poissons Ratio (y) = -0.05561 0.38725
# Poissons Ratio (z) = 0.45580 0.63753
#
# Static dielectric constant tensor:
#      x y z
#    x 1.754300 0.000000 -0.006770 
#    y 0.000000 1.706460 0.000000 
#    z -0.006770 0.000000 1.756800 
# 
# From -- ./inp_files/50695.got.cif
#   From: 2010.05.17/outbox.cif.g08.bks.cpg/sg15_26_cif.got.tgz:50695.got - 2010.06.03 18:47:42.
