data_PCOD9283239
_publ_section_title
;
Structure prediction by ZEFSAII (Michael W. Deem and Ramdas Pophale) SiO2 
 PCOD9283239
Probable space group: C 2/C
;
_chemical_formula_sum "Si O2"
_cell_formula_units_Z 56
_cell_length_a 17.497110
_cell_length_b 17.984003
_cell_length_c 9.211420
_cell_angle_alpha 90.000000
_cell_angle_beta 69.541833
_cell_angle_gamma 90.000000
_cell_volume 2715.722069
_symmetry_space_group_name_H-M "C 2/C"
_symmetry_group_IT_number 15
_symmetry_cell_setting 'monoclinic'
loop_
_space_group_symop_operation_xyz
x,y,z
-x,y,1/2-z
-x,-y,-z
x,-y,1/2+z
1/2+x,1/2+y,z
1/2-x,1/2+y,1/2-z
1/2-x,1/2-y,-z
1/2+x,1/2-y,1/2+z
loop_
_atom_site_type_symbol
_atom_site_label
_atom_site_fract_x
_atom_site_fract_y
_atom_site_fract_z
Si Si1 0.069588 0.815778 0.401273
Si Si2 0.233892 0.169892 0.939028
Si Si3 0.017145 0.341434 0.068614
Si Si4 0.831205 0.444469 0.568309
Si Si5 0.842721 0.688085 0.585024
Si Si6 0.272749 0.918735 0.927763
Si Si7 0.608255 0.653040 0.539795
O O1 0.140186 0.843985 0.460335
O O2 0.054940 0.730356 0.461431
O O3 0.098515 0.822061 0.214793
O O4 0.983011 0.858460 0.460655
O O5 0.283533 0.168235 0.755813
O O6 0.250000 0.250000 0.000000
O O7 0.270867 0.110278 0.022431
O O8 0.000000 0.324292 0.250000
O O9 0.929409 0.351690 0.053388
O O10 0.078513 0.410843 0.017186
O O11 0.809808 0.440624 0.750495
O O12 0.809655 0.524680 0.519976
O O13 0.803779 0.661481 0.460811
O O14 0.858571 0.775886 0.570336
O O15 0.174714 0.912124 0.987110
#
# Coordination Sequence:
#
# PCOD9283239 Si02
#       7
#     8   8   8   8   8   8   8
#     4  10  21  39  70 102 132 164 221 281 343 384
#     4  12  21  39  68 100 131 175 219 279 337 397
#     4  11  22  41  64 103 139 168 220 277 340 399
#     4  12  27  43  65  94 135 181 221 278 327 409
#     4  11  22  39  69  95 134 172 221 279 333 400
#     4  12  26  45  65  94 133 181 232 264 339 401
#     4  10  22  40  70 101 131 169 221 285 334 398
#
# _framework density 20.620666
#
# number of rings (size 3 to 8) (size 9 to 14) (size 15 to 20)
#    0.000    0.857    4.286    3.000    0.000    3.429 
#    0.000    0.714    0.000    0.000    0.000    0.000 
#    0.000    0.000    0.000    0.000    0.000    0.000 
#
# Total GULP energy -156517.121581 kJ/mol
# GULP energy per Si atom -5589.897199 kJ/mol
# Density = 2.057373 g / cm^3
# Si number density = 20.620666 Si / 1000 Ang^3
#
#
#
# Elastic Constant Matrix: (Units=GPa)
#
#
# Indices 1 2 3 4 5 6 
#
# 1 163.6531 22.8334 16.8839 0.0000 -2.0861 0.0000
# 2 22.8334 34.2326 8.9612 0.0000 -11.6431 0.0000
# 3 16.8839 8.9612 108.9572 0.0000 0.9361 0.0000
# 4 0.0000 0.0000 0.0000 18.3555 0.0000 9.0307
# 5 -2.0861 -11.6431 0.9361 0.0000 26.0306 0.0000
# 6 0.0000 0.0000 0.0000 9.0307 0.0000 36.6420
#
#
#
# Elastic Compliance Matrix: (Units=1/GPa)
#
#
# Indices 1 2 3 4 5 6 
#
# 1 0.006847 -0.004960 -0.000639 0.000000 -0.001647 0.000000
# 2 -0.004960 0.039033 -0.002589 0.000000 0.017154 0.000000
# 3 -0.000639 -0.002589 0.009503 0.000000 -0.001551 0.000000
# 4 0.000000 0.000000 0.000000 0.061997 0.000000 -0.015280
# 5 -0.001647 0.017154 -0.001551 0.000000 0.046013 0.000000
# 6 0.000000 0.000000 0.000000 -0.015280 0.000000 0.031057
#
#
# Mechanical properties :
#
#
# Convention : Reuss Voigt Hill
#
# Bulk Modulus (GPa) = 25.63646 44.91109 35.27378
# Shear Modulus (GPa) = 22.33850 33.41658 27.87754
#
# Velocity S-wave (km/s) = 3.29493 4.02996 3.68084
# Velocity P-wave (km/s) = 5.18988 6.59401 5.93363
#
# Compressibility (1/GPa) = 0.03900695
#
# Stress axis : x y z
#
# Youngs Moduli (GPa) = 146.03919 25.61960 105.22780
#
# Poissons Ratio (x) = 0.12708 0.06724
# Poissons Ratio (y) = 0.72438 0.27243
# Poissons Ratio (z) = 0.09332 0.06633
#
# Static dielectric constant tensor:
#      x y z
#    x 1.698110 0.000000 0.125190 
#    y 0.000000 1.816200 0.000000 
#    z 0.125190 0.000000 1.430610 
# 
# From -- ./inp_files/48998.got.cif
#   From: 2010.05.17/outbox.cif.g08.bks.cpg/sg15_25_cif.got.tgz:48998.got - 2010.06.03 18:47:42.
