data_PCOD9283238
_publ_section_title
;
Structure prediction by ZEFSAII (Michael W. Deem and Ramdas Pophale) SiO2 
 PCOD9283238
Probable space group: C 2/C
;
_chemical_formula_sum "Si O2"
_cell_formula_units_Z 56
_cell_length_a 31.681103
_cell_length_b 8.652861
_cell_length_c 10.562041
_cell_angle_alpha 90.000000
_cell_angle_beta 117.656887
_cell_angle_gamma 90.000000
_cell_volume 2564.576586
_symmetry_space_group_name_H-M "C 2/C"
_symmetry_group_IT_number 15
_symmetry_cell_setting 'monoclinic'
loop_
_space_group_symop_operation_xyz
x,y,z
-x,y,1/2-z
-x,-y,-z
x,-y,1/2+z
1/2+x,1/2+y,z
1/2-x,1/2+y,1/2-z
1/2-x,1/2-y,-z
1/2+x,1/2-y,1/2+z
loop_
_atom_site_type_symbol
_atom_site_label
_atom_site_fract_x
_atom_site_fract_y
_atom_site_fract_z
Si Si1 0.560064 0.884258 0.971000
Si Si2 0.366947 0.396276 0.574485
Si Si3 0.299497 0.817787 0.116514
Si Si4 0.199113 0.676882 0.393877
Si Si5 0.654337 0.711043 0.069051
Si Si6 0.448678 0.885904 0.822307
Si Si7 0.884269 0.121899 0.820873
O O1 0.599152 0.749159 0.022736
O O2 0.571859 0.002657 0.098705
O O3 0.504489 0.847165 0.918620
O O4 0.558964 0.954242 0.828000
O O5 0.338873 0.241041 0.569858
O O6 0.336708 0.543170 0.479543
O O7 0.384351 0.466910 0.734123
O O8 0.398121 0.377988 0.489247
O O9 0.313620 0.733660 0.265344
O O10 0.297150 0.999719 0.142535
O O11 0.250000 0.750000 0.000000
O O12 0.250000 0.750000 0.500000
O O13 0.169868 0.669105 0.484092
O O14 0.167415 0.791693 0.262187
O O15 0.420449 0.728727 0.795671
#
# Coordination Sequence:
#
# PCOD9283238 Si02
#       7
#     8   8   8   8   8   8   8
#     4  10  21  40  67 103 139 176 230 285 349 409
#     4  11  24  44  66  95 134 180 221 275 343 403
#     4  12  27  42  69  96 132 184 224 283 339 409
#     4  11  26  43  66  98 132 175 227 283 336 408
#     4  11  24  43  66  95 137 178 227 284 335 407
#     4  10  21  39  70 101 138 179 228 288 345 413
#     4  11  23  45  68  95 136 180 221 286 334 409
#
# _framework density 21.835963
#
# number of rings (size 3 to 8) (size 9 to 14) (size 15 to 20)
#    0.000    1.143    4.286    2.571    6.000    0.000 
#    0.000    0.714    3.143    0.000    0.000    0.000 
#    0.000    0.000    0.000    0.000    0.000    0.000 
#
# Total GULP energy -156101.256139 kJ/mol
# GULP energy per Si atom -5575.044862 kJ/mol
# Density = 2.178626 g / cm^3
# Si number density = 21.835963 Si / 1000 Ang^3
#
#
#
# Elastic Constant Matrix: (Units=GPa)
#
#
# Indices 1 2 3 4 5 6 
#
# 1 61.4065 18.9414 9.3158 0.0000 -5.1521 0.0000
# 2 18.9414 70.9059 18.3462 0.0000 -3.3850 0.0000
# 3 9.3158 18.3462 82.7001 0.0000 -13.0071 0.0000
# 4 0.0000 0.0000 0.0000 26.0712 0.0000 -6.4275
# 5 -5.1521 -3.3850 -13.0071 0.0000 36.9500 0.0000
# 6 0.0000 0.0000 0.0000 -6.4275 0.0000 33.0166
#
#
#
# Elastic Compliance Matrix: (Units=1/GPa)
#
#
# Indices 1 2 3 4 5 6 
#
# 1 0.017943 -0.004516 -0.000731 0.000000 0.001831 0.000000
# 2 -0.004516 0.016100 -0.003102 0.000000 -0.000247 0.000000
# 3 -0.000731 -0.003102 0.013552 0.000000 0.004384 0.000000
# 4 0.000000 0.000000 0.000000 0.040290 0.000000 0.007843
# 5 0.001831 -0.000247 0.004384 0.000000 0.028840 0.000000
# 6 0.000000 0.000000 0.000000 0.007843 0.000000 0.031815
#
#
# Mechanical properties :
#
#
# Convention : Reuss Voigt Hill
#
# Bulk Modulus (GPa) = 32.36670 34.24658 33.30664
# Shear Modulus (GPa) = 28.48398 30.43484 29.45941
#
# Velocity S-wave (km/s) = 3.61564 3.73741 3.67703
# Velocity P-wave (km/s) = 5.68202 5.86019 5.77179
#
# Compressibility (1/GPa) = 0.03089595
#
# Stress axis : x y z
#
# Youngs Moduli (GPa) = 55.73326 62.10994 73.79020
#
# Poissons Ratio (x) = 0.28052 0.05396
# Poissons Ratio (y) = 0.25172 0.22888
# Poissons Ratio (z) = 0.04076 0.19265
#
# Static dielectric constant tensor:
#      x y z
#    x 1.653400 0.000000 -0.089090 
#    y 0.000000 1.843940 0.000000 
#    z -0.089090 0.000000 1.845430 
# 
# From -- ./inp_files/125979.got.cif
#   From: 2010.05.17/outbox.cif.g08.bks.cpg/sg15_63_cif.got.tgz:125979.got - 2010.06.03 18:47:42.
