data_PCOD9283969
_publ_section_title
;
Structure prediction by ZEFSAII (Michael W. Deem and Ramdas Pophale) SiO2 
 PCOD9283969
Probable space group: C 2/C
;
_chemical_formula_sum "Si O2"
_cell_formula_units_Z 60
_cell_length_a 14.376739
_cell_length_b 11.830133
_cell_length_c 18.200060
_cell_angle_alpha 90.000000
_cell_angle_beta 52.790858
_cell_angle_gamma 90.000000
_cell_volume 2465.314452
_symmetry_space_group_name_H-M "C 2/C"
_symmetry_group_IT_number 15
_symmetry_cell_setting 'monoclinic'
loop_
_space_group_symop_operation_xyz
x,y,z
-x,y,1/2-z
-x,-y,-z
x,-y,1/2+z
1/2+x,1/2+y,z
1/2-x,1/2+y,1/2-z
1/2-x,1/2-y,-z
1/2+x,1/2-y,1/2+z
loop_
_atom_site_type_symbol
_atom_site_label
_atom_site_fract_x
_atom_site_fract_y
_atom_site_fract_z
Si Si1 0.087853 0.453002 0.277688
Si Si2 0.256389 0.757642 0.084690
Si Si3 0.924417 0.990315 0.167347
Si Si4 0.500000 0.679799 0.750000
Si Si5 0.526546 0.735243 0.320769
Si Si6 0.315704 0.004353 0.624972
Si Si7 0.189527 0.369465 0.019314
Si Si8 0.809521 0.016503 0.085314
O O1 0.082416 0.505118 0.362557
O O2 0.196308 0.517085 0.190591
O O3 0.000000 0.462548 0.250000
O O4 0.135212 0.321203 0.265144
O O5 0.123571 0.755409 0.182045
O O6 0.333975 0.648598 0.066084
O O7 0.313690 0.872847 0.087101
O O8 0.250000 0.750000 0.000000
O O9 0.807515 0.004481 0.272890
O O10 0.900538 0.953743 0.095162
O O11 0.975166 0.117510 0.138080
O O12 0.997852 0.901917 0.179423
O O13 0.500000 0.703188 0.250000
O O14 0.438399 0.835005 0.389298
O O15 0.318360 0.912928 0.559383
O O16 0.264008 0.457326 0.032872
O O17 0.250000 0.250000 0.000000
#
# Coordination Sequence:
#
# PCOD9283969 Si02
#       8
#     8   8   8   4   8   8   8   8
#     4  10  21  40  65  97 126 172 226 273 335 405
#     4  11  23  43  71  98 141 180 227 283 346 408
#     4  10  22  43  71  94 130 183 233 272 336 411
#     4  10  24  42  70 102 130 188 232 278 342 414
#     4  11  20  38  68  95 131 174 222 273 326 406
#     4  10  23  43  67  97 134 177 221 281 345 398
#     4  12  25  41  66  99 134 171 218 280 345 399
#     4  11  23  43  67  96 136 177 220 282 342 407
#
# _framework density 24.337668000000001
#
# number of rings (size 3 to 8) (size 9 to 14) (size 15 to 20)
#    0.000    1.333    4.667    1.600    2.800    0.533 
#    4.800    4.000    0.000    0.000    0.000    0.000 
#    0.000    0.000    0.000    0.000    0.000    0.000 
#
# Total GULP energy -167285.609938 kJ/mol
# GULP energy per Si atom -5576.186998 kJ/mol
# Density = 2.428227 g / cm^3
# Si number density = 24.337668 Si / 1000 Ang^3
#
#
#
# Elastic Constant Matrix: (Units=GPa)
#
#
# Indices 1 2 3 4 5 6 
#
# 1 94.9195 37.2437 56.9740 0.0000 42.1150 0.0000
# 2 37.2437 103.9076 28.8502 0.0000 10.6300 0.0000
# 3 56.9740 28.8502 104.9244 0.0000 35.3770 0.0000
# 4 0.0000 0.0000 0.0000 5.2371 0.0000 -3.5596
# 5 42.1150 10.6300 35.3770 0.0000 44.0708 0.0000
# 6 0.0000 0.0000 0.0000 -3.5596 0.0000 24.6026
#
#
#
# Elastic Compliance Matrix: (Units=1/GPa)
#
#
# Indices 1 2 3 4 5 6 
#
# 1 0.023206 -0.005063 -0.005681 0.000000 -0.016395 0.000000
# 2 -0.005063 0.011527 -0.001528 0.000000 0.003284 0.000000
# 3 -0.005681 -0.001528 0.015193 0.000000 -0.006398 0.000000
# 4 0.000000 0.000000 0.000000 0.211773 0.000000 0.030640
# 5 -0.016395 0.003284 -0.006398 0.000000 0.042702 0.000000
# 6 0.000000 0.000000 0.000000 0.030640 0.000000 0.045079
#
#
# Mechanical properties :
#
#
# Convention : Reuss Voigt Hill
#
# Bulk Modulus (GPa) = 39.39755 61.09858 50.24806
# Shear Modulus (GPa) = 13.07245 26.82766 19.95006
#
# Velocity S-wave (km/s) = 2.32012 3.32371 2.86618
# Velocity P-wave (km/s) = 4.83738 6.31573 5.62533
#
# Compressibility (1/GPa) = 0.02538229
#
# Stress axis : x y z
#
# Youngs Moduli (GPa) = 43.09241 86.75389 65.82075
#
# Poissons Ratio (x) = 0.43925 0.37392
# Poissons Ratio (y) = 0.21819 0.10054
# Poissons Ratio (z) = 0.24481 0.13252
#
# Static dielectric constant tensor:
#      x y z
#    x 1.705740 0.000000 0.514440 
#    y 0.000000 0.683110 0.000000 
#    z 0.514440 0.000000 1.361980 
# 
# From -- ./inp_files/204418.got.cif
#   From: 2010.05.17/outbox.cif.g08.bks.cpg/sg15_103_cif.got.tgz:204418.got - 2010.06.03 18:47:42.
