data_PCOD9283256
_publ_section_title
;
Structure prediction by ZEFSAII (Michael W. Deem and Ramdas Pophale) SiO2 
 PCOD9283256
Probable space group: C 2/C
;
_chemical_formula_sum "Si O2"
_cell_formula_units_Z 44
_cell_length_a 11.640721
_cell_length_b 21.296582
_cell_length_c 8.162026
_cell_angle_alpha 90.000000
_cell_angle_beta 107.460194
_cell_angle_gamma 90.000000
_cell_volume 1930.199864
_symmetry_space_group_name_H-M "C 2/C"
_symmetry_group_IT_number 15
_symmetry_cell_setting 'monoclinic'
loop_
_space_group_symop_operation_xyz
x,y,z
-x,y,1/2-z
-x,-y,-z
x,-y,1/2+z
1/2+x,1/2+y,z
1/2-x,1/2+y,1/2-z
1/2-x,1/2-y,-z
1/2+x,1/2-y,1/2+z
loop_
_atom_site_type_symbol
_atom_site_label
_atom_site_fract_x
_atom_site_fract_y
_atom_site_fract_z
Si Si1 0.619785 0.425596 0.408802
Si Si2 0.500000 0.224868 0.750000
Si Si3 0.247889 0.020861 0.260557
Si Si4 0.133399 0.782615 0.527714
Si Si5 0.000000 0.690522 0.250000
Si Si6 0.000000 0.523368 0.750000
Si Si7 0.883477 0.380399 0.973946
O O1 0.500000 0.434072 0.250000
O O2 0.722074 0.454726 0.335548
O O3 0.642617 0.462719 0.588002
O O4 0.630456 0.353238 0.464330
O O5 0.596715 0.270166 0.699274
O O6 0.588890 0.176896 0.889798
O O7 0.263364 0.077465 0.400186
O O8 0.377066 0.014118 0.226576
O O9 0.250000 0.750000 0.500000
O O10 0.034046 0.738375 0.404879
O O11 0.904542 0.646763 0.300545
O O12 0.978290 0.568075 0.582821
#
# Coordination Sequence:
#
# PCOD9283256 Si02
#       7
#     8   4   8   8   4   4   8
#     4  12  28  50  67 100 148 205 244 284 356 454
#     4   9  24  46  71 111 150 176 233 306 372 435
#     4  12  25  44  72 106 145 188 242 305 369 433
#     4  11  24  46  75 104 139 191 243 302 360 426
#     4  10  21  42  69 103 140 173 238 300 366 430
#     4  11  23  40  68 116 146 169 233 318 392 421
#     4  10  21  39  71 108 142 171 223 313 382 427
#
# _framework density 22.795566999999998
#
# number of rings (size 3 to 8) (size 9 to 14) (size 15 to 20)
#    0.000    1.091    2.727    2.727   10.182    0.000 
#    4.909    8.182    0.000    0.000    0.000    0.000 
#    0.000    0.000    0.000    0.000    0.000    0.000 
#
# Total GULP energy -122496.944444 kJ/mol
# GULP energy per Si atom -5568.042929 kJ/mol
# Density = 2.274368 g / cm^3
# Si number density = 22.795567 Si / 1000 Ang^3
#
#
#
# Elastic Constant Matrix: (Units=GPa)
#
#
# Indices 1 2 3 4 5 6 
#
# 1 79.6707 60.0404 25.9660 0.0000 -9.9442 0.0000
# 2 60.0404 167.3457 49.4122 0.0000 -12.5329 0.0000
# 3 25.9660 49.4122 104.8950 0.0000 14.1876 0.0000
# 4 0.0000 0.0000 0.0000 32.9521 0.0000 -11.3530
# 5 -9.9442 -12.5329 14.1876 0.0000 29.3276 0.0000
# 6 0.0000 0.0000 0.0000 -11.3530 0.0000 37.4366
#
#
#
# Elastic Compliance Matrix: (Units=1/GPa)
#
#
# Indices 1 2 3 4 5 6 
#
# 1 0.018063 -0.005308 -0.002667 0.000000 0.005147 0.000000
# 2 -0.005308 0.009217 -0.003549 0.000000 0.003856 0.000000
# 3 -0.002667 -0.003549 0.013047 0.000000 -0.008733 0.000000
# 4 0.000000 0.000000 0.000000 0.033888 0.000000 0.010277
# 5 0.005147 0.003856 -0.008733 0.000000 0.041715 0.000000
# 6 0.000000 0.000000 0.000000 0.010277 0.000000 0.029828
#
#
# Mechanical properties :
#
#
# Convention : Reuss Voigt Hill
#
# Bulk Modulus (GPa) = 57.87686 69.19428 63.53557
# Shear Modulus (GPa) = 28.64242 34.37612 31.50927
#
# Velocity S-wave (km/s) = 3.54855 3.88753 3.72190
# Velocity P-wave (km/s) = 6.49879 7.11131 6.81194
#
# Compressibility (1/GPa) = 0.01727806
#
# Stress axis : x y z
#
# Youngs Moduli (GPa) = 55.36069 108.49792 76.64751
#
# Poissons Ratio (x) = 0.57588 0.20444
# Poissons Ratio (y) = 0.29384 0.27205
# Poissons Ratio (z) = 0.14766 0.38510
#
# Static dielectric constant tensor:
#      x y z
#    x 1.606370 0.000000 0.307820 
#    y 0.000000 1.778150 0.000000 
#    z 0.307820 0.000000 1.529840 
# 
# From -- ./inp_files/30775.got.cif
#   From: 2010.05.17/outbox.cif.g08.bks.cpg/sg15_16_cif.got.tgz:30775.got - 2010.06.03 18:47:42.
