data_PCOD9283006
_publ_section_title
;
Structure prediction by ZEFSAII (Michael W. Deem and Ramdas Pophale) SiO2 
 PCOD9283006
Probable space group: C 2/C
;
_chemical_formula_sum "Si O2"
_cell_formula_units_Z 60
_cell_length_a 16.041787
_cell_length_b 10.448198
_cell_length_c 15.001639
_cell_angle_alpha 90.000000
_cell_angle_beta 76.819000
_cell_angle_gamma 90.000000
_cell_volume 2448.148503
_symmetry_space_group_name_H-M "C 2/C"
_symmetry_group_IT_number 15
_symmetry_cell_setting 'monoclinic'
loop_
_space_group_symop_operation_xyz
x,y,z
-x,y,1/2-z
-x,-y,-z
x,-y,1/2+z
1/2+x,1/2+y,z
1/2-x,1/2+y,1/2-z
1/2-x,1/2-y,-z
1/2+x,1/2-y,1/2+z
loop_
_atom_site_type_symbol
_atom_site_label
_atom_site_fract_x
_atom_site_fract_y
_atom_site_fract_z
Si Si1 0.000000 0.956319 0.750000
Si Si2 0.901073 0.175195 0.679965
Si Si3 0.721107 0.244629 0.141880
Si Si4 0.072993 0.266463 0.548987
Si Si5 0.142683 0.568048 0.808065
Si Si6 0.993934 0.250461 0.392532
Si Si7 0.867662 0.552718 0.011989
Si Si8 0.741564 0.539241 0.892181
O O1 0.033719 0.863354 0.664228
O O2 0.073517 0.046316 0.771792
O O3 0.846765 0.261318 0.760833
O O4 0.838244 0.126476 0.616625
O O5 0.991741 0.235109 0.630309
O O6 0.661265 0.275052 0.072500
O O7 0.787658 0.351810 0.152240
O O8 0.769750 0.111791 0.118658
O O9 0.086250 0.418662 0.528142
O O10 0.050284 0.200084 0.461577
O O11 0.182140 0.561239 0.699885
O O12 0.055550 0.648993 0.826786
O O13 0.131971 0.450699 0.880694
O O14 0.920679 0.331308 0.458029
O O15 0.777329 0.559040 0.982808
#
# Coordination Sequence:
#
# PCOD9283006 Si02
#       8
#     4   8   8   8   8   8   8   8
#     4  12  24  42  60  92 142 164 216 266 332 404
#     4  11  23  43  63  97 132 170 220 268 332 393
#     4  10  21  39  66  93 126 173 219 264 329 383
#     4  10  21  41  67  95 126 168 222 271 318 396
#     4  10  21  40  64  95 133 165 222 275 315 398
#     4  11  24  40  67  95 130 176 213 272 335 382
#     4  10  23  42  66 101 125 170 228 271 326 390
#     4  10  23  39  65  94 131 177 214 269 335 385
#
# _framework density 24.508317000000002
#
# number of rings (size 3 to 8) (size 9 to 14) (size 15 to 20)
#    0.000    1.600    1.333    3.200    3.733    7.467 
#    4.800    0.667    0.000    0.000    0.000    0.000 
#    0.000    0.000    0.000    0.000    0.000    0.000 
#
# Total GULP energy -167917.764997 kJ/mol
# GULP energy per Si atom -5597.258833 kJ/mol
# Density = 2.445253 g / cm^3
# Si number density = 24.508317 Si / 1000 Ang^3
#
#
#
# Elastic Constant Matrix: (Units=GPa)
#
#
# Indices 1 2 3 4 5 6 
#
# 1 84.3810 18.5151 20.4204 0.0000 2.2099 0.0000
# 2 18.5151 46.4301 37.1794 0.0000 -1.1284 0.0000
# 3 20.4204 37.1794 85.9851 0.0000 3.7428 0.0000
# 4 0.0000 0.0000 0.0000 39.6484 0.0000 5.8791
# 5 2.2099 -1.1284 3.7428 0.0000 49.0507 0.0000
# 6 0.0000 0.0000 0.0000 5.8791 0.0000 28.1816
#
#
#
# Elastic Compliance Matrix: (Units=1/GPa)
#
#
# Indices 1 2 3 4 5 6 
#
# 1 0.013099 -0.004233 -0.001255 0.000000 -0.000592 0.000000
# 2 -0.004233 0.034481 -0.013993 0.000000 0.002052 0.000000
# 3 -0.001255 -0.013993 0.018050 0.000000 -0.001643 0.000000
# 4 0.000000 0.000000 0.000000 0.026027 0.000000 -0.005430
# 5 -0.000592 0.002052 -0.001643 0.000000 0.020586 0.000000
# 6 0.000000 0.000000 0.000000 -0.005430 0.000000 0.036617
#
#
# Mechanical properties :
#
#
# Convention : Reuss Voigt Hill
#
# Bulk Modulus (GPa) = 37.49871 41.00289 39.25080
# Shear Modulus (GPa) = 25.41793 32.75491 29.08642
#
# Velocity S-wave (km/s) = 3.22392 3.65976 3.44873
# Velocity P-wave (km/s) = 5.40295 5.88430 5.64875
#
# Compressibility (1/GPa) = 0.02666758
#
# Stress axis : x y z
#
# Youngs Moduli (GPa) = 76.34167 29.00148 55.40161
#
# Poissons Ratio (x) = 0.12277 0.06951
# Poissons Ratio (y) = 0.32317 0.77525
# Poissons Ratio (z) = 0.09578 0.40583
#
# Static dielectric constant tensor:
#      x y z
#    x 1.937080 0.000000 -0.019100 
#    y 0.000000 1.964010 0.000000 
#    z -0.019100 0.000000 2.016780 
# 
# From -- ./inp_files/160889.got.cif
#   From: 2010.05.17/outbox.cif.g08.bks.cpg/sg15_81_cif.got.tgz:160889.got - 2010.06.03 18:47:42.
