data_PCOD9283122
_publ_section_title
;
Structure prediction by ZEFSAII (Michael W. Deem and Ramdas Pophale) SiO2 
 PCOD9283122
Probable space group: C 2/C
;
_chemical_formula_sum "Si O2"
_cell_formula_units_Z 36
_cell_length_a 14.200811
_cell_length_b 21.096426
_cell_length_c 7.371464
_cell_angle_alpha 90.000000
_cell_angle_beta 132.860534
_cell_angle_gamma 90.000000
_cell_volume 1618.775558
_symmetry_space_group_name_H-M "C 2/C"
_symmetry_group_IT_number 15
_symmetry_cell_setting 'monoclinic'
loop_
_space_group_symop_operation_xyz
x,y,z
-x,y,1/2-z
-x,-y,-z
x,-y,1/2+z
1/2+x,1/2+y,z
1/2-x,1/2+y,1/2-z
1/2-x,1/2-y,-z
1/2+x,1/2-y,1/2+z
loop_
_atom_site_type_symbol
_atom_site_label
_atom_site_fract_x
_atom_site_fract_y
_atom_site_fract_z
Si Si1 0.368126 0.416000 0.263793
Si Si2 0.000000 0.509884 0.250000
Si Si3 0.376650 0.086413 0.796619
Si Si4 0.000000 0.979694 0.750000
Si Si5 0.393703 0.233891 0.755290
Si Si6 0.000000 0.801846 0.250000
O O1 0.244474 0.415598 0.228333
O O2 0.480765 0.435192 0.552314
O O3 0.382149 0.472026 0.134200
O O4 0.397210 0.349276 0.208924
O O5 0.010921 0.557244 0.432503
O O6 0.118261 0.461708 0.366508
O O7 0.399583 0.157931 0.771752
O O8 0.500000 0.257317 0.750000
O O9 0.250000 0.250000 0.500000
O O10 0.431423 0.261790 0.001691
#
# Coordination Sequence:
#
# PCOD9283122 Si02
#       6
#     8   4   8   4   8   4
#     4  10  21  39  67  97 137 180 230 292 358 431
#     4  10  23  40  66 100 135 174 236 290 372 428
#     4  11  22  42  66  98 134 180 228 295 360 429
#     4   9  20  38  62 102 134 171 228 284 356 421
#     4  12  28  49  74 104 147 195 249 306 366 439
#     4  11  27  46  70 106 137 195 250 298 364 441
#
# _framework density 22.239031000000001
#
# number of rings (size 3 to 8) (size 9 to 14) (size 15 to 20)
#    0.000    1.333    1.111    3.333    4.667    5.333 
#    4.000    0.000    0.000    0.000    0.000    0.000 
#    0.000    0.000    0.000    0.000    0.000    0.000 
#
# Total GULP energy -100474.377751 kJ/mol
# GULP energy per Si atom -5581.909875 kJ/mol
# Density = 2.218841 g / cm^3
# Si number density = 22.239031 Si / 1000 Ang^3
#
#
#
# Elastic Constant Matrix: (Units=GPa)
#
#
# Indices 1 2 3 4 5 6 
#
# 1 169.9075 42.0136 45.8193 0.0000 7.2425 0.0000
# 2 42.0136 139.1525 61.4349 0.0000 -6.9452 0.0000
# 3 45.8193 61.4349 97.8808 0.0000 -16.6533 0.0000
# 4 0.0000 0.0000 0.0000 27.3407 0.0000 -11.7063
# 5 7.2425 -6.9452 -16.6533 0.0000 37.9896 0.0000
# 6 0.0000 0.0000 0.0000 -11.7063 0.0000 42.2520
#
#
#
# Elastic Compliance Matrix: (Units=1/GPa)
#
#
# Indices 1 2 3 4 5 6 
#
# 1 0.007110 -0.000834 -0.003308 0.000000 -0.002958 0.000000
# 2 -0.000834 0.010074 -0.006043 0.000000 -0.000648 0.000000
# 3 -0.003308 -0.006043 0.016725 0.000000 0.006857 0.000000
# 4 0.000000 0.000000 0.000000 0.041498 0.000000 0.011498
# 5 -0.002958 -0.000648 0.006857 0.000000 0.029774 0.000000
# 6 0.000000 0.000000 0.000000 0.011498 0.000000 0.026853
#
#
# Mechanical properties :
#
#
# Convention : Reuss Voigt Hill
#
# Bulk Modulus (GPa) = 73.86238 78.38627 76.12433
# Shear Modulus (GPa) = 31.86415 38.69465 35.27940
#
# Velocity S-wave (km/s) = 3.78934 4.17579 3.98725
# Velocity P-wave (km/s) = 7.24090 7.65332 7.44996
#
# Compressibility (1/GPa) = 0.01353869
#
# Stress axis : x y z
#
# Youngs Moduli (GPa) = 140.64785 99.26998 59.79228
#
# Poissons Ratio (x) = 0.08277 0.19781
# Poissons Ratio (y) = 0.11726 0.36131
# Poissons Ratio (z) = 0.46530 0.59986
#
# Static dielectric constant tensor:
#      x y z
#    x 1.964670 0.000000 -0.053210 
#    y 0.000000 1.777320 0.000000 
#    z -0.053210 0.000000 1.889840 
# 
# From -- ./inp_files/29015.got.cif
#   From: 2010.05.17/outbox.cif.g08.bks.cpg/sg15_15_cif.got.tgz:29015.got - 2010.06.03 18:47:42.
