data_PCOD9283578
_publ_section_title
;
Structure prediction by ZEFSAII (Michael W. Deem and Ramdas Pophale) SiO2 
 PCOD9283578
Probable space group: C 2/C
;
_chemical_formula_sum "Si O2"
_cell_formula_units_Z 40
_cell_length_a 13.521869
_cell_length_b 17.336246
_cell_length_c 16.779421
_cell_angle_alpha 90.000000
_cell_angle_beta 150.252060
_cell_angle_gamma 90.000000
_cell_volume 1951.698100
_symmetry_space_group_name_H-M "C 2/C"
_symmetry_group_IT_number 15
_symmetry_cell_setting 'monoclinic'
loop_
_space_group_symop_operation_xyz
x,y,z
-x,y,1/2-z
-x,-y,-z
x,-y,1/2+z
1/2+x,1/2+y,z
1/2-x,1/2+y,1/2-z
1/2-x,1/2-y,-z
1/2+x,1/2-y,1/2+z
loop_
_atom_site_type_symbol
_atom_site_label
_atom_site_fract_x
_atom_site_fract_y
_atom_site_fract_z
Si Si1 0.268935 0.334678 0.336204
Si Si2 0.000000 0.061372 0.250000
Si Si3 0.000000 0.771502 0.250000
Si Si4 0.627671 0.513589 0.508530
Si Si5 0.822393 0.151472 0.473872
Si Si6 0.675536 0.807443 0.518662
O O1 0.273390 0.402977 0.405828
O O2 0.462231 0.347251 0.417414
O O3 0.294511 0.248480 0.386239
O O4 0.051318 0.334352 0.146285
O O5 0.989632 0.017654 0.157931
O O6 0.811679 0.118031 0.119644
O O7 0.123552 0.822690 0.398627
O O8 0.165249 0.712970 0.328895
O O9 0.500000 0.500000 0.500000
O O10 0.755902 0.435764 0.589310
O O11 0.750000 0.750000 0.500000
#
# Coordination Sequence:
#
# PCOD9283578 Si02
#       6
#     8   4   4   8   8   8
#     4  11  21  38  60  90 129 161 204 261 313 379
#     4  12  23  38  63  90 130 172 210 260 317 378
#     4  10  21  40  63  84 110 154 216 256 303 368
#     4  10  23  41  60  90 129 165 210 262 317 381
#     4  10  22  40  61  85 116 158 205 262 309 361
#     4  12  21  36  62  96 126 167 208 250 319 386
#
# _framework density 20.494973999999999
#
# number of rings (size 3 to 8) (size 9 to 14) (size 15 to 20)
#    0.000    1.200    4.000    1.800    0.000    3.200 
#    0.000    4.000    0.000    0.000    0.000    0.000 
#    0.000    0.000    0.000    0.000    0.000    0.000 
#
# Total GULP energy -111470.458821 kJ/mol
# GULP energy per Si atom -5573.522941 kJ/mol
# Density = 2.044833 g / cm^3
# Si number density = 20.494974 Si / 1000 Ang^3
#
#
#
# Elastic Constant Matrix: (Units=GPa)
#
#
# Indices 1 2 3 4 5 6 
#
# 1 65.2775 25.9566 26.2017 0.0020 3.7016 -0.0019
# 2 25.9566 85.6204 10.4163 0.0007 -0.7179 0.0096
# 3 26.2017 10.4163 88.4118 -0.0044 20.4354 0.0015
# 4 0.0020 0.0007 -0.0044 12.6019 -0.0061 0.8644
# 5 3.7016 -0.7179 20.4354 -0.0061 38.1493 0.0003
# 6 -0.0019 0.0096 0.0015 0.8644 0.0003 28.9378
#
#
#
# Elastic Compliance Matrix: (Units=1/GPa)
#
#
# Indices 1 2 3 4 5 6 
#
# 1 0.019513 -0.005255 -0.005368 -0.000004 0.000883 0.000003
# 2 -0.005255 0.013306 -0.000212 0.000001 0.000874 -0.000005
# 3 -0.005368 -0.000212 0.014617 0.000003 -0.007313 -0.000001
# 4 -0.000004 0.000001 0.000003 0.079516 0.000012 -0.002375
# 5 0.000883 0.000874 -0.007313 0.000012 0.030061 -0.000001
# 6 0.000003 -0.000005 -0.000001 -0.002375 -0.000001 0.034628
#
#
# Mechanical properties :
#
#
# Convention : Reuss Voigt Hill
#
# Bulk Modulus (GPa) = 38.81197 40.49545 39.65371
# Shear Modulus (GPa) = 22.53262 27.72012 25.12637
#
# Velocity S-wave (km/s) = 3.31935 3.68167 3.50519
# Velocity P-wave (km/s) = 5.80252 6.15423 5.98096
#
# Compressibility (1/GPa) = 0.02576524
#
# Stress axis : x y z
#
# Youngs Moduli (GPa) = 51.24664 75.15530 68.41402
#
# Poissons Ratio (x) = 0.39496 0.36725
# Poissons Ratio (y) = 0.26931 0.01452
# Poissons Ratio (z) = 0.27509 0.01595
#
# Static dielectric constant tensor:
#      x y z
#    x 1.753410 0.000000 -0.022640 
#    y 0.000000 1.781120 0.000000 
#    z -0.022640 0.000000 1.706050 
# 
# From -- ./inp_files/29125.got.cif
#   From: 2010.05.17/outbox.cif.g08.bks.cpg/sg15_15_cif.got.tgz:29125.got - 2010.06.03 18:47:42.
