data_PCOD9283220
_publ_section_title
;
Structure prediction by ZEFSAII (Michael W. Deem and Ramdas Pophale) SiO2 
 PCOD9283220
Probable space group: C 2/C
;
_chemical_formula_sum "Si O2"
_cell_formula_units_Z 48
_cell_length_a 9.817852
_cell_length_b 16.370402
_cell_length_c 25.243661
_cell_angle_alpha 90.000000
_cell_angle_beta 33.814436
_cell_angle_gamma 90.000000
_cell_volume 2257.861048
_symmetry_space_group_name_H-M "C 2/C"
_symmetry_group_IT_number 15
_symmetry_cell_setting 'monoclinic'
loop_
_space_group_symop_operation_xyz
x,y,z
-x,y,1/2-z
-x,-y,-z
x,-y,1/2+z
1/2+x,1/2+y,z
1/2-x,1/2+y,1/2-z
1/2-x,1/2-y,-z
1/2+x,1/2-y,1/2+z
loop_
_atom_site_type_symbol
_atom_site_label
_atom_site_fract_x
_atom_site_fract_y
_atom_site_fract_z
Si Si1 0.896330 0.691250 0.115074
Si Si2 0.345038 0.663750 0.917141
Si Si3 0.252242 0.706144 0.138605
Si Si4 0.700097 0.477061 0.286715
Si Si5 0.760229 0.481954 0.889304
Si Si6 0.031578 0.844147 0.825488
O O1 0.695774 0.687479 0.134264
O O2 0.766118 0.673595 0.212730
O O3 0.003968 0.780913 0.090363
O O4 0.116863 0.631729 0.025698
O O5 0.222938 0.724135 0.913233
O O6 0.531266 0.600913 0.830174
O O7 0.224709 0.616011 0.122416
O O8 0.445462 0.695726 0.124040
O O9 0.000000 0.724369 0.250000
O O10 0.738321 0.480375 0.337591
O O11 0.542667 0.557979 0.325524
O O12 0.976849 0.484821 0.173839
O O13 0.500000 0.500000 0.000000
#
# Coordination Sequence:
#
# PCOD9283220 Si02
#       6
#     8   8   8   8   8   8
#     4  10  23  41  66  93 130 180 207 267 339 396
#     4  11  24  40  67  98 134 166 221 274 331 388
#     4  11  20  44  65  90 132 175 205 274 336 383
#     4  10  22  40  63  99 125 168 224 272 313 397
#     4  10  21  39  69  93 129 178 224 263 325 400
#     4  10  21  44  67  85 128 180 217 256 334 396
#
# _framework density 21.259056999999999
#
# number of rings (size 3 to 8) (size 9 to 14) (size 15 to 20)
#    0.000    1.667    5.000    0.000    7.000    4.000 
#    3.000    3.333    0.000    0.000    0.000    0.000 
#    0.000    0.000    0.000    0.000    0.000    0.000 
#
# Total GULP energy -133847.180754 kJ/mol
# GULP energy per Si atom -5576.965865 kJ/mol
# Density = 2.121067 g / cm^3
# Si number density = 21.259057 Si / 1000 Ang^3
#
#
#
# Elastic Constant Matrix: (Units=GPa)
#
#
# Indices 1 2 3 4 5 6 
#
# 1 131.2693 46.5484 31.5738 -0.0035 -11.9828 -0.0001
# 2 46.5484 72.4393 32.4571 -0.0014 -5.2018 -0.0011
# 3 31.5738 32.4571 135.4637 -0.0021 -6.5441 0.0009
# 4 -0.0035 -0.0014 -0.0021 17.3045 0.0059 -4.2476
# 5 -11.9828 -5.2018 -6.5441 0.0059 21.1913 -0.0008
# 6 -0.0001 -0.0011 0.0009 -4.2476 -0.0008 22.2455
#
#
#
# Elastic Compliance Matrix: (Units=1/GPa)
#
#
# Indices 1 2 3 4 5 6 
#
# 1 0.010298 -0.005977 -0.000769 0.000000 0.004119 0.000000
# 2 -0.005977 0.019087 -0.003164 0.000000 0.000328 0.000001
# 3 -0.000769 -0.003164 0.008386 0.000000 0.001378 0.000000
# 4 0.000000 0.000000 0.000000 0.060630 -0.000017 0.011577
# 5 0.004119 0.000328 0.001378 -0.000017 0.050024 -0.000001
# 6 0.000000 0.000001 0.000000 0.011577 -0.000001 0.047163
#
#
# Mechanical properties :
#
#
# Convention : Reuss Voigt Hill
#
# Bulk Modulus (GPa) = 55.71009 62.25896 58.98453
# Shear Modulus (GPa) = 22.58420 27.38780 24.98600
#
# Velocity S-wave (km/s) = 3.26288 3.59317 3.43200
# Velocity P-wave (km/s) = 6.36062 6.82377 6.59626
#
# Compressibility (1/GPa) = 0.01795007
#
# Stress axis : x y z
#
# Youngs Moduli (GPa) = 97.10207 52.39211 119.24556
#
# Poissons Ratio (x) = 0.31316 0.09173
# Poissons Ratio (y) = 0.58040 0.37731
# Poissons Ratio (z) = 0.07470 0.16578
#
# Static dielectric constant tensor:
#      x y z
#    x -97.100760 -0.004680 71.655860 
#    y -0.004680 1.796390 0.003390 
#    z 71.655860 0.003390 -50.092760 
# 
# From -- ./inp_files/311132.got.cif
#   From: 2010.05.17/outbox.cif.g08.bks.cpg/sg15_156_cif.got.tgz:311132.got - 2010.06.03 18:47:42.
