data_PCOD9283646
_publ_section_title
;
Structure prediction by ZEFSAII (Michael W. Deem and Ramdas Pophale) SiO2 
 PCOD9283646
Probable space group: C 2/C
;
_chemical_formula_sum "Si O2"
_cell_formula_units_Z 52
_cell_length_a 15.317549
_cell_length_b 29.991809
_cell_length_c 8.719345
_cell_angle_alpha 90.000000
_cell_angle_beta 140.846517
_cell_angle_gamma 90.000000
_cell_volume 2529.183475
_symmetry_space_group_name_H-M "C 2/C"
_symmetry_group_IT_number 15
_symmetry_cell_setting 'monoclinic'
loop_
_space_group_symop_operation_xyz
x,y,z
-x,y,1/2-z
-x,-y,-z
x,-y,1/2+z
1/2+x,1/2+y,z
1/2-x,1/2+y,1/2-z
1/2-x,1/2-y,-z
1/2+x,1/2-y,1/2+z
loop_
_atom_site_type_symbol
_atom_site_label
_atom_site_fract_x
_atom_site_fract_y
_atom_site_fract_z
Si Si1 0.412997 0.041597 0.817396
Si Si2 0.097156 0.770675 0.741218
Si Si3 0.356952 0.560978 0.480846
Si Si4 0.000000 0.379143 0.250000
Si Si5 0.745688 0.487439 0.360125
Si Si6 0.251833 0.655546 0.235560
Si Si7 0.112651 0.719850 0.268506
O O1 0.483036 0.088377 0.874339
O O2 0.349652 0.024757 0.570533
O O3 0.299755 0.044244 0.798109
O O4 0.500000 0.000000 0.000000
O O5 0.134965 0.810800 0.676549
O O6 0.000000 0.786145 0.750000
O O7 0.988199 0.739326 0.501820
O O8 0.250000 0.750000 0.000000
O O9 0.365055 0.520048 0.371693
O O10 0.277345 0.541285 0.519453
O O11 0.300125 0.605383 0.328686
O O12 0.500000 0.573419 0.750000
O O13 0.132744 0.348750 0.446493
O O14 0.182761 0.675744 0.293851
O O15 0.250000 0.750000 0.500000
O O16 0.000000 0.713361 0.250000
#
# Coordination Sequence:
#
# PCOD9283646 Si02
#       7
#     8   8   8   4   8   8   8
#     4  11  18  35  63  90 127 173 224 277 345 400
#     4  12  24  49  76 103 139 191 233 285 366 439
#     4  11  24  43  65  95 138 186 233 289 334 416
#     4  12  22  40  62 102 138 170 228 302 332 404
#     4  10  21  40  63  91 128 188 230 275 350 403
#     4  12  26  42  71 106 144 175 242 293 349 420
#     4  12  25  46  77 104 141 187 232 292 368 430
#
# _framework density 20.559994
#
# number of rings (size 3 to 8) (size 9 to 14) (size 15 to 20)
#    0.000    0.615    6.154    2.308    2.154    1.231 
#    2.769    0.769    0.000    0.000    0.000    0.000 
#    0.000    0.000    0.000    0.000    0.000    0.000 
#
# Total GULP energy -144795.478740 kJ/mol
# GULP energy per Si atom -5569.056875 kJ/mol
# Density = 2.051320 g / cm^3
# Si number density = 20.559994 Si / 1000 Ang^3
#
#
#
# Elastic Constant Matrix: (Units=GPa)
#
#
# Indices 1 2 3 4 5 6 
#
# 1 111.8556 24.7905 3.0097 0.0000 1.6278 0.0000
# 2 24.7905 60.4011 0.7801 0.0000 6.5498 0.0000
# 3 3.0097 0.7801 87.9703 0.0000 9.7498 0.0000
# 4 0.0000 0.0000 0.0000 26.1357 0.0000 -4.6343
# 5 1.6278 6.5498 9.7498 0.0000 32.7084 0.0000
# 6 0.0000 0.0000 0.0000 -4.6343 0.0000 29.0721
#
#
#
# Elastic Compliance Matrix: (Units=1/GPa)
#
#
# Indices 1 2 3 4 5 6 
#
# 1 0.009848 -0.004084 -0.000349 0.000000 0.000432 0.000000
# 2 -0.004084 0.018622 0.000378 0.000000 -0.003638 0.000000
# 3 -0.000349 0.000378 0.011771 0.000000 -0.003567 0.000000
# 4 0.000000 0.000000 0.000000 0.039375 0.000000 0.006277
# 5 0.000432 -0.003638 -0.003567 0.000000 0.032344 0.000000
# 6 0.000000 0.000000 0.000000 0.006277 0.000000 0.035398
#
#
# Mechanical properties :
#
#
# Convention : Reuss Voigt Hill
#
# Bulk Modulus (GPa) = 31.12205 35.26530 33.19367
# Shear Modulus (GPa) = 30.08810 33.02636 31.55723
#
# Velocity S-wave (km/s) = 3.82963 4.01227 3.92201
# Velocity P-wave (km/s) = 5.89277 6.21723 6.05718
#
# Compressibility (1/GPa) = 0.03213156
#
# Stress axis : x y z
#
# Youngs Moduli (GPa) = 101.53910 53.69990 84.95170
#
# Poissons Ratio (x) = 0.21933 0.02961
# Poissons Ratio (y) = 0.41473 -0.03210
# Poissons Ratio (z) = 0.03539 -0.02029
#
# Static dielectric constant tensor:
#      x y z
#    x 1.885110 0.000000 0.113940 
#    y 0.000000 1.709500 0.000000 
#    z 0.113940 0.000000 1.861880 
# 
# From -- ./inp_files/44913.got.cif
#   From: 2010.05.17/outbox.cif.g08.bks.cpg/sg15_23_cif.got.tgz:44913.got - 2010.06.03 18:47:42.
