data_PCOD9283134
_publ_section_title
;
Structure prediction by ZEFSAII (Michael W. Deem and Ramdas Pophale) SiO2 
 PCOD9283134
Probable space group: C 2/C
;
_chemical_formula_sum "Si O2"
_cell_formula_units_Z 64
_cell_length_a 20.373734
_cell_length_b 13.710479
_cell_length_c 16.251247
_cell_angle_alpha 90.000000
_cell_angle_beta 34.503480
_cell_angle_gamma 90.000000
_cell_volume 2571.439763
_symmetry_space_group_name_H-M "C 2/C"
_symmetry_group_IT_number 15
_symmetry_cell_setting 'monoclinic'
loop_
_space_group_symop_operation_xyz
x,y,z
-x,y,1/2-z
-x,-y,-z
x,-y,1/2+z
1/2+x,1/2+y,z
1/2-x,1/2+y,1/2-z
1/2-x,1/2-y,-z
1/2+x,1/2-y,1/2+z
loop_
_atom_site_type_symbol
_atom_site_label
_atom_site_fract_x
_atom_site_fract_y
_atom_site_fract_z
Si Si1 0.486998 0.627364 0.609438
Si Si2 0.928497 0.418539 0.407290
Si Si3 0.355697 0.733966 0.542147
Si Si4 0.605365 0.136169 0.077913
Si Si5 0.732904 0.235584 0.196802
Si Si6 0.197434 0.087660 0.494374
Si Si7 0.688072 0.625668 0.073150
Si Si8 0.954208 0.903564 0.626620
O O1 0.386281 0.707734 0.707995
O O2 0.569777 0.627690 0.603706
O O3 0.432845 0.518112 0.661421
O O4 0.570882 0.625120 0.441861
O O5 0.947295 0.324873 0.445741
O O6 0.934095 0.532731 0.422152
O O7 0.796797 0.399192 0.517884
O O8 0.000000 0.406390 0.250000
O O9 0.267938 0.761427 0.704100
O O10 0.308256 0.706657 0.501476
O O11 0.413774 0.633178 0.510418
O O12 0.500000 0.162214 0.250000
O O13 0.721263 0.123426 0.014906
O O14 0.656847 0.205892 0.954347
O O15 0.729955 0.128645 0.158487
O O16 0.176050 0.975093 0.534877
O O17 0.590817 0.644563 0.242237
#
# Coordination Sequence:
#
# PCOD9283134 Si02
#       8
#     8   8   8   8   8   8   8   8
#     4  10  22  41  67 103 136 176 223 284 344 389
#     4  10  22  41  63  92 132 177 221 266 327 405
#     4  11  23  40  66 102 133 172 222 278 344 395
#     4  10  24  46  69  95 132 181 226 278 337 407
#     4  11  26  43  65 102 137 178 224 281 336 406
#     4  11  24  42  69  99 134 177 227 276 345 405
#     4  11  22  40  68  99 131 179 223 278 339 400
#     4  10  21  39  68 100 137 169 222 290 337 393
#
# _framework density 24.888780000000001
#
# number of rings (size 3 to 8) (size 9 to 14) (size 15 to 20)
#    0.000    1.500    1.250    3.375    3.500    2.500 
#    2.250    0.000    0.000    4.500    0.000    0.000 
#    0.000    0.000    0.000    0.000    0.000    0.000 
#
# Total GULP energy -178357.867373 kJ/mol
# GULP energy per Si atom -5573.683355 kJ/mol
# Density = 2.483213 g / cm^3
# Si number density = 24.888780 Si / 1000 Ang^3
#
#
#
# Elastic Constant Matrix: (Units=GPa)
#
#
# Indices 1 2 3 4 5 6 
#
# 1 75.3607 14.9273 14.2841 0.0000 18.4796 0.0000
# 2 14.9273 105.0684 52.2706 0.0000 23.6278 0.0000
# 3 14.2841 52.2706 136.0535 0.0000 30.2841 0.0000
# 4 0.0000 0.0000 0.0000 50.8560 0.0000 7.4577
# 5 18.4796 23.6278 30.2841 0.0000 43.0623 0.0000
# 6 0.0000 0.0000 0.0000 7.4577 0.0000 21.9190
#
#
#
# Elastic Compliance Matrix: (Units=1/GPa)
#
#
# Indices 1 2 3 4 5 6 
#
# 1 0.014886 -0.000806 0.000083 0.000000 -0.006004 0.000000
# 2 -0.000806 0.012385 -0.003839 0.000000 -0.003750 0.000000
# 3 0.000083 -0.003839 0.009906 0.000000 -0.004896 0.000000
# 4 0.000000 0.000000 0.000000 0.020696 0.000000 -0.007042
# 5 -0.006004 -0.003750 -0.004896 0.000000 0.031299 0.000000
# 6 0.000000 0.000000 0.000000 -0.007042 0.000000 0.048018
#
#
# Mechanical properties :
#
#
# Convention : Reuss Voigt Hill
#
# Bulk Modulus (GPa) = 35.64606 53.27184 44.45895
# Shear Modulus (GPa) = 32.12019 38.83418 35.47718
#
# Velocity S-wave (km/s) = 3.59632 3.95436 3.77958
# Velocity P-wave (km/s) = 5.62120 6.50382 6.07855
#
# Compressibility (1/GPa) = 0.02805360
#
# Stress axis : x y z
#
# Youngs Moduli (GPa) = 67.17842 80.74100 100.94917
#
# Poissons Ratio (x) = 0.06508 -0.00841
# Poissons Ratio (y) = 0.05415 0.38754
# Poissons Ratio (z) = -0.00560 0.30996
#
# Static dielectric constant tensor:
#      x y z
#    x 2.092520 0.000000 -0.013500 
#    y 0.000000 2.115500 0.000000 
#    z -0.013500 0.000000 1.781150 
# 
# From -- ./inp_files/219718.got.cif
#   From: 2010.05.17/outbox.cif.g08.bks.cpg/sg15_110_cif.got.tgz:219718.got - 2010.06.03 18:47:42.
