data_PCOD9283801
_publ_section_title
;
Structure prediction by ZEFSAII (Michael W. Deem and Ramdas Pophale) SiO2 
 PCOD9283801
Probable space group: C 2/C
;
_chemical_formula_sum "Si O2"
_cell_formula_units_Z 56
_cell_length_a 5.765585
_cell_length_b 24.083142
_cell_length_c 20.523678
_cell_angle_alpha 90.000000
_cell_angle_beta 61.440625
_cell_angle_gamma 90.000000
_cell_volume 2503.027154
_symmetry_space_group_name_H-M "C 2/C"
_symmetry_group_IT_number 15
_symmetry_cell_setting 'monoclinic'
loop_
_space_group_symop_operation_xyz
x,y,z
-x,y,1/2-z
-x,-y,-z
x,-y,1/2+z
1/2+x,1/2+y,z
1/2-x,1/2+y,1/2-z
1/2-x,1/2-y,-z
1/2+x,1/2-y,1/2+z
loop_
_atom_site_type_symbol
_atom_site_label
_atom_site_fract_x
_atom_site_fract_y
_atom_site_fract_z
Si Si1 0.799260 0.915493 0.916886
Si Si2 0.470934 0.415072 0.320806
Si Si3 0.185376 0.613059 0.090502
Si Si4 0.065784 0.349972 0.072492
Si Si5 0.751238 0.757238 0.576741
Si Si6 0.632009 0.530710 0.542540
Si Si7 0.259832 0.690303 0.682125
O O1 0.634026 0.894773 0.875684
O O2 0.121172 0.913933 0.880493
O O3 0.718897 0.979818 0.940739
O O4 0.711638 0.878087 0.991628
O O5 0.500000 0.448418 0.250000
O O6 0.180180 0.390562 0.376765
O O7 0.551245 0.447694 0.374605
O O8 0.656185 0.361898 0.285753
O O9 0.261359 0.677419 0.086263
O O10 0.261294 0.585066 0.010069
O O11 0.967835 0.287573 0.069610
O O12 0.229500 0.337512 0.115308
O O13 0.750000 0.750000 0.500000
O O14 0.486413 0.735122 0.645972
O O15 0.500000 0.500000 0.500000
O O16 0.000000 0.714222 0.750000
#
# Coordination Sequence:
#
# PCOD9283801 Si02
#       7
#     8   8   8   8   8   8   8
#     4  11  22  38  62  95 129 171 216 283 347 398
#     4  11  21  39  60  94 127 169 222 279 342 418
#     4  11  22  37  59  94 129 164 216 278 338 397
#     4  11  22  36  64  87 134 164 218 273 346 404
#     4  11  22  37  59  95 128 165 223 270 341 400
#     4  10  21  40  64  94 132 171 223 285 355 402
#     4  11  23  39  60  93 131 177 215 274 347 419
#
# _framework density 22.372910999999998
#
# number of rings (size 3 to 8) (size 9 to 14) (size 15 to 20)
#    0.000    1.143    4.286    3.857    2.000    1.143 
#    0.000    0.000    0.000    0.857    3.714    0.000 
#    0.000    0.000    0.000    0.000    0.000    0.000 
#
# Total GULP energy -155936.827974 kJ/mol
# GULP energy per Si atom -5569.172428 kJ/mol
# Density = 2.232199 g / cm^3
# Si number density = 22.372911 Si / 1000 Ang^3
#
#
#
# Elastic Constant Matrix: (Units=GPa)
#
#
# Indices 1 2 3 4 5 6 
#
# 1 82.6608 9.0371 7.1397 0.0000 13.0992 0.0000
# 2 9.0371 117.3818 15.3685 0.0000 -7.4076 0.0000
# 3 7.1397 15.3685 51.8264 0.0000 6.5086 0.0000
# 4 0.0000 0.0000 0.0000 11.2029 0.0000 10.1715
# 5 13.0992 -7.4076 6.5086 0.0000 29.1374 0.0000
# 6 0.0000 0.0000 0.0000 10.1715 0.0000 30.0010
#
#
#
# Elastic Compliance Matrix: (Units=1/GPa)
#
#
# Indices 1 2 3 4 5 6 
#
# 1 0.013275 -0.001324 -0.000663 0.000000 -0.006156 0.000000
# 2 -0.001324 0.009244 -0.003013 0.000000 0.003618 0.000000
# 3 -0.000663 -0.003013 0.020926 0.000000 -0.005142 0.000000
# 4 0.000000 0.000000 0.000000 0.128959 0.000000 -0.043722
# 5 -0.006156 0.003618 -0.005142 0.000000 0.039156 0.000000
# 6 0.000000 0.000000 0.000000 -0.043722 0.000000 0.048156
#
#
# Mechanical properties :
#
#
# Convention : Reuss Voigt Hill
#
# Bulk Modulus (GPa) = 29.89995 34.99553 32.44774
# Shear Modulus (GPa) = 17.80214 28.75650 23.27932
#
# Velocity S-wave (km/s) = 2.82388 3.58904 3.22920
# Velocity P-wave (km/s) = 4.90161 5.73156 5.33275
#
# Compressibility (1/GPa) = 0.03344487
#
# Stress axis : x y z
#
# Youngs Moduli (GPa) = 75.32823 108.17860 47.78779
#
# Poissons Ratio (x) = 0.14320 0.03169
# Poissons Ratio (y) = 0.09972 0.14400
# Poissons Ratio (z) = 0.04995 0.32597
#
# Static dielectric constant tensor:
#      x y z
#    x 1.950170 0.000000 -0.544950 
#    y 0.000000 1.945410 0.000000 
#    z -0.544950 0.000000 4.044660 
# 
# From -- ./inp_files/228101.got.cif
#   From: 2010.05.17/outbox.cif.g08.bks.cpg/sg15_115_cif.got.tgz:228101.got - 2010.06.03 18:47:42.
