data_PCOD9283358
_publ_section_title
;
Structure prediction by ZEFSAII (Michael W. Deem and Ramdas Pophale) SiO2 
 PCOD9283358
Probable space group: C 2/C
;
_chemical_formula_sum "Si O2"
_cell_formula_units_Z 48
_cell_length_a 22.056561
_cell_length_b 5.147720
_cell_length_c 20.320814
_cell_angle_alpha 90.000000
_cell_angle_beta 115.830234
_cell_angle_gamma 90.000000
_cell_volume 2076.726295
_symmetry_space_group_name_H-M "C 2/C"
_symmetry_group_IT_number 15
_symmetry_cell_setting 'monoclinic'
loop_
_space_group_symop_operation_xyz
x,y,z
-x,y,1/2-z
-x,-y,-z
x,-y,1/2+z
1/2+x,1/2+y,z
1/2-x,1/2+y,1/2-z
1/2-x,1/2-y,-z
1/2+x,1/2-y,1/2+z
loop_
_atom_site_type_symbol
_atom_site_label
_atom_site_fract_x
_atom_site_fract_y
_atom_site_fract_z
Si Si1 0.705105 0.810010 0.154300
Si Si2 0.890013 0.154636 0.120018
Si Si3 0.477234 0.861669 0.668473
Si Si4 0.112889 0.028259 0.016429
Si Si5 0.470447 0.209967 0.435675
Si Si6 0.296988 0.805587 0.198132
O O1 0.652386 0.753919 0.071716
O O2 0.675519 0.780554 0.214173
O O3 0.763237 0.588727 0.174546
O O4 0.739029 0.088846 0.165960
O O5 0.928191 0.417440 0.116936
O O6 0.847407 0.235356 0.163280
O O7 0.939225 0.913048 0.160942
O O8 0.853274 0.061421 0.035380
O O9 0.500000 0.956618 0.750000
O O10 0.537646 0.856476 0.644595
O O11 0.097307 0.820399 0.065764
O O12 0.035383 0.097737 0.961122
O O13 0.500000 0.000000 0.500000
#
# Coordination Sequence:
#
# PCOD9283358 Si02
#       6
#     8   8   8   8   8   8
#     4  10  23  41  63  89 118 163 205 250 311 357
#     4  11  23  41  61  90 126 157 202 259 297 360
#     4  11  24  39  61  93 124 162 204 245 308 361
#     4  10  23  38  63  90 121 164 200 250 307 358
#     4  10  21  40  60  89 127 157 204 247 297 374
#     4  10  23  42  60  90 123 154 210 255 296 369
#
# _framework density 23.113302000000001
#
# number of rings (size 3 to 8) (size 9 to 14) (size 15 to 20)
#    0.000    1.667    1.667    1.500    4.667    2.667 
#    0.000    0.000    0.000    0.000    0.000    0.000 
#    0.000    0.000    0.000    0.000    0.000    0.000 
#
# Total GULP energy -134012.601139 kJ/mol
# GULP energy per Si atom -5583.858381 kJ/mol
# Density = 2.306070 g / cm^3
# Si number density = 23.113302 Si / 1000 Ang^3
#
#
#
# Elastic Constant Matrix: (Units=GPa)
#
#
# Indices 1 2 3 4 5 6 
#
# 1 56.2091 12.6217 26.4166 -0.0001 -22.6696 0.0002
# 2 12.6217 74.6635 -23.3302 0.0006 3.3604 -0.0002
# 3 26.4166 -23.3302 90.7896 -0.0002 -26.3385 0.0002
# 4 -0.0001 0.0006 -0.0002 24.6515 0.0001 4.3556
# 5 -22.6696 3.3604 -26.3385 0.0001 36.3318 -0.0001
# 6 0.0002 -0.0002 0.0002 4.3556 -0.0001 27.6300
#
#
#
# Elastic Compliance Matrix: (Units=1/GPa)
#
#
# Indices 1 2 3 4 5 6 
#
# 1 0.027684 -0.007149 -0.005938 0.000000 0.013630 0.000000
# 2 -0.007149 0.016495 0.005802 0.000000 -0.001780 0.000000
# 3 -0.005938 0.005802 0.016466 0.000000 0.007695 0.000000
# 4 0.000000 0.000000 0.000000 0.041728 0.000000 -0.006578
# 5 0.013630 -0.001780 0.007695 0.000000 0.041772 0.000000
# 6 0.000000 0.000000 0.000000 -0.006578 0.000000 0.037229
#
#
# Mechanical properties :
#
#
# Convention : Reuss Voigt Hill
#
# Bulk Modulus (GPa) = 21.70318 28.11982 24.91150
# Shear Modulus (GPa) = 23.66302 31.45294 27.55798
#
# Velocity S-wave (km/s) = 3.20313 3.69293 3.45672
# Velocity P-wave (km/s) = 4.80524 5.51145 5.17042
#
# Compressibility (1/GPa) = 0.04607620
#
# Stress axis : x y z
#
# Youngs Moduli (GPa) = 36.12233 60.62403 60.73273
#
# Poissons Ratio (x) = 0.43338 0.36062
# Poissons Ratio (y) = 0.25823 -0.35240
# Poissons Ratio (z) = 0.21449 -0.35177
#
# Static dielectric constant tensor:
#      x y z
#    x 1.880800 0.000000 -0.001760 
#    y 0.000000 1.923020 0.000000 
#    z -0.001760 0.000000 1.998610 
# 
# From -- ./inp_files/217803.got.cif
#   From: 2010.05.17/outbox.cif.g08.bks.cpg/sg15_109_cif.got.tgz:217803.got - 2010.06.03 18:47:42.
