data_PCOD9283519
_publ_section_title
;
Structure prediction by ZEFSAII (Michael W. Deem and Ramdas Pophale) SiO2 
 PCOD9283519
Probable space group: C 2/C
;
_chemical_formula_sum "Si O2"
_cell_formula_units_Z 64
_cell_length_a 14.528072
_cell_length_b 7.466076
_cell_length_c 27.178563
_cell_angle_alpha 90.000000
_cell_angle_beta 84.411014
_cell_angle_gamma 90.000000
_cell_volume 2933.981578
_symmetry_space_group_name_H-M "C 2/C"
_symmetry_group_IT_number 15
_symmetry_cell_setting 'monoclinic'
loop_
_space_group_symop_operation_xyz
x,y,z
-x,y,1/2-z
-x,-y,-z
x,-y,1/2+z
1/2+x,1/2+y,z
1/2-x,1/2+y,1/2-z
1/2-x,1/2-y,-z
1/2+x,1/2-y,1/2+z
loop_
_atom_site_type_symbol
_atom_site_label
_atom_site_fract_x
_atom_site_fract_y
_atom_site_fract_z
Si Si1 0.613895 0.382233 0.594003
Si Si2 0.896903 0.454683 0.882593
Si Si3 0.846083 0.815752 0.472557
Si Si4 0.583051 0.920385 0.340561
Si Si5 0.775555 0.916034 0.820695
Si Si6 0.413888 0.651266 0.072536
Si Si7 0.713367 0.536774 0.854457
Si Si8 0.414011 0.398432 0.725994
O O1 0.613124 0.164633 0.598217
O O2 0.667695 0.484006 0.548068
O O3 0.650319 0.473347 0.642128
O O4 0.508394 0.430567 0.587660
O O5 0.879608 0.316600 0.927541
O O6 0.813167 0.439164 0.847512
O O7 0.999694 0.441495 0.854312
O O8 0.750000 0.750000 0.500000
O O9 0.916126 0.814197 0.514869
O O10 0.600936 0.826774 0.392682
O O11 0.544876 0.777061 0.303027
O O12 0.685106 0.966860 0.315599
O O13 0.731239 0.744194 0.848897
O O14 0.833900 0.865508 0.770010
O O15 0.330639 0.521122 0.091659
O O16 0.640389 0.491298 0.815793
O O17 0.500000 0.488562 0.750000
#
# Coordination Sequence:
#
# PCOD9283519 Si02
#       8
#     8   8   8   8   8   8   8   8
#     4  10  24  41  63  93 134 173 215 270 332 376
#     4  10  23  44  63  96 133 173 217 273 326 389
#     4  12  23  40  67  98 132 179 228 270 325 389
#     4  10  23  41  66  92 131 169 212 274 330 386
#     4  11  22  40  63  98 120 169 218 265 328 395
#     4  10  21  42  61  91 131 176 210 272 325 386
#     4  10  21  40  62  90 128 163 211 268 327 383
#     4  11  22  42  67  89 128 168 208 264 339 400
#
# _framework density 21.813359999999999
#
# number of rings (size 3 to 8) (size 9 to 14) (size 15 to 20)
#    0.000    1.500    1.250    4.875    3.500    2.500 
#    2.250    0.625    0.000    0.000    0.000    0.000 
#    0.000    0.000    0.000    0.000    0.000    0.000 
#
# Total GULP energy -178443.366594 kJ/mol
# GULP energy per Si atom -5576.355206 kJ/mol
# Density = 2.176371 g / cm^3
# Si number density = 21.813360 Si / 1000 Ang^3
#
#
#
# Elastic Constant Matrix: (Units=GPa)
#
#
# Indices 1 2 3 4 5 6 
#
# 1 105.1416 12.0792 33.3344 0.0000 4.8790 0.0000
# 2 12.0792 27.4046 9.6860 0.0000 -2.5275 0.0000
# 3 33.3344 9.6860 84.4474 0.0000 13.9559 0.0000
# 4 0.0000 0.0000 0.0000 23.5843 0.0000 -11.1085
# 5 4.8790 -2.5275 13.9559 0.0000 36.6362 0.0000
# 6 0.0000 0.0000 0.0000 -11.1085 0.0000 27.4174
#
#
#
# Elastic Compliance Matrix: (Units=1/GPa)
#
#
# Indices 1 2 3 4 5 6 
#
# 1 0.011188 -0.003548 -0.003973 0.000000 -0.000221 0.000000
# 2 -0.003548 0.039889 -0.003957 0.000000 0.004732 0.000000
# 3 -0.003973 -0.003957 0.014750 0.000000 -0.005363 0.000000
# 4 0.000000 0.000000 0.000000 0.052401 0.000000 0.021231
# 5 -0.000221 0.004732 -0.005363 0.000000 0.029694 0.000000
# 6 0.000000 0.000000 0.000000 0.021231 0.000000 0.045075
#
#
# Mechanical properties :
#
#
# Convention : Reuss Voigt Hill
#
# Bulk Modulus (GPa) = 23.32499 36.35476 29.83988
# Shear Modulus (GPa) = 21.71612 28.32051 25.01832
#
# Velocity S-wave (km/s) = 3.15864 3.60712 3.39030
# Velocity P-wave (km/s) = 4.90091 5.83531 5.38840
#
# Compressibility (1/GPa) = 0.04287247
#
# Stress axis : x y z
#
# Youngs Moduli (GPa) = 89.37790 25.06963 67.79643
#
# Poissons Ratio (x) = 0.08894 0.26935
# Poissons Ratio (y) = 0.31709 0.26825
# Poissons Ratio (z) = 0.35510 0.09919
#
# Static dielectric constant tensor:
#      x y z
#    x 1.909280 0.000000 0.037350 
#    y 0.000000 1.863470 0.000000 
#    z 0.037350 0.000000 1.808030 
# 
# From -- ./inp_files/295142.got.cif
#   From: 2010.05.17/outbox.cif.g08.bks.cpg/sg15_148_cif.got.tgz:295142.got - 2010.06.03 18:47:42.
