data_PCOD9283817
_publ_section_title
;
Structure prediction by ZEFSAII (Michael W. Deem and Ramdas Pophale) SiO2 
 PCOD9283817
Probable space group: C 2/C
;
_chemical_formula_sum "Si O2"
_cell_formula_units_Z 44
_cell_length_a 7.475860
_cell_length_b 8.816681
_cell_length_c 30.699579
_cell_angle_alpha 90.000000
_cell_angle_beta 118.627351
_cell_angle_gamma 90.000000
_cell_volume 1776.117547
_symmetry_space_group_name_H-M "C 2/C"
_symmetry_group_IT_number 15
_symmetry_cell_setting 'monoclinic'
loop_
_space_group_symop_operation_xyz
x,y,z
-x,y,1/2-z
-x,-y,-z
x,-y,1/2+z
1/2+x,1/2+y,z
1/2-x,1/2+y,1/2-z
1/2-x,1/2-y,-z
1/2+x,1/2-y,1/2+z
loop_
_atom_site_type_symbol
_atom_site_label
_atom_site_fract_x
_atom_site_fract_y
_atom_site_fract_z
Si Si1 0.208490 0.916422 0.475252
Si Si2 0.947024 0.918564 0.883561
Si Si3 0.778543 0.399629 0.847697
Si Si4 0.031014 0.589843 0.933977
Si Si5 0.721463 0.903361 0.296963
Si Si6 0.500000 0.434880 0.250000
O O1 0.250000 0.750000 0.500000
O O2 0.370632 0.927889 0.454783
O O3 0.996244 0.960487 0.427434
O O4 0.260733 0.044131 0.517564
O O5 0.118535 0.939165 0.866583
O O6 0.986938 0.753954 0.908656
O O7 0.752323 0.943494 0.829282
O O8 0.986221 0.468846 0.890237
O O9 0.767443 0.223208 0.838111
O O10 0.685146 0.471098 0.793199
O O11 0.500000 0.895019 0.250000
O O12 0.884102 0.864900 0.277686
#
# Coordination Sequence:
#
# PCOD9283817 Si02
#       6
#     8   8   8   8   8   4
#     4  10  21  40  64  95 130 174 218 276 339 399
#     4  10  23  42  63  98 133 172 227 277 335 405
#     4  10  22  43  62  93 137 168 223 284 323 399
#     4  10  22  39  64  94 133 173 216 281 337 394
#     4  11  24  46  69  98 136 183 227 280 340 400
#     4  10  24  44  64  98 138 170 232 288 326 398
#
# _framework density 24.773133000000001
#
# number of rings (size 3 to 8) (size 9 to 14) (size 15 to 20)
#    0.000    1.818    0.909    1.636    2.545    2.182 
#   13.091    0.000    0.000    0.000    0.000    0.000 
#    0.000    0.000    0.000    0.000    0.000    0.000 
#
# Total GULP energy -122773.316232 kJ/mol
# GULP energy per Si atom -5580.605283 kJ/mol
# Density = 2.471675 g / cm^3
# Si number density = 24.773133 Si / 1000 Ang^3
#
#
#
# Elastic Constant Matrix: (Units=GPa)
#
#
# Indices 1 2 3 4 5 6 
#
# 1 51.2100 -8.3477 33.3810 0.0000 -2.0447 0.0000
# 2 -8.3477 87.6499 82.6271 0.0000 17.7005 0.0000
# 3 33.3810 82.6271 207.8744 0.0000 23.0545 0.0000
# 4 0.0000 0.0000 0.0000 53.1687 0.0000 -9.9414
# 5 -2.0447 17.7005 23.0545 0.0000 38.5721 0.0000
# 6 0.0000 0.0000 0.0000 -9.9414 0.0000 23.6743
#
#
#
# Elastic Compliance Matrix: (Units=1/GPa)
#
#
# Indices 1 2 3 4 5 6 
#
# 1 0.026910 0.010326 -0.008630 0.000000 0.001846 0.000000
# 2 0.010326 0.022908 -0.010344 0.000000 -0.003782 0.000000
# 3 -0.008630 -0.010344 0.010530 0.000000 -0.002005 0.000000
# 4 0.000000 0.000000 0.000000 0.020411 0.000000 0.008571
# 5 0.001846 -0.003782 -0.002005 0.000000 0.028957 0.000000
# 6 0.000000 0.000000 0.000000 0.008571 0.000000 0.045839
#
#
# Mechanical properties :
#
#
# Convention : Reuss Voigt Hill
#
# Bulk Modulus (GPa) = 23.22840 62.45056 42.83948
# Shear Modulus (GPa) = 26.70902 39.02128 32.86515
#
# Velocity S-wave (km/s) = 3.28707 3.97312 3.64626
# Velocity P-wave (km/s) = 4.87886 6.80524 5.92092
#
# Compressibility (1/GPa) = 0.04305075
#
# Stress axis : x y z
#
# Youngs Moduli (GPa) = 37.16075 43.65368 94.96248
#
# Poissons Ratio (x) = -0.45076 0.81957
# Poissons Ratio (y) = -0.38372 0.98230
# Poissons Ratio (z) = 0.32071 0.45156
#
# Static dielectric constant tensor:
#      x y z
#    x 1.989670 0.000000 0.063990 
#    y 0.000000 2.042460 0.000000 
#    z 0.063990 0.000000 2.015730 
# 
# From -- ./inp_files/306623.got.cif
#   From: 2010.05.17/outbox.cif.g08.bks.cpg/sg15_154_cif.got.tgz:306623.got - 2010.06.03 18:47:42.
