data_PCOD9283430
_publ_section_title
;
Structure prediction by ZEFSAII (Michael W. Deem and Ramdas Pophale) SiO2 
 PCOD9283430
Probable space group: C 2/C
;
_chemical_formula_sum "Si O2"
_cell_formula_units_Z 48
_cell_length_a 18.685176
_cell_length_b 8.460572
_cell_length_c 27.751677
_cell_angle_alpha 90.000000
_cell_angle_beta 29.451845
_cell_angle_gamma 90.000000
_cell_volume 2157.144265
_symmetry_space_group_name_H-M "C 2/C"
_symmetry_group_IT_number 15
_symmetry_cell_setting 'monoclinic'
loop_
_space_group_symop_operation_xyz
x,y,z
-x,y,1/2-z
-x,-y,-z
x,-y,1/2+z
1/2+x,1/2+y,z
1/2-x,1/2+y,1/2-z
1/2-x,1/2-y,-z
1/2+x,1/2-y,1/2+z
loop_
_atom_site_type_symbol
_atom_site_label
_atom_site_fract_x
_atom_site_fract_y
_atom_site_fract_z
Si Si1 0.793638 0.546847 0.096356
Si Si2 0.142745 0.452886 0.783316
Si Si3 0.984154 0.715978 0.046389
Si Si4 0.108231 0.315845 0.057158
Si Si5 0.523951 0.516719 0.886813
Si Si6 0.059838 0.828677 0.267506
O O1 0.849839 0.704532 0.088909
O O2 0.641651 0.489625 0.204401
O O3 0.819283 0.573149 0.025658
O O4 0.893826 0.393505 0.049190
O O5 0.079079 0.369737 0.868846
O O6 0.300620 0.519706 0.706366
O O7 0.147376 0.318886 0.739387
O O8 0.019668 0.583051 0.842362
O O9 0.039730 0.883306 0.031420
O O10 0.250000 0.250000 0.000000
O O11 0.025829 0.162840 0.084671
O O12 0.477649 0.605615 0.864016
O O13 0.000000 0.775487 0.250000
#
# Coordination Sequence:
#
# PCOD9283430 Si02
#       6
#     8   8   8   8   8   8
#     4  10  21  40  61  91 126 165 219 274 326 384
#     4  10  22  41  64  92 127 174 223 267 332 405
#     4   9  20  37  63  88 118 164 218 270 318 392
#     4  11  24  42  64  95 138 173 215 280 348 398
#     4  11  22  41  67  94 127 179 222 273 338 404
#     4  11  23  41  64  91 129 174 219 275 334 398
#
# _framework density 22.251640999999999
#
# number of rings (size 3 to 8) (size 9 to 14) (size 15 to 20)
#    0.000    1.667    1.667    3.000    4.667    2.000 
#    3.000    5.833    0.000    0.000    0.000    0.000 
#    0.000    0.000    0.000    0.000    0.000    0.000 
#
# Total GULP energy -133633.258891 kJ/mol
# GULP energy per Si atom -5568.052454 kJ/mol
# Density = 2.220100 g / cm^3
# Si number density = 22.251641 Si / 1000 Ang^3
#
#
#
# Elastic Constant Matrix: (Units=GPa)
#
#
# Indices 1 2 3 4 5 6 
#
# 1 95.4605 13.8620 20.4371 0.0002 -6.3334 -0.0001
# 2 13.8620 84.0805 10.8267 0.0008 -2.5518 -0.0002
# 3 20.4371 10.8267 34.5617 0.0012 -4.5821 -0.0001
# 4 0.0002 0.0008 0.0012 34.4807 0.0000 6.8871
# 5 -6.3334 -2.5518 -4.5821 0.0000 25.5731 -0.0001
# 6 -0.0001 -0.0002 -0.0001 6.8871 -0.0001 28.3194
#
#
#
# Elastic Compliance Matrix: (Units=1/GPa)
#
#
# Indices 1 2 3 4 5 6 
#
# 1 0.012167 -0.001101 -0.006622 0.000000 0.001717 0.000000
# 2 -0.001101 0.012501 -0.003212 0.000000 0.000399 0.000000
# 3 -0.006622 -0.003212 0.034413 -0.000001 0.004206 0.000000
# 4 0.000000 0.000000 -0.000001 0.030482 0.000000 -0.007413
# 5 0.001717 0.000399 0.004206 0.000000 0.040322 0.000000
# 6 0.000000 0.000000 0.000000 -0.007413 0.000000 0.037114
#
#
# Mechanical properties :
#
#
# Convention : Reuss Voigt Hill
#
# Bulk Modulus (GPa) = 26.87395 33.81715 30.34555
# Shear Modulus (GPa) = 24.84180 28.93976 26.89078
#
# Velocity S-wave (km/s) = 3.34489 3.61025 3.48010
# Velocity P-wave (km/s) = 5.19819 5.71044 5.46033
#
# Compressibility (1/GPa) = 0.03721075
#
# Stress axis : x y z
#
# Youngs Moduli (GPa) = 82.18904 79.99620 29.05854
#
# Poissons Ratio (x) = 0.08809 0.19243
# Poissons Ratio (y) = 0.09050 0.09333
# Poissons Ratio (z) = 0.54427 0.25694
#
# Static dielectric constant tensor:
#      x y z
#    x 1.881660 0.000000 -0.058700 
#    y 0.000000 1.865460 0.000000 
#    z -0.058700 0.000000 1.893010 
# 
# From -- ./inp_files/315637.got.cif
#   From: 2010.05.17/outbox.cif.g08.bks.cpg/sg15_158_cif.got.tgz:315637.got - 2010.06.03 18:47:42.
