data_PCOD9283400
_publ_section_title
;
Structure prediction by ZEFSAII (Michael W. Deem and Ramdas Pophale) SiO2 
 PCOD9283400
Probable space group: C 2/C
;
_chemical_formula_sum "Si O2"
_cell_formula_units_Z 52
_cell_length_a 11.465635
_cell_length_b 26.555988
_cell_length_c 15.482806
_cell_angle_alpha 90.000000
_cell_angle_beta 147.707426
_cell_angle_gamma 90.000000
_cell_volume 2518.540387
_symmetry_space_group_name_H-M "C 2/C"
_symmetry_group_IT_number 15
_symmetry_cell_setting 'monoclinic'
loop_
_space_group_symop_operation_xyz
x,y,z
-x,y,1/2-z
-x,-y,-z
x,-y,1/2+z
1/2+x,1/2+y,z
1/2-x,1/2+y,1/2-z
1/2-x,1/2-y,-z
1/2+x,1/2-y,1/2+z
loop_
_atom_site_type_symbol
_atom_site_label
_atom_site_fract_x
_atom_site_fract_y
_atom_site_fract_z
Si Si1 0.780241 0.022041 0.059851
Si Si2 0.488241 0.803243 0.097112
Si Si3 0.917205 0.086441 0.981312
Si Si4 0.397964 0.912006 0.375232
Si Si5 0.275055 0.079975 0.072013
Si Si6 0.000000 0.096828 0.750000
Si Si7 0.360578 0.302806 0.476038
O O1 0.000000 0.010568 0.250000
O O2 0.854409 0.059254 0.029544
O O3 0.600081 0.050292 0.004263
O O4 0.687753 0.971864 0.957132
O O5 0.525324 0.854014 0.066311
O O6 0.674399 0.801429 0.286543
O O7 0.259688 0.806387 0.006190
O O8 0.488693 0.749448 0.050888
O O9 0.707476 0.084655 0.786609
O O10 0.980528 0.144555 0.038009
O O11 0.116829 0.064569 0.051723
O O12 0.203210 0.923666 0.319098
O O13 0.500000 0.100244 0.250000
O O14 0.143530 0.116225 0.922781
#
# Coordination Sequence:
#
# PCOD9283400 Si02
#       7
#     8   8   8   8   8   4   8
#     4  12  24  37  62  97 123 155 209 262 313 375
#     4   9  17  32  56  85 119 155 190 257 304 365
#     4  10  21  40  61  88 121 166 204 249 315 373
#     4  10  21  40  64  84 128 163 207 254 313 369
#     4  11  24  43  63  84 128 167 208 258 307 371
#     4  10  24  44  62  90 120 172 214 254 300 376
#     4   9  17  32  56  86 120 151 200 243 316 363
#
# _framework density 20.646879999999999
#
# number of rings (size 3 to 8) (size 9 to 14) (size 15 to 20)
#    0.000    1.846    2.308    1.846    2.154    3.077 
#    0.000    0.000    1.692    2.769    0.000    0.000 
#    0.000    0.000    0.000    0.000    0.000    0.000 
#
# Total GULP energy -144914.323656 kJ/mol
# GULP energy per Si atom -5573.627833 kJ/mol
# Density = 2.059989 g / cm^3
# Si number density = 20.646880 Si / 1000 Ang^3
#
#
#
# Elastic Constant Matrix: (Units=GPa)
#
#
# Indices 1 2 3 4 5 6 
#
# 1 85.3589 21.0172 23.7351 -0.0001 3.7153 0.0000
# 2 21.0172 100.7620 13.3087 0.0000 0.6061 0.0000
# 3 23.7351 13.3087 86.6546 -0.0005 6.3656 -0.0001
# 4 -0.0001 0.0000 -0.0005 17.8288 -0.0001 -5.8529
# 5 3.7153 0.6061 6.3656 -0.0001 16.2156 0.0000
# 6 0.0000 0.0000 -0.0001 -5.8529 0.0000 1.5462
#
#
#
# Elastic Compliance Matrix: (Units=1/GPa)
#
#
# Indices 1 2 3 4 5 6 
#
# 1 0.013239 -0.002336 -0.003141 0.000001 -0.001713 0.000002
# 2 -0.002336 0.010543 -0.001019 0.000000 0.000541 0.000001
# 3 -0.003141 -0.001019 0.012873 -0.000003 -0.004295 -0.000010
# 4 0.000001 0.000000 -0.000003 -0.231131 -0.000002 -0.874909
# 5 -0.001713 0.000541 -0.004295 -0.000002 0.063728 -0.000006
# 6 0.000002 0.000001 -0.000010 -0.874909 -0.000006 -2.665087
#
#
# Mechanical properties :
#
#
# Convention : Reuss Voigt Hill
#
# Bulk Modulus (GPa) = 42.26418 43.21083 42.73751
# Shear Modulus (GPa) = -1.80183 21.43242 9.81530
#
# Velocity S-wave (km/s) = -0.93519 3.22537 2.18271
# Velocity P-wave (km/s) = 4.39867 5.90293 5.20543
#
# Compressibility (1/GPa) = 0.02366070
#
# Stress axis : x y z
#
# Youngs Moduli (GPa) = 75.53723 94.84975 77.68433
#
# Poissons Ratio (x) = 0.22158 0.24405
# Poissons Ratio (y) = 0.17646 0.07917
# Poissons Ratio (z) = 0.23730 0.09666
#
# Static dielectric constant tensor:
#      x y z
#    x 1.735700 0.000000 -0.026000 
#    y 0.000000 1.790560 0.000000 
#    z -0.026000 0.000000 1.759090 
# 
# From -- ./inp_files/201203.got.cif
#   From: 2010.05.17/outbox.cif.g08.bks.cpg/sg15_101_cif.got.tgz:201203.got - 2010.06.03 18:47:42.
