data_PCOD9283315
_publ_section_title
;
Structure prediction by ZEFSAII (Michael W. Deem and Ramdas Pophale) SiO2 
 PCOD9283315
Probable space group: C 2/C
;
_chemical_formula_sum "Si O2"
_cell_formula_units_Z 60
_cell_length_a 16.002593
_cell_length_b 9.222634
_cell_length_c 24.925231
_cell_angle_alpha 90.000000
_cell_angle_beta 125.486522
_cell_angle_gamma 90.000000
_cell_volume 2995.321280
_symmetry_space_group_name_H-M "C 2/C"
_symmetry_group_IT_number 15
_symmetry_cell_setting 'monoclinic'
loop_
_space_group_symop_operation_xyz
x,y,z
-x,y,1/2-z
-x,-y,-z
x,-y,1/2+z
1/2+x,1/2+y,z
1/2-x,1/2+y,1/2-z
1/2-x,1/2-y,-z
1/2+x,1/2-y,1/2+z
loop_
_atom_site_type_symbol
_atom_site_label
_atom_site_fract_x
_atom_site_fract_y
_atom_site_fract_z
Si Si1 0.750398 0.160474 0.187737
Si Si2 0.872152 0.662335 0.251511
Si Si3 0.241262 0.132884 0.874435
Si Si4 0.411698 0.627825 0.920579
Si Si5 0.958783 0.126855 0.637145
Si Si6 0.940276 0.791634 0.936719
Si Si7 0.000000 0.416160 0.250000
Si Si8 0.970327 0.200279 0.323245
O O1 0.682547 0.115194 0.214029
O O2 0.688823 0.293805 0.138923
O O3 0.859867 0.199391 0.253357
O O4 0.760100 0.028827 0.149895
O O5 0.798485 0.761718 0.188153
O O6 0.909616 0.521752 0.234601
O O7 0.970589 0.761345 0.303346
O O8 0.159563 0.149541 0.892006
O O9 0.356509 0.182871 0.929313
O O10 0.501825 0.641555 0.909158
O O11 0.396699 0.456458 0.923129
O O12 0.455704 0.701521 0.990354
O O13 0.986748 0.962425 0.664201
O O14 0.960112 0.758873 0.881664
O O15 0.033012 0.315269 0.311881
#
# Coordination Sequence:
#
# PCOD9283315 Si02
#       8
#     8   8   8   8   8   8   4   8
#     4  11  23  37  63  90 118 158 206 246 305 363
#     4  11  22  35  54  90 122 152 192 251 296 360
#     4  12  21  36  61  88 119 158 194 252 300 361
#     4   9  23  43  63  86 119 164 203 249 296 365
#     4  10  21  40  59  86 126 155 193 244 316 352
#     4  10  22  41  66  85 122 160 206 245 303 358
#     4  12  24  32  56  92 126 150 194 250 308 344
#     4  11  22  38  62  90 122 158 197 250 305 364
#
# _framework density 20.03124
#
# number of rings (size 3 to 8) (size 9 to 14) (size 15 to 20)
#    0.000    1.333    4.000    1.600    1.867    1.067 
#    0.000    0.000    2.933    3.200    0.000    0.000 
#    0.000    0.000    0.000    0.000    0.000    0.000 
#
# Total GULP energy -167695.871418 kJ/mol
# GULP energy per Si atom -5589.862381 kJ/mol
# Density = 1.998565 g / cm^3
# Si number density = 20.031240 Si / 1000 Ang^3
#
#
#
# Elastic Constant Matrix: (Units=GPa)
#
#
# Indices 1 2 3 4 5 6 
#
# 1 70.0580 20.4129 4.9926 0.0000 -2.0929 0.0000
# 2 20.4129 54.4711 12.9479 0.0000 -9.7945 0.0000
# 3 4.9926 12.9479 64.7282 0.0000 -2.2753 0.0000
# 4 0.0000 0.0000 0.0000 16.1799 0.0000 -3.0842
# 5 -2.0929 -9.7945 -2.2753 0.0000 10.1753 0.0000
# 6 0.0000 0.0000 0.0000 -3.0842 0.0000 34.5155
#
#
#
# Elastic Compliance Matrix: (Units=1/GPa)
#
#
# Indices 1 2 3 4 5 6 
#
# 1 0.016100 -0.006568 -0.000034 0.000000 -0.003018 0.000000
# 2 -0.006568 0.025806 -0.003860 0.000000 0.022626 0.000000
# 3 -0.000034 -0.003860 0.016221 0.000000 -0.000096 0.000000
# 4 0.000000 0.000000 0.000000 0.062876 0.000000 0.005618
# 5 -0.003018 0.022626 -0.000096 0.000000 0.119414 0.000000
# 6 0.000000 0.000000 0.000000 0.005618 0.000000 0.029475
#
#
# Mechanical properties :
#
#
# Convention : Reuss Voigt Hill
#
# Bulk Modulus (GPa) = 26.88042 29.55155 28.21598
# Shear Modulus (GPa) = 16.48990 22.23440 19.36215
#
# Velocity S-wave (km/s) = 2.87227 3.33526 3.11239
# Velocity P-wave (km/s) = 4.94453 5.44212 5.19928
#
# Compressibility (1/GPa) = 0.03720180
#
# Stress axis : x y z
#
# Youngs Moduli (GPa) = 62.11221 38.75117 61.64982
#
# Poissons Ratio (x) = 0.25452 0.00210
# Poissons Ratio (y) = 0.40796 0.23797
# Poissons Ratio (z) = 0.00212 0.14958
#
# Static dielectric constant tensor:
#      x y z
#    x 1.738180 0.000000 -0.007950 
#    y 0.000000 1.698380 0.000000 
#    z -0.007950 0.000000 1.687570 
# 
# From -- ./inp_files/298395.got.cif
#   From: 2010.05.17/outbox.cif.g08.bks.cpg/sg15_150_cif.got.tgz:298395.got - 2010.06.03 18:47:42.
