data_PCOD9283336
_publ_section_title
;
Structure prediction by ZEFSAII (Michael W. Deem and Ramdas Pophale) SiO2 
 PCOD9283336
Probable space group: C 2/C
;
_chemical_formula_sum "Si O2"
_cell_formula_units_Z 60
_cell_length_a 31.657922
_cell_length_b 12.400038
_cell_length_c 16.905026
_cell_angle_alpha 90.000000
_cell_angle_beta 153.957323
_cell_angle_gamma 90.000000
_cell_volume 2913.572597
_symmetry_space_group_name_H-M "C 2/C"
_symmetry_group_IT_number 15
_symmetry_cell_setting 'monoclinic'
loop_
_space_group_symop_operation_xyz
x,y,z
-x,y,1/2-z
-x,-y,-z
x,-y,1/2+z
1/2+x,1/2+y,z
1/2-x,1/2+y,1/2-z
1/2-x,1/2-y,-z
1/2+x,1/2-y,1/2+z
loop_
_atom_site_type_symbol
_atom_site_label
_atom_site_fract_x
_atom_site_fract_y
_atom_site_fract_z
Si Si1 0.910611 0.624428 0.486469
Si Si2 0.882414 0.458306 0.206592
Si Si3 0.891954 0.308883 0.775503
Si Si4 0.254010 0.097691 0.346783
Si Si5 0.000000 0.196133 0.250000
Si Si6 0.615618 0.780256 0.168477
Si Si7 0.135463 0.082183 0.725972
Si Si8 0.065083 0.107256 0.206560
O O1 0.885304 0.657686 0.355943
O O2 0.819612 0.580823 0.380549
O O3 0.941824 0.726539 0.592871
O O4 0.006459 0.553487 0.634390
O O5 0.860419 0.585485 0.174457
O O6 0.864815 0.399156 0.261843
O O7 0.822672 0.397337 0.038971
O O8 0.839229 0.194269 0.689484
O O9 0.006454 0.286380 0.950873
O O10 0.186867 0.206017 0.234983
O O11 0.197664 0.986901 0.269196
O O12 0.060698 0.123878 0.292136
O O13 0.612180 0.709439 0.243191
O O14 0.038025 0.100991 0.511220
O O15 0.118387 0.999049 0.768539
#
# Coordination Sequence:
#
# PCOD9283336 Si02
#       8
#     8   8   8   8   4   8   8   8
#     4  11  20  37  57  89 113 144 186 251 301 326
#     4  11  20  36  59  85 116 157 195 230 293 369
#     4  10  21  40  60  79 117 167 191 223 300 373
#     4  11  21  33  59  85 117 148 195 250 289 334
#     4  12  16  32  62  86 106 136 194 254 282 328
#     4   9  17  35  56  86 107 143 191 246 284 339
#     4   9  19  37  53  79 119 158 183 231 290 363
#     4   9  17  32  60  82 108 144 191 236 302 336
#
# _framework density 20.593274999999998
#
# number of rings (size 3 to 8) (size 9 to 14) (size 15 to 20)
#    0.000    1.867    5.333    2.800    0.000    1.600 
#    4.800    2.667    2.933    0.000    0.000    0.000 
#    0.000    0.000    0.000    0.000    0.000    0.000 
#
# Total GULP energy -167124.821865 kJ/mol
# GULP energy per Si atom -5570.827396 kJ/mol
# Density = 2.054640 g / cm^3
# Si number density = 20.593275 Si / 1000 Ang^3
#
#
#
# Elastic Constant Matrix: (Units=GPa)
#
#
# Indices 1 2 3 4 5 6 
#
# 1 73.8361 24.1451 12.9846 0.0000 12.7606 0.0000
# 2 24.1451 131.8398 29.1229 0.0000 22.2667 0.0000
# 3 12.9846 29.1229 21.3861 0.0000 13.4952 0.0000
# 4 0.0000 0.0000 0.0000 18.7894 0.0000 -1.5635
# 5 12.7606 22.2667 13.4952 0.0000 25.8818 0.0000
# 6 0.0000 0.0000 0.0000 -1.5635 0.0000 12.6682
#
#
#
# Elastic Compliance Matrix: (Units=1/GPa)
#
#
# Indices 1 2 3 4 5 6 
#
# 1 0.015521 -0.000925 -0.005719 0.000000 -0.003875 0.000000
# 2 -0.000925 0.011007 -0.013025 0.000000 -0.002222 0.000000
# 3 -0.005719 -0.013025 0.088109 0.000000 -0.031916 0.000000
# 4 0.000000 0.000000 0.000000 0.053774 0.000000 0.006637
# 5 -0.003875 -0.002222 -0.031916 0.000000 0.059101 0.000000
# 6 0.000000 0.000000 0.000000 0.006637 0.000000 0.079757
#
#
# Mechanical properties :
#
#
# Convention : Reuss Voigt Hill
#
# Bulk Modulus (GPa) = 13.28054 39.95191 26.61623
# Shear Modulus (GPa) = 13.45150 22.18851 17.82000
#
# Velocity S-wave (km/s) = 2.55855 3.28604 2.94484
# Velocity P-wave (km/s) = 3.89759 5.81721 4.95132
#
# Compressibility (1/GPa) = 0.07529813
#
# Stress axis : x y z
#
# Youngs Moduli (GPa) = 64.42732 90.85322 11.34963
#
# Poissons Ratio (x) = 0.08402 0.06491
# Poissons Ratio (y) = 0.05958 0.14783
# Poissons Ratio (z) = 0.36849 1.18337
#
# Static dielectric constant tensor:
#      x y z
#    x 1.722730 0.000000 0.062090 
#    y 0.000000 1.830570 0.000000 
#    z 0.062090 0.000000 1.837570 
# 
# From -- ./inp_files/224996.got.cif
#   From: 2010.05.17/outbox.cif.g08.bks.cpg/sg15_113_cif.got.tgz:224996.got - 2010.06.03 18:47:42.
