data_PCOD9283797
_publ_section_title
;
Structure prediction by ZEFSAII (Michael W. Deem and Ramdas Pophale) SiO2 
 PCOD9283797
Probable space group: C 2/C
;
_chemical_formula_sum "Si O2"
_cell_formula_units_Z 40
_cell_length_a 10.345411
_cell_length_b 9.674982
_cell_length_c 16.694467
_cell_angle_alpha 90.000000
_cell_angle_beta 100.705357
_cell_angle_gamma 90.000000
_cell_volume 1641.894370
_symmetry_space_group_name_H-M "C 2/C"
_symmetry_group_IT_number 15
_symmetry_cell_setting 'monoclinic'
loop_
_space_group_symop_operation_xyz
x,y,z
-x,y,1/2-z
-x,-y,-z
x,-y,1/2+z
1/2+x,1/2+y,z
1/2-x,1/2+y,1/2-z
1/2-x,1/2-y,-z
1/2+x,1/2-y,1/2+z
loop_
_atom_site_type_symbol
_atom_site_label
_atom_site_fract_x
_atom_site_fract_y
_atom_site_fract_z
Si Si1 0.509159 0.880820 0.164285
Si Si2 0.723488 0.904820 0.895777
Si Si3 0.972074 0.337138 0.503834
Si Si4 0.946575 0.906773 0.375838
Si Si5 0.699685 0.613983 0.810949
O O1 0.500000 0.809216 0.250000
O O2 0.654370 0.949604 0.173782
O O3 0.390835 0.990466 0.147387
O O4 0.501198 0.788821 0.083629
O O5 0.672312 0.852827 0.975450
O O6 0.723503 0.774188 0.837033
O O7 0.861444 0.983326 0.915437
O O8 0.000000 0.500000 0.500000
O O9 0.045359 0.236315 0.573740
O O10 0.865415 0.891282 0.283777
O O11 0.093876 0.942967 0.362695
#
# Coordination Sequence:
#
# PCOD9283797 Si02
#       5
#     8   8   8   8   8
#     4  11  22  42  63  91 125 166 211 259 311 380
#     4  10  22  42  65  92 127 169 209 258 321 367
#     4   9  22  38  65  94 126 168 207 259 321 368
#     4  10  21  40  64  94 130 163 214 262 306 380
#     4  10  23  40  63  91 127 171 205 259 316 367
#
# _framework density 24.362102
#
# number of rings (size 3 to 8) (size 9 to 14) (size 15 to 20)
#    0.000    2.000    2.000    0.000    8.400    6.400 
#    3.600   10.000    0.000    0.000    0.000    0.000 
#    0.000    0.000    0.000    0.000    0.000    0.000 
#
# Total GULP energy -111651.332212 kJ/mol
# GULP energy per Si atom -5582.566611 kJ/mol
# Density = 2.430665 g / cm^3
# Si number density = 24.362102 Si / 1000 Ang^3
#
#
#
# Elastic Constant Matrix: (Units=GPa)
#
#
# Indices 1 2 3 4 5 6 
#
# 1 151.7046 45.8137 2.2784 0.0000 0.5288 0.0000
# 2 45.8137 81.6150 0.4157 0.0000 -8.6397 0.0000
# 3 2.2784 0.4157 91.2304 0.0000 -17.1051 0.0000
# 4 0.0000 0.0000 0.0000 -13.6489 0.0000 21.3215
# 5 0.5288 -8.6397 -17.1051 0.0000 31.2322 0.0000
# 6 0.0000 0.0000 0.0000 21.3215 0.0000 31.1275
#
#
#
# Elastic Compliance Matrix: (Units=1/GPa)
#
#
# Indices 1 2 3 4 5 6 
#
# 1 0.008018 -0.004679 -0.000498 0.000000 -0.001703 0.000000
# 2 -0.004679 0.015389 0.000958 0.000000 0.004861 0.000000
# 3 -0.000498 0.000958 0.012282 0.000000 0.007000 0.000000
# 4 0.000000 0.000000 0.000000 -0.035394 0.000000 0.024244
# 5 -0.001703 0.004861 0.007000 0.000000 0.037225 0.000000
# 6 0.000000 0.000000 0.000000 0.024244 0.000000 0.015520
#
#
# Mechanical properties :
#
#
# Convention : Reuss Voigt Hill
#
# Bulk Modulus (GPa) = 36.69579 46.84063 41.76821
# Shear Modulus (GPa) = 70.86092 28.14496 49.50294
#
# Velocity S-wave (km/s) = 5.39904 3.40262 4.51262
# Velocity P-wave (km/s) = 7.34586 5.89115 6.65835
#
# Compressibility (1/GPa) = 0.02725108
#
# Stress axis : x y z
#
# Youngs Moduli (GPa) = 124.71821 64.98316 81.42155
#
# Poissons Ratio (x) = 0.30403 0.04056
# Poissons Ratio (y) = 0.58350 -0.07801
# Poissons Ratio (z) = 0.06213 -0.06226
#
# Static dielectric constant tensor:
#      x y z
#    x 1.957680 0.000000 -0.003600 
#    y 0.000000 1.929870 0.000000 
#    z -0.003600 0.000000 2.040940 
# 
# From -- ./inp_files/187916.got.cif
#   From: 2010.05.17/outbox.cif.g08.bks.cpg/sg15_94_cif.got.tgz:187916.got - 2010.06.03 18:47:42.
