data_PCOD9283338
_publ_section_title
;
Structure prediction by ZEFSAII (Michael W. Deem and Ramdas Pophale) SiO2 
 PCOD9283338
Probable space group: C 2/C
;
_chemical_formula_sum "Si O2"
_cell_formula_units_Z 40
_cell_length_a 23.306422
_cell_length_b 7.239613
_cell_length_c 14.177513
_cell_angle_alpha 90.000000
_cell_angle_beta 118.755498
_cell_angle_gamma 90.000000
_cell_volume 2097.164057
_symmetry_space_group_name_H-M "C 2/C"
_symmetry_group_IT_number 15
_symmetry_cell_setting 'monoclinic'
loop_
_space_group_symop_operation_xyz
x,y,z
-x,y,1/2-z
-x,-y,-z
x,-y,1/2+z
1/2+x,1/2+y,z
1/2-x,1/2+y,1/2-z
1/2-x,1/2-y,-z
1/2+x,1/2-y,1/2+z
loop_
_atom_site_type_symbol
_atom_site_label
_atom_site_fract_x
_atom_site_fract_y
_atom_site_fract_z
Si Si1 0.731967 0.875469 0.845769
Si Si2 0.335520 0.102641 0.014327
Si Si3 0.987117 0.464690 0.628890
Si Si4 0.962818 0.193599 0.981146
Si Si5 0.313282 0.261798 0.392141
O O1 0.680357 0.854191 0.889661
O O2 0.702175 0.827346 0.721507
O O3 0.760985 0.080148 0.868798
O O4 0.792746 0.741450 0.918022
O O5 0.412454 0.103902 0.054719
O O6 0.311556 0.897780 0.968652
O O7 0.992431 0.665642 0.583272
O O8 0.000000 0.476231 0.750000
O O9 0.031848 0.316631 0.609830
O O10 0.887134 0.160835 0.946810
O O11 0.000000 0.000000 0.000000
#
# Coordination Sequence:
#
# PCOD9283338 Si02
#       5
#     8   8   8   8   8
#     4  11  21  37  59  87 115 155 187 236 294 346
#     4  10  22  38  57  84 120 150 193 239 283 353
#     4  10  21  40  60  85 117 156 197 241 296 344
#     4  10  22  39  60  87 117 154 198 247 290 350
#     4  11  21  38  59  86 118 151 193 237 296 346
#
# _framework density 19.073377000000001
#
# number of rings (size 3 to 8) (size 9 to 14) (size 15 to 20)
#    0.000    1.600    2.000    3.000    0.000    0.800 
#    3.600    4.000    0.000    0.000    0.000    0.000 
#    0.000    0.000    0.000    0.000    0.000    0.000 
#
# Total GULP energy -111706.332475 kJ/mol
# GULP energy per Si atom -5585.316624 kJ/mol
# Density = 1.902996 g / cm^3
# Si number density = 19.073377 Si / 1000 Ang^3
#
#
#
# Elastic Constant Matrix: (Units=GPa)
#
#
# Indices 1 2 3 4 5 6 
#
# 1 29.9388 6.8351 5.4629 0.0000 -3.3370 0.0000
# 2 6.8351 54.9967 11.7640 0.0000 -1.8666 0.0000
# 3 5.4629 11.7640 65.9678 0.0000 -15.6595 0.0000
# 4 0.0000 0.0000 0.0000 19.3831 0.0000 0.7283
# 5 -3.3370 -1.8666 -15.6595 0.0000 22.0344 0.0000
# 6 0.0000 0.0000 0.0000 0.7283 0.0000 35.9697
#
#
#
# Elastic Compliance Matrix: (Units=1/GPa)
#
#
# Indices 1 2 3 4 5 6 
#
# 1 0.034982 -0.003947 -0.001221 0.000000 0.004096 0.000000
# 2 -0.003947 0.019366 -0.003463 0.000000 -0.001419 0.000000
# 3 -0.001221 -0.003463 0.018963 0.000000 0.012999 0.000000
# 4 0.000000 0.000000 0.000000 0.051631 0.000000 -0.001045
# 5 0.004096 -0.001419 0.012999 0.000000 0.055122 0.000000
# 6 0.000000 0.000000 0.000000 -0.001045 0.000000 0.027822
#
#
# Mechanical properties :
#
#
# Convention : Reuss Voigt Hill
#
# Bulk Modulus (GPa) = 17.84175 22.11413 19.97794
# Shear Modulus (GPa) = 20.50594 23.93353 22.21973
#
# Velocity S-wave (km/s) = 3.28244 3.54618 3.41685
# Velocity P-wave (km/s) = 4.87242 5.32791 5.10524
#
# Compressibility (1/GPa) = 0.05604831
#
# Stress axis : x y z
#
# Youngs Moduli (GPa) = 28.58615 51.63636 52.73361
#
# Poissons Ratio (x) = 0.20383 0.06437
# Poissons Ratio (y) = 0.11284 0.18264
# Poissons Ratio (z) = 0.03489 0.17884
#
# Static dielectric constant tensor:
#      x y z
#    x 1.650120 0.000000 0.002440 
#    y 0.000000 1.643000 0.000000 
#    z 0.002440 0.000000 1.635900 
# 
# From -- ./inp_files/170914.got.cif
#   From: 2010.05.17/outbox.cif.g08.bks.cpg/sg15_86_cif.got.tgz:170914.got - 2010.06.03 18:47:42.
