data_PCOD9283441
_publ_section_title
;
Structure prediction by ZEFSAII (Michael W. Deem and Ramdas Pophale) SiO2 
 PCOD9283441
Probable space group: C 2/C
;
_chemical_formula_sum "Si O2"
_cell_formula_units_Z 56
_cell_length_a 9.522815
_cell_length_b 28.359547
_cell_length_c 17.081930
_cell_angle_alpha 90.000000
_cell_angle_beta 35.088725
_cell_angle_gamma 90.000000
_cell_volume 2651.867123
_symmetry_space_group_name_H-M "C 2/C"
_symmetry_group_IT_number 15
_symmetry_cell_setting 'monoclinic'
loop_
_space_group_symop_operation_xyz
x,y,z
-x,y,1/2-z
-x,-y,-z
x,-y,1/2+z
1/2+x,1/2+y,z
1/2-x,1/2+y,1/2-z
1/2-x,1/2-y,-z
1/2+x,1/2-y,1/2+z
loop_
_atom_site_type_symbol
_atom_site_label
_atom_site_fract_x
_atom_site_fract_y
_atom_site_fract_z
Si Si1 0.096307 0.262770 0.292085
Si Si2 0.959255 0.187249 0.859597
Si Si3 0.316127 0.325426 0.950506
Si Si4 0.691337 0.587697 0.726290
Si Si5 0.098801 0.914390 0.794099
Si Si6 0.770799 0.004538 0.665827
Si Si7 0.019576 0.356197 0.951510
O O1 0.934650 0.306741 0.397640
O O2 0.014520 0.215515 0.374764
O O3 0.000000 0.257341 0.250000
O O4 0.377615 0.277099 0.166693
O O5 0.065912 0.134302 0.820004
O O6 0.000000 0.200126 0.750000
O O7 0.673096 0.179593 0.997070
O O8 0.419384 0.377518 0.920535
O O9 0.235527 0.328930 0.896540
O O10 0.500000 0.566492 0.750000
O O11 0.745206 0.551423 0.771429
O O12 0.899800 0.610035 0.573746
O O13 0.155626 0.962804 0.809062
O O14 0.356893 0.888065 0.669138
O O15 0.000000 0.921073 0.750000
O O16 0.500000 0.998799 0.750000
O O17 0.000000 0.000000 0.500000
#
# Coordination Sequence:
#
# PCOD9283441 Si02
#       7
#     8   8   8   8   8   8   8
#     4  11  21  36  63  95 124 167 208 265 325 391
#     4   9  18  36  62  90 120 154 210 263 306 361
#     4  10  21  40  61  92 129 162 218 260 318 382
#     4   9  20  40  67  91 115 167 223 264 306 391
#     4  10  23  44  68  88 125 178 218 258 317 389
#     4  12  30  44  63  98 141 168 209 279 345 393
#     4   9  18  39  71  89 118 166 227 265 295 383
#
# _framework density 21.117197999999998
#
# number of rings (size 3 to 8) (size 9 to 14) (size 15 to 20)
#    0.000    2.286    2.857    1.714    8.000    2.286 
#    0.000    3.571    0.000    0.000    0.000    0.000 
#    0.000    0.000    0.000    0.000    0.000    0.000 
#
# Total GULP energy -155963.795279 kJ/mol
# GULP energy per Si atom -5570.135546 kJ/mol
# Density = 2.106913 g / cm^3
# Si number density = 21.117198 Si / 1000 Ang^3
#
#
#
# Elastic Constant Matrix: (Units=GPa)
#
#
# Indices 1 2 3 4 5 6 
#
# 1 93.9977 51.9850 27.6806 0.0000 -24.8249 0.0000
# 2 51.9850 93.4757 28.3121 0.0000 -9.6624 0.0000
# 3 27.6806 28.3121 85.3535 0.0000 -19.4068 0.0000
# 4 0.0000 0.0000 0.0000 30.7906 0.0000 -12.6610
# 5 -24.8249 -9.6624 -19.4068 0.0000 31.5334 0.0000
# 6 0.0000 0.0000 0.0000 -12.6610 0.0000 58.1587
#
#
#
# Elastic Compliance Matrix: (Units=1/GPa)
#
#
# Indices 1 2 3 4 5 6 
#
# 1 0.018988 -0.009210 -0.000402 0.000000 0.011879 0.000000
# 2 -0.009210 0.016415 -0.003445 0.000000 -0.004341 0.000000
# 3 -0.000402 -0.003445 0.014740 0.000000 0.007699 0.000000
# 4 0.000000 0.000000 0.000000 0.035671 0.000000 0.007765
# 5 0.011879 -0.004341 0.007699 0.000000 0.044472 0.000000
# 6 0.000000 0.000000 0.000000 0.007765 0.000000 0.018885
#
#
# Mechanical properties :
#
#
# Convention : Reuss Voigt Hill
#
# Bulk Modulus (GPa) = 41.61807 54.30913 47.96360
# Shear Modulus (GPa) = 27.27876 35.08649 31.18262
#
# Velocity S-wave (km/s) = 3.59803 4.08059 3.84688
# Velocity P-wave (km/s) = 6.08375 6.92643 6.51872
#
# Compressibility (1/GPa) = 0.02402802
#
# Stress axis : x y z
#
# Youngs Moduli (GPa) = 52.66577 60.92110 67.84433
#
# Poissons Ratio (x) = 0.56109 0.02727
# Poissons Ratio (y) = 0.48506 0.23372
# Poissons Ratio (z) = 0.02117 0.20987
#
# Static dielectric constant tensor:
#      x y z
#    x 1.807140 0.000000 -0.007560 
#    y 0.000000 1.800400 0.000000 
#    z -0.007560 0.000000 1.899830 
# 
# From -- ./inp_files/193822.got.cif
#   From: 2010.05.17/outbox.cif.g08.bks.cpg/sg15_97_cif.got.tgz:193822.got - 2010.06.03 18:47:42.
