data_PCOD9283074
_publ_section_title
;
Structure prediction by ZEFSAII (Michael W. Deem and Ramdas Pophale) SiO2 
 PCOD9283074
Probable space group: C 2/C
;
_chemical_formula_sum "Si O2"
_cell_formula_units_Z 56
_cell_length_a 12.641800
_cell_length_b 13.743652
_cell_length_c 19.988834
_cell_angle_alpha 90.000000
_cell_angle_beta 131.441064
_cell_angle_gamma 90.000000
_cell_volume 2603.451493
_symmetry_space_group_name_H-M "C 2/C"
_symmetry_group_IT_number 15
_symmetry_cell_setting 'monoclinic'
loop_
_space_group_symop_operation_xyz
x,y,z
-x,y,1/2-z
-x,-y,-z
x,-y,1/2+z
1/2+x,1/2+y,z
1/2-x,1/2+y,1/2-z
1/2-x,1/2-y,-z
1/2+x,1/2-y,1/2+z
loop_
_atom_site_type_symbol
_atom_site_label
_atom_site_fract_x
_atom_site_fract_y
_atom_site_fract_z
Si Si1 0.422945 0.342328 0.786988
Si Si2 0.967756 0.771023 0.058093
Si Si3 0.240974 0.657846 0.764249
Si Si4 0.672282 0.518321 0.816225
Si Si5 0.339977 0.011506 0.167465
Si Si6 0.952121 0.094427 0.435850
Si Si7 0.714799 0.915750 0.998243
O O1 0.500000 0.319602 0.750000
O O2 0.371442 0.241495 0.794109
O O3 0.303530 0.415675 0.710229
O O4 0.502308 0.399584 0.880221
O O5 0.909214 0.662802 0.041554
O O6 0.111974 0.791143 0.156184
O O7 0.991191 0.809421 0.992614
O O8 0.849314 0.847107 0.035871
O O9 0.267695 0.597408 0.708976
O O10 0.194975 0.587062 0.806311
O O11 0.500000 0.528269 0.750000
O O12 0.745653 0.529064 0.917844
O O13 0.500000 0.040527 0.250000
O O14 0.217839 0.085526 0.140237
O O15 0.320013 0.014154 0.078791
O O16 0.000000 0.000000 0.500000
#
# Coordination Sequence:
#
# PCOD9283074 Si02
#       7
#     8   8   8   8   8   8   8
#     4  11  26  41  68 101 137 176 231 277 344 420
#     4  10  21  39  67 101 132 172 234 283 335 407
#     4  12  23  44  68 100 142 182 222 278 359 410
#     4  11  22  43  69 100 133 179 227 286 332 402
#     4  11  25  43  70  97 137 180 226 283 346 403
#     4  11  21  44  74  99 128 190 232 277 342 418
#     4  10  23  41  65 104 132 173 232 288 335 398
#
# _framework density 21.509906000000001
#
# number of rings (size 3 to 8) (size 9 to 14) (size 15 to 20)
#    0.000    1.143    4.286    1.286    8.000    0.000 
#    0.000    7.143    0.000    0.000    0.000    0.000 
#    0.000    0.000    0.000    0.000    0.000    0.000 
#
# Total GULP energy -156340.685879 kJ/mol
# GULP energy per Si atom -5583.595924 kJ/mol
# Density = 2.146095 g / cm^3
# Si number density = 21.509906 Si / 1000 Ang^3
#
#
#
# Elastic Constant Matrix: (Units=GPa)
#
#
# Indices 1 2 3 4 5 6 
#
# 1 68.8073 23.0887 37.2514 0.0000 -12.8557 0.0000
# 2 23.0887 70.1984 28.0424 0.0000 -28.8444 0.0000
# 3 37.2514 28.0424 127.1491 0.0000 -32.3170 0.0000
# 4 0.0000 0.0000 0.0000 2.8877 0.0000 21.2528
# 5 -12.8557 -28.8444 -32.3170 0.0000 42.2247 0.0000
# 6 0.0000 0.0000 0.0000 21.2528 0.0000 4.6513
#
#
#
# Elastic Compliance Matrix: (Units=1/GPa)
#
#
# Indices 1 2 3 4 5 6 
#
# 1 0.018404 -0.004665 -0.004654 0.000000 -0.001145 0.000000
# 2 -0.004665 0.021124 0.000018 0.000000 0.013024 0.000000
# 3 -0.004654 0.000018 0.011009 0.000000 0.007021 0.000000
# 4 0.000000 0.000000 0.000000 -0.010613 0.000000 0.048495
# 5 -0.001145 0.013024 0.007021 0.000000 0.037604 0.000000
# 6 0.000000 0.000000 0.000000 0.048495 0.000000 -0.006589
#
#
# Mechanical properties :
#
#
# Convention : Reuss Voigt Hill
#
# Bulk Modulus (GPa) = 31.31359 49.21331 40.26345
# Shear Modulus (GPa) = 49.90720 21.80424 35.85572
#
# Velocity S-wave (km/s) = 4.82207 3.18729 4.08725
# Velocity P-wave (km/s) = 6.75222 6.03938 6.40573
#
# Compressibility (1/GPa) = 0.03193501
#
# Stress axis : x y z
#
# Youngs Moduli (GPa) = 54.33474 47.34004 90.83542
#
# Poissons Ratio (x) = 0.22083 0.42278
# Poissons Ratio (y) = 0.25346 -0.00164
# Poissons Ratio (z) = 0.25289 -0.00085
#
# Static dielectric constant tensor:
#      x y z
#    x 1.845110 0.000000 -0.023790 
#    y 0.000000 1.790770 0.000000 
#    z -0.023790 0.000000 1.778980 
# 
# From -- ./inp_files/205479.got.cif
#   From: 2010.05.17/outbox.cif.g08.bks.cpg/sg15_103_cif.got.tgz:205479.got - 2010.06.03 18:47:42.
