data_PCOD9283958
_publ_section_title
;
Structure prediction by ZEFSAII (Michael W. Deem and Ramdas Pophale) SiO2 
 PCOD9283958
Probable space group: C 2/C
;
_chemical_formula_sum "Si O2"
_cell_formula_units_Z 52
_cell_length_a 19.070950
_cell_length_b 10.003151
_cell_length_c 19.301457
_cell_angle_alpha 90.000000
_cell_angle_beta 30.344236
_cell_angle_gamma 90.000000
_cell_volume 1860.190790
_symmetry_space_group_name_H-M "C 2/C"
_symmetry_group_IT_number 15
_symmetry_cell_setting 'monoclinic'
loop_
_space_group_symop_operation_xyz
x,y,z
-x,y,1/2-z
-x,-y,-z
x,-y,1/2+z
1/2+x,1/2+y,z
1/2-x,1/2+y,1/2-z
1/2-x,1/2-y,-z
1/2+x,1/2-y,1/2+z
loop_
_atom_site_type_symbol
_atom_site_label
_atom_site_fract_x
_atom_site_fract_y
_atom_site_fract_z
Si Si1 0.005592 0.865541 0.062289
Si Si2 0.000000 0.283230 0.750000
Si Si3 0.396723 0.699660 0.509952
Si Si4 0.657783 0.972526 0.875758
Si Si5 0.352317 0.462918 0.319655
Si Si6 0.111971 0.267088 0.207672
Si Si7 0.324360 0.875427 0.779685
O O1 0.968323 0.877222 0.012603
O O2 0.964863 0.966067 0.159843
O O3 0.907734 0.741532 0.168163
O O4 0.167973 0.841231 0.933676
O O5 0.119624 0.162752 0.654028
O O6 0.067300 0.383262 0.749330
O O7 0.321805 0.825499 0.611600
O O8 0.257075 0.651296 0.589298
O O9 0.519721 0.754855 0.356446
O O10 0.707386 0.983373 0.754552
O O11 0.716656 0.058277 0.888465
O O12 0.500000 0.000000 0.000000
O O13 0.355228 0.613165 0.346440
O O14 0.000000 0.323967 0.250000
#
# Coordination Sequence:
#
# PCOD9283958 Si02
#       7
#     8   4   8   8   8   8   8
#     4  10  21  40  65  96 126 164 220 269 321 394
#     4  10  22  42  68  98 134 176 212 274 342 404
#     4  10  22  37  63  88 120 164 214 263 318 385
#     4  10  23  40  63  92 131 171 217 270 322 385
#     4  10  22  39  66  92 128 169 213 263 328 393
#     4  11  22  41  60  90 124 166 214 258 326 385
#     4  10  23  39  64  98 129 171 218 267 335 396
#
# _framework density 27.954121000000001
#
# number of rings (size 3 to 8) (size 9 to 14) (size 15 to 20)
#    0.000    1.846    0.769    3.231   10.769    4.923 
#    0.000    0.000    1.692    0.000    0.000    0.000 
#    0.000    0.000    0.000    0.000    0.000    0.000 
#
# Total GULP energy -144854.418184 kJ/mol
# GULP energy per Si atom -5571.323776 kJ/mol
# Density = 2.789050 g / cm^3
# Si number density = 27.954121 Si / 1000 Ang^3
#
#
#
# Elastic Constant Matrix: (Units=GPa)
#
#
# Indices 1 2 3 4 5 6 
#
# 1 163.8361 19.1097 55.3531 0.0000 -40.0865 0.0000
# 2 19.1097 62.5140 -8.7170 0.0001 -3.4508 -0.0001
# 3 55.3531 -8.7170 148.4462 0.0002 -23.2636 -0.0001
# 4 0.0000 0.0001 0.0002 29.8541 -0.0001 -6.2046
# 5 -40.0865 -3.4508 -23.2636 -0.0001 59.5199 0.0000
# 6 0.0000 -0.0001 -0.0001 -6.2046 0.0000 16.9971
#
#
#
# Elastic Compliance Matrix: (Units=1/GPa)
#
#
# Indices 1 2 3 4 5 6 
#
# 1 0.008385 -0.002676 -0.002581 0.000000 0.004483 0.000000
# 2 -0.002676 0.017091 0.001996 0.000000 -0.000031 0.000000
# 3 -0.002581 0.001996 0.008055 0.000000 0.001526 0.000000
# 4 0.000000 0.000000 0.000000 0.036246 0.000000 0.013231
# 5 0.004483 -0.000031 0.001526 0.000000 0.020415 0.000000
# 6 0.000000 0.000000 0.000000 0.013231 0.000000 0.063664
#
#
# Mechanical properties :
#
#
# Convention : Reuss Voigt Hill
#
# Bulk Modulus (GPa) = 37.02244 56.25421 46.63832
# Shear Modulus (GPa) = 29.51951 41.87758 35.69855
#
# Velocity S-wave (km/s) = 3.25314 3.87471 3.57745
# Velocity P-wave (km/s) = 5.23291 6.33918 5.81242
#
# Compressibility (1/GPa) = 0.02701065
#
# Stress axis : x y z
#
# Youngs Moduli (GPa) = 119.26548 58.51039 124.14295
#
# Poissons Ratio (x) = 0.15655 0.32042
# Poissons Ratio (y) = 0.31910 -0.24784
# Poissons Ratio (z) = 0.30783 -0.11681
#
# Static dielectric constant tensor:
#      x y z
#    x 2.204450 0.000000 -0.029180 
#    y 0.000000 2.502560 0.000000 
#    z -0.029180 0.000000 2.201410 
# 
# From -- ./inp_files/249077.got.cif
#   From: 2010.05.17/outbox.cif.g08.bks.cpg/sg15_125_cif.got.tgz:249077.got - 2010.06.03 18:47:42.
