data_PCOD9283397
_publ_section_title
;
Structure prediction by ZEFSAII (Michael W. Deem and Ramdas Pophale) SiO2 
 PCOD9283397
Probable space group: C 2/C
;
_chemical_formula_sum "Si O2"
_cell_formula_units_Z 36
_cell_length_a 7.953913
_cell_length_b 13.063114
_cell_length_c 19.827741
_cell_angle_alpha 90.000000
_cell_angle_beta 134.722029
_cell_angle_gamma 90.000000
_cell_volume 1463.802846
_symmetry_space_group_name_H-M "C 2/C"
_symmetry_group_IT_number 15
_symmetry_cell_setting 'monoclinic'
loop_
_space_group_symop_operation_xyz
x,y,z
-x,y,1/2-z
-x,-y,-z
x,-y,1/2+z
1/2+x,1/2+y,z
1/2-x,1/2+y,1/2-z
1/2-x,1/2-y,-z
1/2+x,1/2-y,1/2+z
loop_
_atom_site_type_symbol
_atom_site_label
_atom_site_fract_x
_atom_site_fract_y
_atom_site_fract_z
Si Si1 0.489177 0.031522 0.134391
Si Si2 0.516353 0.794780 0.400864
Si Si3 0.342804 0.481425 0.347199
Si Si4 0.500000 0.790221 0.250000
Si Si5 0.295708 0.149300 0.969867
O O1 0.449259 0.914882 0.102271
O O2 0.720227 0.030230 0.246920
O O3 0.258453 0.048258 0.118509
O O4 0.510547 0.100008 0.074027
O O5 0.750000 0.750000 0.500000
O O6 0.473963 0.741817 0.316569
O O7 0.317492 0.803818 0.401643
O O8 0.612162 0.446163 0.419444
O O9 0.221027 0.368494 0.317736
O O10 0.250000 0.250000 0.000000
#
# Coordination Sequence:
#
# PCOD9283397 Si02
#       5
#     8   8   8   4   8
#     4   9  20  40  60  87 131 170 206 263 327 388
#     4  10  21  40  61  87 125 168 214 269 332 394
#     4   8  18  38  60  86 124 166 208 262 322 385
#     4   8  18  38  58  80 122 166 202 264 324 376
#     4  12  22  36  65  98 124 166 221 271 328 402
#
# _framework density 24.593478000000001
#
# number of rings (size 3 to 8) (size 9 to 14) (size 15 to 20)
#    0.000    3.111    0.000    4.000    0.000    3.556 
#    0.000   20.000    0.000    2.667    0.000    0.000 
#    0.000    0.000    0.000    0.000    0.000    0.000 
#
# Total GULP energy -100255.444791 kJ/mol
# GULP energy per Si atom -5569.746933 kJ/mol
# Density = 2.453750 g / cm^3
# Si number density = 24.593478 Si / 1000 Ang^3
#
#
#
# Elastic Constant Matrix: (Units=GPa)
#
#
# Indices 1 2 3 4 5 6 
#
# 1 83.2428 11.2497 65.4220 0.0000 -28.4683 0.0000
# 2 11.2497 79.6667 30.8298 0.0000 -7.0759 0.0000
# 3 65.4220 30.8298 113.4715 0.0000 -46.6335 0.0000
# 4 0.0000 0.0000 0.0000 32.0683 0.0000 7.9392
# 5 -28.4683 -7.0759 -46.6335 0.0000 37.8832 0.0000
# 6 0.0000 0.0000 0.0000 7.9392 0.0000 11.2743
#
#
#
# Elastic Compliance Matrix: (Units=1/GPa)
#
#
# Indices 1 2 3 4 5 6 
#
# 1 0.022290 0.001938 -0.012841 0.000000 0.001304 0.000000
# 2 0.001938 0.014532 -0.006783 0.000000 -0.004180 0.000000
# 3 -0.012841 -0.006783 0.027470 0.000000 0.022898 0.000000
# 4 0.000000 0.000000 0.000000 0.037768 0.000000 -0.026596
# 5 0.001304 -0.004180 0.022898 0.000000 0.054783 0.000000
# 6 0.000000 0.000000 0.000000 -0.026596 0.000000 0.107426
#
#
# Mechanical properties :
#
#
# Convention : Reuss Voigt Hill
#
# Bulk Modulus (GPa) = 34.58055 54.59822 44.58939
# Shear Modulus (GPa) = 16.16648 27.50380 21.83514
#
# Velocity S-wave (km/s) = 2.56666 3.34778 2.98290
# Velocity P-wave (km/s) = 4.78279 6.09853 5.48029
#
# Compressibility (1/GPa) = 0.02891799
#
# Stress axis : x y z
#
# Youngs Moduli (GPa) = 44.86391 68.81133 36.40349
#
# Poissons Ratio (x) = -0.13334 0.46748
# Poissons Ratio (y) = -0.08694 0.24694
# Poissons Ratio (z) = 0.57612 0.46677
#
# Static dielectric constant tensor:
#      x y z
#    x 2.148830 0.000000 -0.055680 
#    y 0.000000 1.961870 0.000000 
#    z -0.055680 0.000000 2.045870 
# 
# From -- ./inp_files/189102.got.cif
#   From: 2010.05.17/outbox.cif.g08.bks.cpg/sg15_95_cif.got.tgz:189102.got - 2010.06.03 18:47:42.
