data_PCOD9283087
_publ_section_title
;
Structure prediction by ZEFSAII (Michael W. Deem and Ramdas Pophale) SiO2 
 PCOD9283087
Probable space group: C 2/C
;
_chemical_formula_sum "Si O2"
_cell_formula_units_Z 48
_cell_length_a 13.524285
_cell_length_b 11.149187
_cell_length_c 13.981536
_cell_angle_alpha 90.000000
_cell_angle_beta 78.346015
_cell_angle_gamma 90.000000
_cell_volume 2064.743013
_symmetry_space_group_name_H-M "C 2/C"
_symmetry_group_IT_number 15
_symmetry_cell_setting 'monoclinic'
loop_
_space_group_symop_operation_xyz
x,y,z
-x,y,1/2-z
-x,-y,-z
x,-y,1/2+z
1/2+x,1/2+y,z
1/2-x,1/2+y,1/2-z
1/2-x,1/2-y,-z
1/2+x,1/2-y,1/2+z
loop_
_atom_site_type_symbol
_atom_site_label
_atom_site_fract_x
_atom_site_fract_y
_atom_site_fract_z
Si Si1 0.154829 0.591139 0.696645
Si Si2 0.878509 0.977624 0.079401
Si Si3 0.175442 0.177192 0.083464
Si Si4 0.935436 0.155202 0.917512
Si Si5 0.433888 0.074319 0.437291
Si Si6 0.735369 0.065848 0.880450
O O1 0.270134 0.551363 0.645203
O O2 0.129424 0.722146 0.659714
O O3 0.083407 0.497776 0.656782
O O4 0.161187 0.595337 0.808764
O O5 0.969991 0.930341 0.126087
O O6 0.889199 0.895527 0.981008
O O7 0.893578 0.108408 0.029654
O O8 0.233849 0.074428 0.130196
O O9 0.250000 0.250000 0.000000
O O10 0.971815 0.291519 0.913946
O O11 0.839664 0.139192 0.866228
O O12 0.324739 0.084334 0.509605
O O13 0.500000 0.000000 0.500000
#
# Coordination Sequence:
#
# PCOD9283087 Si02
#       6
#     8   8   8   8   8   8
#     4  11  23  38  65  92 129 163 208 264 318 375
#     4   9  19  39  65  92 117 171 206 252 316 375
#     4   9  17  38  62  84 125 166 208 243 313 380
#     4  10  21  39  67  90 127 158 215 256 312 377
#     4  12  25  42  63  92 130 168 209 267 318 370
#     4  11  24  39  63  97 122 169 212 261 321 371
#
# _framework density 23.247444000000002
#
# number of rings (size 3 to 8) (size 9 to 14) (size 15 to 20)
#    0.000    1.667    5.000    1.500    4.667    1.333 
#    0.000    1.667    0.000    6.000    0.000    0.000 
#    0.000    0.000    0.000    0.000    0.000    0.000 
#
# Total GULP energy -134055.310636 kJ/mol
# GULP energy per Si atom -5585.637943 kJ/mol
# Density = 2.319453 g / cm^3
# Si number density = 23.247444 Si / 1000 Ang^3
#
#
#
# Elastic Constant Matrix: (Units=GPa)
#
#
# Indices 1 2 3 4 5 6 
#
# 1 82.0384 -11.0277 4.2078 0.0000 15.7681 0.0000
# 2 -11.0277 107.3674 9.4975 0.0000 12.3394 0.0000
# 3 4.2078 9.4975 89.2462 0.0000 20.0554 0.0000
# 4 0.0000 0.0000 0.0000 17.7147 0.0000 8.8934
# 5 15.7681 12.3394 20.0554 0.0000 35.5731 0.0000
# 6 0.0000 0.0000 0.0000 8.8934 0.0000 24.1306
#
#
#
# Elastic Compliance Matrix: (Units=1/GPa)
#
#
# Indices 1 2 3 4 5 6 
#
# 1 0.013855 0.002199 0.000761 0.000000 -0.007333 0.000000
# 2 0.002199 0.010057 -0.000196 0.000000 -0.004353 0.000000
# 3 0.000761 -0.000196 0.012883 0.000000 -0.007532 0.000000
# 4 0.000000 0.000000 0.000000 0.069267 0.000000 -0.025528
# 5 -0.007333 -0.004353 -0.007532 0.000000 0.037118 0.000000
# 6 0.000000 0.000000 0.000000 -0.025528 0.000000 0.050850
#
#
# Mechanical properties :
#
#
# Convention : Reuss Voigt Hill
#
# Bulk Modulus (GPa) = 23.62839 31.55634 27.59237
# Shear Modulus (GPa) = 24.67797 33.88198 29.27997
#
# Velocity S-wave (km/s) = 3.26166 3.82180 3.55278
# Velocity P-wave (km/s) = 4.93664 5.75138 5.35952
#
# Compressibility (1/GPa) = 0.04232196
#
# Stress axis : x y z
#
# Youngs Moduli (GPa) = 72.17418 99.43133 77.62432
#
# Poissons Ratio (x) = -0.21861 -0.05904
# Poissons Ratio (y) = -0.15868 0.01520
# Poissons Ratio (z) = -0.05490 0.01947
#
# Static dielectric constant tensor:
#      x y z
#    x 1.917830 0.000000 0.014040 
#    y 0.000000 1.854640 0.000000 
#    z 0.014040 0.000000 1.886280 
# 
# From -- ./inp_files/152107.got.cif
#   From: 2010.05.17/outbox.cif.g08.bks.cpg/sg15_77_cif.got.tgz:152107.got - 2010.06.03 18:47:42.
