data_PCOD9283420
_publ_section_title
;
Structure prediction by ZEFSAII (Michael W. Deem and Ramdas Pophale) SiO2 
 PCOD9283420
Probable space group: C 2/C
;
_chemical_formula_sum "Si O2"
_cell_formula_units_Z 44
_cell_length_a 9.123675
_cell_length_b 29.351225
_cell_length_c 8.773632
_cell_angle_alpha 90.000000
_cell_angle_beta 78.922266
_cell_angle_gamma 90.000000
_cell_volume 2305.722740
_symmetry_space_group_name_H-M "C 2/C"
_symmetry_group_IT_number 15
_symmetry_cell_setting 'monoclinic'
loop_
_space_group_symop_operation_xyz
x,y,z
-x,y,1/2-z
-x,-y,-z
x,-y,1/2+z
1/2+x,1/2+y,z
1/2-x,1/2+y,1/2-z
1/2-x,1/2-y,-z
1/2+x,1/2-y,1/2+z
loop_
_atom_site_type_symbol
_atom_site_label
_atom_site_fract_x
_atom_site_fract_y
_atom_site_fract_z
Si Si1 0.553343 0.096210 0.987596
Si Si2 0.500000 0.599767 0.250000
Si Si3 0.740232 0.177085 0.807296
Si Si4 0.500000 0.020918 0.750000
Si Si5 0.194979 0.565889 0.251680
Si Si6 0.000000 0.249602 0.250000
Si Si7 0.993428 0.175292 0.507267
O O1 0.621376 0.137849 0.878889
O O2 0.500304 0.054869 0.891884
O O3 0.682939 0.081643 0.079090
O O4 0.410551 0.100178 0.128536
O O5 0.355433 0.569104 0.289953
O O6 0.516965 0.632472 0.392104
O O7 0.639320 0.219547 0.775407
O O8 0.853356 0.165685 0.646319
O O9 0.856429 0.184903 0.924084
O O10 0.367972 0.985201 0.742534
O O11 0.960202 0.217515 0.401539
#
# Coordination Sequence:
#
# PCOD9283420 Si02
#       7
#     8   4   8   4   8   4   8
#     4  10  21  40  64  92 119 164 208 251 300 358
#     4  11  22  40  61  86 128 166 197 250 320 359
#     4  11  22  42  65  94 119 164 209 250 306 366
#     4  10  21  40  63  92 126 154 215 260 285 362
#     4  10  21  40  61  90 124 166 203 250 306 359
#     4  11  23  40  66  92 122 164 206 248 311 367
#     4  10  24  42  59  90 134 154 200 261 305 364
#
# _framework density 19.082951999999999
#
# number of rings (size 3 to 8) (size 9 to 14) (size 15 to 20)
#    0.000    1.818    1.818    3.818    5.091    0.000 
#    0.000    7.273    0.000    0.000    0.000    0.000 
#    0.000    0.000    0.000    0.000    0.000    0.000 
#
# Total GULP energy -122582.785547 kJ/mol
# GULP energy per Si atom -5571.944798 kJ/mol
# Density = 1.903952 g / cm^3
# Si number density = 19.082952 Si / 1000 Ang^3
#
#
#
# Elastic Constant Matrix: (Units=GPa)
#
#
# Indices 1 2 3 4 5 6 
#
# 1 129.0245 42.9962 38.3336 0.0000 10.5382 0.0000
# 2 42.9962 90.8438 46.1188 0.0000 0.2783 0.0000
# 3 38.3336 46.1188 112.1541 0.0000 7.3286 0.0000
# 4 0.0000 0.0000 0.0000 -15.9436 0.0000 71.0703
# 5 10.5382 0.2783 7.3286 0.0000 23.8443 0.0000
# 6 0.0000 0.0000 0.0000 71.0703 0.0000 -83.9533
#
#
#
# Elastic Compliance Matrix: (Units=1/GPa)
#
#
# Indices 1 2 3 4 5 6 
#
# 1 0.009797 -0.003857 -0.001513 0.000000 -0.003820 0.000000
# 2 -0.003857 0.015493 -0.005258 0.000000 0.003140 0.000000
# 3 -0.001513 -0.005258 0.011784 0.000000 -0.002892 0.000000
# 4 0.000000 0.000000 0.000000 0.022614 0.000000 0.019144
# 5 -0.003820 0.003140 -0.002892 0.000000 0.044479 0.000000
# 6 0.000000 0.000000 0.000000 0.019144 0.000000 0.004295
#
#
# Mechanical properties :
#
#
# Convention : Reuss Voigt Hill
#
# Bulk Modulus (GPa) = 63.21482 65.21328 64.21405
# Shear Modulus (GPa) = 37.03937 -1.57227 17.73355
#
# Velocity S-wave (km/s) = 4.41042 -0.90868 3.05173
# Velocity P-wave (km/s) = 7.68986 5.75733 6.79267
#
# Compressibility (1/GPa) = 0.01581908
#
# Stress axis : x y z
#
# Youngs Moduli (GPa) = 102.06822 64.54478 84.85805
#
# Poissons Ratio (x) = 0.24897 0.12838
# Poissons Ratio (y) = 0.39371 0.44616
# Poissons Ratio (z) = 0.15442 0.33936
#
# Static dielectric constant tensor:
#      x y z
#    x 1.676160 0.000000 -0.006700 
#    y 0.000000 1.640780 0.000000 
#    z -0.006700 0.000000 1.735670 
# 
# From -- ./inp_files/25574.got.cif
#   From: 2010.05.17/outbox.cif.g08.bks.cpg/sg15_13_cif.got.tgz:25574.got - 2010.06.03 18:47:42.
