data_PCOD9283804
_publ_section_title
;
Structure prediction by ZEFSAII (Michael W. Deem and Ramdas Pophale) SiO2 
 PCOD9283804
Probable space group: C 2/C
;
_chemical_formula_sum "Si O2"
_cell_formula_units_Z 40
_cell_length_a 14.394322
_cell_length_b 25.248965
_cell_length_c 14.304846
_cell_angle_alpha 90.000000
_cell_angle_beta 19.957816
_cell_angle_gamma 90.000000
_cell_volume 1774.557818
_symmetry_space_group_name_H-M "C 2/C"
_symmetry_group_IT_number 15
_symmetry_cell_setting 'monoclinic'
loop_
_space_group_symop_operation_xyz
x,y,z
-x,y,1/2-z
-x,-y,-z
x,-y,1/2+z
1/2+x,1/2+y,z
1/2-x,1/2+y,1/2-z
1/2-x,1/2-y,-z
1/2+x,1/2-y,1/2+z
loop_
_atom_site_type_symbol
_atom_site_label
_atom_site_fract_x
_atom_site_fract_y
_atom_site_fract_z
Si Si1 0.779429 0.986694 0.286300
Si Si2 0.500000 0.444802 0.750000
Si Si3 0.570751 0.216921 0.321887
Si Si4 0.708256 0.890252 0.479489
Si Si5 0.819159 0.716503 0.062121
Si Si6 0.000000 0.627010 0.750000
O O1 0.761326 0.926582 0.339555
O O2 0.500000 0.000000 0.500000
O O3 0.854634 0.020244 0.307849
O O4 0.000000 0.000000 0.000000
O O5 0.736734 0.409180 0.479491
O O6 0.857701 0.235213 0.009447
O O7 0.443402 0.163638 0.403778
O O8 0.612531 0.209555 0.393405
O O9 0.000000 0.881047 0.250000
O O10 0.500000 0.917999 0.750000
O O11 0.006866 0.765602 0.850445
O O12 0.906444 0.665196 0.922640
#
# Coordination Sequence:
#
# PCOD9283804 Si02
#       6
#     8   4   8   8   8   4
#     4  12  28  50  75 101 142 190 232 295 359 416
#     4  12  28  45  70 110 140 171 246 300 338 434
#     4  10  23  41  64 101 136 175 227 282 339 419
#     4  12  26  46  73 101 138 180 230 290 354 424
#     4  10  21  40  64  94 140 181 225 275 338 419
#     4  12  24  41  68 102 138 181 226 288 348 410
#
# _framework density 22.540825999999999
#
# number of rings (size 3 to 8) (size 9 to 14) (size 15 to 20)
#    0.000    0.800    1.000    5.400    7.000    2.400 
#    0.000    0.000    0.000    0.000    0.000    0.000 
#    0.000    0.000    0.000    0.000    0.000    0.000 
#
# Total GULP energy -112051.452452 kJ/mol
# GULP energy per Si atom -5602.572623 kJ/mol
# Density = 2.248952 g / cm^3
# Si number density = 22.540826 Si / 1000 Ang^3
#
#
#
# Elastic Constant Matrix: (Units=GPa)
#
#
# Indices 1 2 3 4 5 6 
#
# 1 104.6923 21.3501 5.1257 0.0891 -1.6533 0.0174
# 2 21.3501 75.0083 -7.7021 -0.0784 -0.7181 0.0394
# 3 5.1257 -7.7021 101.6136 0.2564 -2.9396 -0.0598
# 4 0.0891 -0.0784 0.2564 29.9702 -0.1313 3.5486
# 5 -1.6533 -0.7181 -2.9396 -0.1313 41.4032 0.0260
# 6 0.0174 0.0394 -0.0598 3.5486 0.0260 21.1352
#
#
#
# Elastic Compliance Matrix: (Units=1/GPa)
#
#
# Indices 1 2 3 4 5 6 
#
# 1 0.010199 -0.002975 -0.000731 -0.000031 0.000304 0.000000
# 2 -0.002975 0.014308 0.001241 0.000040 0.000218 -0.000028
# 3 -0.000731 0.001241 0.009993 -0.000082 0.000702 0.000039
# 4 -0.000031 0.000040 -0.000082 0.034045 0.000105 -0.005717
# 5 0.000304 0.000218 0.000702 0.000105 0.024219 -0.000046
# 6 0.000000 -0.000028 0.000039 -0.005717 -0.000046 0.048274
#
#
# Mechanical properties :
#
#
# Convention : Reuss Voigt Hill
#
# Bulk Modulus (GPa) = 33.81929 35.42906 34.62418
# Shear Modulus (GPa) = 32.08716 36.00441 34.04579
#
# Velocity S-wave (km/s) = 3.77704 4.00096 3.89061
# Velocity P-wave (km/s) = 5.83588 6.09060 5.96460
#
# Compressibility (1/GPa) = 0.02956892
#
# Stress axis : x y z
#
# Youngs Moduli (GPa) = 98.04725 69.88967 100.07343
#
# Poissons Ratio (x) = 0.20794 0.07317
# Poissons Ratio (y) = 0.29172 -0.12417
# Poissons Ratio (z) = 0.07169 -0.08672
#
# Static dielectric constant tensor:
#      x y z
#    x 1.784090 -0.000200 0.047860 
#    y -0.000200 1.827020 0.000430 
#    z 0.047860 0.000430 1.785140 
# 
# From -- ./inp_files/7529.got.cif
#   From: 2010.05.17/outbox.cif.g08.bks.cpg/sg15_4_cif.got.tgz:7529.got - 2010.06.03 18:47:42.
