data_PCOD9283864
_publ_section_title
;
Structure prediction by ZEFSAII (Michael W. Deem and Ramdas Pophale) SiO2 
 PCOD9283864
Probable space group: C 2/C
;
_chemical_formula_sum "Si O2"
_cell_formula_units_Z 36
_cell_length_a 8.029716
_cell_length_b 22.153578
_cell_length_c 9.759477
_cell_angle_alpha 90.000000
_cell_angle_beta 62.047009
_cell_angle_gamma 90.000000
_cell_volume 1533.538939
_symmetry_space_group_name_H-M "C 2/C"
_symmetry_group_IT_number 15
_symmetry_cell_setting 'monoclinic'
loop_
_space_group_symop_operation_xyz
x,y,z
-x,y,1/2-z
-x,-y,-z
x,-y,1/2+z
1/2+x,1/2+y,z
1/2-x,1/2+y,1/2-z
1/2-x,1/2-y,-z
1/2+x,1/2-y,1/2+z
loop_
_atom_site_type_symbol
_atom_site_label
_atom_site_fract_x
_atom_site_fract_y
_atom_site_fract_z
Si Si1 0.453165 0.270375 0.039943
Si Si2 0.350985 0.071545 0.192206
Si Si3 0.877721 0.563963 0.672153
Si Si4 0.259944 0.183449 0.631605
Si Si5 0.000000 0.155541 0.250000
O O1 0.292425 0.276048 0.215876
O O2 0.627362 0.301619 0.054911
O O3 0.527685 0.202674 0.986945
O O4 0.426346 0.304720 0.907499
O O5 0.500000 0.092989 0.250000
O O6 0.170840 0.113331 0.238766
O O7 0.297434 0.001313 0.244961
O O8 0.474904 0.062825 0.008725
O O9 0.731616 0.614918 0.686399
O O10 0.000000 0.588319 0.750000
#
# Coordination Sequence:
#
# PCOD9283864 Si02
#       5
#     8   8   8   8   4
#     4  10  24  39  63  96 131 173 220 265 339 376
#     4  10  23  42  64  98 131 170 215 272 327 384
#     4  10  21  40  65  88 128 175 216 265 327 387
#     4  10  22  43  61  92 134 175 215 277 320 396
#     4  12  24  40  68 104 128 170 220 270 324 402
#
# _framework density 23.475113
#
# number of rings (size 3 to 8) (size 9 to 14) (size 15 to 20)
#    0.000    1.778    0.000    2.667    4.667    2.667 
#    0.000   12.222    0.000    0.000    0.000    0.000 
#    0.000    0.000    0.000    0.000    0.000    0.000 
#
# Total GULP energy -100614.114402 kJ/mol
# GULP energy per Si atom -5589.673022 kJ/mol
# Density = 2.342168 g / cm^3
# Si number density = 23.475113 Si / 1000 Ang^3
#
#
#
# Elastic Constant Matrix: (Units=GPa)
#
#
# Indices 1 2 3 4 5 6 
#
# 1 104.8595 38.2013 16.5836 0.0000 25.3568 0.0000
# 2 38.2013 78.5623 -8.1806 0.0000 14.5580 0.0000
# 3 16.5836 -8.1806 81.3930 0.0000 19.7822 0.0000
# 4 0.0000 0.0000 0.0000 31.9349 0.0000 2.7740
# 5 25.3568 14.5580 19.7822 0.0000 43.2225 0.0000
# 6 0.0000 0.0000 0.0000 2.7740 0.0000 39.8228
#
#
#
# Elastic Compliance Matrix: (Units=1/GPa)
#
#
# Indices 1 2 3 4 5 6 
#
# 1 0.013105 -0.005694 -0.002070 0.000000 -0.004823 0.000000
# 2 -0.005694 0.016636 0.003805 0.000000 -0.004004 0.000000
# 3 -0.002070 0.003805 0.014747 0.000000 -0.006817 0.000000
# 4 0.000000 0.000000 0.000000 0.031504 0.000000 -0.002195
# 5 -0.004823 -0.004004 -0.006817 0.000000 0.030434 0.000000
# 6 0.000000 0.000000 0.000000 -0.002195 0.000000 0.025264
#
#
# Mechanical properties :
#
#
# Convention : Reuss Voigt Hill
#
# Bulk Modulus (GPa) = 27.34499 39.78037 33.56268
# Shear Modulus (GPa) = 32.93862 37.54341 35.24101
#
# Velocity S-wave (km/s) = 3.74990 4.00345 3.87875
# Velocity P-wave (km/s) = 5.51569 6.19295 5.86410
#
# Compressibility (1/GPa) = 0.03656977
#
# Stress axis : x y z
#
# Youngs Moduli (GPa) = 76.30941 60.11121 67.80980
#
# Poissons Ratio (x) = 0.34228 0.14038
# Poissons Ratio (y) = 0.43451 -0.25805
# Poissons Ratio (z) = 0.15798 -0.22875
#
# Static dielectric constant tensor:
#      x y z
#    x 1.896920 0.000000 -0.015250 
#    y 0.000000 1.961740 0.000000 
#    z -0.015250 0.000000 1.811510 
# 
# From -- ./inp_files/23306.got.cif
#   From: 2010.05.17/outbox.cif.g08.bks.cpg/sg15_12_cif.got.tgz:23306.got - 2010.06.03 18:47:42.
