data_PCOD9283268
_publ_section_title
;
Structure prediction by ZEFSAII (Michael W. Deem and Ramdas Pophale) SiO2 
 PCOD9283268
Probable space group: C 2/C
;
_chemical_formula_sum "Si O2"
_cell_formula_units_Z 40
_cell_length_a 11.214643
_cell_length_b 27.937640
_cell_length_c 8.174087
_cell_angle_alpha 90.000000
_cell_angle_beta 134.861051
_cell_angle_gamma 90.000000
_cell_volume 1815.307044
_symmetry_space_group_name_H-M "C 2/C"
_symmetry_group_IT_number 15
_symmetry_cell_setting 'monoclinic'
loop_
_space_group_symop_operation_xyz
x,y,z
-x,y,1/2-z
-x,-y,-z
x,-y,1/2+z
1/2+x,1/2+y,z
1/2-x,1/2+y,1/2-z
1/2-x,1/2-y,-z
1/2+x,1/2-y,1/2+z
loop_
_atom_site_type_symbol
_atom_site_label
_atom_site_fract_x
_atom_site_fract_y
_atom_site_fract_z
Si Si1 0.857190 0.783731 0.224444
Si Si2 0.306640 0.880547 0.769321
Si Si3 0.497767 0.554819 0.945247
Si Si4 0.857324 0.713554 0.495516
Si Si5 0.808306 0.378889 0.373614
O O1 0.935453 0.747119 0.429865
O O2 0.754043 0.824743 0.216948
O O3 0.000000 0.807408 0.250000
O O4 0.750000 0.750000 0.000000
O O5 0.163608 0.918624 0.673710
O O6 0.307296 0.878522 0.571952
O O7 0.265359 0.829909 0.815018
O O8 0.502672 0.890326 0.000099
O O9 0.500000 0.556415 0.750000
O O10 0.329205 0.584175 0.827283
O O11 0.500000 0.500000 0.000000
O O12 0.750000 0.750000 0.500000
O O13 0.000000 0.693098 0.750000
#
# Coordination Sequence:
#
# PCOD9283268 Si02
#       5
#     8   8   8   8   8
#     4  12  22  38  66  94 127 183 235 269 323 414
#     4  10  21  43  65  94 132 176 225 274 328 409
#     4  10  23  45  71  98 128 167 223 283 344 401
#     4  12  26  40  57  98 145 177 218 282 348 394
#     4  10  21  39  72  96 123 175 237 276 314 400
#
# _framework density 22.034839999999999
#
# number of rings (size 3 to 8) (size 9 to 14) (size 15 to 20)
#    0.000    1.200    2.000    5.400    2.800    0.800 
#    7.200    0.000    0.000    0.000    0.000    0.000 
#    0.000    0.000    0.000    0.000    0.000    0.000 
#
# Total GULP energy -111797.896137 kJ/mol
# GULP energy per Si atom -5589.894807 kJ/mol
# Density = 2.198469 g / cm^3
# Si number density = 22.034840 Si / 1000 Ang^3
#
#
#
# Elastic Constant Matrix: (Units=GPa)
#
#
# Indices 1 2 3 4 5 6 
#
# 1 90.2695 52.3830 44.1359 0.0000 29.2556 0.0000
# 2 52.3830 181.3651 77.7179 0.0000 37.2832 0.0000
# 3 44.1359 77.7179 107.4788 0.0000 27.4820 0.0000
# 4 0.0000 0.0000 0.0000 44.5918 0.0000 -2.0960
# 5 29.2556 37.2832 27.4820 0.0000 38.2820 0.0000
# 6 0.0000 0.0000 0.0000 -2.0960 0.0000 31.2203
#
#
#
# Elastic Compliance Matrix: (Units=1/GPa)
#
#
# Indices 1 2 3 4 5 6 
#
# 1 0.016430 -0.001488 -0.003467 0.000000 -0.008617 0.000000
# 2 -0.001488 0.008795 -0.004715 0.000000 -0.004044 0.000000
# 3 -0.003467 -0.004715 0.015048 0.000000 -0.003561 0.000000
# 4 0.000000 0.000000 0.000000 0.022497 0.000000 0.001510
# 5 -0.008617 -0.004044 -0.003561 0.000000 0.039202 0.000000
# 6 0.000000 0.000000 0.000000 0.001510 0.000000 0.032132
#
#
# Mechanical properties :
#
#
# Convention : Reuss Voigt Hill
#
# Bulk Modulus (GPa) = 47.77295 80.84299 64.30797
# Shear Modulus (GPa) = 31.16805 36.47726 33.82266
#
# Velocity S-wave (km/s) = 3.76505 4.07312 3.92211
# Velocity P-wave (km/s) = 6.37405 7.67390 7.05398
#
# Compressibility (1/GPa) = 0.02093235
#
# Stress axis : x y z
#
# Youngs Moduli (GPa) = 60.86606 113.69900 66.45501
#
# Poissons Ratio (x) = 0.16918 0.23042
# Poissons Ratio (y) = 0.09057 0.31332
# Poissons Ratio (z) = 0.21104 0.53606
#
# Static dielectric constant tensor:
#      x y z
#    x 1.878740 0.000000 0.003200 
#    y 0.000000 1.758000 0.000000 
#    z 0.003200 0.000000 1.830840 
# 
# From -- ./inp_files/35450.got.cif
#   From: 2010.05.17/outbox.cif.g08.bks.cpg/sg15_18_cif.got.tgz:35450.got - 2010.06.03 18:47:42.
