data_PCOD9283585
_publ_section_title
;
Structure prediction by ZEFSAII (Michael W. Deem and Ramdas Pophale) SiO2 
 PCOD9283585
Probable space group: C 2/C
;
_chemical_formula_sum "Si O2"
_cell_formula_units_Z 40
_cell_length_a 15.544335
_cell_length_b 4.926715
_cell_length_c 22.735797
_cell_angle_alpha 90.000000
_cell_angle_beta 71.870119
_cell_angle_gamma 90.000000
_cell_volume 1654.721784
_symmetry_space_group_name_H-M "C 2/C"
_symmetry_group_IT_number 15
_symmetry_cell_setting 'monoclinic'
loop_
_space_group_symop_operation_xyz
x,y,z
-x,y,1/2-z
-x,-y,-z
x,-y,1/2+z
1/2+x,1/2+y,z
1/2-x,1/2+y,1/2-z
1/2-x,1/2-y,-z
1/2+x,1/2-y,1/2+z
loop_
_atom_site_type_symbol
_atom_site_label
_atom_site_fract_x
_atom_site_fract_y
_atom_site_fract_z
Si Si1 0.709447 0.139025 0.330718
Si Si2 0.844067 0.103639 0.465773
Si Si3 0.561839 0.800127 0.948354
Si Si4 0.416668 0.127563 0.388832
Si Si5 0.833900 0.355488 0.789129
O O1 0.651134 0.071231 0.400099
O O2 0.752458 0.438857 0.324646
O O3 0.651600 0.100326 0.283131
O O4 0.794443 0.944248 0.304645
O O5 0.750000 0.250000 0.500000
O O6 0.899650 0.074653 0.515258
O O7 0.898897 0.324578 0.415436
O O8 0.837951 0.823984 0.431686
O O9 0.502491 0.738359 0.903238
O O10 0.500000 0.000000 0.000000
O O11 0.412973 0.118645 0.319628
#
# Coordination Sequence:
#
# PCOD9283585 Si02
#       5
#     8   8   8   8   8
#     4  10  22  40  62  85 117 153 199 243 288 347
#     4  11  22  37  58  82 115 155 193 234 281 345
#     4  10  23  39  58  89 124 155 189 241 300 352
#     4  11  22  36  57  85 116 148 192 238 290 343
#     4  10  21  40  63  86 111 155 202 244 285 341
#
# _framework density 24.173245000000001
#
# number of rings (size 3 to 8) (size 9 to 14) (size 15 to 20)
#    0.000    1.600    0.000    4.800    0.000    8.800 
#    0.000    0.000    0.000   12.000    0.000    0.000 
#    0.000    0.000    0.000    0.000    0.000    0.000 
#
# Total GULP energy -111745.695992 kJ/mol
# GULP energy per Si atom -5587.284800 kJ/mol
# Density = 2.411823 g / cm^3
# Si number density = 24.173245 Si / 1000 Ang^3
#
#
#
# Elastic Constant Matrix: (Units=GPa)
#
#
# Indices 1 2 3 4 5 6 
#
# 1 69.6676 -12.3337 35.4831 -0.0002 39.5180 -0.0013
# 2 -12.3337 75.5021 8.6138 0.0005 3.8999 -0.0020
# 3 35.4831 8.6138 136.0511 0.0002 28.0044 -0.0003
# 4 -0.0002 0.0005 0.0002 25.0453 0.0001 4.2212
# 5 39.5180 3.8999 28.0044 0.0001 65.2193 -0.0002
# 6 -0.0013 -0.0020 -0.0003 4.2212 -0.0002 20.4427
#
#
#
# Elastic Compliance Matrix: (Units=1/GPa)
#
#
# Indices 1 2 3 4 5 6 
#
# 1 0.025219 0.005298 -0.004061 0.000000 -0.013854 0.000002
# 2 0.005298 0.014468 -0.001600 -0.000001 -0.003388 0.000002
# 3 -0.004061 -0.001600 0.008759 0.000000 -0.001204 0.000000
# 4 0.000000 -0.000001 0.000000 0.041367 0.000000 -0.008542
# 5 -0.013854 -0.003388 -0.001204 0.000000 0.024447 -0.000001
# 6 0.000002 0.000002 0.000000 -0.008542 -0.000001 0.050681
#
#
# Mechanical properties :
#
#
# Convention : Reuss Voigt Hill
#
# Bulk Modulus (GPa) = 20.95607 38.30526 29.63067
# Shear Modulus (GPa) = 27.53719 38.77196 33.15457
#
# Velocity S-wave (km/s) = 3.37881 4.00924 3.70745
# Velocity P-wave (km/s) = 4.88976 6.10840 5.53273
#
# Compressibility (1/GPa) = 0.04771886
#
# Stress axis : x y z
#
# Youngs Moduli (GPa) = 39.65342 69.11896 114.17381
#
# Poissons Ratio (x) = -0.36622 0.46367
# Poissons Ratio (y) = -0.21010 0.18273
# Poissons Ratio (z) = 0.16103 0.11062
#
# Static dielectric constant tensor:
#      x y z
#    x 2.036470 0.000000 0.025170 
#    y 0.000000 1.877470 0.000000 
#    z 0.025170 0.000000 1.942720 
# 
# From -- ./inp_files/246222.got.cif
#   From: 2010.05.17/outbox.cif.g08.bks.cpg/sg15_124_cif.got.tgz:246222.got - 2010.06.03 18:47:42.
