data_PCOD9283667
_publ_section_title
;
Structure prediction by ZEFSAII (Michael W. Deem and Ramdas Pophale) SiO2 
 PCOD9283667
Probable space group: C 2/C
;
_chemical_formula_sum "Si O2"
_cell_formula_units_Z 40
_cell_length_a 22.223630
_cell_length_b 8.167024
_cell_length_c 10.607275
_cell_angle_alpha 90.000000
_cell_angle_beta 103.748072
_cell_angle_gamma 90.000000
_cell_volume 1870.072452
_symmetry_space_group_name_H-M "C 2/C"
_symmetry_group_IT_number 15
_symmetry_cell_setting 'monoclinic'
loop_
_space_group_symop_operation_xyz
x,y,z
-x,y,1/2-z
-x,-y,-z
x,-y,1/2+z
1/2+x,1/2+y,z
1/2-x,1/2+y,1/2-z
1/2-x,1/2-y,-z
1/2+x,1/2-y,1/2+z
loop_
_atom_site_type_symbol
_atom_site_label
_atom_site_fract_x
_atom_site_fract_y
_atom_site_fract_z
Si Si1 0.840627 0.854772 0.345196
Si Si2 0.671463 0.096591 0.962630
Si Si3 0.230320 0.457984 0.749195
Si Si4 0.464898 0.050674 0.108627
Si Si5 0.983658 0.094531 0.867647
O O1 0.835944 0.780602 0.485020
O O2 0.801979 0.718413 0.246550
O O3 0.803412 0.022208 0.307516
O O4 0.911497 0.858312 0.339628
O O5 0.701205 0.078266 0.840267
O O6 0.604483 0.013467 0.927886
O O7 0.711679 0.010705 0.094134
O O8 0.500000 0.985922 0.250000
O O9 0.472513 0.246138 0.117277
O O10 0.500000 0.000000 0.000000
O O11 0.000000 0.995336 0.750000
O O12 0.000000 0.000000 0.000000
#
# Coordination Sequence:
#
# PCOD9283667 Si02
#       5
#     8   8   8   8   8
#     4  10  23  43  63  94 128 163 221 254 323 384
#     4  10  21  40  63  94 124 164 217 258 315 382
#     4  10  22  39  65  91 128 166 208 268 312 379
#     4  11  20  39  67  92 128 167 214 263 315 382
#     4  11  25  45  63  95 132 169 214 270 321 387
#
# _framework density 21.389547
#
# number of rings (size 3 to 8) (size 9 to 14) (size 15 to 20)
#    1.200    0.400    2.000    4.200    0.000    4.800 
#    3.600    0.000    0.000    0.000    0.000    0.000 
#    0.000    0.000    0.000    0.000    0.000    0.000 
#
# Total GULP energy -111534.646720 kJ/mol
# GULP energy per Si atom -5576.732336 kJ/mol
# Density = 2.134086 g / cm^3
# Si number density = 21.389547 Si / 1000 Ang^3
#
#
#
# Elastic Constant Matrix: (Units=GPa)
#
#
# Indices 1 2 3 4 5 6 
#
# 1 101.6035 31.3250 23.6767 0.0000 19.2090 0.0000
# 2 31.3250 40.1212 25.2883 0.0000 15.2039 0.0000
# 3 23.6767 25.2883 134.3831 0.0000 -10.8763 0.0000
# 4 0.0000 0.0000 0.0000 22.1628 0.0000 5.3975
# 5 19.2090 15.2039 -10.8763 0.0000 39.1795 0.0000
# 6 0.0000 0.0000 0.0000 5.3975 0.0000 28.6850
#
#
#
# Elastic Compliance Matrix: (Units=1/GPa)
#
#
# Indices 1 2 3 4 5 6 
#
# 1 0.013357 -0.008401 -0.001063 0.000000 -0.003584 0.000000
# 2 -0.008401 0.041526 -0.007473 0.000000 -0.014070 0.000000
# 3 -0.001063 -0.007473 0.009526 0.000000 0.006065 0.000000
# 4 0.000000 0.000000 0.000000 0.047288 0.000000 -0.008898
# 5 -0.003584 -0.014070 0.006065 0.000000 0.034424 0.000000
# 6 0.000000 0.000000 0.000000 -0.008898 0.000000 0.036536
#
#
# Mechanical properties :
#
#
# Convention : Reuss Voigt Hill
#
# Bulk Modulus (GPa) = 32.74855 48.52087 40.63471
# Shear Modulus (GPa) = 22.05477 31.05999 26.55738
#
# Velocity S-wave (km/s) = 3.21456 3.81479 3.52747
# Velocity P-wave (km/s) = 5.39645 6.49131 5.96904
#
# Compressibility (1/GPa) = 0.03053571
#
# Stress axis : x y z
#
# Youngs Moduli (GPa) = 74.86444 24.08142 104.97856
#
# Poissons Ratio (x) = 0.20231 0.11154
# Poissons Ratio (y) = 0.62895 0.78449
# Poissons Ratio (z) = 0.07955 0.17996
#
# Static dielectric constant tensor:
#      x y z
#    x 1.758640 0.000000 -0.010220 
#    y 0.000000 1.845630 0.000000 
#    z -0.010220 0.000000 1.836450 
# 
# From -- ./inp_files/115986.got.cif
#   From: 2010.05.17/outbox.cif.g08.bks.cpg/sg15_58_cif.got.tgz:115986.got - 2010.06.03 18:47:42.
