data_PCOD9283515
_publ_section_title
;
Structure prediction by ZEFSAII (Michael W. Deem and Ramdas Pophale) SiO2 
 PCOD9283515
Probable space group: C 2/C
;
_chemical_formula_sum "Si O2"
_cell_formula_units_Z 48
_cell_length_a 33.973040
_cell_length_b 7.184138
_cell_length_c 20.276778
_cell_angle_alpha 90.000000
_cell_angle_beta 155.392436
_cell_angle_gamma 90.000000
_cell_volume 2060.722923
_symmetry_space_group_name_H-M "C 2/C"
_symmetry_group_IT_number 15
_symmetry_cell_setting 'monoclinic'
loop_
_space_group_symop_operation_xyz
x,y,z
-x,y,1/2-z
-x,-y,-z
x,-y,1/2+z
1/2+x,1/2+y,z
1/2-x,1/2+y,1/2-z
1/2-x,1/2-y,-z
1/2+x,1/2-y,1/2+z
loop_
_atom_site_type_symbol
_atom_site_label
_atom_site_fract_x
_atom_site_fract_y
_atom_site_fract_z
Si Si1 0.002626 0.204033 0.386329
Si Si2 0.500000 0.000000 0.500000
Si Si3 0.182011 0.418426 0.972837
Si Si4 0.000000 0.610205 0.750000
Si Si5 0.197354 0.586788 0.752912
Si Si6 0.808328 0.018586 0.047430
Si Si7 0.198597 0.850159 0.224000
O O1 0.904540 0.099490 0.223945
O O2 0.991445 0.380843 0.417281
O O3 0.038204 0.267614 0.368330
O O4 0.090992 0.086011 0.548948
O O5 0.411113 0.872352 0.395108
O O6 0.080782 0.488616 0.840122
O O7 0.176076 0.198772 0.947153
O O8 0.225585 0.517115 0.975537
O O9 0.250823 0.454154 0.139507
O O10 0.193237 0.361472 0.740967
O O11 0.239098 0.651954 0.747128
O O12 0.269129 0.621132 0.922828
#
# Coordination Sequence:
#
# PCOD9283515 Si02
#       7
#     8   4   8   4   8   8   8
#     4  11  24  41  65  96 126 169 218 265 323 398
#     4  10  22  38  60  92 130 162 208 266 322 378
#     4  10  23  43  63  93 131 169 213 274 332 388
#     4  12  24  40  66  96 128 164 212 268 328 386
#     4  10  21  40  62  90 124 163 208 261 317 386
#     4  10  23  42  66  92 127 171 221 267 326 399
#     4  10  22  39  61  90 125 161 208 261 321 384
#
# _framework density 23.292795999999999
#
# number of rings (size 3 to 8) (size 9 to 14) (size 15 to 20)
#    0.000    1.667    0.000    4.000    0.000   10.667 
#    0.000    3.333    0.000    0.000    0.000    0.000 
#    0.000    0.000    0.000    0.000    0.000    0.000 
#
# Total GULP energy -133725.327669 kJ/mol
# GULP energy per Si atom -5571.888653 kJ/mol
# Density = 2.323978 g / cm^3
# Si number density = 23.292796 Si / 1000 Ang^3
#
#
#
# Elastic Constant Matrix: (Units=GPa)
#
#
# Indices 1 2 3 4 5 6 
#
# 1 135.8561 27.9250 57.4012 0.0000 -5.4586 -0.0005
# 2 27.9250 55.3017 38.7958 -0.0001 -4.1264 0.0010
# 3 57.4012 38.7958 169.8642 0.0000 4.9493 0.0002
# 4 0.0000 -0.0001 0.0000 63.0962 0.0000 -704.8656
# 5 -5.4586 -4.1264 4.9493 0.0000 44.8707 -0.0005
# 6 -0.0005 0.0010 0.0002 -704.8656 -0.000514391.4224
#
#
#
# Elastic Compliance Matrix: (Units=1/GPa)
#
#
# Indices 1 2 3 4 5 6 
#
# 1 0.009004 -0.002746 -0.002448 0.000000 0.001113 0.000000
# 2 -0.002746 0.022661 -0.004312 0.000000 0.002225 0.000000
# 3 -0.002448 -0.004312 0.007744 0.000000 -0.001549 0.000000
# 4 0.000000 0.000000 0.000000 0.034998 0.000000 0.001714
# 5 0.001113 0.002225 -0.001549 0.000000 0.022797 0.000000
# 6 0.000000 0.000000 0.000000 0.001714 0.000000 0.000153
#
#
# Mechanical properties :
#
#
# Convention : Reuss Voigt Hill
#
# Bulk Modulus (GPa) = 49.02935 67.69623 58.36279
# Shear Modulus (GPa) = 40.59441 2915.67120 1478.13280
#
# Velocity S-wave (km/s) = 4.17920 35.41843 25.21836
# Velocity P-wave (km/s) = 6.66202 41.25224 29.54767
#
# Compressibility (1/GPa) = 0.02039595
#
# Stress axis : x y z
#
# Youngs Moduli (GPa) = 111.05870 44.12915 129.12754
#
# Poissons Ratio (x) = 0.12120 0.31609
# Poissons Ratio (y) = 0.30502 0.55684
# Poissons Ratio (z) = 0.27186 0.19030
#
# Static dielectric constant tensor:
#      x y z
#    x 1.813970 0.000000 0.009540 
#    y 0.000000 1.884090 0.000000 
#    z 0.009540 0.000000 1.941250 
# 
# From -- ./inp_files/224728.got.cif
#   From: 2010.05.17/outbox.cif.g08.bks.cpg/sg15_113_cif.got.tgz:224728.got - 2010.06.03 18:47:42.
