data_PCOD9283677
_publ_section_title
;
Structure prediction by ZEFSAII (Michael W. Deem and Ramdas Pophale) SiO2 
 PCOD9283677
Probable space group: C 2/C
;
_chemical_formula_sum "Si O2"
_cell_formula_units_Z 52
_cell_length_a 18.322915
_cell_length_b 22.154923
_cell_length_c 8.206177
_cell_angle_alpha 90.000000
_cell_angle_beta 51.483371
_cell_angle_gamma 90.000000
_cell_volume 2606.452237
_symmetry_space_group_name_H-M "C 2/C"
_symmetry_group_IT_number 15
_symmetry_cell_setting 'monoclinic'
loop_
_space_group_symop_operation_xyz
x,y,z
-x,y,1/2-z
-x,-y,-z
x,-y,1/2+z
1/2+x,1/2+y,z
1/2-x,1/2+y,1/2-z
1/2-x,1/2-y,-z
1/2+x,1/2-y,1/2+z
loop_
_atom_site_type_symbol
_atom_site_label
_atom_site_fract_x
_atom_site_fract_y
_atom_site_fract_z
Si Si1 0.500000 0.821863 0.250000
Si Si2 0.845276 0.214709 0.906745
Si Si3 0.470260 0.275862 0.542219
Si Si4 0.692968 0.422008 0.004021
Si Si5 0.400206 0.528238 0.186423
Si Si6 0.400693 0.074982 0.080279
Si Si7 0.000000 0.117619 0.250000
Si Si8 0.500000 0.024849 0.250000
O O1 0.551995 0.777103 0.300789
O O2 0.430070 0.864954 0.444997
O O3 0.884918 0.217297 0.036257
O O4 0.933020 0.239996 0.683237
O O5 0.750000 0.250000 0.000000
O O6 0.830214 0.143765 0.893699
O O7 0.496701 0.337041 0.601816
O O8 0.632987 0.435551 0.925230
O O9 0.798434 0.423296 0.795412
O O10 0.668195 0.474615 0.165579
O O11 0.415964 0.572284 0.319855
O O12 0.500000 0.500000 0.000000
O O13 0.468203 0.063543 0.140356
O O14 0.419180 0.019887 0.928899
#
# Coordination Sequence:
#
# PCOD9283677 Si02
#       8
#     4   8   8   8   8   8   4   4
#     4  10  22  42  66  86 122 172 222 264 334 382
#     4  11  24  42  64  92 126 169 221 270 326 386
#     4  10  23  43  65  88 125 171 216 269 324 394
#     4  12  24  38  63  99 133 162 221 266 319 392
#     4  12  23  38  63  94 134 175 204 253 324 394
#     4  10  21  40  63  95 125 167 215 274 325 394
#     4  11  20  41  62  90 125 172 205 250 328 386
#     4   9  20  41  66  86 131 170 209 268 346 384
#
# _framework density 19.950491
#
# number of rings (size 3 to 8) (size 9 to 14) (size 15 to 20)
#    0.000    1.231    3.077    2.769    2.154    2.462 
#    2.769    3.846    0.000    0.000    0.000    0.000 
#    0.000    0.000    0.000    0.000    0.000    0.000 
#
# Total GULP energy -145141.744992 kJ/mol
# GULP energy per Si atom -5582.374807 kJ/mol
# Density = 1.990508 g / cm^3
# Si number density = 19.950491 Si / 1000 Ang^3
#
#
#
# Elastic Constant Matrix: (Units=GPa)
#
#
# Indices 1 2 3 4 5 6 
#
# 1 75.8094 39.8124 17.0630 0.0000 1.3375 0.0000
# 2 39.8124 122.8214 42.7024 0.0000 1.8815 0.0000
# 3 17.0630 42.7024 85.5987 0.0000 -7.4376 0.0000
# 4 0.0000 0.0000 0.0000 27.0076 0.0000 12.6031
# 5 1.3375 1.8815 -7.4376 0.0000 35.2609 0.0000
# 6 0.0000 0.0000 0.0000 12.6031 0.0000 28.2923
#
#
#
# Elastic Compliance Matrix: (Units=1/GPa)
#
#
# Indices 1 2 3 4 5 6 
#
# 1 0.015943 -0.004888 -0.000784 0.000000 -0.000509 0.000000
# 2 -0.004888 0.011437 -0.004857 0.000000 -0.001449 0.000000
# 3 -0.000784 -0.004857 0.014554 0.000000 0.003359 0.000000
# 4 0.000000 0.000000 0.000000 0.046743 0.000000 -0.020822
# 5 -0.000509 -0.001449 0.003359 0.000000 0.029165 0.000000
# 6 0.000000 0.000000 0.000000 -0.020822 0.000000 0.044621
#
#
# Mechanical properties :
#
#
# Convention : Reuss Voigt Hill
#
# Bulk Modulus (GPa) = 47.90143 53.70945 50.80544
# Shear Modulus (GPa) = 26.24943 30.42226 28.33584
#
# Velocity S-wave (km/s) = 3.63123 3.90922 3.77279
# Velocity P-wave (km/s) = 6.45317 6.88155 6.67080
#
# Compressibility (1/GPa) = 0.02087620
#
# Stress axis : x y z
#
# Youngs Moduli (GPa) = 62.72257 87.43402 68.71100
#
# Poissons Ratio (x) = 0.42734 0.05388
# Poissons Ratio (y) = 0.30656 0.33375
# Poissons Ratio (z) = 0.04918 0.42469
#
# Static dielectric constant tensor:
#      x y z
#    x 1.676550 0.000000 0.027240 
#    y 0.000000 1.714480 0.000000 
#    z 0.027240 0.000000 1.711320 
# 
# From -- ./inp_files/50619.got.cif
#   From: 2010.05.17/outbox.cif.g08.bks.cpg/sg15_26_cif.got.tgz:50619.got - 2010.06.03 18:47:42.
