data_PCOD9283388
_publ_section_title
;
Structure prediction by ZEFSAII (Michael W. Deem and Ramdas Pophale) SiO2 
 PCOD9283388
Probable space group: C 2/C
;
_chemical_formula_sum "Si O2"
_cell_formula_units_Z 40
_cell_length_a 7.896688
_cell_length_b 21.581012
_cell_length_c 11.717137
_cell_angle_alpha 90.000000
_cell_angle_beta 76.333409
_cell_angle_gamma 90.000000
_cell_volume 1940.281354
_symmetry_space_group_name_H-M "C 2/C"
_symmetry_group_IT_number 15
_symmetry_cell_setting 'monoclinic'
loop_
_space_group_symop_operation_xyz
x,y,z
-x,y,1/2-z
-x,-y,-z
x,-y,1/2+z
1/2+x,1/2+y,z
1/2-x,1/2+y,1/2-z
1/2-x,1/2-y,-z
1/2+x,1/2-y,1/2+z
loop_
_atom_site_type_symbol
_atom_site_label
_atom_site_fract_x
_atom_site_fract_y
_atom_site_fract_z
Si Si1 0.551338 0.744440 0.990863
Si Si2 0.000000 0.025714 0.250000
Si Si3 0.708979 0.579376 0.639841
Si Si4 0.500000 0.695185 0.750000
Si Si5 0.454709 0.870834 0.391900
Si Si6 0.451781 0.607689 0.479216
O O1 0.531760 0.735672 0.857807
O O2 0.483439 0.678773 0.048925
O O3 0.750000 0.750000 0.000000
O O4 0.482879 0.807787 0.054226
O O5 0.969385 0.068423 0.363199
O O6 0.839081 0.977626 0.271158
O O7 0.655424 0.645572 0.704951
O O8 0.578295 0.577597 0.553315
O O9 0.911608 0.578674 0.580153
O O10 0.500000 0.866990 0.250000
O O11 0.251079 0.885507 0.448458
#
# Coordination Sequence:
#
# PCOD9283388 Si02
#       6
#     8   4   8   4   8   8
#     4   9  19  37  59  90 126 158 204 258 310 372
#     4  11  22  42  66  86 128 164 211 262 306 365
#     4  10  21  40  61  86 121 170 207 248 307 375
#     4   9  18  36  58  86 122 164 207 246 312 371
#     4  11  22  39  64  93 124 165 208 251 315 377
#     4  10  23  41  61  93 123 163 207 259 313 362
#
# _framework density 20.615568
#
# number of rings (size 3 to 8) (size 9 to 14) (size 15 to 20)
#    0.000    2.000    0.000    5.400    1.400    4.000 
#    7.200    2.000    0.000    0.000    0.000    0.000 
#    0.000    0.000    0.000    0.000    0.000    0.000 
#
# Total GULP energy -111448.212870 kJ/mol
# GULP energy per Si atom -5572.410644 kJ/mol
# Density = 2.056865 g / cm^3
# Si number density = 20.615568 Si / 1000 Ang^3
#
#
#
# Elastic Constant Matrix: (Units=GPa)
#
#
# Indices 1 2 3 4 5 6 
#
# 1 94.7936 29.3282 67.3439 0.0000 6.0834 0.0000
# 2 29.3282 86.3304 78.1820 0.0000 0.8402 0.0000
# 3 67.3439 78.1820 148.8838 0.0000 6.0107 0.0000
# 4 0.0000 0.0000 0.0000 23.5440 0.0000 -13.8369
# 5 6.0834 0.8402 6.0107 0.0000 23.8454 0.0000
# 6 0.0000 0.0000 0.0000 -13.8369 0.0000 6.7946
#
#
#
# Elastic Compliance Matrix: (Units=1/GPa)
#
#
# Indices 1 2 3 4 5 6 
#
# 1 0.015840 0.002006 -0.008135 0.000000 -0.002061 0.000000
# 2 0.002006 0.022453 -0.012775 0.000000 0.001917 0.000000
# 3 -0.008135 -0.012775 0.017178 0.000000 -0.001804 0.000000
# 4 0.000000 0.000000 0.000000 -0.215800 0.000000 -0.439464
# 5 -0.002061 0.001917 -0.001804 0.000000 0.042850 0.000000
# 6 0.000000 0.000000 0.000000 -0.439464 0.000000 -0.747766
#
#
# Mechanical properties :
#
#
# Convention : Reuss Voigt Hill
#
# Bulk Modulus (GPa) = 56.61809 75.52398 66.07104
# Shear Modulus (GPa) = -6.08606 21.18040 7.54717
#
# Velocity S-wave (km/s) = -1.72005 3.20878 1.91543
# Velocity P-wave (km/s) = 4.85578 7.10228 6.08362
#
# Compressibility (1/GPa) = 0.01766220
#
# Stress axis : x y z
#
# Youngs Moduli (GPa) = 63.13002 44.53838 58.21482
#
# Poissons Ratio (x) = -0.08935 0.47359
# Poissons Ratio (y) = -0.12665 0.74370
# Poissons Ratio (z) = 0.51358 0.56898
#
# Static dielectric constant tensor:
#      x y z
#    x 1.855300 0.000000 0.029340 
#    y 0.000000 1.774850 0.000000 
#    z 0.029340 0.000000 1.787930 
# 
# From -- ./inp_files/77826.got.cif
#   From: 2010.05.17/outbox.cif.g08.bks.cpg/sg15_39_cif.got.tgz:77826.got - 2010.06.03 18:47:42.
