data_PCOD9283872
_publ_section_title
;
Structure prediction by ZEFSAII (Michael W. Deem and Ramdas Pophale) SiO2 
 PCOD9283872
Probable space group: C 2/C
;
_chemical_formula_sum "Si O2"
_cell_formula_units_Z 52
_cell_length_a 17.152728
_cell_length_b 12.359369
_cell_length_c 14.737639
_cell_angle_alpha 90.000000
_cell_angle_beta 124.747306
_cell_angle_gamma 90.000000
_cell_volume 2567.182952
_symmetry_space_group_name_H-M "C 2/C"
_symmetry_group_IT_number 15
_symmetry_cell_setting 'monoclinic'
loop_
_space_group_symop_operation_xyz
x,y,z
-x,y,1/2-z
-x,-y,-z
x,-y,1/2+z
1/2+x,1/2+y,z
1/2-x,1/2+y,1/2-z
1/2-x,1/2-y,-z
1/2+x,1/2-y,1/2+z
loop_
_atom_site_type_symbol
_atom_site_label
_atom_site_fract_x
_atom_site_fract_y
_atom_site_fract_z
Si Si1 0.105152 0.309585 0.368761
Si Si2 0.867274 0.260236 0.808786
Si Si3 0.158768 0.108127 0.978420
Si Si4 0.300689 0.180631 0.927454
Si Si5 0.312923 0.631685 0.944999
Si Si6 0.500000 0.671789 0.750000
Si Si7 0.395752 0.959686 0.952103
O O1 0.199361 0.340094 0.371561
O O2 0.136620 0.196171 0.437754
O O3 0.105056 0.397052 0.451603
O O4 0.000000 0.307056 0.250000
O O5 0.777696 0.232375 0.688451
O O6 0.863829 0.175655 0.889015
O O7 0.863476 0.375872 0.853999
O O8 0.953362 0.245061 0.796650
O O9 0.256876 0.141619 0.994459
O O10 0.081254 0.098494 0.848011
O O11 0.130221 0.217142 0.013382
O O12 0.172263 0.996211 0.037317
O O13 0.336544 0.069251 0.911111
O O14 0.500000 0.000000 0.000000
#
# Coordination Sequence:
#
# PCOD9283872 Si02
#       7
#     8   8   8   8   8   4   8
#     4  10  23  42  66  98 134 176 222 273 335 392
#     4  10  24  41  66  93 130 174 219 274 335 393
#     4  10  21  40  65  89 129 172 212 268 329 394
#     4  10  22  40  61  94 129 170 214 268 331 386
#     4  10  22  43  65  99 135 169 223 275 329 398
#     4  10  22  44  60  94 130 172 220 268 332 404
#     4  11  23  42  63  98 130 166 225 278 321 399
#
# _framework density 20.255666000000002
#
# number of rings (size 3 to 8) (size 9 to 14) (size 15 to 20)
#    0.000    1.846    1.538    0.923    5.385    0.615 
#    5.538    0.000    0.000    0.000    0.000    1.077 
#    0.000    0.000    0.000    0.000    0.000    0.000 
#
# Total GULP energy -144930.642072 kJ/mol
# GULP energy per Si atom -5574.255464 kJ/mol
# Density = 2.020956 g / cm^3
# Si number density = 20.255666 Si / 1000 Ang^3
#
#
#
# Elastic Constant Matrix: (Units=GPa)
#
#
# Indices 1 2 3 4 5 6 
#
# 1 96.3076 57.9115 38.7712 0.0000 -9.2593 0.0000
# 2 57.9115 179.6464 59.9415 0.0000 -1.9522 0.0000
# 3 38.7712 59.9415 97.8181 0.0000 11.4753 0.0000
# 4 0.0000 0.0000 0.0000 18.4552 0.0000 -0.3080
# 5 -9.2593 -1.9522 11.4753 0.0000 37.7012 0.0000
# 6 0.0000 0.0000 0.0000 -0.3080 0.0000 15.1980
#
#
#
# Elastic Compliance Matrix: (Units=1/GPa)
#
#
# Indices 1 2 3 4 5 6 
#
# 1 0.014497 -0.003168 -0.004359 0.000000 0.004723 0.000000
# 2 -0.003168 0.007800 -0.003609 0.000000 0.000724 0.000000
# 3 -0.004359 -0.003609 0.014840 0.000000 -0.005774 0.000000
# 4 0.000000 0.000000 0.000000 0.054204 0.000000 0.001098
# 5 0.004723 0.000724 -0.005774 0.000000 0.029479 0.000000
# 6 0.000000 0.000000 0.000000 0.001098 0.000000 0.065820
#
#
# Mechanical properties :
#
#
# Convention : Reuss Voigt Hill
#
# Bulk Modulus (GPa) = 67.27139 76.33561 71.80350
# Shear Modulus (GPa) = 23.37909 28.74741 26.06325
#
# Velocity S-wave (km/s) = 3.40104 3.77135 3.59097
# Velocity P-wave (km/s) = 6.97897 7.53206 7.26078
#
# Compressibility (1/GPa) = 0.01486516
#
# Stress axis : x y z
#
# Youngs Moduli (GPa) = 68.97933 128.21080 67.38631
#
# Poissons Ratio (x) = 0.40611 0.29375
# Poissons Ratio (y) = 0.21849 0.24320
# Poissons Ratio (z) = 0.30069 0.46271
#
# Static dielectric constant tensor:
#      x y z
#    x 1.986760 0.000000 -0.153170 
#    y 0.000000 1.752080 0.000000 
#    z -0.153170 0.000000 1.855860 
# 
# From -- ./inp_files/161069.got.cif
#   From: 2010.05.17/outbox.cif.g08.bks.cpg/sg15_81_cif.got.tgz:161069.got - 2010.06.03 18:47:42.
