data_PCOD9283513
_publ_section_title
;
Structure prediction by ZEFSAII (Michael W. Deem and Ramdas Pophale) SiO2 
 PCOD9283513
Probable space group: C 2/C
;
_chemical_formula_sum "Si O2"
_cell_formula_units_Z 48
_cell_length_a 15.269585
_cell_length_b 8.922827
_cell_length_c 27.669557
_cell_angle_alpha 90.000000
_cell_angle_beta 38.167433
_cell_angle_gamma 90.000000
_cell_volume 2329.664656
_symmetry_space_group_name_H-M "C 2/C"
_symmetry_group_IT_number 15
_symmetry_cell_setting 'monoclinic'
loop_
_space_group_symop_operation_xyz
x,y,z
-x,y,1/2-z
-x,-y,-z
x,-y,1/2+z
1/2+x,1/2+y,z
1/2-x,1/2+y,1/2-z
1/2-x,1/2-y,-z
1/2+x,1/2-y,1/2+z
loop_
_atom_site_type_symbol
_atom_site_label
_atom_site_fract_x
_atom_site_fract_y
_atom_site_fract_z
Si Si1 0.753972 0.771274 0.577479
Si Si2 0.177429 0.649191 0.294434
Si Si3 0.553693 0.380736 0.085334
Si Si4 0.901413 0.434605 0.084979
Si Si5 0.039102 0.538750 0.678688
Si Si6 0.002104 0.218225 0.377048
O O1 0.661962 0.678851 0.578799
O O2 0.897327 0.815233 0.487335
O O3 0.784324 0.670327 0.610585
O O4 0.668325 0.922365 0.624805
O O5 0.164723 0.558331 0.350399
O O6 0.087881 0.550290 0.294377
O O7 0.336131 0.682541 0.209316
O O8 0.096324 0.807197 0.336228
O O9 0.561092 0.558347 0.082877
O O10 0.994134 0.327244 0.078830
O O11 0.000000 0.500000 0.000000
O O12 0.069731 0.686953 0.634441
O O13 0.000000 0.578617 0.750000
#
# Coordination Sequence:
#
# PCOD9283513 Si02
#       6
#     8   8   8   8   8   8
#     4  10  22  40  63  87 126 161 203 252 316 371
#     4  10  21  42  66  88 126 162 209 261 315 376
#     4  10  21  40  62  90 122 164 201 256 312 365
#     4  11  22  42  64  94 122 163 207 259 314 372
#     4  10  22  40  60  88 125 165 206 258 312 372
#     4  11  24  39  62  94 125 163 213 255 307 373
#
# _framework density 20.603823999999999
#
# number of rings (size 3 to 8) (size 9 to 14) (size 15 to 20)
#    0.000    1.667    1.667    3.000    2.333    4.000 
#    3.000    0.833    0.000    0.000    0.000    0.000 
#    0.000    0.000    0.000    0.000    0.000    0.000 
#
# Total GULP energy -134168.233841 kJ/mol
# GULP energy per Si atom -5590.343077 kJ/mol
# Density = 2.055693 g / cm^3
# Si number density = 20.603824 Si / 1000 Ang^3
#
#
#
# Elastic Constant Matrix: (Units=GPa)
#
#
# Indices 1 2 3 4 5 6 
#
# 1 69.0623 27.0699 23.2890 0.0000 30.8542 0.0001
# 2 27.0699 123.1912 19.8244 -0.0001 19.5504 0.0002
# 3 23.2890 19.8244 58.8055 0.0000 16.6474 0.0000
# 4 0.0000 -0.0001 0.0000 18.0928 0.0000 8.4708
# 5 30.8542 19.5504 16.6474 0.0000 35.5765 0.0000
# 6 0.0001 0.0002 0.0000 8.4708 0.0000 32.1320
#
#
#
# Elastic Compliance Matrix: (Units=1/GPa)
#
#
# Indices 1 2 3 4 5 6 
#
# 1 0.024908 -0.001867 -0.003931 0.000000 -0.018736 0.000000
# 2 -0.001867 0.009213 -0.001604 0.000000 -0.002693 0.000000
# 3 -0.003931 -0.001604 0.020620 0.000000 -0.005358 0.000000
# 4 0.000000 0.000000 0.000000 0.063053 0.000000 -0.016622
# 5 -0.018736 -0.002693 -0.005358 0.000000 0.048345 0.000000
# 6 0.000000 0.000000 0.000000 -0.016622 0.000000 0.035504
#
#
# Mechanical properties :
#
#
# Convention : Reuss Voigt Hill
#
# Bulk Modulus (GPa) = 25.03999 43.49174 34.26586
# Shear Modulus (GPa) = 21.76205 29.21864 25.49035
#
# Velocity S-wave (km/s) = 3.25347 3.76988 3.52115
# Velocity P-wave (km/s) = 5.12766 6.33275 5.76180
#
# Compressibility (1/GPa) = 0.03993613
#
# Stress axis : x y z
#
# Youngs Moduli (GPa) = 40.14844 108.53902 48.49774
#
# Poissons Ratio (x) = 0.20267 0.19063
# Poissons Ratio (y) = 0.07497 0.07780
# Poissons Ratio (z) = 0.15781 0.17411
#
# Static dielectric constant tensor:
#      x y z
#    x 1.718830 0.000000 -0.009930 
#    y 0.000000 1.734450 0.000000 
#    z -0.009930 0.000000 1.753820 
# 
# From -- ./inp_files/295444.got.cif
#   From: 2010.05.17/outbox.cif.g08.bks.cpg/sg15_148_cif.got.tgz:295444.got - 2010.06.03 18:47:42.
