data_PCOD9283025
_publ_section_title
;
Structure prediction by ZEFSAII (Michael W. Deem and Ramdas Pophale) SiO2 
 PCOD9283025
Probable space group: C 2/C
;
_chemical_formula_sum "Si O2"
_cell_formula_units_Z 64
_cell_length_a 16.371046
_cell_length_b 17.973487
_cell_length_c 19.294589
_cell_angle_alpha 90.000000
_cell_angle_beta 29.185554
_cell_angle_gamma 90.000000
_cell_volume 2768.491712
_symmetry_space_group_name_H-M "C 2/C"
_symmetry_group_IT_number 15
_symmetry_cell_setting 'monoclinic'
loop_
_space_group_symop_operation_xyz
x,y,z
-x,y,1/2-z
-x,-y,-z
x,-y,1/2+z
1/2+x,1/2+y,z
1/2-x,1/2+y,1/2-z
1/2-x,1/2-y,-z
1/2+x,1/2-y,1/2+z
loop_
_atom_site_type_symbol
_atom_site_label
_atom_site_fract_x
_atom_site_fract_y
_atom_site_fract_z
Si Si1 0.852427 0.186225 0.670612
Si Si2 0.338054 0.859602 0.671254
Si Si3 0.664780 0.075303 0.583385
Si Si4 0.179554 0.794941 0.151886
Si Si5 0.177414 0.066904 0.577322
Si Si6 0.677622 0.875101 0.660123
Si Si7 0.034039 0.322895 0.063870
Si Si8 0.047451 0.148831 0.040478
O O1 0.896530 0.273909 0.640756
O O2 0.844845 0.166647 0.756234
O O3 0.955311 0.137882 0.540484
O O4 0.664449 0.181036 0.781031
O O5 0.348905 0.896831 0.739375
O O6 0.433630 0.873723 0.528457
O O7 0.142515 0.861871 0.794867
O O8 0.500000 0.055322 0.750000
O O9 0.617630 0.143539 0.569250
O O10 0.818308 0.099804 0.518794
O O11 0.720947 0.008717 0.491400
O O12 0.264470 0.857699 0.042323
O O13 0.244748 0.711146 0.110165
O O14 0.000000 0.783745 0.250000
O O15 0.190134 0.079591 0.484762
O O16 0.000000 0.060602 0.750000
O O17 0.500000 0.879786 0.750000
O O18 0.091195 0.237021 0.013439
#
# Coordination Sequence:
#
# PCOD9283025 Si02
#       8
#     8   8   8   8   8   8   8   8
#     4   9  18  37  62  95 129 155 202 261 312 366
#     4   9  21  35  63 100 130 151 197 263 317 369
#     4  12  25  45  64  85 124 174 214 255 310 367
#     4   9  20  38  68  96 124 161 202 252 313 372
#     4  11  26  42  61  92 127 168 211 259 300 368
#     4  10  21  42  69  97 127 162 201 249 316 377
#     4  10  21  40  64  97 125 158 209 259 313 367
#     4  10  21  39  66  95 125 162 204 263 312 365
#
# _framework density 23.117280999999998
#
# number of rings (size 3 to 8) (size 9 to 14) (size 15 to 20)
#    0.000    2.000    1.250    1.125    7.000    0.000 
#    0.000    3.125    0.000    0.000    0.000    0.000 
#    0.000    0.000    0.000    0.000    0.000    0.000 
#
# Total GULP energy -178551.168996 kJ/mol
# GULP energy per Si atom -5579.724031 kJ/mol
# Density = 2.306466 g / cm^3
# Si number density = 23.117281 Si / 1000 Ang^3
#
#
#
# Elastic Constant Matrix: (Units=GPa)
#
#
# Indices 1 2 3 4 5 6 
#
# 1 86.8450 9.8946 5.6343 0.0001 -4.5680 -0.0003
# 2 9.8946 50.7261 9.5407 0.0062 -4.2687 -0.0033
# 3 5.6343 9.5407 112.6818 0.0084 -2.6448 -0.0082
# 4 0.0001 0.0062 0.0084 23.4557 -0.0058 8.2599
# 5 -4.5680 -4.2687 -2.6448 -0.0058 34.6885 0.0006
# 6 -0.0003 -0.0033 -0.0082 8.2599 0.0006 9.6352
#
#
#
# Elastic Compliance Matrix: (Units=1/GPa)
#
#
# Indices 1 2 3 4 5 6 
#
# 1 0.011849 -0.002133 -0.000382 0.000002 0.001269 -0.000002
# 2 -0.002133 0.020608 -0.001588 -0.000009 0.002134 0.000013
# 3 -0.000382 -0.001588 0.009039 -0.000007 0.000443 0.000014
# 4 0.000002 -0.000009 -0.000007 0.061070 0.000010 -0.052353
# 5 0.001269 0.002134 0.000443 0.000010 0.029292 -0.000009
# 6 -0.000002 0.000013 0.000014 -0.052353 -0.000009 0.148667
#
#
# Mechanical properties :
#
#
# Convention : Reuss Voigt Hill
#
# Bulk Modulus (GPa) = 30.03912 33.37691 31.70802
# Shear Modulus (GPa) = 16.67628 28.56808 22.62218
#
# Velocity S-wave (km/s) = 2.68876 3.51919 3.13163
# Velocity P-wave (km/s) = 4.76043 5.56618 5.17900
#
# Compressibility (1/GPa) = 0.03328992
#
# Stress axis : x y z
#
# Youngs Moduli (GPa) = 84.39331 48.52480 110.63746
#
# Poissons Ratio (x) = 0.10349 0.04228
# Poissons Ratio (y) = 0.17998 0.17571
# Poissons Ratio (z) = 0.03225 0.07706
#
# Static dielectric constant tensor:
#      x y z
#    x 1.896900 0.000000 0.017460 
#    y 0.000000 1.870000 0.000010 
#    z 0.017460 0.000010 1.863060 
# 
# From -- ./inp_files/206428.got.cif
#   From: 2010.05.17/outbox.cif.g08.bks.cpg/sg15_104_cif.got.tgz:206428.got - 2010.06.03 18:47:42.
