data_PCOD9283878
_publ_section_title
;
Structure prediction by ZEFSAII (Michael W. Deem and Ramdas Pophale) SiO2 
 PCOD9283878
Probable space group: C 2/C
;
_chemical_formula_sum "Si O2"
_cell_formula_units_Z 64
_cell_length_a 15.666878
_cell_length_b 11.546503
_cell_length_c 18.861630
_cell_angle_alpha 90.000000
_cell_angle_beta 76.428252
_cell_angle_gamma 90.000000
_cell_volume 3316.750067
_symmetry_space_group_name_H-M "C 2/C"
_symmetry_group_IT_number 15
_symmetry_cell_setting 'monoclinic'
loop_
_space_group_symop_operation_xyz
x,y,z
-x,y,1/2-z
-x,-y,-z
x,-y,1/2+z
1/2+x,1/2+y,z
1/2-x,1/2+y,1/2-z
1/2-x,1/2-y,-z
1/2+x,1/2-y,1/2+z
loop_
_atom_site_type_symbol
_atom_site_label
_atom_site_fract_x
_atom_site_fract_y
_atom_site_fract_z
Si Si1 0.710153 0.362351 0.663254
Si Si2 0.283228 0.449850 0.988613
Si Si3 0.414817 0.057057 0.935643
Si Si4 0.171154 0.192274 0.472306
Si Si5 0.651194 0.668471 0.895711
Si Si6 0.979277 0.769091 0.831570
Si Si7 0.345181 0.588659 0.169974
Si Si8 0.498018 0.167771 0.447957
O O1 0.740041 0.437500 0.589594
O O2 0.769191 0.246952 0.648343
O O3 0.610276 0.339117 0.659686
O O4 0.705112 0.407387 0.744865
O O5 0.189984 0.453372 0.047546
O O6 0.338805 0.565509 0.990825
O O7 0.334562 0.348919 0.021552
O O8 0.457845 0.159890 0.883506
O O9 0.455332 0.932577 0.908851
O O10 0.440676 0.095437 0.010148
O O11 0.250000 0.250000 0.500000
O O12 0.194543 0.166890 0.385774
O O13 0.083118 0.267627 0.497689
O O14 0.649834 0.542359 0.860062
O O15 0.561000 0.737256 0.901188
O O16 0.000000 0.721789 0.750000
O O17 0.058470 0.853484 0.838434
#
# Coordination Sequence:
#
# PCOD9283878 Si02
#       8
#     8   8   8   8   8   8   8   8
#     4  11  22  41  65  93 123 166 208 260 315 370
#     4  11  22  37  68  91 123 162 210 260 308 370
#     4  11  20  40  63  94 122 157 214 255 307 378
#     4  11  23  40  61  91 127 166 206 258 314 371
#     4  11  23  41  63  97 124 160 211 263 309 372
#     4  10  21  40  65  90 125 166 208 260 314 375
#     4  10  25  41  63  92 129 166 209 253 321 381
#     4  11  23  37  64  90 125 157 205 263 307 365
#
# _framework density 19.295998000000001
#
# number of rings (size 3 to 8) (size 9 to 14) (size 15 to 20)
#    0.000    1.250    5.000    1.125    1.750    2.000 
#    4.500    0.000    2.750    0.000    0.000    0.000 
#    0.000    0.000    0.000    0.000    0.000    0.000 
#
# Total GULP energy -178385.584041 kJ/mol
# GULP energy per Si atom -5574.549501 kJ/mol
# Density = 1.925208 g / cm^3
# Si number density = 19.295998 Si / 1000 Ang^3
#
#
#
# Elastic Constant Matrix: (Units=GPa)
#
#
# Indices 1 2 3 4 5 6 
#
# 1 66.7337 18.7650 22.8000 0.0000 -1.9944 0.0000
# 2 18.7650 71.6767 26.1120 0.0000 9.6768 0.0000
# 3 22.8000 26.1120 96.7360 0.0000 14.3840 0.0000
# 4 0.0000 0.0000 0.0000 20.6203 0.0000 -4.3647
# 5 -1.9944 9.6768 14.3840 0.0000 20.3838 0.0000
# 6 0.0000 0.0000 0.0000 -4.3647 0.0000 26.5346
#
#
#
# Elastic Compliance Matrix: (Units=1/GPa)
#
#
# Indices 1 2 3 4 5 6 
#
# 1 0.017698 -0.004036 -0.004049 0.000000 0.006505 0.000000
# 2 -0.004036 0.016847 -0.002624 0.000000 -0.006542 0.000000
# 3 -0.004049 -0.002624 0.013265 0.000000 -0.008512 0.000000
# 4 0.000000 0.000000 0.000000 0.050245 0.000000 0.008265
# 5 0.006505 -0.006542 -0.008512 0.000000 0.058807 0.000000
# 6 0.000000 0.000000 0.000000 0.008265 0.000000 0.039046
#
#
# Mechanical properties :
#
#
# Convention : Reuss Voigt Hill
#
# Bulk Modulus (GPa) = 37.88941 41.16671 39.52806
# Shear Modulus (GPa) = 22.11174 24.67235 23.39205
#
# Velocity S-wave (km/s) = 3.38882 3.57967 3.48555
# Velocity P-wave (km/s) = 5.91529 6.20210 6.06039
#
# Compressibility (1/GPa) = 0.02639260
#
# Stress axis : x y z
#
# Youngs Moduli (GPa) = 56.50450 59.35705 75.38353
#
# Poissons Ratio (x) = 0.23959 0.30522
# Poissons Ratio (y) = 0.22808 0.19777
# Poissons Ratio (z) = 0.22878 0.15572
#
# Static dielectric constant tensor:
#      x y z
#    x 1.690310 0.000000 0.003920 
#    y 0.000000 1.701890 0.000000 
#    z 0.003920 0.000000 1.767110 
# 
# From -- ./inp_files/243700.got.cif
#   From: 2010.05.17/outbox.cif.g08.bks.cpg/sg15_122_cif.got.tgz:243700.got - 2010.06.03 18:47:42.
