data_PCOD9283753
_publ_section_title
;
Structure prediction by ZEFSAII (Michael W. Deem and Ramdas Pophale) SiO2 
 PCOD9283753
Probable space group: C 2/C
;
_chemical_formula_sum "Si O2"
_cell_formula_units_Z 52
_cell_length_a 11.543717
_cell_length_b 8.694042
_cell_length_c 24.616639
_cell_angle_alpha 90.000000
_cell_angle_beta 108.969653
_cell_angle_gamma 90.000000
_cell_volume 2336.390134
_symmetry_space_group_name_H-M "C 2/C"
_symmetry_group_IT_number 15
_symmetry_cell_setting 'monoclinic'
loop_
_space_group_symop_operation_xyz
x,y,z
-x,y,1/2-z
-x,-y,-z
x,-y,1/2+z
1/2+x,1/2+y,z
1/2-x,1/2+y,1/2-z
1/2-x,1/2-y,-z
1/2+x,1/2-y,1/2+z
loop_
_atom_site_type_symbol
_atom_site_label
_atom_site_fract_x
_atom_site_fract_y
_atom_site_fract_z
Si Si1 0.850858 0.017346 0.531086
Si Si2 0.990263 0.054498 0.842438
Si Si3 0.963874 0.754243 0.974543
Si Si4 0.771357 0.524893 0.715522
Si Si5 0.686603 0.631640 0.310151
Si Si6 0.000000 0.696452 0.250000
Si Si7 0.873404 0.453875 0.930710
O O1 0.859542 0.134127 0.482293
O O2 0.924332 0.088566 0.593357
O O3 0.717573 0.976224 0.531843
O O4 0.927750 0.864556 0.528822
O O5 0.853327 0.006224 0.838399
O O6 0.980086 0.197748 0.799887
O O7 0.061877 0.921644 0.820171
O O8 0.919386 0.626576 0.925101
O O9 0.018344 0.653829 0.032439
O O10 0.722739 0.487939 0.768633
O O11 0.817704 0.698059 0.714579
O O12 0.880974 0.407793 0.721546
O O13 0.793991 0.619948 0.371163
#
# Coordination Sequence:
#
# PCOD9283753 Si02
#       7
#     8   8   8   8   8   4   8
#     4  10  22  39  67  91 123 162 209 249 314 366
#     4  11  23  44  62  94 129 165 205 263 306 383
#     4  10  21  40  64  91 124 163 201 260 309 364
#     4  12  24  42  64  91 128 165 210 263 309 384
#     4  11  23  42  66  90 129 169 210 258 320 367
#     4  12  26  40  64  92 126 170 210 258 318 366
#     4  10  22  41  61  93 125 159 206 258 309 370
#
# _framework density 22.256557999999998
#
# number of rings (size 3 to 8) (size 9 to 14) (size 15 to 20)
#    0.000    1.231    3.077    1.846    2.154    3.692 
#    2.769    1.538    0.000    0.000    0.000    0.000 
#    0.000    0.000    0.000    0.000    0.000    0.000 
#
# Total GULP energy -145423.879508 kJ/mol
# GULP energy per Si atom -5593.226135 kJ/mol
# Density = 2.220590 g / cm^3
# Si number density = 22.256558 Si / 1000 Ang^3
#
#
#
# Elastic Constant Matrix: (Units=GPa)
#
#
# Indices 1 2 3 4 5 6 
#
# 1 75.5706 22.3084 -3.0427 0.0000 5.3326 0.0000
# 2 22.3084 129.6963 24.8369 0.0000 -8.0278 0.0000
# 3 -3.0427 24.8369 42.7351 0.0000 5.8442 0.0000
# 4 0.0000 0.0000 0.0000 14.2980 0.0000 -0.7738
# 5 5.3326 -8.0278 5.8442 0.0000 16.4751 0.0000
# 6 0.0000 0.0000 0.0000 -0.7738 0.0000 34.3087
#
#
#
# Elastic Compliance Matrix: (Units=1/GPa)
#
#
# Indices 1 2 3 4 5 6 
#
# 1 0.015204 -0.004019 0.004581 0.000000 -0.008504 0.000000
# 2 -0.004019 0.010414 -0.007578 0.000000 0.009063 0.000000
# 3 0.004581 -0.007578 0.030308 0.000000 -0.015926 0.000000
# 4 0.000000 0.000000 0.000000 0.070025 0.000000 0.001579
# 5 -0.008504 0.009063 -0.015926 0.000000 0.073516 0.000000
# 6 0.000000 0.000000 0.000000 0.001579 0.000000 0.029183
#
#
# Mechanical properties :
#
#
# Convention : Reuss Voigt Hill
#
# Bulk Modulus (GPa) = 23.86944 37.35635 30.61289
# Shear Modulus (GPa) = 19.48214 26.60964 23.04589
#
# Velocity S-wave (km/s) = 2.96183 3.46148 3.22136
# Velocity P-wave (km/s) = 4.73757 5.72683 5.25553
#
# Compressibility (1/GPa) = 0.04189458
#
# Stress axis : x y z
#
# Youngs Moduli (GPa) = 65.77405 96.02732 32.99433
#
# Poissons Ratio (x) = 0.38591 -0.15115
# Poissons Ratio (y) = 0.26433 0.25002
# Poissons Ratio (z) = -0.30132 0.72768
#
# Static dielectric constant tensor:
#      x y z
#    x 1.817330 0.000000 0.005910 
#    y 0.000000 1.828470 0.000000 
#    z 0.005910 0.000000 1.824680 
# 
# From -- ./inp_files/291268.got.cif
#   From: 2010.05.17/outbox.cif.g08.bks.cpg/sg15_146_cif.got.tgz:291268.got - 2010.06.03 18:47:42.
