data_PCOD9283047
_publ_section_title
;
Structure prediction by ZEFSAII (Michael W. Deem and Ramdas Pophale) SiO2 
 PCOD9283047
Probable space group: C 2/C
;
_chemical_formula_sum "Si O2"
_cell_formula_units_Z 64
_cell_length_a 16.752091
_cell_length_b 15.130974
_cell_length_c 21.190549
_cell_angle_alpha 90.000000
_cell_angle_beta 36.491706
_cell_angle_gamma 90.000000
_cell_volume 3194.337066
_symmetry_space_group_name_H-M "C 2/C"
_symmetry_group_IT_number 15
_symmetry_cell_setting 'monoclinic'
loop_
_space_group_symop_operation_xyz
x,y,z
-x,y,1/2-z
-x,-y,-z
x,-y,1/2+z
1/2+x,1/2+y,z
1/2-x,1/2+y,1/2-z
1/2-x,1/2-y,-z
1/2+x,1/2-y,1/2+z
loop_
_atom_site_type_symbol
_atom_site_label
_atom_site_fract_x
_atom_site_fract_y
_atom_site_fract_z
Si Si1 0.029836 0.252401 0.605731
Si Si2 0.591805 0.912549 0.941263
Si Si3 0.210176 0.369867 0.727752
Si Si4 0.349459 0.557256 0.362998
Si Si5 0.784061 0.165485 0.523635
Si Si6 0.342752 0.995097 0.849955
Si Si7 0.010683 0.224873 0.476294
Si Si8 0.270442 0.618767 0.960584
O O1 0.140894 0.327780 0.519673
O O2 0.111392 0.184697 0.596308
O O3 0.903822 0.298326 0.719348
O O4 0.991054 0.207398 0.563740
O O5 0.657000 0.897534 0.830678
O O6 0.721149 0.909637 0.905184
O O7 0.497280 0.831101 0.021704
O O8 0.500000 0.000000 0.000000
O O9 0.213155 0.454175 0.679622
O O10 0.352744 0.320594 0.634068
O O11 0.500000 0.580978 0.250000
O O12 0.342697 0.596133 0.437008
O O13 0.326323 0.452573 0.376957
O O14 0.750000 0.250000 0.500000
O O15 0.889108 0.192360 0.510222
O O16 0.676507 0.100414 0.626096
O O17 0.500000 0.977192 0.750000
O O18 0.278370 0.935544 0.946557
#
# Coordination Sequence:
#
# PCOD9283047 Si02
#       8
#     8   8   8   8   8   8   8   8
#     4  10  21  39  66  96 137 167 215 269 334 399
#     4  11  25  45  67  97 137 174 226 285 336 402
#     4  11  23  42  68  98 131 175 222 275 338 406
#     4  11  23  43  65  94 130 174 228 272 339 400
#     4  11  25  46  68  91 132 175 223 284 325 388
#     4  11  23  43  69  99 128 175 228 266 334 411
#     4  11  23  44  64  97 133 173 225 276 337 399
#     4  10  21  40  65  97 136 173 207 279 331 399
#
# _framework density 20.035457000000001
#
# number of rings (size 3 to 8) (size 9 to 14) (size 15 to 20)
#    0.000    1.250    3.750    2.250    1.750    3.000 
#   11.250    0.000    0.000    0.000    0.000    0.000 
#    0.000    0.000    0.000    0.000    0.000    0.000 
#
# Total GULP energy -178391.635257 kJ/mol
# GULP energy per Si atom -5574.738602 kJ/mol
# Density = 1.998986 g / cm^3
# Si number density = 20.035457 Si / 1000 Ang^3
#
#
#
# Elastic Constant Matrix: (Units=GPa)
#
#
# Indices 1 2 3 4 5 6 
#
# 1 87.6656 15.1892 1.8028 0.0001 -2.7402 0.0000
# 2 15.1892 73.2173 14.4120 0.0001 0.6667 0.0000
# 3 1.8028 14.4120 54.2420 0.0000 0.6974 0.0001
# 4 0.0001 0.0001 0.0000 19.1740 0.0000 11.7262
# 5 -2.7402 0.6667 0.6974 0.0000 25.2154 0.0000
# 6 0.0000 0.0000 0.0001 11.7262 0.0000 14.2917
#
#
#
# Elastic Compliance Matrix: (Units=1/GPa)
#
#
# Indices 1 2 3 4 5 6 
#
# 1 0.011882 -0.002528 0.000259 0.000000 0.001351 0.000000
# 2 -0.002528 0.014952 -0.003881 0.000000 -0.000563 0.000000
# 3 0.000259 -0.003881 0.019464 0.000000 -0.000407 0.000000
# 4 0.000000 0.000000 0.000000 0.104682 0.000000 -0.085891
# 5 0.001351 -0.000563 -0.000407 0.000000 0.039831 0.000000
# 6 0.000000 0.000000 0.000000 -0.085891 0.000000 0.140444
#
#
# Mechanical properties :
#
#
# Convention : Reuss Voigt Hill
#
# Bulk Modulus (GPa) = 29.41441 30.88144 30.14792
# Shear Modulus (GPa) = 14.08899 23.98426 19.03663
#
# Velocity S-wave (km/s) = 2.65467 3.46365 3.08579
# Velocity P-wave (km/s) = 4.91014 5.60738 5.27030
#
# Compressibility (1/GPa) = 0.03399695
#
# Stress axis : x y z
#
# Youngs Moduli (GPa) = 84.16135 66.88243 51.37747
#
# Poissons Ratio (x) = 0.16910 -0.01333
# Poissons Ratio (y) = 0.21279 0.19941
# Poissons Ratio (z) = -0.02184 0.25959
#
# Static dielectric constant tensor:
#      x y z
#    x 1.715110 0.000000 0.007150 
#    y 0.000000 1.820460 0.000000 
#    z 0.007150 0.000000 1.682720 
# 
# From -- ./inp_files/277640.got.cif
#   From: 2010.05.17/outbox.cif.g08.bks.cpg/sg15_139_cif.got.tgz:277640.got - 2010.06.03 18:47:42.
