data_PCOD9283478
_publ_section_title
;
Structure prediction by ZEFSAII (Michael W. Deem and Ramdas Pophale) SiO2 
 PCOD9283478
Probable space group: C 2/C
;
_chemical_formula_sum "Si O2"
_cell_formula_units_Z 40
_cell_length_a 14.297431
_cell_length_b 12.534374
_cell_length_c 14.979745
_cell_angle_alpha 90.000000
_cell_angle_beta 37.009925
_cell_angle_gamma 90.000000
_cell_volume 1615.950002
_symmetry_space_group_name_H-M "C 2/C"
_symmetry_group_IT_number 15
_symmetry_cell_setting 'monoclinic'
loop_
_space_group_symop_operation_xyz
x,y,z
-x,y,1/2-z
-x,-y,-z
x,-y,1/2+z
1/2+x,1/2+y,z
1/2-x,1/2+y,1/2-z
1/2-x,1/2-y,-z
1/2+x,1/2-y,1/2+z
loop_
_atom_site_type_symbol
_atom_site_label
_atom_site_fract_x
_atom_site_fract_y
_atom_site_fract_z
Si Si1 0.401195 0.327838 0.621396
Si Si2 0.701698 0.990595 0.241440
Si Si3 0.042526 0.650476 0.119117
Si Si4 0.255604 0.785155 0.392595
Si Si5 0.304361 0.658714 0.812875
O O1 0.335600 0.425130 0.613433
O O2 0.321455 0.309415 0.779581
O O3 0.581992 0.316763 0.496704
O O4 0.341197 0.226582 0.613161
O O5 0.552486 0.066610 0.370258
O O6 0.660205 0.894382 0.205187
O O7 0.786991 0.943363 0.264544
O O8 0.953459 0.766453 0.187306
O O9 0.000000 0.610724 0.250000
O O10 0.229220 0.640602 0.966736
O O11 0.250000 0.750000 0.500000
#
# Coordination Sequence:
#
# PCOD9283478 Si02
#       5
#     8   8   8   8   8
#     4  10  21  40  62  87 120 164 204 243 301 370
#     4  10  22  38  64  88 118 162 205 242 298 369
#     4  11  23  39  61  91 121 154 199 254 300 346
#     4  11  23  39  61  92 125 156 201 261 306 349
#     4  10  21  40  62  86 120 162 201 242 297 364
#
# _framework density 24.753243000000001
#
# number of rings (size 3 to 8) (size 9 to 14) (size 15 to 20)
#    0.000    1.600    0.000    6.000    0.000    8.000 
#    0.000    2.000    0.000    0.000    0.000    0.000 
#    0.000    0.000    0.000    0.000    0.000    0.000 
#
# Total GULP energy -111455.411108 kJ/mol
# GULP energy per Si atom -5572.770555 kJ/mol
# Density = 2.469690 g / cm^3
# Si number density = 24.753243 Si / 1000 Ang^3
#
#
#
# Elastic Constant Matrix: (Units=GPa)
#
#
# Indices 1 2 3 4 5 6 
#
# 1 53.9965 15.4410 6.3232 0.0000 -5.2788 0.0000
# 2 15.4410 117.7288 10.8708 0.0000 -2.0645 0.0000
# 3 6.3232 10.8708 111.5731 0.0001 5.8632 0.0000
# 4 0.0000 0.0000 0.0001 19.1378 0.0000 -1.5328
# 5 -5.2788 -2.0645 5.8632 0.0000 37.6487 0.0000
# 6 0.0000 0.0000 0.0000 -1.5328 0.0000 35.7132
#
#
#
# Elastic Compliance Matrix: (Units=1/GPa)
#
#
# Indices 1 2 3 4 5 6 
#
# 1 0.019605 -0.002428 -0.001020 0.000000 0.002775 0.000000
# 2 -0.002428 0.008886 -0.000742 0.000000 0.000262 0.000000
# 3 -0.001020 -0.000742 0.009178 0.000000 -0.001613 0.000000
# 4 0.000000 0.000000 0.000000 0.052433 0.000000 0.002250
# 5 0.002775 0.000262 -0.001613 0.000000 0.027216 0.000000
# 6 0.000000 0.000000 0.000000 0.002250 0.000000 0.028097
#
#
# Mechanical properties :
#
#
# Convention : Reuss Voigt Hill
#
# Bulk Modulus (GPa) = 34.14492 38.72984 36.43738
# Shear Modulus (GPa) = 30.57019 35.21084 32.89051
#
# Velocity S-wave (km/s) = 3.51807 3.77566 3.64914
# Velocity P-wave (km/s) = 5.50695 5.88964 5.70150
#
# Compressibility (1/GPa) = 0.02928693
#
# Stress axis : x y z
#
# Youngs Moduli (GPa) = 51.00770 112.54019 108.96094
#
# Poissons Ratio (x) = 0.27330 0.11117
# Poissons Ratio (y) = 0.12387 0.08084
# Poissons Ratio (z) = 0.05204 0.08349
#
# Static dielectric constant tensor:
#      x y z
#    x 2.437740 0.000000 0.908380 
#    y 0.000000 1.942440 0.000000 
#    z 0.908380 0.000000 3.759680 
# 
# From -- ./inp_files/210764.got.cif
#   From: 2010.05.17/outbox.cif.g08.bks.cpg/sg15_106_cif.got.tgz:210764.got - 2010.06.03 18:47:42.
