data_PCOD9283216
_publ_section_title
;
Structure prediction by ZEFSAII (Michael W. Deem and Ramdas Pophale) SiO2 
 PCOD9283216
Probable space group: C 2/C
;
_chemical_formula_sum "Si O2"
_cell_formula_units_Z 32
_cell_length_a 12.456265
_cell_length_b 7.590532
_cell_length_c 13.983796
_cell_angle_alpha 90.000000
_cell_angle_beta 63.015640
_cell_angle_gamma 90.000000
_cell_volume 1178.220030
_symmetry_space_group_name_H-M "C 2/C"
_symmetry_group_IT_number 15
_symmetry_cell_setting 'monoclinic'
loop_
_space_group_symop_operation_xyz
x,y,z
-x,y,1/2-z
-x,-y,-z
x,-y,1/2+z
1/2+x,1/2+y,z
1/2-x,1/2+y,1/2-z
1/2-x,1/2-y,-z
1/2+x,1/2-y,1/2+z
loop_
_atom_site_type_symbol
_atom_site_label
_atom_site_fract_x
_atom_site_fract_y
_atom_site_fract_z
Si Si1 0.842630 0.062264 0.364306
Si Si2 0.616187 0.063150 0.595793
Si Si3 0.476107 0.723636 0.932551
Si Si4 0.318102 0.545589 0.149320
O O1 0.718445 0.063698 0.472670
O O2 0.914448 0.236873 0.368343
O O3 0.819814 0.069975 0.261328
O O4 0.914843 0.892611 0.372906
O O5 0.517946 0.924586 0.601289
O O6 0.687083 0.985095 0.658565
O O7 0.601799 0.629415 0.903243
O O8 0.386047 0.693744 0.058819
#
# Coordination Sequence:
#
# PCOD9283216 Si02
#       4
#     8   8   8   8
#     4  10  21  40  61  96 131 168 224 276 327 408
#     4  10  23  40  66  95 133 173 221 280 332 403
#     4  10  22  43  61  97 136 166 221 282 324 405
#     4  10  21  39  69  91 130 180 216 271 344 390
#
# _framework density 27.159611000000002
#
# number of rings (size 3 to 8) (size 9 to 14) (size 15 to 20)
#    0.000    2.000    0.000    3.750    7.000    0.000 
#    0.000   27.500    0.000    3.000    0.000    0.000 
#    0.000    0.000    0.000    0.000    0.000    0.000 
#
# Total GULP energy -89874.100320 kJ/mol
# GULP energy per Si atom -5617.131270 kJ/mol
# Density = 2.709779 g / cm^3
# Si number density = 27.159611 Si / 1000 Ang^3
#
#
#
# Elastic Constant Matrix: (Units=GPa)
#
#
# Indices 1 2 3 4 5 6 
#
# 1 62.3967 32.6185 34.8925 0.0000 25.4627 0.0000
# 2 32.6185 164.1065 25.6817 0.0000 21.3206 0.0000
# 3 34.8925 25.6817 205.1789 0.0000 32.6118 0.0000
# 4 0.0000 0.0000 0.0000 -4.4009 0.0000 14.9620
# 5 25.4627 21.3206 32.6118 0.0000 57.9422 0.0000
# 6 0.0000 0.0000 0.0000 14.9620 0.0000 42.6131
#
#
#
# Elastic Compliance Matrix: (Units=1/GPa)
#
#
# Indices 1 2 3 4 5 6 
#
# 1 0.021787 -0.003051 -0.002174 0.000000 -0.007228 0.000000
# 2 -0.003051 0.006868 -0.000167 0.000000 -0.001092 0.000000
# 3 -0.002174 -0.000167 0.005604 0.000000 -0.002137 0.000000
# 4 0.000000 0.000000 0.000000 -0.103581 0.000000 0.036369
# 5 -0.007228 -0.001092 -0.002137 0.000000 0.022040 0.000000
# 6 0.000000 0.000000 0.000000 0.036369 0.000000 0.010697
#
#
# Mechanical properties :
#
#
# Convention : Reuss Voigt Hill
#
# Bulk Modulus (GPa) = 42.60065 68.67417 55.63741
# Shear Modulus (GPa) = -278.16868 41.79684 -118.18592
#
# Velocity S-wave (km/s) = -10.13125 3.92718 -6.60377
# Velocity P-wave (km/s) = 11.00623 6.77525 6.13323
#
# Compressibility (1/GPa) = 0.02347382
#
# Stress axis : x y z
#
# Youngs Moduli (GPa) = 45.89918 145.59983 178.43827
#
# Poissons Ratio (x) = 0.44425 0.38799
# Poissons Ratio (y) = 0.14005 0.02983
# Poissons Ratio (z) = 0.09980 0.02434
#
# Static dielectric constant tensor:
#      x y z
#    x 2.098960 0.000000 -0.007760 
#    y 0.000000 2.083550 0.000000 
#    z -0.007760 0.000000 2.109300 
# 
# From -- ./inp_files/149799.got.cif
#   From: 2010.05.17/outbox.cif.g08.bks.cpg/sg15_75_cif.got.tgz:149799.got - 2010.06.03 18:47:42.
