data_PCOD9283020
_publ_section_title
;
Structure prediction by ZEFSAII (Michael W. Deem and Ramdas Pophale) SiO2 
 PCOD9283020
Probable space group: C 2/C
;
_chemical_formula_sum "Si O2"
_cell_formula_units_Z 52
_cell_length_a 13.753223
_cell_length_b 10.035086
_cell_length_c 21.575808
_cell_angle_alpha 90.000000
_cell_angle_beta 131.854289
_cell_angle_gamma 90.000000
_cell_volume 2217.982120
_symmetry_space_group_name_H-M "C 2/C"
_symmetry_group_IT_number 15
_symmetry_cell_setting 'monoclinic'
loop_
_space_group_symop_operation_xyz
x,y,z
-x,y,1/2-z
-x,-y,-z
x,-y,1/2+z
1/2+x,1/2+y,z
1/2-x,1/2+y,1/2-z
1/2-x,1/2-y,-z
1/2+x,1/2-y,1/2+z
loop_
_atom_site_type_symbol
_atom_site_label
_atom_site_fract_x
_atom_site_fract_y
_atom_site_fract_z
Si Si1 0.948617 0.151028 0.082768
Si Si2 0.526859 0.224764 0.027186
Si Si3 0.392524 0.197637 0.753505
Si Si4 0.885437 0.113475 0.823898
Si Si5 0.231596 0.773754 0.418777
Si Si6 0.000000 0.762596 0.250000
Si Si7 0.770021 0.078141 0.112126
O O1 0.033029 0.266735 0.151414
O O2 0.913109 0.172475 0.996742
O O3 0.821550 0.142353 0.070937
O O4 0.038613 0.021085 0.128295
O O5 0.374221 0.236938 0.950149
O O6 0.551829 0.272380 0.106821
O O7 0.615368 0.094969 0.054770
O O8 0.500000 0.144542 0.750000
O O9 0.266087 0.112629 0.719759
O O10 0.339150 0.335803 0.696760
O O11 0.918920 0.156975 0.768449
O O12 0.250000 0.750000 0.500000
O O13 0.115454 0.689837 0.337808
O O14 0.194095 0.925949 0.386359
#
# Coordination Sequence:
#
# PCOD9283020 Si02
#       7
#     8   8   8   8   8   4   8
#     4  11  20  38  64  95 125 172 220 274 334 402
#     4  11  23  39  61  98 134 164 220 281 335 399
#     4   9  21  39  63  92 129 169 230 275 335 411
#     4  11  22  39  66  94 127 177 224 275 340 404
#     4  12  23  41  64  98 132 173 228 274 333 403
#     4  12  22  40  68  90 130 182 226 270 338 402
#     4  10  21  39  66  94 129 176 217 273 339 404
#
# _framework density 23.444734
#
# number of rings (size 3 to 8) (size 9 to 14) (size 15 to 20)
#    0.000    1.231    3.077    3.231    2.154    0.000 
#    0.000    0.000    6.769    0.000    0.000    0.000 
#    0.000    0.000    0.000    0.000    0.000    0.000 
#
# Total GULP energy -145018.470095 kJ/mol
# GULP energy per Si atom -5577.633465 kJ/mol
# Density = 2.339137 g / cm^3
# Si number density = 23.444734 Si / 1000 Ang^3
#
#
#
# Elastic Constant Matrix: (Units=GPa)
#
#
# Indices 1 2 3 4 5 6 
#
# 1 152.9559 18.3898 60.6253 0.0000 8.8513 0.0000
# 2 18.3898 24.9310 13.7994 0.0000 -9.1791 0.0000
# 3 60.6253 13.7994 107.3482 0.0000 -8.5341 0.0000
# 4 0.0000 0.0000 0.0000 -30.9738 0.0000 -37.8851
# 5 8.8513 -9.1791 -8.5341 0.0000 59.2601 0.0000
# 6 0.0000 0.0000 0.0000 -37.8851 0.0000 -10.4512
#
#
#
# Elastic Compliance Matrix: (Units=1/GPa)
#
#
# Indices 1 2 3 4 5 6 
#
# 1 0.009220 -0.005221 -0.004764 0.000000 -0.002872 0.000000
# 2 -0.005221 0.048325 -0.002636 0.000000 0.007886 0.000000
# 3 -0.004764 -0.002636 0.012512 0.000000 0.002105 0.000000
# 4 0.000000 0.000000 0.000000 0.009402 0.000000 -0.034083
# 5 -0.002872 0.007886 0.002105 0.000000 0.018828 0.000000
# 6 0.000000 0.000000 0.000000 -0.034083 0.000000 0.027865
#
#
# Mechanical properties :
#
#
# Convention : Reuss Voigt Hill
#
# Bulk Modulus (GPa) = 22.31484 52.31824 37.31654
# Shear Modulus (GPa) = 30.05994 16.39507 23.22751
#
# Velocity S-wave (km/s) = 3.58461 2.64731 3.15101
# Velocity P-wave (km/s) = 5.16443 5.63102 5.40276
#
# Compressibility (1/GPa) = 0.04481324
#
# Stress axis : x y z
#
# Youngs Moduli (GPa) = 108.45820 20.69335 79.92110
#
# Poissons Ratio (x) = 0.10805 0.38076
# Poissons Ratio (y) = 0.56631 0.21070
# Poissons Ratio (z) = 0.51672 0.05455
#
# Static dielectric constant tensor:
#      x y z
#    x 1.901890 0.000000 0.057030 
#    y 0.000000 1.935190 0.000000 
#    z 0.057030 0.000000 1.932310 
# 
# From -- ./inp_files/237702.got.cif
#   From: 2010.05.17/outbox.cif.g08.bks.cpg/sg15_119_cif.got.tgz:237702.got - 2010.06.03 18:47:42.
