data_PCOD9283469
_publ_section_title
;
Structure prediction by ZEFSAII (Michael W. Deem and Ramdas Pophale) SiO2 
 PCOD9283469
Probable space group: C 2/C
;
_chemical_formula_sum "Si O2"
_cell_formula_units_Z 56
_cell_length_a 24.274890
_cell_length_b 13.505096
_cell_length_c 8.170381
_cell_angle_alpha 90.000000
_cell_angle_beta 118.961304
_cell_angle_gamma 90.000000
_cell_volume 2343.575608
_symmetry_space_group_name_H-M "C 2/C"
_symmetry_group_IT_number 15
_symmetry_cell_setting 'monoclinic'
loop_
_space_group_symop_operation_xyz
x,y,z
-x,y,1/2-z
-x,-y,-z
x,-y,1/2+z
1/2+x,1/2+y,z
1/2-x,1/2+y,1/2-z
1/2-x,1/2-y,-z
1/2+x,1/2-y,1/2+z
loop_
_atom_site_type_symbol
_atom_site_label
_atom_site_fract_x
_atom_site_fract_y
_atom_site_fract_z
Si Si1 0.375847 0.040877 0.641243
Si Si2 0.931877 0.855200 0.065098
Si Si3 0.820919 0.025070 0.420302
Si Si4 0.241493 0.867685 0.980031
Si Si5 0.895206 0.353151 0.831879
Si Si6 0.316839 0.302445 0.123979
Si Si7 0.527648 0.196775 0.610261
O O1 0.309413 0.083800 0.598901
O O2 0.389803 0.073116 0.477117
O O3 0.429305 0.099951 0.818236
O O4 0.373679 0.923238 0.654473
O O5 0.877778 0.793712 0.086699
O O6 0.000000 0.864990 0.250000
O O7 0.895233 0.959613 0.993152
O O8 0.939275 0.794344 0.909657
O O9 0.806990 0.081528 0.575756
O O10 0.799445 0.914672 0.430154
O O11 0.785754 0.092553 0.233726
O O12 0.250000 0.750000 0.000000
O O13 0.849968 0.261794 0.811833
O O14 0.967074 0.323522 0.912138
O O15 0.250000 0.250000 0.000000
O O16 0.500000 0.215344 0.750000
#
# Coordination Sequence:
#
# PCOD9283469 Si02
#       7
#     8   8   8   8   8   8   8
#     4  11  24  36  60  96 144 189 245 298 375 439
#     4  10  21  44  73 100 139 193 255 305 381 444
#     4  10  26  45  73 106 145 188 253 296 383 437
#     4  12  25  47  71 109 149 196 244 311 375 447
#     4  11  23  39  62  98 145 194 242 306 372 445
#     4  10  21  40  70  99 143 189 252 305 375 441
#     4  10  21  40  62 101 143 195 249 306 371 448
#
# _framework density 23.895111
#
# number of rings (size 3 to 8) (size 9 to 14) (size 15 to 20)
#    0.857    0.571    1.429    3.857    2.000    3.429 
#    0.000    2.143    0.000    2.571    0.000    0.000 
#    0.000    0.000    0.000    0.000    0.000    0.000 
#
# Total GULP energy -156151.360149 kJ/mol
# GULP energy per Si atom -5576.834291 kJ/mol
# Density = 2.384073 g / cm^3
# Si number density = 23.895111 Si / 1000 Ang^3
#
#
#
# Elastic Constant Matrix: (Units=GPa)
#
#
# Indices 1 2 3 4 5 6 
#
# 1 119.5328 47.7078 22.0917 0.0000 24.0203 0.0000
# 2 47.7078 137.3609 37.1996 0.0000 1.4159 0.0000
# 3 22.0917 37.1996 61.4513 0.0000 16.6891 0.0000
# 4 0.0000 0.0000 0.0000 11.2041 0.0000 -5.1853
# 5 24.0203 1.4159 16.6891 0.0000 42.7089 0.0000
# 6 0.0000 0.0000 0.0000 -5.1853 0.0000 41.0970
#
#
#
# Elastic Compliance Matrix: (Units=1/GPa)
#
#
# Indices 1 2 3 4 5 6 
#
# 1 0.011112 -0.003784 -0.000046 0.000000 -0.006106 0.000000
# 2 -0.003784 0.010149 -0.005895 0.000000 0.004095 0.000000
# 3 -0.000046 -0.005895 0.022149 0.000000 -0.008434 0.000000
# 4 0.000000 0.000000 0.000000 0.094788 0.000000 0.011960
# 5 -0.006106 0.004095 -0.008434 0.000000 0.030008 0.000000
# 6 0.000000 0.000000 0.000000 0.011960 0.000000 0.025842
#
#
# Mechanical properties :
#
#
# Convention : Reuss Voigt Hill
#
# Bulk Modulus (GPa) = 41.73816 59.14925 50.44370
# Shear Modulus (GPa) = 22.57503 33.09173 27.83338
#
# Velocity S-wave (km/s) = 3.07702 3.72543 3.41664
# Velocity P-wave (km/s) = 5.48901 6.58122 6.05978
#
# Compressibility (1/GPa) = 0.02395889
#
# Stress axis : x y z
#
# Youngs Moduli (GPa) = 89.99590 98.53495 45.14927
#
# Poissons Ratio (x) = 0.37285 0.00206
# Poissons Ratio (y) = 0.34054 0.26617
# Poissons Ratio (z) = 0.00411 0.58091
#
# Static dielectric constant tensor:
#      x y z
#    x 1.926630 0.000000 -0.077060 
#    y 0.000000 2.120750 0.000000 
#    z -0.077060 0.000000 2.152700 
# 
# From -- ./inp_files/61992.got.cif
#   From: 2010.05.17/outbox.cif.g08.bks.cpg/sg15_31_cif.got.tgz:61992.got - 2010.06.03 18:47:42.
