data_PCOD9283691
_publ_section_title
;
Structure prediction by ZEFSAII (Michael W. Deem and Ramdas Pophale) SiO2 
 PCOD9283691
Probable space group: C 2/C
;
_chemical_formula_sum "Si O2"
_cell_formula_units_Z 56
_cell_length_a 5.972256
_cell_length_b 18.895996
_cell_length_c 29.707019
_cell_angle_alpha 90.000000
_cell_angle_beta 52.046502
_cell_angle_gamma 90.000000
_cell_volume 2643.471171
_symmetry_space_group_name_H-M "C 2/C"
_symmetry_group_IT_number 15
_symmetry_cell_setting 'monoclinic'
loop_
_space_group_symop_operation_xyz
x,y,z
-x,y,1/2-z
-x,-y,-z
x,-y,1/2+z
1/2+x,1/2+y,z
1/2-x,1/2+y,1/2-z
1/2-x,1/2-y,-z
1/2+x,1/2-y,1/2+z
loop_
_atom_site_type_symbol
_atom_site_label
_atom_site_fract_x
_atom_site_fract_y
_atom_site_fract_z
Si Si1 0.601585 0.058421 0.584190
Si Si2 0.600575 0.150826 0.127689
Si Si3 0.915491 0.419304 0.564386
Si Si4 0.169734 0.237162 0.776939
Si Si5 0.226342 0.833548 0.509381
Si Si6 0.294747 0.516561 0.146407
Si Si7 0.972013 0.926331 0.201466
O O1 0.738479 0.123025 0.540868
O O2 0.276876 0.074437 0.638529
O O3 0.616258 0.986292 0.551793
O O4 0.743228 0.040624 0.614027
O O5 0.412112 0.131613 0.107969
O O6 0.512490 0.221097 0.163686
O O7 0.591019 0.083175 0.162207
O O8 0.916340 0.155702 0.068867
O O9 0.950721 0.371317 0.515849
O O10 0.610044 0.454929 0.599344
O O11 0.500000 0.256452 0.750000
O O12 0.000000 0.253031 0.750000
O O13 0.149832 0.152663 0.783801
O O14 0.250000 0.750000 0.500000
O O15 0.288441 0.480659 0.195318
O O16 0.000000 0.948475 0.250000
#
# Coordination Sequence:
#
# PCOD9283691 Si02
#       7
#     8   8   8   8   8   8   8
#     4  10  21  40  63  96 129 173 219 278 346 403
#     4  10  23  44  63  98 133 177 226 282 345 415
#     4   9  21  40  61  90 133 172 220 271 346 398
#     4  11  27  46  71  97 137 187 229 282 355 420
#     4  11  23  37  65  96 131 171 225 279 340 413
#     4   9  21  40  66  95 130 172 222 283 341 404
#     4  10  23  42  66  97 130 174 226 283 341 410
#
# _framework density 21.184269
#
# number of rings (size 3 to 8) (size 9 to 14) (size 15 to 20)
#    0.000    2.000    0.000    1.286    8.000    9.143 
#    7.714    0.000    0.000    0.000    0.000    0.000 
#    0.000    0.000    0.000    0.000    0.000    0.000 
#
# Total GULP energy -156228.866593 kJ/mol
# GULP energy per Si atom -5579.602378 kJ/mol
# Density = 2.113605 g / cm^3
# Si number density = 21.184269 Si / 1000 Ang^3
#
#
#
# Elastic Constant Matrix: (Units=GPa)
#
#
# Indices 1 2 3 4 5 6 
#
# 1 96.7729 19.7993 38.2011 -0.0001 9.8950 0.0000
# 2 19.7993 62.4765 38.4886 0.0000 14.2217 -0.0001
# 3 38.2011 38.4886 80.7717 -0.0002 -6.4785 0.0001
# 4 -0.0001 0.0000 -0.0002 60.5877 0.0001 -7.9416
# 5 9.8950 14.2217 -6.4785 0.0001 23.8094 -0.0002
# 6 0.0000 -0.0001 0.0001 -7.9416 -0.0002 3.7633
#
#
#
# Elastic Compliance Matrix: (Units=1/GPa)
#
#
# Indices 1 2 3 4 5 6 
#
# 1 0.014403 0.003701 -0.009439 0.000000 -0.010764 0.000000
# 2 0.003701 0.032928 -0.019568 0.000000 -0.026531 -0.000001
# 3 -0.009439 -0.019568 0.028033 0.000000 0.023239 0.000000
# 4 0.000000 0.000000 0.000000 0.022816 0.000000 0.048148
# 5 -0.010764 -0.026531 0.023239 0.000000 0.068644 0.000003
# 6 0.000000 -0.000001 0.000000 0.048148 0.000003 0.367329
#
#
# Mechanical properties :
#
#
# Convention : Reuss Voigt Hill
#
# Bulk Modulus (GPa) = 40.40317 48.11102 44.25709
# Shear Modulus (GPa) = 8.43147 27.20088 17.81618
#
# Velocity S-wave (km/s) = 1.99717 3.58720 2.90316
# Velocity P-wave (km/s) = 4.94287 6.31802 5.67227
#
# Compressibility (1/GPa) = 0.02475053
#
# Stress axis : x y z
#
# Youngs Moduli (GPa) = 69.43059 30.36962 35.67218
#
# Poissons Ratio (x) = -0.11238 0.33669
# Poissons Ratio (y) = -0.25693 0.69805
# Poissons Ratio (z) = 0.65533 0.59429
#
# Static dielectric constant tensor:
#      x y z
#    x 1.853100 0.000000 -0.011880 
#    y 0.000000 1.750060 0.000000 
#    z -0.011880 0.000000 1.760370 
# 
# From -- ./inp_files/305744.got.cif
#   From: 2010.05.17/outbox.cif.g08.bks.cpg/sg15_153_cif.got.tgz:305744.got - 2010.06.03 18:47:42.
