data_PCOD9283693
_publ_section_title
;
Structure prediction by ZEFSAII (Michael W. Deem and Ramdas Pophale) SiO2 
 PCOD9283693
Probable space group: C 2/C
;
_chemical_formula_sum "Si O2"
_cell_formula_units_Z 60
_cell_length_a 24.888154
_cell_length_b 9.031100
_cell_length_c 21.698216
_cell_angle_alpha 90.000000
_cell_angle_beta 142.903454
_cell_angle_gamma 90.000000
_cell_volume 2941.642078
_symmetry_space_group_name_H-M "C 2/C"
_symmetry_group_IT_number 15
_symmetry_cell_setting 'monoclinic'
loop_
_space_group_symop_operation_xyz
x,y,z
-x,y,1/2-z
-x,-y,-z
x,-y,1/2+z
1/2+x,1/2+y,z
1/2-x,1/2+y,1/2-z
1/2-x,1/2-y,-z
1/2+x,1/2-y,1/2+z
loop_
_atom_site_type_symbol
_atom_site_label
_atom_site_fract_x
_atom_site_fract_y
_atom_site_fract_z
Si Si1 0.610992 0.354224 0.183217
Si Si2 0.511807 0.206011 0.874778
Si Si3 0.141320 0.803222 0.678805
Si Si4 0.474622 0.543722 0.656003
Si Si5 0.655422 0.779900 0.943686
Si Si6 0.000000 0.477306 0.750000
Si Si7 0.845209 0.670842 0.390382
Si Si8 0.687011 0.153090 0.606763
O O1 0.619393 0.524782 0.169589
O O2 0.536881 0.358728 0.167995
O O3 0.599833 0.248020 0.114329
O O4 0.707836 0.313946 0.298573
O O5 0.428430 0.208042 0.845708
O O6 0.516768 0.372010 0.852105
O O7 0.498532 0.084956 0.808803
O O8 0.600934 0.190769 0.997256
O O9 0.243178 0.769936 0.793895
O O10 0.138528 0.775963 0.603123
O O11 0.500000 0.559578 0.750000
O O12 0.378875 0.618550 0.566224
O O13 0.586002 0.870231 0.837454
O O14 0.750000 0.750000 0.000000
O O15 0.659558 0.867820 0.011697
O O16 0.831969 0.495435 0.371920
#
# Coordination Sequence:
#
# PCOD9283693 Si02
#       8
#     8   8   8   8   8   4   8   8
#     4   9  21  40  65  92 131 171 222 277 326 405
#     4  11  24  43  69  96 133 177 224 280 341 393
#     4   9  22  40  62  97 131 167 223 278 329 404
#     4  11  23  42  65  91 130 176 222 267 336 398
#     4  12  27  45  67  98 133 179 224 277 338 402
#     4  12  26  50  66 102 136 170 236 280 324 418
#     4  10  21  40  63  96 131 175 220 277 340 392
#     4  10  21  41  63  93 132 170 221 269 342 396
#
# _framework density 20.396771999999999
#
# number of rings (size 3 to 8) (size 9 to 14) (size 15 to 20)
#    0.000    1.600    2.667    0.800    3.733    3.733 
#    4.800    1.333    0.000    0.000    0.000    0.000 
#    0.000    0.000    0.000    0.000    0.000    0.000 
#
# Total GULP energy -167388.047196 kJ/mol
# GULP energy per Si atom -5579.601573 kJ/mol
# Density = 2.035035 g / cm^3
# Si number density = 20.396772 Si / 1000 Ang^3
#
#
#
# Elastic Constant Matrix: (Units=GPa)
#
#
# Indices 1 2 3 4 5 6 
#
# 1 154.8134 46.8714 60.1252 0.0000 6.3552 0.0000
# 2 46.8714 51.8285 31.3420 0.0000 1.3310 0.0000
# 3 60.1252 31.3420 101.3317 0.0000 -13.2890 0.0000
# 4 0.0000 0.0000 0.0000 36.9844 0.0000 -20.0092
# 5 6.3552 1.3310 -13.2890 0.0000 32.5378 0.0000
# 6 0.0000 0.0000 0.0000 -20.0092 0.0000 60.7809
#
#
#
# Elastic Compliance Matrix: (Units=1/GPa)
#
#
# Indices 1 2 3 4 5 6 
#
# 1 0.010369 -0.006487 -0.004625 0.000000 -0.003649 0.000000
# 2 -0.006487 0.028346 -0.005182 0.000000 -0.002009 0.000000
# 3 -0.004625 -0.005182 0.015174 0.000000 0.007313 0.000000
# 4 0.000000 0.000000 0.000000 0.032898 0.000000 0.010830
# 5 -0.003649 -0.002009 0.007313 0.000000 0.034515 0.000000
# 6 0.000000 0.000000 0.000000 0.010830 0.000000 0.020018
#
#
# Mechanical properties :
#
#
# Convention : Reuss Voigt Hill
#
# Bulk Modulus (GPa) = 46.94247 64.96121 55.95184
# Shear Modulus (GPa) = 27.62302 37.36962 32.49632
#
# Velocity S-wave (km/s) = 3.68405 4.28499 3.99583
# Velocity P-wave (km/s) = 6.41568 7.50995 6.98428
#
# Compressibility (1/GPa) = 0.02130267
#
# Stress axis : x y z
#
# Youngs Moduli (GPa) = 96.43824 35.27801 65.90065
#
# Poissons Ratio (x) = 0.22886 0.30477
# Poissons Ratio (y) = 0.62562 0.34148
# Poissons Ratio (z) = 0.44599 0.18280
#
# Static dielectric constant tensor:
#      x y z
#    x 1.727660 0.000000 -0.037300 
#    y 0.000000 1.745230 0.000000 
#    z -0.037300 0.000000 1.846920 
# 
# From -- ./inp_files/255193.got.cif
#   From: 2010.05.17/outbox.cif.g08.bks.cpg/sg15_128_cif.got.tgz:255193.got - 2010.06.03 18:47:42.
