data_PCOD9283785
_publ_section_title
;
Structure prediction by ZEFSAII (Michael W. Deem and Ramdas Pophale) SiO2 
 PCOD9283785
Probable space group: C 2/C
;
_chemical_formula_sum "Si O2"
_cell_formula_units_Z 56
_cell_length_a 17.066222
_cell_length_b 9.083918
_cell_length_c 24.764742
_cell_angle_alpha 90.000000
_cell_angle_beta 47.475254
_cell_angle_gamma 90.000000
_cell_volume 2829.458549
_symmetry_space_group_name_H-M "C 2/C"
_symmetry_group_IT_number 15
_symmetry_cell_setting 'monoclinic'
loop_
_space_group_symop_operation_xyz
x,y,z
-x,y,1/2-z
-x,-y,-z
x,-y,1/2+z
1/2+x,1/2+y,z
1/2-x,1/2+y,1/2-z
1/2-x,1/2-y,-z
1/2+x,1/2-y,1/2+z
loop_
_atom_site_type_symbol
_atom_site_label
_atom_site_fract_x
_atom_site_fract_y
_atom_site_fract_z
Si Si1 0.104923 0.076690 0.925612
Si Si2 0.601957 0.326216 0.601344
Si Si3 0.000000 0.297028 0.250000
Si Si4 0.000000 0.221431 0.750000
Si Si5 0.329637 0.032413 0.354320
Si Si6 0.343319 0.870798 0.965820
Si Si7 0.157494 0.344920 0.973978
Si Si8 0.000666 0.879010 0.131440
O O1 0.121569 0.243607 0.940613
O O2 0.090855 0.080079 0.867714
O O3 0.208160 0.982721 0.894055
O O4 0.000000 0.000000 0.000000
O O5 0.517212 0.294054 0.687571
O O6 0.718744 0.308981 0.572295
O O7 0.590964 0.222901 0.554766
O O8 0.588146 0.492194 0.587238
O O9 0.897839 0.403045 0.295285
O O10 0.104578 0.320865 0.690721
O O11 0.976815 0.135456 0.705800
O O12 0.336045 0.025812 0.416291
O O13 0.449379 0.774004 0.912063
O O14 0.250000 0.750000 0.000000
O O15 0.345644 0.977551 0.016957
#
# Coordination Sequence:
#
# PCOD9283785 Si02
#       8
#     8   8   4   4   8   8   8   8
#     4  12  23  41  65  98 135 166 212 288 347 385
#     4  11  20  37  64  94 124 170 227 272 315 409
#     4  11  19  36  68  92 122 174 228 272 322 396
#     4   9  23  44  64  86 128 174 222 252 324 414
#     4  10  21  40  64  93 125 174 215 265 336 399
#     4  11  20  38  68  92 126 177 222 277 325 404
#     4  11  21  38  63  96 128 171 228 270 328 406
#     4  11  23  40  63  94 127 169 216 278 335 394
#
# _framework density 19.791771000000001
#
# number of rings (size 3 to 8) (size 9 to 14) (size 15 to 20)
#    0.000    1.143    5.714    2.143    0.000    0.571 
#    2.571    0.000    0.000    0.000    0.000    0.000 
#    0.000    0.000    0.000    0.000    0.000    0.000 
#
# Total GULP energy -156139.306329 kJ/mol
# GULP energy per Si atom -5576.403797 kJ/mol
# Density = 1.974672 g / cm^3
# Si number density = 19.791771 Si / 1000 Ang^3
#
#
#
# Elastic Constant Matrix: (Units=GPa)
#
#
# Indices 1 2 3 4 5 6 
#
# 1 106.7234 25.9178 27.6740 0.0000 2.5623 0.0001
# 2 25.9178 88.0052 20.2952 0.0000 5.1991 0.0002
# 3 27.6740 20.2952 76.1942 0.0000 1.9188 0.0000
# 4 0.0000 0.0000 0.0000 33.7707 0.0000 -0.7615
# 5 2.5623 5.1991 1.9188 0.0000 34.4670 0.0000
# 6 0.0001 0.0002 0.0000 -0.7615 0.0000 29.9744
#
#
#
# Elastic Compliance Matrix: (Units=1/GPa)
#
#
# Indices 1 2 3 4 5 6 
#
# 1 0.010812 -0.002413 -0.003278 0.000000 -0.000257 0.000000
# 2 -0.002413 0.012740 -0.002476 0.000000 -0.001604 0.000000
# 3 -0.003278 -0.002476 0.014980 0.000000 -0.000217 0.000000
# 4 0.000000 0.000000 0.000000 0.029628 0.000000 0.000753
# 5 -0.000257 -0.001604 -0.000217 0.000000 0.029286 0.000000
# 6 0.000000 0.000000 0.000000 0.000753 0.000000 0.033381
#
#
# Mechanical properties :
#
#
# Convention : Reuss Voigt Hill
#
# Bulk Modulus (GPa) = 45.05125 46.52185 45.78655
# Shear Modulus (GPa) = 32.34965 32.77814 32.56389
#
# Velocity S-wave (km/s) = 4.04728 4.07400 4.06066
# Velocity P-wave (km/s) = 6.68227 6.75919 6.72084
#
# Compressibility (1/GPa) = 0.02219694
#
# Stress axis : x y z
#
# Youngs Moduli (GPa) = 92.48839 78.49586 66.75593
#
# Poissons Ratio (x) = 0.18942 0.21881
# Poissons Ratio (y) = 0.22319 0.16532
# Poissons Ratio (z) = 0.30316 0.19439
#
# Static dielectric constant tensor:
#      x y z
#    x 1.665630 0.000000 0.008420 
#    y 0.000000 1.778110 0.000000 
#    z 0.008420 0.000000 1.723430 
# 
# From -- ./inp_files/276655.got.cif
#   From: 2010.05.17/outbox.cif.g08.bks.cpg/sg15_139_cif.got.tgz:276655.got - 2010.06.03 18:47:42.
