data_PCOD9283863
_publ_section_title
;
Structure prediction by ZEFSAII (Michael W. Deem and Ramdas Pophale) SiO2 
 PCOD9283863
Probable space group: C 2/C
;
_chemical_formula_sum "Si O2"
_cell_formula_units_Z 40
_cell_length_a 11.812052
_cell_length_b 22.121197
_cell_length_c 8.185411
_cell_angle_alpha 90.000000
_cell_angle_beta 121.646034
_cell_angle_gamma 90.000000
_cell_volume 1820.790539
_symmetry_space_group_name_H-M "C 2/C"
_symmetry_group_IT_number 15
_symmetry_cell_setting 'monoclinic'
loop_
_space_group_symop_operation_xyz
x,y,z
-x,y,1/2-z
-x,-y,-z
x,-y,1/2+z
1/2+x,1/2+y,z
1/2-x,1/2+y,1/2-z
1/2-x,1/2-y,-z
1/2+x,1/2-y,1/2+z
loop_
_atom_site_type_symbol
_atom_site_label
_atom_site_fract_x
_atom_site_fract_y
_atom_site_fract_z
Si Si1 0.562686 0.275207 0.966404
Si Si2 0.850447 0.582085 0.066583
Si Si3 0.649372 0.041500 0.806296
Si Si4 0.707196 0.164837 0.021691
Si Si5 0.318396 0.307930 0.967728
O O1 0.500000 0.298778 0.750000
O O2 0.711584 0.301522 0.063175
O O3 0.474466 0.295029 0.051718
O O4 0.572127 0.202730 0.952365
O O5 0.791317 0.525154 0.123706
O O6 0.743002 0.635401 0.985660
O O7 0.000000 0.598787 0.250000
O O8 0.858958 0.560811 0.886712
O O9 0.500000 0.031294 0.750000
O O10 0.700185 0.095966 0.959455
O O11 0.770726 0.176101 0.246944
O O12 0.250000 0.250000 0.000000
#
# Coordination Sequence:
#
# PCOD9283863 Si02
#       5
#     8   8   8   8   8
#     4   9  21  38  59  89 124 167 208 255 311 378
#     4  11  24  41  63  98 127 167 213 269 324 382
#     4  11  22  40  69  92 127 167 218 266 323 380
#     4  10  21  40  65  88 126 166 217 259 314 371
#     4  11  25  38  59  93 133 168 209 261 320 381
#
# _framework density 21.968478000000001
#
# number of rings (size 3 to 8) (size 9 to 14) (size 15 to 20)
#    0.000    1.600    0.000    5.400   14.000    0.000 
#    0.000    1.000    0.000    0.000    0.000    0.000 
#    0.000    0.000    0.000    0.000    0.000    0.000 
#
# Total GULP energy -111452.784719 kJ/mol
# GULP energy per Si atom -5572.639236 kJ/mol
# Density = 2.191848 g / cm^3
# Si number density = 21.968478 Si / 1000 Ang^3
#
#
#
# Elastic Constant Matrix: (Units=GPa)
#
#
# Indices 1 2 3 4 5 6 
#
# 1 117.8583 52.7106 14.4648 0.0000 -25.6845 0.0000
# 2 52.7106 149.9364 11.4825 0.0000 -7.4019 0.0000
# 3 14.4648 11.4825 83.0507 0.0000 -29.0452 0.0000
# 4 0.0000 0.0000 0.0000 -186.1608 0.0000 62.1144
# 5 -25.6845 -7.4019 -29.0452 0.0000 27.7850 0.0000
# 6 0.0000 0.0000 0.0000 62.1144 0.0000 12.8221
#
#
#
# Elastic Compliance Matrix: (Units=1/GPa)
#
#
# Indices 1 2 3 4 5 6 
#
# 1 0.013088 -0.004142 0.003371 0.000000 0.014518 0.000000
# 2 -0.004142 0.008082 -0.001548 0.000000 -0.003295 0.000000
# 3 0.003371 -0.001548 0.019882 0.000000 0.023487 0.000000
# 4 0.000000 0.000000 0.000000 -0.002053 0.000000 0.009946
# 5 0.014518 -0.003295 0.023487 0.000000 0.073086 0.000000
# 6 0.000000 0.000000 0.000000 0.009946 0.000000 0.029809
#
#
# Mechanical properties :
#
#
# Convention : Reuss Voigt Hill
#
# Bulk Modulus (GPa) = 27.46365 56.46234 41.96300
# Shear Modulus (GPa) = 31.51194 -10.96491 10.27351
#
# Velocity S-wave (km/s) = 3.79148 -2.23652 2.16486
# Velocity P-wave (km/s) = 5.62988 4.36897 5.03902
#
# Compressibility (1/GPa) = 0.03641177
#
# Stress axis : x y z
#
# Youngs Moduli (GPa) = 76.40776 123.73649 50.29689
#
# Poissons Ratio (x) = 0.51257 -0.16954
# Poissons Ratio (y) = 0.31651 0.07787
# Poissons Ratio (z) = -0.25755 0.19156
#
# Static dielectric constant tensor:
#      x y z
#    x 1.921850 0.000000 0.109830 
#    y 0.000000 1.949250 0.000000 
#    z 0.109830 0.000000 1.929630 
# 
# From -- ./inp_files/30160.got.cif
#   From: 2010.05.17/outbox.cif.g08.bks.cpg/sg15_16_cif.got.tgz:30160.got - 2010.06.03 18:47:42.
