data_PCOD9283618
_publ_section_title
;
Structure prediction by ZEFSAII (Michael W. Deem and Ramdas Pophale) SiO2 
 PCOD9283618
Probable space group: C 2/C
;
_chemical_formula_sum "Si O2"
_cell_formula_units_Z 56
_cell_length_a 11.249549
_cell_length_b 9.046850
_cell_length_c 29.207020
_cell_angle_alpha 90.000000
_cell_angle_beta 127.685453
_cell_angle_gamma 90.000000
_cell_volume 2352.361944
_symmetry_space_group_name_H-M "C 2/C"
_symmetry_group_IT_number 15
_symmetry_cell_setting 'monoclinic'
loop_
_space_group_symop_operation_xyz
x,y,z
-x,y,1/2-z
-x,-y,-z
x,-y,1/2+z
1/2+x,1/2+y,z
1/2-x,1/2+y,1/2-z
1/2-x,1/2-y,-z
1/2+x,1/2-y,1/2+z
loop_
_atom_site_type_symbol
_atom_site_label
_atom_site_fract_x
_atom_site_fract_y
_atom_site_fract_z
Si Si1 0.130862 0.306967 0.361898
Si Si2 0.042418 0.795277 0.415050
Si Si3 0.949047 0.864402 0.892338
Si Si4 0.667969 0.687784 0.850901
Si Si5 0.045353 0.171055 0.512842
Si Si6 0.759335 0.608716 0.320437
Si Si7 0.950501 0.579547 0.288867
O O1 0.023312 0.198635 0.364573
O O2 0.288074 0.309635 0.427131
O O3 0.158055 0.238780 0.317780
O O4 0.052465 0.465391 0.342037
O O5 0.170018 0.810434 0.406632
O O6 0.065350 0.763890 0.474232
O O7 0.924664 0.669173 0.372901
O O8 0.966724 0.959106 0.396467
O O9 0.778914 0.811789 0.857233
O O10 0.027884 0.786932 0.955590
O O11 0.711576 0.536137 0.837198
O O12 0.501469 0.748562 0.802454
O O13 0.000000 0.000000 0.500000
O O14 0.784545 0.574408 0.272527
O O15 0.000000 0.533864 0.250000
#
# Coordination Sequence:
#
# PCOD9283618 Si02
#       7
#     8   8   8   8   8   8   8
#     4  11  21  41  64  88 131 166 202 258 309 371
#     4   9  20  37  58  86 125 162 201 249 295 361
#     4  11  20  37  64  92 125 169 206 245 310 364
#     4  11  21  39  64  86 123 161 200 257 309 363
#     4   9  19  35  59  92 125 169 210 245 300 364
#     4  10  21  40  63  90 119 158 202 250 317 368
#     4  11  25  43  65  90 117 156 210 260 314 375
#
# _framework density 23.805859000000002
#
# number of rings (size 3 to 8) (size 9 to 14) (size 15 to 20)
#    0.000    1.714    2.857    3.000    0.000    1.714 
#    0.000    7.857    0.000    0.000    0.000    0.000 
#    0.000    0.000    0.000    0.000    0.000    0.000 
#
# Total GULP energy -156093.794580 kJ/mol
# GULP energy per Si atom -5574.778378 kJ/mol
# Density = 2.375168 g / cm^3
# Si number density = 23.805859 Si / 1000 Ang^3
#
#
#
# Elastic Constant Matrix: (Units=GPa)
#
#
# Indices 1 2 3 4 5 6 
#
# 1 156.2143 46.8529 30.2428 0.0000 -50.4677 0.0000
# 2 46.8529 110.9150 13.8423 0.0000 -3.4565 0.0000
# 3 30.2428 13.8423 48.5690 0.0000 -23.2273 0.0000
# 4 0.0000 0.0000 0.0000 14.3917 0.0000 -7.6635
# 5 -50.4677 -3.4565 -23.2273 0.0000 41.4319 0.0000
# 6 0.0000 0.0000 0.0000 -7.6635 0.0000 41.8055
#
#
#
# Elastic Compliance Matrix: (Units=1/GPa)
#
#
# Indices 1 2 3 4 5 6 
#
# 1 0.012804 -0.005042 0.000986 0.000000 0.015729 0.000000
# 2 -0.005042 0.011362 -0.003529 0.000000 -0.007171 0.000000
# 3 0.000986 -0.003529 0.029259 0.000000 0.017310 0.000000
# 4 0.000000 0.000000 0.000000 0.077001 0.000000 0.014115
# 5 0.015729 -0.007171 0.017310 0.000000 0.052401 0.000000
# 6 0.000000 0.000000 0.000000 0.014115 0.000000 0.026508
#
#
# Mechanical properties :
#
#
# Convention : Reuss Voigt Hill
#
# Bulk Modulus (GPa) = 26.13893 55.28603 40.71248
# Shear Modulus (GPa) = 21.07432 34.50984 27.79208
#
# Velocity S-wave (km/s) = 2.97856 3.81154 3.42050
# Velocity P-wave (km/s) = 4.77838 6.53028 5.72178
#
# Compressibility (1/GPa) = 0.03825711
#
# Stress axis : x y z
#
# Youngs Moduli (GPa) = 78.09989 88.00883 34.17750
#
# Poissons Ratio (x) = 0.44371 -0.03370
# Poissons Ratio (y) = 0.39375 0.12060
# Poissons Ratio (z) = -0.07701 0.31055
#
# Static dielectric constant tensor:
#      x y z
#    x 1.965280 0.000000 -0.058800 
#    y 0.000000 1.852230 0.000000 
#    z -0.058800 0.000000 2.093030 
# 
# From -- ./inp_files/310040.got.cif
#   From: 2010.05.17/outbox.cif.g08.bks.cpg/sg15_156_cif.got.tgz:310040.got - 2010.06.03 18:47:42.
