data_PCOD9283076
_publ_section_title
;
Structure prediction by ZEFSAII (Michael W. Deem and Ramdas Pophale) SiO2 
 PCOD9283076
Probable space group: C 2/C
;
_chemical_formula_sum "Si O2"
_cell_formula_units_Z 56
_cell_length_a 7.895999
_cell_length_b 23.741685
_cell_length_c 14.694637
_cell_angle_alpha 90.000000
_cell_angle_beta 123.247638
_cell_angle_gamma 90.000000
_cell_volume 2303.796586
_symmetry_space_group_name_H-M "C 2/C"
_symmetry_group_IT_number 15
_symmetry_cell_setting 'monoclinic'
loop_
_space_group_symop_operation_xyz
x,y,z
-x,y,1/2-z
-x,-y,-z
x,-y,1/2+z
1/2+x,1/2+y,z
1/2-x,1/2+y,1/2-z
1/2-x,1/2-y,-z
1/2+x,1/2-y,1/2+z
loop_
_atom_site_type_symbol
_atom_site_label
_atom_site_fract_x
_atom_site_fract_y
_atom_site_fract_z
Si Si1 0.261180 0.401197 0.399588
Si Si2 0.256248 0.987325 0.690386
Si Si3 0.107778 0.542452 0.599677
Si Si4 0.615287 0.844298 0.016545
Si Si5 0.295006 0.315977 0.246587
Si Si6 0.848500 0.137732 0.407962
Si Si7 0.761016 0.195836 0.199514
O O1 0.349373 0.461495 0.393498
O O2 0.238294 0.365422 0.300068
O O3 0.410843 0.365317 0.506321
O O4 0.062944 0.422434 0.394119
O O5 0.500000 0.989875 0.750000
O O6 0.198945 0.927226 0.633581
O O7 0.244860 0.005728 0.793113
O O8 0.195008 0.593202 0.566486
O O9 0.000000 0.500000 0.500000
O O10 0.756987 0.833489 0.971400
O O11 0.388520 0.838082 0.910961
O O12 0.637395 0.809313 0.116308
O O13 0.500000 0.326557 0.250000
O O14 0.307258 0.260290 0.310991
O O15 0.749734 0.170621 0.296435
O O16 0.000000 0.192942 0.250000
#
# Coordination Sequence:
#
# PCOD9283076 Si02
#       7
#     8   8   8   8   8   8   8
#     4  11  24  44  70 109 148 190 248 303 367 446
#     4  10  21  39  67 102 144 187 234 290 358 433
#     4  11  23  42  70 105 146 196 243 298 367 439
#     4  12  25  46  76 103 149 195 242 306 381 442
#     4  12  27  49  75 107 146 192 252 307 378 451
#     4  12  24  46  73 107 149 189 246 311 372 443
#     4  12  30  48  74 107 141 194 254 314 373 449
#
# _framework density 24.307703
#
# number of rings (size 3 to 8) (size 9 to 14) (size 15 to 20)
#    0.000    0.571    2.857    6.000    4.000    1.714 
#    0.000    2.143    0.000    0.000    0.000    0.000 
#    0.000    0.000    0.000    0.000    0.000    0.000 
#
# Total GULP energy -156397.285005 kJ/mol
# GULP energy per Si atom -5585.617322 kJ/mol
# Density = 2.425238 g / cm^3
# Si number density = 24.307703 Si / 1000 Ang^3
#
#
#
# Elastic Constant Matrix: (Units=GPa)
#
#
# Indices 1 2 3 4 5 6 
#
# 1 77.6711 -12.1435 21.1067 0.0000 4.8178 0.0000
# 2 -12.1435 63.6115 -5.9915 0.0000 0.1465 0.0000
# 3 21.1067 -5.9915 118.0335 0.0000 8.8344 0.0000
# 4 0.0000 0.0000 0.0000 -57.8541 0.0000 2.5676
# 5 4.8178 0.1465 8.8344 0.0000 31.5041 0.0000
# 6 0.0000 0.0000 0.0000 2.5676 0.0000 22.7317
#
#
#
# Elastic Compliance Matrix: (Units=1/GPa)
#
#
# Indices 1 2 3 4 5 6 
#
# 1 0.013967 0.002457 -0.002260 0.000000 -0.001514 0.000000
# 2 0.002457 0.016231 0.000427 0.000000 -0.000571 0.000000
# 3 -0.002260 0.000427 0.009062 0.000000 -0.002198 0.000000
# 4 0.000000 0.000000 0.000000 -0.017199 0.000000 0.001943
# 5 -0.001514 -0.000571 -0.002198 0.000000 0.032592 0.000000
# 6 0.000000 0.000000 0.000000 0.001943 0.000000 0.043772
#
#
# Mechanical properties :
#
#
# Convention : Reuss Voigt Hill
#
# Bulk Modulus (GPa) = 24.68546 29.47328 27.07937
# Shear Modulus (GPa) = 45.17536 16.36596 30.77066
#
# Velocity S-wave (km/s) = 4.31569 2.59758 3.56178
# Velocity P-wave (km/s) = 5.91701 4.59870 5.29901
#
# Compressibility (1/GPa) = 0.04050968
#
# Stress axis : x y z
#
# Youngs Moduli (GPa) = 71.59812 61.61042 110.34607
#
# Poissons Ratio (x) = -0.15137 0.24933
# Poissons Ratio (y) = -0.17591 -0.04715
# Poissons Ratio (z) = 0.16178 -0.02633
#
# Static dielectric constant tensor:
#      x y z
#    x 2.060040 0.000000 -0.044430 
#    y 0.000000 -1.368660 0.000000 
#    z -0.044430 0.000000 1.988800 
# 
# From -- ./inp_files/137985.got.cif
#   From: 2010.05.17/outbox.cif.g08.bks.cpg/sg15_69_cif.got.tgz:137985.got - 2010.06.03 18:47:42.
