data_PCOD9283073
_publ_section_title
;
Structure prediction by ZEFSAII (Michael W. Deem and Ramdas Pophale) SiO2 
 PCOD9283073
Probable space group: C 2/C
;
_chemical_formula_sum "Si O2"
_cell_formula_units_Z 56
_cell_length_a 18.117799
_cell_length_b 7.192792
_cell_length_c 23.759284
_cell_angle_alpha 90.000000
_cell_angle_beta 50.094090
_cell_angle_gamma 90.000000
_cell_volume 2375.131692
_symmetry_space_group_name_H-M "C 2/C"
_symmetry_group_IT_number 15
_symmetry_cell_setting 'monoclinic'
loop_
_space_group_symop_operation_xyz
x,y,z
-x,y,1/2-z
-x,-y,-z
x,-y,1/2+z
1/2+x,1/2+y,z
1/2-x,1/2+y,1/2-z
1/2-x,1/2-y,-z
1/2+x,1/2-y,1/2+z
loop_
_atom_site_type_symbol
_atom_site_label
_atom_site_fract_x
_atom_site_fract_y
_atom_site_fract_z
Si Si1 0.306051 0.914695 0.623964
Si Si2 0.921663 0.405853 0.670385
Si Si3 0.048284 0.902928 0.671400
Si Si4 0.123611 0.485928 0.121551
Si Si5 0.737318 0.995851 0.166830
Si Si6 0.363621 0.471981 0.702869
Si Si7 0.252576 0.441407 0.463984
O O1 0.399828 0.953379 0.616088
O O2 0.288442 0.694069 0.620759
O O3 0.214964 0.951836 0.709614
O O4 0.299038 0.032139 0.570754
O O5 0.849328 0.523919 0.745399
O O6 0.887215 0.191597 0.689984
O O7 0.029096 0.420669 0.641644
O O8 0.088676 0.702210 0.668802
O O9 0.000000 0.994604 0.750000
O O10 0.137095 0.010027 0.601683
O O11 0.963599 0.875993 0.668322
O O12 0.185478 0.590561 0.139115
O O13 0.193430 0.431294 0.036583
O O14 0.817482 0.092705 0.166540
O O15 0.250000 0.250000 0.500000
#
# Coordination Sequence:
#
# PCOD9283073 Si02
#       7
#     8   8   8   8   8   8   8
#     4  10  21  43  64  92 138 180 217 279 336 393
#     4  10  22  37  69 101 130 171 235 275 326 396
#     4  12  23  44  73  96 132 180 229 276 329 400
#     4  12  24  42  66 100 134 177 219 272 348 405
#     4  10  21  40  66  97 134 176 225 278 330 398
#     4  10  21  39  67 101 129 171 230 284 324 386
#     4  12  27  44  66  99 142 179 218 278 348 403
#
# _framework density 23.577641
#
# number of rings (size 3 to 8) (size 9 to 14) (size 15 to 20)
#    0.000    1.143    2.857    3.429    2.000    2.857 
#    0.000    0.714    0.000    0.000    0.000    0.000 
#    0.000    0.000    0.000    0.000    0.000    0.000 
#
# Total GULP energy -156507.633434 kJ/mol
# GULP energy per Si atom -5589.558337 kJ/mol
# Density = 2.352398 g / cm^3
# Si number density = 23.577641 Si / 1000 Ang^3
#
#
#
# Elastic Constant Matrix: (Units=GPa)
#
#
# Indices 1 2 3 4 5 6 
#
# 1 225.1286 -5.8497 47.9100 0.0001 21.9226 0.0019
# 2 -5.8497 37.6721 -1.8548 0.0000 -0.4613 0.0020
# 3 47.9100 -1.8548 100.3022 -0.0001 8.9433 0.0002
# 4 0.0001 0.0000 -0.0001 29.9063 -0.0001 0.1629
# 5 21.9226 -0.4613 8.9433 -0.0001 40.7106 0.0001
# 6 0.0019 0.0020 0.0002 0.1629 0.0001 27.2684
#
#
#
# Elastic Compliance Matrix: (Units=1/GPa)
#
#
# Indices 1 2 3 4 5 6 
#
# 1 0.005159 0.000663 -0.002249 0.000000 -0.002277 0.000000
# 2 0.000663 0.026656 0.000185 0.000000 -0.000095 -0.000002
# 3 -0.002249 0.000185 0.011158 0.000000 -0.001238 0.000000
# 4 0.000000 0.000000 0.000000 0.033439 0.000000 -0.000200
# 5 -0.002277 -0.000095 -0.001238 0.000000 0.026061 0.000000
# 6 0.000000 -0.000002 0.000000 -0.000200 0.000000 0.036674
#
#
# Mechanical properties :
#
#
# Convention : Reuss Voigt Hill
#
# Bulk Modulus (GPa) = 24.89436 49.27932 37.08684
# Shear Modulus (GPa) = 32.18754 41.10354 36.64554
#
# Velocity S-wave (km/s) = 3.69883 4.17985 3.94667
# Velocity P-wave (km/s) = 5.36872 6.65140 6.04418
#
# Compressibility (1/GPa) = 0.04016974
#
# Stress axis : x y z
#
# Youngs Moduli (GPa) = 193.81788 37.51552 89.62169
#
# Poissons Ratio (x) = -0.02486 0.20158
# Poissons Ratio (y) = -0.12841 -0.01658
# Poissons Ratio (z) = 0.43594 -0.00694
#
# Static dielectric constant tensor:
#      x y z
#    x 1.922960 0.000000 0.018870 
#    y 0.000000 1.982200 0.000000 
#    z 0.018870 0.000000 1.852890 
# 
# From -- ./inp_files/276502.got.cif
#   From: 2010.05.17/outbox.cif.g08.bks.cpg/sg15_139_cif.got.tgz:276502.got - 2010.06.03 18:47:42.
