data_PCOD9283522
_publ_section_title
;
Structure prediction by ZEFSAII (Michael W. Deem and Ramdas Pophale) SiO2 
 PCOD9283522
Probable space group: C 2/C
;
_chemical_formula_sum "Si O2"
_cell_formula_units_Z 32
_cell_length_a 22.483019
_cell_length_b 11.146449
_cell_length_c 14.141666
_cell_angle_alpha 90.000000
_cell_angle_beta 159.111157
_cell_angle_gamma 90.000000
_cell_volume 1263.628990
_symmetry_space_group_name_H-M "C 2/C"
_symmetry_group_IT_number 15
_symmetry_cell_setting 'monoclinic'
loop_
_space_group_symop_operation_xyz
x,y,z
-x,y,1/2-z
-x,-y,-z
x,-y,1/2+z
1/2+x,1/2+y,z
1/2-x,1/2+y,1/2-z
1/2-x,1/2-y,-z
1/2+x,1/2-y,1/2+z
loop_
_atom_site_type_symbol
_atom_site_label
_atom_site_fract_x
_atom_site_fract_y
_atom_site_fract_z
Si Si1 0.181157 0.655125 0.530752
Si Si2 0.171347 0.443880 0.217683
Si Si3 0.037380 0.804978 0.561889
Si Si4 0.105538 0.975193 0.296841
O O1 0.175502 0.565415 0.610955
O O2 0.343995 0.737233 0.787329
O O3 0.227363 0.580868 0.505722
O O4 0.000000 0.712051 0.250000
O O5 0.333427 0.503458 0.505894
O O6 0.000000 0.500000 0.000000
O O7 0.160240 0.304705 0.234257
O O8 0.074711 0.896563 0.701499
O O9 0.025036 0.884125 0.447455
#
# Coordination Sequence:
#
# PCOD9283522 Si02
#       4
#     8   8   8   8
#     4  10  21  40  62  91 125 167 209 259 323 378
#     4  12  22  37  68  90 123 173 205 255 334 370
#     4   9  22  43  60  93 131 159 217 270 303 386
#     4   9  21  44  61  87 135 156 215 272 303 381
#
# _framework density 25.323889000000001
#
# number of rings (size 3 to 8) (size 9 to 14) (size 15 to 20)
#    1.500    0.500    2.500    0.750    0.000    7.000 
#    0.000    0.000    0.000    0.000    0.000    0.000 
#    0.000    0.000    0.000    0.000    0.000    0.000 
#
# Total GULP energy -89350.360364 kJ/mol
# GULP energy per Si atom -5584.397523 kJ/mol
# Density = 2.526625 g / cm^3
# Si number density = 25.323889 Si / 1000 Ang^3
#
#
#
# Elastic Constant Matrix: (Units=GPa)
#
#
# Indices 1 2 3 4 5 6 
#
# 1 42.1879 -14.8573 -18.7198 0.0000 -39.4627 0.0000
# 2 -14.8573 69.1402 -2.1795 0.0000 -10.6591 0.0000
# 3 -18.7198 -2.1795 98.6955 0.0000 -8.1123 0.0000
# 4 0.0000 0.0000 0.0000 35.4898 0.0000 -3.1741
# 5 -39.4627 -10.6591 -8.1123 0.0000 51.9881 0.0000
# 6 0.0000 0.0000 0.0000 -3.1741 0.0000 47.2743
#
#
#
# Elastic Compliance Matrix: (Units=1/GPa)
#
#
# Indices 1 2 3 4 5 6 
#
# 1 -0.371597 -0.133109 -0.100133 0.000000 -0.324985 0.000000
# 2 -0.133109 -0.032712 -0.035278 0.000000 -0.113251 0.000000
# 3 -0.100133 -0.035278 -0.016695 0.000000 -0.085846 0.000000
# 4 0.000000 0.000000 0.000000 0.028347 0.000000 0.001903
# 5 -0.324985 -0.113251 -0.085846 0.000000 -0.264067 0.000000
# 6 0.000000 0.000000 0.000000 0.001903 0.000000 0.021281
#
#
# Mechanical properties :
#
#
# Convention : Reuss Voigt Hill
#
# Bulk Modulus (GPa) = -1.04379 15.39006 7.17313
# Shear Modulus (GPa) = -11.96887 43.33580 15.68347
#
# Velocity S-wave (km/s) = -2.17637 4.14123 2.49130
# Velocity P-wave (km/s) = 2.59394 5.38116 3.33379
#
# Compressibility (1/GPa) = -0.95804528
#
# Stress axis : x y z
#
# Youngs Moduli (GPa) = -2.69109 -30.57014 -59.89674
#
# Poissons Ratio (x) = -4.06917 -5.99764
# Poissons Ratio (y) = -0.35821 -2.11305
# Poissons Ratio (z) = -0.26947 -1.07846
#
# Static dielectric constant tensor:
#      x y z
#    x 2.031440 0.000000 0.050510 
#    y 0.000000 1.971300 0.000000 
#    z 0.050510 0.000000 1.993170 
# 
# From -- ./inp_files/84185.got.cif
#   From: 2010.05.17/outbox.cif.g08.bks.cpg/sg15_43_cif.got.tgz:84185.got - 2010.06.03 18:47:42.
