data_PCOD9283702
_publ_section_title
;
Structure prediction by ZEFSAII (Michael W. Deem and Ramdas Pophale) SiO2 
 PCOD9283702
Probable space group: C 2/C
;
_chemical_formula_sum "Si O2"
_cell_formula_units_Z 44
_cell_length_a 24.836827
_cell_length_b 5.725885
_cell_length_c 26.839432
_cell_angle_alpha 90.000000
_cell_angle_beta 29.626091
_cell_angle_gamma 90.000000
_cell_volume 1886.843326
_symmetry_space_group_name_H-M "C 2/C"
_symmetry_group_IT_number 15
_symmetry_cell_setting 'monoclinic'
loop_
_space_group_symop_operation_xyz
x,y,z
-x,y,1/2-z
-x,-y,-z
x,-y,1/2+z
1/2+x,1/2+y,z
1/2-x,1/2+y,1/2-z
1/2-x,1/2-y,-z
1/2+x,1/2-y,1/2+z
loop_
_atom_site_type_symbol
_atom_site_label
_atom_site_fract_x
_atom_site_fract_y
_atom_site_fract_z
Si Si1 0.000000 0.164401 0.750000
Si Si2 0.023982 0.535749 0.130193
Si Si3 0.118285 0.191626 0.305544
Si Si4 0.672493 0.953118 0.356394
Si Si5 0.994495 0.199249 0.552861
Si Si6 0.736447 0.497918 0.539754
O O1 0.995169 0.329633 0.802886
O O2 0.887096 0.017112 0.840524
O O3 0.985294 0.684494 0.114386
O O4 0.950676 0.305126 0.182875
O O5 0.152350 0.492699 0.017790
O O6 0.183371 0.363887 0.290734
O O7 0.212516 0.018087 0.213123
O O8 0.035483 0.063413 0.409911
O O9 0.612962 0.759687 0.437272
O O10 0.590820 0.171683 0.414962
O O11 0.750000 0.750000 0.500000
O O12 0.750000 0.250000 0.500000
#
# Coordination Sequence:
#
# PCOD9283702 Si02
#       6
#     4   8   8   8   8   8
#     4  10  24  52  80 104 150 198 244 318 392 442
#     4  10  25  45  69 113 142 194 255 307 378 458
#     4  11  21  41  72 101 148 192 252 301 375 459
#     4  10  21  40  64 100 143 192 237 303 372 441
#     4  10  22  41  63 100 144 186 242 305 369 446
#     4  10  24  48  75 106 150 194 253 315 380 453
#
# _framework density 23.319368999999998
#
# number of rings (size 3 to 8) (size 9 to 14) (size 15 to 20)
#    0.000    1.818    1.818    0.545    5.091    4.364 
#    6.545    0.000    0.000    0.000    0.000    0.000 
#    0.000    0.000    0.000    0.000    0.000    0.000 
#
# Total GULP energy -122727.571742 kJ/mol
# GULP energy per Si atom -5578.525988 kJ/mol
# Density = 2.326629 g / cm^3
# Si number density = 23.319369 Si / 1000 Ang^3
#
#
#
# Elastic Constant Matrix: (Units=GPa)
#
#
# Indices 1 2 3 4 5 6 
#
# 1 95.3145 43.5910 61.2921 0.0083 -21.2811 0.0442
# 2 43.5910 89.6851 56.2467 0.0057 -12.8215 0.0850
# 3 61.2921 56.2467 189.1556 0.0343 -33.5609 -0.0154
# 4 0.0083 0.0057 0.0343 42.9788 -0.0318 -2.6309
# 5 -21.2811 -12.8215 -33.5609 -0.0318 47.3538 -0.0269
# 6 0.0442 0.0850 -0.0154 -2.6309 -0.0269 37.5277
#
#
#
# Elastic Compliance Matrix: (Units=1/GPa)
#
#
# Indices 1 2 3 4 5 6 
#
# 1 0.015507 -0.005253 -0.002835 0.000002 0.003537 -0.000005
# 2 -0.005253 0.015523 -0.002959 -0.000001 -0.000255 -0.000030
# 3 -0.002835 -0.002959 0.007683 -0.000002 0.003370 0.000015
# 4 0.000002 -0.000001 -0.000002 0.023368 0.000016 0.001638
# 5 0.003537 -0.000255 0.003370 0.000016 0.025027 0.000017
# 6 -0.000005 -0.000030 0.000015 0.001638 0.000017 0.026762
#
#
# Mechanical properties :
#
#
# Convention : Reuss Voigt Hill
#
# Bulk Modulus (GPa) = 60.17432 77.37941 68.77687
# Shear Modulus (GPa) = 35.33501 39.77375 37.55438
#
# Velocity S-wave (km/s) = 3.89686 4.13438 4.01738
# Velocity P-wave (km/s) = 6.79028 7.48634 7.14679
#
# Compressibility (1/GPa) = 0.01661838
#
# Stress axis : x y z
#
# Youngs Moduli (GPa) = 64.48699 64.42172 130.15748
#
# Poissons Ratio (x) = 0.33843 0.36900
# Poissons Ratio (y) = 0.33878 0.38510
# Poissons Ratio (z) = 0.18282 0.19061
#
# Static dielectric constant tensor:
#      x y z
#    x 1.875600 -0.000110 0.006850 
#    y -0.000110 2.069760 0.000150 
#    z 0.006850 0.000150 1.936490 
# 
# From -- ./inp_files/319150.got.cif
#   From: 2010.05.17/outbox.cif.g08.bks.cpg/sg15_160_cif.got.tgz:319150.got - 2010.06.03 18:47:42.
