data_PCOD9283399
_publ_section_title
;
Structure prediction by ZEFSAII (Michael W. Deem and Ramdas Pophale) SiO2 
 PCOD9283399
Probable space group: C 2/C
;
_chemical_formula_sum "Si O2"
_cell_formula_units_Z 56
_cell_length_a 16.430754
_cell_length_b 15.804875
_cell_length_c 25.132702
_cell_angle_alpha 90.000000
_cell_angle_beta 25.970667
_cell_angle_gamma 90.000000
_cell_volume 2858.074471
_symmetry_space_group_name_H-M "C 2/C"
_symmetry_group_IT_number 15
_symmetry_cell_setting 'monoclinic'
loop_
_space_group_symop_operation_xyz
x,y,z
-x,y,1/2-z
-x,-y,-z
x,-y,1/2+z
1/2+x,1/2+y,z
1/2-x,1/2+y,1/2-z
1/2-x,1/2-y,-z
1/2+x,1/2-y,1/2+z
loop_
_atom_site_type_symbol
_atom_site_label
_atom_site_fract_x
_atom_site_fract_y
_atom_site_fract_z
Si Si1 0.481414 0.692221 0.125735
Si Si2 0.577509 0.152339 0.644250
Si Si3 0.156374 0.698175 0.101627
Si Si4 0.774138 0.245624 0.141761
Si Si5 0.360946 0.068687 0.559526
Si Si6 0.147235 0.523624 0.054449
Si Si7 0.035909 0.049148 0.285661
O O1 0.488481 0.776297 0.158289
O O2 0.369378 0.704159 0.136939
O O3 0.394033 0.617379 0.213096
O O4 0.698995 0.670193 0.986174
O O5 0.500000 0.154687 0.750000
O O6 0.545978 0.060465 0.635252
O O7 0.291226 0.704850 0.073404
O O8 0.950798 0.740459 0.223621
O O9 0.250000 0.750000 0.000000
O O10 0.133712 0.599025 0.103959
O O11 0.859349 0.339138 0.085594
O O12 0.403600 0.066990 0.471822
O O13 0.500000 0.000000 0.500000
O O14 0.165140 0.027253 0.691125
O O15 0.353935 0.490512 0.919311
O O16 0.000000 0.095796 0.250000
#
# Coordination Sequence:
#
# PCOD9283399 Si02
#       7
#     8   8   8   8   8   8   8
#     4  10  22  42  60  94 125 162 202 257 317 370
#     4  10  22  40  67  89 124 161 204 255 315 376
#     4  11  23  41  63  85 126 169 204 252 303 366
#     4  11  25  39  61  92 125 161 211 251 306 377
#     4  11  22  37  62  93 118 155 210 259 306 364
#     4  10  21  40  61  88 120 164 204 250 311 364
#     4   9  20  38  64  86 122 159 204 254 309 369
#
# _framework density 19.593612
#
# number of rings (size 3 to 8) (size 9 to 14) (size 15 to 20)
#    0.000    1.714    1.429    2.143    8.000    4.571 
#    0.000    4.286    0.000    0.000    0.000    0.000 
#    0.000    0.000    0.000    0.000    0.000    0.000 
#
# Total GULP energy -155990.180230 kJ/mol
# GULP energy per Si atom -5571.077865 kJ/mol
# Density = 1.954902 g / cm^3
# Si number density = 19.593612 Si / 1000 Ang^3
#
#
#
# Elastic Constant Matrix: (Units=GPa)
#
#
# Indices 1 2 3 4 5 6 
#
# 1 114.9885 12.3410 -7.3971 0.0053 9.2781 -0.0048
# 2 12.3410 81.6227 -11.3140 0.0070 10.9062 -0.0055
# 3 -7.3971 -11.3140 30.3437 -0.0293 12.6297 0.0066
# 4 0.0053 0.0070 -0.0293 -6.3295 0.0127 22.5417
# 5 9.2781 10.9062 12.6297 0.0127 30.8646 -0.0026
# 6 -0.0048 -0.0055 0.0066 22.5417 -0.0026 20.8313
#
#
#
# Elastic Compliance Matrix: (Units=1/GPa)
#
#
# Indices 1 2 3 4 5 6 
#
# 1 0.009332 -0.000282 0.003973 -0.000004 -0.004331 0.000004
# 2 -0.000282 0.014740 0.009112 -0.000009 -0.008852 0.000010
# 3 0.003973 0.009112 0.047197 -0.000063 -0.023727 0.000053
# 4 -0.000004 -0.000009 -0.000063 -0.032550 0.000047 0.035222
# 5 -0.004331 -0.008852 -0.023727 0.000047 0.046539 -0.000040
# 6 0.000004 0.000010 0.000053 0.035222 -0.000040 0.009890
#
#
# Mechanical properties :
#
#
# Convention : Reuss Voigt Hill
#
# Bulk Modulus (GPa) = 10.32260 23.80163 17.06212
# Shear Modulus (GPa) = 49.09985 24.62828 36.86407
#
# Velocity S-wave (km/s) = 5.01134 3.54920 4.34225
# Velocity P-wave (km/s) = 6.22611 5.38236 5.81955
#
# Compressibility (1/GPa) = 0.09687482
#
# Stress axis : x y z
#
# Youngs Moduli (GPa) = 107.16072 67.84302 21.18774
#
# Poissons Ratio (x) = 0.01910 -0.08417
# Poissons Ratio (y) = 0.03017 -0.19306
# Poissons Ratio (z) = -0.42572 -0.61817
#
# Static dielectric constant tensor:
#      x y z
#    x 1.727270 -0.000030 0.027870 
#    y -0.000030 1.697290 -0.000010 
#    z 0.027870 -0.000010 1.680200 
# 
# From -- ./inp_files/274453.got.cif
#   From: 2010.05.17/outbox.cif.g08.bks.cpg/sg15_138_cif.got.tgz:274453.got - 2010.06.03 18:47:42.
