data_PCOD9283395
_publ_section_title
;
Structure prediction by ZEFSAII (Michael W. Deem and Ramdas Pophale) SiO2 
 PCOD9283395
Probable space group: C 2/C
;
_chemical_formula_sum "Si O2"
_cell_formula_units_Z 48
_cell_length_a 5.112219
_cell_length_b 22.907173
_cell_length_c 22.248460
_cell_angle_alpha 90.000000
_cell_angle_beta 117.802149
_cell_angle_gamma 90.000000
_cell_volume 2304.676148
_symmetry_space_group_name_H-M "C 2/C"
_symmetry_group_IT_number 15
_symmetry_cell_setting 'monoclinic'
loop_
_space_group_symop_operation_xyz
x,y,z
-x,y,1/2-z
-x,-y,-z
x,-y,1/2+z
1/2+x,1/2+y,z
1/2-x,1/2+y,1/2-z
1/2-x,1/2-y,-z
1/2+x,1/2-y,1/2+z
loop_
_atom_site_type_symbol
_atom_site_label
_atom_site_fract_x
_atom_site_fract_y
_atom_site_fract_z
Si Si1 0.824210 0.580972 0.421357
Si Si2 0.382399 0.472403 0.049636
Si Si3 0.645044 0.872458 0.702817
Si Si4 0.373593 0.184882 0.503610
Si Si5 0.348558 0.261295 0.295456
Si Si6 0.458183 0.346414 0.416998
O O1 0.610505 0.525635 0.402933
O O2 0.929189 0.592004 0.365228
O O3 0.716341 0.642838 0.437425
O O4 0.073543 0.557137 0.494282
O O5 0.533709 0.415440 0.093415
O O6 0.500000 0.500000 0.000000
O O7 0.500000 0.891382 0.750000
O O8 0.547568 0.805093 0.680862
O O9 0.000000 0.874061 0.750000
O O10 0.250000 0.250000 0.500000
O O11 0.721293 0.178139 0.525482
O O12 0.295003 0.158995 0.560090
O O13 0.500000 0.280467 0.250000
O O14 0.405130 0.306062 0.354496
O O15 0.000000 0.257457 0.250000
#
# Coordination Sequence:
#
# PCOD9283395 Si02
#       6
#     8   8   8   8   8   8
#     4  10  22  39  62  88 125 159 204 252 309 364
#     4  10  21  40  63  87 120 165 198 254 312 357
#     4  10  23  39  62  90 120 160 200 246 303 361
#     4  11  22  35  59  95 122 152 197 261 316 365
#     4  10  21  40  61  87 123 163 202 252 308 362
#     4  11  22  38  61  88 121 159 208 244 309 373
#
# _framework density 20.827220000000001
#
# number of rings (size 3 to 8) (size 9 to 14) (size 15 to 20)
#    0.000    1.667    1.667    2.500    2.333    4.000 
#    0.000    0.833    0.000    0.000    0.000    0.000 
#    0.000    0.000    0.000    0.000    0.000    0.000 
#
# Total GULP energy -133805.839837 kJ/mol
# GULP energy per Si atom -5575.243327 kJ/mol
# Density = 2.077982 g / cm^3
# Si number density = 20.827220 Si / 1000 Ang^3
#
#
#
# Elastic Constant Matrix: (Units=GPa)
#
#
# Indices 1 2 3 4 5 6 
#
# 1 57.5279 5.9799 12.9299 0.0000 -24.4848 0.0000
# 2 5.9799 136.0481 48.2288 0.0000 -16.7649 0.0000
# 3 12.9299 48.2288 88.2739 0.0000 -39.4881 0.0000
# 4 0.0000 0.0000 0.0000 35.4759 0.0000 -7.1575
# 5 -24.4848 -16.7649 -39.4881 0.0000 41.2730 0.0000
# 6 0.0000 0.0000 0.0000 -7.1575 0.0000 15.4965
#
#
#
# Elastic Compliance Matrix: (Units=1/GPa)
#
#
# Indices 1 2 3 4 5 6 
#
# 1 0.024538 -0.000615 0.005493 0.000000 0.019563 0.000000
# 2 -0.000615 0.009213 -0.006001 0.000000 -0.002364 0.000000
# 3 0.005493 -0.006001 0.024772 0.000000 0.024522 0.000000
# 4 0.000000 0.000000 0.000000 0.031085 0.000000 0.014357
# 5 0.019563 -0.002364 0.024522 0.000000 0.058335 0.000000
# 6 0.000000 0.000000 0.000000 0.014357 0.000000 0.071162
#
#
# Mechanical properties :
#
#
# Convention : Reuss Voigt Hill
#
# Bulk Modulus (GPa) = 17.76932 46.23635 32.00284
# Shear Modulus (GPa) = 20.82363 32.76317 26.79340
#
# Velocity S-wave (km/s) = 3.16544 3.97053 3.59062
# Velocity P-wave (km/s) = 4.68084 6.57786 5.70870
#
# Compressibility (1/GPa) = 0.05627677
#
# Stress axis : x y z
#
# Youngs Moduli (GPa) = 40.75247 108.53643 40.36810
#
# Poissons Ratio (x) = 0.06676 -0.22174
# Poissons Ratio (y) = 0.02507 0.24226
# Poissons Ratio (z) = -0.22385 0.65136
#
# Static dielectric constant tensor:
#      x y z
#    x 1.838240 0.000000 0.063190 
#    y 0.000000 1.740670 0.000000 
#    z 0.063190 0.000000 1.736730 
# 
# From -- ./inp_files/185293.got.cif
#   From: 2010.05.17/outbox.cif.g08.bks.cpg/sg15_93_cif.got.tgz:185293.got - 2010.06.03 18:47:42.
