data_PCOD9283053
_publ_section_title
;
Structure prediction by ZEFSAII (Michael W. Deem and Ramdas Pophale) SiO2 
 PCOD9283053
Probable space group: C 2/C
;
_chemical_formula_sum "Si O2"
_cell_formula_units_Z 56
_cell_length_a 10.955646
_cell_length_b 14.635653
_cell_length_c 14.625630
_cell_angle_alpha 90.000000
_cell_angle_beta 69.476118
_cell_angle_gamma 90.000000
_cell_volume 2196.264181
_symmetry_space_group_name_H-M "C 2/C"
_symmetry_group_IT_number 15
_symmetry_cell_setting 'monoclinic'
loop_
_space_group_symop_operation_xyz
x,y,z
-x,y,1/2-z
-x,-y,-z
x,-y,1/2+z
1/2+x,1/2+y,z
1/2-x,1/2+y,1/2-z
1/2-x,1/2-y,-z
1/2+x,1/2-y,1/2+z
loop_
_atom_site_type_symbol
_atom_site_label
_atom_site_fract_x
_atom_site_fract_y
_atom_site_fract_z
Si Si1 0.254910 0.398494 0.567619
Si Si2 0.478373 0.480235 0.643738
Si Si3 0.156045 0.327263 0.767154
Si Si4 0.174705 0.834078 0.616660
Si Si5 0.960490 0.689328 0.953394
Si Si6 0.459859 0.314979 0.406689
Si Si7 0.498387 0.987687 0.352662
O O1 0.364534 0.437533 0.609385
O O2 0.181007 0.325141 0.652311
O O3 0.312655 0.356013 0.459929
O O4 0.143765 0.474412 0.583526
O O5 0.500000 0.477778 0.750000
O O6 0.606980 0.421149 0.588059
O O7 0.472786 0.585807 0.618902
O O8 0.291740 0.329884 0.785342
O O9 0.061134 0.245447 0.819794
O O10 0.089695 0.423376 0.816004
O O11 0.079951 0.749824 0.622100
O O12 0.318267 0.826633 0.535877
O O13 0.029413 0.594352 0.912721
O O14 0.034958 0.755112 0.002267
O O15 0.500000 0.947374 0.250000
#
# Coordination Sequence:
#
# PCOD9283053 Si02
#       7
#     8   8   8   8   8   8   8
#     4  11  23  44  70 100 141 185 224 290 339 405
#     4  12  24  42  67 104 135 180 229 285 348 405
#     4  10  24  46  64 103 142 182 227 285 338 412
#     4  10  21  39  66  97 137 172 227 289 335 404
#     4  10  22  40  68 102 131 177 230 289 334 410
#     4  11  25  42  73 104 139 178 233 283 348 408
#     4  10  24  43  67  95 140 183 233 277 342 407
#
# _framework density 25.497844000000001
#
# number of rings (size 3 to 8) (size 9 to 14) (size 15 to 20)
#    0.000    1.429    2.857    1.286    6.000    6.286 
#    2.571    2.857    0.000    0.000    0.000    0.000 
#    0.000    0.000    0.000    0.000    0.000    0.000 
#
# Total GULP energy -156138.267244 kJ/mol
# GULP energy per Si atom -5576.366687 kJ/mol
# Density = 2.543981 g / cm^3
# Si number density = 25.497844 Si / 1000 Ang^3
#
#
#
# Elastic Constant Matrix: (Units=GPa)
#
#
# Indices 1 2 3 4 5 6 
#
# 1 75.7022 11.9918 -2.1960 0.0000 7.0220 0.0000
# 2 11.9918 130.5273 30.1479 0.0000 -10.9402 0.0000
# 3 -2.1960 30.1479 58.8654 0.0000 -5.7411 0.0000
# 4 0.0000 0.0000 0.0000 23.5853 0.0000 1.7767
# 5 7.0220 -10.9402 -5.7411 0.0000 35.0021 0.0000
# 6 0.0000 0.0000 0.0000 1.7767 0.0000 19.0334
#
#
#
# Elastic Compliance Matrix: (Units=1/GPa)
#
#
# Indices 1 2 3 4 5 6 
#
# 1 0.013818 -0.001794 0.001127 0.000000 -0.003148 0.000000
# 2 -0.001794 0.009064 -0.004469 0.000000 0.002460 0.000000
# 3 0.001127 -0.004469 0.019472 0.000000 0.001571 0.000000
# 4 0.000000 0.000000 0.000000 0.042700 0.000000 -0.003986
# 5 -0.003148 0.002460 0.001571 0.000000 0.030228 0.000000
# 6 0.000000 0.000000 0.000000 -0.003986 0.000000 0.052911
#
#
# Mechanical properties :
#
#
# Convention : Reuss Voigt Hill
#
# Bulk Modulus (GPa) = 31.16895 38.33137 34.75016
# Shear Modulus (GPa) = 26.43262 30.53423 28.48342
#
# Velocity S-wave (km/s) = 3.22321 3.46428 3.34592
# Velocity P-wave (km/s) = 5.10909 5.57382 5.34651
#
# Compressibility (1/GPa) = 0.03208321
#
# Stress axis : x y z
#
# Youngs Moduli (GPa) = 72.36678 110.32050 51.35541
#
# Poissons Ratio (x) = 0.19788 -0.05788
# Poissons Ratio (y) = 0.12981 0.22953
# Poissons Ratio (z) = -0.08157 0.49306
#
# Static dielectric constant tensor:
#      x y z
#    x 2.039760 0.000000 0.051810 
#    y 0.000000 2.023350 0.000000 
#    z 0.051810 0.000000 2.125550 
# 
# From -- ./inp_files/198240.got.cif
#   From: 2010.05.17/outbox.cif.g08.bks.cpg/sg15_100_cif.got.tgz:198240.got - 2010.06.03 18:47:42.
