data_PCOD9283415
_publ_section_title
;
Structure prediction by ZEFSAII (Michael W. Deem and Ramdas Pophale) SiO2 
 PCOD9283415
Probable space group: C 2/C
;
_chemical_formula_sum "Si O2"
_cell_formula_units_Z 52
_cell_length_a 27.776150
_cell_length_b 4.922205
_cell_length_c 20.017919
_cell_angle_alpha 90.000000
_cell_angle_beta 121.671211
_cell_angle_gamma 90.000000
_cell_volume 2329.262975
_symmetry_space_group_name_H-M "C 2/C"
_symmetry_group_IT_number 15
_symmetry_cell_setting 'monoclinic'
loop_
_space_group_symop_operation_xyz
x,y,z
-x,y,1/2-z
-x,-y,-z
x,-y,1/2+z
1/2+x,1/2+y,z
1/2-x,1/2+y,1/2-z
1/2-x,1/2-y,-z
1/2+x,1/2-y,1/2+z
loop_
_atom_site_type_symbol
_atom_site_label
_atom_site_fract_x
_atom_site_fract_y
_atom_site_fract_z
Si Si1 0.557437 0.168346 0.918128
Si Si2 0.797069 0.954804 0.106047
Si Si3 0.562751 0.098251 0.622841
Si Si4 0.280209 0.439877 0.444406
Si Si5 0.500000 0.053420 0.250000
Si Si6 0.889878 0.806735 0.982004
Si Si7 0.410443 0.386758 0.272314
O O1 0.504887 0.059667 0.924884
O O2 0.537584 0.126005 0.827960
O O3 0.571399 0.469890 0.952254
O O4 0.608930 0.965249 0.972183
O O5 0.748977 0.160505 0.097755
O O6 0.769936 0.657651 0.084375
O O7 0.853275 0.933642 0.190019
O O8 0.807861 0.065636 0.038842
O O9 0.586700 0.220857 0.572561
O O10 0.571317 0.324474 0.686033
O O11 0.593512 0.823065 0.668247
O O12 0.328478 0.557992 0.432300
O O13 0.457883 0.244916 0.261154
#
# Coordination Sequence:
#
# PCOD9283415 Si02
#       7
#     8   8   8   8   4   8   8
#     4  11  23  38  63  91 127 161 198 259 312 370
#     4  10  21  40  61  90 120 156 200 258 320 353
#     4  11  24  40  60  92 126 165 210 250 310 382
#     4  10  22  38  63  90 119 155 209 256 300 377
#     4  10  24  40  62  98 124 158 212 250 320 390
#     4  12  23  41  63  89 123 168 209 252 306 369
#     4  11  23  41  64  89 129 166 202 264 315 371
#
# _framework density 22.324657999999999
#
# number of rings (size 3 to 8) (size 9 to 14) (size 15 to 20)
#    0.000    1.231    0.000    6.462    0.000   10.462 
#    0.000    3.077    0.000    0.000    0.000    0.000 
#    0.000    0.000    0.000    0.000    0.000    0.000 
#
# Total GULP energy -145556.529403 kJ/mol
# GULP energy per Si atom -5598.328054 kJ/mol
# Density = 2.227385 g / cm^3
# Si number density = 22.324658 Si / 1000 Ang^3
#
#
#
# Elastic Constant Matrix: (Units=GPa)
#
#
# Indices 1 2 3 4 5 6 
#
# 1 66.3203 -0.2679 29.7964 0.0000 5.9143 0.0002
# 2 -0.2679 105.1920 14.3982 -0.0022 12.3650 0.0029
# 3 29.7964 14.3982 53.6042 0.0005 10.7702 -0.0002
# 4 0.0000 -0.0022 0.0005 39.9420 -0.0001 3.5912
# 5 5.9143 12.3650 10.7702 -0.0001 28.1240 0.0001
# 6 0.0002 0.0029 -0.0002 3.5912 0.0001 33.9103
#
#
#
# Elastic Compliance Matrix: (Units=1/GPa)
#
#
# Indices 1 2 3 4 5 6 
#
# 1 0.020382 0.001717 -0.011676 0.000000 -0.000570 0.000000
# 2 0.001717 0.010362 -0.002979 0.000001 -0.003776 -0.000001
# 3 -0.011676 -0.002979 0.027289 -0.000001 -0.006685 0.000001
# 4 0.000000 0.000001 -0.000001 0.025277 0.000000 -0.002677
# 5 -0.000570 -0.003776 -0.006685 0.000000 0.039897 0.000000
# 6 0.000000 -0.000001 0.000001 -0.002677 0.000000 0.029773
#
#
# Mechanical properties :
#
#
# Convention : Reuss Voigt Hill
#
# Bulk Modulus (GPa) = 31.09761 34.77443 32.93602
# Shear Modulus (GPa) = 26.37463 32.47458 29.42460
#
# Velocity S-wave (km/s) = 3.44090 3.81813 3.63441
# Velocity P-wave (km/s) = 5.45402 5.92013 5.69185
#
# Compressibility (1/GPa) = 0.03215681
#
# Stress axis : x y z
#
# Youngs Moduli (GPa) = 49.06287 96.50234 36.64475
#
# Poissons Ratio (x) = -0.16570 0.42788
# Poissons Ratio (y) = -0.08424 0.10917
# Poissons Ratio (z) = 0.57287 0.28749
#
# Static dielectric constant tensor:
#      x y z
#    x 1.853000 0.000000 -0.010830 
#    y 0.000000 1.808630 0.000000 
#    z -0.010830 0.000000 1.829980 
# 
# From -- ./inp_files/220969.got.cif
#   From: 2010.05.17/outbox.cif.g08.bks.cpg/sg15_111_cif.got.tgz:220969.got - 2010.06.03 18:47:42.
