data_PCOD9283795
_publ_section_title
;
Structure prediction by ZEFSAII (Michael W. Deem and Ramdas Pophale) SiO2 
 PCOD9283795
Probable space group: C 2/C
;
_chemical_formula_sum "Si O2"
_cell_formula_units_Z 60
_cell_length_a 20.812888
_cell_length_b 17.557199
_cell_length_c 11.852761
_cell_angle_alpha 90.000000
_cell_angle_beta 38.971645
_cell_angle_gamma 90.000000
_cell_volume 2724.039261
_symmetry_space_group_name_H-M "C 2/C"
_symmetry_group_IT_number 15
_symmetry_cell_setting 'monoclinic'
loop_
_space_group_symop_operation_xyz
x,y,z
-x,y,1/2-z
-x,-y,-z
x,-y,1/2+z
1/2+x,1/2+y,z
1/2-x,1/2+y,1/2-z
1/2-x,1/2-y,-z
1/2+x,1/2-y,1/2+z
loop_
_atom_site_type_symbol
_atom_site_label
_atom_site_fract_x
_atom_site_fract_y
_atom_site_fract_z
Si Si1 0.358511 0.074783 0.645445
Si Si2 0.659237 0.477894 0.920792
Si Si3 0.741701 0.766858 0.144934
Si Si4 0.554687 0.976880 0.770375
Si Si5 0.637197 0.271390 0.302387
Si Si6 0.767015 0.629592 0.453039
Si Si7 0.427059 0.352093 0.614020
Si Si8 0.000000 0.093514 0.250000
O O1 0.315421 0.154334 0.748695
O O2 0.460578 0.079271 0.430087
O O3 0.262644 0.021139 0.739621
O O4 0.407033 0.029638 0.683506
O O5 0.691837 0.416162 0.971859
O O6 0.596492 0.433529 0.910082
O O7 0.586031 0.540936 0.075085
O O8 0.838694 0.769002 0.096566
O O9 0.670717 0.698007 0.282593
O O10 0.750000 0.750000 0.000000
O O11 0.500000 0.026988 0.750000
O O12 0.654699 0.930526 0.603243
O O13 0.665368 0.189545 0.211405
O O14 0.525619 0.306263 0.435605
O O15 0.711760 0.327524 0.130618
O O16 0.445478 0.361474 0.722845
#
# Coordination Sequence:
#
# PCOD9283795 Si02
#       8
#     8   8   8   8   8   8   8   4
#     4  10  23  41  63  95 132 172 224 278 331 416
#     4  11  23  44  68  97 136 177 234 281 355 406
#     4  12  25  44  65  96 137 181 222 277 346 409
#     4  10  21  40  64  94 127 171 225 272 339 388
#     4  11  23  42  67  98 137 173 231 282 349 405
#     4  10  22  42  67 100 132 177 225 291 336 412
#     4  12  25  44  68 101 136 185 229 288 350 417
#     4  12  26  42  66 102 134 182 234 286 340 420
#
# _framework density 22.026114
#
# number of rings (size 3 to 8) (size 9 to 14) (size 15 to 20)
#    0.000    1.067    1.333    5.200    0.000    4.267 
#    6.000    0.000    0.000    0.000    0.000    0.000 
#    0.000    0.000    0.000    0.000    0.000    0.000 
#
# Total GULP energy -167516.010613 kJ/mol
# GULP energy per Si atom -5583.867020 kJ/mol
# Density = 2.197598 g / cm^3
# Si number density = 22.026114 Si / 1000 Ang^3
#
#
#
# Elastic Constant Matrix: (Units=GPa)
#
#
# Indices 1 2 3 4 5 6 
#
# 1 105.5886 7.3393 15.6322 0.0000 -6.2770 0.0000
# 2 7.3393 51.2911 -8.9212 0.0000 0.7448 0.0000
# 3 15.6322 -8.9212 53.4946 0.0000 -4.9281 0.0000
# 4 0.0000 0.0000 0.0000 34.1633 0.0000 16.9397
# 5 -6.2770 0.7448 -4.9281 0.0000 27.9724 0.0000
# 6 0.0000 0.0000 0.0000 16.9397 0.0000 107.7688
#
#
#
# Elastic Compliance Matrix: (Units=1/GPa)
#
#
# Indices 1 2 3 4 5 6 
#
# 1 0.010184 -0.002031 -0.003150 0.000000 0.001784 0.000000
# 2 -0.002031 0.020484 0.003982 0.000000 -0.000300 0.000000
# 3 -0.003150 0.003982 0.020537 0.000000 0.002805 0.000000
# 4 0.000000 0.000000 0.000000 0.031745 0.000000 -0.004990
# 5 0.001784 -0.000300 0.002805 0.000000 0.036652 0.000000
# 6 0.000000 0.000000 0.000000 -0.004990 0.000000 0.010063
#
#
# Mechanical properties :
#
#
# Convention : Reuss Voigt Hill
#
# Bulk Modulus (GPa) = 20.48929 26.49723 23.49326
# Shear Modulus (GPa) = 33.70773 47.06917 40.38845
#
# Velocity S-wave (km/s) = 3.91622 4.62775 4.28677
# Velocity P-wave (km/s) = 5.45632 6.37266 5.93221
#
# Compressibility (1/GPa) = 0.04880599
#
# Stress axis : x y z
#
# Youngs Moduli (GPa) = 98.18932 48.81825 48.69353
#
# Poissons Ratio (x) = 0.09916 0.15341
# Poissons Ratio (y) = 0.19944 -0.19390
# Poissons Ratio (z) = 0.30934 -0.19440
#
# Static dielectric constant tensor:
#      x y z
#    x 1.818730 0.000000 0.075940 
#    y 0.000000 1.780250 0.000000 
#    z 0.075940 0.000000 1.865880 
# 
# From -- ./inp_files/107626.got.cif
#   From: 2010.05.17/outbox.cif.g08.bks.cpg/sg15_54_cif.got.tgz:107626.got - 2010.06.03 18:47:42.
