data_PCOD9283915
_publ_section_title
;
Structure prediction by ZEFSAII (Michael W. Deem and Ramdas Pophale) SiO2 
 PCOD9283915
Probable space group: C 2/C
;
_chemical_formula_sum "Si O2"
_cell_formula_units_Z 52
_cell_length_a 17.513607
_cell_length_b 13.300127
_cell_length_c 18.235131
_cell_angle_alpha 90.000000
_cell_angle_beta 33.977875
_cell_angle_gamma 90.000000
_cell_volume 2373.849552
_symmetry_space_group_name_H-M "C 2/C"
_symmetry_group_IT_number 15
_symmetry_cell_setting 'monoclinic'
loop_
_space_group_symop_operation_xyz
x,y,z
-x,y,1/2-z
-x,-y,-z
x,-y,1/2+z
1/2+x,1/2+y,z
1/2-x,1/2+y,1/2-z
1/2-x,1/2-y,-z
1/2+x,1/2-y,1/2+z
loop_
_atom_site_type_symbol
_atom_site_label
_atom_site_fract_x
_atom_site_fract_y
_atom_site_fract_z
Si Si1 0.068788 0.591702 0.045074
Si Si2 0.320967 0.774922 0.680139
Si Si3 0.968092 0.949306 0.362393
Si Si4 0.500000 0.110351 0.250000
Si Si5 0.227532 0.222774 0.418191
Si Si6 0.867261 0.941198 0.072444
Si Si7 0.752621 0.976292 0.795967
O O1 0.025239 0.546362 0.157224
O O2 0.957151 0.664910 0.096896
O O3 0.191186 0.666123 0.972622
O O4 0.125060 0.514317 0.942624
O O5 0.236798 0.762542 0.822735
O O6 0.356217 0.674000 0.607794
O O7 0.234486 0.857369 0.704221
O O8 0.879735 0.036524 0.475656
O O9 0.000000 0.951750 0.250000
O O10 0.118871 0.962620 0.275795
O O11 0.890330 0.850713 0.455898
O O12 0.373403 0.181023 0.327088
O O13 0.747222 0.997938 0.213366
O O14 0.000000 0.000000 0.000000
#
# Coordination Sequence:
#
# PCOD9283915 Si02
#       7
#     8   8   8   4   8   8   8
#     4  11  22  37  58  91 132 167 209 267 342 395
#     4  11  23  39  65  95 123 170 223 278 318 396
#     4  11  24  40  67  93 130 177 223 274 338 404
#     4  10  24  36  56  90 136 172 204 266 340 410
#     4  11  22  38  62  96 133 167 217 263 338 404
#     4  10  21  40  65  93 126 164 219 270 322 389
#     4  11  22  40  64  95 125 169 222 276 333 388
#
# _framework density 21.905348
#
# number of rings (size 3 to 8) (size 9 to 14) (size 15 to 20)
#    0.000    1.231    3.077    3.692    5.385    0.000 
#    0.000    0.769    1.692    0.000    0.000    0.000 
#    0.000    0.000    0.000    0.000    0.000    0.000 
#
# Total GULP energy -145010.356111 kJ/mol
# GULP energy per Si atom -5577.321389 kJ/mol
# Density = 2.185549 g / cm^3
# Si number density = 21.905348 Si / 1000 Ang^3
#
#
#
# Elastic Constant Matrix: (Units=GPa)
#
#
# Indices 1 2 3 4 5 6 
#
# 1 63.2305 27.9844 56.6000 0.0000 15.7474 0.0000
# 2 27.9844 120.0166 57.0878 0.0001 24.1604 0.0000
# 3 56.6000 57.0878 139.4823 0.0001 50.7356 0.0000
# 4 0.0000 0.0001 0.0001 42.1411 0.0000 2.9986
# 5 15.7474 24.1604 50.7356 0.0000 51.8587 0.0000
# 6 0.0000 0.0000 0.0000 2.9986 0.0000 15.1893
#
#
#
# Elastic Compliance Matrix: (Units=1/GPa)
#
#
# Indices 1 2 3 4 5 6 
#
# 1 0.025466 -0.001404 -0.011153 0.000000 0.003833 0.000000
# 2 -0.001404 0.010461 -0.003251 0.000000 -0.001267 0.000000
# 3 -0.011153 -0.003251 0.017454 0.000000 -0.012175 0.000000
# 4 0.000000 0.000000 0.000000 0.024068 0.000000 -0.004751
# 5 0.003833 -0.001267 -0.012175 0.000000 0.030621 0.000000
# 6 0.000000 0.000000 0.000000 -0.004751 0.000000 0.066774
#
#
# Mechanical properties :
#
#
# Convention : Reuss Voigt Hill
#
# Bulk Modulus (GPa) = 45.94677 67.34152 56.64415
# Shear Modulus (GPa) = 23.39575 33.90830 28.65203
#
# Velocity S-wave (km/s) = 3.27163 3.93866 3.62054
# Velocity P-wave (km/s) = 5.94072 7.17585 6.58730
#
# Compressibility (1/GPa) = 0.02176432
#
# Stress axis : x y z
#
# Youngs Moduli (GPa) = 39.26873 95.59350 57.29303
#
# Poissons Ratio (x) = 0.13424 0.63899
# Poissons Ratio (y) = 0.05515 0.18625
# Poissons Ratio (z) = 0.43796 0.31076
#
# Static dielectric constant tensor:
#      x y z
#    x 1.903890 0.000000 -0.013590 
#    y 0.000000 1.810670 0.000000 
#    z -0.013590 0.000000 1.987110 
# 
# From -- ./inp_files/252723.got.cif
#   From: 2010.05.17/outbox.cif.g08.bks.cpg/sg15_127_cif.got.tgz:252723.got - 2010.06.03 18:47:42.
