data_PCOD9283428
_publ_section_title
;
Structure prediction by ZEFSAII (Michael W. Deem and Ramdas Pophale) SiO2 
 PCOD9283428
Probable space group: C 2/C
;
_chemical_formula_sum "Si O2"
_cell_formula_units_Z 56
_cell_length_a 8.403993
_cell_length_b 20.097986
_cell_length_c 15.321171
_cell_angle_alpha 90.000000
_cell_angle_beta 93.353884
_cell_angle_gamma 90.000000
_cell_volume 2583.364580
_symmetry_space_group_name_H-M "C 2/C"
_symmetry_group_IT_number 15
_symmetry_cell_setting 'monoclinic'
loop_
_space_group_symop_operation_xyz
x,y,z
-x,y,1/2-z
-x,-y,-z
x,-y,1/2+z
1/2+x,1/2+y,z
1/2-x,1/2+y,1/2-z
1/2-x,1/2-y,-z
1/2+x,1/2-y,1/2+z
loop_
_atom_site_type_symbol
_atom_site_label
_atom_site_fract_x
_atom_site_fract_y
_atom_site_fract_z
Si Si1 0.313675 0.516556 0.000097
Si Si2 0.615043 0.719059 0.057258
Si Si3 0.495868 0.845230 0.391567
Si Si4 0.356716 0.108380 0.074024
Si Si5 0.000000 0.422329 0.750000
Si Si6 0.644252 0.662334 0.577045
Si Si7 0.500000 0.619421 0.750000
Si Si8 0.201155 0.465969 0.184430
O O1 0.198110 0.467921 0.941163
O O2 0.315384 0.591598 0.967290
O O3 0.500000 0.500000 0.000000
O O4 0.255170 0.499575 0.095343
O O5 0.596277 0.776025 0.129177
O O6 0.693308 0.649018 0.084289
O O7 0.750000 0.750000 0.000000
O O8 0.453757 0.705838 0.996516
O O9 0.447648 0.866137 0.490015
O O10 0.677295 0.821939 0.387020
O O11 0.434110 0.909781 0.338054
O O12 0.468044 0.117258 0.161055
O O13 0.145011 0.473038 0.740574
O O14 0.533786 0.656938 0.659856
O O15 0.652752 0.573366 0.770063
#
# Coordination Sequence:
#
# PCOD9283428 Si02
#       8
#     8   8   8   8   4   8   4   8
#     4  11  19  37  63  89 119 158 211 249 297 373
#     4  10  21  41  65  85 116 161 214 251 292 366
#     4  10  22  42  64  89 119 163 216 249 291 373
#     4  10  21  40  61  91 125 161 199 253 316 363
#     4  12  24  38  61  94 133 156 190 262 324 366
#     4  12  22  37  64  92 118 162 207 259 309 362
#     4  12  22  34  57  90 127 154 194 248 316 358
#     4  11  23  38  61  94 124 163 198 252 310 365
#
# _framework density 21.677157000000001
#
# number of rings (size 3 to 8) (size 9 to 14) (size 15 to 20)
#    0.000    1.143    2.857    5.571    0.000    2.286 
#    0.000    6.429    0.000    8.571    0.000    0.000 
#    0.000    0.000    0.000    0.000    0.000    0.000 
#
# Total GULP energy -156223.826371 kJ/mol
# GULP energy per Si atom -5579.422370 kJ/mol
# Density = 2.162782 g / cm^3
# Si number density = 21.677157 Si / 1000 Ang^3
#
#
#
# Elastic Constant Matrix: (Units=GPa)
#
#
# Indices 1 2 3 4 5 6 
#
# 1 83.8241 -2.8857 -6.8062 0.0000 -0.7333 0.0000
# 2 -2.8857 55.7372 2.1161 0.0000 -5.5835 0.0000
# 3 -6.8062 2.1161 86.8103 0.0000 -0.4666 0.0000
# 4 0.0000 0.0000 0.0000 10.2808 0.0000 -10.8078
# 5 -0.7333 -5.5835 -0.4666 0.0000 30.5657 0.0000
# 6 0.0000 0.0000 0.0000 -10.8078 0.0000 -2.9274
#
#
#
# Elastic Compliance Matrix: (Units=1/GPa)
#
#
# Indices 1 2 3 4 5 6 
#
# 1 0.012031 0.000629 0.000930 0.000000 0.000418 0.000000
# 2 0.000629 0.018325 -0.000379 0.000000 0.003357 0.000000
# 3 0.000930 -0.000379 0.011602 0.000000 0.000130 0.000000
# 4 0.000000 0.000000 0.000000 0.019927 0.000000 -0.073571
# 5 0.000418 0.003357 0.000130 0.000000 0.033342 0.000000
# 6 0.000000 0.000000 0.000000 -0.073571 0.000000 -0.069984
#
#
# Mechanical properties :
#
#
# Convention : Reuss Voigt Hill
#
# Bulk Modulus (GPa) = 22.56424 23.46889 23.01657
# Shear Modulus (GPa) = 132.78643 23.18034 77.98338
#
# Velocity S-wave (km/s) = 7.83514 3.27363 6.00442
# Velocity P-wave (km/s) = 9.60647 5.01387 7.66235
#
# Compressibility (1/GPa) = 0.04431790
#
# Stress axis : x y z
#
# Youngs Moduli (GPa) = 83.12148 54.57154 86.19022
#
# Poissons Ratio (x) = -0.03435 -0.08017
# Poissons Ratio (y) = -0.05232 0.03269
# Poissons Ratio (z) = -0.07731 0.02070
#
# Static dielectric constant tensor:
#      x y z
#    x 1.881090 0.000000 0.039500 
#    y 0.000000 1.836980 0.000000 
#    z 0.039500 0.000000 1.820980 
# 
# From -- ./inp_files/136477.got.cif
#   From: 2010.05.17/outbox.cif.g08.bks.cpg/sg15_69_cif.got.tgz:136477.got - 2010.06.03 18:47:42.
