data_PCOD9283688
_publ_section_title
;
Structure prediction by ZEFSAII (Michael W. Deem and Ramdas Pophale) SiO2 
 PCOD9283688
Probable space group: C 2/C
;
_chemical_formula_sum "Si O2"
_cell_formula_units_Z 48
_cell_length_a 17.555857
_cell_length_b 11.404380
_cell_length_c 18.808883
_cell_angle_alpha 90.000000
_cell_angle_beta 145.286565
_cell_angle_gamma 90.000000
_cell_volume 2144.516118
_symmetry_space_group_name_H-M "C 2/C"
_symmetry_group_IT_number 15
_symmetry_cell_setting 'monoclinic'
loop_
_space_group_symop_operation_xyz
x,y,z
-x,y,1/2-z
-x,-y,-z
x,-y,1/2+z
1/2+x,1/2+y,z
1/2-x,1/2+y,1/2-z
1/2-x,1/2-y,-z
1/2+x,1/2-y,1/2+z
loop_
_atom_site_type_symbol
_atom_site_label
_atom_site_fract_x
_atom_site_fract_y
_atom_site_fract_z
Si Si1 0.654682 0.099769 0.374711
Si Si2 0.863102 0.585707 0.752448
Si Si3 0.136260 0.479148 0.015284
Si Si4 0.264637 0.265234 0.186681
Si Si5 0.588661 0.444555 0.129782
Si Si6 0.174197 0.154517 0.264352
O O1 0.500000 0.138795 0.250000
O O2 0.730841 0.187923 0.380888
O O3 0.661008 0.974787 0.340965
O O4 0.692921 0.074707 0.484978
O O5 0.729861 0.572211 0.696832
O O6 0.887577 0.723366 0.759074
O O7 0.984167 0.515563 0.882446
O O8 0.165209 0.374209 0.092998
O O9 0.207415 0.597941 0.098137
O O10 0.406525 0.322347 0.322149
O O11 0.219048 0.185298 0.217687
O O12 0.578648 0.543618 0.182409
O O13 0.500000 0.500000 0.000000
#
# Coordination Sequence:
#
# PCOD9283688 Si02
#       6
#     8   8   8   8   8   8
#     4  10  21  42  64  95 129 168 213 259 320 388
#     4  10  22  40  63  93 128 168 213 258 320 386
#     4  10  23  41  67  92 129 171 212 265 320 386
#     4  10  21  40  63  96 127 166 215 263 317 376
#     4  10  22  38  59  94 128 164 212 268 317 365
#     4  10  22  37  63  94 123 165 215 261 321 366
#
# _framework density 22.382671999999999
#
# number of rings (size 3 to 8) (size 9 to 14) (size 15 to 20)
#    0.000    2.000    1.667    0.500    4.667    9.333 
#    3.000    0.000    0.000    0.000    0.000    0.000 
#    0.000    0.000    0.000    0.000    0.000    0.000 
#
# Total GULP energy -133674.608008 kJ/mol
# GULP energy per Si atom -5569.775334 kJ/mol
# Density = 2.233173 g / cm^3
# Si number density = 22.382672 Si / 1000 Ang^3
#
#
#
# Elastic Constant Matrix: (Units=GPa)
#
#
# Indices 1 2 3 4 5 6 
#
# 1 58.4431 7.6491 20.3849 0.0000 -30.2415 0.0000
# 2 7.6491 82.6300 -0.8591 0.0000 -14.5199 0.0000
# 3 20.3849 -0.8591 83.6099 0.0000 -28.5466 0.0000
# 4 0.0000 0.0000 0.0000 30.9256 0.0000 -11.7160
# 5 -30.2415 -14.5199 -28.5466 0.0000 27.4467 0.0000
# 6 0.0000 0.0000 0.0000 -11.7160 0.0000 31.3235
#
#
#
# Elastic Compliance Matrix: (Units=1/GPa)
#
#
# Indices 1 2 3 4 5 6 
#
# 1 0.047788 0.007911 0.012152 0.000000 0.069479 0.000000
# 2 0.007911 0.015550 0.006227 0.000000 0.023420 0.000000
# 3 0.012152 0.006227 0.022884 0.000000 0.040484 0.000000
# 4 0.000000 0.000000 0.000000 0.037674 0.000000 0.014091
# 5 0.069479 0.023420 0.040484 0.000000 0.167484 0.000000
# 6 0.000000 0.000000 0.000000 0.014091 0.000000 0.037196
#
#
# Mechanical properties :
#
#
# Convention : Reuss Voigt Hill
#
# Bulk Modulus (GPa) = 7.20446 31.00364 19.10405
# Shear Modulus (GPa) = 15.51528 31.10637 23.31083
#
# Velocity S-wave (km/s) = 2.63569 3.73198 3.23068
# Velocity P-wave (km/s) = 3.53387 5.69666 4.74026
#
# Compressibility (1/GPa) = 0.13880300
#
# Stress axis : x y z
#
# Youngs Moduli (GPa) = 20.92555 64.30906 43.69864
#
# Poissons Ratio (x) = -0.50878 -0.53102
# Poissons Ratio (y) = -0.16555 -0.27211
# Poissons Ratio (z) = -0.25428 -0.40046
#
# Static dielectric constant tensor:
#      x y z
#    x 1.896940 0.000000 0.011510 
#    y 0.000000 1.897650 0.000000 
#    z 0.011510 0.000000 1.926560 
# 
# From -- ./inp_files/110892.got.cif
#   From: 2010.05.17/outbox.cif.g08.bks.cpg/sg15_56_cif.got.tgz:110892.got - 2010.06.03 18:47:42.
