data_PCOD9283163
_publ_section_title
;
Structure prediction by ZEFSAII (Michael W. Deem and Ramdas Pophale) SiO2 
 PCOD9283163
Probable space group: C 2/C
;
_chemical_formula_sum "Si O2"
_cell_formula_units_Z 44
_cell_length_a 13.466216
_cell_length_b 17.469248
_cell_length_c 8.319618
_cell_angle_alpha 90.000000
_cell_angle_beta 107.096616
_cell_angle_gamma 90.000000
_cell_volume 1870.660237
_symmetry_space_group_name_H-M "C 2/C"
_symmetry_group_IT_number 15
_symmetry_cell_setting 'monoclinic'
loop_
_space_group_symop_operation_xyz
x,y,z
-x,y,1/2-z
-x,-y,-z
x,-y,1/2+z
1/2+x,1/2+y,z
1/2-x,1/2+y,1/2-z
1/2-x,1/2-y,-z
1/2+x,1/2-y,1/2+z
loop_
_atom_site_type_symbol
_atom_site_label
_atom_site_fract_x
_atom_site_fract_y
_atom_site_fract_z
Si Si1 0.883388 0.543092 0.760732
Si Si2 0.339728 0.805413 0.104760
Si Si3 0.098793 0.104774 0.016504
Si Si4 0.162584 0.609734 0.413094
Si Si5 0.538786 0.767439 0.007092
Si Si6 0.000000 0.976767 0.750000
O O1 0.814092 0.605433 0.630085
O O2 0.870287 0.566237 0.938646
O O3 0.858223 0.454205 0.729725
O O4 0.000000 0.554989 0.750000
O O5 0.430768 0.801898 0.015890
O O6 0.387175 0.774594 0.297468
O O7 0.250000 0.750000 0.000000
O O8 0.028052 0.178999 0.958526
O O9 0.077827 0.075833 0.186343
O O10 0.216183 0.127867 0.035690
O O11 0.066140 0.033169 0.893143
O O12 0.095422 0.686037 0.393408
#
# Coordination Sequence:
#
# PCOD9283163 Si02
#       6
#     8   8   8   8   8   4
#     4  11  22  42  66  91 137 168 218 272 323 399
#     4  10  21  39  68  94 130 181 220 261 343 394
#     4  11  23  43  65  93 133 171 226 279 335 394
#     4  11  23  40  66  94 130 176 215 270 339 388
#     4  10  22  42  61  98 136 166 221 289 316 401
#     4  10  24  42  66  92 128 180 228 276 332 408
#
# _framework density 23.521107000000001
#
# number of rings (size 3 to 8) (size 9 to 14) (size 15 to 20)
#    0.000    1.455    3.636    3.273    0.000    8.727 
#    1.636    0.000    0.000    0.000    0.000    0.000 
#    0.000    0.000    0.000    0.000    0.000    0.000 
#
# Total GULP energy -123134.816431 kJ/mol
# GULP energy per Si atom -5597.037110 kJ/mol
# Density = 2.346757 g / cm^3
# Si number density = 23.521107 Si / 1000 Ang^3
#
#
#
# Elastic Constant Matrix: (Units=GPa)
#
#
# Indices 1 2 3 4 5 6 
#
# 1 82.7281 -9.6487 11.6563 0.0000 -4.1424 0.0000
# 2 -9.6487 116.8591 4.7231 0.0000 -1.2889 0.0000
# 3 11.6563 4.7231 53.6829 0.0000 -9.5871 0.0000
# 4 0.0000 0.0000 0.0000 53.0778 0.0000 -8.1149
# 5 -4.1424 -1.2889 -9.5871 0.0000 29.0408 0.0000
# 6 0.0000 0.0000 0.0000 -8.1149 0.0000 38.5343
#
#
#
# Elastic Compliance Matrix: (Units=1/GPa)
#
#
# Indices 1 2 3 4 5 6 
#
# 1 0.012649 0.001163 -0.002675 0.000000 0.000973 0.000000
# 2 0.001163 0.008695 -0.000977 0.000000 0.000229 0.000000
# 3 -0.002675 -0.000977 0.020423 0.000000 0.006317 0.000000
# 4 0.000000 0.000000 0.000000 0.019467 0.000000 0.004100
# 5 0.000973 0.000229 0.006317 0.000000 0.036669 0.000000
# 6 0.000000 0.000000 0.000000 0.004100 0.000000 0.026814
#
#
# Mechanical properties :
#
#
# Convention : Reuss Voigt Hill
#
# Bulk Modulus (GPa) = 27.18109 29.63681 28.40895
# Shear Modulus (GPa) = 35.22174 40.56655 37.89414
#
# Velocity S-wave (km/s) = 3.87389 4.15744 4.01817
# Velocity P-wave (km/s) = 5.62054 5.97270 5.79930
#
# Compressibility (1/GPa) = 0.03679028
#
# Stress axis : x y z
#
# Youngs Moduli (GPa) = 79.05702 115.00380 48.96469
#
# Poissons Ratio (x) = -0.13378 0.13099
# Poissons Ratio (y) = -0.09196 0.04782
# Poissons Ratio (z) = 0.21149 0.11232
#
# Static dielectric constant tensor:
#      x y z
#    x 1.841940 0.000000 0.029320 
#    y 0.000000 1.889020 0.000000 
#    z 0.029320 0.000000 1.950200 
# 
# From -- ./inp_files/39233.got.cif
#   From: 2010.05.17/outbox.cif.g08.bks.cpg/sg15_20_cif.got.tgz:39233.got - 2010.06.03 18:47:42.
