data_PCOD9283924
_publ_section_title
;
Structure prediction by ZEFSAII (Michael W. Deem and Ramdas Pophale) SiO2 
 PCOD9283924
Probable space group: C 2/C
;
_chemical_formula_sum "Si O2"
_cell_formula_units_Z 56
_cell_length_a 9.001836
_cell_length_b 11.929820
_cell_length_c 27.680313
_cell_angle_alpha 90.000000
_cell_angle_beta 53.439940
_cell_angle_gamma 90.000000
_cell_volume 2387.687426
_symmetry_space_group_name_H-M "C 2/C"
_symmetry_group_IT_number 15
_symmetry_cell_setting 'monoclinic'
loop_
_space_group_symop_operation_xyz
x,y,z
-x,y,1/2-z
-x,-y,-z
x,-y,1/2+z
1/2+x,1/2+y,z
1/2-x,1/2+y,1/2-z
1/2-x,1/2-y,-z
1/2+x,1/2-y,1/2+z
loop_
_atom_site_type_symbol
_atom_site_label
_atom_site_fract_x
_atom_site_fract_y
_atom_site_fract_z
Si Si1 0.199928 0.954517 0.079520
Si Si2 0.063309 0.727360 0.007739
Si Si3 0.312281 0.372753 0.004668
Si Si4 0.306632 0.413454 0.315592
Si Si5 0.432690 0.825121 0.816882
Si Si6 0.361793 0.278546 0.137220
Si Si7 0.094271 0.437223 0.142740
O O1 0.814024 0.953418 0.959010
O O2 0.198146 0.989440 0.135723
O O3 0.018674 0.875966 0.108707
O O4 0.384467 0.879561 0.034417
O O5 0.009297 0.840346 0.990005
O O6 0.911504 0.709921 0.078864
O O7 0.250000 0.750000 0.000000
O O8 0.181688 0.414125 0.073206
O O9 0.250000 0.250000 0.000000
O O10 0.500000 0.425729 0.250000
O O11 0.304967 0.284932 0.336124
O O12 0.127146 0.433096 0.318210
O O13 0.500000 0.848700 0.750000
O O14 0.597539 0.790210 0.822049
O O15 0.345749 0.938677 0.853196
O O16 0.172315 0.343197 0.164051
#
# Coordination Sequence:
#
# PCOD9283924 Si02
#       7
#     8   8   8   8   8   8   8
#     4  10  21  40  65  93 139 181 216 277 345 403
#     4   9  19  36  59  91 127 164 210 268 337 404
#     4  11  24  39  64 104 137 174 225 281 348 416
#     4  10  24  47  68  95 137 183 231 282 335 402
#     4  10  23  44  67  94 130 177 228 277 333 397
#     4   9  21  39  65  99 131 170 222 275 334 406
#     4  11  24  43  70 100 137 178 226 283 343 406
#
# _framework density 23.453655999999999
#
# number of rings (size 3 to 8) (size 9 to 14) (size 15 to 20)
#    0.000    2.000    0.000    1.714    0.000   18.857 
#    0.000    7.143    0.000    0.857    0.000    0.000 
#    0.000    0.000    0.000    0.000    0.000    0.000 
#
# Total GULP energy -156597.127861 kJ/mol
# GULP energy per Si atom -5592.754566 kJ/mol
# Density = 2.340027 g / cm^3
# Si number density = 23.453656 Si / 1000 Ang^3
#
#
#
# Elastic Constant Matrix: (Units=GPa)
#
#
# Indices 1 2 3 4 5 6 
#
# 1 99.3693 19.7896 57.1117 0.0000 -1.2355 0.0000
# 2 19.7896 94.2570 69.6503 0.0000 9.0899 0.0000
# 3 57.1117 69.6503 113.5584 0.0000 20.4090 0.0000
# 4 0.0000 0.0000 0.0000 29.0995 0.0000 10.5924
# 5 -1.2355 9.0899 20.4090 0.0000 43.4254 0.0000
# 6 0.0000 0.0000 0.0000 10.5924 0.0000 33.5736
#
#
#
# Elastic Compliance Matrix: (Units=1/GPa)
#
#
# Indices 1 2 3 4 5 6 
#
# 1 0.016083 0.005094 -0.012128 0.000000 0.005091 0.000000
# 2 0.005094 0.021129 -0.016114 0.000000 0.003295 0.000000
# 3 -0.012128 -0.016114 0.026481 0.000000 -0.009418 0.000000
# 4 0.000000 0.000000 0.000000 0.038823 0.000000 -0.012249
# 5 0.005091 0.003295 -0.009418 0.000000 0.026909 0.000000
# 6 0.000000 0.000000 0.000000 -0.012249 0.000000 0.033650
#
#
# Mechanical properties :
#
#
# Convention : Reuss Voigt Hill
#
# Bulk Modulus (GPa) = 57.47670 66.69865 62.08768
# Shear Modulus (GPa) = 23.23754 31.92858 27.58306
#
# Velocity S-wave (km/s) = 3.15109 3.69365 3.43310
# Velocity P-wave (km/s) = 6.14808 6.83308 6.49961
#
# Compressibility (1/GPa) = 0.01739835
#
# Stress axis : x y z
#
# Youngs Moduli (GPa) = 62.17869 47.32854 37.76259
#
# Poissons Ratio (x) = -0.24110 0.45798
# Poissons Ratio (y) = -0.31675 0.60849
# Poissons Ratio (z) = 0.75410 0.76263
#
# Static dielectric constant tensor:
#      x y z
#    x 2.001340 0.000000 0.017460 
#    y 0.000000 1.921990 0.000000 
#    z 0.017460 0.000000 1.890650 
# 
# From -- ./inp_files/307964.got.cif
#   From: 2010.05.17/outbox.cif.g08.bks.cpg/sg15_154_cif.got.tgz:307964.got - 2010.06.03 18:47:42.
