data_PCOD9283479
_publ_section_title
;
Structure prediction by ZEFSAII (Michael W. Deem and Ramdas Pophale) SiO2 
 PCOD9283479
Probable space group: C 2/C
;
_chemical_formula_sum "Si O2"
_cell_formula_units_Z 40
_cell_length_a 12.128562
_cell_length_b 7.702126
_cell_length_c 16.959417
_cell_angle_alpha 90.000000
_cell_angle_beta 100.207556
_cell_angle_gamma 90.000000
_cell_volume 1559.200495
_symmetry_space_group_name_H-M "C 2/C"
_symmetry_group_IT_number 15
_symmetry_cell_setting 'monoclinic'
loop_
_space_group_symop_operation_xyz
x,y,z
-x,y,1/2-z
-x,-y,-z
x,-y,1/2+z
1/2+x,1/2+y,z
1/2-x,1/2+y,1/2-z
1/2-x,1/2-y,-z
1/2+x,1/2-y,1/2+z
loop_
_atom_site_type_symbol
_atom_site_label
_atom_site_fract_x
_atom_site_fract_y
_atom_site_fract_z
Si Si1 0.882455 0.669941 0.257501
Si Si2 0.451320 0.239914 0.655610
Si Si3 0.128545 0.282850 0.057666
Si Si4 0.370304 0.609408 0.596652
Si Si5 0.779007 0.945720 0.342092
O O1 0.875349 0.794212 0.180432
O O2 0.867220 0.799857 0.328112
O O3 0.775188 0.544271 0.241069
O O4 0.000000 0.578934 0.250000
O O5 0.500000 0.273702 0.750000
O O6 0.542181 0.147248 0.611047
O O7 0.428552 0.425808 0.612260
O O8 0.332729 0.143174 0.639114
O O9 0.237017 0.403657 0.061808
O O10 0.172322 0.098167 0.098686
O O11 0.082239 0.231776 0.966559
#
# Coordination Sequence:
#
# PCOD9283479 Si02
#       5
#     8   8   8   8   8
#     4  11  22  39  61  87 118 155 196 245 295 346
#     4  12  23  38  62  89 118 156 197 243 291 344
#     4  10  23  42  60  87 123 156 193 243 292 348
#     4  10  21  40  62  86 121 157 195 240 293 350
#     4  11  24  39  61  90 117 154 202 241 292 352
#
# _framework density 25.654173
#
# number of rings (size 3 to 8) (size 9 to 14) (size 15 to 20)
#    0.000    1.200    0.000    7.800    0.000    2.400 
#    0.000   11.000    0.000    0.000    0.000    0.000 
#    0.000    0.000    0.000    0.000    0.000    0.000 
#
# Total GULP energy -111991.720600 kJ/mol
# GULP energy per Si atom -5599.586030 kJ/mol
# Density = 2.559578 g / cm^3
# Si number density = 25.654173 Si / 1000 Ang^3
#
#
#
# Elastic Constant Matrix: (Units=GPa)
#
#
# Indices 1 2 3 4 5 6 
#
# 1 132.5196 24.7338 42.8134 0.0000 -19.2603 0.0000
# 2 24.7338 48.9108 -6.9789 0.0000 3.7132 0.0000
# 3 42.8134 -6.9789 72.1116 0.0000 -19.5110 0.0000
# 4 0.0000 0.0000 0.0000 10.7201 0.0000 -14.1492
# 5 -19.2603 3.7132 -19.5110 0.0000 39.1157 0.0000
# 6 0.0000 0.0000 0.0000 -14.1492 0.0000 42.8172
#
#
#
# Elastic Compliance Matrix: (Units=1/GPa)
#
#
# Indices 1 2 3 4 5 6 
#
# 1 0.011424 -0.006951 -0.006653 0.000000 0.002967 0.000000
# 2 -0.006951 0.025004 0.005755 0.000000 -0.002926 0.000000
# 3 -0.006653 0.005755 0.020045 0.000000 0.006177 0.000000
# 4 0.000000 0.000000 0.000000 0.165441 0.000000 0.054671
# 5 0.002967 -0.002926 0.006177 0.000000 0.030385 0.000000
# 6 0.000000 0.000000 0.000000 0.054671 0.000000 0.041421
#
#
# Mechanical properties :
#
#
# Convention : Reuss Voigt Hill
#
# Bulk Modulus (GPa) = 24.52420 41.63095 33.07758
# Shear Modulus (GPa) = 15.47945 31.39552 23.43749
#
# Velocity S-wave (km/s) = 2.45906 3.50208 3.02585
# Velocity P-wave (km/s) = 4.20035 5.71102 5.01292
#
# Compressibility (1/GPa) = 0.04077605
#
# Stress axis : x y z
#
# Youngs Moduli (GPa) = 87.53556 39.99361 49.88703
#
# Poissons Ratio (x) = 0.27801 0.33188
# Poissons Ratio (y) = 0.60850 -0.28712
# Poissons Ratio (z) = 0.58234 -0.23018
#
# Static dielectric constant tensor:
#      x y z
#    x 2.083780 0.000000 0.051140 
#    y 0.000000 2.013800 0.000000 
#    z 0.051140 0.000000 2.004770 
# 
# From -- ./inp_files/195169.got.cif
#   From: 2010.05.17/outbox.cif.g08.bks.cpg/sg15_98_cif.got.tgz:195169.got - 2010.06.03 18:47:42.
