data_PCOD9283718
_publ_section_title
;
Structure prediction by ZEFSAII (Michael W. Deem and Ramdas Pophale) SiO2 
 PCOD9283718
Probable space group: C 2/C
;
_chemical_formula_sum "Si O2"
_cell_formula_units_Z 52
_cell_length_a 6.889288
_cell_length_b 18.899583
_cell_length_c 27.524771
_cell_angle_alpha 90.000000
_cell_angle_beta 128.477832
_cell_angle_gamma 90.000000
_cell_volume 2805.616141
_symmetry_space_group_name_H-M "C 2/C"
_symmetry_group_IT_number 15
_symmetry_cell_setting 'monoclinic'
loop_
_space_group_symop_operation_xyz
x,y,z
-x,y,1/2-z
-x,-y,-z
x,-y,1/2+z
1/2+x,1/2+y,z
1/2-x,1/2+y,1/2-z
1/2-x,1/2-y,-z
1/2+x,1/2-y,1/2+z
loop_
_atom_site_type_symbol
_atom_site_label
_atom_site_fract_x
_atom_site_fract_y
_atom_site_fract_z
Si Si1 0.698334 0.392669 0.077144
Si Si2 0.753539 0.734615 0.442812
Si Si3 0.000000 0.422554 0.750000
Si Si4 0.899099 0.991165 0.355980
Si Si5 0.150334 0.634751 0.457547
Si Si6 0.544898 0.987491 0.064372
Si Si7 0.800810 0.138470 0.377045
O O1 0.756886 0.310043 0.084784
O O2 0.739688 0.431561 0.134696
O O3 0.854052 0.433833 0.059947
O O4 0.402881 0.394522 0.020674
O O5 0.750000 0.750000 0.500000
O O6 0.515800 0.688460 0.390949
O O7 0.995967 0.689188 0.465925
O O8 0.762133 0.474613 0.712431
O O9 0.936717 0.373537 0.694224
O O10 0.917764 0.058896 0.395991
O O11 0.170569 0.965846 0.383904
O O12 0.229455 0.666838 0.418505
O O13 0.989859 0.565816 0.419466
O O14 0.500000 0.000000 0.000000
#
# Coordination Sequence:
#
# PCOD9283718 Si02
#       7
#     8   8   4   8   8   8   8
#     4  12  24  34  59  97 130 155 205 262 327 374
#     4  12  25  38  58  97 136 166 202 259 330 391
#     4   8  20  44  66  86 116 170 222 254 308 372
#     4  10  21  40  64  87 123 156 213 270 303 379
#     4  12  21  37  60  93 126 172 204 248 321 393
#     4  12  20  33  60  94 120 157 205 254 315 367
#     4  10  21  41  64  85 124 165 215 261 303 394
#
# _framework density 18.534253
#
# number of rings (size 3 to 8) (size 9 to 14) (size 15 to 20)
#    0.923    0.000    6.154    2.769    0.000    0.000 
#    0.000    6.923    6.769    0.000    0.000    0.000 
#    0.000    0.000    0.000    0.000    0.000    0.000 
#
# Total GULP energy -144863.690124 kJ/mol
# GULP energy per Si atom -5571.680389 kJ/mol
# Density = 1.849207 g / cm^3
# Si number density = 18.534253 Si / 1000 Ang^3
#
#
#
# Elastic Constant Matrix: (Units=GPa)
#
#
# Indices 1 2 3 4 5 6 
#
# 1 114.9414 44.5174 25.4936 0.0000 13.7645 0.0000
# 2 44.5174 103.8767 6.9014 0.0000 4.9756 0.0000
# 3 25.4936 6.9014 70.7822 -0.0001 15.0588 0.0000
# 4 0.0000 0.0000 -0.0001 21.8015 0.0000 0.8174
# 5 13.7645 4.9756 15.0588 0.0000 15.3772 0.0000
# 6 0.0000 0.0000 0.0000 0.8174 0.0000 45.1305
#
#
#
# Elastic Compliance Matrix: (Units=1/GPa)
#
#
# Indices 1 2 3 4 5 6 
#
# 1 0.011810 -0.004580 -0.002366 0.000000 -0.006772 0.000000
# 2 -0.004580 0.011561 0.000563 0.000000 -0.000193 0.000000
# 3 -0.002366 0.000563 0.018333 0.000000 -0.016018 0.000000
# 4 0.000000 0.000000 0.000000 0.045899 0.000000 -0.000831
# 5 -0.006772 -0.000193 -0.016018 0.000000 0.086842 0.000000
# 6 0.000000 0.000000 0.000000 -0.000831 0.000000 0.022173
#
#
# Mechanical properties :
#
#
# Convention : Reuss Voigt Hill
#
# Bulk Modulus (GPa) = 34.55573 49.26943 41.91258
# Shear Modulus (GPa) = 22.82803 30.64104 26.73453
#
# Velocity S-wave (km/s) = 3.51332 4.07038 3.80207
# Velocity P-wave (km/s) = 5.92812 6.98078 6.47587
#
# Compressibility (1/GPa) = 0.02893876
#
# Stress axis : x y z
#
# Youngs Moduli (GPa) = 84.67734 86.49599 54.54688
#
# Poissons Ratio (x) = 0.39611 0.12907
# Poissons Ratio (y) = 0.38778 -0.03072
# Poissons Ratio (z) = 0.20036 -0.04872
#
# Static dielectric constant tensor:
#      x y z
#    x 1.707340 0.000000 -0.000570 
#    y 0.000000 1.673990 0.000000 
#    z -0.000570 0.000000 1.655750 
# 
# From -- ./inp_files/305963.got.cif
#   From: 2010.05.17/outbox.cif.g08.bks.cpg/sg15_153_cif.got.tgz:305963.got - 2010.06.03 18:47:42.
