data_PCOD9283888
_publ_section_title
;
Structure prediction by ZEFSAII (Michael W. Deem and Ramdas Pophale) SiO2 
 PCOD9283888
Probable space group: C 2/C
;
_chemical_formula_sum "Si O2"
_cell_formula_units_Z 36
_cell_length_a 9.930092
_cell_length_b 14.122852
_cell_length_c 11.129981
_cell_angle_alpha 90.000000
_cell_angle_beta 81.299073
_cell_angle_gamma 90.000000
_cell_volume 1542.918604
_symmetry_space_group_name_H-M "C 2/C"
_symmetry_group_IT_number 15
_symmetry_cell_setting 'monoclinic'
loop_
_space_group_symop_operation_xyz
x,y,z
-x,y,1/2-z
-x,-y,-z
x,-y,1/2+z
1/2+x,1/2+y,z
1/2-x,1/2+y,1/2-z
1/2-x,1/2-y,-z
1/2+x,1/2-y,1/2+z
loop_
_atom_site_type_symbol
_atom_site_label
_atom_site_fract_x
_atom_site_fract_y
_atom_site_fract_z
Si Si1 0.000000 0.418333 0.750000
Si Si2 0.158801 0.913091 0.514247
Si Si3 0.068684 0.221594 0.369291
Si Si4 0.470667 0.887826 0.499381
Si Si5 0.794424 0.039182 0.215848
O O1 0.015506 0.356468 0.865304
O O2 0.134684 0.482080 0.731182
O O3 0.313878 0.874286 0.482318
O O4 0.157775 0.961603 0.650283
O O5 0.044065 0.832927 0.535333
O O6 0.136772 0.977837 0.399133
O O7 0.189746 0.148103 0.331639
O O8 0.000000 0.231599 0.250000
O O9 0.082739 0.327123 0.414984
O O10 0.500000 0.000000 0.500000
#
# Coordination Sequence:
#
# PCOD9283888 Si02
#       5
#     4   8   8   8   8
#     4  10  22  40  56  96 122 154 210 254 300 362
#     4  10  21  41  64  92 123 163 206 252 304 371
#     4  10  23  40  63  91 125 163 203 252 311 366
#     4  11  22  39  62  86 121 159 205 249 306 365
#     4  10  21  40  65  91 128 160 206 253 307 366
#
# _framework density 23.332402999999999
#
# number of rings (size 3 to 8) (size 9 to 14) (size 15 to 20)
#    0.000    1.778    2.222    1.333    1.556    0.889 
#    4.000    0.000    0.000    0.000    0.000    0.000 
#    0.000    0.000    0.000    0.000    0.000    0.000 
#
# Total GULP energy -100385.233211 kJ/mol
# GULP energy per Si atom -5576.957401 kJ/mol
# Density = 2.327930 g / cm^3
# Si number density = 23.332403 Si / 1000 Ang^3
#
#
#
# Elastic Constant Matrix: (Units=GPa)
#
#
# Indices 1 2 3 4 5 6 
#
# 1 70.4031 12.7144 7.0978 0.0000 -2.1613 0.0000
# 2 12.7144 97.7450 49.9072 0.0000 -9.5721 0.0000
# 3 7.0978 49.9072 107.1785 0.0000 -9.6739 0.0000
# 4 0.0000 0.0000 0.0000 42.9593 0.0000 -12.6150
# 5 -2.1613 -9.5721 -9.6739 0.0000 29.7313 0.0000
# 6 0.0000 0.0000 0.0000 -12.6150 0.0000 12.4396
#
#
#
# Elastic Compliance Matrix: (Units=1/GPa)
#
#
# Indices 1 2 3 4 5 6 
#
# 1 0.014552 -0.001807 -0.000082 0.000000 0.000449 0.000000
# 2 -0.001807 0.013808 -0.006100 0.000000 0.002330 0.000000
# 3 -0.000082 -0.006100 0.012361 0.000000 0.002052 0.000000
# 4 0.000000 0.000000 0.000000 0.033149 0.000000 0.033617
# 5 0.000449 0.002330 0.002052 0.000000 0.035085 0.000000
# 6 0.000000 0.000000 0.000000 0.033617 0.000000 0.114480
#
#
# Mechanical properties :
#
#
# Convention : Reuss Voigt Hill
#
# Bulk Modulus (GPa) = 40.41296 46.08505 43.24901
# Shear Modulus (GPa) = 20.18884 30.73319 25.46101
#
# Velocity S-wave (km/s) = 2.94474 3.63325 3.30696
# Velocity P-wave (km/s) = 5.37774 6.11515 5.75826
#
# Compressibility (1/GPa) = 0.02474454
#
# Stress axis : x y z
#
# Youngs Moduli (GPa) = 68.71751 72.41957 80.89795
#
# Poissons Ratio (x) = 0.13088 0.00660
# Poissons Ratio (y) = 0.12419 0.49347
# Poissons Ratio (z) = 0.00561 0.44175
#
# Static dielectric constant tensor:
#      x y z
#    x 1.897590 0.000000 -0.027890 
#    y 0.000000 1.937980 0.000000 
#    z -0.027890 0.000000 1.992760 
# 
# From -- ./inp_files/84336.got.cif
#   From: 2010.05.17/outbox.cif.g08.bks.cpg/sg15_43_cif.got.tgz:84336.got - 2010.06.03 18:47:42.
