data_PCOD9283082
_publ_section_title
;
Structure prediction by ZEFSAII (Michael W. Deem and Ramdas Pophale) SiO2 
 PCOD9283082
Probable space group: C 2/C
;
_chemical_formula_sum "Si O2"
_cell_formula_units_Z 48
_cell_length_a 9.986265
_cell_length_b 11.558871
_cell_length_c 20.380274
_cell_angle_alpha 90.000000
_cell_angle_beta 67.155378
_cell_angle_gamma 90.000000
_cell_volume 2167.966886
_symmetry_space_group_name_H-M "C 2/C"
_symmetry_group_IT_number 15
_symmetry_cell_setting 'monoclinic'
loop_
_space_group_symop_operation_xyz
x,y,z
-x,y,1/2-z
-x,-y,-z
x,-y,1/2+z
1/2+x,1/2+y,z
1/2-x,1/2+y,1/2-z
1/2-x,1/2-y,-z
1/2+x,1/2-y,1/2+z
loop_
_atom_site_type_symbol
_atom_site_label
_atom_site_fract_x
_atom_site_fract_y
_atom_site_fract_z
Si Si1 0.431509 0.585271 0.168033
Si Si2 0.412266 0.435357 0.459702
Si Si3 0.986488 0.241831 0.652650
Si Si4 0.183043 0.448191 0.605093
Si Si5 0.505055 0.849800 0.173061
Si Si6 0.689381 0.385855 0.220478
O O1 0.563749 0.518078 0.107201
O O2 0.298801 0.585067 0.140122
O O3 0.490337 0.711937 0.171882
O O4 0.369353 0.507066 0.239390
O O5 0.500000 0.500000 0.500000
O O6 0.487555 0.316654 0.422514
O O7 0.255522 0.418191 0.521450
O O8 0.038215 0.372708 0.643634
O O9 0.099492 0.174970 0.679802
O O10 0.833680 0.204737 0.713683
O O11 0.141015 0.582847 0.616932
O O12 0.500000 0.885619 0.250000
O O13 0.355430 0.894021 0.169621
#
# Coordination Sequence:
#
# PCOD9283082 Si02
#       6
#     8   8   8   8   8   8
#     4  10  22  42  60  90 133 165 213 267 318 388
#     4   9  21  41  65  87 125 173 215 261 326 378
#     4  10  21  39  67  89 123 172 211 269 322 382
#     4  11  22  40  65  90 124 170 217 261 319 392
#     4  12  25  37  65  99 130 168 214 267 326 388
#     4  10  22  38  61  94 128 166 209 268 331 372
#
# _framework density 22.140559
#
# number of rings (size 3 to 8) (size 9 to 14) (size 15 to 20)
#    0.000    1.667    3.333    0.500    9.333    0.667 
#    0.000    0.833    0.000    0.000    0.000    0.000 
#    0.000    0.000    0.000    0.000    0.000    0.000 
#
# Total GULP energy -133890.177244 kJ/mol
# GULP energy per Si atom -5578.757385 kJ/mol
# Density = 2.209017 g / cm^3
# Si number density = 22.140559 Si / 1000 Ang^3
#
#
#
# Elastic Constant Matrix: (Units=GPa)
#
#
# Indices 1 2 3 4 5 6 
#
# 1 33.6721 1.7156 -2.9484 0.0000 -3.8300 0.0000
# 2 1.7156 112.9618 8.2918 0.0000 -0.5275 0.0000
# 3 -2.9484 8.2918 42.5924 0.0000 -3.6825 0.0000
# 4 0.0000 0.0000 0.0000 18.8490 0.0000 -2.1270
# 5 -3.8300 -0.5275 -3.6825 0.0000 19.0637 0.0000
# 6 0.0000 0.0000 0.0000 -2.1270 0.0000 32.4717
#
#
#
# Elastic Compliance Matrix: (Units=1/GPa)
#
#
# Indices 1 2 3 4 5 6 
#
# 1 0.030742 -0.000644 0.002833 0.000000 0.006706 0.000000
# 2 -0.000644 0.008995 -0.001816 0.000000 -0.000231 0.000000
# 3 0.002833 -0.001816 0.024482 0.000000 0.005248 0.000000
# 4 0.000000 0.000000 0.000000 0.053448 0.000000 0.003501
# 5 0.006706 -0.000231 0.005248 0.000000 0.054810 0.000000
# 6 0.000000 0.000000 0.000000 0.003501 0.000000 0.031025
#
#
# Mechanical properties :
#
#
# Convention : Reuss Voigt Hill
#
# Bulk Modulus (GPa) = 15.39266 22.59381 18.99323
# Shear Modulus (GPa) = 22.28074 26.22137 24.25105
#
# Velocity S-wave (km/s) = 3.17571 3.44512 3.31316
# Velocity P-wave (km/s) = 4.51821 5.10412 4.82007
#
# Compressibility (1/GPa) = 0.06496602
#
# Stress axis : x y z
#
# Youngs Moduli (GPa) = 32.52899 111.17882 40.84687
#
# Poissons Ratio (x) = 0.07155 -0.11572
# Poissons Ratio (y) = 0.02093 0.07416
# Poissons Ratio (z) = -0.09216 0.20185
#
# Static dielectric constant tensor:
#      x y z
#    x 1.881140 0.000000 -0.020270 
#    y 0.000000 1.834300 0.000000 
#    z -0.020270 0.000000 1.870240 
# 
# From -- ./inp_files/236567.got.cif
#   From: 2010.05.17/outbox.cif.g08.bks.cpg/sg15_119_cif.got.tgz:236567.got - 2010.06.03 18:47:42.
