data_PCOD9283278
_publ_section_title
;
Structure prediction by ZEFSAII (Michael W. Deem and Ramdas Pophale) SiO2 
 PCOD9283278
Probable space group: C 2/C
;
_chemical_formula_sum "Si O2"
_cell_formula_units_Z 48
_cell_length_a 28.495652
_cell_length_b 7.201946
_cell_length_c 10.038884
_cell_angle_alpha 90.000000
_cell_angle_beta 119.599777
_cell_angle_gamma 90.000000
_cell_volume 1791.356026
_symmetry_space_group_name_H-M "C 2/C"
_symmetry_group_IT_number 15
_symmetry_cell_setting 'monoclinic'
loop_
_space_group_symop_operation_xyz
x,y,z
-x,y,1/2-z
-x,-y,-z
x,-y,1/2+z
1/2+x,1/2+y,z
1/2-x,1/2+y,1/2-z
1/2-x,1/2-y,-z
1/2+x,1/2-y,1/2+z
loop_
_atom_site_type_symbol
_atom_site_label
_atom_site_fract_x
_atom_site_fract_y
_atom_site_fract_z
Si Si1 0.938185 0.214725 0.623342
Si Si2 0.480579 0.202548 0.916016
Si Si3 0.411500 0.349380 0.367895
Si Si4 0.885878 0.481507 0.179560
Si Si5 0.792809 0.881866 0.235592
Si Si6 0.270965 0.970417 0.092095
O O1 0.923128 0.087530 0.729564
O O2 0.893107 0.377065 0.567127
O O3 0.000000 0.274857 0.750000
O O4 0.945736 0.184477 0.478128
O O5 0.533909 0.323170 0.971514
O O6 0.562918 0.152119 0.755125
O O7 0.500000 0.000000 0.000000
O O8 0.355949 0.423985 0.349899
O O9 0.396988 0.130531 0.313464
O O10 0.758023 0.111829 0.820205
O O11 0.828271 0.392949 0.120871
O O12 0.785522 0.680066 0.159086
O O13 0.768655 0.016894 0.089196
#
# Coordination Sequence:
#
# PCOD9283278 Si02
#       6
#     8   8   8   8   8   8
#     4   8  13  23  40  70 102 134 175 231 299 355
#     4   9  13  22  44  73 105 137 181 237 305 353
#     4   7  15  28  44  70 102 141 188 228 295 357
#     4   8  16  25  42  77 106 144 177 249 305 357
#     4  10  21  40  56  87 118 171 210 258 302 377
#     4  10  22  36  60  83 128 159 212 253 314 372
#
# _framework density 26.795342999999999
#
# number of rings (size 3 to 8) (size 9 to 14) (size 15 to 20)
#    1.000    2.333    1.667    0.000    2.333    0.667 
#    0.000    0.000    0.000    0.000    0.000   18.667 
#    0.000    0.000    0.000    1.333    0.000    0.000 
#
# Total GULP energy -133848.479536 kJ/mol
# GULP energy per Si atom -5577.019981 kJ/mol
# Density = 2.673436 g / cm^3
# Si number density = 26.795343 Si / 1000 Ang^3
#
#
#
# Elastic Constant Matrix: (Units=GPa)
#
#
# Indices 1 2 3 4 5 6 
#
# 1 182.2548 14.0143 54.6883 0.0000 20.5920 0.0000
# 2 14.0143 63.1035 3.2728 0.0000 2.7572 0.0000
# 3 54.6883 3.2728 63.8379 0.0000 -4.6616 0.0000
# 4 0.0000 0.0000 0.0000 14.7922 0.0000 -5.9988
# 5 20.5920 2.7572 -4.6616 0.0000 52.9538 0.0000
# 6 0.0000 0.0000 0.0000 -5.9988 0.0000 40.2012
#
#
#
# Elastic Compliance Matrix: (Units=1/GPa)
#
#
# Indices 1 2 3 4 5 6 
#
# 1 0.008171 -0.001277 -0.007208 0.000000 -0.003746 0.000000
# 2 -0.001277 0.016132 0.000244 0.000000 -0.000322 0.000000
# 3 -0.007208 0.000244 0.022173 0.000000 0.004742 0.000000
# 4 0.000000 0.000000 0.000000 0.071958 0.000000 0.010737
# 5 -0.003746 -0.000322 0.004742 0.000000 0.020775 0.000000
# 6 0.000000 0.000000 0.000000 0.010737 0.000000 0.026477
#
#
# Mechanical properties :
#
#
# Convention : Reuss Voigt Hill
#
# Bulk Modulus (GPa) = 33.34073 50.34966 41.84520
# Shear Modulus (GPa) = 26.01899 37.40416 31.71158
#
# Velocity S-wave (km/s) = 3.11951 3.74025 3.44390
# Velocity P-wave (km/s) = 5.04429 6.12241 5.60931
#
# Compressibility (1/GPa) = 0.02999334
#
# Stress axis : x y z
#
# Youngs Moduli (GPa) = 122.38274 61.98841 45.09907
#
# Poissons Ratio (x) = 0.07917 0.32507
# Poissons Ratio (y) = 0.15630 -0.01099
# Poissons Ratio (z) = 0.88213 -0.01510
#
# Static dielectric constant tensor:
#      x y z
#    x 2.051390 0.000000 -0.012690 
#    y 0.000000 2.342540 0.000000 
#    z -0.012690 0.000000 2.136830 
# 
# From -- ./inp_files/117010.got.cif
#   From: 2010.05.17/outbox.cif.g08.bks.cpg/sg15_59_cif.got.tgz:117010.got - 2010.06.03 18:47:42.
