data_PCOD9283353
_publ_section_title
;
Structure prediction by ZEFSAII (Michael W. Deem and Ramdas Pophale) SiO2 
 PCOD9283353
Probable space group: C 2/C
;
_chemical_formula_sum "Si O2"
_cell_formula_units_Z 52
_cell_length_a 10.741584
_cell_length_b 9.216109
_cell_length_c 29.006206
_cell_angle_alpha 90.000000
_cell_angle_beta 120.415347
_cell_angle_gamma 90.000000
_cell_volume 2476.307510
_symmetry_space_group_name_H-M "C 2/C"
_symmetry_group_IT_number 15
_symmetry_cell_setting 'monoclinic'
loop_
_space_group_symop_operation_xyz
x,y,z
-x,y,1/2-z
-x,-y,-z
x,-y,1/2+z
1/2+x,1/2+y,z
1/2-x,1/2+y,1/2-z
1/2-x,1/2-y,-z
1/2+x,1/2-y,1/2+z
loop_
_atom_site_type_symbol
_atom_site_label
_atom_site_fract_x
_atom_site_fract_y
_atom_site_fract_z
Si Si1 0.802663 0.806660 0.216289
Si Si2 0.536918 0.812815 0.332166
Si Si3 0.515733 0.143457 0.319762
Si Si4 0.106475 0.695259 0.947506
Si Si5 0.079205 0.153454 0.018031
Si Si6 0.500000 0.575783 0.250000
Si Si7 0.078776 0.363400 0.934679
O O1 0.632736 0.811051 0.187100
O O2 0.863276 0.750888 0.178542
O O3 0.873142 0.963525 0.239928
O O4 0.873297 0.693754 0.265774
O O5 0.622182 0.789618 0.395614
O O6 0.557753 0.683651 0.300187
O O7 0.562090 0.976816 0.318960
O O8 0.497365 0.157526 0.371085
O O9 0.069250 0.527989 0.949928
O O10 0.974022 0.783170 0.943744
O O11 0.250000 0.750000 0.000000
O O12 0.251504 0.150209 0.046335
O O13 0.033453 0.253853 0.966177
O O14 0.000000 0.000000 0.000000
#
# Coordination Sequence:
#
# PCOD9283353 Si02
#       7
#     8   8   8   8   8   4   8
#     4  10  21  40  60  88 123 149 200 244 303 358
#     4  11  22  40  63  85 122 158 197 245 297 357
#     4   9  20  39  61  86 119 156 193 247 298 357
#     4  11  23  43  59  90 125 163 205 246 303 361
#     4  11  22  39  63  86 120 160 205 248 300 356
#     4  10  22  38  60  96 112 152 202 244 298 358
#     4  10  22  41  61  89 121 158 205 251 302 359
#
# _framework density 20.999006000000001
#
# number of rings (size 3 to 8) (size 9 to 14) (size 15 to 20)
#    0.000    1.846    1.538    3.231    0.000    2.462 
#   11.077    3.077    0.000    0.000    0.000    0.000 
#    0.000    0.000    0.000    0.000    0.000    0.000 
#
# Total GULP energy -145255.336459 kJ/mol
# GULP energy per Si atom -5586.743710 kJ/mol
# Density = 2.095121 g / cm^3
# Si number density = 20.999006 Si / 1000 Ang^3
#
#
#
# Elastic Constant Matrix: (Units=GPa)
#
#
# Indices 1 2 3 4 5 6 
#
# 1 24.1668 4.8558 -13.3057 0.0000 2.6302 0.0000
# 2 4.8558 144.0629 57.2737 0.0000 -24.9104 0.0000
# 3 -13.3057 57.2737 113.0707 0.0000 -4.5133 0.0000
# 4 0.0000 0.0000 0.0000 28.3755 0.0000 -13.5606
# 5 2.6302 -24.9104 -4.5133 0.0000 23.6048 0.0000
# 6 0.0000 0.0000 0.0000 -13.5606 0.0000 31.7067
#
#
#
# Elastic Compliance Matrix: (Units=1/GPa)
#
#
# Indices 1 2 3 4 5 6 
#
# 1 0.048967 -0.007157 0.008937 0.000000 -0.011301 0.000000
# 2 -0.007157 0.011776 -0.006327 0.000000 0.012015 0.000000
# 3 0.008937 -0.006327 0.012893 0.000000 -0.005208 0.000000
# 4 0.000000 0.000000 0.000000 0.044295 0.000000 0.018944
# 5 -0.011301 0.012015 -0.005208 0.000000 0.055307 0.000000
# 6 0.000000 0.000000 0.000000 0.018944 0.000000 0.039641
#
#
# Mechanical properties :
#
#
# Convention : Reuss Voigt Hill
#
# Bulk Modulus (GPa) = 15.49439 42.10533 28.79986
# Shear Modulus (GPa) = 20.53481 32.23584 26.38532
#
# Velocity S-wave (km/s) = 3.13052 3.92230 3.54856
# Velocity P-wave (km/s) = 4.52344 6.37238 5.52579
#
# Compressibility (1/GPa) = 0.06453949
#
# Stress axis : x y z
#
# Youngs Moduli (GPa) = 20.42175 84.92067 77.56274
#
# Poissons Ratio (x) = 0.60781 -0.69315
# Poissons Ratio (y) = 0.14617 0.49077
# Poissons Ratio (z) = -0.18250 0.53733
#
# Static dielectric constant tensor:
#      x y z
#    x 1.748780 0.000000 0.028210 
#    y 0.000000 1.735520 0.000000 
#    z 0.028210 0.000000 1.718800 
# 
# From -- ./inp_files/291702.got.cif
#   From: 2010.05.17/outbox.cif.g08.bks.cpg/sg15_146_cif.got.tgz:291702.got - 2010.06.03 18:47:42.
