data_PCOD9283788
_publ_section_title
;
Structure prediction by ZEFSAII (Michael W. Deem and Ramdas Pophale) SiO2 
 PCOD9283788
Probable space group: C 2/C
;
_chemical_formula_sum "Si O2"
_cell_formula_units_Z 40
_cell_length_a 12.097783
_cell_length_b 8.711139
_cell_length_c 14.877001
_cell_angle_alpha 90.000000
_cell_angle_beta 107.965040
_cell_angle_gamma 90.000000
_cell_volume 1491.380511
_symmetry_space_group_name_H-M "C 2/C"
_symmetry_group_IT_number 15
_symmetry_cell_setting 'monoclinic'
loop_
_space_group_symop_operation_xyz
x,y,z
-x,y,1/2-z
-x,-y,-z
x,-y,1/2+z
1/2+x,1/2+y,z
1/2-x,1/2+y,1/2-z
1/2-x,1/2-y,-z
1/2+x,1/2-y,1/2+z
loop_
_atom_site_type_symbol
_atom_site_label
_atom_site_fract_x
_atom_site_fract_y
_atom_site_fract_z
Si Si1 0.232662 0.428354 0.683525
Si Si2 0.198267 0.422438 0.881941
Si Si3 0.492193 0.100039 0.906597
Si Si4 0.389627 0.649645 0.955937
Si Si5 0.073620 0.878285 0.352976
O O1 0.241414 0.398285 0.791398
O O2 0.182447 0.282534 0.616498
O O3 0.351903 0.485839 0.670992
O O4 0.139239 0.568305 0.654459
O O5 0.082893 0.526831 0.860028
O O6 0.296963 0.519325 0.957956
O O7 0.156710 0.258663 0.906877
O O8 0.540606 0.264002 0.948289
O O9 0.500000 0.000000 0.000000
O O10 0.482191 0.587669 0.907602
O O11 0.000000 0.811538 0.250000
#
# Coordination Sequence:
#
# PCOD9283788 Si02
#       5
#     8   8   8   8   8
#     4  11  22  40  68  94 123 169 208 258 313 371
#     4  12  20  41  70  87 128 171 205 255 315 367
#     4  10  21  40  64  93 127 168 204 256 317 368
#     4  11  24  43  63  95 127 163 209 260 312 372
#     4  12  22  42  65  92 126 162 209 262 310 367
#
# _framework density 26.820786999999999
#
# number of rings (size 3 to 8) (size 9 to 14) (size 15 to 20)
#    0.000    0.800    8.000    1.200    0.000    0.800 
#    3.600    2.000    0.000    0.000    0.000    0.000 
#    0.000    0.000    0.000    0.000    0.000    0.000 
#
# Total GULP energy -112271.006041 kJ/mol
# GULP energy per Si atom -5613.550302 kJ/mol
# Density = 2.675974 g / cm^3
# Si number density = 26.820787 Si / 1000 Ang^3
#
#
#
# Elastic Constant Matrix: (Units=GPa)
#
#
# Indices 1 2 3 4 5 6 
#
# 1 162.9798 63.8600 12.1291 0.0000 -15.2848 0.0000
# 2 63.8600 158.3419 31.3494 0.0000 -1.7721 0.0000
# 3 12.1291 31.3494 66.9361 0.0000 -2.6560 0.0000
# 4 0.0000 0.0000 0.0000 28.7411 0.0000 0.0968
# 5 -15.2848 -1.7721 -2.6560 0.0000 48.2408 0.0000
# 6 0.0000 0.0000 0.0000 0.0968 0.0000 66.7820
#
#
#
# Elastic Compliance Matrix: (Units=1/GPa)
#
#
# Indices 1 2 3 4 5 6 
#
# 1 0.007530 -0.003041 0.000150 0.000000 0.002282 0.000000
# 2 -0.003041 0.008189 -0.003318 0.000000 -0.000845 0.000000
# 3 0.000150 -0.003318 0.016499 0.000000 0.000834 0.000000
# 4 0.000000 0.000000 0.000000 0.034793 0.000000 -0.000050
# 5 0.002282 -0.000845 0.000834 0.000000 0.021467 0.000000
# 6 0.000000 0.000000 0.000000 -0.000050 0.000000 0.014974
#
#
# Mechanical properties :
#
#
# Convention : Reuss Voigt Hill
#
# Bulk Modulus (GPa) = 50.50112 66.99276 58.74694
# Shear Modulus (GPa) = 40.82558 47.48073 44.15316
#
# Velocity S-wave (km/s) = 3.90572 4.21205 4.06178
# Velocity P-wave (km/s) = 6.26175 6.97763 6.62936
#
# Compressibility (1/GPa) = 0.01980154
#
# Stress axis : x y z
#
# Youngs Moduli (GPa) = 132.79815 122.10859 60.60811
#
# Poissons Ratio (x) = 0.37136 -0.00912
# Poissons Ratio (y) = 0.40387 0.20110
# Poissons Ratio (z) = -0.01997 0.40515
#
# Static dielectric constant tensor:
#      x y z
#    x 2.034440 0.000000 0.064540 
#    y 0.000000 2.117570 0.000000 
#    z 0.064540 0.000000 2.120900 
# 
# From -- ./inp_files/195063.got.cif
#   From: 2010.05.17/outbox.cif.g08.bks.cpg/sg15_98_cif.got.tgz:195063.got - 2010.06.03 18:47:42.
