data_PCOD9283554
_publ_section_title
;
Structure prediction by ZEFSAII (Michael W. Deem and Ramdas Pophale) SiO2 
 PCOD9283554
Probable space group: C 2/C
;
_chemical_formula_sum "Si O2"
_cell_formula_units_Z 56
_cell_length_a 27.452962
_cell_length_b 8.952434
_cell_length_c 19.855557
_cell_angle_alpha 90.000000
_cell_angle_beta 33.654705
_cell_angle_gamma 90.000000
_cell_volume 2704.384244
_symmetry_space_group_name_H-M "C 2/C"
_symmetry_group_IT_number 15
_symmetry_cell_setting 'monoclinic'
loop_
_space_group_symop_operation_xyz
x,y,z
-x,y,1/2-z
-x,-y,-z
x,-y,1/2+z
1/2+x,1/2+y,z
1/2-x,1/2+y,1/2-z
1/2-x,1/2-y,-z
1/2+x,1/2-y,1/2+z
loop_
_atom_site_type_symbol
_atom_site_label
_atom_site_fract_x
_atom_site_fract_y
_atom_site_fract_z
Si Si1 0.551056 0.197901 0.283735
Si Si2 0.679087 0.714303 0.877984
Si Si3 0.102180 0.100688 0.504633
Si Si4 0.515925 0.072644 0.554791
Si Si5 0.184472 0.697934 0.017515
Si Si6 0.322542 0.381044 0.272123
Si Si7 0.625309 0.692640 0.322579
O O1 0.488412 0.343043 0.357842
O O2 0.596286 0.164948 0.160091
O O3 0.626244 0.246192 0.250849
O O4 0.500779 0.054728 0.370762
O O5 0.700153 0.665096 0.777200
O O6 0.773913 0.752015 0.800004
O O7 0.627512 0.572461 0.968728
O O8 0.611392 0.852299 0.952294
O O9 0.170739 0.175916 0.476952
O O10 0.105277 0.174006 0.425989
O O11 0.442069 0.201471 0.638448
O O12 0.500000 0.000000 0.500000
O O13 0.250000 0.750000 0.000000
O O14 0.237404 0.575651 0.914204
O O15 0.382798 0.526127 0.196716
#
# Coordination Sequence:
#
# PCOD9283554 Si02
#       7
#     8   8   8   8   8   8   8
#     4  11  23  40  69  89 133 172 217 260 324 397
#     4  11  24  38  68  98 133 165 214 273 339 378
#     4  11  22  40  64  91 125 171 219 260 328 381
#     4  12  24  40  64 106 136 163 211 276 333 381
#     4  10  23  40  65  89 123 171 222 259 310 397
#     4  10  21  40  62  94 127 167 215 259 326 382
#     4  11  24  38  68  96 137 161 211 279 330 377
#
# _framework density 20.707118000000001
#
# number of rings (size 3 to 8) (size 9 to 14) (size 15 to 20)
#    0.000    1.143    4.286    1.286   10.000    2.286 
#    0.000    0.714    6.286    0.000    0.000    0.000 
#    0.000    0.000    0.000    0.000    0.000    0.000 
#
# Total GULP energy -156272.883932 kJ/mol
# GULP energy per Si atom -5581.174426 kJ/mol
# Density = 2.065999 g / cm^3
# Si number density = 20.707118 Si / 1000 Ang^3
#
#
#
# Elastic Constant Matrix: (Units=GPa)
#
#
# Indices 1 2 3 4 5 6 
#
# 1 51.9179 -2.2654 6.2021 0.0017 0.2993 -0.0006
# 2 -2.2654 46.0193 17.7684 0.0009 18.0469 -0.0003
# 3 6.2021 17.7684 113.3379 0.0012 11.2198 -0.0004
# 4 0.0017 0.0009 0.0012 30.2636 0.0000 -8.1126
# 5 0.2993 18.0469 11.2198 0.0000 41.1693 0.0001
# 6 -0.0006 -0.0003 -0.0004 -8.1126 0.0001 28.6363
#
#
#
# Elastic Compliance Matrix: (Units=1/GPa)
#
#
# Indices 1 2 3 4 5 6 
#
# 1 0.019489 0.001655 -0.001275 -0.000001 -0.000520 0.000000
# 2 0.001655 0.027455 -0.003291 -0.000001 -0.011150 0.000000
# 3 -0.001275 -0.003291 0.009522 0.000000 -0.001143 0.000000
# 4 -0.000001 -0.000001 0.000000 0.035759 0.000000 0.010130
# 5 -0.000520 -0.011150 -0.001143 0.000000 0.029493 0.000000
# 6 0.000000 0.000000 0.000000 0.010130 0.000000 0.037791
#
#
# Mechanical properties :
#
#
# Convention : Reuss Voigt Hill
#
# Bulk Modulus (GPa) = 19.74518 28.29836 24.02177
# Shear Modulus (GPa) = 27.44090 32.65183 30.04637
#
# Velocity S-wave (km/s) = 3.64427 3.97525 3.81335
# Velocity P-wave (km/s) = 5.22147 5.89626 5.56909
#
# Compressibility (1/GPa) = 0.05064528
#
# Stress axis : x y z
#
# Youngs Moduli (GPa) = 51.31186 36.42352 105.01974
#
# Poissons Ratio (x) = -0.06029 0.13385
# Poissons Ratio (y) = -0.08494 0.34562
# Poissons Ratio (z) = 0.06540 0.11987
#
# Static dielectric constant tensor:
#      x y z
#    x 1.768250 0.000000 -0.051980 
#    y 0.000000 1.730960 0.000000 
#    z -0.051980 0.000000 1.819050 
# 
# From -- ./inp_files/258944.got.cif
#   From: 2010.05.17/outbox.cif.g08.bks.cpg/sg15_130_cif.got.tgz:258944.got - 2010.06.03 18:47:42.
