data_PCOD9283062
_publ_section_title
;
Structure prediction by ZEFSAII (Michael W. Deem and Ramdas Pophale) SiO2 
 PCOD9283062
Probable space group: C 2/C
;
_chemical_formula_sum "Si O2"
_cell_formula_units_Z 44
_cell_length_a 16.593759
_cell_length_b 7.259144
_cell_length_c 16.108062
_cell_angle_alpha 90.000000
_cell_angle_beta 115.245868
_cell_angle_gamma 90.000000
_cell_volume 1754.992587
_symmetry_space_group_name_H-M "C 2/C"
_symmetry_group_IT_number 15
_symmetry_cell_setting 'monoclinic'
loop_
_space_group_symop_operation_xyz
x,y,z
-x,y,1/2-z
-x,-y,-z
x,-y,1/2+z
1/2+x,1/2+y,z
1/2-x,1/2+y,1/2-z
1/2-x,1/2-y,-z
1/2+x,1/2-y,1/2+z
loop_
_atom_site_type_symbol
_atom_site_label
_atom_site_fract_x
_atom_site_fract_y
_atom_site_fract_z
Si Si1 0.673122 0.713831 0.030673
Si Si2 0.956841 0.930310 0.565377
Si Si3 0.811058 0.837445 0.220681
Si Si4 0.877134 0.572640 0.553973
Si Si5 0.500000 0.350035 0.250000
Si Si6 0.264151 0.267703 0.639183
O O1 0.721680 0.753237 0.138435
O O2 0.750000 0.750000 0.000000
O O3 0.641450 0.510248 0.995690
O O4 0.601622 0.866192 0.967590
O O5 0.988773 0.028717 0.662264
O O6 0.958652 0.713019 0.578662
O O7 0.000000 0.000000 0.500000
O O8 0.904340 0.752180 0.227177
O O9 0.792862 0.814928 0.309988
O O10 0.815939 0.052746 0.197553
O O11 0.803677 0.639719 0.455246
O O12 0.831202 0.626762 0.622014
#
# Coordination Sequence:
#
# PCOD9283062 Si02
#       6
#     8   8   8   8   4   8
#     4  11  23  44  71  98 131 192 237 281 356 427
#     4  12  26  44  73 101 148 190 228 305 364 412
#     4  11  24  39  70  99 133 181 236 285 351 421
#     4  10  22  44  66  99 139 181 231 286 350 425
#     4  12  24  44  62 106 140 176 244 290 360 420
#     4  10  21  39  66  99 129 176 238 280 339 424
#
# _framework density 25.071332000000002
#
# number of rings (size 3 to 8) (size 9 to 14) (size 15 to 20)
#    0.000    1.091    3.636    3.273    7.636    0.727 
#    0.000    0.909    0.000    0.000    0.000    0.000 
#    0.000    0.000    0.000    0.000    0.000    0.000 
#
# Total GULP energy -122914.943145 kJ/mol
# GULP energy per Si atom -5587.042870 kJ/mol
# Density = 2.501427 g / cm^3
# Si number density = 25.071332 Si / 1000 Ang^3
#
#
#
# Elastic Constant Matrix: (Units=GPa)
#
#
# Indices 1 2 3 4 5 6 
#
# 1 66.8529 -2.8591 33.8059 0.0000 -23.8730 0.0000
# 2 -2.8591 102.7387 22.2238 0.0000 4.7685 0.0000
# 3 33.8059 22.2238 132.0427 0.0000 -31.9661 0.0000
# 4 0.0000 0.0000 0.0000 28.8190 0.0000 -4.0474
# 5 -23.8730 4.7685 -31.9661 0.0000 44.3032 0.0000
# 6 0.0000 0.0000 0.0000 -4.0474 0.0000 26.3109
#
#
#
# Elastic Compliance Matrix: (Units=1/GPa)
#
#
# Indices 1 2 3 4 5 6 
#
# 1 0.019500 0.000850 -0.003167 0.000000 0.008131 0.000000
# 2 0.000850 0.010434 -0.002587 0.000000 -0.002531 0.000000
# 3 -0.003167 -0.002587 0.010267 0.000000 0.005980 0.000000
# 4 0.000000 0.000000 0.000000 0.035466 0.000000 0.005456
# 5 0.008131 -0.002531 0.005980 0.000000 0.031540 0.000000
# 6 0.000000 0.000000 0.000000 0.005456 0.000000 0.038846
#
#
# Mechanical properties :
#
#
# Convention : Reuss Voigt Hill
#
# Bulk Modulus (GPa) = 32.90106 45.33061 39.11584
# Shear Modulus (GPa) = 30.12213 36.45087 33.28650
#
# Velocity S-wave (km/s) = 3.46996 3.81712 3.64768
# Velocity P-wave (km/s) = 5.40423 6.12757 5.77723
#
# Compressibility (1/GPa) = 0.03039415
#
# Stress axis : x y z
#
# Youngs Moduli (GPa) = 51.28315 95.83964 97.39794
#
# Poissons Ratio (x) = -0.08150 0.30847
# Poissons Ratio (y) = -0.04361 0.25193
# Poissons Ratio (z) = 0.16242 0.24790
#
# Static dielectric constant tensor:
#      x y z
#    x 2.064640 0.000000 0.103150 
#    y 0.000000 2.013510 0.000000 
#    z 0.103150 0.000000 2.042600 
# 
# From -- ./inp_files/159813.got.cif
#   From: 2010.05.17/outbox.cif.g08.bks.cpg/sg15_80_cif.got.tgz:159813.got - 2010.06.03 18:47:42.
