data_PCOD9283143
_publ_section_title
;
Structure prediction by ZEFSAII (Michael W. Deem and Ramdas Pophale) SiO2 
 PCOD9283143
Probable space group: C 2/C
;
_chemical_formula_sum "Si O2"
_cell_formula_units_Z 56
_cell_length_a 8.155434
_cell_length_b 12.495798
_cell_length_c 26.811266
_cell_angle_alpha 90.000000
_cell_angle_beta 62.045340
_cell_angle_gamma 90.000000
_cell_volume 2413.492095
_symmetry_space_group_name_H-M "C 2/C"
_symmetry_group_IT_number 15
_symmetry_cell_setting 'monoclinic'
loop_
_space_group_symop_operation_xyz
x,y,z
-x,y,1/2-z
-x,-y,-z
x,-y,1/2+z
1/2+x,1/2+y,z
1/2-x,1/2+y,1/2-z
1/2-x,1/2-y,-z
1/2+x,1/2-y,1/2+z
loop_
_atom_site_type_symbol
_atom_site_label
_atom_site_fract_x
_atom_site_fract_y
_atom_site_fract_z
Si Si1 0.623609 0.606230 0.609038
Si Si2 0.520588 0.783503 0.190343
Si Si3 0.650797 0.217308 0.185784
Si Si4 0.568366 0.800579 0.497989
Si Si5 0.609058 0.405442 0.458193
Si Si6 0.419422 0.992701 0.857833
Si Si7 0.287941 0.105870 0.116064
O O1 0.576780 0.690283 0.658994
O O2 0.831614 0.638667 0.561052
O O3 0.483094 0.613703 0.583005
O O4 0.639095 0.483283 0.622118
O O5 0.500000 0.746803 0.250000
O O6 0.335986 0.759472 0.185423
O O7 0.686204 0.716536 0.141902
O O8 0.554713 0.910425 0.183843
O O9 0.500000 0.194185 0.250000
O O10 0.687798 0.108888 0.149419
O O11 0.750000 0.750000 0.500000
O O12 0.433164 0.701565 0.504795
O O13 0.446821 0.873841 0.551928
O O14 0.500000 0.500000 0.500000
O O15 0.812896 0.449685 0.418745
O O16 0.609266 0.942009 0.850443
#
# Coordination Sequence:
#
# PCOD9283143 Si02
#       7
#     8   8   8   8   8   8   8
#     4  11  24  44  72 107 149 193 251 303 370 445
#     4  12  28  48  73 108 143 189 252 309 375 441
#     4  12  27  50  75 104 144 196 248 309 376 441
#     4  10  21  39  68 103 144 191 234 295 360 431
#     4  11  22  41  70 107 149 193 242 301 369 441
#     4  12  24  47  74 105 146 191 246 297 379 435
#     4  12  24  47  71 107 150 189 243 309 359 452
#
# _framework density 23.202894000000001
#
# number of rings (size 3 to 8) (size 9 to 14) (size 15 to 20)
#    0.000    0.571    2.857    6.857    2.000    0.571 
#    2.571    2.143    0.000    0.000    0.000    0.000 
#    0.000    0.000    0.000    0.000    0.000    0.000 
#
# Total GULP energy -156739.190724 kJ/mol
# GULP energy per Si atom -5597.828240 kJ/mol
# Density = 2.315008 g / cm^3
# Si number density = 23.202894 Si / 1000 Ang^3
#
#
#
# Elastic Constant Matrix: (Units=GPa)
#
#
# Indices 1 2 3 4 5 6 
#
# 1 73.2671 16.3993 -8.4749 0.0000 0.4046 0.0000
# 2 16.3993 133.8182 -2.1533 0.0000 -1.2297 0.0000
# 3 -8.4749 -2.1533 47.0004 0.0000 -12.3027 0.0000
# 4 0.0000 0.0000 0.0000 29.3976 0.0000 4.9428
# 5 0.4046 -1.2297 -12.3027 0.0000 23.7588 0.0000
# 6 0.0000 0.0000 0.0000 4.9428 0.0000 11.7708
#
#
#
# Elastic Compliance Matrix: (Units=1/GPa)
#
#
# Indices 1 2 3 4 5 6 
#
# 1 0.014348 -0.001703 0.002802 0.000000 0.001118 0.000000
# 2 -0.001703 0.007689 0.000182 0.000000 0.000521 0.000000
# 3 0.002802 0.000182 0.025195 0.000000 0.013008 0.000000
# 4 0.000000 0.000000 0.000000 0.036600 0.000000 -0.015369
# 5 0.001118 0.000521 0.013008 0.000000 0.048833 0.000000
# 6 0.000000 0.000000 0.000000 -0.015369 0.000000 0.091410
#
#
# Mechanical properties :
#
#
# Convention : Reuss Voigt Hill
#
# Bulk Modulus (GPa) = 20.08320 29.51423 24.79872
# Shear Modulus (GPa) = 20.99847 29.53974 25.26911
#
# Velocity S-wave (km/s) = 3.01157 3.57193 3.30366
# Velocity P-wave (km/s) = 4.55709 5.45521 5.02625
#
# Compressibility (1/GPa) = 0.04979285
#
# Stress axis : x y z
#
# Youngs Moduli (GPa) = 69.69723 130.05206 39.69059
#
# Poissons Ratio (x) = 0.22147 -0.11121
# Poissons Ratio (y) = 0.11869 -0.00721
# Poissons Ratio (z) = -0.19528 -0.02362
#
# Static dielectric constant tensor:
#      x y z
#    x 1.880970 0.000000 -0.016990 
#    y 0.000000 1.876380 0.000000 
#    z -0.016990 0.000000 1.937020 
# 
# From -- ./inp_files/307415.got.cif
#   From: 2010.05.17/outbox.cif.g08.bks.cpg/sg15_154_cif.got.tgz:307415.got - 2010.06.03 18:47:42.
