data_PCOD9283490
_publ_section_title
;
Structure prediction by ZEFSAII (Michael W. Deem and Ramdas Pophale) SiO2 
 PCOD9283490
Probable space group: C 2/C
;
_chemical_formula_sum "Si O2"
_cell_formula_units_Z 48
_cell_length_a 10.838000
_cell_length_b 12.633725
_cell_length_c 17.141643
_cell_angle_alpha 90.000000
_cell_angle_beta 59.274064
_cell_angle_gamma 90.000000
_cell_volume 2017.623220
_symmetry_space_group_name_H-M "C 2/C"
_symmetry_group_IT_number 15
_symmetry_cell_setting 'monoclinic'
loop_
_space_group_symop_operation_xyz
x,y,z
-x,y,1/2-z
-x,-y,-z
x,-y,1/2+z
1/2+x,1/2+y,z
1/2-x,1/2+y,1/2-z
1/2-x,1/2-y,-z
1/2+x,1/2-y,1/2+z
loop_
_atom_site_type_symbol
_atom_site_label
_atom_site_fract_x
_atom_site_fract_y
_atom_site_fract_z
Si Si1 0.598812 0.094214 0.291493
Si Si2 0.780763 0.085066 0.988879
Si Si3 0.172659 0.605073 0.857913
Si Si4 0.087580 0.836311 0.336673
Si Si5 0.807765 0.146266 0.526584
Si Si6 0.630089 0.334205 0.880366
O O1 0.500000 0.065550 0.250000
O O2 0.555474 0.212158 0.332220
O O3 0.765449 0.105568 0.211670
O O4 0.597984 0.001142 0.354117
O O5 0.682258 0.110535 0.947647
O O6 0.942193 0.101726 0.903124
O O7 0.739995 0.966128 0.027201
O O8 0.782924 0.156866 0.065716
O O9 0.327171 0.617255 0.764812
O O10 0.102842 0.716403 0.857740
O O11 0.187692 0.839631 0.381567
O O12 0.750000 0.250000 0.500000
O O13 0.973155 0.124725 0.448652
#
# Coordination Sequence:
#
# PCOD9283490 Si02
#       6
#     8   8   8   8   8   8
#     4  11  23  41  62  90 125 163 206 260 317 376
#     4  11  21  40  64  88 122 166 206 249 308 383
#     4  11  22  37  61  92 121 157 207 262 309 363
#     4  10  21  40  62  87 124 169 209 246 313 393
#     4  11  23  41  64  92 123 160 207 262 311 365
#     4  10  23  41  62  89 123 163 205 249 311 378
#
# _framework density 23.790369999999999
#
# number of rings (size 3 to 8) (size 9 to 14) (size 15 to 20)
#    0.000    1.333    0.000    8.000    0.000    4.000 
#    0.000   10.833    0.000    0.000    0.000    0.000 
#    0.000    0.000    0.000    0.000    0.000    0.000 
#
# Total GULP energy -134206.954199 kJ/mol
# GULP energy per Si atom -5591.956425 kJ/mol
# Density = 2.373622 g / cm^3
# Si number density = 23.790370 Si / 1000 Ang^3
#
#
#
# Elastic Constant Matrix: (Units=GPa)
#
#
# Indices 1 2 3 4 5 6 
#
# 1 52.9101 27.2835 12.2381 0.0000 -0.4957 0.0000
# 2 27.2835 161.9572 24.4475 0.0000 22.8775 0.0000
# 3 12.2381 24.4475 71.3607 0.0000 -6.0468 0.0000
# 4 0.0000 0.0000 0.0000 34.9609 0.0000 12.1455
# 5 -0.4957 22.8775 -6.0468 0.0000 42.7961 0.0000
# 6 0.0000 0.0000 0.0000 12.1455 0.0000 17.0794
#
#
#
# Elastic Compliance Matrix: (Units=1/GPa)
#
#
# Indices 1 2 3 4 5 6 
#
# 1 0.021245 -0.003484 -0.002299 0.000000 0.001784 0.000000
# 2 -0.003484 0.007773 -0.002450 0.000000 -0.004542 0.000000
# 3 -0.002299 -0.002450 0.015542 0.000000 0.003479 0.000000
# 4 0.000000 0.000000 0.000000 0.037988 0.000000 -0.027014
# 5 0.001784 -0.004542 0.003479 0.000000 0.026307 0.000000
# 6 0.000000 0.000000 0.000000 -0.027014 0.000000 0.077760
#
#
# Mechanical properties :
#
#
# Convention : Reuss Voigt Hill
#
# Bulk Modulus (GPa) = 35.59517 46.01847 40.80682
# Shear Modulus (GPa) = 23.53551 33.78455 28.66003
#
# Velocity S-wave (km/s) = 3.14871 3.77250 3.47463
# Velocity P-wave (km/s) = 5.31165 6.19363 5.76952
#
# Compressibility (1/GPa) = 0.02809370
#
# Stress axis : x y z
#
# Youngs Moduli (GPa) = 47.07010 128.65426 64.34271
#
# Poissons Ratio (x) = 0.44822 0.14791
# Poissons Ratio (y) = 0.16399 0.15766
# Poissons Ratio (z) = 0.10820 0.31523
#
# Static dielectric constant tensor:
#      x y z
#    x 1.936190 0.000000 -0.037810 
#    y 0.000000 1.858750 0.000000 
#    z -0.037810 0.000000 1.907480 
# 
# From -- ./inp_files/196488.got.cif
#   From: 2010.05.17/outbox.cif.g08.bks.cpg/sg15_99_cif.got.tgz:196488.got - 2010.06.03 18:47:42.
