data_PCOD9283442
_publ_section_title
;
Structure prediction by ZEFSAII (Michael W. Deem and Ramdas Pophale) SiO2 
 PCOD9283442
Probable space group: C 2/C
;
_chemical_formula_sum "Si O2"
_cell_formula_units_Z 56
_cell_length_a 8.620315
_cell_length_b 10.661321
_cell_length_c 28.278728
_cell_angle_alpha 90.000000
_cell_angle_beta 116.672748
_cell_angle_gamma 90.000000
_cell_volume 2322.361891
_symmetry_space_group_name_H-M "C 2/C"
_symmetry_group_IT_number 15
_symmetry_cell_setting 'monoclinic'
loop_
_space_group_symop_operation_xyz
x,y,z
-x,y,1/2-z
-x,-y,-z
x,-y,1/2+z
1/2+x,1/2+y,z
1/2-x,1/2+y,1/2-z
1/2-x,1/2-y,-z
1/2+x,1/2-y,1/2+z
loop_
_atom_site_type_symbol
_atom_site_label
_atom_site_fract_x
_atom_site_fract_y
_atom_site_fract_z
Si Si1 0.500000 0.027974 0.250000
Si Si2 0.303700 0.270724 0.437276
Si Si3 0.959045 0.715097 0.951138
Si Si4 0.294124 0.303188 0.679066
Si Si5 0.745547 0.463767 0.552491
Si Si6 0.692243 0.721873 0.215516
Si Si7 0.500000 0.000000 0.500000
Si Si8 0.426086 0.046829 0.841134
O O1 0.332316 0.117023 0.222292
O O2 0.512661 0.945610 0.205179
O O3 0.432463 0.177138 0.483752
O O4 0.289753 0.252674 0.380022
O O5 0.372250 0.410298 0.458603
O O6 0.116007 0.253857 0.436886
O O7 0.834488 0.830486 0.943424
O O8 0.893951 0.574133 0.937965
O O9 0.255597 0.233973 0.723732
O O10 0.496582 0.324965 0.696448
O O11 0.210395 0.437712 0.674505
O O12 0.827380 0.468795 0.511973
O O13 0.900533 0.502550 0.609240
O O14 0.672256 0.820085 0.169532
#
# Coordination Sequence:
#
# PCOD9283442 Si02
#       8
#     4   8   8   8   8   8   4   8
#     4  10  24  38  64  92 122 160 218 260 318 394
#     4  10  21  40  61  92 129 169 219 270 325 394
#     4  10  22  39  63  93 130 174 221 268 332 391
#     4  10  21  40  65  89 128 169 209 266 329 383
#     4  11  22  38  65  90 130 173 214 272 326 391
#     4  10  22  42  61  90 128 164 208 271 317 387
#     4  10  22  38  58  88 128 164 216 272 310 388
#     4  11  23  40  65  94 126 169 214 262 329 385
#
# _framework density 24.113382000000001
#
# number of rings (size 3 to 8) (size 9 to 14) (size 15 to 20)
#    0.000    1.714    1.429    2.571    2.000    2.286 
#    0.000    4.286    0.000    0.000    0.000    0.000 
#    0.000    0.000    0.000    0.000    0.000    0.000 
#
# Total GULP energy -155974.165870 kJ/mol
# GULP energy per Si atom -5570.505924 kJ/mol
# Density = 2.405850 g / cm^3
# Si number density = 24.113382 Si / 1000 Ang^3
#
#
#
# Elastic Constant Matrix: (Units=GPa)
#
#
# Indices 1 2 3 4 5 6 
#
# 1 46.1802 38.4956 -7.0820 0.0000 -4.5327 0.0000
# 2 38.4956 108.9969 6.5092 0.0000 9.1526 0.0000
# 3 -7.0820 6.5092 81.3196 0.0000 6.6667 0.0000
# 4 0.0000 0.0000 0.0000 43.0374 0.0000 4.0411
# 5 -4.5327 9.1526 6.6667 0.0000 26.1615 0.0000
# 6 0.0000 0.0000 0.0000 4.0411 0.0000 52.9882
#
#
#
# Elastic Compliance Matrix: (Units=1/GPa)
#
#
# Indices 1 2 3 4 5 6 
#
# 1 0.033898 -0.012969 0.003204 0.000000 0.009594 0.000000
# 2 -0.012969 0.014434 -0.001723 0.000000 -0.006858 0.000000
# 3 0.003204 -0.001723 0.012888 0.000000 -0.002127 0.000000
# 4 0.000000 0.000000 0.000000 0.023403 0.000000 -0.001785
# 5 0.009594 -0.006858 -0.002127 0.000000 0.042827 0.000000
# 6 0.000000 0.000000 0.000000 -0.001785 0.000000 0.019008
#
#
# Mechanical properties :
#
#
# Convention : Reuss Voigt Hill
#
# Bulk Modulus (GPa) = 26.14764 34.70468 30.42616
# Shear Modulus (GPa) = 27.44487 37.67568 32.56028
#
# Velocity S-wave (km/s) = 3.37732 3.95706 3.67863
# Velocity P-wave (km/s) = 5.10642 5.94149 5.53971
#
# Compressibility (1/GPa) = 0.03824437
#
# Stress axis : x y z
#
# Youngs Moduli (GPa) = 29.50005 69.28213 77.58920
#
# Poissons Ratio (x) = 0.89853 -0.24858
# Poissons Ratio (y) = 0.38259 0.13366
# Poissons Ratio (z) = -0.09451 0.11935
#
# Static dielectric constant tensor:
#      x y z
#    x 1.909210 0.000000 -0.029790 
#    y 0.000000 2.322390 0.000000 
#    z -0.029790 0.000000 2.215930 
# 
# From -- ./inp_files/307264.got.cif
#   From: 2010.05.17/outbox.cif.g08.bks.cpg/sg15_154_cif.got.tgz:307264.got - 2010.06.03 18:47:42.
