data_PCOD9283694
_publ_section_title
;
Structure prediction by ZEFSAII (Michael W. Deem and Ramdas Pophale) SiO2 
 PCOD9283694
Probable space group: C 2/C
;
_chemical_formula_sum "Si O2"
_cell_formula_units_Z 44
_cell_length_a 12.596181
_cell_length_b 10.497223
_cell_length_c 25.495414
_cell_angle_alpha 90.000000
_cell_angle_beta 34.036555
_cell_angle_gamma 90.000000
_cell_volume 1886.894177
_symmetry_space_group_name_H-M "C 2/C"
_symmetry_group_IT_number 15
_symmetry_cell_setting 'monoclinic'
loop_
_space_group_symop_operation_xyz
x,y,z
-x,y,1/2-z
-x,-y,-z
x,-y,1/2+z
1/2+x,1/2+y,z
1/2-x,1/2+y,1/2-z
1/2-x,1/2-y,-z
1/2+x,1/2-y,1/2+z
loop_
_atom_site_type_symbol
_atom_site_label
_atom_site_fract_x
_atom_site_fract_y
_atom_site_fract_z
Si Si1 0.396443 0.307365 0.846916
Si Si2 0.463838 0.985231 0.608122
Si Si3 0.284051 0.911073 0.080292
Si Si4 0.500000 0.233870 0.250000
Si Si5 0.697710 0.373039 0.484191
Si Si6 0.818065 0.883417 0.691982
O O1 0.500000 0.315479 0.750000
O O2 0.302718 0.446979 0.894840
O O3 0.239096 0.196580 0.912573
O O4 0.566955 0.281930 0.818824
O O5 0.566023 0.882253 0.527262
O O6 0.288004 0.960122 0.718350
O O7 0.390936 0.082118 0.592778
O O8 0.637825 0.027366 0.572726
O O9 0.110459 0.818289 0.161550
O O10 0.343620 0.157802 0.281674
O O11 0.750000 0.250000 0.500000
O O12 0.005728 0.072462 0.416843
#
# Coordination Sequence:
#
# PCOD9283694 Si02
#       6
#     8   8   8   4   8   8
#     4  11  20  39  68 102 125 164 223 274 328 384
#     4  11  22  40  68  97 132 166 222 273 331 388
#     4  11  21  38  70 101 122 168 229 280 316 380
#     4  12  26  40  62  92 140 178 214 274 322 388
#     4  10  21  40  63  96 132 167 207 272 329 389
#     4  11  24  41  62  93 137 173 214 265 333 387
#
# _framework density 23.318743000000001
#
# number of rings (size 3 to 8) (size 9 to 14) (size 15 to 20)
#    0.000    1.091    6.364    2.182    2.545    0.727 
#    1.636    0.909    0.000    0.000    0.000    0.000 
#    0.000    0.000    0.000    0.000    0.000    0.000 
#
# Total GULP energy -122525.070298 kJ/mol
# GULP energy per Si atom -5569.321377 kJ/mol
# Density = 2.326567 g / cm^3
# Si number density = 23.318743 Si / 1000 Ang^3
#
#
#
# Elastic Constant Matrix: (Units=GPa)
#
#
# Indices 1 2 3 4 5 6 
#
# 1 102.8335 22.3082 25.7370 0.0000 -24.4408 0.0000
# 2 22.3082 15.6854 26.4385 0.0000 -2.2584 0.0000
# 3 25.7370 26.4385 165.8600 -0.0002 -23.1033 0.0000
# 4 0.0000 0.0000 -0.0002 35.7983 0.0000 -2.9861
# 5 -24.4408 -2.2584 -23.1033 0.0000 35.3865 0.0000
# 6 0.0000 0.0000 0.0000 -2.9861 0.0000 22.4570
#
#
#
# Elastic Compliance Matrix: (Units=1/GPa)
#
#
# Indices 1 2 3 4 5 6 
#
# 1 0.018782 -0.031494 0.003996 0.000000 0.013571 0.000000
# 2 -0.031494 0.140466 -0.021214 0.000000 -0.026638 0.000000
# 3 0.003996 -0.021214 0.009886 0.000000 0.007860 0.000000
# 4 0.000000 0.000000 0.000000 0.028248 0.000000 0.003756
# 5 0.013571 -0.026638 0.007860 0.000000 0.041065 0.000000
# 6 0.000000 0.000000 0.000000 0.003756 0.000000 0.045029
#
#
# Mechanical properties :
#
#
# Convention : Reuss Voigt Hill
#
# Bulk Modulus (GPa) = 13.94498 48.14960 31.04729
# Shear Modulus (GPa) = 12.35173 32.72138 22.53655
#
# Velocity S-wave (km/s) = 2.30400 3.75002 3.11216
# Velocity P-wave (km/s) = 3.61539 6.28041 5.12419
#
# Compressibility (1/GPa) = 0.07171039
#
# Stress axis : x y z
#
# Youngs Moduli (GPa) = 53.24270 7.11915 101.15768
#
# Poissons Ratio (x) = 0.22421 -0.40424
# Poissons Ratio (y) = 1.67680 2.14597
# Poissons Ratio (z) = -0.21276 0.15103
#
# Static dielectric constant tensor:
#      x y z
#    x 1.974500 0.000000 0.091530 
#    y 0.000000 1.961810 0.000000 
#    z 0.091530 0.000000 2.066000 
# 
# From -- ./inp_files/292160.got.cif
#   From: 2010.05.17/outbox.cif.g08.bks.cpg/sg15_147_cif.got.tgz:292160.got - 2010.06.03 18:47:42.
