data_PCOD9283548
_publ_section_title
;
Structure prediction by ZEFSAII (Michael W. Deem and Ramdas Pophale) SiO2 
 PCOD9283548
Probable space group: C 2/C
;
_chemical_formula_sum "Si O2"
_cell_formula_units_Z 52
_cell_length_a 27.359089
_cell_length_b 14.140046
_cell_length_c 8.948111
_cell_angle_alpha 90.000000
_cell_angle_beta 39.594652
_cell_angle_gamma 90.000000
_cell_volume 2206.293147
_symmetry_space_group_name_H-M "C 2/C"
_symmetry_group_IT_number 15
_symmetry_cell_setting 'monoclinic'
loop_
_space_group_symop_operation_xyz
x,y,z
-x,y,1/2-z
-x,-y,-z
x,-y,1/2+z
1/2+x,1/2+y,z
1/2-x,1/2+y,1/2-z
1/2-x,1/2-y,-z
1/2+x,1/2-y,1/2+z
loop_
_atom_site_type_symbol
_atom_site_label
_atom_site_fract_x
_atom_site_fract_y
_atom_site_fract_z
Si Si1 0.344227 0.851753 0.213894
Si Si2 0.000000 0.116933 0.750000
Si Si3 0.229475 0.995802 0.947426
Si Si4 0.747081 0.699507 0.242015
Si Si5 0.629106 0.460070 0.449594
Si Si6 0.013679 0.720362 0.976932
Si Si7 0.604329 0.742037 0.956008
O O1 0.310269 0.951981 0.241655
O O2 0.319755 0.770012 0.154267
O O3 0.294955 0.827031 0.479457
O O4 0.433642 0.848165 0.046044
O O5 0.007794 0.184935 0.588822
O O6 0.072402 0.047552 0.588999
O O7 0.162846 0.062182 0.033591
O O8 0.222266 0.896469 0.880805
O O9 0.204507 0.980484 0.174919
O O10 0.806512 0.745905 0.218438
O O11 0.589551 0.369431 0.469543
O O12 0.061669 0.732425 0.710730
O O13 0.929854 0.700653 0.103703
#
# Coordination Sequence:
#
# PCOD9283548 Si02
#       7
#     8   4   8   8   8   8   8
#     4  10  21  42  66  91 131 176 215 269 329 390
#     4  12  24  40  60  96 138 174 202 264 348 402
#     4  12  23  41  64  99 127 174 219 270 325 386
#     4  10  21  40  65  91 131 172 221 269 329 379
#     4  12  24  38  62  97 137 165 215 270 327 397
#     4  10  22  40  63  89 129 176 216 262 331 390
#     4  10  21  40  62  93 127 174 221 268 320 387
#
# _framework density 23.568943999999998
#
# number of rings (size 3 to 8) (size 9 to 14) (size 15 to 20)
#    0.000    1.231    3.077    3.692    2.154    2.462 
#    2.769    0.769    0.000    1.846    0.000    0.000 
#    0.000    0.000    0.000    0.000    0.000    0.000 
#
# Total GULP energy -145299.386118 kJ/mol
# GULP energy per Si atom -5588.437928 kJ/mol
# Density = 2.351530 g / cm^3
# Si number density = 23.568944 Si / 1000 Ang^3
#
#
#
# Elastic Constant Matrix: (Units=GPa)
#
#
# Indices 1 2 3 4 5 6 
#
# 1 157.3570 24.9783 18.2685 0.0000 -2.0250 0.0000
# 2 24.9783 53.4592 14.8403 0.0000 -6.8797 0.0000
# 3 18.2685 14.8403 56.2045 0.0000 5.1812 0.0000
# 4 0.0000 0.0000 0.0000 24.4980 0.0000 -3.2584
# 5 -2.0250 -6.8797 5.1812 0.0000 8.7893 0.0000
# 6 0.0000 0.0000 0.0000 -3.2584 0.0000 30.3088
#
#
#
# Elastic Compliance Matrix: (Units=1/GPa)
#
#
# Indices 1 2 3 4 5 6 
#
# 1 0.006983 -0.002782 -0.001568 0.000000 0.000356 0.000000
# 2 -0.002782 0.025288 -0.007972 0.000000 0.023852 0.000000
# 3 -0.001568 -0.007972 0.022223 0.000000 -0.019701 0.000000
# 4 0.000000 0.000000 0.000000 0.041412 0.000000 0.004452
# 5 0.000356 0.023852 -0.019701 0.000000 0.144141 0.000000
# 6 0.000000 0.000000 0.000000 0.004452 0.000000 0.033472
#
#
# Mechanical properties :
#
#
# Convention : Reuss Voigt Hill
#
# Bulk Modulus (GPa) = 33.49970 42.57720 38.03845
# Shear Modulus (GPa) = 16.22783 26.64811 21.43797
#
# Velocity S-wave (km/s) = 2.62682 3.36615 3.01921
# Velocity P-wave (km/s) = 4.84196 5.76300 5.32244
#
# Compressibility (1/GPa) = 0.02985101
#
# Stress axis : x y z
#
# Youngs Moduli (GPa) = 143.20148 39.54431 44.99861
#
# Poissons Ratio (x) = 0.11000 0.07056
# Poissons Ratio (y) = 0.39834 0.35872
# Poissons Ratio (z) = 0.22456 0.31524
#
# Static dielectric constant tensor:
#      x y z
#    x 1.964420 0.000000 -0.033330 
#    y 0.000000 1.915580 0.000000 
#    z -0.033330 0.000000 1.890170 
# 
# From -- ./inp_files/66134.got.cif
#   From: 2010.05.17/outbox.cif.g08.bks.cpg/sg15_34_cif.got.tgz:66134.got - 2010.06.03 18:47:42.
