data_PCOD9283946
_publ_section_title
;
Structure prediction by ZEFSAII (Michael W. Deem and Ramdas Pophale) SiO2 
 PCOD9283946
Probable space group: C 2/C
;
_chemical_formula_sum "Si O2"
_cell_formula_units_Z 56
_cell_length_a 17.148396
_cell_length_b 7.239323
_cell_length_c 22.944890
_cell_angle_alpha 90.000000
_cell_angle_beta 46.941959
_cell_angle_gamma 90.000000
_cell_volume 2081.249907
_symmetry_space_group_name_H-M "C 2/C"
_symmetry_group_IT_number 15
_symmetry_cell_setting 'monoclinic'
loop_
_space_group_symop_operation_xyz
x,y,z
-x,y,1/2-z
-x,-y,-z
x,-y,1/2+z
1/2+x,1/2+y,z
1/2-x,1/2+y,1/2-z
1/2-x,1/2-y,-z
1/2+x,1/2-y,1/2+z
loop_
_atom_site_type_symbol
_atom_site_label
_atom_site_fract_x
_atom_site_fract_y
_atom_site_fract_z
Si Si1 0.213729 0.169195 0.317133
Si Si2 0.632292 0.091553 0.528751
Si Si3 0.600672 0.178414 0.667378
Si Si4 0.431208 0.150866 0.134581
Si Si5 0.773716 0.994324 0.852853
Si Si6 0.886630 0.898759 0.049793
Si Si7 0.459839 0.502690 0.684580
O O1 0.327878 0.133969 0.228774
O O2 0.125112 0.098417 0.316221
O O3 0.986272 0.488515 0.416388
O O4 0.196690 0.048095 0.383622
O O5 0.654521 0.077986 0.585889
O O6 0.717127 0.988254 0.444123
O O7 0.626973 0.299051 0.504921
O O8 0.500000 0.081061 0.750000
O O9 0.684531 0.278994 0.667064
O O10 0.541456 0.351156 0.665229
O O11 0.295267 0.881088 0.157114
O O12 0.391782 0.227738 0.092735
O O13 0.498610 0.319952 0.129641
O O14 0.889279 0.076043 0.775319
O O15 0.000000 0.000000 0.000000
#
# Coordination Sequence:
#
# PCOD9283946 Si02
#       7
#     8   8   8   8   8   8   8
#     4  10  21  40  65  95 130 170 213 265 327 392
#     4  12  23  38  62  91 127 168 212 265 323 386
#     4  10  23  43  64  88 127 176 217 261 322 398
#     4  10  22  38  62  96 130 167 212 264 327 392
#     4  10  22  41  64  94 130 166 212 268 325 381
#     4  11  23  37  59  95 132 164 207 269 326 376
#     4   9  20  41  65  89 125 171 217 262 319 391
#
# _framework density 26.90691
#
# number of rings (size 3 to 8) (size 9 to 14) (size 15 to 20)
#    0.000    1.714    0.000    4.286    0.000   10.286 
#    0.000    7.857    0.000    0.000    0.000    0.000 
#    0.000    0.000    0.000    0.000    0.000    0.000 
#
# Total GULP energy -156478.525918 kJ/mol
# GULP energy per Si atom -5588.518783 kJ/mol
# Density = 2.684567 g / cm^3
# Si number density = 26.906910 Si / 1000 Ang^3
#
#
#
# Elastic Constant Matrix: (Units=GPa)
#
#
# Indices 1 2 3 4 5 6 
#
# 1 93.0592 23.9708 32.5246 0.0001 -13.6148 0.0007
# 2 23.9708 86.0508 51.4493 0.0002 -5.3755 0.0007
# 3 32.5246 51.4493 207.3231 0.0000 12.1625 0.0000
# 4 0.0001 0.0002 0.0000 45.8367 0.0000 0.4460
# 5 -13.6148 -5.3755 12.1625 0.0000 46.6344 0.0001
# 6 0.0007 0.0007 0.0000 0.4460 0.0001 25.3165
#
#
#
# Elastic Compliance Matrix: (Units=1/GPa)
#
#
# Indices 1 2 3 4 5 6 
#
# 1 0.012448 -0.002266 -0.001613 0.000000 0.003794 0.000000
# 2 -0.002266 0.014350 -0.003315 0.000000 0.001857 0.000000
# 3 -0.001613 -0.003315 0.006041 0.000000 -0.002429 0.000000
# 4 0.000000 0.000000 0.000000 0.021820 0.000000 -0.000384
# 5 0.003794 0.001857 -0.002429 0.000000 0.023398 0.000000
# 6 0.000000 0.000000 0.000000 -0.000384 0.000000 0.039507
#
#
# Mechanical properties :
#
#
# Convention : Reuss Voigt Hill
#
# Bulk Modulus (GPa) = 54.19394 66.92473 60.55933
# Shear Modulus (GPa) = 36.20465 42.12342 39.16404
#
# Velocity S-wave (km/s) = 3.67216 3.96096 3.81929
# Velocity P-wave (km/s) = 6.17775 6.77094 6.48114
#
# Compressibility (1/GPa) = 0.01845225
#
# Stress axis : x y z
#
# Youngs Moduli (GPa) = 80.33158 69.68596 165.52318
#
# Poissons Ratio (x) = 0.15793 0.26700
# Poissons Ratio (y) = 0.18205 0.54863
# Poissons Ratio (z) = 0.12958 0.23098
#
# Static dielectric constant tensor:
#      x y z
#    x 2.289190 0.000000 -0.026490 
#    y 0.000000 2.130500 0.000000 
#    z -0.026490 0.000000 2.153650 
# 
# From -- ./inp_files/213417.got.cif
#   From: 2010.05.17/outbox.cif.g08.bks.cpg/sg15_107_cif.got.tgz:213417.got - 2010.06.03 18:47:42.
