data_PCOD9283072
_publ_section_title
;
Structure prediction by ZEFSAII (Michael W. Deem and Ramdas Pophale) SiO2 
 PCOD9283072
Probable space group: C 2/C
;
_chemical_formula_sum "Si O2"
_cell_formula_units_Z 56
_cell_length_a 8.123513
_cell_length_b 21.872965
_cell_length_c 13.444484
_cell_angle_alpha 90.000000
_cell_angle_beta 84.940811
_cell_angle_gamma 90.000000
_cell_volume 2379.580589
_symmetry_space_group_name_H-M "C 2/C"
_symmetry_group_IT_number 15
_symmetry_cell_setting 'monoclinic'
loop_
_space_group_symop_operation_xyz
x,y,z
-x,y,1/2-z
-x,-y,-z
x,-y,1/2+z
1/2+x,1/2+y,z
1/2-x,1/2+y,1/2-z
1/2-x,1/2-y,-z
1/2+x,1/2-y,1/2+z
loop_
_atom_site_type_symbol
_atom_site_label
_atom_site_fract_x
_atom_site_fract_y
_atom_site_fract_z
Si Si1 0.632999 0.794853 0.064963
Si Si2 0.181685 0.924888 0.921443
Si Si3 0.630281 0.073640 0.829236
Si Si4 0.363483 0.510945 0.383095
Si Si5 0.960317 0.583320 0.039921
Si Si6 0.189578 0.187235 0.740660
Si Si7 0.316605 0.719862 0.098235
O O1 0.732073 0.820651 0.154413
O O2 0.489166 0.751903 0.113183
O O3 0.750000 0.750000 0.000000
O O4 0.565602 0.846235 0.992798
O O5 0.381776 0.928729 0.896431
O O6 0.158332 0.851907 0.918808
O O7 0.039010 0.956509 0.863069
O O8 0.137853 0.958899 0.028812
O O9 0.500000 0.074386 0.750000
O O10 0.708869 0.140715 0.834592
O O11 0.780055 0.027857 0.799836
O O12 0.527864 0.055325 0.932544
O O13 0.218847 0.559270 0.418936
O O14 0.203196 0.255466 0.694547
O O15 0.000000 0.168887 0.750000
O O16 0.250000 0.750000 0.000000
#
# Coordination Sequence:
#
# PCOD9283072 Si02
#       7
#     8   8   8   8   8   8   8
#     4  12  24  41  72 101 137 183 235 293 363 422
#     4  10  21  39  67 100 137 176 230 280 346 420
#     4  11  20  43  66  98 135 182 229 294 351 412
#     4  10  23  41  70 102 134 179 237 283 347 431
#     4  11  21  42  72  97 134 180 231 290 355 413
#     4  12  26  43  68 107 141 183 244 297 354 436
#     4  12  21  42  70 100 140 181 227 289 363 424
#
# _framework density 23.533560999999999
#
# number of rings (size 3 to 8) (size 9 to 14) (size 15 to 20)
#    0.000    0.857    4.286    4.714    0.000    3.429 
#    2.571    0.000   18.857    0.000    0.000    0.000 
#    0.000    0.000    0.000    0.000    0.000    0.000 
#
# Total GULP energy -156359.123401 kJ/mol
# GULP energy per Si atom -5584.254407 kJ/mol
# Density = 2.348000 g / cm^3
# Si number density = 23.533561 Si / 1000 Ang^3
#
#
#
# Elastic Constant Matrix: (Units=GPa)
#
#
# Indices 1 2 3 4 5 6 
#
# 1 162.9910 64.6320 42.7015 0.0000 26.6619 0.0000
# 2 64.6320 158.7927 14.2600 0.0000 1.8540 0.0000
# 3 42.7015 14.2600 28.4278 0.0000 2.3510 0.0000
# 4 0.0000 0.0000 0.0000 20.4166 0.0000 -7.4551
# 5 26.6619 1.8540 2.3510 0.0000 32.6680 0.0000
# 6 0.0000 0.0000 0.0000 -7.4551 0.0000 45.4930
#
#
#
# Elastic Compliance Matrix: (Units=1/GPa)
#
#
# Indices 1 2 3 4 5 6 
#
# 1 0.014219 -0.004007 -0.018517 0.000000 -0.010044 0.000000
# 2 -0.004007 0.007724 0.001922 0.000000 0.002694 0.000000
# 3 -0.018517 0.001922 0.061151 0.000000 0.010603 0.000000
# 4 0.000000 0.000000 0.000000 0.052097 0.000000 0.008537
# 5 -0.010044 0.002694 0.010603 0.000000 0.037893 0.000000
# 6 0.000000 0.000000 0.000000 0.008537 0.000000 0.023380
#
#
# Mechanical properties :
#
#
# Convention : Reuss Voigt Hill
#
# Bulk Modulus (GPa) = 23.87287 65.93316 44.90302
# Shear Modulus (GPa) = 19.87026 34.95672 27.41349
#
# Velocity S-wave (km/s) = 2.90890 3.85827 3.41672
# Velocity P-wave (km/s) = 4.63125 6.92285 5.88958
#
# Compressibility (1/GPa) = 0.04188855
#
# Stress axis : x y z
#
# Youngs Moduli (GPa) = 70.33058 129.45850 16.35304
#
# Poissons Ratio (x) = 0.51875 0.30281
# Poissons Ratio (y) = 0.28182 -0.03142
# Poissons Ratio (z) = 1.30232 -0.24876
#
# Static dielectric constant tensor:
#      x y z
#    x 1.864850 0.000000 0.077760 
#    y 0.000000 2.056330 0.000000 
#    z 0.077760 0.000000 1.896680 
# 
# From -- ./inp_files/136449.got.cif
#   From: 2010.05.17/outbox.cif.g08.bks.cpg/sg15_69_cif.got.tgz:136449.got - 2010.06.03 18:47:42.
