data_PCOD9283389
_publ_section_title
;
Structure prediction by ZEFSAII (Michael W. Deem and Ramdas Pophale) SiO2 
 PCOD9283389
Probable space group: C 2/C
;
_chemical_formula_sum "Si O2"
_cell_formula_units_Z 40
_cell_length_a 19.083624
_cell_length_b 8.974958
_cell_length_c 12.776985
_cell_angle_alpha 90.000000
_cell_angle_beta 112.561131
_cell_angle_gamma 90.000000
_cell_volume 2020.899820
_symmetry_space_group_name_H-M "C 2/C"
_symmetry_group_IT_number 15
_symmetry_cell_setting 'monoclinic'
loop_
_space_group_symop_operation_xyz
x,y,z
-x,y,1/2-z
-x,-y,-z
x,-y,1/2+z
1/2+x,1/2+y,z
1/2-x,1/2+y,1/2-z
1/2-x,1/2-y,-z
1/2+x,1/2-y,1/2+z
loop_
_atom_site_type_symbol
_atom_site_label
_atom_site_fract_x
_atom_site_fract_y
_atom_site_fract_z
Si Si1 0.190772 0.277978 0.260404
Si Si2 0.313036 0.560577 0.686464
Si Si3 0.919511 0.579162 0.956014
Si Si4 0.195984 0.523436 0.954753
Si Si5 0.081611 0.714569 0.335085
O O1 0.259309 0.335379 0.226732
O O2 0.116036 0.357064 0.169632
O O3 0.204735 0.335931 0.385921
O O4 0.182955 0.100919 0.258643
O O5 0.271877 0.540242 0.549905
O O6 0.393186 0.637251 0.709131
O O7 0.860216 0.463780 0.977030
O O8 0.922407 0.715237 0.041195
O O9 0.000000 0.500000 0.000000
O O10 0.151004 0.401129 0.859400
O O11 0.000000 0.659840 0.250000
#
# Coordination Sequence:
#
# PCOD9283389 Si02
#       5
#     8   8   8   8   8
#     4  11  22  38  66  94 120 164 210 256 308 375
#     4  11  23  39  63  93 125 163 209 258 313 360
#     4   9  21  38  64  92 118 165 210 246 307 373
#     4   9  21  39  67  87 123 159 213 254 307 373
#     4  10  21  40  61  86 128 163 200 256 313 359
#
# _framework density 19.793163
#
# number of rings (size 3 to 8) (size 9 to 14) (size 15 to 20)
#    1.200    0.800    0.000    3.600    2.800    1.600 
#    3.600    1.000    0.000    0.000    0.000    0.000 
#    0.000    0.000    0.000    0.000    0.000    0.000 
#
# Total GULP energy -111393.357150 kJ/mol
# GULP energy per Si atom -5569.667858 kJ/mol
# Density = 1.974811 g / cm^3
# Si number density = 19.793163 Si / 1000 Ang^3
#
#
#
# Elastic Constant Matrix: (Units=GPa)
#
#
# Indices 1 2 3 4 5 6 
#
# 1 59.4051 22.6078 10.6013 0.0000 4.4120 0.0000
# 2 22.6078 94.4732 28.2082 0.0000 -17.0544 0.0000
# 3 10.6013 28.2082 84.9488 0.0000 10.7004 0.0000
# 4 0.0000 0.0000 0.0000 25.0083 0.0000 -2.6927
# 5 4.4120 -17.0544 10.7004 0.0000 22.2657 0.0000
# 6 0.0000 0.0000 0.0000 -2.6927 0.0000 18.0501
#
#
#
# Elastic Compliance Matrix: (Units=1/GPa)
#
#
# Indices 1 2 3 4 5 6 
#
# 1 0.019968 -0.006815 0.000987 0.000000 -0.009651 0.000000
# 2 -0.006815 0.017757 -0.007376 0.000000 0.018496 0.000000
# 3 0.000987 -0.007376 0.015790 0.000000 -0.013433 0.000000
# 4 0.000000 0.000000 0.000000 0.040640 0.000000 0.006062
# 5 -0.009651 0.018496 -0.013433 0.000000 0.067447 0.000000
# 6 0.000000 0.000000 0.000000 0.006062 0.000000 0.056306
#
#
# Mechanical properties :
#
#
# Convention : Reuss Voigt Hill
#
# Bulk Modulus (GPa) = 36.89134 40.18463 38.53798
# Shear Modulus (GPa) = 19.73542 24.89213 22.31378
#
# Velocity S-wave (km/s) = 3.16109 3.55013 3.36124
# Velocity P-wave (km/s) = 5.65705 6.09516 5.88018
#
# Compressibility (1/GPa) = 0.02710663
#
# Stress axis : x y z
#
# Youngs Moduli (GPa) = 50.08025 56.31532 63.33146
#
# Poissons Ratio (x) = 0.38381 -0.06250
# Poissons Ratio (y) = 0.34131 0.46712
# Poissons Ratio (z) = -0.04942 0.41537
#
# Static dielectric constant tensor:
#      x y z
#    x 1.689320 0.000000 0.013520 
#    y 0.000000 1.725830 0.000000 
#    z 0.013520 0.000000 1.728930 
# 
# From -- ./inp_files/109730.got.cif
#   From: 2010.05.17/outbox.cif.g08.bks.cpg/sg15_55_cif.got.tgz:109730.got - 2010.06.03 18:47:42.
