data_PCOD9283455
_publ_section_title
;
Structure prediction by ZEFSAII (Michael W. Deem and Ramdas Pophale) SiO2 
 PCOD9283455
Probable space group: C 2/C
;
_chemical_formula_sum "Si O2"
_cell_formula_units_Z 48
_cell_length_a 15.768135
_cell_length_b 8.680521
_cell_length_c 28.098195
_cell_angle_alpha 90.000000
_cell_angle_beta 143.235059
_cell_angle_gamma 90.000000
_cell_volume 2301.934825
_symmetry_space_group_name_H-M "C 2/C"
_symmetry_group_IT_number 15
_symmetry_cell_setting 'monoclinic'
loop_
_space_group_symop_operation_xyz
x,y,z
-x,y,1/2-z
-x,-y,-z
x,-y,1/2+z
1/2+x,1/2+y,z
1/2-x,1/2+y,1/2-z
1/2-x,1/2-y,-z
1/2+x,1/2-y,1/2+z
loop_
_atom_site_type_symbol
_atom_site_label
_atom_site_fract_x
_atom_site_fract_y
_atom_site_fract_z
Si Si1 0.624442 0.498070 0.659110
Si Si2 0.063095 0.696474 0.081239
Si Si3 0.450579 0.941248 0.818812
Si Si4 0.478098 0.374167 0.184816
Si Si5 0.584801 0.790322 0.430175
Si Si6 0.176994 0.498706 0.054540
O O1 0.588788 0.624240 0.602603
O O2 0.789820 0.459652 0.729341
O O3 0.593993 0.568866 0.698495
O O4 0.521421 0.351223 0.610314
O O5 0.057047 0.629864 0.131702
O O6 0.177854 0.597058 0.103322
O O7 0.916174 0.657076 0.988103
O O8 0.529801 0.810768 0.824186
O O9 0.529490 0.103899 0.861611
O O10 0.500000 0.411325 0.250000
O O11 0.330954 0.455722 0.105106
O O12 0.750000 0.750000 0.500000
O O13 0.589994 0.894332 0.479461
#
# Coordination Sequence:
#
# PCOD9283455 Si02
#       6
#     8   8   8   8   8   8
#     4  11  22  41  66  92 127 170 210 267 330 383
#     4   9  21  38  65  87 122 163 205 261 318 389
#     4  10  23  40  61  88 128 166 209 257 323 389
#     4  11  23  40  65  87 123 171 216 263 317 389
#     4  11  22  38  62  95 126 161 208 268 321 379
#     4  10  21  40  61  94 121 163 213 261 320 390
#
# _framework density 20.852025000000001
#
# number of rings (size 3 to 8) (size 9 to 14) (size 15 to 20)
#    0.000    1.667    1.667    3.000    2.333    5.333 
#    3.000    0.833    0.000    0.000    0.000    0.000 
#    0.000    0.000    0.000    0.000    0.000    0.000 
#
# Total GULP energy -133804.804646 kJ/mol
# GULP energy per Si atom -5575.200194 kJ/mol
# Density = 2.080456 g / cm^3
# Si number density = 20.852025 Si / 1000 Ang^3
#
#
#
# Elastic Constant Matrix: (Units=GPa)
#
#
# Indices 1 2 3 4 5 6 
#
# 1 45.2359 10.1101 18.8743 0.0000 1.3406 0.0000
# 2 10.1101 118.5534 59.9674 0.0000 8.9765 0.0000
# 3 18.8743 59.9674 86.3777 0.0000 11.0664 0.0000
# 4 0.0000 0.0000 0.0000 27.2232 0.0000 5.7584
# 5 1.3406 8.9765 11.0664 0.0000 32.8428 0.0000
# 6 0.0000 0.0000 0.0000 5.7584 0.0000 29.4723
#
#
#
# Elastic Compliance Matrix: (Units=1/GPa)
#
#
# Indices 1 2 3 4 5 6 
#
# 1 0.024413 0.000937 -0.006087 0.000000 0.000799 0.000000
# 2 0.000937 0.013045 -0.009197 0.000000 -0.000505 0.000000
# 3 -0.006087 -0.009197 0.019792 0.000000 -0.003907 0.000000
# 4 0.000000 0.000000 0.000000 0.038317 0.000000 -0.007486
# 5 0.000799 -0.000505 -0.003907 0.000000 0.031870 0.000000
# 6 0.000000 0.000000 0.000000 -0.007486 0.000000 0.035393
#
#
# Mechanical properties :
#
#
# Convention : Reuss Voigt Hill
#
# Bulk Modulus (GPa) = 35.01803 47.56341 41.29072
# Shear Modulus (GPa) = 24.87024 28.65534 26.76279
#
# Velocity S-wave (km/s) = 3.45730 3.71107 3.58643
# Velocity P-wave (km/s) = 5.72427 6.42046 6.08233
#
# Compressibility (1/GPa) = 0.02855672
#
# Stress axis : x y z
#
# Youngs Moduli (GPa) = 40.96157 76.65622 50.52448
#
# Poissons Ratio (x) = -0.07180 0.30754
# Poissons Ratio (y) = -0.03836 0.46465
# Poissons Ratio (z) = 0.24933 0.70498
#
# Static dielectric constant tensor:
#      x y z
#    x 1.808810 0.000000 0.003270 
#    y 0.000000 1.847880 0.000000 
#    z 0.003270 0.000000 1.749390 
# 
# From -- ./inp_files/315778.got.cif
#   From: 2010.05.17/outbox.cif.g08.bks.cpg/sg15_158_cif.got.tgz:315778.got - 2010.06.03 18:47:42.
