data_PCOD9283701
_publ_section_title
;
Structure prediction by ZEFSAII (Michael W. Deem and Ramdas Pophale) SiO2 
 PCOD9283701
Probable space group: C 2/C
;
_chemical_formula_sum "Si O2"
_cell_formula_units_Z 52
_cell_length_a 8.500487
_cell_length_b 21.699098
_cell_length_c 17.442042
_cell_angle_alpha 90.000000
_cell_angle_beta 132.697457
_cell_angle_gamma 90.000000
_cell_volume 2364.489966
_symmetry_space_group_name_H-M "C 2/C"
_symmetry_group_IT_number 15
_symmetry_cell_setting 'monoclinic'
loop_
_space_group_symop_operation_xyz
x,y,z
-x,y,1/2-z
-x,-y,-z
x,-y,1/2+z
1/2+x,1/2+y,z
1/2-x,1/2+y,1/2-z
1/2-x,1/2-y,-z
1/2+x,1/2-y,1/2+z
loop_
_atom_site_type_symbol
_atom_site_label
_atom_site_fract_x
_atom_site_fract_y
_atom_site_fract_z
Si Si1 0.478265 0.905199 0.400230
Si Si2 0.000000 0.126819 0.750000
Si Si3 0.390851 0.476911 0.565841
Si Si4 0.000000 0.902122 0.750000
Si Si5 0.036357 0.790807 0.112226
Si Si6 0.450351 0.150662 0.407784
Si Si7 0.143668 0.095861 0.021614
Si Si8 0.500000 0.168257 0.750000
O O1 0.643964 0.962153 0.460470
O O2 0.527938 0.866470 0.494624
O O3 0.531594 0.872069 0.337355
O O4 0.220537 0.911494 0.314057
O O5 0.969886 0.173661 0.667861
O O6 0.429196 0.447045 0.659311
O O7 0.428215 0.549426 0.570187
O O8 0.555973 0.440583 0.565337
O O9 0.207668 0.860822 0.801968
O O10 0.972665 0.720481 0.080072
O O11 0.292250 0.791569 0.195638
O O12 0.962829 0.837501 0.021353
O O13 0.606539 0.107549 0.409289
#
# Coordination Sequence:
#
# PCOD9283701 Si02
#       8
#     8   4   8   4   8   8   8   4
#     4  10  21  41  64  96 131 167 217 269 326 382
#     4  10  22  37  64 102 124 167 224 258 330 380
#     4  10  24  47  66  94 134 171 221 263 322 389
#     4  10  25  47  66  98 132 176 212 268 328 380
#     4  11  22  41  64  97 131 169 212 272 318 386
#     4  11  24  44  66  97 134 171 216 267 330 383
#     4  11  23  44  67  93 126 176 215 270 322 378
#     4  10  21  40  64 100 126 169 220 260 324 386
#
# _framework density 21.992056999999999
#
# number of rings (size 3 to 8) (size 9 to 14) (size 15 to 20)
#    0.000    1.538    3.077    0.923    0.000    5.538 
#    8.308    0.000    0.000    0.000    0.000    0.000 
#    0.000    0.000    0.000    0.000    0.000    0.000 
#
# Total GULP energy -145212.770059 kJ/mol
# GULP energy per Si atom -5585.106541 kJ/mol
# Density = 2.194200 g / cm^3
# Si number density = 21.992057 Si / 1000 Ang^3
#
#
#
# Elastic Constant Matrix: (Units=GPa)
#
#
# Indices 1 2 3 4 5 6 
#
# 1 112.0282 34.4644 23.5806 0.0000 19.1673 0.0000
# 2 34.4644 129.8731 18.7573 0.0000 12.3140 0.0000
# 3 23.5806 18.7573 64.4291 0.0000 22.1098 -0.0001
# 4 0.0000 0.0000 0.0000 21.5509 0.0000 15.1754
# 5 19.1673 12.3140 22.1098 0.0000 34.2501 -0.0001
# 6 0.0000 0.0000 -0.0001 15.1754 -0.0001 46.8215
#
#
#
# Elastic Compliance Matrix: (Units=1/GPa)
#
#
# Indices 1 2 3 4 5 6 
#
# 1 0.010677 -0.002182 -0.001916 0.000000 -0.003954 0.000000
# 2 -0.002182 0.008568 -0.001359 0.000000 -0.000982 0.000000
# 3 -0.001916 -0.001359 0.020659 0.000000 -0.011775 0.000000
# 4 0.000000 0.000000 0.000000 0.060124 0.000000 -0.019487
# 5 -0.003954 -0.000982 -0.011775 0.000000 0.039365 0.000000
# 6 0.000000 0.000000 0.000000 -0.019487 0.000000 0.027674
#
#
# Mechanical properties :
#
#
# Convention : Reuss Voigt Hill
#
# Bulk Modulus (GPa) = 34.49298 51.10389 42.79843
# Shear Modulus (GPa) = 26.64639 35.82637 31.23638
#
# Velocity S-wave (km/s) = 3.48463 4.04054 3.77284
# Velocity P-wave (km/s) = 5.64877 6.71236 6.20340
#
# Compressibility (1/GPa) = 0.02899141
#
# Stress axis : x y z
#
# Youngs Moduli (GPa) = 93.65649 116.71043 48.40616
#
# Poissons Ratio (x) = 0.25464 0.09273
# Poissons Ratio (y) = 0.20434 0.06578
# Poissons Ratio (z) = 0.17941 0.15859
#
# Static dielectric constant tensor:
#      x y z
#    x 1.837270 0.000000 0.018070 
#    y 0.000000 1.782990 0.000000 
#    z 0.018070 0.000000 1.840630 
# 
# From -- ./inp_files/137228.got.cif
#   From: 2010.05.17/outbox.cif.g08.bks.cpg/sg15_69_cif.got.tgz:137228.got - 2010.06.03 18:47:42.
