data_PCOD9283564
_publ_section_title
;
Structure prediction by ZEFSAII (Michael W. Deem and Ramdas Pophale) SiO2 
 PCOD9283564
Probable space group: C 2/C
;
_chemical_formula_sum "Si O2"
_cell_formula_units_Z 56
_cell_length_a 7.902131
_cell_length_b 23.219521
_cell_length_c 15.037231
_cell_angle_alpha 90.000000
_cell_angle_beta 88.621285
_cell_angle_gamma 90.000000
_cell_volume 2758.287969
_symmetry_space_group_name_H-M "C 2/C"
_symmetry_group_IT_number 15
_symmetry_cell_setting 'monoclinic'
loop_
_space_group_symop_operation_xyz
x,y,z
-x,y,1/2-z
-x,-y,-z
x,-y,1/2+z
1/2+x,1/2+y,z
1/2-x,1/2+y,1/2-z
1/2-x,1/2-y,-z
1/2+x,1/2-y,1/2+z
loop_
_atom_site_type_symbol
_atom_site_label
_atom_site_fract_x
_atom_site_fract_y
_atom_site_fract_z
Si Si1 0.215263 0.142111 0.955024
Si Si2 0.687743 0.513836 0.024444
Si Si3 0.704041 0.009417 0.287163
Si Si4 0.458266 0.813930 0.950519
Si Si5 0.694079 0.386675 0.253750
Si Si6 0.869204 0.562425 0.380689
Si Si7 0.361298 0.308820 0.415111
O O1 0.238338 0.077013 0.989648
O O2 0.236994 0.141412 0.847897
O O3 0.017269 0.160321 0.965869
O O4 0.358031 0.178939 0.004759
O O5 0.806234 0.467282 0.972339
O O6 0.500000 0.500000 0.000000
O O7 0.675649 0.511542 0.130292
O O8 0.534325 0.030910 0.339215
O O9 0.752249 0.048374 0.201685
O O10 0.693736 0.943053 0.259342
O O11 0.415351 0.871512 0.896201
O O12 0.435893 0.754864 0.896475
O O13 0.308953 0.808761 0.025121
O O14 0.500000 0.408840 0.250000
O O15 0.691811 0.341586 0.173631
#
# Coordination Sequence:
#
# PCOD9283564 Si02
#       7
#     8   8   8   8   8   8   8
#     4  11  22  41  66  94 126 172 221 269 324 395
#     4  12  23  38  63  94 133 170 212 272 330 391
#     4  11  23  38  62  92 133 166 211 265 329 403
#     4  11  23  44  66  91 134 169 223 270 333 392
#     4  10  21  40  62  96 130 168 220 269 325 391
#     4  11  24  40  60  98 129 169 214 260 337 398
#     4  10  24  43  66  94 125 175 222 276 320 388
#
# _framework density 20.302447999999998
#
# number of rings (size 3 to 8) (size 9 to 14) (size 15 to 20)
#    0.000    1.143    2.857    4.286    2.000    0.571 
#    7.714    0.000    0.000    3.429    0.000    0.000 
#    0.000    0.000    0.000    0.000    0.000    0.000 
#
# Total GULP energy -156185.683993 kJ/mol
# GULP energy per Si atom -5578.060143 kJ/mol
# Density = 2.025624 g / cm^3
# Si number density = 20.302448 Si / 1000 Ang^3
#
#
#
# Elastic Constant Matrix: (Units=GPa)
#
#
# Indices 1 2 3 4 5 6 
#
# 1 32.0345 -18.2925 -9.2044 0.0000 2.5479 0.0000
# 2 -18.2925 77.3199 1.4946 0.0000 -5.0357 0.0000
# 3 -9.2044 1.4946 66.9110 0.0000 23.0082 0.0000
# 4 0.0000 0.0000 0.0000 30.5005 0.0000 -0.7670
# 5 2.5479 -5.0357 23.0082 0.0000 27.9457 0.0000
# 6 0.0000 0.0000 0.0000 -0.7670 0.0000 47.3877
#
#
#
# Elastic Compliance Matrix: (Units=1/GPa)
#
#
# Indices 1 2 3 4 5 6 
#
# 1 0.039149 0.008530 0.008221 0.000000 -0.008801 0.000000
# 2 0.008530 0.015060 0.000239 0.000000 0.001739 0.000000
# 3 0.008221 0.000239 0.022756 0.000000 -0.019442 0.000000
# 4 0.000000 0.000000 0.000000 0.032800 0.000000 0.000531
# 5 -0.008801 0.001739 -0.019442 0.000000 0.052906 0.000000
# 6 0.000000 0.000000 0.000000 0.000531 0.000000 0.021111
#
#
# Mechanical properties :
#
#
# Convention : Reuss Voigt Hill
#
# Bulk Modulus (GPa) = 9.01341 13.80674 11.41007
# Shear Modulus (GPa) = 26.76881 34.65130 30.71005
#
# Velocity S-wave (km/s) = 3.63506 4.13577 3.89347
# Velocity P-wave (km/s) = 4.69759 5.44256 5.08374
#
# Compressibility (1/GPa) = 0.11094586
#
# Stress axis : x y z
#
# Youngs Moduli (GPa) = 25.54319 66.40111 43.94406
#
# Poissons Ratio (x) = -0.56640 -0.36128
# Poissons Ratio (y) = -0.21788 -0.01050
# Poissons Ratio (z) = -0.21000 -0.01586
#
# Static dielectric constant tensor:
#      x y z
#    x 1.840110 0.000000 0.123940 
#    y 0.000000 1.745790 0.000000 
#    z 0.123940 0.000000 1.908690 
# 
# From -- ./inp_files/136455.got.cif
#   From: 2010.05.17/outbox.cif.g08.bks.cpg/sg15_69_cif.got.tgz:136455.got - 2010.06.03 18:47:42.
