data_PCOD9283432
_publ_section_title
;
Structure prediction by ZEFSAII (Michael W. Deem and Ramdas Pophale) SiO2 
 PCOD9283432
Probable space group: C 2/C
;
_chemical_formula_sum "Si O2"
_cell_formula_units_Z 48
_cell_length_a 20.179517
_cell_length_b 7.197670
_cell_length_c 15.286459
_cell_angle_alpha 90.000000
_cell_angle_beta 119.886919
_cell_angle_gamma 90.000000
_cell_volume 1925.014337
_symmetry_space_group_name_H-M "C 2/C"
_symmetry_group_IT_number 15
_symmetry_cell_setting 'monoclinic'
loop_
_space_group_symop_operation_xyz
x,y,z
-x,y,1/2-z
-x,-y,-z
x,-y,1/2+z
1/2+x,1/2+y,z
1/2-x,1/2+y,1/2-z
1/2-x,1/2-y,-z
1/2+x,1/2-y,1/2+z
loop_
_atom_site_type_symbol
_atom_site_label
_atom_site_fract_x
_atom_site_fract_y
_atom_site_fract_z
Si Si1 0.209130 0.943029 0.327288
Si Si2 0.659005 0.196680 0.141345
Si Si3 0.540538 0.068780 0.859469
Si Si4 0.014172 0.223670 0.934205
Si Si5 0.325823 0.637941 0.029714
Si Si6 0.430816 0.623251 0.348372
O O1 0.293823 0.018988 0.361590
O O2 0.184060 0.957776 0.413418
O O3 0.151934 0.093013 0.244603
O O4 0.189881 0.761219 0.256952
O O5 0.566868 0.186911 0.086952
O O6 0.672122 0.354592 0.074714
O O7 0.500000 0.977465 0.750000
O O8 0.605462 0.224881 0.894653
O O9 0.469424 0.187404 0.847254
O O10 0.563299 0.891056 0.929540
O O11 0.984089 0.052617 0.855268
O O12 0.061377 0.129880 0.042480
O O13 0.250000 0.750000 0.000000
#
# Coordination Sequence:
#
# PCOD9283432 Si02
#       6
#     8   8   8   8   8   8
#     4  10  22  39  63  92 129 172 214 267 334 391
#     4  10  22  40  64  91 128 170 212 275 323 398
#     4  12  23  39  66  92 126 174 210 271 323 386
#     4  10  23  39  63  98 119 164 228 259 321 398
#     4  10  22  40  63  92 131 169 217 267 330 386
#     4  10  21  40  61  91 128 162 211 270 322 373
#
# _framework density 24.93488
#
# number of rings (size 3 to 8) (size 9 to 14) (size 15 to 20)
#    0.000    1.667    3.333    0.500    2.333    2.000 
#    0.000    0.833    0.000    0.000    0.000    0.000 
#    0.000    0.000    0.000    0.000    0.000    0.000 
#
# Total GULP energy -133851.520129 kJ/mol
# GULP energy per Si atom -5577.146672 kJ/mol
# Density = 2.487813 g / cm^3
# Si number density = 24.934880 Si / 1000 Ang^3
#
#
#
# Elastic Constant Matrix: (Units=GPa)
#
#
# Indices 1 2 3 4 5 6 
#
# 1 56.2477 13.2957 -12.7109 0.0000 10.3837 0.0000
# 2 13.2957 66.0068 -5.5048 0.0000 -4.5435 0.0000
# 3 -12.7109 -5.5048 48.8405 0.0000 2.8315 0.0000
# 4 0.0000 0.0000 0.0000 22.3875 0.0000 5.4678
# 5 10.3837 -4.5435 2.8315 0.0000 28.9742 0.0000
# 6 0.0000 0.0000 0.0000 5.4678 0.0000 13.2943
#
#
#
# Elastic Compliance Matrix: (Units=1/GPa)
#
#
# Indices 1 2 3 4 5 6 
#
# 1 0.021817 -0.004545 0.005693 0.000000 -0.009088 0.000000
# 2 -0.004545 0.016387 0.000423 0.000000 0.004157 0.000000
# 3 0.005693 0.000423 0.022244 0.000000 -0.004148 0.000000
# 4 0.000000 0.000000 0.000000 0.049656 0.000000 -0.020423
# 5 -0.009088 0.004157 -0.004148 0.000000 0.038828 0.000000
# 6 0.000000 0.000000 0.000000 -0.020423 0.000000 0.083620
#
#
# Mechanical properties :
#
#
# Convention : Reuss Voigt Hill
#
# Bulk Modulus (GPa) = 15.72608 17.91721 16.82164
# Shear Modulus (GPa) = 19.95148 24.66553 22.30851
#
# Velocity S-wave (km/s) = 2.83175 3.14856 2.99435
# Velocity P-wave (km/s) = 4.12460 4.51875 4.32617
#
# Compressibility (1/GPa) = 0.06358866
#
# Stress axis : x y z
#
# Youngs Moduli (GPa) = 45.83576 61.02404 44.95509
#
# Poissons Ratio (x) = 0.27738 -0.25591
# Poissons Ratio (y) = 0.20834 -0.01902
# Poissons Ratio (z) = -0.26092 -0.02581
#
# Static dielectric constant tensor:
#      x y z
#    x 1.997990 0.000000 -0.111440 
#    y 0.000000 1.952340 0.000000 
#    z -0.111440 0.000000 2.331740 
# 
# From -- ./inp_files/166415.got.cif
#   From: 2010.05.17/outbox.cif.g08.bks.cpg/sg15_84_cif.got.tgz:166415.got - 2010.06.03 18:47:42.
