data_PCOD9283100
_publ_section_title
;
Structure prediction by ZEFSAII (Michael W. Deem and Ramdas Pophale) SiO2 
 PCOD9283100
Probable space group: C 2/C
;
_chemical_formula_sum "Si O2"
_cell_formula_units_Z 32
_cell_length_a 18.529864
_cell_length_b 5.774950
_cell_length_c 29.306303
_cell_angle_alpha 90.000000
_cell_angle_beta 151.384441
_cell_angle_gamma 90.000000
_cell_volume 1501.944120
_symmetry_space_group_name_H-M "C 2/C"
_symmetry_group_IT_number 15
_symmetry_cell_setting 'monoclinic'
loop_
_space_group_symop_operation_xyz
x,y,z
-x,y,1/2-z
-x,-y,-z
x,-y,1/2+z
1/2+x,1/2+y,z
1/2-x,1/2+y,1/2-z
1/2-x,1/2-y,-z
1/2+x,1/2-y,1/2+z
loop_
_atom_site_type_symbol
_atom_site_label
_atom_site_fract_x
_atom_site_fract_y
_atom_site_fract_z
Si Si1 0.330959 0.685232 0.671051
Si Si2 0.620422 0.195478 0.054112
Si Si3 0.681951 0.258194 0.229465
Si Si4 0.052544 0.910574 0.463861
O O1 0.500000 0.727901 0.750000
O O2 0.283803 0.414376 0.643707
O O3 0.310400 0.757675 0.711945
O O4 0.207205 0.804199 0.569311
O O5 0.584616 0.363465 0.076355
O O6 0.578539 0.315949 0.983337
O O7 0.500000 0.000000 0.000000
O O8 0.761307 0.508949 0.259681
O O9 0.510593 0.303338 0.117076
#
# Coordination Sequence:
#
# PCOD9283100 Si02
#       4
#     8   8   8   8
#     4  11  25  42  64 100 141 177 220 284 349 398
#     4   9  17  37  62  88 120 172 218 271 326 391
#     4  12  25  43  72 105 130 180 241 279 327 415
#     4  10  21  39  67  92 132 177 227 277 332 407
#
# _framework density 21.305720999999998
#
# number of rings (size 3 to 8) (size 9 to 14) (size 15 to 20)
#    0.000    1.500    2.500    4.500    3.500    2.000 
#    0.000    1.250    0.000    0.000    0.000    0.000 
#    0.000    0.000    0.000    0.000    0.000    0.000 
#
# Total GULP energy -89087.527277 kJ/mol
# GULP energy per Si atom -5567.970455 kJ/mol
# Density = 2.125723 g / cm^3
# Si number density = 21.305721 Si / 1000 Ang^3
#
#
#
# Elastic Constant Matrix: (Units=GPa)
#
#
# Indices 1 2 3 4 5 6 
#
# 1 46.2488 39.6729 49.2847 0.0001 4.3798 0.0014
# 2 39.6729 94.7104 55.5569 -0.0006 11.6158 0.0035
# 3 49.2847 55.5569 185.3578 -0.0001 -5.1563 0.0006
# 4 0.0001 -0.0006 -0.0001 44.9379 -0.0001 -5.9549
# 5 4.3798 11.6158 -5.1563 -0.0001 31.1575 -0.0001
# 6 0.0014 0.0035 0.0006 -5.9549 -0.0001 7.9271
#
#
#
# Elastic Compliance Matrix: (Units=1/GPa)
#
#
# Indices 1 2 3 4 5 6 
#
# 1 0.039813 -0.012339 -0.006947 0.000000 -0.002146 -0.000001
# 2 -0.012339 0.017622 -0.002145 -0.000001 -0.005190 -0.000006
# 3 -0.006947 -0.002145 0.007971 0.000000 0.003096 0.000002
# 4 0.000000 -0.000001 0.000000 0.024713 0.000000 0.018565
# 5 -0.002146 -0.005190 0.003096 0.000000 0.034844 0.000003
# 6 -0.000001 -0.000006 0.000002 0.018565 0.000003 0.140096
#
#
# Mechanical properties :
#
#
# Convention : Reuss Voigt Hill
#
# Bulk Modulus (GPa) = 44.35847 68.37177 56.36512
# Shear Modulus (GPa) = 15.85102 28.92467 22.38785
#
# Velocity S-wave (km/s) = 2.73056 3.68856 3.24511
# Velocity P-wave (km/s) = 5.55036 7.09233 6.36819
#
# Compressibility (1/GPa) = 0.02254361
#
# Stress axis : x y z
#
# Youngs Moduli (GPa) = 25.11729 56.74689 125.44867
#
# Poissons Ratio (x) = 0.70018 0.87154
# Poissons Ratio (y) = 0.30991 0.26915
# Poissons Ratio (z) = 0.17450 0.12175
#
# Static dielectric constant tensor:
#      x y z
#    x 1.775030 0.000000 -0.056690 
#    y 0.000000 1.998240 0.000000 
#    z -0.056690 0.000000 1.831160 
# 
# From -- ./inp_files/212515.got.cif
#   From: 2010.05.17/outbox.cif.g08.bks.cpg/sg15_107_cif.got.tgz:212515.got - 2010.06.03 18:47:42.
