data_PCOD9283927
_publ_section_title
;
Structure prediction by ZEFSAII (Michael W. Deem and Ramdas Pophale) SiO2 
 PCOD9283927
Probable space group: C 2/C
;
_chemical_formula_sum "Si O2"
_cell_formula_units_Z 56
_cell_length_a 19.050147
_cell_length_b 15.668561
_cell_length_c 13.666816
_cell_angle_alpha 90.000000
_cell_angle_beta 147.893181
_cell_angle_gamma 90.000000
_cell_volume 2168.191143
_symmetry_space_group_name_H-M "C 2/C"
_symmetry_group_IT_number 15
_symmetry_cell_setting 'monoclinic'
loop_
_space_group_symop_operation_xyz
x,y,z
-x,y,1/2-z
-x,-y,-z
x,-y,1/2+z
1/2+x,1/2+y,z
1/2-x,1/2+y,1/2-z
1/2-x,1/2-y,-z
1/2+x,1/2-y,1/2+z
loop_
_atom_site_type_symbol
_atom_site_label
_atom_site_fract_x
_atom_site_fract_y
_atom_site_fract_z
Si Si1 0.500000 0.319154 0.750000
Si Si2 0.735819 0.592712 0.062792
Si Si3 0.277385 0.567802 0.081664
Si Si4 0.536664 0.076035 0.437977
Si Si5 0.000000 0.578050 0.750000
Si Si6 0.808623 0.018028 0.819140
Si Si7 0.072098 0.201136 0.550815
Si Si8 0.641743 0.751107 0.036330
O O1 0.618348 0.381220 0.857618
O O2 0.466828 0.274384 0.606750
O O3 0.654678 0.536187 0.043929
O O4 0.662824 0.683020 0.974489
O O5 0.885735 0.601522 0.281742
O O6 0.740949 0.529900 0.977302
O O7 0.308626 0.549616 0.230942
O O8 0.141149 0.619657 0.906346
O O9 0.521197 0.986622 0.365117
O O10 0.658448 0.056763 0.655409
O O11 0.596061 0.155589 0.447488
O O12 0.901059 0.099208 0.913750
O O13 0.214265 0.240494 0.744928
O O14 0.962797 0.225864 0.502512
#
# Coordination Sequence:
#
# PCOD9283927 Si02
#       8
#     4   8   8   8   4   8   8   8
#     4  12  24  42  63  95 130 164 212 272 316 376
#     4  11  20  39  67  93 125 169 211 263 317 376
#     4  10  22  38  63  99 126 162 212 264 324 363
#     4   9  19  38  61  90 127 165 208 256 320 379
#     4   8  18  40  59  89 130 158 214 258 306 396
#     4  10  21  40  65  94 125 162 212 274 310 377
#     4  11  25  44  64  90 132 168 215 261 322 377
#     4  11  23  42  62  93 128 175 207 257 320 387
#
# _framework density 25.827981000000001
#
# number of rings (size 3 to 8) (size 9 to 14) (size 15 to 20)
#    0.000    1.714    2.857    1.286    2.000    1.714 
#    2.571    2.857    0.000    0.857    0.000    0.000 
#    0.000    0.000    0.000    0.000    0.000    0.000 
#
# Total GULP energy -156557.220259 kJ/mol
# GULP energy per Si atom -5591.329295 kJ/mol
# Density = 2.576920 g / cm^3
# Si number density = 25.827981 Si / 1000 Ang^3
#
#
#
# Elastic Constant Matrix: (Units=GPa)
#
#
# Indices 1 2 3 4 5 6 
#
# 1 104.1842 3.8226 36.6571 0.0000 34.2794 0.0000
# 2 3.8226 48.9359 6.4339 0.0000 19.0793 0.0000
# 3 36.6571 6.4339 99.8267 0.0000 28.1654 0.0000
# 4 0.0000 0.0000 0.0000 25.3096 0.0000 5.6058
# 5 34.2794 19.0793 28.1654 0.0000 54.0391 0.0000
# 6 0.0000 0.0000 0.0000 5.6058 0.0000 42.3083
#
#
#
# Elastic Compliance Matrix: (Units=1/GPa)
#
#
# Indices 1 2 3 4 5 6 
#
# 1 0.012995 0.002319 -0.002772 0.000000 -0.007617 0.000000
# 2 0.002319 0.024192 0.000486 0.000000 -0.010266 0.000000
# 3 -0.002772 0.000486 0.012376 0.000000 -0.004863 0.000000
# 4 0.000000 0.000000 0.000000 0.040705 0.000000 -0.005393
# 5 -0.007617 -0.010266 -0.004863 0.000000 0.029496 0.000000
# 6 0.000000 0.000000 0.000000 -0.005393 0.000000 0.024351
#
#
# Mechanical properties :
#
#
# Convention : Reuss Voigt Hill
#
# Bulk Modulus (GPa) = 20.14968 38.53047 29.34008
# Shear Modulus (GPa) = 31.13452 38.06694 34.60073
#
# Velocity S-wave (km/s) = 3.47574 3.84326 3.66411
# Velocity P-wave (km/s) = 4.89143 5.88597 5.41160
#
# Compressibility (1/GPa) = 0.04962857
#
# Stress axis : x y z
#
# Youngs Moduli (GPa) = 76.95302 41.33548 80.80013
#
# Poissons Ratio (x) = -0.09587 0.22399
# Poissons Ratio (y) = -0.17847 -0.03923
# Poissons Ratio (z) = 0.21333 -0.02007
#
# Static dielectric constant tensor:
#      x y z
#    x 2.024520 0.000000 -0.005510 
#    y 0.000000 2.050140 0.000000 
#    z -0.005510 0.000000 2.082350 
# 
# From -- ./inp_files/169209.got.cif
#   From: 2010.05.17/outbox.cif.g08.bks.cpg/sg15_85_cif.got.tgz:169209.got - 2010.06.03 18:47:42.
