data_PCOD9283303
_publ_section_title
;
Structure prediction by ZEFSAII (Michael W. Deem and Ramdas Pophale) SiO2 
 PCOD9283303
Probable space group: C 2/C
;
_chemical_formula_sum "Si O2"
_cell_formula_units_Z 56
_cell_length_a 22.166118
_cell_length_b 19.008929
_cell_length_c 9.222125
_cell_angle_alpha 90.000000
_cell_angle_beta 55.960870
_cell_angle_gamma 90.000000
_cell_volume 3219.973523
_symmetry_space_group_name_H-M "C 2/C"
_symmetry_group_IT_number 15
_symmetry_cell_setting 'monoclinic'
loop_
_space_group_symop_operation_xyz
x,y,z
-x,y,1/2-z
-x,-y,-z
x,-y,1/2+z
1/2+x,1/2+y,z
1/2-x,1/2+y,1/2-z
1/2-x,1/2-y,-z
1/2+x,1/2-y,1/2+z
loop_
_atom_site_type_symbol
_atom_site_label
_atom_site_fract_x
_atom_site_fract_y
_atom_site_fract_z
Si Si1 0.580628 0.283613 0.704978
Si Si2 0.696480 0.586538 0.021978
Si Si3 0.817168 0.938536 0.298234
Si Si4 0.982715 0.931982 0.111730
Si Si5 0.720279 0.684610 0.449962
Si Si6 0.059887 0.788744 0.050482
Si Si7 0.792923 0.308541 0.537900
O O1 0.500000 0.296378 0.750000
O O2 0.631444 0.354744 0.628453
O O3 0.626417 0.223405 0.559383
O O4 0.573739 0.252228 0.878026
O O5 0.681819 0.517128 0.137517
O O6 0.771172 0.621391 0.979838
O O7 0.703111 0.566310 0.843641
O O8 0.900103 0.911667 0.195771
O O9 0.773181 0.885944 0.462539
O O10 0.000000 0.954681 0.250000
O O11 0.031607 0.863817 0.028150
O O12 0.000000 0.000000 0.000000
O O13 0.750000 0.750000 0.500000
O O14 0.635931 0.699368 0.527141
O O15 0.760137 0.681707 0.241745
O O16 0.000000 0.764600 0.250000
O O17 0.750000 0.250000 0.500000
#
# Coordination Sequence:
#
# PCOD9283303 Si02
#       7
#     8   8   8   8   8   8   8
#     4  11  23  40  60  86 120 160 201 243 300 352
#     4  11  23  38  58  88 122 158 201 239 295 355
#     4  12  23  36  58  85 121 162 197 240 297 351
#     4  11  21  33  49  79 120 157 189 223 277 349
#     4  12  23  39  59  82 117 161 208 245 292 350
#     4  11  22  37  53  81 120 152 199 240 283 354
#     4  10  21  40  59  81 117 159 201 252 286 342
#
# _framework density 17.391448
#
# number of rings (size 3 to 8) (size 9 to 14) (size 15 to 20)
#    0.000    0.857    5.714    5.143    2.000    1.143 
#    0.000    0.000    0.000    0.000    0.000    5.000 
#    0.000    0.000    0.000    0.000    0.000    0.000 
#
# Total GULP energy -156108.199356 kJ/mol
# GULP energy per Si atom -5575.292834 kJ/mol
# Density = 1.735186 g / cm^3
# Si number density = 17.391448 Si / 1000 Ang^3
#
#
#
# Elastic Constant Matrix: (Units=GPa)
#
#
# Indices 1 2 3 4 5 6 
#
# 1 59.0544 52.1472 26.0061 0.0000 3.3841 0.0000
# 2 52.1472 71.0086 34.8347 0.0000 -7.1573 0.0000
# 3 26.0061 34.8347 131.2241 0.0000 14.1358 0.0000
# 4 0.0000 0.0000 0.0000 33.4426 0.0000 0.4258
# 5 3.3841 -7.1573 14.1358 0.0000 34.9421 0.0000
# 6 0.0000 0.0000 0.0000 0.4258 0.0000 31.1336
#
#
#
# Elastic Compliance Matrix: (Units=1/GPa)
#
#
# Indices 1 2 3 4 5 6 
#
# 1 0.054282 -0.042375 0.002083 0.000000 -0.014780 0.000000
# 2 -0.042375 0.050262 -0.006792 0.000000 0.017147 0.000000
# 3 0.002083 -0.006792 0.009601 0.000000 -0.005477 0.000000
# 4 0.000000 0.000000 0.000000 0.029907 0.000000 -0.000409
# 5 -0.014780 0.017147 -0.005477 0.000000 0.035778 0.000000
# 6 0.000000 0.000000 0.000000 -0.000409 0.000000 0.032125
#
#
# Mechanical properties :
#
#
# Convention : Reuss Voigt Hill
#
# Bulk Modulus (GPa) = 50.05595 54.14034 52.09815
# Shear Modulus (GPa) = 15.98559 29.79025 22.88792
#
# Velocity S-wave (km/s) = 3.03506 4.14324 3.63167
# Velocity P-wave (km/s) = 6.41300 7.35436 6.89975
#
# Compressibility (1/GPa) = 0.01997764
#
# Stress axis : x y z
#
# Youngs Moduli (GPa) = 18.42239 19.89560 104.16019
#
# Poissons Ratio (x) = 0.84308 -0.21701
# Poissons Ratio (y) = 0.78065 0.70743
# Poissons Ratio (z) = -0.03838 0.13513
#
# Static dielectric constant tensor:
#      x y z
#    x 1.580650 0.000000 -0.020790 
#    y 0.000000 1.598670 0.000000 
#    z -0.020790 0.000000 1.625970 
# 
# From -- ./inp_files/56501.got.cif
#   From: 2010.05.17/outbox.cif.g08.bks.cpg/sg15_29_cif.got.tgz:56501.got - 2010.06.03 18:47:42.
