data_PCOD9283272
_publ_section_title
;
Structure prediction by ZEFSAII (Michael W. Deem and Ramdas Pophale) SiO2 
 PCOD9283272
Probable space group: C 2/C
;
_chemical_formula_sum "Si O2"
_cell_formula_units_Z 28
_cell_length_a 7.279545
_cell_length_b 20.037983
_cell_length_c 10.992743
_cell_angle_alpha 90.000000
_cell_angle_beta 43.653725
_cell_angle_gamma 90.000000
_cell_volume 1106.881440
_symmetry_space_group_name_H-M "C 2/C"
_symmetry_group_IT_number 15
_symmetry_cell_setting 'monoclinic'
loop_
_space_group_symop_operation_xyz
x,y,z
-x,y,1/2-z
-x,-y,-z
x,-y,1/2+z
1/2+x,1/2+y,z
1/2-x,1/2+y,1/2-z
1/2-x,1/2-y,-z
1/2+x,1/2-y,1/2+z
loop_
_atom_site_type_symbol
_atom_site_label
_atom_site_fract_x
_atom_site_fract_y
_atom_site_fract_z
Si Si1 0.712291 0.555381 0.538096
Si Si2 0.726278 0.087272 0.449472
Si Si3 0.000000 0.690147 0.750000
Si Si4 0.962353 0.807390 0.407633
O O1 0.500000 0.545664 0.750000
O O2 0.737346 0.478907 0.482577
O O3 0.624730 0.619670 0.499238
O O4 0.000126 0.572088 0.457089
O O5 0.602396 0.144803 0.590668
O O6 0.000000 0.104416 0.250000
O O7 0.269555 0.723753 0.665823
O O8 0.750000 0.750000 0.500000
O O9 0.000000 0.825791 0.250000
#
# Coordination Sequence:
#
# PCOD9283272 Si02
#       4
#     8   8   4   8
#     4   9  18  43  64  97 150 167 219 296 326 405
#     4  10  21  39  73 105 136 179 220 281 352 415
#     4  12  24  46  76  98 138 186 230 288 358 408
#     4  11  25  47  67  97 140 181 234 289 336 414
#
# _framework density 25.296294
#
# number of rings (size 3 to 8) (size 9 to 14) (size 15 to 20)
#    0.000    1.714    5.714    0.000    0.000    4.571 
#    5.143    0.000    0.000    0.000    0.000    0.000 
#    0.000    0.000    0.000    0.000    0.000    0.000 
#
# Total GULP energy -78210.899533 kJ/mol
# GULP energy per Si atom -5586.492824 kJ/mol
# Density = 2.523872 g / cm^3
# Si number density = 25.296294 Si / 1000 Ang^3
#
#
#
# Elastic Constant Matrix: (Units=GPa)
#
#
# Indices 1 2 3 4 5 6 
#
# 1 96.6723 28.0295 35.3217 0.0000 -53.2297 0.0000
# 2 28.0295 96.6355 36.5711 0.0000 -18.6264 0.0000
# 3 35.3217 36.5711 140.2293 0.0000 -43.8237 0.0000
# 4 0.0000 0.0000 0.0000 -22.4442 0.0000 -41.7616
# 5 -53.2297 -18.6264 -43.8237 0.0000 59.2963 0.0000
# 6 0.0000 0.0000 0.0000 -41.7616 0.0000 23.6694
#
#
#
# Elastic Compliance Matrix: (Units=1/GPa)
#
#
# Indices 1 2 3 4 5 6 
#
# 1 0.021268 -0.003008 0.001429 0.000000 0.019203 0.000000
# 2 -0.003008 0.012059 -0.002662 0.000000 -0.000880 0.000000
# 3 0.001429 -0.002662 0.009889 0.000000 0.007755 0.000000
# 4 0.000000 0.000000 0.000000 -0.010403 0.000000 -0.018355
# 5 0.019203 -0.000880 0.007755 0.000000 0.039558 0.000000
# 6 0.000000 0.000000 0.000000 -0.018355 0.000000 0.009864
#
#
# Mechanical properties :
#
#
# Convention : Reuss Voigt Hill
#
# Bulk Modulus (GPa) = 28.79165 59.26462 44.02814
# Shear Modulus (GPa) = 48.87801 27.67860 38.27830
#
# Velocity S-wave (km/s) = 4.40047 3.31142 3.89420
# Velocity P-wave (km/s) = 6.10126 6.17250 6.13698
#
# Compressibility (1/GPa) = 0.03473229
#
# Stress axis : x y z
#
# Youngs Moduli (GPa) = 47.01910 82.92879 101.12135
#
# Poissons Ratio (x) = 0.24946 -0.14446
# Poissons Ratio (y) = 0.14144 0.26920
# Poissons Ratio (z) = -0.06717 0.22077
#
# Static dielectric constant tensor:
#      x y z
#    x 1.998530 0.000000 0.102810 
#    y 0.000000 2.362100 0.000000 
#    z 0.102810 0.000000 1.823460 
# 
# From -- ./inp_files/22451.got.cif
#   From: 2010.05.17/outbox.cif.g08.bks.cpg/sg15_12_cif.got.tgz:22451.got - 2010.06.03 18:47:42.
