data_PCOD9283829
_publ_section_title
;
Structure prediction by ZEFSAII (Michael W. Deem and Ramdas Pophale) SiO2 
 PCOD9283829
Probable space group: C 2/C
;
_chemical_formula_sum "Si O2"
_cell_formula_units_Z 48
_cell_length_a 11.502505
_cell_length_b 25.715447
_cell_length_c 16.922716
_cell_angle_alpha 90.000000
_cell_angle_beta 158.685941
_cell_angle_gamma 90.000000
_cell_volume 1819.436470
_symmetry_space_group_name_H-M "C 2/C"
_symmetry_group_IT_number 15
_symmetry_cell_setting 'monoclinic'
loop_
_space_group_symop_operation_xyz
x,y,z
-x,y,1/2-z
-x,-y,-z
x,-y,1/2+z
1/2+x,1/2+y,z
1/2-x,1/2+y,1/2-z
1/2-x,1/2-y,-z
1/2+x,1/2-y,1/2+z
loop_
_atom_site_type_symbol
_atom_site_label
_atom_site_fract_x
_atom_site_fract_y
_atom_site_fract_z
Si Si1 0.386323 0.940218 0.428671
Si Si2 0.033071 0.546333 0.185796
Si Si3 0.227726 0.161490 0.321761
Si Si4 0.290851 0.326065 0.393649
Si Si5 0.172797 0.250843 0.031944
Si Si6 0.733048 0.561603 0.667281
O O1 0.335119 0.930828 0.488855
O O2 0.643394 0.895435 0.573231
O O3 0.140894 0.939297 0.201435
O O4 0.500000 0.000000 0.500000
O O5 0.418590 0.550822 0.416122
O O6 0.001860 0.483536 0.171778
O O7 0.000000 0.571951 0.250000
O O8 0.521109 0.198476 0.478678
O O9 0.000000 0.179128 0.250000
O O10 0.026808 0.161048 0.114144
O O11 0.466368 0.297096 0.433765
O O12 0.154569 0.380518 0.276533
O O13 0.000000 0.295307 0.250000
O O14 0.006103 0.254772 0.821574
#
# Coordination Sequence:
#
# PCOD9283829 Si02
#       6
#     8   8   8   8   8   8
#     4  10  23  46  67 107 146 195 254 311 376 450
#     4  10  21  40  64  97 143 193 242 302 378 447
#     4  12  27  49  78 111 153 201 263 322 383 471
#     4  12  26  46  78 112 147 199 257 317 391 461
#     4  12  29  52  76 108 151 196 251 318 398 471
#     4  10  22  41  66  99 144 186 246 308 367 445
#
# _framework density 26.381793999999999
#
# number of rings (size 3 to 8) (size 9 to 14) (size 15 to 20)
#    0.000    1.000    3.333    2.000    4.667    5.333 
#    0.000    0.000    0.000    0.000    0.000    0.000 
#    0.000    0.000    0.000    0.000    0.000    0.000 
#
# Total GULP energy -133787.504506 kJ/mol
# GULP energy per Si atom -5574.479354 kJ/mol
# Density = 2.632175 g / cm^3
# Si number density = 26.381794 Si / 1000 Ang^3
#
#
#
# Elastic Constant Matrix: (Units=GPa)
#
#
# Indices 1 2 3 4 5 6 
#
# 1 183.5250 41.5244 39.9187 0.0005 -30.8332 -0.0025
# 2 41.5244 135.4047 16.8803 0.0022 7.4447 0.0035
# 3 39.9187 16.8803 146.2951 -0.0187 -30.3292 0.0015
# 4 0.0005 0.0022 -0.0187 27.0701 -0.0158 -17.9203
# 5 -30.8332 7.4447 -30.3292 -0.0158 58.6685 0.0012
# 6 -0.0025 0.0035 0.0015 -17.9203 0.0012 -1.5383
#
#
#
# Elastic Compliance Matrix: (Units=1/GPa)
#
#
# Indices 1 2 3 4 5 6 
#
# 1 0.006680 -0.002120 -0.000890 -0.000001 0.003320 -0.000003
# 2 -0.002120 0.008297 -0.000927 0.000001 -0.002646 0.000006
# 3 -0.000890 -0.000927 0.007967 0.000002 0.003768 -0.000009
# 4 -0.000001 0.000001 0.000002 0.004240 0.000002 -0.049397
# 5 0.003320 -0.002646 0.003768 0.000002 0.021073 -0.000019
# 6 -0.000003 0.000006 -0.000009 -0.049397 -0.000019 -0.074618
#
#
# Mechanical properties :
#
#
# Convention : Reuss Voigt Hill
#
# Bulk Modulus (GPa) = 66.36506 73.54127 69.95316
# Shear Modulus (GPa) = -371.35419 41.30015 -165.02702
#
# Velocity S-wave (km/s) = -11.87717 3.96091 -7.91765
# Velocity P-wave (km/s) = 12.76242 6.98961 7.55065
#
# Compressibility (1/GPa) = 0.01506817
#
# Stress axis : x y z
#
# Youngs Moduli (GPa) = 149.70522 120.53203 125.52444
#
# Poissons Ratio (x) = 0.25554 0.11170
# Poissons Ratio (y) = 0.31738 0.11642
# Poissons Ratio (z) = 0.13322 0.11179
#
# Static dielectric constant tensor:
#      x y z
#    x 2.043800 -0.000010 0.315850 
#    y -0.000010 2.046160 -0.000020 
#    z 0.315850 -0.000020 1.141250 
# 
# From -- ./inp_files/101251.got.cif
#   From: 2010.05.17/outbox.cif.g08.bks.cpg/sg15_51_cif.got.tgz:101251.got - 2010.06.03 18:47:42.
