data_PCOD9283603
_publ_section_title
;
Structure prediction by ZEFSAII (Michael W. Deem and Ramdas Pophale) SiO2 
 PCOD9283603
Probable space group: C 2/C
;
_chemical_formula_sum "Si O2"
_cell_formula_units_Z 40
_cell_length_a 7.883253
_cell_length_b 21.241634
_cell_length_c 10.677495
_cell_angle_alpha 90.000000
_cell_angle_beta 57.658119
_cell_angle_gamma 90.000000
_cell_volume 1510.612850
_symmetry_space_group_name_H-M "C 2/C"
_symmetry_group_IT_number 15
_symmetry_cell_setting 'monoclinic'
loop_
_space_group_symop_operation_xyz
x,y,z
-x,y,1/2-z
-x,-y,-z
x,-y,1/2+z
1/2+x,1/2+y,z
1/2-x,1/2+y,1/2-z
1/2-x,1/2-y,-z
1/2+x,1/2-y,1/2+z
loop_
_atom_site_type_symbol
_atom_site_label
_atom_site_fract_x
_atom_site_fract_y
_atom_site_fract_z
Si Si1 0.520401 0.270233 0.595998
Si Si2 0.420233 0.416238 0.641491
Si Si3 0.802256 0.586446 0.875904
Si Si4 0.262518 0.662539 0.849028
Si Si5 0.027487 0.429450 0.934373
O O1 0.500000 0.261879 0.750000
O O2 0.457572 0.342280 0.598056
O O3 0.370838 0.224573 0.580153
O O4 0.750000 0.250000 0.500000
O O5 0.500000 0.433984 0.750000
O O6 0.586299 0.444567 0.479864
O O7 0.182589 0.427149 0.757330
O O8 0.782587 0.636828 0.773683
O O9 0.000000 0.549257 0.750000
O O10 0.859206 0.606762 0.994363
O O11 0.500000 0.673910 0.750000
O O12 0.184143 0.608309 0.976829
O O13 0.000000 0.500000 0.000000
#
# Coordination Sequence:
#
# PCOD9283603 Si02
#       5
#     8   8   8   8   8
#     4  11  19  35  63  89 119 164 212 256 316 396
#     4   9  18  34  61  92 118 155 207 258 310 377
#     4   9  18  38  62  84 116 157 200 250 313 380
#     4  11  23  39  58  88 126 165 210 269 327 380
#     4  10  21  40  63  89 121 163 215 265 317 393
#
# _framework density 26.479320999999999
#
# number of rings (size 3 to 8) (size 9 to 14) (size 15 to 20)
#    0.000    2.000    0.000    7.800    0.000    2.400 
#    0.000   21.000    0.000    0.000    0.000    0.000 
#    0.000    0.000    0.000    0.000    0.000    0.000 
#
# Total GULP energy -111538.294387 kJ/mol
# GULP energy per Si atom -5576.914719 kJ/mol
# Density = 2.641905 g / cm^3
# Si number density = 26.479321 Si / 1000 Ang^3
#
#
#
# Elastic Constant Matrix: (Units=GPa)
#
#
# Indices 1 2 3 4 5 6 
#
# 1 93.4416 32.8990 24.3753 0.0000 -39.6130 0.0000
# 2 32.8990 112.6778 34.1347 0.0000 -47.1753 0.0000
# 3 24.3753 34.1347 266.9930 0.0000 -60.0929 0.0000
# 4 0.0000 0.0000 0.0000 -7.2840 0.0000 -11.3705
# 5 -39.6130 -47.1753 -60.0929 0.0000 68.0624 0.0000
# 6 0.0000 0.0000 0.0000 -11.3705 0.0000 28.5078
#
#
#
# Elastic Compliance Matrix: (Units=1/GPa)
#
#
# Indices 1 2 3 4 5 6 
#
# 1 0.014380 -0.000915 0.000680 0.000000 0.008336 0.000000
# 2 -0.000915 0.012603 0.000397 0.000000 0.008554 0.000000
# 3 0.000680 0.000397 0.004722 0.000000 0.004841 0.000000
# 4 0.000000 0.000000 0.000000 -0.084608 0.000000 -0.033746
# 5 0.008336 0.008554 0.004841 0.000000 0.029747 0.000000
# 6 0.000000 0.000000 0.000000 -0.033746 0.000000 0.021618
#
#
# Mechanical properties :
#
#
# Convention : Reuss Voigt Hill
#
# Bulk Modulus (GPa) = 31.21916 72.88113 52.05015
# Shear Modulus (GPa) = 567.37702 43.30414 305.34058
#
# Velocity S-wave (km/s) = 14.65390 4.04839 10.75003
# Velocity P-wave (km/s) = 17.26648 7.03108 13.18271
#
# Compressibility (1/GPa) = 0.03203161
#
# Stress axis : x y z
#
# Youngs Moduli (GPa) = 69.53878 79.34764 211.77655
#
# Poissons Ratio (x) = 0.07257 -0.14408
# Poissons Ratio (y) = 0.06360 -0.08418
# Poissons Ratio (z) = -0.04731 -0.03154
#
# Static dielectric constant tensor:
#      x y z
#    x 2.179860 0.000000 -0.066860 
#    y 0.000000 0.841750 0.000000 
#    z -0.066860 0.000000 2.095480 
# 
# From -- ./inp_files/138151.got.cif
#   From: 2010.05.17/outbox.cif.g08.bks.cpg/sg15_70_cif.got.tgz:138151.got - 2010.06.03 18:47:42.
