data_PCOD9283029
_publ_section_title
;
Structure prediction by ZEFSAII (Michael W. Deem and Ramdas Pophale) SiO2 
 PCOD9283029
Probable space group: C 2/C
;
_chemical_formula_sum "Si O2"
_cell_formula_units_Z 44
_cell_length_a 10.549517
_cell_length_b 16.517377
_cell_length_c 14.341353
_cell_angle_alpha 90.000000
_cell_angle_beta 58.364337
_cell_angle_gamma 90.000000
_cell_volume 2127.638038
_symmetry_space_group_name_H-M "C 2/C"
_symmetry_group_IT_number 15
_symmetry_cell_setting 'monoclinic'
loop_
_space_group_symop_operation_xyz
x,y,z
-x,y,1/2-z
-x,-y,-z
x,-y,1/2+z
1/2+x,1/2+y,z
1/2-x,1/2+y,1/2-z
1/2-x,1/2-y,-z
1/2+x,1/2-y,1/2+z
loop_
_atom_site_type_symbol
_atom_site_label
_atom_site_fract_x
_atom_site_fract_y
_atom_site_fract_z
Si Si1 0.371348 0.182033 0.969199
Si Si2 0.768504 0.127030 0.229917
Si Si3 0.182399 0.124294 0.502112
Si Si4 0.486773 0.223784 0.389517
Si Si5 0.821447 0.482644 0.568522
Si Si6 0.500000 0.258658 0.750000
O O1 0.473744 0.195615 0.842674
O O2 0.250000 0.250000 0.000000
O O3 0.460309 0.202816 0.027057
O O4 0.302301 0.094727 0.008774
O O5 0.837513 0.105421 0.101691
O O6 0.620506 0.184388 0.277985
O O7 0.725178 0.048888 0.310204
O O8 0.877689 0.180819 0.252773
O O9 0.332418 0.177479 0.438459
O O10 0.051483 0.180836 0.594788
O O11 0.225728 0.053083 0.557217
O O12 0.000000 0.500000 0.500000
#
# Coordination Sequence:
#
# PCOD9283029 Si02
#       6
#     8   8   8   8   8   4
#     4  11  21  41  64  92 128 170 219 271 319 395
#     4  11  23  41  71  96 133 179 221 270 337 396
#     4  11  22  41  69  96 135 174 213 278 336 380
#     4  10  21  39  66  95 127 168 224 266 324 401
#     4  11  23  41  65  97 135 164 225 273 324 393
#     4  12  22  40  70  92 130 178 224 264 334 396
#
# _framework density 20.680209000000001
#
# number of rings (size 3 to 8) (size 9 to 14) (size 15 to 20)
#    0.000    1.091    9.091    0.545    0.000    1.455 
#    0.000    3.636   12.000    0.000    0.000    0.000 
#    0.000    0.000    0.000    0.000    0.000    0.000 
#
# Total GULP energy -122551.182242 kJ/mol
# GULP energy per Si atom -5570.508284 kJ/mol
# Density = 2.063314 g / cm^3
# Si number density = 20.680209 Si / 1000 Ang^3
#
#
#
# Elastic Constant Matrix: (Units=GPa)
#
#
# Indices 1 2 3 4 5 6 
#
# 1 52.4608 14.4044 17.3297 0.0000 13.6514 0.0000
# 2 14.4044 125.9947 39.2181 0.0000 9.7337 0.0000
# 3 17.3297 39.2181 60.4999 0.0000 19.1493 0.0000
# 4 0.0000 0.0000 0.0000 19.1461 0.0000 1.2537
# 5 13.6514 9.7337 19.1493 0.0000 24.5353 0.0000
# 6 0.0000 0.0000 0.0000 1.2537 0.0000 47.5856
#
#
#
# Elastic Compliance Matrix: (Units=1/GPa)
#
#
# Indices 1 2 3 4 5 6 
#
# 1 0.022884 -0.000995 -0.002663 0.000000 -0.010260 0.000000
# 2 -0.000995 0.010025 -0.006813 0.000000 0.001894 0.000000
# 3 -0.002663 -0.006813 0.027071 0.000000 -0.016944 0.000000
# 4 0.000000 0.000000 0.000000 0.052320 0.000000 -0.001378
# 5 -0.010260 0.001894 -0.016944 0.000000 0.058940 0.000000
# 6 0.000000 0.000000 0.000000 -0.001378 0.000000 0.021051
#
#
# Mechanical properties :
#
#
# Convention : Reuss Voigt Hill
#
# Bulk Modulus (GPa) = 25.61503 42.31774 33.96639
# Shear Modulus (GPa) = 22.09986 29.45360 25.77673
#
# Velocity S-wave (km/s) = 3.27256 3.77801 3.53433
# Velocity P-wave (km/s) = 5.16650 6.28796 5.75461
#
# Compressibility (1/GPa) = 0.03903959
#
# Stress axis : x y z
#
# Youngs Moduli (GPa) = 43.69780 99.75139 36.93960
#
# Poissons Ratio (x) = 0.09923 0.09836
# Poissons Ratio (y) = 0.04347 0.25167
# Poissons Ratio (z) = 0.11636 0.67960
#
# Static dielectric constant tensor:
#      x y z
#    x 1.758810 0.000000 -0.017030 
#    y 0.000000 1.748810 0.000000 
#    z -0.017030 0.000000 1.622080 
# 
# From -- ./inp_files/143384.got.cif
#   From: 2010.05.17/outbox.cif.g08.bks.cpg/sg15_72_cif.got.tgz:143384.got - 2010.06.03 18:47:42.
