data_PCOD9283666
_publ_section_title
;
Structure prediction by ZEFSAII (Michael W. Deem and Ramdas Pophale) SiO2 
 PCOD9283666
Probable space group: C 2/C
;
_chemical_formula_sum "Si O2"
_cell_formula_units_Z 48
_cell_length_a 25.536849
_cell_length_b 9.455316
_cell_length_c 9.822612
_cell_angle_alpha 90.000000
_cell_angle_beta 80.662978
_cell_angle_gamma 90.000000
_cell_volume 2340.334636
_symmetry_space_group_name_H-M "C 2/C"
_symmetry_group_IT_number 15
_symmetry_cell_setting 'monoclinic'
loop_
_space_group_symop_operation_xyz
x,y,z
-x,y,1/2-z
-x,-y,-z
x,-y,1/2+z
1/2+x,1/2+y,z
1/2-x,1/2+y,1/2-z
1/2-x,1/2-y,-z
1/2+x,1/2-y,1/2+z
loop_
_atom_site_type_symbol
_atom_site_label
_atom_site_fract_x
_atom_site_fract_y
_atom_site_fract_z
Si Si1 0.669681 0.535408 0.445542
Si Si2 0.092309 0.793014 0.420419
Si Si3 0.273877 0.639606 0.342222
Si Si4 0.672274 0.882626 0.048545
Si Si5 0.988964 0.637522 0.414348
Si Si6 0.871540 0.309049 0.892760
O O1 0.615691 0.450632 0.429817
O O2 0.706082 0.563201 0.299979
O O3 0.699698 0.438090 0.540396
O O4 0.659486 0.683776 0.521695
O O5 0.118419 0.697523 0.528233
O O6 0.029570 0.762099 0.441186
O O7 0.114390 0.736289 0.266752
O O8 0.298104 0.797532 0.343275
O O9 0.211898 0.633518 0.402447
O O10 0.659419 0.043315 0.088205
O O11 0.000000 0.606401 0.250000
O O12 0.000000 0.500000 0.500000
O O13 0.927339 0.675129 0.448217
#
# Coordination Sequence:
#
# PCOD9283666 Si02
#       6
#     8   8   8   8   8   8
#     4  11  23  43  61  89 128 166 207 254 317 367
#     4  10  22  42  61  90 130 157 208 262 308 372
#     4  10  24  41  61  92 128 165 209 258 305 377
#     4  10  23  39  64  91 126 163 212 256 311 366
#     4  10  21  40  63  94 122 157 207 259 309 370
#     4  11  23  38  68  91 119 168 207 255 315 370
#
# _framework density 20.509886999999999
#
# number of rings (size 3 to 8) (size 9 to 14) (size 15 to 20)
#    0.000    1.667    3.333    0.000    4.667    4.000 
#    0.000    0.000    0.000    0.000    0.000    0.000 
#    0.000    0.000    0.000    0.000    0.000    0.000 
#
# Total GULP energy -134099.692836 kJ/mol
# GULP energy per Si atom -5587.487202 kJ/mol
# Density = 2.046321 g / cm^3
# Si number density = 20.509887 Si / 1000 Ang^3
#
#
#
# Elastic Constant Matrix: (Units=GPa)
#
#
# Indices 1 2 3 4 5 6 
#
# 1 81.0574 17.8872 0.6595 0.0000 0.8224 0.0000
# 2 17.8872 117.2429 15.1986 0.0000 -3.4597 0.0000
# 3 0.6595 15.1986 30.1892 0.0000 0.7409 0.0000
# 4 0.0000 0.0000 0.0000 20.7241 0.0000 -7.3198
# 5 0.8224 -3.4597 0.7409 0.0000 19.7047 0.0000
# 6 0.0000 0.0000 0.0000 -7.3198 0.0000 28.5255
#
#
#
# Elastic Compliance Matrix: (Units=1/GPa)
#
#
# Indices 1 2 3 4 5 6 
#
# 1 0.012800 -0.002083 0.000792 0.000000 -0.000930 0.000000
# 2 -0.002083 0.009526 -0.004798 0.000000 0.001940 0.000000
# 3 0.000792 -0.004798 0.035577 0.000000 -0.002213 0.000000
# 4 0.000000 0.000000 0.000000 0.053062 0.000000 0.013616
# 5 -0.000930 0.001940 -0.002213 0.000000 0.051212 0.000000
# 6 0.000000 0.000000 0.000000 0.013616 0.000000 0.038550
#
#
# Mechanical properties :
#
#
# Convention : Reuss Voigt Hill
#
# Bulk Modulus (GPa) = 21.87003 32.88666 27.37835
# Shear Modulus (GPa) = 21.91569 26.77382 24.34476
#
# Velocity S-wave (km/s) = 3.27240 3.61697 3.44899
# Velocity P-wave (km/s) = 4.99645 5.78901 5.40727
#
# Compressibility (1/GPa) = 0.04572467
#
# Stress axis : x y z
#
# Youngs Moduli (GPa) = 78.12772 104.97249 28.10800
#
# Poissons Ratio (x) = 0.21864 -0.02226
# Poissons Ratio (y) = 0.16273 0.13486
# Poissons Ratio (z) = -0.06186 0.50367
#
# Static dielectric constant tensor:
#      x y z
#    x 1.832160 0.000000 -0.011000 
#    y 0.000000 1.738980 0.000000 
#    z -0.011000 0.000000 1.708520 
# 
# From -- ./inp_files/116276.got.cif
#   From: 2010.05.17/outbox.cif.g08.bks.cpg/sg15_59_cif.got.tgz:116276.got - 2010.06.03 18:47:42.
