data_PCOD9283381
_publ_section_title
;
Structure prediction by ZEFSAII (Michael W. Deem and Ramdas Pophale) SiO2 
 PCOD9283381
Probable space group: C 2/C
;
_chemical_formula_sum "Si O2"
_cell_formula_units_Z 64
_cell_length_a 17.968232
_cell_length_b 21.697654
_cell_length_c 23.468075
_cell_angle_alpha 90.000000
_cell_angle_beta 159.630773
_cell_angle_gamma 90.000000
_cell_volume 3184.640618
_symmetry_space_group_name_H-M "C 2/C"
_symmetry_group_IT_number 15
_symmetry_cell_setting 'monoclinic'
loop_
_space_group_symop_operation_xyz
x,y,z
-x,y,1/2-z
-x,-y,-z
x,-y,1/2+z
1/2+x,1/2+y,z
1/2-x,1/2+y,1/2-z
1/2-x,1/2-y,-z
1/2+x,1/2-y,1/2+z
loop_
_atom_site_type_symbol
_atom_site_label
_atom_site_fract_x
_atom_site_fract_y
_atom_site_fract_z
Si Si1 0.089526 0.520169 0.002396
Si Si2 0.140442 0.858238 0.635015
Si Si3 0.984727 0.912787 0.835745
Si Si4 0.200071 0.896797 0.202168
Si Si5 0.042195 0.720312 0.599954
Si Si6 0.056745 0.219023 0.228325
Si Si7 0.498565 0.930303 0.658339
Si Si8 0.315106 0.468462 0.977733
O O1 0.916733 0.565466 0.849965
O O2 0.098382 0.462670 0.966545
O O3 0.312111 0.555087 0.171023
O O4 0.000000 0.500000 0.000000
O O5 0.130317 0.895486 0.686946
O O6 0.111386 0.786440 0.625780
O O7 0.360226 0.872851 0.760404
O O8 0.940993 0.881912 0.454423
O O9 0.058807 0.846649 0.865196
O O10 0.158883 0.964590 0.975464
O O11 0.283009 0.831785 0.286098
O O12 0.044352 0.938759 0.128906
O O13 0.014172 0.732733 0.647615
O O14 0.810104 0.704236 0.408667
O O15 0.000000 0.243145 0.250000
O O16 0.312133 0.923950 0.570606
O O17 0.676541 0.971054 0.820377
#
# Coordination Sequence:
#
# PCOD9283381 Si02
#       8
#     8   8   8   8   8   8   8   8
#     4  12  21  35  60  91 120 154 197 249 305 366
#     4  10  21  40  61  83 114 164 204 244 291 366
#     4  11  22  36  58  90 120 153 197 243 306 369
#     4  11  21  38  62  86 117 160 204 247 296 365
#     4  11  22  40  62  86 113 160 210 245 296 355
#     4  11  24  40  59  86 123 157 198 249 301 356
#     4  10  22  39  60  85 125 158 201 249 303 362
#     4  10  22  39  59  89 122 161 198 248 310 361
#
# _framework density 20.096458999999999
#
# number of rings (size 3 to 8) (size 9 to 14) (size 15 to 20)
#    0.000    1.250    5.000    1.125    1.750    2.000 
#    0.000    0.625    0.000    0.000    0.000    0.000 
#    0.000    0.000    0.000    0.000    0.000    0.000 
#
# Total GULP energy -178748.675024 kJ/mol
# GULP energy per Si atom -5585.896095 kJ/mol
# Density = 2.005072 g / cm^3
# Si number density = 20.096459 Si / 1000 Ang^3
#
#
#
# Elastic Constant Matrix: (Units=GPa)
#
#
# Indices 1 2 3 4 5 6 
#
# 1 48.1118 8.2092 1.3276 0.0200 -11.9730 -0.0018
# 2 8.2092 64.6886 10.2972 -0.0123 -3.6621 -0.0070
# 3 1.3276 10.2972 67.7715 -0.1393 -7.3530 -0.0386
# 4 0.0200 -0.0123 -0.1393 27.7601 -0.0092 -4.5449
# 5 -11.9730 -3.6621 -7.3530 -0.0092 19.6254 -0.0102
# 6 -0.0018 -0.0070 -0.0386 -4.5449 -0.0102 9.3609
#
#
#
# Elastic Compliance Matrix: (Units=1/GPa)
#
#
# Indices 1 2 3 4 5 6 
#
# 1 0.025000 -0.002552 0.001565 -0.000002 0.015362 0.000025
# 2 -0.002552 0.016189 -0.002346 -0.000002 0.000585 0.000001
# 3 0.001565 -0.002346 0.015779 0.000099 0.006429 0.000118
# 4 -0.000002 -0.000002 0.000099 0.039134 0.000063 0.019001
# 5 0.015362 0.000585 0.006429 0.000063 0.062844 0.000129
# 6 0.000025 0.000001 0.000118 0.019001 0.000129 0.116053
#
#
# Mechanical properties :
#
#
# Convention : Reuss Voigt Hill
#
# Bulk Modulus (GPa) = 19.88021 24.47110 22.17566
# Shear Modulus (GPa) = 16.75408 22.06514 19.40961
#
# Velocity S-wave (km/s) = 2.89049 3.31714 3.11114
# Velocity P-wave (km/s) = 4.58844 5.18406 4.89532
#
# Compressibility (1/GPa) = 0.05030127
#
# Stress axis : x y z
#
# Youngs Moduli (GPa) = 39.99975 61.76981 63.37501
#
# Poissons Ratio (x) = 0.15764 -0.09917
# Poissons Ratio (y) = 0.10208 0.14870
# Poissons Ratio (z) = -0.06259 0.14493
#
# Static dielectric constant tensor:
#      x y z
#    x 1.733910 -0.000010 -0.008020 
#    y -0.000010 1.698900 -0.000060 
#    z -0.008020 -0.000060 1.720670 
# 
# From -- ./inp_files/278159.got.cif
#   From: 2010.05.17/outbox.cif.g08.bks.cpg/sg15_140_cif.got.tgz:278159.got - 2010.06.03 18:47:42.
