data_PCOD9283261
_publ_section_title
;
Structure prediction by ZEFSAII (Michael W. Deem and Ramdas Pophale) SiO2 
 PCOD9283261
Probable space group: C 2/C
;
_chemical_formula_sum "Si O2"
_cell_formula_units_Z 52
_cell_length_a 12.915881
_cell_length_b 18.130069
_cell_length_c 13.576559
_cell_angle_alpha 90.000000
_cell_angle_beta 129.394456
_cell_angle_gamma 90.000000
_cell_volume 2456.843537
_symmetry_space_group_name_H-M "C 2/C"
_symmetry_group_IT_number 15
_symmetry_cell_setting 'monoclinic'
loop_
_space_group_symop_operation_xyz
x,y,z
-x,y,1/2-z
-x,-y,-z
x,-y,1/2+z
1/2+x,1/2+y,z
1/2-x,1/2+y,1/2-z
1/2-x,1/2-y,-z
1/2+x,1/2-y,1/2+z
loop_
_atom_site_type_symbol
_atom_site_label
_atom_site_fract_x
_atom_site_fract_y
_atom_site_fract_z
Si Si1 0.721203 0.532951 0.248221
Si Si2 0.449971 0.605678 0.514606
Si Si3 0.500000 0.533865 0.750000
Si Si4 0.176085 0.263910 0.057580
Si Si5 0.403620 0.840613 0.932716
Si Si6 0.216742 0.812166 0.169793
Si Si7 0.061212 0.581091 0.692459
O O1 0.622284 0.513507 0.278698
O O2 0.805866 0.607306 0.312982
O O3 0.831401 0.469524 0.298480
O O4 0.623187 0.545674 0.096458
O O5 0.445972 0.582689 0.626542
O O6 0.378946 0.683303 0.449462
O O7 0.604033 0.625956 0.585579
O O8 0.265607 0.294349 0.202099
O O9 0.250000 0.250000 0.000000
O O10 0.045340 0.316498 0.968916
O O11 0.328207 0.763691 0.907627
O O12 0.447159 0.889450 0.051856
O O13 0.356777 0.846837 0.222372
O O14 0.000000 0.541291 0.750000
#
# Coordination Sequence:
#
# PCOD9283261 Si02
#       7
#     8   8   4   8   8   8   8
#     4  12  26  46  67 103 139 178 234 273 350 404
#     4  11  23  42  69  99 134 178 223 283 336 404
#     4  12  26  42  72  96 140 184 224 288 330 412
#     4  10  21  39  71  99 134 172 221 283 343 396
#     4  10  24  44  65  99 135 174 221 284 335 412
#     4  10  21  46  66  99 133 168 233 272 342 403
#     4  11  26  44  69  95 136 180 221 283 336 410
#
# _framework density 21.165368000000001
#
# number of rings (size 3 to 8) (size 9 to 14) (size 15 to 20)
#    0.000    1.231    3.077    1.846    4.308    3.692 
#    1.385    0.000    0.000    0.000    0.000    0.000 
#    0.000    0.000    0.000    0.000    0.000    0.000 
#
# Total GULP energy -145195.646160 kJ/mol
# GULP energy per Si atom -5584.447929 kJ/mol
# Density = 2.111719 g / cm^3
# Si number density = 21.165368 Si / 1000 Ang^3
#
#
#
# Elastic Constant Matrix: (Units=GPa)
#
#
# Indices 1 2 3 4 5 6 
#
# 1 70.2003 10.6239 24.1032 0.0000 -4.5297 0.0000
# 2 10.6239 94.4000 38.6401 0.0000 9.6503 0.0000
# 3 24.1032 38.6401 121.8486 0.0000 20.6754 0.0000
# 4 0.0000 0.0000 0.0000 42.7977 0.0000 14.7902
# 5 -4.5297 9.6503 20.6754 0.0000 25.5733 0.0000
# 6 0.0000 0.0000 0.0000 14.7902 0.0000 23.1672
#
#
#
# Elastic Compliance Matrix: (Units=1/GPa)
#
#
# Indices 1 2 3 4 5 6 
#
# 1 0.016168 -0.000829 -0.004027 0.000000 0.006432 0.000000
# 2 -0.000829 0.012280 -0.003383 0.000000 -0.002046 0.000000
# 3 -0.004027 -0.003383 0.011568 0.000000 -0.008789 0.000000
# 4 0.000000 0.000000 0.000000 0.029980 0.000000 -0.019140
# 5 0.006432 -0.002046 -0.008789 0.000000 0.048120 0.000000
# 6 0.000000 0.000000 0.000000 -0.019140 0.000000 0.055383
#
#
# Mechanical properties :
#
#
# Convention : Reuss Voigt Hill
#
# Bulk Modulus (GPa) = 42.48399 48.13148 45.30773
# Shear Modulus (GPa) = 25.27506 32.51307 28.89407
#
# Velocity S-wave (km/s) = 3.45943 3.92362 3.69881
# Velocity P-wave (km/s) = 6.00607 6.58152 6.30037
#
# Compressibility (1/GPa) = 0.02353828
#
# Stress axis : x y z
#
# Youngs Moduli (GPa) = 61.85043 81.43009 86.44812
#
# Poissons Ratio (x) = 0.06749 0.34811
# Poissons Ratio (y) = 0.05126 0.29248
# Poissons Ratio (z) = 0.24906 0.27550
#
# Static dielectric constant tensor:
#      x y z
#    x 1.767980 0.000000 0.011060 
#    y 0.000000 1.785850 0.000000 
#    z 0.011060 0.000000 1.777960 
# 
# From -- ./inp_files/89734.got.cif
#   From: 2010.05.17/outbox.cif.g08.bks.cpg/sg15_45_cif.got.tgz:89734.got - 2010.06.03 18:47:42.
