data_PCOD9283508
_publ_section_title
;
Structure prediction by ZEFSAII (Michael W. Deem and Ramdas Pophale) SiO2 
 PCOD9283508
Probable space group: C 2/C
;
_chemical_formula_sum "Si O2"
_cell_formula_units_Z 40
_cell_length_a 8.972529
_cell_length_b 11.231233
_cell_length_c 22.679568
_cell_angle_alpha 90.000000
_cell_angle_beta 45.386041
_cell_angle_gamma 90.000000
_cell_volume 1626.929000
_symmetry_space_group_name_H-M "C 2/C"
_symmetry_group_IT_number 15
_symmetry_cell_setting 'monoclinic'
loop_
_space_group_symop_operation_xyz
x,y,z
-x,y,1/2-z
-x,-y,-z
x,-y,1/2+z
1/2+x,1/2+y,z
1/2-x,1/2+y,1/2-z
1/2-x,1/2-y,-z
1/2+x,1/2-y,1/2+z
loop_
_atom_site_type_symbol
_atom_site_label
_atom_site_fract_x
_atom_site_fract_y
_atom_site_fract_z
Si Si1 0.493930 0.007017 0.685836
Si Si2 0.935304 0.891466 0.560827
Si Si3 0.895283 0.492756 0.093537
Si Si4 0.529835 0.474460 0.340962
Si Si5 0.499646 0.255402 0.064005
O O1 0.500000 0.064918 0.750000
O O2 0.680481 0.908024 0.637486
O O3 0.519599 0.066889 0.613906
O O4 0.244552 0.984501 0.752044
O O5 0.019069 0.781289 0.500633
O O6 0.029618 0.918221 0.598107
O O7 0.000000 0.000000 0.500000
O O8 0.662730 0.444905 0.147502
O O9 0.896324 0.632669 0.110194
O O10 0.000000 0.500000 0.000000
O O11 0.566476 0.361894 0.374279
O O12 0.750000 0.250000 0.000000
#
# Coordination Sequence:
#
# PCOD9283508 Si02
#       5
#     8   8   8   8   8
#     4  10  21  40  62  89 135 176 206 277 353 393
#     4   9  18  38  63  87 125 174 216 267 338 403
#     4  12  22  39  68  96 130 177 231 277 332 415
#     4  10  22  39  62  96 134 171 223 283 344 401
#     4  11  20  39  67  96 130 175 229 273 332 421
#
# _framework density 24.586199000000001
#
# number of rings (size 3 to 8) (size 9 to 14) (size 15 to 20)
#    0.000    1.600    4.000    1.800    0.000    0.800 
#    0.000   16.000    0.000    0.000    0.000    0.000 
#    0.000    0.000    0.000    0.000    0.000    0.000 
#
# Total GULP energy -111360.954948 kJ/mol
# GULP energy per Si atom -5568.047747 kJ/mol
# Density = 2.453024 g / cm^3
# Si number density = 24.586199 Si / 1000 Ang^3
#
#
#
# Elastic Constant Matrix: (Units=GPa)
#
#
# Indices 1 2 3 4 5 6 
#
# 1 124.9420 -7.3435 45.8700 0.0000 21.4763 0.0000
# 2 -7.3435 61.6264 31.6429 0.0000 -2.3886 0.0000
# 3 45.8700 31.6429 138.8451 0.0001 5.4691 0.0000
# 4 0.0000 0.0000 0.0001 31.9504 0.0000 -1.0626
# 5 21.4763 -2.3886 5.4691 0.0000 63.9796 0.0000
# 6 0.0000 0.0000 0.0000 -1.0626 0.0000 22.0410
#
#
#
# Elastic Compliance Matrix: (Units=1/GPa)
#
#
# Indices 1 2 3 4 5 6 
#
# 1 0.010143 0.003120 -0.003946 0.000000 -0.002951 0.000000
# 2 0.003120 0.019407 -0.005459 0.000000 0.000144 0.000000
# 3 -0.003946 -0.005459 0.009739 0.000000 0.000288 0.000000
# 4 0.000000 0.000000 0.000000 0.031349 0.000000 0.001511
# 5 -0.002951 0.000144 0.000288 0.000000 0.016601 0.000000
# 6 0.000000 0.000000 0.000000 0.001511 0.000000 0.045443
#
#
# Mechanical properties :
#
#
# Convention : Reuss Voigt Hill
#
# Bulk Modulus (GPa) = 37.42632 51.75025 44.58829
# Shear Modulus (GPa) = 32.43418 40.61048 36.52233
#
# Velocity S-wave (km/s) = 3.63602 4.06859 3.85838
# Velocity P-wave (km/s) = 5.73438 6.57004 6.16638
#
# Compressibility (1/GPa) = 0.02671916
#
# Stress axis : x y z
#
# Youngs Moduli (GPa) = 98.59048 51.52664 102.68312
#
# Poissons Ratio (x) = -0.16078 0.40517
# Poissons Ratio (y) = -0.30763 0.56060
# Poissons Ratio (z) = 0.38902 0.28131
#
# Static dielectric constant tensor:
#      x y z
#    x 2.053390 0.000000 0.091610 
#    y 0.000000 2.020240 0.000000 
#    z 0.091610 0.000000 2.082960 
# 
# From -- ./inp_files/230947.got.cif
#   From: 2010.05.17/outbox.cif.g08.bks.cpg/sg15_116_cif.got.tgz:230947.got - 2010.06.03 18:47:42.
