data_PCOD9283041
_publ_section_title
;
Structure prediction by ZEFSAII (Michael W. Deem and Ramdas Pophale) SiO2 
 PCOD9283041
Probable space group: C 2/C
;
_chemical_formula_sum "Si O2"
_cell_formula_units_Z 56
_cell_length_a 16.603015
_cell_length_b 9.688767
_cell_length_c 20.202653
_cell_angle_alpha 90.000000
_cell_angle_beta 60.093705
_cell_angle_gamma 90.000000
_cell_volume 2817.110030
_symmetry_space_group_name_H-M "C 2/C"
_symmetry_group_IT_number 15
_symmetry_cell_setting 'monoclinic'
loop_
_space_group_symop_operation_xyz
x,y,z
-x,y,1/2-z
-x,-y,-z
x,-y,1/2+z
1/2+x,1/2+y,z
1/2-x,1/2+y,1/2-z
1/2-x,1/2-y,-z
1/2+x,1/2-y,1/2+z
loop_
_atom_site_type_symbol
_atom_site_label
_atom_site_fract_x
_atom_site_fract_y
_atom_site_fract_z
Si Si1 0.401119 0.326117 0.767268
Si Si2 0.197115 0.414491 0.443391
Si Si3 0.615955 0.322693 0.058093
Si Si4 0.422591 0.392917 0.184846
Si Si5 0.764238 0.717381 0.069759
Si Si6 0.230994 0.750193 0.800160
Si Si7 0.657945 0.496183 0.909803
O O1 0.500000 0.266122 0.750000
O O2 0.416666 0.484599 0.739987
O O3 0.332847 0.318604 0.856760
O O4 0.342818 0.261399 0.729694
O O5 0.298969 0.375385 0.431267
O O6 0.132439 0.328152 0.519682
O O7 0.177408 0.576640 0.449620
O O8 0.195772 0.358301 0.369283
O O9 0.522581 0.323287 0.139151
O O10 0.621093 0.420457 0.990495
O O11 0.332589 0.295602 0.232691
O O12 0.415780 0.470861 0.116814
O O13 0.802710 0.855321 0.086949
O O14 0.750000 0.750000 0.000000
O O15 0.229955 0.894371 0.841941
#
# Coordination Sequence:
#
# PCOD9283041 Si02
#       7
#     8   8   8   8   8   8   8
#     4  11  24  42  67 100 128 172 227 272 330 399
#     4  10  21  40  64  95 131 175 216 268 335 392
#     4  10  21  39  66  96 129 168 227 274 321 398
#     4  11  21  39  70  97 127 174 229 274 327 394
#     4  12  22  40  66  92 133 177 214 268 335 390
#     4  10  22  41  66  94 132 169 218 278 326 385
#     4  10  22  39  63  95 134 171 217 270 334 391
#
# _framework density 19.878526999999998
#
# number of rings (size 3 to 8) (size 9 to 14) (size 15 to 20)
#    0.000    1.429    4.286    1.286    0.000    0.000 
#    0.000    2.143    0.000    0.000    0.000    0.000 
#    0.000    0.000    0.000    0.000    0.000    0.000 
#
# Total GULP energy -156213.809028 kJ/mol
# GULP energy per Si atom -5579.064608 kJ/mol
# Density = 1.983328 g / cm^3
# Si number density = 19.878527 Si / 1000 Ang^3
#
#
#
# Elastic Constant Matrix: (Units=GPa)
#
#
# Indices 1 2 3 4 5 6 
#
# 1 74.3270 39.7081 53.4238 0.0000 2.4777 0.0000
# 2 39.7081 122.5314 47.8600 0.0000 0.8473 0.0000
# 3 53.4238 47.8600 125.3421 0.0000 10.0306 0.0000
# 4 0.0000 0.0000 0.0000 17.6726 0.0000 -2.0708
# 5 2.4777 0.8473 10.0306 0.0000 30.0293 0.0000
# 6 0.0000 0.0000 0.0000 -2.0708 0.0000 14.8575
#
#
#
# Elastic Compliance Matrix: (Units=1/GPa)
#
#
# Indices 1 2 3 4 5 6 
#
# 1 0.020865 -0.003839 -0.007499 0.000000 0.000892 0.000000
# 2 -0.003839 0.010326 -0.002372 0.000000 0.000818 0.000000
# 3 -0.007499 -0.002372 0.012355 0.000000 -0.003441 0.000000
# 4 0.000000 0.000000 0.000000 0.057524 0.000000 0.008018
# 5 0.000892 0.000818 -0.003441 0.000000 0.034354 0.000000
# 6 0.000000 0.000000 0.000000 0.008018 0.000000 0.068424
#
#
# Mechanical properties :
#
#
# Convention : Reuss Voigt Hill
#
# Bulk Modulus (GPa) = 62.00683 67.13160 64.56921
# Shear Modulus (GPa) = 21.12887 24.59245 22.86066
#
# Velocity S-wave (km/s) = 3.26375 3.52111 3.39487
# Velocity P-wave (km/s) = 6.74265 7.09755 6.92237
#
# Compressibility (1/GPa) = 0.01612726
#
# Stress axis : x y z
#
# Youngs Moduli (GPa) = 47.92711 96.84223 80.93591
#
# Poissons Ratio (x) = 0.37176 0.60692
# Poissons Ratio (y) = 0.18398 0.19199
# Poissons Ratio (z) = 0.35939 0.22972
#
# Static dielectric constant tensor:
#      x y z
#    x 1.816700 0.000000 0.064570 
#    y 0.000000 1.742280 0.000000 
#    z 0.064570 0.000000 1.720250 
# 
# From -- ./inp_files/247362.got.cif
#   From: 2010.05.17/outbox.cif.g08.bks.cpg/sg15_124_cif.got.tgz:247362.got - 2010.06.03 18:47:42.
