data_PCOD9283057
_publ_section_title
;
Structure prediction by ZEFSAII (Michael W. Deem and Ramdas Pophale) SiO2 
 PCOD9283057
Probable space group: C 2/C
;
_chemical_formula_sum "Si O2"
_cell_formula_units_Z 60
_cell_length_a 14.631656
_cell_length_b 11.051474
_cell_length_c 17.722390
_cell_angle_alpha 90.000000
_cell_angle_beta 78.081669
_cell_angle_gamma 90.000000
_cell_volume 2803.957921
_symmetry_space_group_name_H-M "C 2/C"
_symmetry_group_IT_number 15
_symmetry_cell_setting 'monoclinic'
loop_
_space_group_symop_operation_xyz
x,y,z
-x,y,1/2-z
-x,-y,-z
x,-y,1/2+z
1/2+x,1/2+y,z
1/2-x,1/2+y,1/2-z
1/2-x,1/2-y,-z
1/2+x,1/2-y,1/2+z
loop_
_atom_site_type_symbol
_atom_site_label
_atom_site_fract_x
_atom_site_fract_y
_atom_site_fract_z
Si Si1 0.360241 0.742750 0.705735
Si Si2 0.703467 0.684308 0.936248
Si Si3 0.500426 0.480604 0.165037
Si Si4 0.688562 0.323361 0.122145
Si Si5 0.479744 0.303227 0.946688
Si Si6 0.132817 0.639992 0.002150
Si Si7 0.388236 0.928074 0.393928
Si Si8 0.500000 0.066367 0.250000
O O1 0.304529 0.764150 0.638150
O O2 0.421333 0.622314 0.680308
O O3 0.302789 0.718517 0.792312
O O4 0.433959 0.847545 0.711343
O O5 0.776244 0.578922 0.904786
O O6 0.750000 0.750000 0.000000
O O7 0.600289 0.652167 0.982060
O O8 0.500000 0.532913 0.250000
O O9 0.599879 0.413793 0.133863
O O10 0.484383 0.584455 0.107286
O O11 0.781590 0.378920 0.070024
O O12 0.666592 0.208282 0.072575
O O13 0.559118 0.230123 0.976982
O O14 0.430086 0.204316 0.901321
O O15 0.092808 0.512663 0.036950
O O16 0.436218 0.986275 0.314157
#
# Coordination Sequence:
#
# PCOD9283057 Si02
#       8
#     8   8   8   8   8   8   8   4
#     4  11  21  44  72  97 131 180 227 279 348 394
#     4  10  24  44  65  96 136 179 222 274 338 406
#     4  10  21  41  65  94 135 174 223 276 340 402
#     4  10  21  39  66  98 129 171 224 290 327 405
#     4  11  24  41  65  95 135 184 220 276 337 404
#     4  11  22  40  68 100 133 169 233 272 339 397
#     4  11  24  42  65  96 140 177 222 274 340 404
#     4  12  22  44  74 102 134 176 232 286 340 414
#
# _framework density 21.398323000000001
#
# number of rings (size 3 to 8) (size 9 to 14) (size 15 to 20)
#    0.000    1.333    3.333    2.800    0.933    6.400 
#    2.400    2.667    0.000    0.000    0.000    0.000 
#    0.000    0.000    0.000    0.000    0.000    0.000 
#
# Total GULP energy -167714.011551 kJ/mol
# GULP energy per Si atom -5590.467052 kJ/mol
# Density = 2.134962 g / cm^3
# Si number density = 21.398323 Si / 1000 Ang^3
#
#
#
# Elastic Constant Matrix: (Units=GPa)
#
#
# Indices 1 2 3 4 5 6 
#
# 1 65.2972 17.2716 55.7518 0.0000 -2.9338 0.0000
# 2 17.2716 82.4322 45.2328 0.0000 -11.1991 0.0000
# 3 55.7518 45.2328 144.0837 0.0000 -9.3064 0.0000
# 4 0.0000 0.0000 0.0000 -57.1818 0.0000 41.1103
# 5 -2.9338 -11.1991 -9.3064 0.0000 45.3365 0.0000
# 6 0.0000 0.0000 0.0000 41.1103 0.0000 -5.6496
#
#
#
# Elastic Compliance Matrix: (Units=1/GPa)
#
#
# Indices 1 2 3 4 5 6 
#
# 1 0.022876 0.000037 -0.008885 0.000000 -0.000334 0.000000
# 2 0.000037 0.014992 -0.004542 0.000000 0.002774 0.000000
# 3 -0.008885 -0.004542 0.011852 0.000000 0.000736 0.000000
# 4 0.000000 0.000000 0.000000 0.004133 0.000000 0.030073
# 5 -0.000334 0.002774 0.000736 0.000000 0.022872 0.000000
# 6 0.000000 0.000000 0.000000 0.030073 0.000000 0.041830
#
#
# Mechanical properties :
#
#
# Convention : Reuss Voigt Hill
#
# Bulk Modulus (GPa) = 43.59095 58.70283 51.14689
# Shear Modulus (GPa) = 32.68386 8.07147 20.37767
#
# Velocity S-wave (km/s) = 3.91244 1.94427 3.08929
# Velocity P-wave (km/s) = 6.38944 5.70379 6.05633
#
# Compressibility (1/GPa) = 0.02294054
#
# Stress axis : x y z
#
# Youngs Moduli (GPa) = 43.71446 66.70020 84.37674
#
# Poissons Ratio (x) = -0.00246 0.74966
# Poissons Ratio (y) = -0.00161 0.38322
# Poissons Ratio (z) = 0.38839 0.30294
#
# Static dielectric constant tensor:
#      x y z
#    x 1.820450 0.000000 0.020170 
#    y 0.000000 1.752910 0.000000 
#    z 0.020170 0.000000 1.777860 
# 
# From -- ./inp_files/204419.got.cif
#   From: 2010.05.17/outbox.cif.g08.bks.cpg/sg15_103_cif.got.tgz:204419.got - 2010.06.03 18:47:42.
