data_PCOD9283859
_publ_section_title
;
Structure prediction by ZEFSAII (Michael W. Deem and Ramdas Pophale) SiO2 
 PCOD9283859
Probable space group: C 2/C
;
_chemical_formula_sum "Si O2"
_cell_formula_units_Z 48
_cell_length_a 21.216348
_cell_length_b 8.185152
_cell_length_c 13.579679
_cell_angle_alpha 90.000000
_cell_angle_beta 75.445603
_cell_angle_gamma 90.000000
_cell_volume 2282.557002
_symmetry_space_group_name_H-M "C 2/C"
_symmetry_group_IT_number 15
_symmetry_cell_setting 'monoclinic'
loop_
_space_group_symop_operation_xyz
x,y,z
-x,y,1/2-z
-x,-y,-z
x,-y,1/2+z
1/2+x,1/2+y,z
1/2-x,1/2+y,1/2-z
1/2-x,1/2-y,-z
1/2+x,1/2-y,1/2+z
loop_
_atom_site_type_symbol
_atom_site_label
_atom_site_fract_x
_atom_site_fract_y
_atom_site_fract_z
Si Si1 0.500000 0.298477 0.250000
Si Si2 0.890666 0.440812 0.831660
Si Si3 0.539955 0.445210 0.890908
Si Si4 0.271465 0.938479 0.512805
Si Si5 0.291902 0.804724 0.711459
Si Si6 0.500000 0.195366 0.750000
Si Si7 0.686035 0.441096 0.885373
O O1 0.552271 0.190904 0.168015
O O2 0.459998 0.410227 0.189915
O O3 0.837756 0.501766 0.932592
O O4 0.850056 0.366047 0.757473
O O5 0.934025 0.592880 0.780815
O O6 0.504464 0.301491 0.846584
O O7 0.611260 0.400936 0.900755
O O8 0.500000 0.500000 0.000000
O O9 0.250000 0.750000 0.500000
O O10 0.281793 0.930158 0.624939
O O11 0.214287 0.046803 0.485398
O O12 0.302817 0.623307 0.664780
O O13 0.228651 0.817217 0.804849
#
# Coordination Sequence:
#
# PCOD9283859 Si02
#       7
#     4   8   8   8   8   4   8
#     4  10  22  44  60  90 132 162 212 264 306 382
#     4  10  21  42  64  93 120 167 210 257 319 368
#     4  11  25  41  63  91 127 170 207 262 315 379
#     4   9  21  36  65  89 120 157 203 256 306 374
#     4  10  21  40  65  87 127 158 200 265 308 371
#     4  10  26  38  66  88 124 164 212 254 312 382
#     4  10  22  40  62  92 123 161 207 255 321 363
#
# _framework density 21.029046999999998
#
# number of rings (size 3 to 8) (size 9 to 14) (size 15 to 20)
#    0.000    2.000    1.667    0.000   11.667    2.667 
#    0.000    5.000    0.000    0.000    0.000    0.000 
#    0.000    0.000    0.000    0.000    0.000    0.000 
#
# Total GULP energy -133978.402732 kJ/mol
# GULP energy per Si atom -5582.433447 kJ/mol
# Density = 2.098118 g / cm^3
# Si number density = 21.029047 Si / 1000 Ang^3
#
#
#
# Elastic Constant Matrix: (Units=GPa)
#
#
# Indices 1 2 3 4 5 6 
#
# 1 105.1944 -1.8038 -6.9643 0.0000 -15.4142 0.0000
# 2 -1.8038 46.6954 -9.9673 0.0000 -5.8349 0.0000
# 3 -6.9643 -9.9673 7.1188 0.0000 3.2755 0.0000
# 4 0.0000 0.0000 0.0000 13.0891 0.0000 -11.6798
# 5 -15.4142 -5.8349 3.2755 0.0000 20.2870 0.0000
# 6 0.0000 0.0000 0.0000 -11.6798 0.0000 1.1004
#
#
#
# Elastic Compliance Matrix: (Units=1/GPa)
#
#
# Indices 1 2 3 4 5 6 
#
# 1 0.011660 0.004416 0.013967 0.000000 0.007875 0.000000
# 2 0.004416 0.032294 0.047226 0.000000 0.005018 0.000000
# 3 0.013967 0.047226 0.225909 0.000000 -0.012280 0.000000
# 4 0.000000 0.000000 0.000000 -0.009019 0.000000 -0.095725
# 5 0.007875 0.005018 -0.012280 0.000000 0.058702 0.000000
# 6 0.000000 0.000000 0.000000 -0.095725 0.000000 -0.107275
#
#
# Mechanical properties :
#
#
# Convention : Reuss Voigt Hill
#
# Bulk Modulus (GPa) = 2.49327 13.50419 7.99873
# Shear Modulus (GPa) = 23.28323 18.74493 21.01408
#
# Velocity S-wave (km/s) = 3.33106 2.98884 3.16458
# Velocity P-wave (km/s) = 3.99785 4.28328 4.14303
#
# Compressibility (1/GPa) = 0.40107995
#
# Stress axis : x y z
#
# Youngs Moduli (GPa) = 85.75991 30.96584 4.42657
#
# Poissons Ratio (x) = -0.13673 -0.06182
# Poissons Ratio (y) = -0.37869 -0.20905
# Poissons Ratio (z) = -1.19777 -1.46240
#
# Static dielectric constant tensor:
#      x y z
#    x 1.758600 0.000000 0.017570 
#    y 0.000000 1.794070 0.000000 
#    z 0.017570 0.000000 1.738240 
# 
# From -- ./inp_files/166173.got.cif
#   From: 2010.05.17/outbox.cif.g08.bks.cpg/sg15_84_cif.got.tgz:166173.got - 2010.06.03 18:47:42.
