data_PCOD9283184
_publ_section_title
;
Structure prediction by ZEFSAII (Michael W. Deem and Ramdas Pophale) SiO2 
 PCOD9283184
Probable space group: C 2/C
;
_chemical_formula_sum "Si O2"
_cell_formula_units_Z 44
_cell_length_a 31.168170
_cell_length_b 5.147394
_cell_length_c 14.081529
_cell_angle_alpha 90.000000
_cell_angle_beta 126.712883
_cell_angle_gamma 90.000000
_cell_volume 1811.042262
_symmetry_space_group_name_H-M "C 2/C"
_symmetry_group_IT_number 15
_symmetry_cell_setting 'monoclinic'
loop_
_space_group_symop_operation_xyz
x,y,z
-x,y,1/2-z
-x,-y,-z
x,-y,1/2+z
1/2+x,1/2+y,z
1/2-x,1/2+y,1/2-z
1/2-x,1/2-y,-z
1/2+x,1/2-y,1/2+z
loop_
_atom_site_type_symbol
_atom_site_label
_atom_site_fract_x
_atom_site_fract_y
_atom_site_fract_z
Si Si1 0.500000 0.543531 0.250000
Si Si2 0.407945 0.050470 0.564962
Si Si3 0.804876 0.870866 0.367627
Si Si4 0.670265 0.252338 0.445158
Si Si5 0.726835 0.459285 0.875214
Si Si6 0.988717 0.248631 0.551370
O O1 0.547462 0.735044 0.348690
O O2 0.483327 0.354601 0.314398
O O3 0.355828 0.187871 0.451986
O O4 0.384032 0.906458 0.626007
O O5 0.432706 0.840911 0.525002
O O6 0.751545 0.789469 0.355285
O O7 0.790799 0.876146 0.239360
O O8 0.822630 0.138152 0.439240
O O9 0.678670 0.493209 0.385110
O O10 0.720308 0.059063 0.499089
O O11 0.000000 0.500000 0.500000
O O12 0.000000 0.000000 0.500000
#
# Coordination Sequence:
#
# PCOD9283184 Si02
#       6
#     4   8   8   8   8   8
#     4  12  26  54  80 110 164 206 260 344 398 482
#     4  11  26  47  74 112 153 200 269 323 395 475
#     4  11  21  42  67 104 149 198 257 315 383 469
#     4  10  22  41  68 106 144 196 260 311 384 464
#     4  10  21  39  68  97 147 198 248 314 384 448
#     4  12  27  51  83 115 154 209 265 330 406 472
#
# _framework density 24.295400000000001
#
# number of rings (size 3 to 8) (size 9 to 14) (size 15 to 20)
#    0.000    1.091    3.636    2.182    0.000    1.455 
#    3.273    0.000    0.000    0.000    0.000    0.000 
#    0.000    0.000    0.000    0.000    0.000    0.000 
#
# Total GULP energy -122614.663951 kJ/mol
# GULP energy per Si atom -5573.393816 kJ/mol
# Density = 2.424010 g / cm^3
# Si number density = 24.295400 Si / 1000 Ang^3
#
#
#
# Elastic Constant Matrix: (Units=GPa)
#
#
# Indices 1 2 3 4 5 6 
#
# 1 135.9446 53.0251 58.5496 0.0000 -6.0625 0.0000
# 2 53.0251 126.6837 54.7306 0.0000 8.3471 -0.0001
# 3 58.5496 54.7306 114.7504 0.0000 -14.6027 0.0000
# 4 0.0000 0.0000 0.0000 21.0799 0.0000 6.5476
# 5 -6.0625 8.3471 -14.6027 0.0000 39.0637 0.0000
# 6 0.0000 -0.0001 0.0000 6.5476 0.0000 36.7593
#
#
#
# Elastic Compliance Matrix: (Units=1/GPa)
#
#
# Indices 1 2 3 4 5 6 
#
# 1 0.010036 -0.002611 -0.003786 0.000000 0.000700 0.000000
# 2 -0.002611 0.011286 -0.004629 0.000000 -0.004547 0.000000
# 3 -0.003786 -0.004629 0.013550 0.000000 0.005467 0.000000
# 4 0.000000 0.000000 0.000000 0.050217 0.000000 -0.008945
# 5 0.000700 -0.004547 0.005467 0.000000 0.028723 0.000000
# 6 0.000000 0.000000 0.000000 -0.008945 0.000000 0.028797
#
#
# Mechanical properties :
#
#
# Convention : Reuss Voigt Hill
#
# Bulk Modulus (GPa) = 78.00966 78.88768 78.44867
# Shear Modulus (GPa) = 29.59683 33.45215 31.52449
#
# Velocity S-wave (km/s) = 3.49407 3.71468 3.60606
# Velocity P-wave (km/s) = 6.96107 7.13716 7.04967
#
# Compressibility (1/GPa) = 0.01281892
#
# Stress axis : x y z
#
# Youngs Moduli (GPa) = 99.63726 88.60332 73.79946
#
# Poissons Ratio (x) = 0.23136 0.27944
# Poissons Ratio (y) = 0.26017 0.34165
# Poissons Ratio (z) = 0.37727 0.41018
#
# Static dielectric constant tensor:
#      x y z
#    x 1.961420 0.000000 -0.005560 
#    y 0.000000 2.062920 0.000000 
#    z -0.005560 0.000000 1.915550 
# 
# From -- ./inp_files/179828.got.cif
#   From: 2010.05.17/outbox.cif.g08.bks.cpg/sg15_90_cif.got.tgz:179828.got - 2010.06.03 18:47:42.
