data_PCOD9283173
_publ_section_title
;
Structure prediction by ZEFSAII (Michael W. Deem and Ramdas Pophale) SiO2 
 PCOD9283173
Probable space group: C 2/C
;
_chemical_formula_sum "Si O2"
_cell_formula_units_Z 56
_cell_length_a 12.518571
_cell_length_b 15.371360
_cell_length_c 16.222561
_cell_angle_alpha 90.000000
_cell_angle_beta 121.864953
_cell_angle_gamma 90.000000
_cell_volume 2651.214795
_symmetry_space_group_name_H-M "C 2/C"
_symmetry_group_IT_number 15
_symmetry_cell_setting 'monoclinic'
loop_
_space_group_symop_operation_xyz
x,y,z
-x,y,1/2-z
-x,-y,-z
x,-y,1/2+z
1/2+x,1/2+y,z
1/2-x,1/2+y,1/2-z
1/2-x,1/2-y,-z
1/2+x,1/2-y,1/2+z
loop_
_atom_site_type_symbol
_atom_site_label
_atom_site_fract_x
_atom_site_fract_y
_atom_site_fract_z
Si Si1 0.261234 0.173924 0.185689
Si Si2 0.885975 0.768902 0.095377
Si Si3 0.950388 0.610791 0.392152
Si Si4 0.045511 0.902733 0.498719
Si Si5 0.100191 0.291707 0.230761
Si Si6 0.921187 0.433795 0.072062
Si Si7 0.289879 0.672986 0.952278
O O1 0.360231 0.236247 0.178051
O O2 0.328810 0.120208 0.285220
O O3 0.182389 0.111396 0.094442
O O4 0.155593 0.235903 0.180614
O O5 0.978334 0.700734 0.090123
O O6 0.750000 0.750000 0.000000
O O7 0.935020 0.863897 0.086513
O O8 0.925814 0.590722 0.477515
O O9 0.037429 0.532069 0.396910
O O10 0.935916 0.843595 0.496625
O O11 0.000000 0.000000 0.500000
O O12 0.220131 0.311586 0.336894
O O13 0.000000 0.244569 0.250000
O O14 0.020290 0.372378 0.161640
O O15 0.781071 0.412257 0.043272
O O16 0.250000 0.750000 0.000000
#
# Coordination Sequence:
#
# PCOD9283173 Si02
#       7
#     8   8   8   8   8   8   8
#     4  11  23  40  68  93 133 180 225 272 346 413
#     4  10  22  40  65  92 132 171 219 267 340 413
#     4  11  23  41  65  95 133 175 227 277 343 403
#     4  11  25  41  65  99 136 174 219 278 339 406
#     4  10  21  39  68  95 129 168 223 280 337 412
#     4  10  23  39  65  98 127 169 229 292 330 406
#     4  11  22  40  68  94 130 172 222 272 348 403
#
# _framework density 21.122394
#
# number of rings (size 3 to 8) (size 9 to 14) (size 15 to 20)
#    0.000    1.429    0.000    6.429    6.000    2.286 
#    0.000    0.000    0.000    0.000    0.000    0.000 
#    0.000    0.000    0.000    0.000    0.000    0.000 
#
# Total GULP energy -156260.410827 kJ/mol
# GULP energy per Si atom -5580.728958 kJ/mol
# Density = 2.107432 g / cm^3
# Si number density = 21.122394 Si / 1000 Ang^3
#
#
#
# Elastic Constant Matrix: (Units=GPa)
#
#
# Indices 1 2 3 4 5 6 
#
# 1 98.3890 44.6525 23.1235 0.0000 5.1822 0.0000
# 2 44.6525 104.5343 26.4291 0.0000 -11.3027 0.0000
# 3 23.1235 26.4291 109.8988 0.0000 11.4968 0.0000
# 4 0.0000 0.0000 0.0000 16.1018 0.0000 -8.7280
# 5 5.1822 -11.3027 11.4968 0.0000 32.8952 0.0000
# 6 0.0000 0.0000 0.0000 -8.7280 0.0000 22.0788
#
#
#
# Elastic Compliance Matrix: (Units=1/GPa)
#
#
# Indices 1 2 3 4 5 6 
#
# 1 0.013227 -0.005801 -0.000998 0.000000 -0.003728 0.000000
# 2 -0.005801 0.013421 -0.002683 0.000000 0.006463 0.000000
# 3 -0.000998 -0.002683 0.010415 0.000000 -0.004405 0.000000
# 4 0.000000 0.000000 0.000000 0.079042 0.000000 0.031246
# 5 -0.003728 0.006463 -0.004405 0.000000 0.034747 0.000000
# 6 0.000000 0.000000 0.000000 0.031246 0.000000 0.057644
#
#
# Mechanical properties :
#
#
# Convention : Reuss Voigt Hill
#
# Bulk Modulus (GPa) = 55.24974 55.69248 55.47111
# Shear Modulus (GPa) = 21.41375 28.78963 25.10169
#
# Velocity S-wave (km/s) = 3.18747 3.69588 3.45105
# Velocity P-wave (km/s) = 6.30558 6.68105 6.49603
#
# Compressibility (1/GPa) = 0.01809963
#
# Stress axis : x y z
#
# Youngs Moduli (GPa) = 75.60111 74.50818 96.01191
#
# Poissons Ratio (x) = 0.43221 0.09583
# Poissons Ratio (y) = 0.43855 0.25762
# Poissons Ratio (z) = 0.07546 0.19992
#
# Static dielectric constant tensor:
#      x y z
#    x 1.745250 0.000000 0.007670 
#    y 0.000000 1.791980 0.000000 
#    z 0.007670 0.000000 1.760710 
# 
# From -- ./inp_files/198444.got.cif
#   From: 2010.05.17/outbox.cif.g08.bks.cpg/sg15_100_cif.got.tgz:198444.got - 2010.06.03 18:47:42.
