data_PCOD9283390
_publ_section_title
;
Structure prediction by ZEFSAII (Michael W. Deem and Ramdas Pophale) SiO2 
 PCOD9283390
Probable space group: C 2/C
;
_chemical_formula_sum "Si O2"
_cell_formula_units_Z 56
_cell_length_a 17.675138
_cell_length_b 24.230996
_cell_length_c 16.049230
_cell_angle_alpha 90.000000
_cell_angle_beta 162.201983
_cell_angle_gamma 90.000000
_cell_volume 2101.020211
_symmetry_space_group_name_H-M "C 2/C"
_symmetry_group_IT_number 15
_symmetry_cell_setting 'monoclinic'
loop_
_space_group_symop_operation_xyz
x,y,z
-x,y,1/2-z
-x,-y,-z
x,-y,1/2+z
1/2+x,1/2+y,z
1/2-x,1/2+y,1/2-z
1/2-x,1/2-y,-z
1/2+x,1/2-y,1/2+z
loop_
_atom_site_type_symbol
_atom_site_label
_atom_site_fract_x
_atom_site_fract_y
_atom_site_fract_z
Si Si1 0.223223 0.225310 0.635548
Si Si2 0.946160 0.378777 0.810877
Si Si3 0.500000 0.602487 0.750000
Si Si4 0.500000 0.000000 0.000000
Si Si5 0.234670 0.980305 0.375266
Si Si6 0.227600 0.897686 0.930747
Si Si7 0.040576 0.618834 0.986572
Si Si8 0.242684 0.274824 0.130877
O O1 0.329619 0.163250 0.745874
O O2 0.220225 0.239038 0.731956
O O3 0.441404 0.259236 0.816561
O O4 0.738241 0.363568 0.527466
O O5 0.857852 0.374056 0.813322
O O6 0.183232 0.339316 0.060014
O O7 0.015109 0.442222 0.863467
O O8 0.455025 0.561753 0.781513
O O9 0.246022 0.005864 0.789870
O O10 0.434019 0.056831 0.876905
O O11 0.227522 0.035769 0.420613
O O12 0.240052 0.875963 0.849422
O O13 0.000000 0.880864 0.750000
O O14 0.500000 0.882290 0.250000
O O15 0.985102 0.245301 0.838678
#
# Coordination Sequence:
#
# PCOD9283390 Si02
#       8
#     8   8   4   4   8   8   8   8
#     4   9  18  35  62  91 124 167 218 267 322 387
#     4  10  22  39  61  89 123 166 220 262 323 387
#     4  12  22  36  62  88 122 172 210 266 322 390
#     4   8  18  40  62  94 126 168 218 274 328 394
#     4  10  21  40  61  86 128 169 216 260 322 392
#     4  11  23  42  65  94 131 170 209 261 331 398
#     4   9  20  41  64  97 131 169 220 275 329 395
#     4   9  19  36  58  86 118 158 210 270 320 371
#
# _framework density 26.653717
#
# number of rings (size 3 to 8) (size 9 to 14) (size 15 to 20)
#    0.000    2.286    0.714    1.286    2.000    1.143 
#   15.429    2.857    0.000    2.571    0.000    0.000 
#    0.000    0.000    0.000    0.000    0.000    0.000 
#
# Total GULP energy -156006.505794 kJ/mol
# GULP energy per Si atom -5571.660921 kJ/mol
# Density = 2.659305 g / cm^3
# Si number density = 26.653717 Si / 1000 Ang^3
#
#
#
# Elastic Constant Matrix: (Units=GPa)
#
#
# Indices 1 2 3 4 5 6 
#
# 1 149.2527 -0.3256 25.9278 0.0015 42.8227 0.0006
# 2 -0.3256 102.6979 12.3704 0.0005 16.8660 0.0002
# 3 25.9278 12.3704 94.2264 0.0002 24.9116 0.0000
# 4 0.0015 0.0005 0.0002 17.2910 0.0010 20.2692
# 5 42.8227 16.8660 24.9116 0.0010 32.0882 0.0000
# 6 0.0006 0.0002 0.0000 20.2692 0.0000 28.6090
#
#
#
# Elastic Compliance Matrix: (Units=1/GPa)
#
#
# Indices 1 2 3 4 5 6 
#
# 1 0.011655 0.002845 0.001166 0.000002 -0.017955 -0.000001
# 2 0.002845 0.011353 0.000388 0.000001 -0.010065 -0.000001
# 3 0.001166 0.000388 0.013471 0.000003 -0.012219 -0.000002
# 4 0.000002 0.000001 0.000003 0.341248 -0.000016 -0.241771
# 5 -0.017955 -0.010065 -0.012219 -0.000016 0.069902 0.000012
# 6 -0.000001 -0.000001 -0.000002 -0.241771 0.000012 0.206247
#
#
# Mechanical properties :
#
#
# Convention : Reuss Voigt Hill
#
# Bulk Modulus (GPa) = 22.08588 46.90247 34.49417
# Shear Modulus (GPa) = 7.57380 36.14461 21.85920
#
# Velocity S-wave (km/s) = 1.68752 3.68650 2.86688
# Velocity P-wave (km/s) = 3.47868 5.97959 4.89166
#
# Compressibility (1/GPa) = 0.04527780
#
# Stress axis : x y z
#
# Youngs Moduli (GPa) = 85.79810 88.08552 74.23200
#
# Poissons Ratio (x) = -0.25062 -0.08658
# Poissons Ratio (y) = -0.24412 -0.02878
# Poissons Ratio (z) = -0.10007 -0.03415
#
# Static dielectric constant tensor:
#      x y z
#    x 2.239210 0.000000 -0.078210 
#    y 0.000000 2.142130 0.000000 
#    z -0.078210 0.000000 2.144000 
# 
# From -- ./inp_files/212311.got.cif
#   From: 2010.05.17/outbox.cif.g08.bks.cpg/sg15_107_cif.got.tgz:212311.got - 2010.06.03 18:47:42.
