data_PCOD9283871
_publ_section_title
;
Structure prediction by ZEFSAII (Michael W. Deem and Ramdas Pophale) SiO2 
 PCOD9283871
Probable space group: C 2/C
;
_chemical_formula_sum "Si O2"
_cell_formula_units_Z 44
_cell_length_a 9.207513
_cell_length_b 18.513353
_cell_length_c 15.681373
_cell_angle_alpha 90.000000
_cell_angle_beta 128.263025
_cell_angle_gamma 90.000000
_cell_volume 2098.836555
_symmetry_space_group_name_H-M "C 2/C"
_symmetry_group_IT_number 15
_symmetry_cell_setting 'monoclinic'
loop_
_space_group_symop_operation_xyz
x,y,z
-x,y,1/2-z
-x,-y,-z
x,-y,1/2+z
1/2+x,1/2+y,z
1/2-x,1/2+y,1/2-z
1/2-x,1/2-y,-z
1/2+x,1/2-y,1/2+z
loop_
_atom_site_type_symbol
_atom_site_label
_atom_site_fract_x
_atom_site_fract_y
_atom_site_fract_z
Si Si1 0.692660 0.103418 0.569136
Si Si2 0.056748 0.370346 0.366239
Si Si3 0.500000 0.946116 0.750000
Si Si4 0.000000 0.209597 0.750000
Si Si5 0.310498 0.514529 0.981707
Si Si6 0.125170 0.667020 0.168693
Si Si7 0.000000 0.229845 0.250000
O O1 0.781331 0.032063 0.557662
O O2 0.542487 0.142660 0.453495
O O3 0.241674 0.099639 0.533905
O O4 0.852322 0.159034 0.650521
O O5 0.917869 0.406704 0.382968
O O6 0.000000 0.392266 0.250000
O O7 0.031260 0.283917 0.343364
O O8 0.641373 0.985236 0.863347
O O9 0.367579 0.896084 0.759405
O O10 0.080658 0.260807 0.705745
O O11 0.500000 0.500000 0.000000
O O12 0.317846 0.682191 0.193445
#
# Coordination Sequence:
#
# PCOD9283871 Si02
#       7
#     8   8   4   4   8   8   4
#     4  11  24  39  67  94 128 171 220 263 326 389
#     4  10  22  43  62  89 133 167 208 275 317 377
#     4   9  21  44  62  88 141 158 213 278 318 383
#     4  11  20  42  59  95 130 170 209 262 324 383
#     4  11  24  41  68  94 124 175 217 268 329 386
#     4  10  22  39  62  95 127 173 209 266 322 389
#     4  10  21  40  65  89 129 170 208 266 320 376
#
# _framework density 20.963996000000002
#
# number of rings (size 3 to 8) (size 9 to 14) (size 15 to 20)
#    0.545    1.091    2.727    1.091    5.091    2.182 
#    0.000    0.000    0.000    0.000    0.000    0.000 
#    0.000    0.000    0.000    0.000    0.000    0.000 
#
# Total GULP energy -122609.598097 kJ/mol
# GULP energy per Si atom -5573.163550 kJ/mol
# Density = 2.091628 g / cm^3
# Si number density = 20.963996 Si / 1000 Ang^3
#
#
#
# Elastic Constant Matrix: (Units=GPa)
#
#
# Indices 1 2 3 4 5 6 
#
# 1 108.5306 12.9730 12.8119 0.0000 1.3336 0.0000
# 2 12.9730 49.1841 22.3251 0.0000 3.9058 0.0000
# 3 12.8119 22.3251 51.8523 0.0000 -8.6207 0.0000
# 4 0.0000 0.0000 0.0000 -39.7823 0.0000 -57.1682
# 5 1.3336 3.9058 -8.6207 0.0000 39.7012 0.0000
# 6 0.0000 0.0000 0.0000 -57.1682 0.0000 -57.6454
#
#
#
# Elastic Compliance Matrix: (Units=1/GPa)
#
#
# Indices 1 2 3 4 5 6 
#
# 1 0.009629 -0.001712 -0.001730 0.000000 -0.000531 0.000000
# 2 -0.001712 0.026582 -0.011876 0.000000 -0.005136 0.000000
# 3 -0.001730 -0.011876 0.025968 0.000000 0.006865 0.000000
# 4 0.000000 0.000000 0.000000 0.059127 0.000000 -0.058638
# 5 -0.000531 -0.005136 0.006865 0.000000 0.027202 0.000000
# 6 0.000000 0.000000 0.000000 -0.058638 0.000000 0.040805
#
#
# Mechanical properties :
#
#
# Convention : Reuss Voigt Hill
#
# Bulk Modulus (GPa) = 31.70359 33.97631 32.83995
# Shear Modulus (GPa) = 21.69539 -0.78151 10.45694
#
# Velocity S-wave (km/s) = 3.22046 -0.61123 2.23582
# Velocity P-wave (km/s) = 5.38369 3.96788 4.72907
#
# Compressibility (1/GPa) = 0.03154217
#
# Stress axis : x y z
#
# Youngs Moduli (GPa) = 103.84802 37.61970 38.50965
#
# Poissons Ratio (x) = 0.06442 0.06663
# Poissons Ratio (y) = 0.17783 0.45733
# Poissons Ratio (z) = 0.17968 0.44676
#
# Static dielectric constant tensor:
#      x y z
#    x 1.806140 0.000000 -0.033110 
#    y 0.000000 1.860180 0.000000 
#    z -0.033110 0.000000 1.718440 
# 
# From -- ./inp_files/191827.got.cif
#   From: 2010.05.17/outbox.cif.g08.bks.cpg/sg15_96_cif.got.tgz:191827.got - 2010.06.03 18:47:42.
