data_PCOD9283212
_publ_section_title
;
Structure prediction by ZEFSAII (Michael W. Deem and Ramdas Pophale) SiO2 
 PCOD9283212
Probable space group: C 2/C
;
_chemical_formula_sum "Si O2"
_cell_formula_units_Z 40
_cell_length_a 7.533483
_cell_length_b 17.225916
_cell_length_c 19.671964
_cell_angle_alpha 90.000000
_cell_angle_beta 45.743178
_cell_angle_gamma 90.000000
_cell_volume 1828.401667
_symmetry_space_group_name_H-M "C 2/C"
_symmetry_group_IT_number 15
_symmetry_cell_setting 'monoclinic'
loop_
_space_group_symop_operation_xyz
x,y,z
-x,y,1/2-z
-x,-y,-z
x,-y,1/2+z
1/2+x,1/2+y,z
1/2-x,1/2+y,1/2-z
1/2-x,1/2-y,-z
1/2+x,1/2-y,1/2+z
loop_
_atom_site_type_symbol
_atom_site_label
_atom_site_fract_x
_atom_site_fract_y
_atom_site_fract_z
Si Si1 0.353539 0.421450 0.130149
Si Si2 0.125085 0.859071 0.574815
Si Si3 0.018095 0.770949 0.462827
Si Si4 0.321168 0.990740 0.958140
Si Si5 0.715259 0.536665 0.242059
O O1 0.328493 0.330899 0.125719
O O2 0.281572 0.476263 0.086179
O O3 0.232005 0.460525 0.227294
O O4 0.649944 0.434971 0.048470
O O5 0.297499 0.799482 0.569238
O O6 0.310251 0.929280 0.503399
O O7 0.007288 0.818640 0.538417
O O8 0.900806 0.897145 0.678468
O O9 0.750000 0.750000 0.500000
O O10 0.559216 0.945388 0.867756
O O11 0.500000 0.512087 0.250000
#
# Coordination Sequence:
#
# PCOD9283212 Si02
#       5
#     8   8   8   8   8
#     4   9  20  38  63  93 116 170 213 261 323 383
#     4   9  22  43  61  97 126 170 217 266 325 388
#     4  10  21  39  69  85 130 175 209 259 333 392
#     4   9  19  39  66  88 125 157 216 277 315 367
#     4  11  23  36  64  96 126 161 219 275 322 372
#
# _framework density 21.877030000000001
#
# number of rings (size 3 to 8) (size 9 to 14) (size 15 to 20)
#    0.000    2.400    0.000    1.800    5.600    1.600 
#    0.000    6.000    4.400    0.000    0.000    0.000 
#    0.000    0.000    0.000    0.000    0.000    0.000 
#
# Total GULP energy -111387.529769 kJ/mol
# GULP energy per Si atom -5569.376488 kJ/mol
# Density = 2.182724 g / cm^3
# Si number density = 21.877030 Si / 1000 Ang^3
#
#
#
# Elastic Constant Matrix: (Units=GPa)
#
#
# Indices 1 2 3 4 5 6 
#
# 1 99.0231 33.2930 17.5920 -0.0001 3.5094 0.0005
# 2 33.2930 101.0855 32.6876 0.0001 9.9000 -0.0001
# 3 17.5920 32.6876 129.9411 0.0000 -11.3205 -0.0001
# 4 -0.0001 0.0001 0.0000 20.2612 0.0000 11.7285
# 5 3.5094 9.9000 -11.3205 0.0000 28.5428 -0.0004
# 6 0.0005 -0.0001 -0.0001 11.7285 -0.0004 30.9438
#
#
#
# Elastic Compliance Matrix: (Units=1/GPa)
#
#
# Indices 1 2 3 4 5 6 
#
# 1 0.011413 -0.003482 -0.000711 0.000000 -0.000477 0.000000
# 2 -0.003482 0.012561 -0.003139 0.000000 -0.005174 0.000000
# 3 -0.000711 -0.003139 0.008995 0.000000 0.004744 0.000000
# 4 0.000000 0.000000 0.000000 0.063228 0.000000 -0.023965
# 5 -0.000477 -0.005174 0.004744 0.000000 0.038770 0.000001
# 6 0.000000 0.000000 0.000000 -0.023965 0.000001 0.041400
#
#
# Mechanical properties :
#
#
# Convention : Reuss Voigt Hill
#
# Bulk Modulus (GPa) = 54.63088 55.24387 54.93738
# Shear Modulus (GPa) = 25.36370 32.38138 28.87254
#
# Velocity S-wave (km/s) = 3.40866 3.85145 3.63680
# Velocity P-wave (km/s) = 6.36537 6.71454 6.54228
#
# Compressibility (1/GPa) = 0.01830467
#
# Stress axis : x y z
#
# Youngs Moduli (GPa) = 87.62242 79.60953 111.17325
#
# Poissons Ratio (x) = 0.27722 0.07901
# Poissons Ratio (y) = 0.30512 0.34899
# Poissons Ratio (z) = 0.06227 0.24991
#
# Static dielectric constant tensor:
#      x y z
#    x 1.489340 0.000000 0.716500 
#    y 0.000000 1.828200 -0.000010 
#    z 0.716500 -0.000010 0.556630 
# 
# From -- ./inp_files/134214.got.cif
#   From: 2010.05.17/outbox.cif.g08.bks.cpg/sg15_68_cif.got.tgz:134214.got - 2010.06.03 18:47:42.
