data_PCOD9283203
_publ_section_title
;
Structure prediction by ZEFSAII (Michael W. Deem and Ramdas Pophale) SiO2 
 PCOD9283203
Probable space group: C 2/C
;
_chemical_formula_sum "Si O2"
_cell_formula_units_Z 32
_cell_length_a 6.005449
_cell_length_b 22.766077
_cell_length_c 11.130529
_cell_angle_alpha 90.000000
_cell_angle_beta 63.874523
_cell_angle_gamma 90.000000
_cell_volume 1366.295078
_symmetry_space_group_name_H-M "C 2/C"
_symmetry_group_IT_number 15
_symmetry_cell_setting 'monoclinic'
loop_
_space_group_symop_operation_xyz
x,y,z
-x,y,1/2-z
-x,-y,-z
x,-y,1/2+z
1/2+x,1/2+y,z
1/2-x,1/2+y,1/2-z
1/2-x,1/2-y,-z
1/2+x,1/2-y,1/2+z
loop_
_atom_site_type_symbol
_atom_site_label
_atom_site_fract_x
_atom_site_fract_y
_atom_site_fract_z
Si Si1 0.572097 0.672928 0.112823
Si Si2 0.882204 0.715019 0.573394
Si Si3 0.323138 0.395188 0.464732
Si Si4 0.000000 0.004466 0.750000
Si Si5 0.000000 0.443701 0.750000
O O1 0.500000 0.638364 0.250000
O O2 0.400888 0.731730 0.161593
O O3 0.523262 0.634481 0.005885
O O4 0.846761 0.696448 0.033879
O O5 0.750000 0.750000 0.500000
O O6 0.746328 0.653231 0.619834
O O7 0.397100 0.454508 0.382046
O O8 0.101475 0.406820 0.612194
O O9 0.747839 0.976218 0.747198
#
# Coordination Sequence:
#
# PCOD9283203 Si02
#       5
#     8   8   8   4   4
#     4  10  21  39  69 102 142 183 232 283 356 440
#     4   9  21  38  61 101 137 178 226 281 347 433
#     4  11  25  44  74 100 142 188 239 296 369 421
#     4  12  30  48  73 106 143 186 250 312 360 416
#     4  12  28  50  73 104 141 188 252 306 362 422
#
# _framework density 23.421005000000001
#
# number of rings (size 3 to 8) (size 9 to 14) (size 15 to 20)
#    0.000    1.500    0.000    3.000    8.750    9.000 
#    0.000    1.250    0.000    0.000    0.000    0.000 
#    0.000    0.000    0.000    0.000    0.000    0.000 
#
# Total GULP energy -89130.488119 kJ/mol
# GULP energy per Si atom -5570.655507 kJ/mol
# Density = 2.336770 g / cm^3
# Si number density = 23.421005 Si / 1000 Ang^3
#
#
#
# Elastic Constant Matrix: (Units=GPa)
#
#
# Indices 1 2 3 4 5 6 
#
# 1 138.4327 62.9531 19.2685 0.0000 9.4200 0.0000
# 2 62.9531 93.4472 13.1158 0.0000 2.4181 0.0000
# 3 19.2685 13.1158 79.0721 0.0000 6.1398 0.0000
# 4 0.0000 0.0000 0.0000 14.0597 0.0000 -12.3681
# 5 9.4200 2.4181 6.1398 0.0000 41.5225 0.0000
# 6 0.0000 0.0000 0.0000 -12.3681 0.0000 25.3229
#
#
#
# Elastic Compliance Matrix: (Units=1/GPa)
#
#
# Indices 1 2 3 4 5 6 
#
# 1 0.010705 -0.006981 -0.001309 0.000000 -0.001828 0.000000
# 2 -0.006981 0.015514 -0.000936 0.000000 0.000819 0.000000
# 3 -0.001309 -0.000936 0.013246 0.000000 -0.001607 0.000000
# 4 0.000000 0.000000 0.000000 0.124706 0.000000 0.060908
# 5 -0.001828 0.000819 -0.001607 0.000000 0.024688 0.000000
# 6 0.000000 0.000000 0.000000 0.060908 0.000000 0.069239
#
#
# Mechanical properties :
#
#
# Convention : Reuss Voigt Hill
#
# Bulk Modulus (GPa) = 47.58687 55.73629 51.66158
# Shear Modulus (GPa) = 17.63348 30.55533 24.09440
#
# Velocity S-wave (km/s) = 2.74686 3.61586 3.21090
# Velocity P-wave (km/s) = 5.51566 6.42509 5.98767
#
# Compressibility (1/GPa) = 0.02101420
#
# Stress axis : x y z
#
# Youngs Moduli (GPa) = 93.41649 64.45781 75.49661
#
# Poissons Ratio (x) = 0.44995 0.09880
# Poissons Ratio (y) = 0.65210 0.07065
# Poissons Ratio (z) = 0.12225 0.06032
#
# Static dielectric constant tensor:
#      x y z
#    x 2.028080 0.000000 0.096190 
#    y 0.000000 1.945740 0.000000 
#    z 0.096190 0.000000 1.897930 
# 
# From -- ./inp_files/71930.got.cif
#   From: 2010.05.17/outbox.cif.g08.bks.cpg/sg15_36_cif.got.tgz:71930.got - 2010.06.03 18:47:42.
