data_PCOD9283614
_publ_section_title
;
Structure prediction by ZEFSAII (Michael W. Deem and Ramdas Pophale) SiO2 
 PCOD9283614
Probable space group: C 2/C
;
_chemical_formula_sum "Si O2"
_cell_formula_units_Z 36
_cell_length_a 6.897634
_cell_length_b 13.618082
_cell_length_c 20.776906
_cell_angle_alpha 90.000000
_cell_angle_beta 81.635873
_cell_angle_gamma 90.000000
_cell_volume 1930.869378
_symmetry_space_group_name_H-M "C 2/C"
_symmetry_group_IT_number 15
_symmetry_cell_setting 'monoclinic'
loop_
_space_group_symop_operation_xyz
x,y,z
-x,y,1/2-z
-x,-y,-z
x,-y,1/2+z
1/2+x,1/2+y,z
1/2-x,1/2+y,1/2-z
1/2-x,1/2-y,-z
1/2+x,1/2-y,1/2+z
loop_
_atom_site_type_symbol
_atom_site_label
_atom_site_fract_x
_atom_site_fract_y
_atom_site_fract_z
Si Si1 0.647035 0.929900 0.190718
Si Si2 0.026113 0.198052 0.875032
Si Si3 0.000000 0.908029 0.250000
Si Si4 0.027062 0.574706 0.404131
Si Si5 0.185296 0.950801 0.025505
O O1 0.500000 0.884465 0.250000
O O2 0.541135 0.010281 0.153233
O O3 0.827107 0.969551 0.225939
O O4 0.758808 0.852970 0.139360
O O5 0.050607 0.312754 0.883199
O O6 0.895405 0.146315 0.935578
O O7 0.933312 0.163571 0.811202
O O8 0.853698 0.570293 0.465467
O O9 0.217577 0.524251 0.426870
O O10 0.000000 0.000000 0.000000
#
# Coordination Sequence:
#
# PCOD9283614 Si02
#       5
#     8   8   4   8   8
#     4  10  21  40  63  89 129 162 206 262 306 369
#     4  10  22  43  61  96 125 161 216 254 310 376
#     4   8  20  40  60  90 126 154 210 258 294 380
#     4  11  24  40  69  89 126 172 203 256 323 365
#     4  11  22  45  63  95 128 162 211 264 308 371
#
# _framework density 18.644451
#
# number of rings (size 3 to 8) (size 9 to 14) (size 15 to 20)
#    1.333    0.444    2.222    2.000    1.556    0.889 
#    8.000    2.222    7.333    0.000    0.000    0.000 
#    0.000    0.000    0.000    0.000    0.000    0.000 
#
# Total GULP energy -100235.675288 kJ/mol
# GULP energy per Si atom -5568.648627 kJ/mol
# Density = 1.860202 g / cm^3
# Si number density = 18.644451 Si / 1000 Ang^3
#
#
#
# Elastic Constant Matrix: (Units=GPa)
#
#
# Indices 1 2 3 4 5 6 
#
# 1 109.0677 49.5898 34.1900 0.0000 20.1656 0.0000
# 2 49.5898 129.7559 40.6065 0.0000 13.1814 0.0000
# 3 34.1900 40.6065 66.3459 0.0000 12.1311 0.0000
# 4 0.0000 0.0000 0.0000 7.0796 0.0000 6.8405
# 5 20.1656 13.1814 12.1311 0.0000 46.5529 0.0000
# 6 0.0000 0.0000 0.0000 6.8405 0.0000 5.9243
#
#
#
# Elastic Compliance Matrix: (Units=1/GPa)
#
#
# Indices 1 2 3 4 5 6 
#
# 1 0.012476 -0.003217 -0.003821 0.000000 -0.003498 0.000000
# 2 -0.003217 0.010431 -0.004663 0.000000 -0.000345 0.000000
# 3 -0.003821 -0.004663 0.020320 0.000000 -0.002320 0.000000
# 4 0.000000 0.000000 0.000000 -1.221495 0.000000 1.410390
# 5 -0.003498 -0.000345 -0.002320 0.000000 0.023698 0.000000
# 6 0.000000 0.000000 0.000000 1.410390 0.000000 -1.459702
#
#
# Mechanical properties :
#
#
# Convention : Reuss Voigt Hill
#
# Bulk Modulus (GPa) = 50.44295 61.54914 55.99605
# Shear Modulus (GPa) = -1.93479 23.96358 11.01440
#
# Velocity S-wave (km/s) = -1.01979 3.58899 2.43319
# Velocity P-wave (km/s) = 5.07221 7.08930 6.16382
#
# Compressibility (1/GPa) = 0.01982437
#
# Stress axis : x y z
#
# Youngs Moduli (GPa) = 80.15627 95.87221 49.21366
#
# Poissons Ratio (x) = 0.30842 0.18803
# Poissons Ratio (y) = 0.25786 0.22949
# Poissons Ratio (z) = 0.30625 0.44706
#
# Static dielectric constant tensor:
#      x y z
#    x 1.673910 0.000000 -0.012450 
#    y 0.000000 1.590920 0.000000 
#    z -0.012450 0.000000 1.673050 
# 
# From -- ./inp_files/259913.got.cif
#   From: 2010.05.17/outbox.cif.g08.bks.cpg/sg15_130_cif.got.tgz:259913.got - 2010.06.03 18:47:42.
