data_PCOD9283425
_publ_section_title
;
Structure prediction by ZEFSAII (Michael W. Deem and Ramdas Pophale) SiO2 
 PCOD9283425
Probable space group: C 2/C
;
_chemical_formula_sum "Si O2"
_cell_formula_units_Z 28
_cell_length_a 7.350117
_cell_length_b 17.028511
_cell_length_c 8.369721
_cell_angle_alpha 90.000000
_cell_angle_beta 63.910701
_cell_angle_gamma 90.000000
_cell_volume 940.830326
_symmetry_space_group_name_H-M "C 2/C"
_symmetry_group_IT_number 15
_symmetry_cell_setting 'monoclinic'
loop_
_space_group_symop_operation_xyz
x,y,z
-x,y,1/2-z
-x,-y,-z
x,-y,1/2+z
1/2+x,1/2+y,z
1/2-x,1/2+y,1/2-z
1/2-x,1/2-y,-z
1/2+x,1/2-y,1/2+z
loop_
_atom_site_type_symbol
_atom_site_label
_atom_site_fract_x
_atom_site_fract_y
_atom_site_fract_z
Si Si1 0.731190 0.972519 0.916289
Si Si2 0.000000 0.704650 0.750000
Si Si3 0.435062 0.396379 0.521313
Si Si4 0.061806 0.278234 0.898485
O O1 0.805675 0.926297 0.727518
O O2 0.835337 0.921918 0.020552
O O3 0.500000 0.000000 0.000000
O O4 0.843747 0.054371 0.912712
O O5 0.003082 0.668312 0.572352
O O6 0.201493 0.758055 0.678343
O O7 0.448870 0.305487 0.467575
O O8 0.000000 0.308727 0.750000
#
# Coordination Sequence:
#
# PCOD9283425 Si02
#       4
#     8   4   8   8
#     4  10  21  40  61  90 136 180 214 268 328 398
#     4  10  24  48  72 100 134 178 232 286 356 408
#     4  10  23  39  62  98 133 171 224 271 326 407
#     4  11  24  45  72 102 136 178 228 290 345 409
#
# _framework density 29.760943999999999
#
# number of rings (size 3 to 8) (size 9 to 14) (size 15 to 20)
#    0.000    1.714    0.000    3.429    8.000    2.286 
#    0.000    8.571    0.000    0.000    0.000    0.000 
#    0.000    0.000    0.000    0.000    0.000    0.000 
#
# Total GULP energy -78455.072933 kJ/mol
# GULP energy per Si atom -5603.933781 kJ/mol
# Density = 2.969321 g / cm^3
# Si number density = 29.760944 Si / 1000 Ang^3
#
#
#
# Elastic Constant Matrix: (Units=GPa)
#
#
# Indices 1 2 3 4 5 6 
#
# 1 249.6074 78.6542 105.3608 0.0000 13.0832 0.0000
# 2 78.6542 175.9477 20.8803 0.0000 9.6061 0.0000
# 3 105.3608 20.8803 238.7712 0.0000 36.3404 0.0000
# 4 0.0000 0.0000 0.0000 16.3659 0.0000 16.0737
# 5 13.0832 9.6061 36.3404 0.0000 44.8415 0.0000
# 6 0.0000 0.0000 0.0000 16.0737 0.0000 57.4906
#
#
#
# Elastic Compliance Matrix: (Units=1/GPa)
#
#
# Indices 1 2 3 4 5 6 
#
# 1 0.005726 -0.002313 -0.002447 0.000000 0.000808 0.000000
# 2 -0.002313 0.006713 0.000627 0.000000 -0.001271 0.000000
# 3 -0.002447 0.000627 0.005846 0.000000 -0.004158 0.000000
# 4 0.000000 0.000000 0.000000 0.084233 0.000000 -0.023550
# 5 0.000808 -0.001271 -0.004158 0.000000 0.025707 0.000000
# 6 0.000000 0.000000 0.000000 -0.023550 0.000000 0.023979
#
#
# Mechanical properties :
#
#
# Convention : Reuss Voigt Hill
#
# Bulk Modulus (GPa) = 99.82311 119.34629 109.58470
# Shear Modulus (GPa) = 30.52336 54.36835 42.44585
#
# Velocity S-wave (km/s) = 3.20600 4.27879 3.78064
# Velocity P-wave (km/s) = 6.87888 8.03737 7.48059
#
# Compressibility (1/GPa) = 0.01001772
#
# Stress axis : x y z
#
# Youngs Moduli (GPa) = 174.64381 148.97291 171.05621
#
# Poissons Ratio (x) = 0.34463 0.41864
# Poissons Ratio (y) = 0.40402 -0.10730
# Poissons Ratio (z) = 0.42742 -0.09345
#
# Static dielectric constant tensor:
#      x y z
#    x 2.318610 0.000000 -0.088160 
#    y 0.000000 2.307050 0.000000 
#    z -0.088160 0.000000 2.470270 
# 
# From -- ./inp_files/21885.got.cif
#   From: 2010.05.17/outbox.cif.g08.bks.cpg/sg15_11_cif.got.tgz:21885.got - 2010.06.03 18:47:42.
