data_PCOD9283674
_publ_section_title
;
Structure prediction by ZEFSAII (Michael W. Deem and Ramdas Pophale) SiO2 
 PCOD9283674
Probable space group: C 2/C
;
_chemical_formula_sum "Si O2"
_cell_formula_units_Z 60
_cell_length_a 23.612220
_cell_length_b 8.775810
_cell_length_c 13.182998
_cell_angle_alpha 90.000000
_cell_angle_beta 101.616165
_cell_angle_gamma 90.000000
_cell_volume 2675.782772
_symmetry_space_group_name_H-M "C 2/C"
_symmetry_group_IT_number 15
_symmetry_cell_setting 'monoclinic'
loop_
_space_group_symop_operation_xyz
x,y,z
-x,y,1/2-z
-x,-y,-z
x,-y,1/2+z
1/2+x,1/2+y,z
1/2-x,1/2+y,1/2-z
1/2-x,1/2-y,-z
1/2+x,1/2-y,1/2+z
loop_
_atom_site_type_symbol
_atom_site_label
_atom_site_fract_x
_atom_site_fract_y
_atom_site_fract_z
Si Si1 0.017281 0.175907 0.529763
Si Si2 0.315860 0.199194 0.534257
Si Si3 0.500000 0.618956 0.250000
Si Si4 0.900943 0.077663 0.090270
Si Si5 0.925968 0.326127 0.378657
Si Si6 0.884617 0.332118 0.846372
Si Si7 0.327232 0.338918 0.942064
Si Si8 0.804282 0.624381 0.126558
O O1 0.059957 0.207294 0.449866
O O2 0.062621 0.209808 0.634437
O O3 0.962822 0.284696 0.494297
O O4 0.000000 0.000000 0.500000
O O5 0.250000 0.250000 0.500000
O O6 0.347553 0.328576 0.613035
O O7 0.343578 0.185650 0.431213
O O8 0.322831 0.039804 0.592362
O O9 0.450656 0.513047 0.179937
O O10 0.459758 0.730012 0.304773
O O11 0.870816 0.970659 0.996406
O O12 0.917429 0.504701 0.360036
O O13 0.862567 0.258471 0.374200
O O14 0.842534 0.325469 0.735244
O O15 0.264672 0.387005 0.878397
O O16 0.314728 0.241748 0.038706
#
# Coordination Sequence:
#
# PCOD9283674 Si02
#       8
#     8   8   4   8   8   8   8   8
#     4  10  21  40  67  94 131 174 221 278 345 392
#     4  11  22  44  68  97 139 182 227 291 346 409
#     4  10  24  38  68 104 130 176 242 278 338 430
#     4  10  21  40  63  94 132 175 218 282 343 402
#     4  11  22  45  67  95 139 179 221 287 346 402
#     4  11  25  43  69 100 133 189 232 277 349 423
#     4  11  23  45  66  94 143 176 217 299 342 390
#     4  11  25  44  67 101 137 180 235 280 345 412
#
# _framework density 22.423345999999999
#
# number of rings (size 3 to 8) (size 9 to 14) (size 15 to 20)
#    0.000    1.333    4.000    1.200    0.000    4.267 
#    2.400    0.000    0.000    0.000    0.000    0.000 
#    0.000    0.000    0.000    0.000    0.000    0.000 
#
# Total GULP energy -167164.276609 kJ/mol
# GULP energy per Si atom -5572.142554 kJ/mol
# Density = 2.237231 g / cm^3
# Si number density = 22.423346 Si / 1000 Ang^3
#
#
#
# Elastic Constant Matrix: (Units=GPa)
#
#
# Indices 1 2 3 4 5 6 
#
# 1 109.5497 15.3760 47.5166 0.0000 24.3052 0.0000
# 2 15.3760 64.3873 25.3328 0.0000 18.5322 0.0000
# 3 47.5166 25.3328 105.8242 0.0000 29.2126 0.0000
# 4 0.0000 0.0000 0.0000 23.0971 0.0000 4.7441
# 5 24.3052 18.5322 29.2126 0.0000 49.3272 0.0000
# 6 0.0000 0.0000 0.0000 4.7441 0.0000 39.1359
#
#
#
# Elastic Compliance Matrix: (Units=1/GPa)
#
#
# Indices 1 2 3 4 5 6 
#
# 1 0.011742 -0.000186 -0.004363 0.000000 -0.003132 0.000000
# 2 -0.000186 0.018153 -0.002875 0.000000 -0.005026 0.000000
# 3 -0.004363 -0.002875 0.013395 0.000000 -0.004703 0.000000
# 4 0.000000 0.000000 0.000000 0.044401 0.000000 -0.005382
# 5 -0.003132 -0.005026 -0.004703 0.000000 0.026489 0.000000
# 6 0.000000 0.000000 0.000000 -0.005382 0.000000 0.026204
#
#
# Mechanical properties :
#
#
# Convention : Reuss Voigt Hill
#
# Bulk Modulus (GPa) = 35.15878 50.69022 42.92450
# Shear Modulus (GPa) = 30.35579 35.08107 32.71843
#
# Velocity S-wave (km/s) = 3.68334 3.95965 3.82399
# Velocity P-wave (km/s) = 5.81402 6.60002 6.21945
#
# Compressibility (1/GPa) = 0.02844239
#
# Stress axis : x y z
#
# Youngs Moduli (GPa) = 85.16653 55.08714 74.65369
#
# Poissons Ratio (x) = 0.01024 0.32573
# Poissons Ratio (y) = 0.01583 0.21460
# Poissons Ratio (z) = 0.37160 0.15836
#
# Static dielectric constant tensor:
#      x y z
#    x 1.871110 0.000000 0.008780 
#    y 0.000000 1.861310 0.000000 
#    z 0.008780 0.000000 2.056520 
# 
# From -- ./inp_files/172443.got.cif
#   From: 2010.05.17/outbox.cif.g08.bks.cpg/sg15_87_cif.got.tgz:172443.got - 2010.06.03 18:47:42.
