data_PCOD9283183
_publ_section_title
;
Structure prediction by ZEFSAII (Michael W. Deem and Ramdas Pophale) SiO2 
 PCOD9283183
Probable space group: C 2/C
;
_chemical_formula_sum "Si O2"
_cell_formula_units_Z 56
_cell_length_a 31.091633
_cell_length_b 5.679850
_cell_length_c 13.090349
_cell_angle_alpha 90.000000
_cell_angle_beta 117.739319
_cell_angle_gamma 90.000000
_cell_volume 2046.027254
_symmetry_space_group_name_H-M "C 2/C"
_symmetry_group_IT_number 15
_symmetry_cell_setting 'monoclinic'
loop_
_space_group_symop_operation_xyz
x,y,z
-x,y,1/2-z
-x,-y,-z
x,-y,1/2+z
1/2+x,1/2+y,z
1/2-x,1/2+y,1/2-z
1/2-x,1/2-y,-z
1/2+x,1/2-y,1/2+z
loop_
_atom_site_type_symbol
_atom_site_label
_atom_site_fract_x
_atom_site_fract_y
_atom_site_fract_z
Si Si1 0.494683 0.061103 0.636730
Si Si2 0.865018 0.119005 0.444463
Si Si3 0.201303 0.597181 0.283835
Si Si4 0.385277 0.886935 0.057949
Si Si5 0.451304 0.547749 0.380165
Si Si6 0.093215 0.595399 0.205121
Si Si7 0.276478 0.401478 0.687549
O O1 0.500000 0.922933 0.750000
O O2 0.521703 0.308326 0.677771
O O3 0.438041 0.097084 0.561401
O O4 0.536885 0.955972 0.609689
O O5 0.866385 0.873705 0.509584
O O6 0.860823 0.360475 0.503660
O O7 0.913335 0.137617 0.425547
O O8 0.819967 0.102792 0.318392
O O9 0.143360 0.593433 0.199300
O O10 0.228464 0.599020 0.204564
O O11 0.217678 0.355007 0.358114
O O12 0.216281 0.842370 0.355097
O O13 0.394128 0.923733 0.188274
O O14 0.500000 0.500000 0.500000
O O15 0.416635 0.366266 0.282633
#
# Coordination Sequence:
#
# PCOD9283183 Si02
#       7
#     8   8   8   8   8   8   8
#     4  10  24  41  62  93 134 178 214 265 326 395
#     4  12  24  43  65  99 129 174 220 281 322 387
#     4  10  21  40  66 101 126 173 216 274 336 392
#     4  11  27  43  64  92 141 178 216 263 345 390
#     4  12  24  37  70  94 131 164 231 267 321 380
#     4  11  25  42  65  95 132 180 218 271 330 403
#     4  10  21  39  68  97 133 162 221 280 331 383
#
# _framework density 27.370115999999999
#
# number of rings (size 3 to 8) (size 9 to 14) (size 15 to 20)
#    0.000    1.143    2.857    2.571    6.000    1.714 
#    0.000    1.429    0.000    0.000    0.000    0.000 
#    0.000    0.000    0.000    0.000    0.000    0.000 
#
# Total GULP energy -156088.733927 kJ/mol
# GULP energy per Si atom -5574.597640 kJ/mol
# Density = 2.730782 g / cm^3
# Si number density = 27.370116 Si / 1000 Ang^3
#
#
#
# Elastic Constant Matrix: (Units=GPa)
#
#
# Indices 1 2 3 4 5 6 
#
# 1 146.9075 28.4441 27.9282 0.0000 44.5740 0.0000
# 2 28.4441 227.3855 35.5954 0.0000 2.7617 0.0000
# 3 27.9282 35.5954 46.8517 0.0000 15.9460 0.0000
# 4 0.0000 0.0000 0.0000 31.2485 0.0000 21.1702
# 5 44.5740 2.7617 15.9460 0.0000 34.6236 0.0000
# 6 0.0000 0.0000 0.0000 21.1702 0.0000 28.1941
#
#
#
# Elastic Compliance Matrix: (Units=1/GPa)
#
#
# Indices 1 2 3 4 5 6 
#
# 1 0.011573 -0.001083 -0.001227 0.000000 -0.014247 0.000000
# 2 -0.001083 0.005169 -0.004288 0.000000 0.002956 0.000000
# 3 -0.001227 -0.004288 0.029266 0.000000 -0.011557 0.000000
# 4 0.000000 0.000000 0.000000 0.065137 0.000000 -0.048909
# 5 -0.014247 0.002956 -0.011557 0.000000 0.052310 0.000000
# 6 0.000000 0.000000 0.000000 -0.048909 0.000000 0.072193
#
#
# Mechanical properties :
#
#
# Convention : Reuss Voigt Hill
#
# Bulk Modulus (GPa) = 30.47549 67.23112 48.85331
# Shear Modulus (GPa) = 19.24711 40.75837 30.00274
#
# Velocity S-wave (km/s) = 2.65470 3.86314 3.31446
# Velocity P-wave (km/s) = 4.53380 6.67200 5.70398
#
# Compressibility (1/GPa) = 0.03281325
#
# Stress axis : x y z
#
# Youngs Moduli (GPa) = 86.41089 193.47930 34.16907
#
# Poissons Ratio (x) = 0.20945 0.04192
# Poissons Ratio (y) = 0.09354 0.14650
# Poissons Ratio (z) = 0.10602 0.82955
#
# Static dielectric constant tensor:
#      x y z
#    x 2.126370 0.000000 -0.106890 
#    y 0.000000 2.575040 0.000000 
#    z -0.106890 0.000000 2.356020 
# 
# From -- ./inp_files/223957.got.cif
#   From: 2010.05.17/outbox.cif.g08.bks.cpg/sg15_112_cif.got.tgz:223957.got - 2010.06.03 18:47:42.
