data_PCOD9283831
_publ_section_title
;
Structure prediction by ZEFSAII (Michael W. Deem and Ramdas Pophale) SiO2 
 PCOD9283831
Probable space group: C 2/C
;
_chemical_formula_sum "Si O2"
_cell_formula_units_Z 36
_cell_length_a 13.283802
_cell_length_b 13.975229
_cell_length_c 13.699199
_cell_angle_alpha 90.000000
_cell_angle_beta 140.484622
_cell_angle_gamma 90.000000
_cell_volume 1618.185817
_symmetry_space_group_name_H-M "C 2/C"
_symmetry_group_IT_number 15
_symmetry_cell_setting 'monoclinic'
loop_
_space_group_symop_operation_xyz
x,y,z
-x,y,1/2-z
-x,-y,-z
x,-y,1/2+z
1/2+x,1/2+y,z
1/2-x,1/2+y,1/2-z
1/2-x,1/2-y,-z
1/2+x,1/2-y,1/2+z
loop_
_atom_site_type_symbol
_atom_site_label
_atom_site_fract_x
_atom_site_fract_y
_atom_site_fract_z
Si Si1 0.000000 0.751929 0.250000
Si Si2 0.340072 0.040670 0.451724
Si Si3 0.000000 0.065398 0.250000
Si Si4 0.167555 0.668791 0.562321
Si Si5 0.143534 0.204652 0.229085
Si Si6 0.500000 0.858051 0.250000
O O1 0.076673 0.689278 0.393722
O O2 0.145378 0.813199 0.315561
O O3 0.166621 0.014991 0.369558
O O4 0.293180 0.133293 0.351271
O O5 0.440633 0.077459 0.617292
O O6 0.379899 0.937560 0.436398
O O7 0.002658 0.133805 0.156582
O O8 0.124943 0.747589 0.611460
O O9 0.133762 0.288026 0.303370
#
# Coordination Sequence:
#
# PCOD9283831 Si02
#       6
#     4   8   4   8   8   4
#     4  10  26  43  63  90 132 178 204 271 319 372
#     4  10  21  40  64  98 124 171 209 261 315 383
#     4   7  19  38  63  97 126 157 215 252 327 367
#     4  11  23  45  67  89 134 167 221 257 321 383
#     4   9  22  38  67  94 129 166 205 272 315 374
#     4  11  21  37  68  97 134 151 217 275 316 373
#
# _framework density 22.247133999999999
#
# number of rings (size 3 to 8) (size 9 to 14) (size 15 to 20)
#    1.333    0.889    0.000    2.000    3.111    0.889 
#    8.000    1.111    0.000    0.000    0.000    0.000 
#    0.000    0.000    0.000    0.000    0.000    0.000 
#
# Total GULP energy -100293.839031 kJ/mol
# GULP energy per Si atom -5571.879946 kJ/mol
# Density = 2.219650 g / cm^3
# Si number density = 22.247134 Si / 1000 Ang^3
#
#
#
# Elastic Constant Matrix: (Units=GPa)
#
#
# Indices 1 2 3 4 5 6 
#
# 1 40.1994 7.3428 -1.7988 0.0000 -13.5119 0.0000
# 2 7.3428 110.4288 27.4895 0.0000 -6.7851 0.0000
# 3 -1.7988 27.4895 83.4034 0.0000 -6.3471 0.0000
# 4 0.0000 0.0000 0.0000 39.9064 0.0000 2.3963
# 5 -13.5119 -6.7851 -6.3471 0.0000 31.4619 0.0001
# 6 0.0000 0.0000 0.0000 2.3963 0.0001 37.7964
#
#
#
# Elastic Compliance Matrix: (Units=1/GPa)
#
#
# Indices 1 2 3 4 5 6 
#
# 1 0.029581 -0.001725 0.002178 0.000000 0.012772 0.000000
# 2 -0.001725 0.010035 -0.003287 0.000000 0.000760 0.000000
# 3 0.002178 -0.003287 0.013342 0.000000 0.002918 0.000000
# 4 0.000000 0.000000 0.000000 0.025154 0.000000 -0.001595
# 5 0.012772 0.000760 0.002918 0.000000 0.038022 0.000000
# 6 0.000000 0.000000 0.000000 -0.001595 0.000000 0.026559
#
#
# Mechanical properties :
#
#
# Convention : Reuss Voigt Hill
#
# Bulk Modulus (GPa) = 21.14486 33.34428 27.24457
# Shear Modulus (GPa) = 30.46466 35.23283 32.84874
#
# Velocity S-wave (km/s) = 3.70452 3.98389 3.84674
# Velocity P-wave (km/s) = 5.27476 6.01519 5.65710
#
# Compressibility (1/GPa) = 0.04729281
#
# Stress axis : x y z
#
# Youngs Moduli (GPa) = 33.80507 99.64903 74.94941
#
# Poissons Ratio (x) = 0.17184 -0.16327
# Poissons Ratio (y) = 0.05830 0.24635
# Poissons Ratio (z) = -0.07364 0.32754
#
# Static dielectric constant tensor:
#      x y z
#    x 1.956130 0.000000 0.087540 
#    y 0.000000 1.841050 0.000000 
#    z 0.087540 0.000000 1.765240 
# 
# From -- ./inp_files/46800.got.cif
#   From: 2010.05.17/outbox.cif.g08.bks.cpg/sg15_24_cif.got.tgz:46800.got - 2010.06.03 18:47:42.
