data_PCOD9283661
_publ_section_title
;
Structure prediction by ZEFSAII (Michael W. Deem and Ramdas Pophale) SiO2 
 PCOD9283661
Probable space group: C 2/C
;
_chemical_formula_sum "Si O2"
_cell_formula_units_Z 56
_cell_length_a 5.187715
_cell_length_b 14.740797
_cell_length_c 30.899020
_cell_angle_alpha 90.000000
_cell_angle_beta 98.021215
_cell_angle_gamma 90.000000
_cell_volume 2339.763302
_symmetry_space_group_name_H-M "C 2/C"
_symmetry_group_IT_number 15
_symmetry_cell_setting 'monoclinic'
loop_
_space_group_symop_operation_xyz
x,y,z
-x,y,1/2-z
-x,-y,-z
x,-y,1/2+z
1/2+x,1/2+y,z
1/2-x,1/2+y,1/2-z
1/2-x,1/2-y,-z
1/2+x,1/2-y,1/2+z
loop_
_atom_site_type_symbol
_atom_site_label
_atom_site_fract_x
_atom_site_fract_y
_atom_site_fract_z
Si Si1 0.216275 0.090450 0.533028
Si Si2 0.233929 0.478924 0.552633
Si Si3 0.295394 0.803498 0.118497
Si Si4 0.237684 0.105123 0.357191
Si Si5 0.333031 0.003071 0.281247
Si Si6 0.366112 0.339093 0.174016
Si Si7 0.818388 0.823198 0.780447
O O1 0.237212 0.102096 0.481813
O O2 0.282817 0.168308 0.568421
O O3 0.437356 0.013570 0.546966
O O4 0.929789 0.054665 0.538544
O O5 0.318027 0.455629 0.602825
O O6 0.184865 0.701648 0.121487
O O7 0.585869 0.823632 0.143551
O O8 0.094758 0.854526 0.145268
O O9 0.425828 0.053325 0.327750
O O10 0.990831 0.134400 0.322793
O O11 0.500000 0.949042 0.250000
O O12 0.743771 0.088561 0.250683
O O13 0.143157 0.928368 0.296699
O O14 0.385564 0.246795 0.203270
O O15 0.000000 0.770237 0.750000
#
# Coordination Sequence:
#
# PCOD9283661 Si02
#       7
#     8   8   8   8   8   8   8
#     4  10  21  40  63  93 125 161 205 255 308 375
#     4  10  22  40  65  91 124 162 206 255 309 375
#     4  11  23  40  64  93 128 161 204 258 312 375
#     4  10  22  39  62  91 125 165 207 260 313 372
#     4  11  22  38  62  90 123 167 213 256 312 371
#     4  11  24  42  65  91 126 167 206 258 316 368
#     4   9  21  41  59  89 126 160 211 263 306 366
#
# _framework density 23.934045999999999
#
# number of rings (size 3 to 8) (size 9 to 14) (size 15 to 20)
#    0.000    1.714    0.000    3.857    0.000    8.571 
#    0.000    6.429    0.000    9.429    0.000    0.000 
#    0.000    0.000    0.000    0.000    0.000    0.000 
#
# Total GULP energy -156211.545730 kJ/mol
# GULP energy per Si atom -5578.983776 kJ/mol
# Density = 2.387957 g / cm^3
# Si number density = 23.934046 Si / 1000 Ang^3
#
#
#
# Elastic Constant Matrix: (Units=GPa)
#
#
# Indices 1 2 3 4 5 6 
#
# 1 86.5827 -15.4032 4.1339 0.0000 -4.8644 0.0000
# 2 -15.4032 71.6953 4.7385 0.0000 -1.0808 0.0000
# 3 4.1339 4.7385 142.5894 0.0000 -9.8294 0.0000
# 4 0.0000 0.0000 0.0000 16.4189 0.0000 -12.5127
# 5 -4.8644 -1.0808 -9.8294 0.0000 31.1615 0.0000
# 6 0.0000 0.0000 0.0000 -12.5127 0.0000 13.4338
#
#
#
# Elastic Compliance Matrix: (Units=1/GPa)
#
#
# Indices 1 2 3 4 5 6 
#
# 1 0.012143 0.002658 -0.000310 0.000000 0.001890 0.000000
# 2 0.002658 0.014564 -0.000509 0.000000 0.000760 0.000000
# 3 -0.000310 -0.000509 0.007191 0.000000 0.002202 0.000000
# 4 0.000000 0.000000 0.000000 0.209895 0.000000 0.195502
# 5 0.001890 0.000760 0.002202 0.000000 0.033107 0.000000
# 6 0.000000 0.000000 0.000000 0.195502 0.000000 0.256535
#
#
# Mechanical properties :
#
#
# Convention : Reuss Voigt Hill
#
# Bulk Modulus (GPa) = 26.61226 31.97841 29.29533
# Shear Modulus (GPa) = 9.22028 32.69606 20.95817
#
# Velocity S-wave (km/s) = 1.96487 3.70008 2.96237
# Velocity P-wave (km/s) = 4.03618 5.62531 4.89566
#
# Compressibility (1/GPa) = 0.03757667
#
# Stress axis : x y z
#
# Youngs Moduli (GPa) = 82.34860 68.66230 139.06568
#
# Poissons Ratio (x) = -0.18250 0.04312
# Poissons Ratio (y) = -0.21888 0.07074
# Poissons Ratio (z) = 0.02554 0.03493
#
# Static dielectric constant tensor:
#      x y z
#    x 2.227030 0.000000 0.008440 
#    y 0.000000 1.956000 0.000000 
#    z 0.008440 0.000000 1.948780 
# 
# From -- ./inp_files/305385.got.cif
#   From: 2010.05.17/outbox.cif.g08.bks.cpg/sg15_153_cif.got.tgz:305385.got - 2010.06.03 18:47:42.
