data_PCOD9283150
_publ_section_title
;
Structure prediction by ZEFSAII (Michael W. Deem and Ramdas Pophale) SiO2 
 PCOD9283150
Probable space group: C 2/C
;
_chemical_formula_sum "Si O2"
_cell_formula_units_Z 64
_cell_length_a 14.719957
_cell_length_b 12.160624
_cell_length_c 28.743311
_cell_angle_alpha 90.000000
_cell_angle_beta 141.929591
_cell_angle_gamma 90.000000
_cell_volume 3172.659053
_symmetry_space_group_name_H-M "C 2/C"
_symmetry_group_IT_number 15
_symmetry_cell_setting 'monoclinic'
loop_
_space_group_symop_operation_xyz
x,y,z
-x,y,1/2-z
-x,-y,-z
x,-y,1/2+z
1/2+x,1/2+y,z
1/2-x,1/2+y,1/2-z
1/2-x,1/2-y,-z
1/2+x,1/2-y,1/2+z
loop_
_atom_site_type_symbol
_atom_site_label
_atom_site_fract_x
_atom_site_fract_y
_atom_site_fract_z
Si Si1 0.310828 0.484870 0.457465
Si Si2 0.696375 0.632493 0.961112
Si Si3 0.152899 0.958051 0.625054
Si Si4 0.673879 0.983829 0.566188
Si Si5 0.843150 0.841505 0.310775
Si Si6 0.880936 0.168476 0.295539
Si Si7 0.793618 0.754799 0.571801
Si Si8 0.866439 0.042872 0.728801
O O1 0.249901 0.545092 0.478256
O O2 0.483333 0.477949 0.541303
O O3 0.275732 0.554499 0.396867
O O4 0.260933 0.360150 0.429068
O O5 0.758161 0.580537 0.938728
O O6 0.519677 0.649129 0.886045
O O7 0.750000 0.750000 0.000000
O O8 0.153209 0.865779 0.664902
O O9 0.212201 0.066055 0.675544
O O10 0.721883 0.864442 0.565246
O O11 0.742790 0.999170 0.644663
O O12 0.500000 0.000000 0.500000
O O13 0.758131 0.728204 0.283852
O O14 0.808438 0.871676 0.243239
O O15 0.919256 0.058178 0.282446
O O16 0.029828 0.238402 0.353744
O O17 0.750000 0.750000 0.500000
O O18 0.000000 0.082492 0.750000
#
# Coordination Sequence:
#
# PCOD9283150 Si02
#       8
#     8   8   8   8   8   8   8   8
#     4  10  21  39  68  89 129 170 214 266 330 379
#     4  11  24  44  62  95 136 171 217 277 325 389
#     4   9  20  40  61  92 122 168 212 256 320 395
#     4  12  27  42  69 103 128 172 229 276 332 395
#     4  10  23  41  65  91 127 175 213 260 328 396
#     4  11  23  40  67  94 130 172 216 267 328 387
#     4  12  22  42  67  98 133 163 221 281 319 383
#     4  11  22  44  64  88 134 176 217 266 330 388
#
# _framework density 20.172353000000001
#
# number of rings (size 3 to 8) (size 9 to 14) (size 15 to 20)
#    0.000    1.250    5.000    0.750    5.250    3.000 
#    2.250    0.000    0.000    0.000    0.000    0.000 
#    0.000    0.000    0.000    0.000    0.000    0.000 
#
# Total GULP energy -178481.160035 kJ/mol
# GULP energy per Si atom -5577.536251 kJ/mol
# Density = 2.012644 g / cm^3
# Si number density = 20.172353 Si / 1000 Ang^3
#
#
#
# Elastic Constant Matrix: (Units=GPa)
#
#
# Indices 1 2 3 4 5 6 
#
# 1 54.4985 13.1723 30.4734 0.0000 -8.8082 0.0000
# 2 13.1723 83.6431 19.0856 0.0000 -3.9862 0.0000
# 3 30.4734 19.0856 86.8729 0.0000 -11.5509 0.0000
# 4 0.0000 0.0000 0.0000 31.1006 0.0000 4.9476
# 5 -8.8082 -3.9862 -11.5509 0.0000 30.4880 0.0000
# 6 0.0000 0.0000 0.0000 4.9476 0.0000 20.2955
#
#
#
# Elastic Compliance Matrix: (Units=1/GPa)
#
#
# Indices 1 2 3 4 5 6 
#
# 1 0.023509 -0.001848 -0.007339 0.000000 0.003770 0.000000
# 2 -0.001848 0.012743 -0.002107 0.000000 0.000334 0.000000
# 3 -0.007339 -0.002107 0.014985 0.000000 0.003281 0.000000
# 4 0.000000 0.000000 0.000000 0.033451 0.000000 -0.008155
# 5 0.003770 0.000334 0.003281 0.000000 0.035176 0.000000
# 6 0.000000 0.000000 0.000000 -0.008155 0.000000 0.051260
#
#
# Mechanical properties :
#
#
# Convention : Reuss Voigt Hill
#
# Bulk Modulus (GPa) = 34.90586 38.94190 36.92388
# Shear Modulus (GPa) = 24.59886 27.19571 25.89728
#
# Velocity S-wave (km/s) = 3.49583 3.67572 3.58690
# Velocity P-wave (km/s) = 5.79964 6.11237 5.95806
#
# Compressibility (1/GPa) = 0.02864849
#
# Stress axis : x y z
#
# Youngs Moduli (GPa) = 42.53718 78.47285 66.73459
#
# Poissons Ratio (x) = 0.14501 0.48978
# Poissons Ratio (y) = 0.07861 0.14061
# Poissons Ratio (z) = 0.31219 0.16534
#
# Static dielectric constant tensor:
#      x y z
#    x 1.755330 0.000000 -0.004830 
#    y 0.000000 1.728810 0.000000 
#    z -0.004830 0.000000 1.709540 
# 
# From -- ./inp_files/296171.got.cif
#   From: 2010.05.17/outbox.cif.g08.bks.cpg/sg15_149_cif.got.tgz:296171.got - 2010.06.03 18:47:42.
