data_PCOD9283446
_publ_section_title
;
Structure prediction by ZEFSAII (Michael W. Deem and Ramdas Pophale) SiO2 
 PCOD9283446
Probable space group: C 2/C
;
_chemical_formula_sum "Si O2"
_cell_formula_units_Z 64
_cell_length_a 30.101147
_cell_length_b 9.697991
_cell_length_c 23.409491
_cell_angle_alpha 90.000000
_cell_angle_beta 24.227245
_cell_angle_gamma 90.000000
_cell_volume 2804.260379
_symmetry_space_group_name_H-M "C 2/C"
_symmetry_group_IT_number 15
_symmetry_cell_setting 'monoclinic'
loop_
_space_group_symop_operation_xyz
x,y,z
-x,y,1/2-z
-x,-y,-z
x,-y,1/2+z
1/2+x,1/2+y,z
1/2-x,1/2+y,1/2-z
1/2-x,1/2-y,-z
1/2+x,1/2-y,1/2+z
loop_
_atom_site_type_symbol
_atom_site_label
_atom_site_fract_x
_atom_site_fract_y
_atom_site_fract_z
Si Si1 0.365007 0.081785 0.099042
Si Si2 0.667568 0.401603 0.535290
Si Si3 0.153345 0.800582 0.676314
Si Si4 0.419895 0.356486 0.983592
Si Si5 0.933567 0.397639 0.643378
Si Si6 0.254568 0.539586 0.865819
Si Si7 0.736643 0.698570 0.450985
Si Si8 0.000651 0.099178 0.554077
O O1 0.363912 0.063867 0.168497
O O2 0.281785 0.005546 0.154534
O O3 0.357646 0.245367 0.094790
O O4 0.481573 0.018628 0.943800
O O5 0.791677 0.347785 0.388223
O O6 0.625253 0.345454 0.644990
O O7 0.614889 0.341709 0.540540
O O8 0.660538 0.565608 0.541614
O O9 0.046299 0.815088 0.839192
O O10 0.243457 0.907691 0.594750
O O11 0.413816 0.517750 0.007166
O O12 0.850128 0.355666 0.790626
O O13 0.008439 0.263314 0.538579
O O14 0.195408 0.672943 0.961031
O O15 0.379621 0.583944 0.719814
O O16 0.750000 0.750000 0.500000
O O17 0.000000 0.000000 0.500000
#
# Coordination Sequence:
#
# PCOD9283446 Si02
#       8
#     8   8   8   8   8   8   8   8
#     4  11  22  44  63  96 128 168 218 267 330 396
#     4  11  22  38  64  91 127 169 216 262 323 387
#     4  10  21  40  61  93 124 164 215 272 317 380
#     4  11  22  37  64  91 126 166 216 263 327 389
#     4  10  24  43  65  93 130 169 216 273 329 386
#     4  10  22  41  64  90 129 167 211 266 327 388
#     4  11  23  44  65  93 133 176 217 269 329 392
#     4  10  21  41  61  91 125 163 207 269 324 386
#
# _framework density 22.822416
#
# number of rings (size 3 to 8) (size 9 to 14) (size 15 to 20)
#    0.000    1.500    3.750    1.125    1.750    1.000 
#    2.250    0.625    0.000    0.000    0.000    0.000 
#    0.000    0.000    0.000    0.000    0.000    0.000 
#
# Total GULP energy -178620.711136 kJ/mol
# GULP energy per Si atom -5581.897223 kJ/mol
# Density = 2.277047 g / cm^3
# Si number density = 22.822416 Si / 1000 Ang^3
#
#
#
# Elastic Constant Matrix: (Units=GPa)
#
#
# Indices 1 2 3 4 5 6 
#
# 1 86.6518 29.9039 2.9220 -0.0008 4.9769 0.0001
# 2 29.9039 112.4197 -12.3180 -0.0013 -1.4495 0.0001
# 3 2.9220 -12.3180 26.7659 -0.0017 13.9173 0.0001
# 4 -0.0008 -0.0013 -0.0017 19.7719 -0.0001 2.1648
# 5 4.9769 -1.4495 13.9173 -0.0001 21.4088 0.0003
# 6 0.0001 0.0001 0.0001 2.1648 0.0003 38.1964
#
#
#
# Elastic Compliance Matrix: (Units=1/GPa)
#
#
# Indices 1 2 3 4 5 6 
#
# 1 0.013004 -0.003720 -0.002158 0.000000 -0.001872 0.000000
# 2 -0.003720 0.010586 0.006731 0.000001 -0.002794 0.000000
# 3 -0.002158 0.006731 0.060721 0.000006 -0.038516 0.000000
# 4 0.000000 0.000001 0.000006 0.050893 -0.000003 -0.002884
# 5 -0.001872 -0.002794 -0.038516 -0.000003 0.071994 0.000000
# 6 0.000000 0.000000 0.000000 -0.002884 0.000000 0.026344
#
#
# Mechanical properties :
#
#
# Convention : Reuss Voigt Hill
#
# Bulk Modulus (GPa) = 11.62560 29.65035 20.63797
# Shear Modulus (GPa) = 19.19319 29.56406 24.37862
#
# Velocity S-wave (km/s) = 2.90311 3.60306 3.27186
# Velocity P-wave (km/s) = 4.04257 5.50721 4.83072
#
# Compressibility (1/GPa) = 0.08601710
#
# Stress axis : x y z
#
# Youngs Moduli (GPa) = 76.89669 94.46259 16.46877
#
# Poissons Ratio (x) = 0.35139 0.03554
# Poissons Ratio (y) = 0.28604 -0.11085
# Poissons Ratio (z) = 0.16596 -0.63581
#
# Static dielectric constant tensor:
#      x y z
#    x 1.856090 0.000000 0.003190 
#    y 0.000000 1.924080 0.000000 
#    z 0.003190 0.000000 1.883500 
# 
# From -- ./inp_files/284426.got.cif
#   From: 2010.05.17/outbox.cif.g08.bks.cpg/sg15_143_cif.got.tgz:284426.got - 2010.06.03 18:47:42.
