data_PCOD9283960
_publ_section_title
;
Structure prediction by ZEFSAII (Michael W. Deem and Ramdas Pophale) SiO2 
 PCOD9283960
Probable space group: C 2/C
;
_chemical_formula_sum "Si O2"
_cell_formula_units_Z 52
_cell_length_a 17.557295
_cell_length_b 8.818170
_cell_length_c 20.157270
_cell_angle_alpha 90.000000
_cell_angle_beta 127.457438
_cell_angle_gamma 90.000000
_cell_volume 2477.318247
_symmetry_space_group_name_H-M "C 2/C"
_symmetry_group_IT_number 15
_symmetry_cell_setting 'monoclinic'
loop_
_space_group_symop_operation_xyz
x,y,z
-x,y,1/2-z
-x,-y,-z
x,-y,1/2+z
1/2+x,1/2+y,z
1/2-x,1/2+y,1/2-z
1/2-x,1/2-y,-z
1/2+x,1/2-y,1/2+z
loop_
_atom_site_type_symbol
_atom_site_label
_atom_site_fract_x
_atom_site_fract_y
_atom_site_fract_z
Si Si1 0.658217 0.997612 0.824718
Si Si2 0.610043 0.252374 0.711475
Si Si3 0.320967 0.331243 0.983826
Si Si4 0.405667 0.084421 0.925666
Si Si5 0.825939 0.324732 0.808478
Si Si6 0.029514 0.914219 0.146497
Si Si7 0.000000 0.292132 0.750000
O O1 0.758486 0.961165 0.913163
O O2 0.659339 0.916303 0.752788
O O3 0.578559 0.903095 0.823072
O O4 0.618032 0.164406 0.785978
O O5 0.562234 0.158923 0.626920
O O6 0.721133 0.257228 0.749030
O O7 0.565849 0.418502 0.681519
O O8 0.359126 0.206226 0.950840
O O9 0.250000 0.250000 0.000000
O O10 0.418504 0.400731 0.066582
O O11 0.330984 0.951557 0.867937
O O12 0.500000 0.000000 0.000000
O O13 0.901233 0.188882 0.863263
O O14 0.043731 0.820228 0.220793
#
# Coordination Sequence:
#
# PCOD9283960 Si02
#       7
#     8   8   8   8   8   8   4
#     4  10  22  41  65  92 133 179 221 276 339 412
#     4  11  24  39  67 100 128 172 236 287 338 398
#     4  12  24  42  69 102 141 188 228 280 358 427
#     4  11  23  42  64  97 138 175 226 287 339 410
#     4  10  21  40  65  96 130 175 227 283 337 397
#     4  11  23  40  68 100 134 180 227 284 349 412
#     4  10  22  42  64  90 134 182 220 262 344 426
#
# _framework density 20.99044
#
# number of rings (size 3 to 8) (size 9 to 14) (size 15 to 20)
#    0.000    1.231    4.615    1.846    2.154    2.462 
#    0.000    0.000    0.000    3.692    0.000    0.000 
#    0.000    0.000    0.000    0.000    0.000    0.000 
#
# Total GULP energy -144900.916390 kJ/mol
# GULP energy per Si atom -5573.112169 kJ/mol
# Density = 2.094266 g / cm^3
# Si number density = 20.990440 Si / 1000 Ang^3
#
#
#
# Elastic Constant Matrix: (Units=GPa)
#
#
# Indices 1 2 3 4 5 6 
#
# 1 38.2760 27.8275 14.1088 0.0000 12.1568 0.0000
# 2 27.8275 145.3308 52.8210 0.0000 9.7622 0.0000
# 3 14.1088 52.8210 81.0906 0.0000 23.8142 0.0000
# 4 0.0000 0.0000 0.0000 45.0062 0.0000 1.6977
# 5 12.1568 9.7622 23.8142 0.0000 35.8174 0.0000
# 6 0.0000 0.0000 0.0000 1.6977 0.0000 12.3016
#
#
#
# Elastic Compliance Matrix: (Units=1/GPa)
#
#
# Indices 1 2 3 4 5 6 
#
# 1 0.033486 -0.006173 0.001290 0.000000 -0.010541 0.000000
# 2 -0.006173 0.010247 -0.006705 0.000000 0.003760 0.000000
# 3 0.001290 -0.006705 0.019965 0.000000 -0.011885 0.000000
# 4 0.000000 0.000000 0.000000 0.022335 0.000000 -0.003082
# 5 -0.010541 0.003760 -0.011885 0.000000 0.038374 0.000000
# 6 0.000000 0.000000 0.000000 -0.003082 0.000000 0.081716
#
#
# Mechanical properties :
#
#
# Convention : Reuss Voigt Hill
#
# Bulk Modulus (GPa) = 24.67718 50.46800 37.57259
# Shear Modulus (GPa) = 20.59248 29.95437 25.27343
#
# Velocity S-wave (km/s) = 3.13556 3.78173 3.47370
# Velocity P-wave (km/s) = 4.98907 6.56994 5.83331
#
# Compressibility (1/GPa) = 0.04052327
#
# Stress axis : x y z
#
# Youngs Moduli (GPa) = 29.86324 97.58742 50.08677
#
# Poissons Ratio (x) = 0.60238 -0.06462
# Poissons Ratio (y) = 0.18434 0.33584
# Poissons Ratio (z) = -0.03853 0.65434
#
# Static dielectric constant tensor:
#      x y z
#    x 1.890840 0.000000 -0.038010 
#    y 0.000000 1.803710 0.000000 
#    z -0.038010 0.000000 1.850860 
# 
# From -- ./inp_files/209077.got.cif
#   From: 2010.05.17/outbox.cif.g08.bks.cpg/sg15_105_cif.got.tgz:209077.got - 2010.06.03 18:47:42.
