data_PCOD9283194
_publ_section_title
;
Structure prediction by ZEFSAII (Michael W. Deem and Ramdas Pophale) SiO2 
 PCOD9283194
Probable space group: C 2/C
;
_chemical_formula_sum "Si O2"
_cell_formula_units_Z 64
_cell_length_a 23.293839
_cell_length_b 8.390798
_cell_length_c 29.787979
_cell_angle_alpha 90.000000
_cell_angle_beta 153.456581
_cell_angle_gamma 90.000000
_cell_volume 2601.790235
_symmetry_space_group_name_H-M "C 2/C"
_symmetry_group_IT_number 15
_symmetry_cell_setting 'monoclinic'
loop_
_space_group_symop_operation_xyz
x,y,z
-x,y,1/2-z
-x,-y,-z
x,-y,1/2+z
1/2+x,1/2+y,z
1/2-x,1/2+y,1/2-z
1/2-x,1/2-y,-z
1/2+x,1/2-y,1/2+z
loop_
_atom_site_type_symbol
_atom_site_label
_atom_site_fract_x
_atom_site_fract_y
_atom_site_fract_z
Si Si1 0.228907 0.670181 0.055219
Si Si2 0.011294 0.219390 0.634636
Si Si3 0.926318 0.619803 0.159507
Si Si4 0.143877 0.031990 0.119122
Si Si5 0.308948 0.525051 0.193970
Si Si6 0.465583 0.782237 0.161039
Si Si7 0.305970 0.480344 0.942354
Si Si8 0.209186 0.307993 0.706504
O O1 0.241662 0.524783 0.098492
O O2 0.364192 0.697678 0.123904
O O3 0.198912 0.828905 0.062745
O O4 0.118507 0.671003 0.941046
O O5 0.086482 0.332754 0.652948
O O6 0.918849 0.299151 0.606279
O O7 0.939189 0.088451 0.554284
O O8 0.116709 0.129796 0.738419
O O9 0.005430 0.454721 0.207520
O O10 0.792756 0.571810 0.088135
O O11 0.000000 0.716486 0.250000
O O12 0.198996 0.869510 0.179382
O O13 0.216065 0.078592 0.123517
O O14 0.168483 0.160523 0.175466
O O15 0.000000 0.000000 0.000000
O O16 0.417738 0.664736 0.266745
O O17 0.215500 0.575477 0.168714
#
# Coordination Sequence:
#
# PCOD9283194 Si02
#       8
#     8   8   8   8   8   8   8   8
#     4  10  21  39  69 100 134 179 233 287 349 427
#     4  12  26  46  67 105 141 180 242 298 366 433
#     4  11  25  44  68 100 142 187 232 295 364 434
#     4  12  25  50  76 104 151 193 243 305 368 436
#     4  12  23  41  70  97 136 180 234 292 354 419
#     4  10  22  41  64  99 135 181 235 282 344 432
#     4  11  21  46  74  99 141 194 230 295 379 424
#     4  12  26  44  74 106 138 196 245 300 362 448
#
# _framework density 24.598448000000001
#
# number of rings (size 3 to 8) (size 9 to 14) (size 15 to 20)
#    0.000    0.750    5.000    3.000    1.750    1.000 
#    4.500    0.625    0.000    0.000    0.000    0.000 
#    0.000    0.000    0.000    0.000    0.000    0.000 
#
# Total GULP energy -179135.584419 kJ/mol
# GULP energy per Si atom -5597.987013 kJ/mol
# Density = 2.454246 g / cm^3
# Si number density = 24.598448 Si / 1000 Ang^3
#
#
#
# Elastic Constant Matrix: (Units=GPa)
#
#
# Indices 1 2 3 4 5 6 
#
# 1 145.7348 15.6103 31.1829 -0.0002 -21.8635 0.0000
# 2 15.6103 46.9649 19.6888 0.0005 -8.9090 -0.0001
# 3 31.1829 19.6888 92.5619 0.0013 -20.0982 0.0007
# 4 -0.0002 0.0005 0.0013 34.8947 -0.0002 -9.7173
# 5 -21.8635 -8.9090 -20.0982 -0.0002 48.2494 -0.0001
# 6 0.0000 -0.0001 0.0007 -9.7173 -0.0001 24.4330
#
#
#
# Elastic Compliance Matrix: (Units=1/GPa)
#
#
# Indices 1 2 3 4 5 6 
#
# 1 0.007767 -0.001356 -0.001779 0.000000 0.002528 0.000000
# 2 -0.001356 0.023884 -0.004177 0.000000 0.002056 0.000000
# 3 -0.001779 -0.004177 0.013137 -0.000001 0.003895 -0.000001
# 4 0.000000 0.000000 -0.000001 0.032227 0.000000 0.012817
# 5 0.002528 0.002056 0.003895 0.000000 0.023873 0.000000
# 6 0.000000 0.000000 -0.000001 0.012817 0.000000 0.046026
#
#
# Mechanical properties :
#
#
# Convention : Reuss Voigt Hill
#
# Bulk Modulus (GPa) = 33.15283 46.46950 39.81117
# Shear Modulus (GPa) = 29.13858 36.10075 32.61967
#
# Velocity S-wave (km/s) = 3.44549 3.83509 3.64550
# Velocity P-wave (km/s) = 5.41622 6.20828 5.82573
#
# Compressibility (1/GPa) = 0.03016333
#
# Stress axis : x y z
#
# Youngs Moduli (GPa) = 128.74987 41.86833 76.11978
#
# Poissons Ratio (x) = 0.05678 0.13543
# Poissons Ratio (y) = 0.17461 0.31797
# Poissons Ratio (z) = 0.22908 0.17489
#
# Static dielectric constant tensor:
#      x y z
#    x 1.972110 0.000000 0.019600 
#    y 0.000000 1.932470 0.000000 
#    z 0.019600 0.000000 1.971120 
# 
# From -- ./inp_files/318648.got.cif
#   From: 2010.05.17/outbox.cif.g08.bks.cpg/sg15_160_cif.got.tgz:318648.got - 2010.06.03 18:47:42.
