data_PCOD9283740
_publ_section_title
;
Structure prediction by ZEFSAII (Michael W. Deem and Ramdas Pophale) SiO2 
 PCOD9283740
Probable space group: C 2/C
;
_chemical_formula_sum "Si O2"
_cell_formula_units_Z 48
_cell_length_a 17.887226
_cell_length_b 27.698251
_cell_length_c 5.207111
_cell_angle_alpha 90.000000
_cell_angle_beta 79.599735
_cell_angle_gamma 90.000000
_cell_volume 2537.451388
_symmetry_space_group_name_H-M "C 2/C"
_symmetry_group_IT_number 15
_symmetry_cell_setting 'monoclinic'
loop_
_space_group_symop_operation_xyz
x,y,z
-x,y,1/2-z
-x,-y,-z
x,-y,1/2+z
1/2+x,1/2+y,z
1/2-x,1/2+y,1/2-z
1/2-x,1/2-y,-z
1/2+x,1/2-y,1/2+z
loop_
_atom_site_type_symbol
_atom_site_label
_atom_site_fract_x
_atom_site_fract_y
_atom_site_fract_z
Si Si1 0.913595 0.531772 0.333607
Si Si2 0.810415 0.737613 0.680294
Si Si3 0.917908 0.306265 0.730524
Si Si4 0.581472 0.295854 0.578053
Si Si5 0.202380 0.615642 0.234741
Si Si6 0.717631 0.349518 0.341045
O O1 0.907794 0.510661 0.624311
O O2 0.846302 0.568920 0.312698
O O3 0.000000 0.551945 0.250000
O O4 0.750000 0.750000 0.500000
O O5 0.876969 0.705303 0.522249
O O6 0.858246 0.783508 0.736556
O O7 0.760463 0.701728 0.883127
O O8 0.923905 0.255344 0.573301
O O9 0.863414 0.345960 0.644699
O O10 0.000000 0.324956 0.750000
O O11 0.500000 0.307867 0.750000
O O12 0.628043 0.335996 0.390083
O O13 0.258114 0.614339 0.446045
O O14 0.249224 0.633415 0.953825
#
# Coordination Sequence:
#
# PCOD9283740 Si02
#       6
#     8   8   8   8   8   8
#     4  10  21  40  64  90 119 149 179 225 291 359
#     4  11  20  34  50  68 103 149 198 243 275 322
#     4  11  21  32  49  75 107 149 200 238 272 319
#     4  12  22  35  51  74 109 157 202 242 281 321
#     4  11  23  38  58  82 114 147 189 236 283 342
#     4  11  23  36  55  78 111 152 198 241 283 328
#
# _framework density 18.916618
#
# number of rings (size 3 to 8) (size 9 to 14) (size 15 to 20)
#    0.000    1.000    5.000    4.000    0.000    0.000 
#    0.000    2.500    0.000    0.000    0.000    0.000 
#    0.000   13.333    0.000    0.000    0.000    0.000 
#
# Total GULP energy -133761.419678 kJ/mol
# GULP energy per Si atom -5573.392487 kJ/mol
# Density = 1.887356 g / cm^3
# Si number density = 18.916618 Si / 1000 Ang^3
#
#
#
# Elastic Constant Matrix: (Units=GPa)
#
#
# Indices 1 2 3 4 5 6 
#
# 1 120.6224 22.4987 52.6262 0.0000 -26.9048 0.0000
# 2 22.4987 35.8822 4.5701 0.0000 -6.3401 0.0000
# 3 52.6262 4.5701 59.8004 0.0000 -2.8698 0.0000
# 4 0.0000 0.0000 0.0000 15.9189 0.0000 5.7543
# 5 -26.9048 -6.3401 -2.8698 0.0000 41.4979 0.0000
# 6 0.0000 0.0000 0.0000 5.7543 0.0000 31.1273
#
#
#
# Elastic Compliance Matrix: (Units=1/GPa)
#
#
# Indices 1 2 3 4 5 6 
#
# 1 0.018672 -0.008018 -0.015348 0.000000 0.009820 0.000000
# 2 -0.008018 0.032322 0.004589 0.000000 0.000057 0.000000
# 3 -0.015348 0.004589 0.029533 0.000000 -0.007208 0.000000
# 4 0.000000 0.000000 0.000000 0.067317 0.000000 -0.012444
# 5 0.009820 0.000057 -0.007208 0.000000 0.029974 0.000000
# 6 0.000000 0.000000 0.000000 -0.012444 0.000000 0.034427
#
#
# Mechanical properties :
#
#
# Convention : Reuss Voigt Hill
#
# Bulk Modulus (GPa) = 23.27099 41.74388 32.50743
# Shear Modulus (GPa) = 18.93048 26.81615 22.87332
#
# Velocity S-wave (km/s) = 3.16687 3.76918 3.48108
# Velocity P-wave (km/s) = 5.06958 6.40762 5.77746
#
# Compressibility (1/GPa) = 0.04297195
#
# Stress axis : x y z
#
# Youngs Moduli (GPa) = 53.55477 30.93865 33.86074
#
# Poissons Ratio (x) = 0.24807 0.51971
# Poissons Ratio (y) = 0.42940 -0.15538
# Poissons Ratio (z) = 0.82198 -0.14197
#
# Static dielectric constant tensor:
#      x y z
#    x 1.646670 0.000000 0.024030 
#    y 0.000000 1.700270 0.000000 
#    z 0.024030 0.000000 1.759940 
# 
# From -- ./inp_files/8702.got.cif
#   From: 2010.05.17/outbox.cif.g08.bks.cpg/sg15_5_cif.got.tgz:8702.got - 2010.06.03 18:47:42.
