data_PCOD9283401
_publ_section_title
;
Structure prediction by ZEFSAII (Michael W. Deem and Ramdas Pophale) SiO2 
 PCOD9283401
Probable space group: C 2/C
;
_chemical_formula_sum "Si O2"
_cell_formula_units_Z 48
_cell_length_a 14.182029
_cell_length_b 8.233244
_cell_length_c 21.586292
_cell_angle_alpha 90.000000
_cell_angle_beta 57.529121
_cell_angle_gamma 90.000000
_cell_volume 2126.459612
_symmetry_space_group_name_H-M "C 2/C"
_symmetry_group_IT_number 15
_symmetry_cell_setting 'monoclinic'
loop_
_space_group_symop_operation_xyz
x,y,z
-x,y,1/2-z
-x,-y,-z
x,-y,1/2+z
1/2+x,1/2+y,z
1/2-x,1/2+y,1/2-z
1/2-x,1/2-y,-z
1/2+x,1/2-y,1/2+z
loop_
_atom_site_type_symbol
_atom_site_label
_atom_site_fract_x
_atom_site_fract_y
_atom_site_fract_z
Si Si1 0.361510 0.266353 0.420253
Si Si2 0.247046 0.624428 0.155166
Si Si3 0.491173 0.436036 0.826268
Si Si4 0.791200 0.845885 0.218425
Si Si5 0.077906 0.639016 0.417217
Si Si6 0.528239 0.236935 0.930361
O O1 0.250000 0.250000 0.500000
O O2 0.340175 0.159059 0.367126
O O3 0.390042 0.445926 0.383813
O O4 0.464495 0.198074 0.423273
O O5 0.250459 0.768370 0.204246
O O6 0.216397 0.465700 0.204613
O O7 0.374892 0.633378 0.084786
O O8 0.500000 0.399130 0.750000
O O9 0.600349 0.546241 0.803031
O O10 0.493967 0.285535 0.872938
O O11 0.823695 0.701341 0.160683
O O12 0.075771 0.445315 0.421981
O O13 0.073788 0.729173 0.484975
#
# Coordination Sequence:
#
# PCOD9283401 Si02
#       6
#     8   8   8   8   8   8
#     4  11  22  38  63  88 120 155 206 252 300 362
#     4  11  21  39  61  89 115 159 199 255 296 365
#     4  10  21  40  61  88 123 163 197 251 309 362
#     4  10  22  37  62  85 121 157 203 246 308 365
#     4  10  22  41  59  88 117 162 199 250 304 368
#     4  10  22  40  62  83 124 157 203 247 306 366
#
# _framework density 22.572731000000001
#
# number of rings (size 3 to 8) (size 9 to 14) (size 15 to 20)
#    0.000    1.667    3.333    1.000    2.333    2.000 
#    9.000    0.833    0.000    0.000    0.000    0.000 
#    0.000    0.000    0.000    0.000    0.000    0.000 
#
# Total GULP energy -134046.716791 kJ/mol
# GULP energy per Si atom -5585.279866 kJ/mol
# Density = 2.252135 g / cm^3
# Si number density = 22.572731 Si / 1000 Ang^3
#
#
#
# Elastic Constant Matrix: (Units=GPa)
#
#
# Indices 1 2 3 4 5 6 
#
# 1 27.3903 12.7849 24.2076 0.0000 16.6074 0.0000
# 2 12.7849 53.2454 27.3267 0.0000 9.0343 0.0000
# 3 24.2076 27.3267 127.6289 0.0000 14.9891 0.0000
# 4 0.0000 0.0000 0.0000 36.3260 0.0000 1.5877
# 5 16.6074 9.0343 14.9891 0.0000 36.9240 0.0000
# 6 0.0000 0.0000 0.0000 1.5877 0.0000 22.1720
#
#
#
# Elastic Compliance Matrix: (Units=1/GPa)
#
#
# Indices 1 2 3 4 5 6 
#
# 1 0.059520 -0.006822 -0.007225 0.000000 -0.022169 0.000000
# 2 -0.006822 0.022320 -0.003364 0.000000 -0.001027 0.000000
# 3 -0.007225 -0.003364 0.009921 0.000000 0.000046 0.000000
# 4 0.000000 0.000000 0.000000 0.027615 0.000000 -0.001977
# 5 -0.022169 -0.001027 0.000046 0.000000 0.037286 0.000000
# 6 0.000000 0.000000 0.000000 -0.001977 0.000000 0.045243
#
#
# Mechanical properties :
#
#
# Convention : Reuss Voigt Hill
#
# Bulk Modulus (GPa) = 17.56302 37.43367 27.49834
# Shear Modulus (GPa) = 19.55354 28.68077 24.11716
#
# Velocity S-wave (km/s) = 2.94640 3.56841 3.27222
# Velocity P-wave (km/s) = 4.40143 5.79634 5.14637
#
# Compressibility (1/GPa) = 0.05693782
#
# Stress axis : x y z
#
# Youngs Moduli (GPa) = 16.80094 44.80303 100.80020
#
# Poissons Ratio (x) = 0.30565 0.72830
# Poissons Ratio (y) = 0.11462 0.33913
# Poissons Ratio (z) = 0.12139 0.15073
#
# Static dielectric constant tensor:
#      x y z
#    x 1.848970 0.000000 -0.029500 
#    y 0.000000 1.844090 0.000000 
#    z -0.029500 0.000000 1.886890 
# 
# From -- ./inp_files/242325.got.cif
#   From: 2010.05.17/outbox.cif.g08.bks.cpg/sg15_122_cif.got.tgz:242325.got - 2010.06.03 18:47:42.
