data_PCOD9283592
_publ_section_title
;
Structure prediction by ZEFSAII (Michael W. Deem and Ramdas Pophale) SiO2 
 PCOD9283592
Probable space group: C 2/C
;
_chemical_formula_sum "Si O2"
_cell_formula_units_Z 64
_cell_length_a 15.752195
_cell_length_b 19.457366
_cell_length_c 10.224340
_cell_angle_alpha 90.000000
_cell_angle_beta 84.965135
_cell_angle_gamma 90.000000
_cell_volume 3121.630065
_symmetry_space_group_name_H-M "C 2/C"
_symmetry_group_IT_number 15
_symmetry_cell_setting 'monoclinic'
loop_
_space_group_symop_operation_xyz
x,y,z
-x,y,1/2-z
-x,-y,-z
x,-y,1/2+z
1/2+x,1/2+y,z
1/2-x,1/2+y,1/2-z
1/2-x,1/2-y,-z
1/2+x,1/2-y,1/2+z
loop_
_atom_site_type_symbol
_atom_site_label
_atom_site_fract_x
_atom_site_fract_y
_atom_site_fract_z
Si Si1 0.595255 0.445242 0.112359
Si Si2 0.100929 0.574003 0.273113
Si Si3 0.837468 0.343477 0.977607
Si Si4 0.401976 0.085296 0.723477
Si Si5 0.656804 0.310880 0.445254
Si Si6 0.341874 0.302689 0.366809
Si Si7 0.898014 0.960449 0.106866
Si Si8 0.345903 0.836012 0.486525
O O1 0.591713 0.363154 0.113463
O O2 0.498422 0.471667 0.119236
O O3 0.640855 0.462489 0.242872
O O4 0.638276 0.482238 0.984349
O O5 0.124775 0.494078 0.286070
O O6 0.118480 0.616603 0.402698
O O7 0.000000 0.578623 0.250000
O O8 0.154856 0.606822 0.147575
O O9 0.889776 0.375958 0.088946
O O10 0.743774 0.328881 0.049512
O O11 0.869225 0.269595 0.922514
O O12 0.500000 0.084274 0.750000
O O13 0.356908 0.126335 0.846624
O O14 0.671769 0.296283 0.287669
O O15 0.610602 0.384502 0.452503
O O16 0.615705 0.241307 0.508596
O O17 0.744533 0.323742 0.511269
#
# Coordination Sequence:
#
# PCOD9283592 Si02
#       8
#     8   8   8   8   8   8   8   8
#     4   9  19  37  58  84 117 150 191 242 292 350
#     4  11  24  41  64  92 124 163 206 251 302 364
#     4  11  22  41  63  87 122 160 199 252 302 356
#     4  11  24  41  60  90 128 161 202 255 304 358
#     4  10  21  40  63  88 119 158 202 249 298 358
#     4  10  21  40  63  88 119 158 202 249 298 358
#     4   9  19  37  58  84 117 150 191 242 292 350
#     4  11  22  41  63  87 122 160 199 252 302 356
#
# _framework density 20.502109999999998
#
# number of rings (size 3 to 8) (size 9 to 14) (size 15 to 20)
#    0.000    1.750    2.500    1.500    0.000    6.000 
#    4.500    0.000    0.000    0.000    0.000    0.000 
#    0.000    0.000    0.000    0.000    0.000    0.000 
#
# Total GULP energy -178541.722726 kJ/mol
# GULP energy per Si atom -5579.428835 kJ/mol
# Density = 2.045545 g / cm^3
# Si number density = 20.502110 Si / 1000 Ang^3
#
#
#
# Elastic Constant Matrix: (Units=GPa)
#
#
# Indices 1 2 3 4 5 6 
#
# 1 13.4760 13.7291 1.9528 0.0000 10.0948 0.0000
# 2 13.7291 134.7901 59.9724 0.0000 25.6559 0.0000
# 3 1.9528 59.9724 84.9827 0.0000 25.8617 0.0000
# 4 0.0000 0.0000 0.0000 49.3363 0.0000 14.4011
# 5 10.0948 25.6559 25.8617 0.0000 24.0671 0.0000
# 6 0.0000 0.0000 0.0000 14.4011 0.0000 27.0129
#
#
#
# Elastic Compliance Matrix: (Units=1/GPa)
#
#
# Indices 1 2 3 4 5 6 
#
# 1 0.140081 -0.012592 0.028920 0.000000 -0.076410 0.000000
# 2 -0.012592 0.012357 -0.008960 0.000000 0.001736 0.000000
# 3 0.028920 -0.008960 0.027059 0.000000 -0.031656 0.000000
# 4 0.000000 0.000000 0.000000 0.024005 0.000000 -0.012797
# 5 -0.076410 0.001736 -0.031656 0.000000 0.105766 0.000000
# 6 0.000000 0.000000 0.000000 -0.012797 0.000000 0.043842
#
#
# Mechanical properties :
#
#
# Convention : Reuss Voigt Hill
#
# Bulk Modulus (GPa) = 5.14841 42.72862 23.93852
# Shear Modulus (GPa) = 12.40334 30.58955 21.49645
#
# Velocity S-wave (km/s) = 2.46230 3.86686 3.24157
# Velocity P-wave (km/s) = 3.25584 6.38930 5.07068
#
# Compressibility (1/GPa) = 0.19423463
#
# Stress axis : x y z
#
# Youngs Moduli (GPa) = 7.13872 80.92280 36.95667
#
# Poissons Ratio (x) = 1.01894 -1.06878
# Poissons Ratio (y) = 0.08989 0.33112
# Poissons Ratio (z) = -0.20645 0.72504
#
# Static dielectric constant tensor:
#      x y z
#    x 1.753760 0.000000 -0.020460 
#    y 0.000000 1.738690 0.000000 
#    z -0.020460 0.000000 1.730360 
# 
# From -- ./inp_files/98788.got.cif
#   From: 2010.05.17/outbox.cif.g08.bks.cpg/sg15_50_cif.got.tgz:98788.got - 2010.06.03 18:47:42.
