data_PCOD9283766
_publ_section_title
;
Structure prediction by ZEFSAII (Michael W. Deem and Ramdas Pophale) SiO2 
 PCOD9283766
Probable space group: C 2/C
;
_chemical_formula_sum "Si O2"
_cell_formula_units_Z 48
_cell_length_a 5.277356
_cell_length_b 18.847503
_cell_length_c 22.888544
_cell_angle_alpha 90.000000
_cell_angle_beta 62.545160
_cell_angle_gamma 90.000000
_cell_volume 2020.204462
_symmetry_space_group_name_H-M "C 2/C"
_symmetry_group_IT_number 15
_symmetry_cell_setting 'monoclinic'
loop_
_space_group_symop_operation_xyz
x,y,z
-x,y,1/2-z
-x,-y,-z
x,-y,1/2+z
1/2+x,1/2+y,z
1/2-x,1/2+y,1/2-z
1/2-x,1/2-y,-z
1/2+x,1/2-y,1/2+z
loop_
_atom_site_type_symbol
_atom_site_label
_atom_site_fract_x
_atom_site_fract_y
_atom_site_fract_z
Si Si1 0.000000 0.626356 0.250000
Si Si2 0.862486 0.329306 0.573213
Si Si3 0.192571 0.918843 0.895087
Si Si4 0.388410 0.749953 0.680815
Si Si5 0.500000 0.126277 0.750000
Si Si6 0.273035 0.581077 0.604907
Si Si7 0.344721 0.170619 0.573235
O O1 0.815060 0.582946 0.315580
O O2 0.164682 0.682105 0.273744
O O3 0.604203 0.377564 0.578426
O O4 0.087711 0.377870 0.585693
O O5 0.767385 0.269622 0.629744
O O6 0.018662 0.298435 0.499976
O O7 0.165504 0.999959 0.917216
O O8 0.713727 0.730273 0.629795
O O9 0.259636 0.682025 0.726266
O O10 0.577446 0.082868 0.684412
O O11 0.569608 0.622052 0.585702
O O12 0.082237 0.622351 0.578403
#
# Coordination Sequence:
#
# PCOD9283766 Si02
#       7
#     4   8   8   8   4   8   8
#     4  10  21  40  64  92 123 160 206 260 316 374
#     4  11  24  41  64  93 126 166 209 258 315 377
#     4  11  24  41  64  92 125 166 209 258 313 375
#     4  10  21  40  66  94 127 164 210 266 322 380
#     4  10  21  40  64  92 123 160 206 260 316 374
#     4  11  24  41  64  92 125 166 209 258 313 375
#     4  11  24  41  64  93 126 166 209 258 315 377
#
# _framework density 23.759972000000001
#
# number of rings (size 3 to 8) (size 9 to 14) (size 15 to 20)
#    0.000    1.333    0.000    5.000    0.000   12.000 
#    0.000   15.000    0.000    0.000    0.000    0.000 
#    0.000    0.000    0.000    0.000    0.000    0.000 
#
# Total GULP energy -134294.140685 kJ/mol
# GULP energy per Si atom -5595.589195 kJ/mol
# Density = 2.370589 g / cm^3
# Si number density = 23.759972 Si / 1000 Ang^3
#
#
#
# Elastic Constant Matrix: (Units=GPa)
#
#
# Indices 1 2 3 4 5 6 
#
# 1 177.7488 49.3078 22.0326 0.0000 -0.0558 0.0000
# 2 49.3078 105.5267 -5.1113 0.0000 -0.0069 0.0000
# 3 22.0326 -5.1113 144.2080 0.0000 -0.0298 0.0000
# 4 0.0000 0.0000 0.0000 9.6044 0.0000 -0.0016
# 5 -0.0558 -0.0069 -0.0298 0.0000 13.0907 0.0000
# 6 0.0000 0.0000 0.0000 -0.0016 0.0000 35.4149
#
#
#
# Elastic Compliance Matrix: (Units=1/GPa)
#
#
# Indices 1 2 3 4 5 6 
#
# 1 0.006642 -0.003158 -0.001127 0.000000 0.000024 0.000000
# 2 -0.003158 0.010994 0.000872 0.000000 -0.000006 0.000000
# 3 -0.001127 0.000872 0.007137 0.000000 0.000012 0.000000
# 4 0.000000 0.000000 0.000000 0.104119 0.000000 0.000005
# 5 0.000024 -0.000006 0.000012 0.000000 0.076390 0.000000
# 6 0.000000 0.000000 0.000000 0.000005 0.000000 0.028237
#
#
# Mechanical properties :
#
#
# Convention : Reuss Voigt Hill
#
# Bulk Modulus (GPa) = 55.71544 62.21575 58.96560
# Shear Modulus (GPa) = 20.29825 35.70562 28.00193
#
# Velocity S-wave (km/s) = 2.92602 3.88076 3.43670
# Velocity P-wave (km/s) = 5.90895 6.80605 6.37330
#
# Compressibility (1/GPa) = 0.01794835
#
# Stress axis : x y z
#
# Youngs Moduli (GPa) = 150.56662 90.95829 140.10552
#
# Poissons Ratio (x) = 0.28724 0.15785
# Poissons Ratio (y) = 0.47547 -0.12219
# Poissons Ratio (z) = 0.16964 -0.07933
#
# Static dielectric constant tensor:
#      x y z
#    x 1.966270 0.000000 0.000080 
#    y 0.000000 1.866280 0.000000 
#    z 0.000080 0.000000 1.912660 
# 
# From -- ./inp_files/227382.got.cif
#   From: 2010.05.17/outbox.cif.g08.bks.cpg/sg15_114_cif.got.tgz:227382.got - 2010.06.03 18:47:42.
