data_PCOD9283248
_publ_section_title
;
Structure prediction by ZEFSAII (Michael W. Deem and Ramdas Pophale) SiO2 
 PCOD9283248
Probable space group: C 2/C
;
_chemical_formula_sum "Si O2"
_cell_formula_units_Z 40
_cell_length_a 25.632045
_cell_length_b 9.809146
_cell_length_c 12.087993
_cell_angle_alpha 90.000000
_cell_angle_beta 39.789066
_cell_angle_gamma 90.000000
_cell_volume 1945.017757
_symmetry_space_group_name_H-M "C 2/C"
_symmetry_group_IT_number 15
_symmetry_cell_setting 'monoclinic'
loop_
_space_group_symop_operation_xyz
x,y,z
-x,y,1/2-z
-x,-y,-z
x,-y,1/2+z
1/2+x,1/2+y,z
1/2-x,1/2+y,1/2-z
1/2-x,1/2-y,-z
1/2+x,1/2-y,1/2+z
loop_
_atom_site_type_symbol
_atom_site_label
_atom_site_fract_x
_atom_site_fract_y
_atom_site_fract_z
Si Si1 0.090749 0.121786 0.105417
Si Si2 0.340381 0.285859 0.240112
Si Si3 0.400837 0.131990 0.735209
Si Si4 0.741669 0.470913 0.959679
Si Si5 0.019905 0.340293 0.843189
O O1 0.088758 0.247523 0.194604
O O2 0.000000 0.061167 0.250000
O O3 0.116508 0.175672 0.943270
O O4 0.160843 0.021532 0.032176
O O5 0.283728 0.404267 0.381853
O O6 0.286446 0.149265 0.318973
O O7 0.409016 0.250945 0.219406
O O8 0.442626 0.169342 0.550561
O O9 0.307160 0.090150 0.870059
O O10 0.447029 0.996178 0.703321
O O11 0.000000 0.306488 0.750000
#
# Coordination Sequence:
#
# PCOD9283248 Si02
#       5
#     8   8   8   8   8
#     4  12  24  43  69  95 135 172 218 278 324 398
#     4  10  24  46  64  98 131 172 223 265 334 394
#     4  10  22  40  65 103 125 174 227 266 325 384
#     4  10  25  43  63  97 133 174 217 273 328 389
#     4  10  21  39  70  95 133 173 219 273 321 387
#
# _framework density 20.565365
#
# number of rings (size 3 to 8) (size 9 to 14) (size 15 to 20)
#    0.000    1.600    2.000    1.200    8.400    4.800 
#    3.600    0.000    0.000    0.000    0.000    0.000 
#    0.000    0.000    0.000    0.000    0.000    0.000 
#
# Total GULP energy -111876.318775 kJ/mol
# GULP energy per Si atom -5593.815939 kJ/mol
# Density = 2.051856 g / cm^3
# Si number density = 20.565365 Si / 1000 Ang^3
#
#
#
# Elastic Constant Matrix: (Units=GPa)
#
#
# Indices 1 2 3 4 5 6 
#
# 1 99.5309 33.7915 47.1438 0.0000 -10.3978 0.0000
# 2 33.7915 31.6010 27.5512 0.0000 -5.1351 0.0000
# 3 47.1438 27.5512 123.2274 0.0000 -6.6119 0.0000
# 4 0.0000 0.0000 0.0000 0.5107 0.0000 -3.6256
# 5 -10.3978 -5.1351 -6.6119 0.0000 47.4916 0.0000
# 6 0.0000 0.0000 0.0000 -3.6256 0.0000 14.5823
#
#
#
# Elastic Compliance Matrix: (Units=1/GPa)
#
#
# Indices 1 2 3 4 5 6 
#
# 1 0.016721 -0.015048 -0.002945 -0.000001 0.001624 0.000000
# 2 -0.015048 0.053292 -0.006071 0.000003 0.001622 0.000001
# 3 -0.002945 -0.006071 0.010609 0.000000 0.000176 0.000000
# 4 -0.000001 0.000003 0.000000 -2.559212 0.000000 -0.636292
# 5 0.001624 0.001622 0.000176 0.000000 0.021612 0.000000
# 6 0.000000 0.000001 0.000000 -0.636292 0.000000 -0.089624
#
#
# Mechanical properties :
#
#
# Convention : Reuss Voigt Hill
#
# Bulk Modulus (GPa) = 30.77600 52.37023 41.57312
# Shear Modulus (GPa) = -2.00994 22.24177 10.11592
#
# Velocity S-wave (km/s) = -0.98968 3.29221 2.22027
# Velocity P-wave (km/s) = 3.70020 6.32235 5.17994
#
# Compressibility (1/GPa) = 0.03249285
#
# Stress axis : x y z
#
# Youngs Moduli (GPa) = 59.80574 18.76445 94.26219
#
# Poissons Ratio (x) = 0.28237 0.27764
# Poissons Ratio (y) = 0.89996 0.57227
# Poissons Ratio (z) = 0.17615 0.11392
#
# Static dielectric constant tensor:
#      x y z
#    x 1.700270 0.000000 -0.026350 
#    y 0.000000 1.727560 0.000000 
#    z -0.026350 0.000000 1.714860 
# 
# From -- ./inp_files/102716.got.cif
#   From: 2010.05.17/outbox.cif.g08.bks.cpg/sg15_52_cif.got.tgz:102716.got - 2010.06.03 18:47:42.
