data_PCOD9283612
_publ_section_title
;
Structure prediction by ZEFSAII (Michael W. Deem and Ramdas Pophale) SiO2 
 PCOD9283612
Probable space group: C 2/C
;
_chemical_formula_sum "Si O2"
_cell_formula_units_Z 40
_cell_length_a 10.081598
_cell_length_b 9.492196
_cell_length_c 21.980720
_cell_angle_alpha 90.000000
_cell_angle_beta 76.045188
_cell_angle_gamma 90.000000
_cell_volume 2041.396482
_symmetry_space_group_name_H-M "C 2/C"
_symmetry_group_IT_number 15
_symmetry_cell_setting 'monoclinic'
loop_
_space_group_symop_operation_xyz
x,y,z
-x,y,1/2-z
-x,-y,-z
x,-y,1/2+z
1/2+x,1/2+y,z
1/2-x,1/2+y,1/2-z
1/2-x,1/2-y,-z
1/2+x,1/2-y,1/2+z
loop_
_atom_site_type_symbol
_atom_site_label
_atom_site_fract_x
_atom_site_fract_y
_atom_site_fract_z
Si Si1 0.657051 0.954740 0.738519
Si Si2 0.095085 0.854142 0.581925
Si Si3 0.707870 0.750580 0.184907
Si Si4 0.140431 0.564681 0.507454
Si Si5 0.311776 0.501680 0.104405
O O1 0.500000 0.912660 0.750000
O O2 0.724560 0.877982 0.787775
O O3 0.739900 0.916393 0.668071
O O4 0.664964 0.125602 0.736411
O O5 0.090149 0.802255 0.652372
O O6 0.103843 0.720231 0.536392
O O7 0.240620 0.930462 0.556252
O O8 0.964481 0.945685 0.579219
O O9 0.807933 0.839274 0.128569
O O10 0.215018 0.489975 0.556481
O O11 0.000000 0.500000 0.500000
#
# Coordination Sequence:
#
# PCOD9283612 Si02
#       5
#     8   8   8   8   8
#     4  10  23  39  60  89 128 157 216 251 306 371
#     4  10  21  40  63  89 129 153 213 253 308 379
#     4   9  23  38  62  89 123 167 204 258 311 362
#     4  10  22  40  64  92 122 166 200 260 312 369
#     4   9  22  40  62  92 124 166 204 254 315 361
#
# _framework density 19.594428000000001
#
# number of rings (size 3 to 8) (size 9 to 14) (size 15 to 20)
#    1.200    1.200    0.000    0.600    5.600    2.400 
#    3.600    0.000    0.000    0.000    0.000    0.000 
#    0.000    0.000    0.000    0.000    0.000    0.000 
#
# Total GULP energy -111378.482992 kJ/mol
# GULP energy per Si atom -5568.924150 kJ/mol
# Density = 1.954983 g / cm^3
# Si number density = 19.594428 Si / 1000 Ang^3
#
#
#
# Elastic Constant Matrix: (Units=GPa)
#
#
# Indices 1 2 3 4 5 6 
#
# 1 160.7022 59.9315 49.2217 0.0000 3.7376 0.0000
# 2 59.9315 49.8873 40.1189 0.0000 17.1393 0.0000
# 3 49.2217 40.1189 81.2021 0.0000 16.9523 0.0000
# 4 0.0000 0.0000 0.0000 17.8384 0.0000 0.8563
# 5 3.7376 17.1393 16.9523 0.0000 25.2164 0.0000
# 6 0.0000 0.0000 0.0000 0.8563 0.0000 28.6681
#
#
#
# Elastic Compliance Matrix: (Units=1/GPa)
#
#
# Indices 1 2 3 4 5 6 
#
# 1 0.013566 -0.019567 -0.001061 0.000000 0.012003 0.000000
# 2 -0.019567 0.065927 -0.013914 0.000000 -0.032555 0.000000
# 3 -0.001061 -0.013914 0.020736 0.000000 -0.004325 0.000000
# 4 0.000000 0.000000 0.000000 0.056139 0.000000 -0.001677
# 5 0.012003 -0.032555 -0.004325 0.000000 0.062913 0.000000
# 6 0.000000 0.000000 0.000000 -0.001677 0.000000 0.034932
#
#
# Mechanical properties :
#
#
# Convention : Reuss Voigt Hill
#
# Bulk Modulus (GPa) = 32.11076 65.59286 48.85181
# Shear Modulus (GPa) = 14.98439 23.84588 19.41513
#
# Velocity S-wave (km/s) = 2.76837 3.49230 3.15119
# Velocity P-wave (km/s) = 5.16157 7.05758 6.18269
#
# Compressibility (1/GPa) = 0.03114221
#
# Stress axis : x y z
#
# Youngs Moduli (GPa) = 73.71357 15.16832 48.22541
#
# Poissons Ratio (x) = 0.29680 0.05119
# Poissons Ratio (y) = 1.44238 0.67103
# Poissons Ratio (z) = 0.07824 0.21106
#
# Static dielectric constant tensor:
#      x y z
#    x 1.653450 0.000000 -0.036390 
#    y 0.000000 1.702990 0.000000 
#    z -0.036390 0.000000 1.740170 
# 
# From -- ./inp_files/229919.got.cif
#   From: 2010.05.17/outbox.cif.g08.bks.cpg/sg15_115_cif.got.tgz:229919.got - 2010.06.03 18:47:42.
