data_PCOD9283720
_publ_section_title
;
Structure prediction by ZEFSAII (Michael W. Deem and Ramdas Pophale) SiO2 
 PCOD9283720
Probable space group: C 2/C
;
_chemical_formula_sum "Si O2"
_cell_formula_units_Z 44
_cell_length_a 11.497514
_cell_length_b 17.591579
_cell_length_c 13.977601
_cell_angle_alpha 90.000000
_cell_angle_beta 41.402810
_cell_angle_gamma 90.000000
_cell_volume 1869.699803
_symmetry_space_group_name_H-M "C 2/C"
_symmetry_group_IT_number 15
_symmetry_cell_setting 'monoclinic'
loop_
_space_group_symop_operation_xyz
x,y,z
-x,y,1/2-z
-x,-y,-z
x,-y,1/2+z
1/2+x,1/2+y,z
1/2-x,1/2+y,1/2-z
1/2-x,1/2-y,-z
1/2+x,1/2-y,1/2+z
loop_
_atom_site_type_symbol
_atom_site_label
_atom_site_fract_x
_atom_site_fract_y
_atom_site_fract_z
Si Si1 0.124362 0.782872 0.801912
Si Si2 0.000000 0.513305 0.750000
Si Si3 0.773461 0.144440 0.598328
Si Si4 0.625110 0.924431 0.864497
Si Si5 0.749960 0.574033 0.683792
Si Si6 0.193021 0.215991 0.630954
O O1 0.160616 0.719217 0.698427
O O2 0.278750 0.844843 0.699979
O O3 0.172212 0.739563 0.870470
O O4 0.936933 0.825039 0.934085
O O5 0.842184 0.573964 0.871141
O O6 0.944520 0.459656 0.694372
O O7 0.824996 0.109766 0.671770
O O8 0.773711 0.984739 0.805283
O O9 0.463462 0.920450 0.038893
O O10 0.685288 0.625160 0.637576
O O11 0.250000 0.250000 0.500000
O O12 0.000000 0.248417 0.750000
#
# Coordination Sequence:
#
# PCOD9283720 Si02
#       6
#     8   4   8   8   8   8
#     4  11  22  39  66  89 124 170 205 256 319 381
#     4  10  24  40  64  96 128 162 212 272 300 384
#     4  10  22  43  64  92 127 166 216 256 319 377
#     4  10  21  40  64  87 126 170 205 254 326 369
#     4   9  20  39  57  85 128 168 197 257 319 377
#     4  11  21  34  57  90 119 151 205 257 297 365
#
# _framework density 23.533190000000001
#
# number of rings (size 3 to 8) (size 9 to 14) (size 15 to 20)
#    0.000    1.818    0.000    5.455    3.818    3.636 
#    3.273    0.000    0.000    0.000    0.000    0.000 
#    0.000    0.000    0.000    0.000    0.000    0.000 
#
# Total GULP energy -122619.769503 kJ/mol
# GULP energy per Si atom -5573.625886 kJ/mol
# Density = 2.347963 g / cm^3
# Si number density = 23.533190 Si / 1000 Ang^3
#
#
#
# Elastic Constant Matrix: (Units=GPa)
#
#
# Indices 1 2 3 4 5 6 
#
# 1 55.0965 15.6491 -7.2563 -0.0017 -4.3084 -0.0005
# 2 15.6491 105.8599 -6.6707 -0.0025 3.3770 -0.0004
# 3 -7.2563 -6.6707 82.3768 -0.0061 -8.8047 0.0014
# 4 -0.0017 -0.0025 -0.0061 55.9618 0.0015 13.8558
# 5 -4.3084 3.3770 -8.8047 0.0015 23.1068 -0.0005
# 6 -0.0005 -0.0004 0.0014 13.8558 -0.0005 64.2362
#
#
#
# Elastic Compliance Matrix: (Units=1/GPa)
#
#
# Indices 1 2 3 4 5 6 
#
# 1 0.019626 -0.002929 0.002010 0.000001 0.004854 0.000000
# 2 -0.002929 0.009961 0.000349 0.000000 -0.001869 0.000000
# 3 0.002010 0.000349 0.012905 0.000001 0.005241 -0.000001
# 4 0.000001 0.000000 0.000001 0.018878 -0.000001 -0.004072
# 5 0.004854 -0.001869 0.005241 -0.000001 0.046453 0.000000
# 6 0.000000 0.000000 -0.000001 -0.004072 0.000000 0.016446
#
#
# Mechanical properties :
#
#
# Convention : Reuss Voigt Hill
#
# Bulk Modulus (GPa) = 24.18281 27.41971 25.80126
# Shear Modulus (GPa) = 35.92140 44.76835 40.34488
#
# Velocity S-wave (km/s) = 3.91117 4.36633 4.14500
# Velocity P-wave (km/s) = 5.54028 6.09069 5.82200
#
# Compressibility (1/GPa) = 0.04135169
#
# Stress axis : x y z
#
# Youngs Moduli (GPa) = 50.95194 100.39038 77.49020
#
# Poissons Ratio (x) = 0.29409 -0.15578
# Poissons Ratio (y) = 0.14926 -0.02703
# Poissons Ratio (z) = -0.10243 -0.03502
#
# Static dielectric constant tensor:
#      x y z
#    x 1.892830 0.000000 0.018240 
#    y 0.000000 1.940110 0.000000 
#    z 0.018240 0.000000 1.841610 
# 
# From -- ./inp_files/206220.got.cif
#   From: 2010.05.17/outbox.cif.g08.bks.cpg/sg15_104_cif.got.tgz:206220.got - 2010.06.03 18:47:42.
