data_PCOD9283726
_publ_section_title
;
Structure prediction by ZEFSAII (Michael W. Deem and Ramdas Pophale) SiO2 
 PCOD9283726
Probable space group: C 2/C
;
_chemical_formula_sum "Si O2"
_cell_formula_units_Z 64
_cell_length_a 30.663602
_cell_length_b 20.595692
_cell_length_c 8.956407
_cell_angle_alpha 90.000000
_cell_angle_beta 145.229806
_cell_angle_gamma 90.000000
_cell_volume 3225.717505
_symmetry_space_group_name_H-M "C 2/C"
_symmetry_group_IT_number 15
_symmetry_cell_setting 'monoclinic'
loop_
_space_group_symop_operation_xyz
x,y,z
-x,y,1/2-z
-x,-y,-z
x,-y,1/2+z
1/2+x,1/2+y,z
1/2-x,1/2+y,1/2-z
1/2-x,1/2-y,-z
1/2+x,1/2-y,1/2+z
loop_
_atom_site_type_symbol
_atom_site_label
_atom_site_fract_x
_atom_site_fract_y
_atom_site_fract_z
Si Si1 0.452681 0.587720 0.747933
Si Si2 0.410622 0.940064 0.808404
Si Si3 0.163353 0.189826 0.943966
Si Si4 0.344866 0.822224 0.454056
Si Si5 0.933394 0.055807 0.177853
Si Si6 0.906509 0.429702 0.137334
Si Si7 0.168894 0.303422 0.439218
Si Si8 0.820426 0.825457 0.361139
O O1 0.500000 0.622820 0.750000
O O2 0.392579 0.631868 0.665417
O O3 0.412955 0.519367 0.589032
O O4 0.523143 0.563398 0.045124
O O5 0.392899 0.884331 0.638424
O O6 0.379276 0.007417 0.653200
O O7 0.379661 0.930221 0.889385
O O8 0.501936 0.938004 0.091427
O O9 0.182382 0.192108 0.822074
O O10 0.123999 0.257244 0.880369
O O11 0.243083 0.186629 0.259573
O O12 0.336760 0.807670 0.255713
O O13 0.262139 0.833925 0.296568
O O14 0.000000 0.075231 0.250000
O O15 0.865893 0.107217 0.990884
O O16 0.879917 0.362546 0.133165
O O17 0.144322 0.234497 0.443833
#
# Coordination Sequence:
#
# PCOD9283726 Si02
#       8
#     8   8   8   8   8   8   8   8
#     4  10  23  38  64  88 126 157 200 251 302 363
#     4  10  21  40  64  89 121 155 198 245 303 357
#     4  11  22  41  61  87 120 163 202 251 307 356
#     4  11  24  40  60  90 121 158 203 252 302 363
#     4  10  21  42  60  92 120 159 200 249 305 357
#     4  10  21  40  64  89 120 157 194 249 299 360
#     4  11  24  40  60  89 123 157 204 251 303 363
#     4  11  22  40  64  84 122 161 203 254 303 360
#
# _framework density 19.840547000000001
#
# number of rings (size 3 to 8) (size 9 to 14) (size 15 to 20)
#    0.000    1.500    1.250    5.250    3.500    3.500 
#    2.250    2.500    0.000    0.000    0.000    0.000 
#    0.000    0.000    0.000    0.000    0.000    0.000 
#
# Total GULP energy -178457.479884 kJ/mol
# GULP energy per Si atom -5576.796246 kJ/mol
# Density = 1.979539 g / cm^3
# Si number density = 19.840547 Si / 1000 Ang^3
#
#
#
# Elastic Constant Matrix: (Units=GPa)
#
#
# Indices 1 2 3 4 5 6 
#
# 1 116.1240 32.3465 15.9365 0.0000 -30.2739 0.0000
# 2 32.3465 107.6993 17.3761 0.0000 0.7108 0.0000
# 3 15.9365 17.3761 38.9819 0.0000 -26.0581 0.0000
# 4 0.0000 0.0000 0.0000 26.2890 0.0000 -1.1038
# 5 -30.2739 0.7108 -26.0581 0.0000 33.9769 0.0000
# 6 0.0000 0.0000 0.0000 -1.1038 0.0000 36.2567
#
#
#
# Elastic Compliance Matrix: (Units=1/GPa)
#
#
# Indices 1 2 3 4 5 6 
#
# 1 0.014521 -0.006374 0.011579 0.000000 0.021952 0.000000
# 2 -0.006374 0.013814 -0.015475 0.000000 -0.017837 0.000000
# 3 0.011579 -0.015475 0.071677 0.000000 0.065613 0.000000
# 4 0.000000 0.000000 0.000000 0.038087 0.000000 0.001160
# 5 0.021952 -0.017837 0.065613 0.000000 0.099686 0.000000
# 6 0.000000 0.000000 0.000000 0.001160 0.000000 0.027616
#
#
# Mechanical properties :
#
#
# Convention : Reuss Voigt Hill
#
# Bulk Modulus (GPa) = 12.58301 43.79148 28.18725
# Shear Modulus (GPa) = 16.00341 32.44758 24.22550
#
# Velocity S-wave (km/s) = 2.84315 4.04842 3.49809
# Velocity P-wave (km/s) = 4.13931 6.63118 5.52750
#
# Compressibility (1/GPa) = 0.07947222
#
# Stress axis : x y z
#
# Youngs Moduli (GPa) = 68.86569 72.39001 13.95140
#
# Poissons Ratio (x) = 0.46144 -0.16155
# Poissons Ratio (y) = 0.43897 0.21590
# Poissons Ratio (z) = -0.79742 1.12025
#
# Static dielectric constant tensor:
#      x y z
#    x 1.533280 0.000000 0.132040 
#    y 0.000000 1.751350 0.000000 
#    z 0.132040 0.000000 1.579810 
# 
# From -- ./inp_files/70643.got.cif
#   From: 2010.05.17/outbox.cif.g08.bks.cpg/sg15_36_cif.got.tgz:70643.got - 2010.06.03 18:47:42.
