data_PCOD9283328
_publ_section_title
;
Structure prediction by ZEFSAII (Michael W. Deem and Ramdas Pophale) SiO2 
 PCOD9283328
Probable space group: C 2/C
;
_chemical_formula_sum "Si O2"
_cell_formula_units_Z 48
_cell_length_a 5.176243
_cell_length_b 21.150662
_cell_length_c 18.414946
_cell_angle_alpha 90.000000
_cell_angle_beta 76.060130
_cell_angle_gamma 90.000000
_cell_volume 1956.710491
_symmetry_space_group_name_H-M "C 2/C"
_symmetry_group_IT_number 15
_symmetry_cell_setting 'monoclinic'
loop_
_space_group_symop_operation_xyz
x,y,z
-x,y,1/2-z
-x,-y,-z
x,-y,1/2+z
1/2+x,1/2+y,z
1/2-x,1/2+y,1/2-z
1/2-x,1/2-y,-z
1/2+x,1/2-y,1/2+z
loop_
_atom_site_type_symbol
_atom_site_label
_atom_site_fract_x
_atom_site_fract_y
_atom_site_fract_z
Si Si1 0.500000 0.008558 0.750000
Si Si2 0.355684 0.479258 0.582758
Si Si3 0.986591 0.325975 0.468571
Si Si4 0.045394 0.760356 0.401802
Si Si5 0.500000 0.775742 0.750000
Si Si6 0.171966 0.454208 0.387126
Si Si7 0.853813 0.110815 0.183284
O O1 0.369526 0.050980 0.697184
O O2 0.314979 0.955011 0.801254
O O3 0.500000 0.500000 0.500000
O O4 0.521602 0.529215 0.622359
O O5 0.461745 0.408373 0.597714
O O6 0.043341 0.489964 0.584280
O O7 0.737270 0.305206 0.435977
O O8 0.935188 0.306588 0.556113
O O9 0.242300 0.283763 0.427663
O O10 0.074924 0.395776 0.440912
O O11 0.123515 0.759027 0.311183
O O12 0.298877 0.824081 0.803650
O O13 0.000000 0.109273 0.250000
#
# Coordination Sequence:
#
# PCOD9283328 Si02
#       7
#     4   8   8   8   4   8   8
#     4   9  20  38  56  90 126 158 204 257 306 374
#     4  11  24  39  62  97 131 164 213 256 306 400
#     4  10  23  45  66  89 127 169 212 273 325 376
#     4  10  24  44  63  93 129 162 219 275 317 381
#     4  11  26  38  68  98 126 178 218 267 332 382
#     4  11  22  39  66  89 123 171 210 256 325 377
#     4  10  21  40  59  90 134 168 201 261 319 374
#
# _framework density 24.530964999999998
#
# number of rings (size 3 to 8) (size 9 to 14) (size 15 to 20)
#    0.000    1.667    1.667    1.500    4.667    2.667 
#    0.000    0.000    0.000    0.000    0.000    0.000 
#    0.000    0.000    0.000    0.000    0.000    0.000 
#
# Total GULP energy -133690.576731 kJ/mol
# GULP energy per Si atom -5570.440697 kJ/mol
# Density = 2.447513 g / cm^3
# Si number density = 24.530965 Si / 1000 Ang^3
#
#
#
# Elastic Constant Matrix: (Units=GPa)
#
#
# Indices 1 2 3 4 5 6 
#
# 1 44.1154 4.7771 -5.0959 0.0000 10.9629 0.0000
# 2 4.7771 42.3585 7.9241 0.0000 9.0546 0.0000
# 3 -5.0959 7.9241 113.7566 0.0000 36.5110 0.0000
# 4 0.0000 0.0000 0.0000 22.0411 0.0000 -4.4977
# 5 10.9629 9.0546 36.5110 0.0000 34.4819 0.0000
# 6 0.0000 0.0000 0.0000 -4.4977 0.0000 29.8203
#
#
#
# Elastic Compliance Matrix: (Units=1/GPa)
#
#
# Indices 1 2 3 4 5 6 
#
# 1 0.027133 -0.001038 0.006012 0.000000 -0.014720 0.000000
# 2 -0.001038 0.025075 0.000324 0.000000 -0.006598 0.000000
# 3 0.006012 0.000324 0.014661 0.000000 -0.017520 0.000000
# 4 0.000000 0.000000 0.000000 0.046811 0.000000 0.007060
# 5 -0.014720 -0.006598 -0.017520 0.000000 0.053964 0.000000
# 6 0.000000 0.000000 0.000000 0.007060 0.000000 0.034599
#
#
# Mechanical properties :
#
#
# Convention : Reuss Voigt Hill
#
# Bulk Modulus (GPa) = 12.90909 23.93791 18.42350
# Shear Modulus (GPa) = 22.99206 30.11033 26.55119
#
# Velocity S-wave (km/s) = 3.06480 3.50729 3.29348
# Velocity P-wave (km/s) = 4.21874 5.11672 4.68928
#
# Compressibility (1/GPa) = 0.07746478
#
# Stress axis : x y z
#
# Youngs Moduli (GPa) = 36.85603 39.88070 68.21012
#
# Poissons Ratio (x) = 0.04140 -0.41009
# Poissons Ratio (y) = 0.03826 -0.02213
# Poissons Ratio (z) = -0.22158 -0.01294
#
# Static dielectric constant tensor:
#      x y z
#    x 1.917510 0.000000 0.155850 
#    y 0.000000 2.930570 0.000000 
#    z 0.155850 0.000000 0.864570 
# 
# From -- ./inp_files/185326.got.cif
#   From: 2010.05.17/outbox.cif.g08.bks.cpg/sg15_93_cif.got.tgz:185326.got - 2010.06.03 18:47:42.
