data_PCOD9283259
_publ_section_title
;
Structure prediction by ZEFSAII (Michael W. Deem and Ramdas Pophale) SiO2 
 PCOD9283259
Probable space group: C 2/C
;
_chemical_formula_sum "Si O2"
_cell_formula_units_Z 60
_cell_length_a 12.883520
_cell_length_b 8.294478
_cell_length_c 25.211565
_cell_angle_alpha 90.000000
_cell_angle_beta 79.580181
_cell_angle_gamma 90.000000
_cell_volume 2649.730627
_symmetry_space_group_name_H-M "C 2/C"
_symmetry_group_IT_number 15
_symmetry_cell_setting 'monoclinic'
loop_
_space_group_symop_operation_xyz
x,y,z
-x,y,1/2-z
-x,-y,-z
x,-y,1/2+z
1/2+x,1/2+y,z
1/2-x,1/2+y,1/2-z
1/2-x,1/2-y,-z
1/2+x,1/2-y,1/2+z
loop_
_atom_site_type_symbol
_atom_site_label
_atom_site_fract_x
_atom_site_fract_y
_atom_site_fract_z
Si Si1 0.984664 0.760554 0.863116
Si Si2 0.000000 0.795323 0.750000
Si Si3 0.815932 0.452656 0.135997
Si Si4 0.800793 0.772648 0.438543
Si Si5 0.088913 0.217459 0.844392
Si Si6 0.381881 0.918934 0.840179
Si Si7 0.218179 0.410120 0.242062
Si Si8 0.009818 0.022909 0.561364
O O1 0.097624 0.689671 0.869566
O O2 0.984214 0.870851 0.809591
O O3 0.924893 0.596970 0.851219
O O4 0.942718 0.862252 0.916146
O O5 0.890901 0.695471 0.749299
O O6 0.747820 0.417376 0.091045
O O7 0.869551 0.625591 0.128352
O O8 0.759859 0.449723 0.198692
O O9 0.750000 0.750000 0.500000
O O10 0.806244 0.630456 0.395499
O O11 0.919416 0.819641 0.439640
O O12 0.179309 0.166349 0.794527
O O13 0.979424 0.290019 0.828653
O O14 0.079924 0.072989 0.888106
O O15 0.318146 0.938690 0.791318
O O16 0.000000 0.000000 0.500000
#
# Coordination Sequence:
#
# PCOD9283259 Si02
#       8
#     8   4   8   8   8   8   8   8
#     4   9  19  41  63  90 128 172 212 279 340 406
#     4   8  18  36  62  96 128 166 206 266 334 412
#     4  10  23  41  64 100 133 174 232 275 353 430
#     4  11  25  43  64  95 133 178 232 289 346 418
#     4  10  24  42  65 102 134 183 229 284 356 429
#     4   9  22  43  65  96 134 178 225 278 356 408
#     4  10  21  39  71  97 141 176 225 278 355 422
#     4  11  25  44  64  93 130 176 237 290 347 419
#
# _framework density 22.643810999999999
#
# number of rings (size 3 to 8) (size 9 to 14) (size 15 to 20)
#    0.000    2.133    0.000    1.600    9.333    2.133 
#    2.400    5.333    0.000    0.000    0.000    0.000 
#    0.000    0.000    0.000    0.000    0.000    0.000 
#
# Total GULP energy -167256.646928 kJ/mol
# GULP energy per Si atom -5575.221564 kJ/mol
# Density = 2.259227 g / cm^3
# Si number density = 22.643811 Si / 1000 Ang^3
#
#
#
# Elastic Constant Matrix: (Units=GPa)
#
#
# Indices 1 2 3 4 5 6 
#
# 1 56.7806 22.9898 35.9613 0.0000 -7.5381 0.0000
# 2 22.9898 63.3040 23.7097 0.0000 0.3397 0.0000
# 3 35.9613 23.7097 114.4957 0.0000 9.1045 0.0000
# 4 0.0000 0.0000 0.0000 33.4929 0.0000 1.6698
# 5 -7.5381 0.3397 9.1045 0.0000 32.2736 0.0000
# 6 0.0000 0.0000 0.0000 1.6698 0.0000 23.8147
#
#
#
# Elastic Compliance Matrix: (Units=1/GPa)
#
#
# Indices 1 2 3 4 5 6 
#
# 1 0.026189 -0.006751 -0.007488 0.000000 0.008300 0.000000
# 2 -0.006751 0.018888 -0.001687 0.000000 -0.001300 0.000000
# 3 -0.007488 -0.001687 0.011838 0.000000 -0.005071 0.000000
# 4 0.000000 0.000000 0.000000 0.029962 0.000000 -0.002101
# 5 0.008300 -0.001300 -0.005071 0.000000 0.034368 0.000000
# 6 0.000000 0.000000 0.000000 -0.002101 0.000000 0.042138
#
#
# Mechanical properties :
#
#
# Convention : Reuss Voigt Hill
#
# Bulk Modulus (GPa) = 39.89995 44.43354 42.16674
# Shear Modulus (GPa) = 24.55919 28.04420 26.30170
#
# Velocity S-wave (km/s) = 3.29688 3.52304 3.41183
# Velocity P-wave (km/s) = 5.67023 6.01785 5.84662
#
# Compressibility (1/GPa) = 0.02506269
#
# Stress axis : x y z
#
# Youngs Moduli (GPa) = 38.18364 52.94493 84.47128
#
# Poissons Ratio (x) = 0.35744 0.63249
# Poissons Ratio (y) = 0.25778 0.14254
# Poissons Ratio (z) = 0.28590 0.08934
#
# Static dielectric constant tensor:
#      x y z
#    x 1.974690 0.000000 -0.031940 
#    y 0.000000 1.907240 0.000000 
#    z -0.031940 0.000000 1.955680 
# 
# From -- ./inp_files/272740.got.cif
#   From: 2010.05.17/outbox.cif.g08.bks.cpg/sg15_137_cif.got.tgz:272740.got - 2010.06.03 18:47:42.
