data_PCOD9283260
_publ_section_title
;
Structure prediction by ZEFSAII (Michael W. Deem and Ramdas Pophale) SiO2 
 PCOD9283260
Probable space group: C 2/C
;
_chemical_formula_sum "Si O2"
_cell_formula_units_Z 64
_cell_length_a 17.065566
_cell_length_b 9.000783
_cell_length_c 28.259871
_cell_angle_alpha 90.000000
_cell_angle_beta 42.576018
_cell_angle_gamma 90.000000
_cell_volume 2936.854910
_symmetry_space_group_name_H-M "C 2/C"
_symmetry_group_IT_number 15
_symmetry_cell_setting 'monoclinic'
loop_
_space_group_symop_operation_xyz
x,y,z
-x,y,1/2-z
-x,-y,-z
x,-y,1/2+z
1/2+x,1/2+y,z
1/2-x,1/2+y,1/2-z
1/2-x,1/2-y,-z
1/2+x,1/2-y,1/2+z
loop_
_atom_site_type_symbol
_atom_site_label
_atom_site_fract_x
_atom_site_fract_y
_atom_site_fract_z
Si Si1 0.692327 0.481166 0.277355
Si Si2 0.630334 0.681573 0.946424
Si Si3 0.868128 0.680492 0.150872
Si Si4 0.028059 0.977307 0.685929
Si Si5 0.841492 0.714162 0.918640
Si Si6 0.891055 0.860354 0.594139
Si Si7 0.616414 0.095675 0.066041
Si Si8 0.740742 0.693335 0.583813
O O1 0.804144 0.537459 0.199751
O O2 0.701958 0.324966 0.300093
O O3 0.588180 0.464488 0.286483
O O4 0.656299 0.605118 0.332635
O O5 0.624200 0.808017 0.909102
O O6 0.756944 0.682046 0.912220
O O7 0.611846 0.523318 0.929095
O O8 0.524031 0.694792 0.030683
O O9 0.998967 0.687351 0.111819
O O10 0.079210 0.851654 0.629296
O O11 0.000000 0.914022 0.750000
O O12 0.126458 0.102272 0.648024
O O13 0.909404 0.568186 0.904096
O O14 0.750000 0.750000 0.000000
O O15 0.811164 0.754503 0.597266
O O16 0.699777 0.171904 0.067741
O O17 0.680228 0.095411 0.986847
#
# Coordination Sequence:
#
# PCOD9283260 Si02
#       8
#     8   8   8   8   8   8   8   8
#     4  11  26  44  67  99 137 185 224 285 350 420
#     4  10  21  41  66  98 131 172 223 278 342 405
#     4  11  24  46  67  98 137 181 232 284 347 414
#     4  12  27  46  67  99 148 181 220 289 357 410
#     4  12  24  43  66 101 135 179 226 280 345 418
#     4  10  21  39  71  98 131 171 227 280 338 405
#     4  11  23  42  71 101 136 174 237 284 341 413
#     4  11  22  42  71 105 131 176 230 292 339 410
#
# _framework density 21.792020000000001
#
# number of rings (size 3 to 8) (size 9 to 14) (size 15 to 20)
#    0.000    1.000    5.000    1.500    3.500    0.000 
#    0.000    1.875    0.000    0.000    0.000    0.000 
#    0.000    0.000    0.000    0.000    0.000    0.000 
#
# Total GULP energy -178972.371384 kJ/mol
# GULP energy per Si atom -5592.886606 kJ/mol
# Density = 2.174242 g / cm^3
# Si number density = 21.792020 Si / 1000 Ang^3
#
#
#
# Elastic Constant Matrix: (Units=GPa)
#
#
# Indices 1 2 3 4 5 6 
#
# 1 67.3363 -4.2675 11.4046 0.0000 -0.1693 0.0000
# 2 -4.2675 22.6807 -11.3956 0.0000 7.9854 0.0000
# 3 11.4046 -11.3956 43.3448 0.0000 1.3766 0.0000
# 4 0.0000 0.0000 0.0000 31.3533 0.0000 -1.7397
# 5 -0.1693 7.9854 1.3766 0.0000 29.9410 0.0000
# 6 0.0000 0.0000 0.0000 -1.7397 0.0000 34.9719
#
#
#
# Elastic Compliance Matrix: (Units=1/GPa)
#
#
# Indices 1 2 3 4 5 6 
#
# 1 0.015563 0.001005 -0.003831 0.000000 -0.000004 0.000000
# 2 0.001005 0.057688 0.015413 0.000000 -0.016089 0.000000
# 3 -0.003831 0.015413 0.028303 0.000000 -0.005434 0.000000
# 4 0.000000 0.000000 0.000000 0.031983 0.000000 0.001591
# 5 -0.000004 -0.016089 -0.005434 0.000000 0.037940 0.000000
# 6 0.000000 0.000000 0.000000 0.001591 0.000000 0.028673
#
#
# Mechanical properties :
#
#
# Convention : Reuss Voigt Hill
#
# Bulk Modulus (GPa) = 7.89080 13.87164 10.88122
# Shear Modulus (GPa) = 23.01826 28.42794 25.72310
#
# Velocity S-wave (km/s) = 3.25356 3.61572 3.43941
# Velocity P-wave (km/s) = 4.21224 4.87960 4.55815
#
# Compressibility (1/GPa) = 0.12672981
#
# Stress axis : x y z
#
# Youngs Moduli (GPa) = 64.25375 17.33463 35.33142
#
# Poissons Ratio (x) = -0.01742 0.13534
# Poissons Ratio (y) = -0.06458 -0.54456
# Poissons Ratio (z) = 0.24613 -0.26718
#
# Static dielectric constant tensor:
#      x y z
#    x 1.829990 0.000000 0.019340 
#    y 0.000000 1.798370 0.000000 
#    z 0.019340 0.000000 1.776750 
# 
# From -- ./inp_files/315696.got.cif
#   From: 2010.05.17/outbox.cif.g08.bks.cpg/sg15_158_cif.got.tgz:315696.got - 2010.06.03 18:47:42.
