data_PCOD9283569
_publ_section_title
;
Structure prediction by ZEFSAII (Michael W. Deem and Ramdas Pophale) SiO2 
 PCOD9283569
Probable space group: C 2/C
;
_chemical_formula_sum "Si O2"
_cell_formula_units_Z 48
_cell_length_a 17.533235
_cell_length_b 5.062213
_cell_length_c 23.998286
_cell_angle_alpha 90.000000
_cell_angle_beta 111.701818
_cell_angle_gamma 90.000000
_cell_volume 1979.041467
_symmetry_space_group_name_H-M "C 2/C"
_symmetry_group_IT_number 15
_symmetry_cell_setting 'monoclinic'
loop_
_space_group_symop_operation_xyz
x,y,z
-x,y,1/2-z
-x,-y,-z
x,-y,1/2+z
1/2+x,1/2+y,z
1/2-x,1/2+y,1/2-z
1/2-x,1/2-y,-z
1/2+x,1/2-y,1/2+z
loop_
_atom_site_type_symbol
_atom_site_label
_atom_site_fract_x
_atom_site_fract_y
_atom_site_fract_z
Si Si1 0.733836 0.786392 0.561044
Si Si2 0.793656 0.095760 0.777156
Si Si3 0.008667 0.494773 0.067739
Si Si4 0.086530 0.669258 0.860522
Si Si5 0.670562 0.315876 0.600229
Si Si6 0.516867 0.676036 0.672775
O O1 0.750000 0.750000 0.500000
O O2 0.816770 0.697584 0.615988
O O3 0.664304 0.575299 0.559940
O O4 0.713514 0.083009 0.575881
O O5 0.752120 0.381790 0.774094
O O6 0.888236 0.145901 0.785321
O O7 0.789079 0.931256 0.833290
O O8 0.087949 0.318017 0.100038
O O9 0.019645 0.762351 0.106426
O O10 0.931589 0.367191 0.078076
O O11 0.000000 0.500000 0.000000
O O12 0.038196 0.421894 0.821360
O O13 0.036649 0.923272 0.828426
#
# Coordination Sequence:
#
# PCOD9283569 Si02
#       6
#     8   8   8   8   8   8
#     4  12  26  42  66  97 152 192 219 262 345 417
#     4  12  23  43  74 102 132 171 230 314 357 375
#     4  10  22  37  65  95 136 171 224 276 328 400
#     4  10  22  39  62  89 140 181 212 267 340 394
#     4  12  25  43  66 107 136 172 245 279 327 424
#     4  10  21  40  62  97 127 171 228 268 345 402
#
# _framework density 24.254166000000001
#
# number of rings (size 3 to 8) (size 9 to 14) (size 15 to 20)
#    1.000    0.000    1.667    6.500    2.333    0.667 
#    0.000    0.000    0.000   15.000    0.000    0.000 
#    0.000    0.000    0.000    0.000    0.000    0.000 
#
# Total GULP energy -134072.598256 kJ/mol
# GULP energy per Si atom -5586.358261 kJ/mol
# Density = 2.419896 g / cm^3
# Si number density = 24.254166 Si / 1000 Ang^3
#
#
#
# Elastic Constant Matrix: (Units=GPa)
#
#
# Indices 1 2 3 4 5 6 
#
# 1 96.7180 24.8686 4.3208 -0.0002 20.5233 0.0000
# 2 24.8686 170.4016 6.4712 -0.0004 17.6465 0.0011
# 3 4.3208 6.4712 52.8637 -0.0002 -8.7015 0.0007
# 4 -0.0002 -0.0004 -0.0002 28.4165 0.0001 10.6358
# 5 20.5233 17.6465 -8.7015 0.0001 38.0653 -0.0002
# 6 0.0000 0.0011 0.0007 10.6358 -0.0002 1.5723
#
#
#
# Elastic Compliance Matrix: (Units=1/GPa)
#
#
# Indices 1 2 3 4 5 6 
#
# 1 0.012060 -0.001017 -0.001926 0.000000 -0.006471 0.000000
# 2 -0.001017 0.006334 -0.001128 -0.000001 -0.002646 0.000003
# 3 -0.001926 -0.001128 0.020230 -0.000002 0.006186 0.000005
# 4 0.000000 -0.000001 -0.000002 -0.022974 0.000001 0.155404
# 5 -0.006471 -0.002646 0.006186 0.000001 0.032400 -0.000002
# 6 0.000000 0.000003 0.000005 0.155404 -0.000002 -0.415205
#
#
# Mechanical properties :
#
#
# Convention : Reuss Voigt Hill
#
# Bulk Modulus (GPa) = 32.80603 43.47827 38.14215
# Shear Modulus (GPa) = -14.33271 32.56567 9.11648
#
# Velocity S-wave (km/s) = -2.43356 3.66824 1.94085
# Velocity P-wave (km/s) = 2.37887 5.99219 4.55880
#
# Compressibility (1/GPa) = 0.03048220
#
# Stress axis : x y z
#
# Youngs Moduli (GPa) = 82.91862 157.88567 49.43075
#
# Poissons Ratio (x) = 0.16053 0.09523
# Poissons Ratio (y) = 0.08431 0.05574
# Poissons Ratio (z) = 0.15974 0.17805
#
# Static dielectric constant tensor:
#      x y z
#    x 2.004600 0.000000 0.210830 
#    y 0.000000 1.952880 0.000010 
#    z 0.210830 0.000010 2.656660 
# 
# From -- ./inp_files/275696.got.cif
#   From: 2010.05.17/outbox.cif.g08.bks.cpg/sg15_138_cif.got.tgz:275696.got - 2010.06.03 18:47:42.
