data_PCOD9283302
_publ_section_title
;
Structure prediction by ZEFSAII (Michael W. Deem and Ramdas Pophale) SiO2 
 PCOD9283302
Probable space group: C 2/C
;
_chemical_formula_sum "Si O2"
_cell_formula_units_Z 44
_cell_length_a 11.586777
_cell_length_b 29.064245
_cell_length_c 5.323883
_cell_angle_alpha 90.000000
_cell_angle_beta 102.807871
_cell_angle_gamma 90.000000
_cell_volume 1748.267063
_symmetry_space_group_name_H-M "C 2/C"
_symmetry_group_IT_number 15
_symmetry_cell_setting 'monoclinic'
loop_
_space_group_symop_operation_xyz
x,y,z
-x,y,1/2-z
-x,-y,-z
x,-y,1/2+z
1/2+x,1/2+y,z
1/2-x,1/2+y,1/2-z
1/2-x,1/2-y,-z
1/2+x,1/2-y,1/2+z
loop_
_atom_site_type_symbol
_atom_site_label
_atom_site_fract_x
_atom_site_fract_y
_atom_site_fract_z
Si Si1 0.740288 0.972177 0.519618
Si Si2 0.649367 0.861657 0.945396
Si Si3 0.000000 0.421438 0.250000
Si Si4 0.876422 0.268089 0.331429
Si Si5 0.384429 0.391954 0.360005
Si Si6 0.789420 0.821069 0.634830
O O1 0.609627 0.951472 0.404054
O O2 0.842945 0.936395 0.494674
O O3 0.750522 0.987611 0.813657
O O4 0.551502 0.891397 0.041942
O O5 0.611690 0.808176 0.960110
O O6 0.771141 0.877869 0.136351
O O7 0.695772 0.859452 0.683261
O O8 0.834411 0.215938 0.362905
O O9 0.000000 0.263580 0.250000
O O10 0.780841 0.291452 0.102200
O O11 0.500000 0.399013 0.250000
O O12 0.392920 0.348546 0.549574
#
# Coordination Sequence:
#
# PCOD9283302 Si02
#       6
#     8   8   4   8   8   8
#     4  11  26  49  73 108 140 179 232 294 364 434
#     4  10  21  42  63  97 135 181 227 282 342 413
#     4  10  22  44  70 104 140 174 230 286 360 426
#     4  10  21  40  58  98 132 183 233 281 340 398
#     4  10  25  44  66 100 131 176 231 281 353 417
#     4  10  23  41  64  92 138 179 235 282 338 417
#
# _framework density 25.167783
#
# number of rings (size 3 to 8) (size 9 to 14) (size 15 to 20)
#    0.000    1.818    0.909    1.091    7.636    1.455 
#    6.545    0.000    0.000    0.000    0.000    0.000 
#    0.000    0.000    0.000    0.000    0.000    0.000 
#
# Total GULP energy -122976.830120 kJ/mol
# GULP energy per Si atom -5589.855915 kJ/mol
# Density = 2.511050 g / cm^3
# Si number density = 25.167783 Si / 1000 Ang^3
#
#
#
# Elastic Constant Matrix: (Units=GPa)
#
#
# Indices 1 2 3 4 5 6 
#
# 1 150.9353 43.3661 16.5952 0.0000 -33.2559 0.0000
# 2 43.3661 85.2328 10.2838 0.0000 -18.6429 0.0000
# 3 16.5952 10.2838 55.4973 0.0000 -18.1364 0.0000
# 4 0.0000 0.0000 0.0000 35.4377 0.0000 -16.4516
# 5 -33.2559 -18.6429 -18.1364 0.0000 43.2104 0.0000
# 6 0.0000 0.0000 0.0000 -16.4516 0.0000 35.2528
#
#
#
# Elastic Compliance Matrix: (Units=1/GPa)
#
#
# Indices 1 2 3 4 5 6 
#
# 1 0.008744 -0.003277 -0.000313 0.000000 0.005184 0.000000
# 2 -0.003277 0.014205 -0.000549 0.000000 0.003376 0.000000
# 3 -0.000313 -0.000549 0.020929 0.000000 0.008306 0.000000
# 4 0.000000 0.000000 0.000000 0.036023 0.000000 0.016811
# 5 0.005184 0.003376 0.008306 0.000000 0.032075 0.000000
# 6 0.000000 0.000000 0.000000 0.016811 0.000000 0.036212
#
#
# Mechanical properties :
#
#
# Convention : Reuss Voigt Hill
#
# Bulk Modulus (GPa) = 28.09107 48.01730 38.05419
# Shear Modulus (GPa) = 29.70332 37.54152 33.62242
#
# Velocity S-wave (km/s) = 3.43915 3.86638 3.65900
# Velocity P-wave (km/s) = 5.19192 6.24917 5.74492
#
# Compressibility (1/GPa) = 0.03559850
#
# Stress axis : x y z
#
# Youngs Moduli (GPa) = 114.37057 70.39997 47.78109
#
# Poissons Ratio (x) = 0.23070 0.01497
# Poissons Ratio (y) = 0.37479 0.02623
# Poissons Ratio (z) = 0.03582 0.03865
#
# Static dielectric constant tensor:
#      x y z
#    x 1.978590 0.000000 0.011420 
#    y 0.000000 2.050160 0.000000 
#    z 0.011420 0.000000 2.110750 
# 
# From -- ./inp_files/5762.got.cif
#   From: 2010.05.17/outbox.cif.g08.bks.cpg/sg15_3_cif.got.tgz:5762.got - 2010.06.03 18:47:42.
