data_PCOD9283930
_publ_section_title
;
Structure prediction by ZEFSAII (Michael W. Deem and Ramdas Pophale) SiO2 
 PCOD9283930
Probable space group: C 2/C
;
_chemical_formula_sum "Si O2"
_cell_formula_units_Z 48
_cell_length_a 28.351595
_cell_length_b 8.477741
_cell_length_c 18.203488
_cell_angle_alpha 90.000000
_cell_angle_beta 30.310381
_cell_angle_gamma 90.000000
_cell_volume 2208.166568
_symmetry_space_group_name_H-M "C 2/C"
_symmetry_group_IT_number 15
_symmetry_cell_setting 'monoclinic'
loop_
_space_group_symop_operation_xyz
x,y,z
-x,y,1/2-z
-x,-y,-z
x,-y,1/2+z
1/2+x,1/2+y,z
1/2-x,1/2+y,1/2-z
1/2-x,1/2-y,-z
1/2+x,1/2-y,1/2+z
loop_
_atom_site_type_symbol
_atom_site_label
_atom_site_fract_x
_atom_site_fract_y
_atom_site_fract_z
Si Si1 0.546414 0.339439 0.399753
Si Si2 0.352245 0.199413 0.674311
Si Si3 0.399842 0.461854 0.414062
Si Si4 0.642258 0.213865 0.126079
Si Si5 0.688973 0.545050 0.810913
Si Si6 0.716855 0.910346 0.080636
O O1 0.500000 0.500000 0.500000
O O2 0.461908 0.217461 0.515179
O O3 0.583878 0.313538 0.266204
O O4 0.637616 0.326488 0.328690
O O5 0.309100 0.377128 0.732612
O O6 0.289826 0.103165 0.700759
O O7 0.338961 0.122991 0.770546
O O8 0.500000 0.518344 0.250000
O O9 0.391718 0.274838 0.407409
O O10 0.373976 0.511060 0.531344
O O11 0.315471 0.520658 0.476656
O O12 0.649843 0.025281 0.123982
O O13 0.750000 0.250000 0.000000
O O14 0.750000 0.750000 0.000000
#
# Coordination Sequence:
#
# PCOD9283930 Si02
#       6
#     8   8   8   8   8   8
#     4  10  22  41  69  96 127 185 222 281 341 408
#     4  10  23  40  63  93 134 169 228 272 342 398
#     4  10  21  40  65  94 125 172 226 273 333 411
#     4  10  23  41  68  92 129 173 229 269 338 416
#     4  10  23  38  65  96 127 174 219 279 332 399
#     4  10  24  40  62  96 131 180 213 282 346 405
#
# _framework density 21.737490000000001
#
# number of rings (size 3 to 8) (size 9 to 14) (size 15 to 20)
#    0.000    2.000    0.000    2.000   18.667    0.667 
#    0.000    0.833    0.000    0.000    0.000    0.000 
#    0.000    0.000    0.000    0.000    0.000    0.000 
#
# Total GULP energy -133683.964533 kJ/mol
# GULP energy per Si atom -5570.165189 kJ/mol
# Density = 2.168801 g / cm^3
# Si number density = 21.737490 Si / 1000 Ang^3
#
#
#
# Elastic Constant Matrix: (Units=GPa)
#
#
# Indices 1 2 3 4 5 6 
#
# 1 58.0956 16.7797 -18.7946 0.0000 14.9556 -0.0103
# 2 16.7797 57.5924 6.1076 -0.0005 3.8557 -0.0025
# 3 -18.7946 6.1076 77.8181 0.0023 3.7194 -0.0028
# 4 0.0000 -0.0005 0.0023 29.8112 -0.0015 -6.2021
# 5 14.9556 3.8557 3.7194 -0.0015 11.6129 -0.0020
# 6 -0.0103 -0.0025 -0.0028 -6.2021 -0.0020 -91.8551
#
#
#
# Elastic Compliance Matrix: (Units=1/GPa)
#
#
# Indices 1 2 3 4 5 6 
#
# 1 0.035198 -0.008368 0.011365 -0.000004 -0.046191 -0.000003
# 2 -0.008368 0.019846 -0.003837 0.000001 0.005416 0.000000
# 3 0.011365 -0.003837 0.016792 -0.000003 -0.018741 -0.000001
# 4 -0.000004 0.000001 -0.000003 0.033080 0.000010 -0.002234
# 5 -0.046191 0.005416 -0.018741 0.000010 0.149802 0.000002
# 6 -0.000003 0.000000 -0.000001 -0.002234 0.000002 -0.010736
#
#
# Mechanical properties :
#
#
# Convention : Reuss Voigt Hill
#
# Bulk Modulus (GPa) = 14.25396 22.41019 18.33208
# Shear Modulus (GPa) = 18.58413 2.54136 10.56275
#
# Velocity S-wave (km/s) = 2.92710 1.08243 2.20676
# Velocity P-wave (km/s) = 4.24210 3.44878 3.86584
#
# Compressibility (1/GPa) = 0.07015594
#
# Stress axis : x y z
#
# Youngs Moduli (GPa) = 28.41096 50.38864 59.55083
#
# Poissons Ratio (x) = 0.42164 -0.67682
# Poissons Ratio (y) = 0.23774 0.22853
# Poissons Ratio (z) = -0.32290 0.19337
#
# Static dielectric constant tensor:
#      x y z
#    x 1.820430 0.000000 0.009350 
#    y 0.000000 1.991180 0.000000 
#    z 0.009350 0.000000 1.820940 
# 
# From -- ./inp_files/224547.got.cif
#   From: 2010.05.17/outbox.cif.g08.bks.cpg/sg15_113_cif.got.tgz:224547.got - 2010.06.03 18:47:42.
