data_PCOD9283192
_publ_section_title
;
Structure prediction by ZEFSAII (Michael W. Deem and Ramdas Pophale) SiO2 
 PCOD9283192
Probable space group: C 2/C
;
_chemical_formula_sum "Si O2"
_cell_formula_units_Z 44
_cell_length_a 8.787026
_cell_length_b 22.998285
_cell_length_c 12.229752
_cell_angle_alpha 90.000000
_cell_angle_beta 122.503656
_cell_angle_gamma 90.000000
_cell_volume 2084.330336
_symmetry_space_group_name_H-M "C 2/C"
_symmetry_group_IT_number 15
_symmetry_cell_setting 'monoclinic'
loop_
_space_group_symop_operation_xyz
x,y,z
-x,y,1/2-z
-x,-y,-z
x,-y,1/2+z
1/2+x,1/2+y,z
1/2-x,1/2+y,1/2-z
1/2-x,1/2-y,-z
1/2+x,1/2-y,1/2+z
loop_
_atom_site_type_symbol
_atom_site_label
_atom_site_fract_x
_atom_site_fract_y
_atom_site_fract_z
Si Si1 0.076058 0.095299 0.081460
Si Si2 0.226021 0.655093 0.998276
Si Si3 0.203824 0.285551 0.871639
Si Si4 0.000000 0.418812 0.250000
Si Si5 0.625320 0.473870 0.189548
Si Si6 0.712821 0.746235 0.320622
O O1 0.193649 0.152107 0.096212
O O2 0.157672 0.042539 0.181530
O O3 0.902868 0.117314 0.081342
O O4 0.996794 0.061690 0.945150
O O5 0.275246 0.702896 0.924330
O O6 0.073607 0.618999 0.879787
O O7 0.186223 0.689345 0.093896
O O8 0.266426 0.243016 0.797988
O O9 0.000000 0.296033 0.750000
O O10 0.250000 0.250000 0.000000
O O11 0.173339 0.449741 0.261086
O O12 0.500000 0.467921 0.250000
O O13 0.500000 0.736727 0.250000
#
# Coordination Sequence:
#
# PCOD9283192 Si02
#       6
#     8   8   8   4   8   8
#     4  10  23  45  64  99 138 178 233 296 344 430
#     4  10  21  39  69 100 131 179 233 286 350 419
#     4  12  28  44  67 106 146 185 232 295 366 431
#     4  10  22  42  70 104 142 178 242 296 352 430
#     4  10  24  44  70  99 139 187 237 294 360 412
#     4  11  22  40  67  98 134 178 232 273 345 436
#
# _framework density 21.109898000000001
#
# number of rings (size 3 to 8) (size 9 to 14) (size 15 to 20)
#    0.000    1.455    2.727    1.091    6.364    5.091 
#    0.000    8.182    0.000    0.000    0.000    0.000 
#    0.000    0.000    0.000    0.000    0.000    0.000 
#
# Total GULP energy -122493.071478 kJ/mol
# GULP energy per Si atom -5567.866885 kJ/mol
# Density = 2.106185 g / cm^3
# Si number density = 21.109898 Si / 1000 Ang^3
#
#
#
# Elastic Constant Matrix: (Units=GPa)
#
#
# Indices 1 2 3 4 5 6 
#
# 1 97.9913 26.8765 54.1102 0.0000 -2.3972 0.0000
# 2 26.8765 93.9779 39.8494 0.0000 6.8582 0.0000
# 3 54.1102 39.8494 104.3534 0.0000 -7.3967 0.0000
# 4 0.0000 0.0000 0.0000 27.4574 0.0000 -4.5064
# 5 -2.3972 6.8582 -7.3967 0.0000 49.1371 0.0000
# 6 0.0000 0.0000 0.0000 -4.5064 0.0000 20.0026
#
#
#
# Elastic Compliance Matrix: (Units=1/GPa)
#
#
# Indices 1 2 3 4 5 6 
#
# 1 0.014402 -0.001111 -0.007058 0.000000 -0.000205 0.000000
# 2 -0.001111 0.013101 -0.004609 0.000000 -0.002577 0.000000
# 3 -0.007058 -0.004609 0.015186 0.000000 0.002585 0.000000
# 4 0.000000 0.000000 0.000000 0.037818 0.000000 0.008520
# 5 -0.000205 -0.002577 0.002585 0.000000 0.021090 0.000000
# 6 0.000000 0.000000 0.000000 0.008520 0.000000 0.051913
#
#
# Mechanical properties :
#
#
# Convention : Reuss Voigt Hill
#
# Bulk Modulus (GPa) = 58.36997 59.77720 59.07358
# Shear Modulus (GPa) = 27.05936 31.01852 29.03894
#
# Velocity S-wave (km/s) = 3.58415 3.83741 3.71294
# Velocity P-wave (km/s) = 6.69617 6.92914 6.81365
#
# Compressibility (1/GPa) = 0.01713210
#
# Stress axis : x y z
#
# Youngs Moduli (GPa) = 69.43385 76.32938 65.84954
#
# Poissons Ratio (x) = 0.08480 0.46478
# Poissons Ratio (y) = 0.07714 0.30353
# Poissons Ratio (z) = 0.49008 0.35184
#
# Static dielectric constant tensor:
#      x y z
#    x 1.715100 0.000000 -0.065410 
#    y 0.000000 1.789730 0.000000 
#    z -0.065410 0.000000 1.721390 
# 
# From -- ./inp_files/79983.got.cif
#   From: 2010.05.17/outbox.cif.g08.bks.cpg/sg15_40_cif.got.tgz:79983.got - 2010.06.03 18:47:42.
