data_PCOD9283636
_publ_section_title
;
Structure prediction by ZEFSAII (Michael W. Deem and Ramdas Pophale) SiO2 
 PCOD9283636
Probable space group: C 2/C
;
_chemical_formula_sum "Si O2"
_cell_formula_units_Z 64
_cell_length_a 25.904296
_cell_length_b 14.944992
_cell_length_c 17.828674
_cell_angle_alpha 90.000000
_cell_angle_beta 27.442403
_cell_angle_gamma 90.000000
_cell_volume 3180.917725
_symmetry_space_group_name_H-M "C 2/C"
_symmetry_group_IT_number 15
_symmetry_cell_setting 'monoclinic'
loop_
_space_group_symop_operation_xyz
x,y,z
-x,y,1/2-z
-x,-y,-z
x,-y,1/2+z
1/2+x,1/2+y,z
1/2-x,1/2+y,1/2-z
1/2-x,1/2-y,-z
1/2+x,1/2-y,1/2+z
loop_
_atom_site_type_symbol
_atom_site_label
_atom_site_fract_x
_atom_site_fract_y
_atom_site_fract_z
Si Si1 0.323083 0.083658 0.671458
Si Si2 0.509525 0.016587 0.648006
Si Si3 0.606244 0.849881 0.667908
Si Si4 0.160929 0.149667 0.612956
Si Si5 0.522303 0.440457 0.074161
Si Si6 0.077287 0.131076 0.951215
Si Si7 0.756318 0.597642 0.328252
Si Si8 0.489925 0.172504 0.970092
O O1 0.210875 0.134889 0.792137
O O2 0.417584 0.146826 0.586529
O O3 0.376947 0.027809 0.532330
O O4 0.290549 0.006993 0.774426
O O5 0.500000 0.033250 0.750000
O O6 0.489763 0.105364 0.625676
O O7 0.421438 0.936286 0.746366
O O8 0.500000 0.846172 0.750000
O O9 0.730216 0.866840 0.475414
O O10 0.617371 0.749774 0.684487
O O11 0.057141 0.085568 0.755616
O O12 0.212311 0.135289 0.464102
O O13 0.455145 0.400583 0.090380
O O14 0.535606 0.546634 0.053118
O O15 0.645257 0.397102 0.919425
O O16 0.015036 0.224048 0.045933
O O17 0.865321 0.650981 0.161351
#
# Coordination Sequence:
#
# PCOD9283636 Si02
#       8
#     8   8   8   8   8   8   8   8
#     4  10  22  42  64  91 127 168 207 258 313 369
#     4  10  22  40  63  93 126 159 205 261 312 369
#     4  10  22  34  54  93 123 151 196 248 321 365
#     4  11  22  36  61  90 121 159 201 258 316 378
#     4  10  23  42  59  91 126 163 208 254 315 368
#     4  10  25  41  62  90 122 173 211 252 308 374
#     4  10  21  40  63  91 124 157 204 255 321 374
#     4  11  23  41  67  90 127 166 210 258 307 376
#
# _framework density 20.119980000000002
#
# number of rings (size 3 to 8) (size 9 to 14) (size 15 to 20)
#    0.000    1.750    0.000    4.125   10.500    0.000 
#    0.000    2.500    0.000    2.250    0.000    0.000 
#    0.000    0.000    0.000    0.000    0.000    0.000 
#
# Total GULP energy -178413.652960 kJ/mol
# GULP energy per Si atom -5575.426655 kJ/mol
# Density = 2.007419 g / cm^3
# Si number density = 20.119980 Si / 1000 Ang^3
#
#
#
# Elastic Constant Matrix: (Units=GPa)
#
#
# Indices 1 2 3 4 5 6 
#
# 1 99.6660 57.2173 56.8492 0.0000 -15.6889 0.0000
# 2 57.2173 133.0363 59.7349 0.0000 -3.2748 0.0000
# 3 56.8492 59.7349 116.0954 0.0000 -18.6561 0.0000
# 4 0.0000 0.0000 0.0000 24.4642 0.0000 -6.5853
# 5 -15.6889 -3.2748 -18.6561 0.0000 45.4353 0.0000
# 6 0.0000 0.0000 0.0000 -6.5853 0.0000 14.4009
#
#
#
# Elastic Compliance Matrix: (Units=1/GPa)
#
#
# Indices 1 2 3 4 5 6 
#
# 1 0.015987 -0.004565 -0.004973 0.000000 0.003149 0.000000
# 2 -0.004565 0.011170 -0.003892 0.000000 -0.002370 0.000000
# 3 -0.004973 -0.003892 0.013630 0.000000 0.003599 0.000000
# 4 0.000000 0.000000 0.000000 0.046614 0.000000 0.021316
# 5 0.003149 -0.002370 0.003599 0.000000 0.024404 0.000000
# 6 0.000000 0.000000 0.000000 0.021316 0.000000 0.079187
#
#
# Mechanical properties :
#
#
# Convention : Reuss Voigt Hill
#
# Bulk Modulus (GPa) = 71.81590 77.37784 74.59687
# Shear Modulus (GPa) = 22.47241 28.52649 25.49945
#
# Velocity S-wave (km/s) = 3.34566 3.76948 3.56388
# Velocity P-wave (km/s) = 7.12011 7.58202 7.35469
#
# Compressibility (1/GPa) = 0.01392449
#
# Stress axis : x y z
#
# Youngs Moduli (GPa) = 62.55140 89.52891 73.36706
#
# Poissons Ratio (x) = 0.40871 0.36489
# Poissons Ratio (y) = 0.28555 0.28558
# Poissons Ratio (z) = 0.31110 0.34849
#
# Static dielectric constant tensor:
#      x y z
#    x 1.808560 0.000000 -0.001770 
#    y 0.000000 1.703760 0.000000 
#    z -0.001770 0.000000 1.735880 
# 
# From -- ./inp_files/259444.got.cif
#   From: 2010.05.17/outbox.cif.g08.bks.cpg/sg15_130_cif.got.tgz:259444.got - 2010.06.03 18:47:42.
