data_PCOD9283501
_publ_section_title
;
Structure prediction by ZEFSAII (Michael W. Deem and Ramdas Pophale) SiO2 
 PCOD9283501
Probable space group: C 2/C
;
_chemical_formula_sum "Si O2"
_cell_formula_units_Z 56
_cell_length_a 11.163866
_cell_length_b 13.137864
_cell_length_c 19.256119
_cell_angle_alpha 90.000000
_cell_angle_beta 106.756547
_cell_angle_gamma 90.000000
_cell_volume 2704.359031
_symmetry_space_group_name_H-M "C 2/C"
_symmetry_group_IT_number 15
_symmetry_cell_setting 'monoclinic'
loop_
_space_group_symop_operation_xyz
x,y,z
-x,y,1/2-z
-x,-y,-z
x,-y,1/2+z
1/2+x,1/2+y,z
1/2-x,1/2+y,1/2-z
1/2-x,1/2-y,-z
1/2+x,1/2-y,1/2+z
loop_
_atom_site_type_symbol
_atom_site_label
_atom_site_fract_x
_atom_site_fract_y
_atom_site_fract_z
Si Si1 0.890292 0.518604 0.873843
Si Si2 0.203038 0.254921 0.162729
Si Si3 0.083050 0.261089 0.915295
Si Si4 0.956739 0.866023 0.662195
Si Si5 0.100155 0.970561 0.461187
Si Si6 0.299602 0.809509 0.826069
Si Si7 0.870580 0.521676 0.030216
O O1 0.830170 0.627396 0.855397
O O2 0.825577 0.430617 0.819242
O O3 0.040505 0.520937 0.894458
O O4 0.885104 0.482434 0.953671
O O5 0.313075 0.223592 0.127900
O O6 0.260137 0.242442 0.248494
O O7 0.071958 0.191569 0.142786
O O8 0.104432 0.149610 0.948744
O O9 0.108161 0.356501 0.969594
O O10 0.935795 0.268665 0.871339
O O11 0.823595 0.805731 0.645142
O O12 0.000000 0.882476 0.750000
O O13 0.925642 0.968758 0.614633
O O14 0.228346 0.002362 0.519121
O O15 0.000000 0.000000 0.500000
#
# Coordination Sequence:
#
# PCOD9283501 Si02
#       7
#     8   8   8   8   8   8   8
#     4  10  21  40  65  87 122 173 204 254 321 383
#     4  11  22  40  67  92 126 169 213 266 316 387
#     4  11  23  39  63  95 126 162 217 265 320 376
#     4  10  23  42  61  90 132 171 212 264 330 388
#     4  12  24  39  64  99 128 166 214 276 321 377
#     4  10  22  42  63  93 123 168 214 258 322 386
#     4  10  21  40  62  88 125 168 210 251 322 387
#
# _framework density 20.707308999999999
#
# number of rings (size 3 to 8) (size 9 to 14) (size 15 to 20)
#    0.000    1.429    2.857    1.714    2.000    4.571 
#    0.000   10.000    0.000    0.000    0.000    0.000 
#    0.000    0.000    0.000    0.000    0.000    0.000 
#
# Total GULP energy -156118.838811 kJ/mol
# GULP energy per Si atom -5575.672815 kJ/mol
# Density = 2.066018 g / cm^3
# Si number density = 20.707309 Si / 1000 Ang^3
#
#
#
# Elastic Constant Matrix: (Units=GPa)
#
#
# Indices 1 2 3 4 5 6 
#
# 1 162.9936 22.0978 39.0105 0.0000 17.2197 0.0000
# 2 22.0978 44.2102 16.3417 0.0000 -0.0788 0.0000
# 3 39.0105 16.3417 48.1681 0.0000 8.3809 0.0000
# 4 0.0000 0.0000 0.0000 27.5876 0.0000 2.6493
# 5 17.2197 -0.0788 8.3809 0.0000 41.5206 0.0000
# 6 0.0000 0.0000 0.0000 2.6493 0.0000 23.9808
#
#
#
# Elastic Compliance Matrix: (Units=1/GPa)
#
#
# Indices 1 2 3 4 5 6 
#
# 1 0.007919 -0.001982 -0.005357 0.000000 -0.002207 0.000000
# 2 -0.001982 0.026502 -0.007812 0.000000 0.002449 0.000000
# 3 -0.005357 -0.007812 0.028362 0.000000 -0.003518 0.000000
# 4 0.000000 0.000000 0.000000 0.036637 0.000000 -0.004048
# 5 -0.002207 0.002449 -0.003518 0.000000 0.025714 0.000000
# 6 0.000000 0.000000 0.000000 -0.004048 0.000000 0.042147
#
#
# Mechanical properties :
#
#
# Convention : Reuss Voigt Hill
#
# Bulk Modulus (GPa) = 30.78798 45.58576 38.18687
# Shear Modulus (GPa) = 23.99108 30.47927 27.23518
#
# Velocity S-wave (km/s) = 3.40749 3.84071 3.63056
# Velocity P-wave (km/s) = 5.51196 6.45989 6.00466
#
# Compressibility (1/GPa) = 0.03248021
#
# Stress axis : x y z
#
# Youngs Moduli (GPa) = 126.27467 37.73313 35.25867
#
# Poissons Ratio (x) = 0.07479 0.18889
# Poissons Ratio (y) = 0.25028 0.27544
# Poissons Ratio (z) = 0.67649 0.29478
#
# Static dielectric constant tensor:
#      x y z
#    x 2.000860 0.000000 0.025600 
#    y 0.000000 1.730150 0.000000 
#    z 0.025600 0.000000 1.726630 
# 
# From -- ./inp_files/237631.got.cif
#   From: 2010.05.17/outbox.cif.g08.bks.cpg/sg15_119_cif.got.tgz:237631.got - 2010.06.03 18:47:42.
