data_PCOD9283174
_publ_section_title
;
Structure prediction by ZEFSAII (Michael W. Deem and Ramdas Pophale) SiO2 
 PCOD9283174
Probable space group: C 2/C
;
_chemical_formula_sum "Si O2"
_cell_formula_units_Z 40
_cell_length_a 13.645201
_cell_length_b 14.080204
_cell_length_c 13.993041
_cell_angle_alpha 90.000000
_cell_angle_beta 149.129917
_cell_angle_gamma 90.000000
_cell_volume 1379.422172
_symmetry_space_group_name_H-M "C 2/C"
_symmetry_group_IT_number 15
_symmetry_cell_setting 'monoclinic'
loop_
_space_group_symop_operation_xyz
x,y,z
-x,y,1/2-z
-x,-y,-z
x,-y,1/2+z
1/2+x,1/2+y,z
1/2-x,1/2+y,1/2-z
1/2-x,1/2-y,-z
1/2+x,1/2-y,1/2+z
loop_
_atom_site_type_symbol
_atom_site_label
_atom_site_fract_x
_atom_site_fract_y
_atom_site_fract_z
Si Si1 0.254737 0.564368 0.737565
Si Si2 0.486811 0.194663 0.390545
Si Si3 0.299261 0.406138 0.490153
Si Si4 0.156071 0.889524 0.496923
Si Si5 0.740549 0.358605 0.844149
O O1 0.206215 0.583060 0.807953
O O2 0.202282 0.459720 0.655382
O O3 0.157257 0.637760 0.583202
O O4 0.483703 0.575220 0.920455
O O5 0.357838 0.132431 0.213178
O O6 0.574303 0.284706 0.409488
O O7 0.341709 0.215765 0.358262
O O8 0.317896 0.516251 0.544141
O O9 0.510563 0.361849 0.653160
O O10 0.201854 0.352640 0.496772
#
# Coordination Sequence:
#
# PCOD9283174 Si02
#       5
#     8   8   8   8   8
#     4  11  21  40  68  89 126 179 221 262 318 392
#     4  12  22  39  67  95 128 171 215 270 331 380
#     4  10  21  41  67  94 129 171 220 270 315 386
#     4  11  22  40  64  93 134 168 209 274 333 372
#     4  10  21  39  68  96 124 170 227 262 316 389
#
# _framework density 28.997648000000002
#
# number of rings (size 3 to 8) (size 9 to 14) (size 15 to 20)
#    0.000    1.200    6.000    1.800    0.000    0.800 
#    0.000    2.000    8.800    0.000    0.000    0.000 
#    0.000    0.000    0.000    0.000    0.000    0.000 
#
# Total GULP energy -112042.628687 kJ/mol
# GULP energy per Si atom -5602.131434 kJ/mol
# Density = 2.893165 g / cm^3
# Si number density = 28.997648 Si / 1000 Ang^3
#
#
#
# Elastic Constant Matrix: (Units=GPa)
#
#
# Indices 1 2 3 4 5 6 
#
# 1 161.1109 25.9297 43.5017 0.0002 0.1467 0.0001
# 2 25.9297 149.8255 43.3220 -0.0002 -5.8510 0.0002
# 3 43.5017 43.3220 141.9279 0.0005 -6.1332 0.0009
# 4 0.0002 -0.0002 0.0005 29.5593 0.0009 14.4889
# 5 0.1467 -5.8510 -6.1332 0.0009 53.7620 0.0005
# 6 0.0001 0.0002 0.0009 14.4889 0.0005 12.6663
#
#
#
# Elastic Compliance Matrix: (Units=1/GPa)
#
#
# Indices 1 2 3 4 5 6 
#
# 1 0.006826 -0.000641 -0.001910 0.000000 -0.000306 0.000000
# 2 -0.000641 0.007397 -0.002036 0.000000 0.000574 0.000000
# 3 -0.001910 -0.002036 0.008284 0.000000 0.000729 -0.000001
# 4 0.000000 0.000000 0.000000 0.077008 0.000000 -0.088089
# 5 -0.000306 0.000574 0.000729 0.000000 0.018747 0.000000
# 6 0.000000 0.000000 -0.000001 -0.088089 0.000000 0.179714
#
#
# Mechanical properties :
#
#
# Convention : Reuss Voigt Hill
#
# Bulk Modulus (GPa) = 75.00548 75.37458 75.19003
# Shear Modulus (GPa) = 16.04649 41.87157 28.95903
#
# Velocity S-wave (km/s) = 2.35494 3.80408 3.16360
# Velocity P-wave (km/s) = 5.77205 6.73383 6.27140
#
# Compressibility (1/GPa) = 0.01333236
#
# Stress axis : x y z
#
# Youngs Moduli (GPa) = 146.49825 135.19631 120.71071
#
# Poissons Ratio (x) = 0.08668 0.23053
# Poissons Ratio (y) = 0.09392 0.24582
# Poissons Ratio (z) = 0.27978 0.27532
#
# Static dielectric constant tensor:
#      x y z
#    x 2.257150 0.000000 -0.041050 
#    y 0.000000 2.282510 0.000000 
#    z -0.041050 0.000000 2.212930 
# 
# From -- ./inp_files/40027.got.cif
#   From: 2010.05.17/outbox.cif.g08.bks.cpg/sg15_21_cif.got.tgz:40027.got - 2010.06.03 18:47:42.
