data_PCOD9283045
_publ_section_title
;
Structure prediction by ZEFSAII (Michael W. Deem and Ramdas Pophale) SiO2 
 PCOD9283045
Probable space group: C 2/C
;
_chemical_formula_sum "Si O2"
_cell_formula_units_Z 44
_cell_length_a 6.402722
_cell_length_b 23.084816
_cell_length_c 13.420350
_cell_angle_alpha 90.000000
_cell_angle_beta 92.778988
_cell_angle_gamma 90.000000
_cell_volume 1981.270931
_symmetry_space_group_name_H-M "C 2/C"
_symmetry_group_IT_number 15
_symmetry_cell_setting 'monoclinic'
loop_
_space_group_symop_operation_xyz
x,y,z
-x,y,1/2-z
-x,-y,-z
x,-y,1/2+z
1/2+x,1/2+y,z
1/2-x,1/2+y,1/2-z
1/2-x,1/2-y,-z
1/2+x,1/2-y,1/2+z
loop_
_atom_site_type_symbol
_atom_site_label
_atom_site_fract_x
_atom_site_fract_y
_atom_site_fract_z
Si Si1 0.000000 0.983073 0.750000
Si Si2 0.087896 0.670225 0.864001
Si Si3 0.773742 0.374332 0.526230
Si Si4 0.557578 0.302593 0.867620
Si Si5 0.826579 0.584556 0.388421
Si Si6 0.381580 0.431507 0.421876
O O1 0.091474 0.022952 0.664545
O O2 0.188618 0.945801 0.801176
O O3 0.287201 0.628394 0.876642
O O4 0.000000 0.666694 0.750000
O O5 0.130224 0.737363 0.888559
O O6 0.915698 0.647743 0.938520
O O7 0.645449 0.322407 0.574743
O O8 0.601738 0.417728 0.478714
O O9 0.926305 0.405945 0.608611
O O10 0.500000 0.306694 0.750000
O O11 0.732043 0.350478 0.894827
O O12 0.772374 0.552256 0.491032
#
# Coordination Sequence:
#
# PCOD9283045 Si02
#       6
#     4   8   8   8   8   8
#     4  12  22  44  70  88 142 176 224 278 322 394
#     4  10  21  39  66  96 133 171 215 268 330 396
#     4  10  22  40  63  96 132 169 219 266 343 389
#     4  10  21  40  63  95 132 170 218 273 324 394
#     4  10  23  42  63  94 129 175 220 273 327 390
#     4  10  23  41  63  97 130 170 219 271 326 395
#
# _framework density 22.207968000000001
#
# number of rings (size 3 to 8) (size 9 to 14) (size 15 to 20)
#    0.000    1.818    0.909    2.182    0.000    9.455 
#    0.000   16.364    0.000    0.000    0.000    0.000 
#    0.000    0.000    0.000    0.000    0.000    0.000 
#
# Total GULP energy -123091.129782 kJ/mol
# GULP energy per Si atom -5595.051354 kJ/mol
# Density = 2.215742 g / cm^3
# Si number density = 22.207968 Si / 1000 Ang^3
#
#
#
# Elastic Constant Matrix: (Units=GPa)
#
#
# Indices 1 2 3 4 5 6 
#
# 1 114.4526 65.6312 44.7073 0.0000 23.9557 0.0000
# 2 65.6312 131.0317 52.1309 0.0000 14.0560 0.0000
# 3 44.7073 52.1309 115.1545 0.0000 11.8030 0.0000
# 4 0.0000 0.0000 0.0000 27.9397 0.0000 -10.2269
# 5 23.9557 14.0560 11.8030 0.0000 43.5883 0.0000
# 6 0.0000 0.0000 0.0000 -10.2269 0.0000 19.6406
#
#
#
# Elastic Compliance Matrix: (Units=1/GPa)
#
#
# Indices 1 2 3 4 5 6 
#
# 1 0.013887 -0.005444 -0.002391 0.000000 -0.005229 0.000000
# 2 -0.005444 0.011600 -0.003149 0.000000 0.000104 0.000000
# 3 -0.002391 -0.003149 0.011107 0.000000 -0.000678 0.000000
# 4 0.000000 0.000000 0.000000 0.044219 0.000000 0.023025
# 5 -0.005229 0.000104 -0.000678 0.000000 0.025966 0.000000
# 6 0.000000 0.000000 0.000000 0.023025 0.000000 0.062904
#
#
# Mechanical properties :
#
#
# Convention : Reuss Voigt Hill
#
# Bulk Modulus (GPa) = 68.36334 76.17528 72.26931
# Shear Modulus (GPa) = 25.44179 31.44501 28.44340
#
# Velocity S-wave (km/s) = 3.38837 3.76697 3.58267
# Velocity P-wave (km/s) = 6.79398 7.30037 7.05172
#
# Compressibility (1/GPa) = 0.01462772
#
# Stress axis : x y z
#
# Youngs Moduli (GPa) = 72.00750 86.20805 90.03156
#
# Poissons Ratio (x) = 0.46928 0.21529
# Poissons Ratio (y) = 0.39198 0.28347
# Poissons Ratio (z) = 0.17219 0.27143
#
# Static dielectric constant tensor:
#      x y z
#    x 1.805880 0.000000 0.004030 
#    y 0.000000 1.815700 0.000000 
#    z 0.004030 0.000000 1.845240 
# 
# From -- ./inp_files/129461.got.cif
#   From: 2010.05.17/outbox.cif.g08.bks.cpg/sg15_65_cif.got.tgz:129461.got - 2010.06.03 18:47:42.
