data_PCOD9283417
_publ_section_title
;
Structure prediction by ZEFSAII (Michael W. Deem and Ramdas Pophale) SiO2 
 PCOD9283417
Probable space group: C 2/C
;
_chemical_formula_sum "Si O2"
_cell_formula_units_Z 56
_cell_length_a 28.448087
_cell_length_b 13.871533
_cell_length_c 12.537122
_cell_angle_alpha 90.000000
_cell_angle_beta 143.787671
_cell_angle_gamma 90.000000
_cell_volume 2922.810417
_symmetry_space_group_name_H-M "C 2/C"
_symmetry_group_IT_number 15
_symmetry_cell_setting 'monoclinic'
loop_
_space_group_symop_operation_xyz
x,y,z
-x,y,1/2-z
-x,-y,-z
x,-y,1/2+z
1/2+x,1/2+y,z
1/2-x,1/2+y,1/2-z
1/2-x,1/2-y,-z
1/2+x,1/2-y,1/2+z
loop_
_atom_site_type_symbol
_atom_site_label
_atom_site_fract_x
_atom_site_fract_y
_atom_site_fract_z
Si Si1 0.170582 0.565147 0.109592
Si Si2 0.239571 0.085972 0.012778
Si Si3 0.626259 0.754809 0.798174
Si Si4 0.374551 0.796714 0.281958
Si Si5 0.474378 0.202029 0.589034
Si Si6 0.915071 0.619496 0.086703
Si Si7 0.727039 0.616310 0.392679
O O1 0.220322 0.545833 0.306911
O O2 0.226943 0.627349 0.135691
O O3 0.088237 0.618352 0.991058
O O4 0.148608 0.464906 0.013187
O O5 0.304976 0.163822 0.091874
O O6 0.164206 0.153223 0.896455
O O7 0.215383 0.996518 0.894766
O O8 0.575942 0.745505 0.596943
O O9 0.580949 0.799242 0.815619
O O10 0.443620 0.822635 0.323126
O O11 0.399302 0.834941 0.442721
O O12 0.350648 0.683531 0.241971
O O13 0.292523 0.846890 0.096989
O O14 0.500000 0.248103 0.750000
O O15 0.000000 0.568847 0.250000
#
# Coordination Sequence:
#
# PCOD9283417 Si02
#       7
#     8   8   8   8   8   8   8
#     4  11  22  36  63  92 124 160 196 263 312 373
#     4  10  21  40  61  90 121 158 210 250 306 367
#     4  10  22  39  64  88 120 163 202 260 306 361
#     4  11  24  39  61  89 124 164 200 257 304 367
#     4  11  22  41  60  88 126 159 205 251 312 370
#     4  12  22  36  64  92 125 157 201 254 322 363
#     4  11  22  41  60  88 124 159 210 252 308 361
#
# _framework density 19.159642000000002
#
# number of rings (size 3 to 8) (size 9 to 14) (size 15 to 20)
#    0.000    1.143    5.714    1.286    0.000    0.571 
#    2.571    0.714    0.000    0.000    0.000    0.000 
#    0.000    0.000    0.000    0.000    0.000    0.000 
#
# Total GULP energy -155987.056097 kJ/mol
# GULP energy per Si atom -5570.966289 kJ/mol
# Density = 1.911603 g / cm^3
# Si number density = 19.159642 Si / 1000 Ang^3
#
#
#
# Elastic Constant Matrix: (Units=GPa)
#
#
# Indices 1 2 3 4 5 6 
#
# 1 75.7897 15.0647 22.0034 0.0000 -12.1347 0.0000
# 2 15.0647 65.9786 13.5555 0.0000 3.9533 0.0000
# 3 22.0034 13.5555 60.2465 0.0000 -1.1891 0.0000
# 4 0.0000 0.0000 0.0000 15.2193 0.0000 8.1696
# 5 -12.1347 3.9533 -1.1891 0.0000 18.1744 0.0000
# 6 0.0000 0.0000 0.0000 8.1696 0.0000 17.4999
#
#
#
# Elastic Compliance Matrix: (Units=1/GPa)
#
#
# Indices 1 2 3 4 5 6 
#
# 1 0.017376 -0.003600 -0.005298 0.000000 0.012038 0.000000
# 2 -0.003600 0.016889 -0.002608 0.000000 -0.006248 0.000000
# 3 -0.005298 -0.002608 0.019086 0.000000 -0.001721 0.000000
# 4 0.000000 0.000000 0.000000 0.087677 0.000000 -0.040931
# 5 0.012038 -0.006248 -0.001721 0.000000 0.064306 0.000000
# 6 0.000000 0.000000 0.000000 -0.040931 0.000000 0.076251
#
#
# Mechanical properties :
#
#
# Convention : Reuss Voigt Hill
#
# Bulk Modulus (GPa) = 32.96299 33.69577 33.32938
# Shear Modulus (GPa) = 15.88757 20.27149 18.07953
#
# Velocity S-wave (km/s) = 2.88274 3.25627 3.07518
# Velocity P-wave (km/s) = 5.32184 5.63584 5.48109
#
# Compressibility (1/GPa) = 0.03033706
#
# Stress axis : x y z
#
# Youngs Moduli (GPa) = 57.55204 59.21122 52.39306
#
# Poissons Ratio (x) = 0.21316 0.27760
# Poissons Ratio (y) = 0.20719 0.13667
# Poissons Ratio (z) = 0.30493 0.15445
#
# Static dielectric constant tensor:
#      x y z
#    x 1.701310 0.000000 0.010790 
#    y 0.000000 1.657270 0.000000 
#    z 0.010790 0.000000 1.664290 
# 
# From -- ./inp_files/123344.got.cif
#   From: 2010.05.17/outbox.cif.g08.bks.cpg/sg15_62_cif.got.tgz:123344.got - 2010.06.03 18:47:42.
