data_PCOD9283549
_publ_section_title
;
Structure prediction by ZEFSAII (Michael W. Deem and Ramdas Pophale) SiO2 
 PCOD9283549
Probable space group: C 2/C
;
_chemical_formula_sum "Si O2"
_cell_formula_units_Z 40
_cell_length_a 21.028153
_cell_length_b 7.970271
_cell_length_c 10.153403
_cell_angle_alpha 90.000000
_cell_angle_beta 66.112487
_cell_angle_gamma 90.000000
_cell_volume 1555.946354
_symmetry_space_group_name_H-M "C 2/C"
_symmetry_group_IT_number 15
_symmetry_cell_setting 'monoclinic'
loop_
_space_group_symop_operation_xyz
x,y,z
-x,y,1/2-z
-x,-y,-z
x,-y,1/2+z
1/2+x,1/2+y,z
1/2-x,1/2+y,1/2-z
1/2-x,1/2-y,-z
1/2+x,1/2-y,1/2+z
loop_
_atom_site_type_symbol
_atom_site_label
_atom_site_fract_x
_atom_site_fract_y
_atom_site_fract_z
Si Si1 0.106035 0.946305 0.521164
Si Si2 0.297100 0.708814 0.776348
Si Si3 0.964147 0.381578 0.421739
Si Si4 0.917422 0.687678 0.361336
Si Si5 0.213294 0.122902 0.129474
O O1 0.165201 0.906490 0.365653
O O2 0.048513 0.809814 0.528125
O O3 0.133910 0.885792 0.642586
O O4 0.090439 0.141998 0.547673
O O5 0.361593 0.802028 0.790341
O O6 0.239320 0.811891 0.748609
O O7 0.265240 0.572444 0.902570
O O8 0.900688 0.509002 0.444085
O O9 0.000000 0.366077 0.250000
O O10 0.000000 0.500000 0.500000
O O11 0.000000 0.691232 0.250000
O O12 0.250000 0.250000 0.000000
#
# Coordination Sequence:
#
# PCOD9283549 Si02
#       5
#     8   8   8   8   8
#     4  10  21  40  62  93 128 168 219 271 323 396
#     4  10  21  41  63  91 128 169 218 271 333 392
#     4  11  24  40  63  98 133 175 222 270 338 394
#     4  10  22  39  62  93 127 168 213 265 332 389
#     4   9  21  40  61  91 123 167 217 266 333 393
#
# _framework density 25.707826000000001
#
# number of rings (size 3 to 8) (size 9 to 14) (size 15 to 20)
#    0.000    2.000    0.000    3.000    2.800    6.400 
#    7.200    3.000    0.000    0.000    0.000    0.000 
#    0.000    0.000    0.000    0.000    0.000    0.000 
#
# Total GULP energy -111511.483493 kJ/mol
# GULP energy per Si atom -5575.574175 kJ/mol
# Density = 2.564931 g / cm^3
# Si number density = 25.707826 Si / 1000 Ang^3
#
#
#
# Elastic Constant Matrix: (Units=GPa)
#
#
# Indices 1 2 3 4 5 6 
#
# 1 101.6568 -1.7789 17.1991 0.0000 28.9983 0.0000
# 2 -1.7789 103.4862 -5.7450 0.0000 3.1323 0.0000
# 3 17.1991 -5.7450 48.0309 0.0000 3.5089 0.0000
# 4 0.0000 0.0000 0.0000 36.1948 0.0000 2.5336
# 5 28.9983 3.1323 3.5089 0.0000 43.8993 0.0000
# 6 0.0000 0.0000 0.0000 2.5336 0.0000 45.9430
#
#
#
# Elastic Compliance Matrix: (Units=1/GPa)
#
#
# Indices 1 2 3 4 5 6 
#
# 1 0.012849 0.000248 -0.003973 0.000000 -0.008188 0.000000
# 2 0.000248 0.009760 0.001148 0.000000 -0.000952 0.000000
# 3 -0.003973 0.001148 0.022325 0.000000 0.000758 0.000000
# 4 0.000000 0.000000 0.000000 0.027735 0.000000 -0.001529
# 5 -0.008188 -0.000952 0.000758 0.000000 0.028195 0.000000
# 6 0.000000 0.000000 0.000000 -0.001529 0.000000 0.021850
#
#
# Mechanical properties :
#
#
# Convention : Reuss Voigt Hill
#
# Bulk Modulus (GPa) = 25.13845 30.28048 27.70947
# Shear Modulus (GPa) = 35.42862 41.44068 38.43465
#
# Velocity S-wave (km/s) = 3.71634 4.01931 3.87079
# Velocity P-wave (km/s) = 5.31175 5.77443 5.54792
#
# Compressibility (1/GPa) = 0.03977970
#
# Stress axis : x y z
#
# Youngs Moduli (GPa) = 77.82568 102.45959 44.79361
#
# Poissons Ratio (x) = -0.02542 0.17798
# Poissons Ratio (y) = -0.01931 -0.05143
# Poissons Ratio (z) = 0.30922 -0.11763
#
# Static dielectric constant tensor:
#      x y z
#    x 2.480040 0.000000 1.362310 
#    y 0.000000 2.206840 0.000000 
#    z 1.362310 0.000000 7.158090 
# 
# From -- ./inp_files/109549.got.cif
#   From: 2010.05.17/outbox.cif.g08.bks.cpg/sg15_55_cif.got.tgz:109549.got - 2010.06.03 18:47:42.
