data_PCOD9283851
_publ_section_title
;
Structure prediction by ZEFSAII (Michael W. Deem and Ramdas Pophale) SiO2 
 PCOD9283851
Probable space group: C 2/C
;
_chemical_formula_sum "Si O2"
_cell_formula_units_Z 44
_cell_length_a 19.639764
_cell_length_b 13.067394
_cell_length_c 15.373964
_cell_angle_alpha 90.000000
_cell_angle_beta 23.607299
_cell_angle_gamma 90.000000
_cell_volume 1580.070653
_symmetry_space_group_name_H-M "C 2/C"
_symmetry_group_IT_number 15
_symmetry_cell_setting 'monoclinic'
loop_
_space_group_symop_operation_xyz
x,y,z
-x,y,1/2-z
-x,-y,-z
x,-y,1/2+z
1/2+x,1/2+y,z
1/2-x,1/2+y,1/2-z
1/2-x,1/2-y,-z
1/2+x,1/2-y,1/2+z
loop_
_atom_site_type_symbol
_atom_site_label
_atom_site_fract_x
_atom_site_fract_y
_atom_site_fract_z
Si Si1 0.527264 0.617639 0.334022
Si Si2 0.814471 0.322051 0.289938
Si Si3 0.652470 0.692157 0.427292
Si Si4 0.500000 0.829430 0.750000
Si Si5 0.566638 0.953080 0.824164
Si Si6 0.166494 0.938549 0.256511
O O1 0.364852 0.635248 0.462949
O O2 0.602537 0.730345 0.254347
O O3 0.668407 0.532401 0.183883
O O4 0.420791 0.570813 0.544225
O O5 0.695649 0.111884 0.234557
O O6 0.918015 0.427227 0.174336
O O7 0.621047 0.759157 0.549529
O O8 0.698395 0.760066 0.288072
O O9 0.466460 0.642120 0.630888
O O10 0.614156 0.902556 0.676212
O O11 0.364023 0.934387 0.053436
#
# Coordination Sequence:
#
# PCOD9283851 Si02
#       6
#     8   8   8   4   8   8
#     4  10  21  40  65 111 149 188 241 308 377 430
#     4  11  24  44  74 111 150 192 254 319 368 439
#     4  11  27  48  72 115 152 197 254 311 376 444
#     4  12  30  48  78 108 158 204 242 308 380 466
#     4  12  27  49  74 111 152 198 252 308 383 446
#     4  10  23  42  69 107 153 194 242 306 376 442
#
# _framework density 27.846855999999999
#
# number of rings (size 3 to 8) (size 9 to 14) (size 15 to 20)
#    0.000    1.091    1.818    2.727   12.727    2.909 
#    0.000    0.000    0.000    5.455    0.000    0.000 
#    0.000    0.000    0.000    0.000    0.000    0.000 
#
# Total GULP energy -122553.519715 kJ/mol
# GULP energy per Si atom -5570.614532 kJ/mol
# Density = 2.778348 g / cm^3
# Si number density = 27.846856 Si / 1000 Ang^3
#
#
#
# Elastic Constant Matrix: (Units=GPa)
#
#
# Indices 1 2 3 4 5 6 
#
# 1 81.5568 35.3214 21.3108 0.0003 -19.8006 -0.0001
# 2 35.3214 177.5638 48.1870 0.0018 -8.9970 -0.0007
# 3 21.3108 48.1870 152.8529 0.0038 -21.6097 -0.0015
# 4 0.0003 0.0018 0.0038 36.8964 -0.0012 5.7841
# 5 -19.8006 -8.9970 -21.6097 -0.0012 37.2203 0.0004
# 6 -0.0001 -0.0007 -0.0015 5.7841 0.0004 52.4191
#
#
#
# Elastic Compliance Matrix: (Units=1/GPa)
#
#
# Indices 1 2 3 4 5 6 
#
# 1 0.015229 -0.002584 -0.000274 0.000000 0.007318 0.000000
# 2 -0.002584 0.006602 -0.001841 0.000000 -0.000848 0.000000
# 3 -0.000274 -0.001841 0.007710 -0.000001 0.003886 0.000000
# 4 0.000000 0.000000 -0.000001 0.027580 0.000001 -0.003043
# 5 0.007318 -0.000848 0.003886 0.000001 0.032811 0.000000
# 6 0.000000 0.000000 0.000000 -0.003043 0.000000 0.019413
#
#
# Mechanical properties :
#
#
# Convention : Reuss Voigt Hill
#
# Bulk Modulus (GPa) = 49.64482 69.06801 59.35641
# Shear Modulus (GPa) = 39.85395 45.78411 42.81903
#
# Velocity S-wave (km/s) = 3.78720 4.05920 3.92556
# Velocity P-wave (km/s) = 6.08197 6.84296 6.47366
#
# Compressibility (1/GPa) = 0.02014309
#
# Stress axis : x y z
#
# Youngs Moduli (GPa) = 65.66502 151.45795 129.69921
#
# Poissons Ratio (x) = 0.39140 0.03553
# Poissons Ratio (y) = 0.16969 0.23877
# Poissons Ratio (z) = 0.01799 0.27883
#
# Static dielectric constant tensor:
#      x y z
#    x 2.412260 0.000000 0.059750 
#    y 0.000000 2.590310 0.000000 
#    z 0.059750 0.000000 2.538760 
# 
# From -- ./inp_files/255789.got.cif
#   From: 2010.05.17/outbox.cif.g08.bks.cpg/sg15_128_cif.got.tgz:255789.got - 2010.06.03 18:47:42.
