data_PCOD9283228
_publ_section_title
;
Structure prediction by ZEFSAII (Michael W. Deem and Ramdas Pophale) SiO2 
 PCOD9283228
Probable space group: C 2/C
;
_chemical_formula_sum "Si O2"
_cell_formula_units_Z 48
_cell_length_a 17.158972
_cell_length_b 26.873218
_cell_length_c 9.494581
_cell_angle_alpha 90.000000
_cell_angle_beta 146.253245
_cell_angle_gamma 90.000000
_cell_volume 2432.141843
_symmetry_space_group_name_H-M "C 2/C"
_symmetry_group_IT_number 15
_symmetry_cell_setting 'monoclinic'
loop_
_space_group_symop_operation_xyz
x,y,z
-x,y,1/2-z
-x,-y,-z
x,-y,1/2+z
1/2+x,1/2+y,z
1/2-x,1/2+y,1/2-z
1/2-x,1/2-y,-z
1/2+x,1/2-y,1/2+z
loop_
_atom_site_type_symbol
_atom_site_label
_atom_site_fract_x
_atom_site_fract_y
_atom_site_fract_z
Si Si1 0.322000 0.846064 0.635565
Si Si2 0.611735 0.356414 0.804505
Si Si3 0.371986 0.290865 0.947679
Si Si4 0.867293 0.032155 0.247702
Si Si5 0.353173 0.176793 0.863139
Si Si6 0.170825 0.945347 0.508068
O O1 0.258935 0.806814 0.652151
O O2 0.291038 0.833600 0.425850
O O3 0.248728 0.898200 0.561251
O O4 0.489610 0.844712 0.902502
O O5 0.500000 0.336528 0.750000
O O6 0.603691 0.329961 0.641279
O O7 0.588646 0.415218 0.749831
O O8 0.761013 0.346480 0.101471
O O9 0.357491 0.236471 0.858996
O O10 0.500000 0.290037 0.250000
O O11 0.784081 0.045704 0.263566
O O12 0.798301 0.995432 0.032233
O O13 0.000000 0.000000 0.500000
O O14 0.000000 0.936559 0.250000
#
# Coordination Sequence:
#
# PCOD9283228 Si02
#       6
#     8   8   8   8   8   8
#     4  11  23  44  69  92 139 177 226 272 339 412
#     4  12  26  42  69 102 137 172 226 285 335 394
#     4  12  24  45  69  99 129 184 229 271 337 398
#     4  10  22  40  63 104 129 168 223 279 333 388
#     4  11  27  43  66 100 136 180 218 282 335 400
#     4  10  21  39  69  96 128 175 220 277 334 398
#
# _framework density 19.735692
#
# number of rings (size 3 to 8) (size 9 to 14) (size 15 to 20)
#    0.000    1.000    3.333    4.000   11.667    0.667 
#    0.000    0.833    0.000    0.000    0.000    0.000 
#    0.000    0.000    0.000    0.000    0.000    0.000 
#
# Total GULP energy -134117.002853 kJ/mol
# GULP energy per Si atom -5588.208452 kJ/mol
# Density = 1.969077 g / cm^3
# Si number density = 19.735692 Si / 1000 Ang^3
#
#
#
# Elastic Constant Matrix: (Units=GPa)
#
#
# Indices 1 2 3 4 5 6 
#
# 1 92.3157 45.8285 21.9044 0.0000 0.4376 0.0000
# 2 45.8285 129.1138 11.3014 0.0000 -1.9335 0.0000
# 3 21.9044 11.3014 40.0532 0.0000 -7.9939 0.0000
# 4 0.0000 0.0000 0.0000 30.0699 0.0000 -17.4246
# 5 0.4376 -1.9335 -7.9939 0.0000 23.3909 0.0000
# 6 0.0000 0.0000 0.0000 -17.4246 0.0000 18.7391
#
#
#
# Elastic Compliance Matrix: (Units=1/GPa)
#
#
# Indices 1 2 3 4 5 6 
#
# 1 0.014962 -0.004703 -0.007501 0.000000 -0.003232 0.000000
# 2 -0.004703 0.009420 0.000093 0.000000 0.000898 0.000000
# 3 -0.007501 0.000093 0.031200 0.000000 0.010811 0.000000
# 4 0.000000 0.000000 0.000000 0.072111 0.000000 0.067053
# 5 -0.003232 0.000898 0.010811 0.000000 0.046581 0.000000
# 6 0.000000 0.000000 0.000000 0.067053 0.000000 0.115714
#
#
# Mechanical properties :
#
#
# Convention : Reuss Voigt Hill
#
# Bulk Modulus (GPa) = 31.88599 46.61680 39.25139
# Shear Modulus (GPa) = 15.40066 26.60320 21.00193
#
# Velocity S-wave (km/s) = 2.79650 3.67546 3.26569
# Velocity P-wave (km/s) = 5.15934 6.45630 5.84391
#
# Compressibility (1/GPa) = 0.03136174
#
# Stress axis : x y z
#
# Youngs Moduli (GPa) = 66.83622 106.16217 32.05118
#
# Poissons Ratio (x) = 0.49923 0.24040
# Poissons Ratio (y) = 0.31430 -0.00299
# Poissons Ratio (z) = 0.50131 -0.00990
#
# Static dielectric constant tensor:
#      x y z
#    x 1.701950 0.000000 -0.001750 
#    y 0.000000 1.711420 0.000000 
#    z -0.001750 0.000000 1.697100 
# 
# From -- ./inp_files/33798.got.cif
#   From: 2010.05.17/outbox.cif.g08.bks.cpg/sg15_17_cif.got.tgz:33798.got - 2010.06.03 18:47:42.
