data_PCOD9283329
_publ_section_title
;
Structure prediction by ZEFSAII (Michael W. Deem and Ramdas Pophale) SiO2 
 PCOD9283329
Probable space group: C 2/C
;
_chemical_formula_sum "Si O2"
_cell_formula_units_Z 44
_cell_length_a 11.181951
_cell_length_b 15.762016
_cell_length_c 25.879843
_cell_angle_alpha 90.000000
_cell_angle_beta 148.688871
_cell_angle_gamma 90.000000
_cell_volume 2370.452333
_symmetry_space_group_name_H-M "C 2/C"
_symmetry_group_IT_number 15
_symmetry_cell_setting 'monoclinic'
loop_
_space_group_symop_operation_xyz
x,y,z
-x,y,1/2-z
-x,-y,-z
x,-y,1/2+z
1/2+x,1/2+y,z
1/2-x,1/2+y,1/2-z
1/2-x,1/2-y,-z
1/2+x,1/2-y,1/2+z
loop_
_atom_site_type_symbol
_atom_site_label
_atom_site_fract_x
_atom_site_fract_y
_atom_site_fract_z
Si Si1 0.392445 0.531429 0.882068
Si Si2 0.656827 0.620671 0.525754
Si Si3 0.377161 0.042422 0.820484
Si Si4 0.838143 0.741044 0.946055
Si Si5 0.500000 0.368128 0.250000
Si Si6 0.363244 0.875121 0.549588
O O1 0.326964 0.576401 0.911655
O O2 0.201602 0.534743 0.767951
O O3 0.478126 0.437174 0.927627
O O4 0.617828 0.581907 0.945860
O O5 0.544727 0.711966 0.492621
O O6 0.910100 0.608368 0.596111
O O7 0.162605 0.074627 0.774170
O O8 0.469149 0.951285 0.873368
O O9 0.668854 0.689723 0.846677
O O10 0.691150 0.813115 0.922377
O O11 0.935551 0.680266 0.027158
#
# Coordination Sequence:
#
# PCOD9283329 Si02
#       6
#     8   8   8   8   4   8
#     4   9  17  37  60  92 113 152 201 248 291 353
#     4   9  20  35  63  88 118 150 204 254 295 335
#     4  11  22  39  60  90 116 169 195 244 286 380
#     4  10  21  40  59  91 117 160 190 260 295 343
#     4  12  26  38  60  86 130 162 198 232 310 364
#     4   9  20  40  64  81 125 155 197 239 308 345
#
# _framework density 18.561858000000001
#
# number of rings (size 3 to 8) (size 9 to 14) (size 15 to 20)
#    0.000    2.182    1.818    1.636    2.545    1.455 
#    0.000    1.818    0.000    0.000    0.000    0.000 
#    0.000    0.000    0.000    0.000    0.000    0.000 
#
# Total GULP energy -122771.754448 kJ/mol
# GULP energy per Si atom -5580.534293 kJ/mol
# Density = 1.851961 g / cm^3
# Si number density = 18.561858 Si / 1000 Ang^3
#
#
#
# Elastic Constant Matrix: (Units=GPa)
#
#
# Indices 1 2 3 4 5 6 
#
# 1 59.6245 28.4845 25.4161 -0.0001 11.1370 0.0000
# 2 28.4845 82.7032 37.9417 -0.0002 2.5140 0.0000
# 3 25.4161 37.9417 95.2333 -0.0007 -1.7966 0.0002
# 4 -0.0001 -0.0002 -0.0007 23.8774 0.0001 1.3068
# 5 11.1370 2.5140 -1.7966 0.0001 25.8888 0.0000
# 6 0.0000 0.0000 0.0002 1.3068 0.0000 26.6317
#
#
#
# Elastic Compliance Matrix: (Units=1/GPa)
#
#
# Indices 1 2 3 4 5 6 
#
# 1 0.023059 -0.005803 -0.004024 0.000000 -0.009635 0.000000
# 2 -0.005803 0.016345 -0.004953 0.000000 0.000565 0.000000
# 3 -0.004024 -0.004953 0.013607 0.000000 0.003156 0.000000
# 4 0.000000 0.000000 0.000000 0.041993 0.000000 -0.002061
# 5 -0.009635 0.000565 0.003156 0.000000 0.042936 0.000000
# 6 0.000000 0.000000 0.000000 -0.002061 0.000000 0.037650
#
#
# Mechanical properties :
#
#
# Convention : Reuss Voigt Hill
#
# Bulk Modulus (GPa) = 42.64000 46.80506 44.72253
# Shear Modulus (GPa) = 23.47786 24.99417 24.23602
#
# Velocity S-wave (km/s) = 3.56032 3.67350 3.61735
# Velocity P-wave (km/s) = 6.31846 6.57748 6.44927
#
# Compressibility (1/GPa) = 0.02345216
#
# Stress axis : x y z
#
# Youngs Moduli (GPa) = 43.36728 61.18076 73.49103
#
# Poissons Ratio (x) = 0.35503 0.29571
# Poissons Ratio (y) = 0.25166 0.36397
# Poissons Ratio (z) = 0.17450 0.30300
#
# Static dielectric constant tensor:
#      x y z
#    x 1.661450 0.000000 0.001650 
#    y 0.000000 1.636210 0.000000 
#    z 0.001650 0.000000 1.606020 
# 
# From -- ./inp_files/123246.got.cif
#   From: 2010.05.17/outbox.cif.g08.bks.cpg/sg15_62_cif.got.tgz:123246.got - 2010.06.03 18:47:42.
