data_PCOD9283031
_publ_section_title
;
Structure prediction by ZEFSAII (Michael W. Deem and Ramdas Pophale) SiO2 
 PCOD9283031
Probable space group: C 2/C
;
_chemical_formula_sum "Si O2"
_cell_formula_units_Z 64
_cell_length_a 25.841529
_cell_length_b 7.596471
_cell_length_c 14.897582
_cell_angle_alpha 90.000000
_cell_angle_beta 81.329427
_cell_angle_gamma 90.000000
_cell_volume 2891.038908
_symmetry_space_group_name_H-M "C 2/C"
_symmetry_group_IT_number 15
_symmetry_cell_setting 'monoclinic'
loop_
_space_group_symop_operation_xyz
x,y,z
-x,y,1/2-z
-x,-y,-z
x,-y,1/2+z
1/2+x,1/2+y,z
1/2-x,1/2+y,1/2-z
1/2-x,1/2-y,-z
1/2+x,1/2-y,1/2+z
loop_
_atom_site_type_symbol
_atom_site_label
_atom_site_fract_x
_atom_site_fract_y
_atom_site_fract_z
Si Si1 0.669576 0.391923 0.706264
Si Si2 0.409331 0.289643 0.137570
Si Si3 0.397847 0.698428 0.118929
Si Si4 0.826801 0.495416 0.595126
Si Si5 0.747189 0.915710 0.219657
Si Si6 0.611384 0.678867 0.645173
Si Si7 0.786770 0.612975 0.438433
Si Si8 0.017586 0.193721 0.525886
O O1 0.623914 0.292418 0.773888
O O2 0.717776 0.256169 0.687715
O O3 0.694727 0.558725 0.755513
O O4 0.641013 0.488645 0.632377
O O5 0.398304 0.488125 0.104262
O O6 0.409400 0.298807 0.246691
O O7 0.465462 0.228611 0.083550
O O8 0.366356 0.155125 0.113110
O O9 0.356974 0.818170 0.076104
O O10 0.454297 0.767551 0.071518
O O11 0.788324 0.531158 0.687049
O O12 0.798413 0.462515 0.508649
O O13 0.744422 0.053532 0.140361
O O14 0.657538 0.816673 0.612157
O O15 0.563528 0.689061 0.588438
O O16 0.750000 0.750000 0.500000
O O17 0.000000 0.000000 0.500000
#
# Coordination Sequence:
#
# PCOD9283031 Si02
#       8
#     8   8   8   8   8   8   8   8
#     4  10  22  39  66  91 134 180 215 279 341 401
#     4  10  22  39  68  92 128 177 224 275 335 402
#     4   9  20  39  59  92 128 165 212 277 328 383
#     4  11  22  41  65  95 135 175 221 278 338 398
#     4  11  23  41  63  99 135 173 226 274 335 416
#     4  11  21  42  66  94 133 176 220 277 340 400
#     4  12  24  42  66  98 136 177 223 276 341 406
#     4  10  21  39  66  95 128 168 225 279 338 403
#
# _framework density 22.137370000000001
#
# number of rings (size 3 to 8) (size 9 to 14) (size 15 to 20)
#    0.000    1.500    2.500    3.375    1.750    2.500 
#    0.000    1.250    0.000    1.500    0.000    0.000 
#    0.000    0.000    0.000    0.000    0.000    0.000 
#
# Total GULP energy -178394.176292 kJ/mol
# GULP energy per Si atom -5574.818009 kJ/mol
# Density = 2.208698 g / cm^3
# Si number density = 22.137370 Si / 1000 Ang^3
#
#
#
# Elastic Constant Matrix: (Units=GPa)
#
#
# Indices 1 2 3 4 5 6 
#
# 1 82.2823 21.2780 16.3853 0.0000 -21.4776 0.0000
# 2 21.2780 51.5786 21.6535 0.0000 -8.0338 0.0000
# 3 16.3853 21.6535 78.5936 0.0000 -4.6721 0.0000
# 4 0.0000 0.0000 0.0000 27.2484 0.0000 9.9351
# 5 -21.4776 -8.0338 -4.6721 0.0000 39.6915 0.0000
# 6 0.0000 0.0000 0.0000 9.9351 0.0000 26.5170
#
#
#
# Elastic Compliance Matrix: (Units=1/GPa)
#
#
# Indices 1 2 3 4 5 6 
#
# 1 0.015565 -0.004640 -0.001532 0.000000 0.007303 0.000000
# 2 -0.004640 0.023876 -0.005511 0.000000 0.001673 0.000000
# 3 -0.001532 -0.005511 0.014548 0.000000 -0.000232 0.000000
# 4 0.000000 0.000000 0.000000 0.042506 0.000000 -0.015926
# 5 0.007303 0.001673 -0.000232 0.000000 0.029457 0.000000
# 6 0.000000 0.000000 0.000000 -0.015926 0.000000 0.043678
#
#
# Mechanical properties :
#
#
# Convention : Reuss Voigt Hill
#
# Bulk Modulus (GPa) = 32.65741 36.78757 34.72249
# Shear Modulus (GPa) = 24.60564 28.90058 26.75311
#
# Velocity S-wave (km/s) = 3.33753 3.61711 3.48013
# Velocity P-wave (km/s) = 5.44393 5.83940 5.64512
#
# Compressibility (1/GPa) = 0.03062092
#
# Stress axis : x y z
#
# Youngs Moduli (GPa) = 64.24877 41.88220 68.73886
#
# Poissons Ratio (x) = 0.19434 0.10533
# Poissons Ratio (y) = 0.29812 0.37885
# Poissons Ratio (z) = 0.09845 0.23083
#
# Static dielectric constant tensor:
#      x y z
#    x 1.817490 0.000000 -0.042330 
#    y 0.000000 1.904240 0.000000 
#    z -0.042330 0.000000 1.827540 
# 
# From -- ./inp_files/172381.got.cif
#   From: 2010.05.17/outbox.cif.g08.bks.cpg/sg15_87_cif.got.tgz:172381.got - 2010.06.03 18:47:42.
