data_PCOD9283231
_publ_section_title
;
Structure prediction by ZEFSAII (Michael W. Deem and Ramdas Pophale) SiO2 
 PCOD9283231
Probable space group: C 2/C
;
_chemical_formula_sum "Si O2"
_cell_formula_units_Z 40
_cell_length_a 26.697010
_cell_length_b 9.107303
_cell_length_c 13.659468
_cell_angle_alpha 90.000000
_cell_angle_beta 152.336844
_cell_angle_gamma 90.000000
_cell_volume 1541.910788
_symmetry_space_group_name_H-M "C 2/C"
_symmetry_group_IT_number 15
_symmetry_cell_setting 'monoclinic'
loop_
_space_group_symop_operation_xyz
x,y,z
-x,y,1/2-z
-x,-y,-z
x,-y,1/2+z
1/2+x,1/2+y,z
1/2-x,1/2+y,1/2-z
1/2-x,1/2-y,-z
1/2+x,1/2-y,1/2+z
loop_
_atom_site_type_symbol
_atom_site_label
_atom_site_fract_x
_atom_site_fract_y
_atom_site_fract_z
Si Si1 0.874118 0.902676 0.391616
Si Si2 0.510026 0.149611 0.657336
Si Si3 0.851590 0.554234 0.767175
Si Si4 0.842617 0.224135 0.422268
Si Si5 0.837802 0.866131 0.112195
O O1 0.981425 0.820758 0.613712
O O2 0.775009 0.795002 0.253704
O O3 0.891426 0.913470 0.304901
O O4 0.845332 0.061213 0.383022
O O5 0.500000 0.088522 0.750000
O O6 0.619345 0.108277 0.791551
O O7 0.423856 0.081556 0.430973
O O8 0.878615 0.674253 0.895316
O O9 0.729482 0.500081 0.550447
O O10 0.897453 0.211360 0.624982
O O11 0.750000 0.750000 0.000000
#
# Coordination Sequence:
#
# PCOD9283231 Si02
#       5
#     8   8   8   8   8
#     4  11  23  42  67 100 131 177 229 286 330 404
#     4  11  26  43  64  95 145 174 221 273 355 399
#     4  11  24  42  68 102 126 189 220 280 338 408
#     4  11  22  41  70  98 131 168 240 275 335 388
#     4  10  21  39  69  97 131 168 232 283 320 392
#
# _framework density 25.941839000000002
#
# number of rings (size 3 to 8) (size 9 to 14) (size 15 to 20)
#    0.000    1.200    6.000    0.000    8.400    3.200 
#    0.000    1.000    0.000    0.000    0.000    0.000 
#    0.000    0.000    0.000    0.000    0.000    0.000 
#
# Total GULP energy -111819.703268 kJ/mol
# GULP energy per Si atom -5590.985163 kJ/mol
# Density = 2.588279 g / cm^3
# Si number density = 25.941839 Si / 1000 Ang^3
#
#
#
# Elastic Constant Matrix: (Units=GPa)
#
#
# Indices 1 2 3 4 5 6 
#
# 1 151.5297 40.7026 45.7126 0.0000 -53.9076 0.0000
# 2 40.7026 141.1065 22.2595 0.0000 -12.4490 0.0000
# 3 45.7126 22.2595 89.4044 0.0000 -42.7149 0.0000
# 4 0.0000 0.0000 0.0000 23.0829 0.0000 -7.0541
# 5 -53.9076 -12.4490 -42.7149 0.0000 60.5369 0.0000
# 6 0.0000 0.0000 0.0000 -7.0541 0.0000 22.6374
#
#
#
# Elastic Compliance Matrix: (Units=1/GPa)
#
#
# Indices 1 2 3 4 5 6 
#
# 1 0.010331 -0.002125 -0.000855 0.000000 0.008159 0.000000
# 2 -0.002125 0.007818 -0.001502 0.000000 -0.001345 0.000000
# 3 -0.000855 -0.001502 0.017326 0.000000 0.011155 0.000000
# 4 0.000000 0.000000 0.000000 0.047882 0.000000 0.014921
# 5 0.008159 -0.001345 0.011155 0.000000 0.031379 0.000000
# 6 0.000000 0.000000 0.000000 0.014921 0.000000 0.048824
#
#
# Mechanical properties :
#
#
# Convention : Reuss Voigt Hill
#
# Bulk Modulus (GPa) = 37.72167 66.59890 52.16029
# Shear Modulus (GPa) = 27.56929 39.47585 33.52257
#
# Velocity S-wave (km/s) = 3.26350 3.90514 3.59865
# Velocity P-wave (km/s) = 5.36405 6.78687 6.11697
#
# Compressibility (1/GPa) = 0.02650996
#
# Stress axis : x y z
#
# Youngs Moduli (GPa) = 96.79769 127.90597 57.71754
#
# Poissons Ratio (x) = 0.27183 0.04933
# Poissons Ratio (y) = 0.20572 0.08672
# Poissons Ratio (z) = 0.08273 0.19217
#
# Static dielectric constant tensor:
#      x y z
#    x 2.092450 0.000000 0.070420 
#    y 0.000000 2.041650 0.000000 
#    z 0.070420 0.000000 2.035810 
# 
# From -- ./inp_files/125735.got.cif
#   From: 2010.05.17/outbox.cif.g08.bks.cpg/sg15_63_cif.got.tgz:125735.got - 2010.06.03 18:47:42.
