data_PCOD9283349
_publ_section_title
;
Structure prediction by ZEFSAII (Michael W. Deem and Ramdas Pophale) SiO2 
 PCOD9283349
Probable space group: C 2/C
;
_chemical_formula_sum "Si O2"
_cell_formula_units_Z 32
_cell_length_a 6.003059
_cell_length_b 18.975983
_cell_length_c 12.427523
_cell_angle_alpha 90.000000
_cell_angle_beta 75.919449
_cell_angle_gamma 90.000000
_cell_volume 1373.133938
_symmetry_space_group_name_H-M "C 2/C"
_symmetry_group_IT_number 15
_symmetry_cell_setting 'monoclinic'
loop_
_space_group_symop_operation_xyz
x,y,z
-x,y,1/2-z
-x,-y,-z
x,-y,1/2+z
1/2+x,1/2+y,z
1/2-x,1/2+y,1/2-z
1/2-x,1/2-y,-z
1/2+x,1/2-y,1/2+z
loop_
_atom_site_type_symbol
_atom_site_label
_atom_site_fract_x
_atom_site_fract_y
_atom_site_fract_z
Si Si1 0.280451 0.189448 0.349785
Si Si2 0.616386 0.601735 0.032376
Si Si3 0.831992 0.035047 0.869573
Si Si4 0.947944 0.669843 0.576147
O O1 0.500000 0.178241 0.250000
O O2 0.166213 0.266159 0.346313
O O3 0.364640 0.181726 0.463229
O O4 0.075096 0.133592 0.366674
O O5 0.485876 0.566673 0.947942
O O6 0.778886 0.662434 0.965722
O O7 0.755376 0.540788 0.078701
O O8 0.643530 0.094799 0.869997
O O9 0.000000 0.025332 0.750000
#
# Coordination Sequence:
#
# PCOD9283349 Si02
#       4
#     8   8   8   8
#     4  10  22  38  61  89 122 157 202 251 302 363
#     4  10  22  40  60  91 119 161 204 246 308 365
#     4  10  22  39  60  90 124 156 203 252 300 363
#     4  10  21  40  60  87 125 156 200 254 296 369
#
# _framework density 23.304354
#
# number of rings (size 3 to 8) (size 9 to 14) (size 15 to 20)
#    0.000    2.000    0.000    2.250    3.500    1.000 
#    0.000    2.500    0.000    0.000    0.000    0.000 
#    0.000    0.000    0.000    0.000    0.000    0.000 
#
# Total GULP energy -89471.177680 kJ/mol
# GULP energy per Si atom -5591.948605 kJ/mol
# Density = 2.325131 g / cm^3
# Si number density = 23.304354 Si / 1000 Ang^3
#
#
#
# Elastic Constant Matrix: (Units=GPa)
#
#
# Indices 1 2 3 4 5 6 
#
# 1 58.1880 25.9261 11.5840 0.0000 -26.0735 0.0000
# 2 25.9261 97.7122 16.1461 0.0000 -18.4278 0.0000
# 3 11.5840 16.1461 75.0834 0.0000 -28.9933 0.0000
# 4 0.0000 0.0000 0.0000 14.9164 0.0000 -35.3276
# 5 -26.0735 -18.4278 -28.9933 0.0000 36.9911 0.0000
# 6 0.0000 0.0000 0.0000 -35.3276 0.0000 -0.8673
#
#
#
# Elastic Compliance Matrix: (Units=1/GPa)
#
#
# Indices 1 2 3 4 5 6 
#
# 1 0.027520 -0.004114 0.004787 0.000000 0.021100 0.000000
# 2 -0.004114 0.011917 -0.001083 0.000000 0.002188 0.000000
# 3 0.004787 -0.001083 0.019944 0.000000 0.018466 0.000000
# 4 0.000000 0.000000 0.000000 0.000688 0.000000 -0.028016
# 5 0.021100 0.002188 0.018466 0.000000 0.057470 0.000000
# 6 0.000000 0.000000 0.000000 -0.028016 0.000000 -0.011829
#
#
# Mechanical properties :
#
#
# Convention : Reuss Voigt Hill
#
# Bulk Modulus (GPa) = 17.07614 37.58845 27.33229
# Shear Modulus (GPa) = 39.66669 22.02986 30.84828
#
# Velocity S-wave (km/s) = 4.13015 3.07793 3.64223
# Velocity P-wave (km/s) = 5.48521 5.36618 5.42602
#
# Compressibility (1/GPa) = 0.05856126
#
# Stress axis : x y z
#
# Youngs Moduli (GPa) = 36.33656 83.91177 50.14163
#
# Poissons Ratio (x) = 0.34518 -0.24001
# Poissons Ratio (y) = 0.14947 0.05430
# Poissons Ratio (z) = -0.17393 0.09088
#
# Static dielectric constant tensor:
#      x y z
#    x 1.869670 0.000000 0.015900 
#    y 0.000000 1.908250 0.000000 
#    z 0.015900 0.000000 1.831680 
# 
# From -- ./inp_files/88059.got.cif
#   From: 2010.05.17/outbox.cif.g08.bks.cpg/sg15_45_cif.got.tgz:88059.got - 2010.06.03 18:47:42.
