data_PCOD9283560
_publ_section_title
;
Structure prediction by ZEFSAII (Michael W. Deem and Ramdas Pophale) SiO2 
 PCOD9283560
Probable space group: C 2/C
;
_chemical_formula_sum "Si O2"
_cell_formula_units_Z 56
_cell_length_a 26.291541
_cell_length_b 9.931629
_cell_length_c 11.518568
_cell_angle_alpha 90.000000
_cell_angle_beta 60.300979
_cell_angle_gamma 90.000000
_cell_volume 2612.611502
_symmetry_space_group_name_H-M "C 2/C"
_symmetry_group_IT_number 15
_symmetry_cell_setting 'monoclinic'
loop_
_space_group_symop_operation_xyz
x,y,z
-x,y,1/2-z
-x,-y,-z
x,-y,1/2+z
1/2+x,1/2+y,z
1/2-x,1/2+y,1/2-z
1/2-x,1/2-y,-z
1/2+x,1/2-y,1/2+z
loop_
_atom_site_type_symbol
_atom_site_label
_atom_site_fract_x
_atom_site_fract_y
_atom_site_fract_z
Si Si1 0.396152 0.967752 0.892745
Si Si2 0.870543 0.170860 0.112670
Si Si3 0.065226 0.176003 0.678685
Si Si4 0.934847 0.441506 0.094853
Si Si5 0.247862 0.773615 0.312061
Si Si6 0.839061 0.898490 0.268519
Si Si7 0.233425 0.522103 0.503546
O O1 0.434232 0.832769 0.852864
O O2 0.418822 0.037455 0.749017
O O3 0.327827 0.947075 0.942081
O O4 0.400657 0.013198 0.023525
O O5 0.917124 0.283160 0.101461
O O6 0.807265 0.242311 0.174397
O O7 0.859468 0.047724 0.209957
O O8 0.895164 0.110515 0.965732
O O9 0.102047 0.169229 0.753866
O O10 0.000000 0.121831 0.750000
O O11 0.000000 0.500000 0.000000
O O12 0.193556 0.816487 0.294965
O O13 0.234872 0.642344 0.405422
O O14 0.261889 0.899534 0.380439
O O15 0.787938 0.924736 0.420414
#
# Coordination Sequence:
#
# PCOD9283560 Si02
#       7
#     8   8   8   8   8   8   8
#     4  11  23  40  68  95 133 173 218 281 337 390
#     4  10  22  43  63  92 135 169 215 284 333 392
#     4  11  25  43  60  91 131 172 224 277 324 398
#     4  11  22  41  65  96 133 175 223 277 326 387
#     4  10  21  40  62  95 132 161 211 271 334 403
#     4  11  23  39  68  92 125 178 213 265 346 409
#     4  10  22  38  63  97 130 160 213 279 329 401
#
# _framework density 21.434491999999999
#
# number of rings (size 3 to 8) (size 9 to 14) (size 15 to 20)
#    0.000    1.429    1.429    4.714    2.000    4.000 
#    0.000    1.429    0.000    0.000    0.000    0.000 
#    0.000    0.000    0.000    0.000    0.000    0.000 
#
# Total GULP energy -156045.309679 kJ/mol
# GULP energy per Si atom -5573.046774 kJ/mol
# Density = 2.138571 g / cm^3
# Si number density = 21.434492 Si / 1000 Ang^3
#
#
#
# Elastic Constant Matrix: (Units=GPa)
#
#
# Indices 1 2 3 4 5 6 
#
# 1 126.9395 -0.7114 44.0508 0.0000 -18.5909 0.0000
# 2 -0.7114 19.6579 5.4240 0.0000 -2.6502 0.0000
# 3 44.0508 5.4240 84.1920 0.0000 -0.5607 0.0000
# 4 0.0000 0.0000 0.0000 10.8391 0.0000 2.6124
# 5 -18.5909 -2.6502 -0.5607 0.0000 30.3883 0.0000
# 6 0.0000 0.0000 0.0000 2.6124 0.0000 24.2091
#
#
#
# Elastic Compliance Matrix: (Units=1/GPa)
#
#
# Indices 1 2 3 4 5 6 
#
# 1 0.010929 0.002934 -0.005862 0.000000 0.006834 0.000000
# 2 0.002934 0.053189 -0.004920 0.000000 0.006343 0.000000
# 3 -0.005862 -0.004920 0.015237 0.000000 -0.003734 0.000000
# 4 0.000000 0.000000 0.000000 0.094722 0.000000 -0.010221
# 5 0.006834 0.006343 -0.003734 0.000000 0.037573 0.000000
# 6 0.000000 0.000000 0.000000 -0.010221 0.000000 0.042410
#
#
# Mechanical properties :
#
#
# Convention : Reuss Voigt Hill
#
# Bulk Modulus (GPa) = 15.70839 36.47960 26.09399
# Shear Modulus (GPa) = 17.18367 25.22237 21.20302
#
# Velocity S-wave (km/s) = 2.83447 3.43406 3.14857
# Velocity P-wave (km/s) = 4.24933 5.72536 5.04165
#
# Compressibility (1/GPa) = 0.06366026
#
# Stress axis : x y z
#
# Youngs Moduli (GPa) = 91.49698 18.80093 65.63065
#
# Poissons Ratio (x) = -0.05517 0.38472
# Poissons Ratio (y) = -0.26848 0.32288
# Poissons Ratio (z) = 0.53635 0.09250
#
# Static dielectric constant tensor:
#      x y z
#    x 1.779420 0.000000 0.073580 
#    y 0.000000 1.780450 0.000000 
#    z 0.073580 0.000000 1.923850 
# 
# From -- ./inp_files/117484.got.cif
#   From: 2010.05.17/outbox.cif.g08.bks.cpg/sg15_59_cif.got.tgz:117484.got - 2010.06.03 18:47:42.
