data_PCOD9283838
_publ_section_title
;
Structure prediction by ZEFSAII (Michael W. Deem and Ramdas Pophale) SiO2 
 PCOD9283838
Probable space group: C 2/C
;
_chemical_formula_sum "Si O2"
_cell_formula_units_Z 64
_cell_length_a 17.466360
_cell_length_b 11.712514
_cell_length_c 14.155800
_cell_angle_alpha 90.000000
_cell_angle_beta 90.038332
_cell_angle_gamma 90.000000
_cell_volume 2895.921939
_symmetry_space_group_name_H-M "C 2/C"
_symmetry_group_IT_number 15
_symmetry_cell_setting 'monoclinic'
loop_
_space_group_symop_operation_xyz
x,y,z
-x,y,1/2-z
-x,-y,-z
x,-y,1/2+z
1/2+x,1/2+y,z
1/2-x,1/2+y,1/2-z
1/2-x,1/2-y,-z
1/2+x,1/2-y,1/2+z
loop_
_atom_site_type_symbol
_atom_site_label
_atom_site_fract_x
_atom_site_fract_y
_atom_site_fract_z
Si Si1 0.324906 0.037666 0.092732
Si Si2 0.860931 0.204772 0.268701
Si Si3 0.917072 0.822035 0.567709
Si Si4 0.321795 0.371284 0.405252
Si Si5 0.858431 0.418813 0.376404
Si Si6 0.024368 0.404150 0.425582
Si Si7 0.702222 0.854207 0.718643
Si Si8 0.034793 0.977487 0.646943
O O1 0.247360 0.961816 0.099073
O O2 0.395733 0.952664 0.112492
O O3 0.326930 0.133915 0.173557
O O4 0.335586 0.085887 0.986745
O O5 0.909183 0.224815 0.174571
O O6 0.823688 0.315491 0.315886
O O7 0.792780 0.125452 0.230747
O O8 0.913257 0.136182 0.341319
O O9 0.836934 0.832895 0.513625
O O10 0.962562 0.716579 0.522041
O O11 0.964332 0.938594 0.580880
O O12 0.309331 0.264146 0.336432
O O13 0.404620 0.427227 0.382520
O O14 0.834740 0.542110 0.339015
O O15 0.949285 0.398287 0.361324
O O16 0.000000 0.500000 0.500000
O O17 0.000000 0.004596 0.750000
#
# Coordination Sequence:
#
# PCOD9283838 Si02
#       8
#     8   8   8   8   8   8   8   8
#     4  11  25  44  67 100 135 181 224 282 350 407
#     4  11  23  43  70  97 134 175 236 274 335 407
#     4  11  22  41  72  96 129 186 226 282 331 407
#     4  12  24  46  66 102 140 178 234 280 344 412
#     4  11  24  44  69  99 136 179 229 285 345 407
#     4  10  21  40  64  99 132 167 227 270 337 407
#     4  12  25  42  68 100 138 176 223 289 343 402
#     4  10  23  45  67  97 132 182 228 276 337 413
#
# _framework density 22.100041999999998
#
# number of rings (size 3 to 8) (size 9 to 14) (size 15 to 20)
#    0.000    1.000    2.500    4.875    0.000    3.500 
#    6.750    0.000    0.000    0.000    0.000    0.000 
#    0.000    0.000    0.000    0.000    0.000    0.000 
#
# Total GULP energy -178678.352796 kJ/mol
# GULP energy per Si atom -5583.698525 kJ/mol
# Density = 2.204974 g / cm^3
# Si number density = 22.100042 Si / 1000 Ang^3
#
#
#
# Elastic Constant Matrix: (Units=GPa)
#
#
# Indices 1 2 3 4 5 6 
#
# 1 100.2284 8.8611 18.8597 0.0000 12.6416 0.0000
# 2 8.8611 51.6901 33.5613 0.0000 -1.9440 0.0000
# 3 18.8597 33.5613 117.8983 0.0000 2.3363 0.0000
# 4 0.0000 0.0000 0.0000 31.4372 0.0000 2.5039
# 5 12.6416 -1.9440 2.3363 0.0000 36.5151 0.0000
# 6 0.0000 0.0000 0.0000 2.5039 0.0000 34.4643
#
#
#
# Elastic Compliance Matrix: (Units=1/GPa)
#
#
# Indices 1 2 3 4 5 6 
#
# 1 0.010796 -0.001125 -0.001333 0.000000 -0.003712 0.000000
# 2 -0.001125 0.023955 -0.006681 0.000000 0.002092 0.000000
# 3 -0.001333 -0.006681 0.010608 0.000000 -0.000573 0.000000
# 4 0.000000 0.000000 0.000000 0.031995 0.000000 -0.002325
# 5 -0.003712 0.002092 -0.000573 0.000000 0.028819 0.000000
# 6 0.000000 0.000000 0.000000 -0.002325 0.000000 0.029184
#
#
# Mechanical properties :
#
#
# Convention : Reuss Voigt Hill
#
# Bulk Modulus (GPa) = 36.92496 43.59791 40.26143
# Shear Modulus (GPa) = 30.73863 34.38564 32.56214
#
# Velocity S-wave (km/s) = 3.73350 3.94878 3.84265
# Velocity P-wave (km/s) = 5.94388 6.36874 6.15998
#
# Compressibility (1/GPa) = 0.02708196
#
# Stress axis : x y z
#
# Youngs Moduli (GPa) = 92.62934 41.74461 94.26608
#
# Poissons Ratio (x) = 0.04695 0.12568
# Poissons Ratio (y) = 0.10418 0.62977
# Poissons Ratio (z) = 0.12350 0.27888
#
# Static dielectric constant tensor:
#      x y z
#    x 1.911440 0.000000 0.008900 
#    y 0.000000 1.855160 0.000000 
#    z 0.008900 0.000000 1.897970 
# 
# From -- ./inp_files/161328.got.cif
#   From: 2010.05.17/outbox.cif.g08.bks.cpg/sg15_81_cif.got.tgz:161328.got - 2010.06.03 18:47:42.
