data_PCOD9283306
_publ_section_title
;
Structure prediction by ZEFSAII (Michael W. Deem and Ramdas Pophale) SiO2 
 PCOD9283306
Probable space group: C 2/C
;
_chemical_formula_sum "Si O2"
_cell_formula_units_Z 40
_cell_length_a 9.247946
_cell_length_b 10.598335
_cell_length_c 18.254914
_cell_angle_alpha 90.000000
_cell_angle_beta 89.866678
_cell_angle_gamma 90.000000
_cell_volume 1789.210934
_symmetry_space_group_name_H-M "C 2/C"
_symmetry_group_IT_number 15
_symmetry_cell_setting 'monoclinic'
loop_
_space_group_symop_operation_xyz
x,y,z
-x,y,1/2-z
-x,-y,-z
x,-y,1/2+z
1/2+x,1/2+y,z
1/2-x,1/2+y,1/2-z
1/2-x,1/2-y,-z
1/2+x,1/2-y,1/2+z
loop_
_atom_site_type_symbol
_atom_site_label
_atom_site_fract_x
_atom_site_fract_y
_atom_site_fract_z
Si Si1 0.652934 0.628896 0.581939
Si Si2 0.681022 0.995038 0.554199
Si Si3 0.588922 0.816875 0.944808
Si Si4 0.665934 0.343158 0.836507
Si Si5 0.157805 0.867619 0.663711
O O1 0.746663 0.584001 0.512503
O O2 0.504741 0.690112 0.552340
O O3 0.735665 0.736023 0.627368
O O4 0.635768 0.510239 0.634981
O O5 0.527075 0.929878 0.571744
O O6 0.784358 0.971487 0.622803
O O7 0.658532 0.133229 0.520408
O O8 0.706833 0.815654 0.881154
O O9 0.686101 0.358600 0.750031
O O10 0.499172 0.307440 0.850428
#
# Coordination Sequence:
#
# PCOD9283306 Si02
#       5
#     8   8   8   8   8
#     4  10  21  41  61  81 118 156 185 238 296 333
#     4   9  19  38  61  87 116 150 190 241 288 335
#     4   9  18  36  61  85 113 150 195 231 281 345
#     4  10  21  40  59  83 123 150 188 245 284 335
#     4  10  23  38  56  86 117 153 192 233 284 344
#
# _framework density 22.356224999999998
#
# number of rings (size 3 to 8) (size 9 to 14) (size 15 to 20)
#    0.000    2.400    0.000    2.400    0.000    9.600 
#    0.000   41.000    0.000    0.000    0.000    0.000 
#    0.000    0.000    0.000    0.000    0.000    0.000 
#
# Total GULP energy -111887.826309 kJ/mol
# GULP energy per Si atom -5594.391315 kJ/mol
# Density = 2.230534 g / cm^3
# Si number density = 22.356225 Si / 1000 Ang^3
#
#
#
# Elastic Constant Matrix: (Units=GPa)
#
#
# Indices 1 2 3 4 5 6 
#
# 1 151.4364 34.1841 78.7254 0.0000 -16.4639 0.0000
# 2 34.1841 76.0583 28.8506 0.0000 -2.8536 0.0000
# 3 78.7254 28.8506 128.3476 0.0000 -0.1856 0.0000
# 4 0.0000 0.0000 0.0000 16.8865 0.0000 4.6008
# 5 -16.4639 -2.8536 -0.1856 0.0000 40.1766 0.0000
# 6 0.0000 0.0000 0.0000 4.6008 0.0000 34.0608
#
#
#
# Elastic Compliance Matrix: (Units=1/GPa)
#
#
# Indices 1 2 3 4 5 6 
#
# 1 0.010741 -0.002376 -0.006048 0.000000 0.004205 0.000000
# 2 -0.002376 0.014940 -0.001901 0.000000 0.000079 0.000000
# 3 -0.006048 -0.001901 0.011925 0.000000 -0.002558 0.000000
# 4 0.000000 0.000000 0.000000 0.061482 0.000000 -0.008305
# 5 0.004205 0.000079 -0.002558 0.000000 0.026607 0.000000
# 6 0.000000 0.000000 0.000000 -0.008305 0.000000 0.030481
#
#
# Mechanical properties :
#
#
# Convention : Reuss Voigt Hill
#
# Bulk Modulus (GPa) = 58.97658 71.04028 65.00843
# Shear Modulus (GPa) = 27.40079 32.49691 29.94885
#
# Velocity S-wave (km/s) = 3.50472 3.81674 3.66405
# Velocity P-wave (km/s) = 6.54332 7.16023 6.85871
#
# Compressibility (1/GPa) = 0.01695588
#
# Stress axis : x y z
#
# Youngs Moduli (GPa) = 93.10086 66.93655 83.85884
#
# Poissons Ratio (x) = 0.15901 0.50720
# Poissons Ratio (y) = 0.22116 0.15941
# Poissons Ratio (z) = 0.56310 0.12724
#
# Static dielectric constant tensor:
#      x y z
#    x 1.846700 0.000000 0.024170 
#    y 0.000000 1.891090 0.000000 
#    z 0.024170 0.000000 1.769530 
# 
# From -- ./inp_files/187971.got.cif
#   From: 2010.05.17/outbox.cif.g08.bks.cpg/sg15_94_cif.got.tgz:187971.got - 2010.06.03 18:47:42.
