data_PCOD9283382
_publ_section_title
;
Structure prediction by ZEFSAII (Michael W. Deem and Ramdas Pophale) SiO2 
 PCOD9283382
Probable space group: C 2/C
;
_chemical_formula_sum "Si O2"
_cell_formula_units_Z 56
_cell_length_a 11.831477
_cell_length_b 8.554953
_cell_length_c 28.851448
_cell_angle_alpha 90.000000
_cell_angle_beta 114.015258
_cell_angle_gamma 90.000000
_cell_volume 2667.490356
_symmetry_space_group_name_H-M "C 2/C"
_symmetry_group_IT_number 15
_symmetry_cell_setting 'monoclinic'
loop_
_space_group_symop_operation_xyz
x,y,z
-x,y,1/2-z
-x,-y,-z
x,-y,1/2+z
1/2+x,1/2+y,z
1/2-x,1/2+y,1/2-z
1/2-x,1/2-y,-z
1/2+x,1/2-y,1/2+z
loop_
_atom_site_type_symbol
_atom_site_label
_atom_site_fract_x
_atom_site_fract_y
_atom_site_fract_z
Si Si1 0.074267 0.297271 0.510182
Si Si2 0.704227 0.924455 0.445902
Si Si3 0.882506 0.266883 0.158790
Si Si4 0.807447 0.516203 0.389103
Si Si5 0.285054 0.247881 0.952187
Si Si6 0.645303 0.048592 0.275160
Si Si7 0.154942 0.320652 0.191929
O O1 0.160576 0.145199 0.520129
O O2 0.126203 0.417187 0.480101
O O3 0.102201 0.373642 0.565160
O O4 0.933845 0.256481 0.475942
O O5 0.644417 0.807926 0.399191
O O6 0.723499 0.091406 0.425502
O O7 0.793593 0.121994 0.153582
O O8 0.846370 0.416683 0.183484
O O9 0.028288 0.238493 0.187835
O O10 0.743126 0.400039 0.415356
O O11 0.869866 0.407854 0.360959
O O12 0.250000 0.250000 0.000000
O O13 0.500000 0.096057 0.250000
O O14 0.735729 0.195746 0.295654
O O15 0.679274 0.954901 0.233914
#
# Coordination Sequence:
#
# PCOD9283382 Si02
#       7
#     8   8   8   8   8   8   8
#     4  10  22  40  58  84 124 167 212 254 306 352
#     4  10  21  40  61  84 121 168 209 259 302 358
#     4  10  23  42  62  90 127 157 205 252 309 367
#     4  11  23  41  60  92 124 164 208 253 301 366
#     4  12  23  36  58  88 124 165 213 255 299 353
#     4  10  23  44  66  95 120 154 197 251 311 374
#     4  11  23  42  69  90 124 158 195 254 312 368
#
# _framework density 20.993517000000001
#
# number of rings (size 3 to 8) (size 9 to 14) (size 15 to 20)
#    0.000    1.429    1.429    3.429    2.000    1.143 
#    7.714    0.000    0.000    0.000    0.000    0.000 
#    0.000    0.000    0.000    0.000    0.000    0.000 
#
# Total GULP energy -156417.524544 kJ/mol
# GULP energy per Si atom -5586.340162 kJ/mol
# Density = 2.094573 g / cm^3
# Si number density = 20.993517 Si / 1000 Ang^3
#
#
#
# Elastic Constant Matrix: (Units=GPa)
#
#
# Indices 1 2 3 4 5 6 
#
# 1 101.6166 33.0787 16.2173 0.0000 1.4586 0.0000
# 2 33.0787 49.4839 -7.6341 0.0000 6.1136 0.0000
# 3 16.2173 -7.6341 61.6916 0.0000 -16.6826 0.0000
# 4 0.0000 0.0000 0.0000 31.5720 0.0000 1.1920
# 5 1.4586 6.1136 -16.6826 0.0000 28.2764 0.0000
# 6 0.0000 0.0000 0.0000 1.1920 0.0000 37.3578
#
#
#
# Elastic Compliance Matrix: (Units=1/GPa)
#
#
# Indices 1 2 3 4 5 6 
#
# 1 0.013961 -0.009946 -0.005371 0.000000 -0.001738 0.000000
# 2 -0.009946 0.027985 0.005450 0.000000 -0.002322 0.000000
# 3 -0.005371 0.005450 0.021479 0.000000 0.011771 0.000000
# 4 0.000000 0.000000 0.000000 0.031712 0.000000 -0.001012
# 5 -0.001738 -0.002322 0.011771 0.000000 0.042902 0.000000
# 6 0.000000 0.000000 0.000000 -0.001012 0.000000 0.026800
#
#
# Mechanical properties :
#
#
# Convention : Reuss Voigt Hill
#
# Bulk Modulus (GPa) = 22.88850 32.90178 27.89514
# Shear Modulus (GPa) = 25.10832 30.84992 27.97912
#
# Velocity S-wave (km/s) = 3.46208 3.83756 3.65465
# Velocity P-wave (km/s) = 5.18726 5.94493 5.57897
#
# Compressibility (1/GPa) = 0.04369006
#
# Stress axis : x y z
#
# Youngs Moduli (GPa) = 71.62931 35.73332 46.55693
#
# Poissons Ratio (x) = 0.35541 0.25005
# Poissons Ratio (y) = 0.71244 -0.25372
# Poissons Ratio (z) = 0.38471 -0.19474
#
# Static dielectric constant tensor:
#      x y z
#    x 1.760240 0.000000 -0.001420 
#    y 0.000000 1.796110 0.000000 
#    z -0.001420 0.000000 1.780790 
# 
# From -- ./inp_files/291606.got.cif
#   From: 2010.05.17/outbox.cif.g08.bks.cpg/sg15_146_cif.got.tgz:291606.got - 2010.06.03 18:47:42.
