data_PCOD9283639
_publ_section_title
;
Structure prediction by ZEFSAII (Michael W. Deem and Ramdas Pophale) SiO2 
 PCOD9283639
Probable space group: C 2/C
;
_chemical_formula_sum "Si O2"
_cell_formula_units_Z 32
_cell_length_a 12.105222
_cell_length_b 21.049348
_cell_length_c 8.228053
_cell_angle_alpha 90.000000
_cell_angle_beta 32.883617
_cell_angle_gamma 90.000000
_cell_volume 1138.297562
_symmetry_space_group_name_H-M "C 2/C"
_symmetry_group_IT_number 15
_symmetry_cell_setting 'monoclinic'
loop_
_space_group_symop_operation_xyz
x,y,z
-x,y,1/2-z
-x,-y,-z
x,-y,1/2+z
1/2+x,1/2+y,z
1/2-x,1/2+y,1/2-z
1/2-x,1/2-y,-z
1/2+x,1/2-y,1/2+z
loop_
_atom_site_type_symbol
_atom_site_label
_atom_site_fract_x
_atom_site_fract_y
_atom_site_fract_z
Si Si1 0.682302 0.941612 0.148727
Si Si2 0.854941 0.843510 0.693429
Si Si3 0.649801 0.447928 0.235006
Si Si4 0.913852 0.268691 0.699027
O O1 0.500000 0.942389 0.250000
O O2 0.675232 0.933517 0.349082
O O3 0.806317 0.883571 0.913583
O O4 0.768825 0.013230 0.016663
O O5 0.662428 0.829216 0.811824
O O6 0.016616 0.885334 0.393180
O O7 0.974697 0.778000 0.566488
O O8 0.500000 0.500000 0.500000
O O9 0.157297 0.270966 0.515209
#
# Coordination Sequence:
#
# PCOD9283639 Si02
#       4
#     8   8   8   8
#     4  11  24  43  66  96 127 167 216 263 321 385
#     4  10  21  40  63  91 126 165 212 265 313 375
#     4  10  22  43  66  93 127 167 210 264 323 378
#     4   9  20  38  61  94 128 167 214 256 314 384
#
# _framework density 28.112158999999998
#
# number of rings (size 3 to 8) (size 9 to 14) (size 15 to 20)
#    0.000    2.000    0.000    3.750    0.000   16.000 
#    0.000   17.500    0.000    0.000    0.000    0.000 
#    0.000    0.000    0.000    0.000    0.000    0.000 
#
# Total GULP energy -89081.071382 kJ/mol
# GULP energy per Si atom -5567.566961 kJ/mol
# Density = 2.804817 g / cm^3
# Si number density = 28.112159 Si / 1000 Ang^3
#
#
#
# Elastic Constant Matrix: (Units=GPa)
#
#
# Indices 1 2 3 4 5 6 
#
# 1 213.1836 54.0945 28.6528 -0.0001 -20.3323 0.0000
# 2 54.0945 122.3803 16.9770 0.0000 -16.8535 0.0000
# 3 28.6528 16.9770 58.9118 -0.0004 -26.2088 -0.0001
# 4 -0.0001 0.0000 -0.0004 20.2640 0.0002 -44.3583
# 5 -20.3323 -16.8535 -26.2088 0.0002 46.0323 0.0000
# 6 0.0000 0.0000 -0.0001 -44.3583 0.0000 24.2526
#
#
#
# Elastic Compliance Matrix: (Units=1/GPa)
#
#
# Indices 1 2 3 4 5 6 
#
# 1 0.005528 -0.002105 -0.001793 0.000000 0.000650 0.000000
# 2 -0.002105 0.009500 -0.000777 0.000000 0.002106 0.000000
# 3 -0.001793 -0.000777 0.023559 0.000000 0.012337 0.000000
# 4 0.000000 0.000000 0.000000 -0.016429 0.000000 -0.030049
# 5 0.000650 0.002106 0.012337 0.000000 0.029806 0.000000
# 6 0.000000 0.000000 0.000000 -0.030049 0.000000 -0.013727
#
#
# Mechanical properties :
#
#
# Convention : Reuss Voigt Hill
#
# Bulk Modulus (GPa) = 34.20317 65.99159 50.09738
# Shear Modulus (GPa) = 87.21225 37.75989 62.48607
#
# Velocity S-wave (km/s) = 5.57587 3.66893 4.71971
# Velocity P-wave (km/s) = 7.32440 6.43998 6.89638
#
# Compressibility (1/GPa) = 0.02923706
#
# Stress axis : x y z
#
# Youngs Moduli (GPa) = 180.89914 105.26789 42.44694
#
# Poissons Ratio (x) = 0.22161 0.07609
# Poissons Ratio (y) = 0.38083 0.03297
# Poissons Ratio (z) = 0.32429 0.08177
#
# Static dielectric constant tensor:
#      x y z
#    x 7.180970 0.000000 -6.241590 
#    y 0.000000 2.260260 0.000000 
#    z -6.241590 0.000000 10.181450 
# 
# From -- ./inp_files/98616.got.cif
#   From: 2010.05.17/outbox.cif.g08.bks.cpg/sg15_50_cif.got.tgz:98616.got - 2010.06.03 18:47:42.
