data_PCOD9283172
_publ_section_title
;
Structure prediction by ZEFSAII (Michael W. Deem and Ramdas Pophale) SiO2 
 PCOD9283172
Probable space group: C 2/C
;
_chemical_formula_sum "Si O2"
_cell_formula_units_Z 52
_cell_length_a 24.737604
_cell_length_b 11.901655
_cell_length_c 14.861052
_cell_angle_alpha 90.000000
_cell_angle_beta 145.884056
_cell_angle_gamma 90.000000
_cell_volume 2454.009793
_symmetry_space_group_name_H-M "C 2/C"
_symmetry_group_IT_number 15
_symmetry_cell_setting 'monoclinic'
loop_
_space_group_symop_operation_xyz
x,y,z
-x,y,1/2-z
-x,-y,-z
x,-y,1/2+z
1/2+x,1/2+y,z
1/2-x,1/2+y,1/2-z
1/2-x,1/2-y,-z
1/2+x,1/2-y,1/2+z
loop_
_atom_site_type_symbol
_atom_site_label
_atom_site_fract_x
_atom_site_fract_y
_atom_site_fract_z
Si Si1 0.246515 0.112366 0.935796
Si Si2 0.796056 0.299206 0.198234
Si Si3 0.118035 0.328007 0.533459
Si Si4 0.599125 0.090383 0.498086
Si Si5 0.000000 0.152530 0.250000
Si Si6 0.659459 0.607019 0.352633
Si Si7 0.892041 0.319546 0.767291
O O1 0.327774 0.143668 0.974397
O O2 0.158667 0.199453 0.823225
O O3 0.201703 0.992408 0.852464
O O4 0.307532 0.101086 0.111692
O O5 0.725269 0.218315 0.158766
O O6 0.849614 0.386353 0.335522
O O7 0.866290 0.213410 0.244102
O O8 0.735760 0.354448 0.033961
O O9 0.096427 0.456648 0.474642
O O10 0.098090 0.325681 0.612119
O O11 0.056854 0.237516 0.393341
O O12 0.493034 0.145729 0.359846
O O13 0.932873 0.075007 0.217710
#
# Coordination Sequence:
#
# PCOD9283172 Si02
#       7
#     8   8   8   8   4   8   8
#     4  11  24  44  64  93 136 171 212 263 323 381
#     4  10  21  39  68  95 128 165 215 273 314 376
#     4  11  22  41  66  96 130 165 216 272 314 378
#     4  12  23  41  69  94 128 174 215 260 327 376
#     4  10  24  40  68  98 126 162 226 268 322 380
#     4  10  21  43  65  94 129 169 213 272 322 372
#     4  11  25  42  63  98 132 167 220 263 313 393
#
# _framework density 21.189810000000001
#
# number of rings (size 3 to 8) (size 9 to 14) (size 15 to 20)
#    0.000    1.231    3.077    2.769    2.154    0.000 
#    5.538    4.615    0.000    0.000    0.000    0.000 
#    0.000    0.000    0.000    0.000    0.000    0.000 
#
# Total GULP energy -145017.788695 kJ/mol
# GULP energy per Si atom -5577.607258 kJ/mol
# Density = 2.114158 g / cm^3
# Si number density = 21.189810 Si / 1000 Ang^3
#
#
#
# Elastic Constant Matrix: (Units=GPa)
#
#
# Indices 1 2 3 4 5 6 
#
# 1 96.9673 20.7674 12.8305 0.0000 26.7294 0.0000
# 2 20.7674 64.7272 10.5438 0.0000 16.7428 0.0000
# 3 12.8305 10.5438 58.2762 0.0000 4.0751 0.0000
# 4 0.0000 0.0000 0.0000 10.5079 0.0000 -3.5357
# 5 26.7294 16.7428 4.0751 0.0000 40.1784 0.0000
# 6 0.0000 0.0000 0.0000 -3.5357 0.0000 25.6778
#
#
#
# Elastic Compliance Matrix: (Units=1/GPa)
#
#
# Indices 1 2 3 4 5 6 
#
# 1 0.013114 -0.001879 -0.002006 0.000000 -0.007737 0.000000
# 2 -0.001879 0.018000 -0.002423 0.000000 -0.006005 0.000000
# 3 -0.002006 -0.002423 0.018004 0.000000 0.000518 0.000000
# 4 0.000000 0.000000 0.000000 0.099790 0.000000 0.013741
# 5 -0.007737 -0.006005 0.000518 0.000000 0.032486 0.000000
# 6 0.000000 0.000000 0.000000 0.013741 0.000000 0.040836
#
#
# Mechanical properties :
#
#
# Convention : Reuss Voigt Hill
#
# Bulk Modulus (GPa) = 27.39681 34.25045 30.82363
# Shear Modulus (GPa) = 20.24180 26.99475 23.61828
#
# Velocity S-wave (km/s) = 3.09408 3.57312 3.34219
# Velocity P-wave (km/s) = 5.07166 5.76382 5.42878
#
# Compressibility (1/GPa) = 0.03650060
#
# Stress axis : x y z
#
# Youngs Moduli (GPa) = 76.25710 55.55433 55.54471
#
# Poissons Ratio (x) = 0.10440 0.11143
# Poissons Ratio (y) = 0.14330 0.13459
# Poissons Ratio (z) = 0.15298 0.13462
#
# Static dielectric constant tensor:
#      x y z
#    x 1.798640 0.000000 0.004340 
#    y 0.000000 1.759650 0.000000 
#    z 0.004340 0.000000 1.763550 
# 
# From -- ./inp_files/173201.got.cif
#   From: 2010.05.17/outbox.cif.g08.bks.cpg/sg15_87_cif.got.tgz:173201.got - 2010.06.03 18:47:42.
