data_PCOD9283157
_publ_section_title
;
Structure prediction by ZEFSAII (Michael W. Deem and Ramdas Pophale) SiO2 
 PCOD9283157
Probable space group: C 2/C
;
_chemical_formula_sum "Si O2"
_cell_formula_units_Z 48
_cell_length_a 8.440707
_cell_length_b 15.190331
_cell_length_c 15.259544
_cell_angle_alpha 90.000000
_cell_angle_beta 79.068089
_cell_angle_gamma 90.000000
_cell_volume 1921.030221
_symmetry_space_group_name_H-M "C 2/C"
_symmetry_group_IT_number 15
_symmetry_cell_setting 'monoclinic'
loop_
_space_group_symop_operation_xyz
x,y,z
-x,y,1/2-z
-x,-y,-z
x,-y,1/2+z
1/2+x,1/2+y,z
1/2-x,1/2+y,1/2-z
1/2-x,1/2-y,-z
1/2+x,1/2-y,1/2+z
loop_
_atom_site_type_symbol
_atom_site_label
_atom_site_fract_x
_atom_site_fract_y
_atom_site_fract_z
Si Si1 0.724442 0.013911 0.031527
Si Si2 0.985340 0.775685 0.356592
Si Si3 0.363182 0.253993 0.654398
Si Si4 0.664824 0.120887 0.291990
Si Si5 0.031952 0.873911 0.521069
Si Si6 0.409174 0.059022 0.635487
O O1 0.870374 0.069148 0.057159
O O2 0.640553 0.067254 0.961737
O O3 0.590658 0.978850 0.112166
O O4 0.811338 0.930449 0.978410
O O5 0.097463 0.692424 0.368302
O O6 0.000000 0.797680 0.250000
O O7 0.798931 0.750600 0.387571
O O8 0.027813 0.852567 0.418316
O O9 0.311223 0.325905 0.732079
O O10 0.511184 0.287955 0.581710
O O11 0.389596 0.153698 0.681175
O O12 0.500000 0.118218 0.250000
O O13 0.695195 0.020498 0.313324
#
# Coordination Sequence:
#
# PCOD9283157 Si02
#       6
#     8   8   8   8   8   8
#     4  10  24  38  65  96 130 167 215 273 322 377
#     4   9  19  38  65  90 123 177 217 254 312 396
#     4  10  21  39  68  93 125 175 215 266 324 384
#     4   9  21  42  62  92 126 174 218 258 317 393
#     4  11  21  42  63  96 128 170 222 264 311 396
#     4  11  22  43  63  95 129 170 214 271 332 383
#
# _framework density 24.986594
#
# number of rings (size 3 to 8) (size 9 to 14) (size 15 to 20)
#    0.000    2.333    1.667    2.500    4.667    0.667 
#   18.000    0.833    0.000    0.000    0.000    0.000 
#    0.000    0.000    0.000    0.000    0.000    0.000 
#
# Total GULP energy -134077.201485 kJ/mol
# GULP energy per Si atom -5586.550062 kJ/mol
# Density = 2.492972 g / cm^3
# Si number density = 24.986594 Si / 1000 Ang^3
#
#
#
# Elastic Constant Matrix: (Units=GPa)
#
#
# Indices 1 2 3 4 5 6 
#
# 1 50.7390 16.1067 27.4815 0.0000 0.3116 0.0000
# 2 16.1067 177.5964 74.2677 0.0000 -18.7138 0.0000
# 3 27.4815 74.2677 76.5586 0.0000 -13.0453 0.0000
# 4 0.0000 0.0000 0.0000 49.9775 0.0000 -5.6293
# 5 0.3116 -18.7138 -13.0453 0.0000 21.6917 0.0000
# 6 0.0000 0.0000 0.0000 -5.6293 0.0000 21.8844
#
#
#
# Elastic Compliance Matrix: (Units=1/GPa)
#
#
# Indices 1 2 3 4 5 6 
#
# 1 0.025765 0.002236 -0.012426 0.000000 -0.005914 0.000000
# 2 0.002236 0.009841 -0.009925 0.000000 0.002489 0.000000
# 3 -0.012426 -0.009925 0.028658 0.000000 0.008851 0.000000
# 4 0.000000 0.000000 0.000000 0.020606 0.000000 0.005300
# 5 -0.005914 0.002489 0.008851 0.000000 0.053656 0.000000
# 6 0.000000 0.000000 0.000000 0.005300 0.000000 0.047058
#
#
# Mechanical properties :
#
#
# Convention : Reuss Voigt Hill
#
# Bulk Modulus (GPa) = 41.60491 60.06732 50.83612
# Shear Modulus (GPa) = 21.38361 31.17994 26.28178
#
# Velocity S-wave (km/s) = 2.92859 3.53635 3.24672
# Velocity P-wave (km/s) = 5.30307 6.38485 5.86894
#
# Compressibility (1/GPa) = 0.02403562
#
# Stress axis : x y z
#
# Youngs Moduli (GPa) = 38.81201 101.62051 34.89392
#
# Poissons Ratio (x) = -0.22727 0.43359
# Poissons Ratio (y) = -0.08680 0.34631
# Poissons Ratio (z) = 0.48227 1.00856
#
# Static dielectric constant tensor:
#      x y z
#    x 1.973460 0.000000 0.023940 
#    y 0.000000 2.024410 0.000000 
#    z 0.023940 0.000000 2.029640 
# 
# From -- ./inp_files/231087.got.cif
#   From: 2010.05.17/outbox.cif.g08.bks.cpg/sg15_116_cif.got.tgz:231087.got - 2010.06.03 18:47:42.
