data_PCOD9283166
_publ_section_title
;
Structure prediction by ZEFSAII (Michael W. Deem and Ramdas Pophale) SiO2 
 PCOD9283166
Probable space group: C 2/C
;
_chemical_formula_sum "Si O2"
_cell_formula_units_Z 52
_cell_length_a 11.522051
_cell_length_b 14.644526
_cell_length_c 14.340626
_cell_angle_alpha 90.000000
_cell_angle_beta 109.557244
_cell_angle_gamma 90.000000
_cell_volume 2280.162911
_symmetry_space_group_name_H-M "C 2/C"
_symmetry_group_IT_number 15
_symmetry_cell_setting 'monoclinic'
loop_
_space_group_symop_operation_xyz
x,y,z
-x,y,1/2-z
-x,-y,-z
x,-y,1/2+z
1/2+x,1/2+y,z
1/2-x,1/2+y,1/2-z
1/2-x,1/2-y,-z
1/2+x,1/2-y,1/2+z
loop_
_atom_site_type_symbol
_atom_site_label
_atom_site_fract_x
_atom_site_fract_y
_atom_site_fract_z
Si Si1 0.854664 0.266484 0.893138
Si Si2 0.192386 0.618739 0.934614
Si Si3 0.114702 0.724341 0.504892
Si Si4 0.500000 0.969296 0.250000
Si Si5 0.267263 0.071882 0.253340
Si Si6 0.590969 0.415005 0.532806
Si Si7 0.255017 0.448769 0.085048
O O1 0.798135 0.166119 0.898524
O O2 0.774010 0.327026 0.799626
O O3 0.843403 0.313900 0.991409
O O4 0.998000 0.281436 0.904165
O O5 0.079716 0.593296 0.839059
O O6 0.224765 0.527803 0.001652
O O7 0.250000 0.750000 0.500000
O O8 0.064085 0.809391 0.553249
O O9 0.146411 0.626568 0.560644
O O10 0.404788 0.034241 0.277676
O O11 0.196226 0.065037 0.137281
O O12 0.211474 0.000484 0.312212
O O13 0.500000 0.500000 0.500000
O O14 0.630382 0.402983 0.435534
#
# Coordination Sequence:
#
# PCOD9283166 Si02
#       7
#     8   8   8   4   8   8   8
#     4  10  22  41  63 101 133 177 229 289 353 420
#     4  10  21  39  68  94 134 173 224 295 347 414
#     4  10  22  39  66  95 138 183 223 287 349 421
#     4  12  22  38  68 100 126 182 236 290 354 422
#     4  11  25  40  72  99 135 183 235 295 353 432
#     4  11  24  45  68  99 142 184 232 291 365 430
#     4  10  21  45  66 100 135 178 232 283 358 413
#
# _framework density 22.805388000000001
#
# number of rings (size 3 to 8) (size 9 to 14) (size 15 to 20)
#    0.000    1.538    1.538    2.769    2.154    5.538 
#    0.000    0.000    3.385    0.000    0.000    0.000 
#    0.000    0.000    0.000    0.000    0.000    0.000 
#
# Total GULP energy -144775.548504 kJ/mol
# GULP energy per Si atom -5568.290327 kJ/mol
# Density = 2.275348 g / cm^3
# Si number density = 22.805388 Si / 1000 Ang^3
#
#
#
# Elastic Constant Matrix: (Units=GPa)
#
#
# Indices 1 2 3 4 5 6 
#
# 1 68.4447 20.1762 -0.1240 0.0000 4.5250 0.0000
# 2 20.1762 141.4480 7.8002 0.0000 5.8529 0.0000
# 3 -0.1240 7.8002 43.8494 0.0000 -3.6625 0.0000
# 4 0.0000 0.0000 0.0000 10.1720 0.0000 9.5990
# 5 4.5250 5.8529 -3.6625 0.0000 28.2763 0.0000
# 6 0.0000 0.0000 0.0000 9.5990 0.0000 46.8762
#
#
#
# Elastic Compliance Matrix: (Units=1/GPa)
#
#
# Indices 1 2 3 4 5 6 
#
# 1 0.015368 -0.002124 0.000255 0.000000 -0.001987 0.000000
# 2 -0.002124 0.007511 -0.001459 0.000000 -0.001404 0.000000
# 3 0.000255 -0.001459 0.023340 0.000000 0.003284 0.000000
# 4 0.000000 0.000000 0.000000 0.121857 0.000000 -0.024953
# 5 -0.001987 -0.001404 0.003284 0.000000 0.036399 0.000000
# 6 0.000000 0.000000 0.000000 -0.024953 0.000000 0.026443
#
#
# Mechanical properties :
#
#
# Convention : Reuss Voigt Hill
#
# Bulk Modulus (GPa) = 25.27588 34.38296 29.82942
# Shear Modulus (GPa) = 19.93921 32.12422 26.03172
#
# Velocity S-wave (km/s) = 2.96010 3.75724 3.38223
# Velocity P-wave (km/s) = 4.77391 5.82510 5.32551
#
# Compressibility (1/GPa) = 0.03956341
#
# Stress axis : x y z
#
# Youngs Moduli (GPa) = 65.06915 133.13325 42.84494
#
# Poissons Ratio (x) = 0.28278 -0.01094
# Poissons Ratio (y) = 0.13821 0.06253
# Poissons Ratio (z) = -0.01662 0.19430
#
# Static dielectric constant tensor:
#      x y z
#    x 2.106440 0.000000 -0.031030 
#    y 0.000000 2.083260 0.000000 
#    z -0.031030 0.000000 1.816660 
# 
# From -- ./inp_files/144302.got.cif
#   From: 2010.05.17/outbox.cif.g08.bks.cpg/sg15_73_cif.got.tgz:144302.got - 2010.06.03 18:47:42.
