data_PCOD9283961
_publ_section_title
;
Structure prediction by ZEFSAII (Michael W. Deem and Ramdas Pophale) SiO2 
 PCOD9283961
Probable space group: C 2/C
;
_chemical_formula_sum "Si O2"
_cell_formula_units_Z 56
_cell_length_a 17.652248
_cell_length_b 30.410847
_cell_length_c 5.266802
_cell_angle_alpha 90.000000
_cell_angle_beta 99.605779
_cell_angle_gamma 90.000000
_cell_volume 2787.682358
_symmetry_space_group_name_H-M "C 2/C"
_symmetry_group_IT_number 15
_symmetry_cell_setting 'monoclinic'
loop_
_space_group_symop_operation_xyz
x,y,z
-x,y,1/2-z
-x,-y,-z
x,-y,1/2+z
1/2+x,1/2+y,z
1/2-x,1/2+y,1/2-z
1/2-x,1/2-y,-z
1/2+x,1/2-y,1/2+z
loop_
_atom_site_type_symbol
_atom_site_label
_atom_site_fract_x
_atom_site_fract_y
_atom_site_fract_z
Si Si1 0.305513 0.891528 0.800226
Si Si2 0.451730 0.364521 0.478833
Si Si3 0.920899 0.762213 0.566196
Si Si4 0.718869 0.628018 0.737906
Si Si5 0.414032 0.182099 0.216953
Si Si6 0.291999 0.219173 0.812846
Si Si7 0.089926 0.472017 0.814842
O O1 0.243256 0.881139 0.543086
O O2 0.361936 0.849582 0.855612
O O3 0.355871 0.931647 0.725920
O O4 0.269372 0.897307 0.056594
O O5 0.500000 0.368548 0.250000
O O6 0.435077 0.312925 0.520176
O O7 0.368326 0.384149 0.375998
O O8 0.500000 0.380754 0.750000
O O9 0.917564 0.731652 0.319653
O O10 0.839638 0.751850 0.657884
O O11 0.000000 0.747061 0.750000
O O12 0.732941 0.680638 0.702139
O O13 0.500000 0.164825 0.250000
O O14 0.363431 0.187978 0.939887
O O15 0.250000 0.250000 0.000000
O O16 0.102689 0.508687 0.603085
O O17 0.000000 0.458996 0.750000
#
# Coordination Sequence:
#
# PCOD9283961 Si02
#       7
#     8   8   8   8   8   8   8
#     4  11  23  39  61  90 121 155 192 247 290 350
#     4  11  25  40  59  79 111 156 205 255 302 360
#     4  11  22  35  54  75 105 155 209 260 295 357
#     4  11  24  40  58  86 117 152 200 255 307 352
#     4  11  21  35  51  74 110 148 199 244 296 339
#     4  11  24  35  53  75 110 152 202 260 308 348
#     4  10  21  40  65  96 131 169 200 228 278 356
#
# _framework density 20.088370000000001
#
# number of rings (size 3 to 8) (size 9 to 14) (size 15 to 20)
#    0.000    1.143    2.857    3.429   10.000    1.143 
#    0.000    2.143    0.000    0.000    0.000    0.000 
#    0.000   40.000    0.000    0.000    0.000    0.000 
#
# Total GULP energy -156236.121025 kJ/mol
# GULP energy per Si atom -5579.861465 kJ/mol
# Density = 2.004265 g / cm^3
# Si number density = 20.088370 Si / 1000 Ang^3
#
#
#
# Elastic Constant Matrix: (Units=GPa)
#
#
# Indices 1 2 3 4 5 6 
#
# 1 100.1040 3.4491 28.4386 0.0000 1.0416 0.0000
# 2 3.4491 27.5728 -7.9568 0.0000 -2.5446 0.0000
# 3 28.4386 -7.9568 79.9228 0.0000 -3.7073 0.0000
# 4 0.0000 0.0000 0.0000 22.8377 0.0000 -10.2268
# 5 1.0416 -2.5446 -3.7073 0.0000 42.0236 0.0000
# 6 0.0000 0.0000 0.0000 -10.2268 0.0000 21.8819
#
#
#
# Elastic Compliance Matrix: (Units=1/GPa)
#
#
# Indices 1 2 3 4 5 6 
#
# 1 0.011326 -0.002746 -0.004342 0.000000 -0.000830 0.000000
# 2 -0.002746 0.038291 0.004920 0.000000 0.002821 0.000000
# 3 -0.004342 0.004920 0.014626 0.000000 0.001696 0.000000
# 4 0.000000 0.000000 0.000000 0.055377 0.000000 0.025881
# 5 -0.000830 0.002821 0.001696 0.000000 0.024137 0.000000
# 6 0.000000 0.000000 0.000000 0.025881 0.000000 0.057796
#
#
# Mechanical properties :
#
#
# Convention : Reuss Voigt Hill
#
# Bulk Modulus (GPa) = 16.69265 28.38461 22.53863
# Shear Modulus (GPa) = 22.13772 29.59321 25.86547
#
# Velocity S-wave (km/s) = 3.32327 3.84233 3.59219
# Velocity P-wave (km/s) = 4.80136 5.81766 5.33377
#
# Compressibility (1/GPa) = 0.05990661
#
# Stress axis : x y z
#
# Youngs Moduli (GPa) = 88.28895 26.11553 68.37318
#
# Poissons Ratio (x) = 0.07173 0.29689
# Poissons Ratio (y) = 0.24249 -0.33641
# Poissons Ratio (z) = 0.38337 -0.12849
#
# Static dielectric constant tensor:
#      x y z
#    x 1.780750 0.000000 0.033100 
#    y 0.000000 1.685510 0.000000 
#    z 0.033100 0.000000 1.791410 
# 
# From -- ./inp_files/9063.got.cif
#   From: 2010.05.17/outbox.cif.g08.bks.cpg/sg15_5_cif.got.tgz:9063.got - 2010.06.03 18:47:42.
