data_PCOD9283117
_publ_section_title
;
Structure prediction by ZEFSAII (Michael W. Deem and Ramdas Pophale) SiO2 
 PCOD9283117
Probable space group: C 2/C
;
_chemical_formula_sum "Si O2"
_cell_formula_units_Z 44
_cell_length_a 7.724164
_cell_length_b 23.254366
_cell_length_c 16.508019
_cell_angle_alpha 90.000000
_cell_angle_beta 39.591423
_cell_angle_gamma 90.000000
_cell_volume 1889.734342
_symmetry_space_group_name_H-M "C 2/C"
_symmetry_group_IT_number 15
_symmetry_cell_setting 'monoclinic'
loop_
_space_group_symop_operation_xyz
x,y,z
-x,y,1/2-z
-x,-y,-z
x,-y,1/2+z
1/2+x,1/2+y,z
1/2-x,1/2+y,1/2-z
1/2-x,1/2-y,-z
1/2+x,1/2-y,1/2+z
loop_
_atom_site_type_symbol
_atom_site_label
_atom_site_fract_x
_atom_site_fract_y
_atom_site_fract_z
Si Si1 0.684741 0.483894 0.606886
Si Si2 0.744781 0.173008 0.730005
Si Si3 0.000000 0.612013 0.250000
Si Si4 0.035870 0.078335 0.534934
Si Si5 0.303288 0.875001 0.479075
Si Si6 0.880149 0.198668 0.203049
O O1 0.500000 0.495849 0.750000
O O2 0.554372 0.522691 0.583280
O O3 0.705354 0.415553 0.586097
O O4 0.000000 0.500000 0.500000
O O5 0.500000 0.174036 0.750000
O O6 0.765733 0.239296 0.747493
O O7 0.995042 0.136624 0.603817
O O8 0.614868 0.139824 0.853458
O O9 0.790567 0.578723 0.382324
O O10 0.835910 0.651637 0.246640
O O11 0.780564 0.085615 0.567374
O O12 0.129420 0.816290 0.551097
O O13 0.000000 0.193575 0.250000
#
# Coordination Sequence:
#
# PCOD9283117 Si02
#       6
#     8   8   4   8   8   8
#     4  12  27  43  65  99 134 174 227 280 345 407
#     4   9  19  40  65  96 128 171 220 272 334 405
#     4  10  24  42  64 100 128 180 226 270 336 404
#     4  10  23  43  64  91 134 171 224 274 334 403
#     4  10  21  41  68  93 128 174 223 270 342 397
#     4  10  21  39  67  96 136 175 223 273 334 400
#
# _framework density 23.283697
#
# number of rings (size 3 to 8) (size 9 to 14) (size 15 to 20)
#    0.000    1.818    0.000    2.727    7.636    2.182 
#    9.818    0.000    0.000    0.000    0.000    0.000 
#    0.000    0.000    0.000    0.000    0.000    0.000 
#
# Total GULP energy -122753.994550 kJ/mol
# GULP energy per Si atom -5579.727025 kJ/mol
# Density = 2.323070 g / cm^3
# Si number density = 23.283697 Si / 1000 Ang^3
#
#
#
# Elastic Constant Matrix: (Units=GPa)
#
#
# Indices 1 2 3 4 5 6 
#
# 1 54.9359 10.8737 12.0967 0.0002 9.1359 -0.0001
# 2 10.8737 120.1984 52.4000 0.0001 18.4912 -0.0001
# 3 12.0967 52.4000 126.9202 0.0007 12.7514 -0.0004
# 4 0.0002 0.0001 0.0007 17.3407 -0.0003 23.4281
# 5 9.1359 18.4912 12.7514 -0.0003 23.4919 0.0002
# 6 -0.0001 -0.0001 -0.0004 23.4281 0.0002 -4.6277
#
#
#
# Elastic Compliance Matrix: (Units=1/GPa)
#
#
# Indices 1 2 3 4 5 6 
#
# 1 0.019630 -0.000252 -0.001079 0.000000 -0.006850 0.000000
# 2 -0.000252 0.011030 -0.003879 0.000000 -0.006479 0.000000
# 3 -0.001079 -0.003879 0.009767 0.000000 -0.001829 0.000000
# 4 0.000000 0.000000 0.000000 0.007356 0.000000 0.037239
# 5 -0.006850 -0.006479 -0.001829 0.000000 0.051324 0.000001
# 6 0.000000 0.000000 0.000000 0.037239 0.000001 -0.027563
#
#
# Mechanical properties :
#
#
# Convention : Reuss Voigt Hill
#
# Bulk Modulus (GPa) = 33.32465 50.31061 41.81763
# Shear Modulus (GPa) = 54.36865 22.35324 38.36095
#
# Velocity S-wave (km/s) = 4.83748 3.10181 4.06340
# Velocity P-wave (km/s) = 6.74871 5.87221 6.32566
#
# Compressibility (1/GPa) = 0.03000782
#
# Stress axis : x y z
#
# Youngs Moduli (GPa) = 50.94350 90.66157 102.38594
#
# Poissons Ratio (x) = 0.02282 0.11045
# Poissons Ratio (y) = 0.01282 0.39715
# Poissons Ratio (z) = 0.05496 0.35167
#
# Static dielectric constant tensor:
#      x y z
#    x 1.958610 0.000000 0.026760 
#    y 0.000000 1.943590 0.000000 
#    z 0.026760 0.000000 1.853250 
# 
# From -- ./inp_files/79468.got.cif
#   From: 2010.05.17/outbox.cif.g08.bks.cpg/sg15_40_cif.got.tgz:79468.got - 2010.06.03 18:47:42.
