data_PCOD9283760
_publ_section_title
;
Structure prediction by ZEFSAII (Michael W. Deem and Ramdas Pophale) SiO2 
 PCOD9283760
Probable space group: C 2/C
;
_chemical_formula_sum "Si O2"
_cell_formula_units_Z 64
_cell_length_a 15.671292
_cell_length_b 8.805514
_cell_length_c 23.655883
_cell_angle_alpha 90.000000
_cell_angle_beta 96.403809
_cell_angle_gamma 90.000000
_cell_volume 3243.996758
_symmetry_space_group_name_H-M "C 2/C"
_symmetry_group_IT_number 15
_symmetry_cell_setting 'monoclinic'
loop_
_space_group_symop_operation_xyz
x,y,z
-x,y,1/2-z
-x,-y,-z
x,-y,1/2+z
1/2+x,1/2+y,z
1/2-x,1/2+y,1/2-z
1/2-x,1/2-y,-z
1/2+x,1/2-y,1/2+z
loop_
_atom_site_type_symbol
_atom_site_label
_atom_site_fract_x
_atom_site_fract_y
_atom_site_fract_z
Si Si1 0.456855 0.966436 0.844292
Si Si2 0.198211 0.995567 0.902739
Si Si3 0.413225 0.531354 0.712039
Si Si4 0.397625 0.478951 0.985272
Si Si5 0.799242 0.972413 0.806218
Si Si6 0.645950 0.226168 0.604661
Si Si7 0.836930 0.767416 0.391903
Si Si8 0.105121 0.609325 0.286178
O O1 0.421093 0.821035 0.875463
O O2 0.417777 0.956771 0.777559
O O3 0.556322 0.967790 0.835214
O O4 0.423274 0.105157 0.878726
O O5 0.119696 0.983104 0.852046
O O6 0.262607 0.137751 0.893985
O O7 0.263213 0.851991 0.903964
O O8 0.154013 0.013106 0.960042
O O9 0.500000 0.474475 0.750000
O O10 0.335656 0.484809 0.746795
O O11 0.419623 0.714020 0.712544
O O12 0.377980 0.317709 0.953538
O O13 0.362092 0.614437 0.942581
O O14 0.500000 0.500000 0.000000
O O15 0.852506 0.854548 0.847234
O O16 0.704578 0.910673 0.799795
O O17 0.804004 0.134924 0.836446
#
# Coordination Sequence:
#
# PCOD9283760 Si02
#       8
#     8   8   8   8   8   8   8   8
#     4  10  21  40  64  91 132 167 212 259 326 380
#     4  11  24  43  67  92 131 179 217 265 327 386
#     4  12  24  40  66  96 132 176 214 267 330 398
#     4  11  26  42  68  96 130 169 223 278 325 379
#     4  11  22  38  62  96 129 163 215 256 329 382
#     4  10  23  43  65  95 129 169 218 268 315 396
#     4  10  22  43  67  90 132 171 218 265 320 397
#     4  11  21  36  63  95 132 170 206 265 321 402
#
# _framework density 19.728750000000002
#
# number of rings (size 3 to 8) (size 9 to 14) (size 15 to 20)
#    0.000    1.250    3.750    2.250    5.250    1.000 
#    2.250    2.500    0.000    0.000    0.000    0.000 
#    0.000    0.000    0.000    0.000    0.000    0.000 
#
# Total GULP energy -178633.949604 kJ/mol
# GULP energy per Si atom -5582.310925 kJ/mol
# Density = 1.968385 g / cm^3
# Si number density = 19.728750 Si / 1000 Ang^3
#
#
#
# Elastic Constant Matrix: (Units=GPa)
#
#
# Indices 1 2 3 4 5 6 
#
# 1 88.5501 17.0733 35.7232 0.0000 -9.8194 0.0000
# 2 17.0733 73.6501 33.8142 0.0000 -9.5207 0.0000
# 3 35.7232 33.8142 128.4269 0.0000 -22.6279 0.0000
# 4 0.0000 0.0000 0.0000 -83.6392 0.0000 -81.5576
# 5 -9.8194 -9.5207 -22.6279 0.0000 40.6850 0.0000
# 6 0.0000 0.0000 0.0000 -81.5576 0.0000 -54.6261
#
#
#
# Elastic Compliance Matrix: (Units=1/GPa)
#
#
# Indices 1 2 3 4 5 6 
#
# 1 0.012913 -0.001469 -0.003012 0.000000 0.001098 0.000000
# 2 -0.001469 0.015695 -0.003480 0.000000 0.001383 0.000000
# 3 -0.003012 -0.003480 0.010276 0.000000 0.004174 0.000000
# 4 0.000000 0.000000 0.000000 0.026228 0.000000 -0.039159
# 5 0.001098 0.001383 0.004174 0.000000 0.027489 0.000000
# 6 0.000000 0.000000 0.000000 -0.039159 0.000000 0.040158
#
#
# Mechanical properties :
#
#
# Convention : Reuss Voigt Hill
#
# Bulk Modulus (GPa) = 43.54950 51.53870 47.54410
# Shear Modulus (GPa) = 31.98272 -5.91499 13.03386
#
# Velocity S-wave (km/s) = 4.03068 -1.73340 2.57311
# Velocity P-wave (km/s) = 6.61694 4.70894 5.74274
#
# Compressibility (1/GPa) = 0.02296237
#
# Stress axis : x y z
#
# Youngs Moduli (GPa) = 77.44146 63.71553 97.31408
#
# Poissons Ratio (x) = 0.09359 0.29308
# Poissons Ratio (y) = 0.11375 0.33867
# Poissons Ratio (z) = 0.23323 0.22174
#
# Static dielectric constant tensor:
#      x y z
#    x 1.714090 0.000000 0.028540 
#    y 0.000000 1.709180 0.000000 
#    z 0.028540 0.000000 1.675360 
# 
# From -- ./inp_files/273196.got.cif
#   From: 2010.05.17/outbox.cif.g08.bks.cpg/sg15_137_cif.got.tgz:273196.got - 2010.06.03 18:47:42.
