data_PCOD9283641
_publ_section_title
;
Structure prediction by ZEFSAII (Michael W. Deem and Ramdas Pophale) SiO2 
 PCOD9283641
Probable space group: C 2/C
;
_chemical_formula_sum "Si O2"
_cell_formula_units_Z 44
_cell_length_a 4.882742
_cell_length_b 20.048251
_cell_length_c 20.636895
_cell_angle_alpha 90.000000
_cell_angle_beta 80.928216
_cell_angle_gamma 90.000000
_cell_volume 1994.885718
_symmetry_space_group_name_H-M "C 2/C"
_symmetry_group_IT_number 15
_symmetry_cell_setting 'monoclinic'
loop_
_space_group_symop_operation_xyz
x,y,z
-x,y,1/2-z
-x,-y,-z
x,-y,1/2+z
1/2+x,1/2+y,z
1/2-x,1/2+y,1/2-z
1/2-x,1/2-y,-z
1/2+x,1/2-y,1/2+z
loop_
_atom_site_type_symbol
_atom_site_label
_atom_site_fract_x
_atom_site_fract_y
_atom_site_fract_z
Si Si1 0.218323 0.409306 0.086874
Si Si2 0.340456 0.856400 0.552159
Si Si3 0.772025 0.495957 0.067249
Si Si4 0.000000 0.800609 0.750000
Si Si5 0.932531 0.808257 0.183246
Si Si6 0.678227 0.300779 0.878353
O O1 0.492679 0.455011 0.063099
O O2 0.295485 0.359778 0.140684
O O3 0.954261 0.455677 0.112438
O O4 0.138342 0.368065 0.025176
O O5 0.618273 0.839505 0.580483
O O6 0.117690 0.800073 0.576346
O O7 0.219230 0.926814 0.583662
O O8 0.000000 0.500000 0.000000
O O9 0.231381 0.753045 0.709569
O O10 0.138607 0.833774 0.808054
O O11 0.000000 0.840319 0.250000
O O12 0.194662 0.771907 0.140616
#
# Coordination Sequence:
#
# PCOD9283641 Si02
#       6
#     8   8   8   4   8   8
#     4  11  23  39  67  94 127 165 205 261 311 371
#     4  11  21  38  64  96 126 157 205 257 310 377
#     4  10  21  40  63  91 127 166 198 241 320 377
#     4  10  22  46  60  86 122 178 204 246 316 384
#     4  10  24  42  66  88 125 170 212 254 315 380
#     4  11  22  39  65  90 123 163 205 253 313 375
#
# _framework density 22.056401999999999
#
# number of rings (size 3 to 8) (size 9 to 14) (size 15 to 20)
#    0.000    1.455    1.818    5.455    5.091    1.455 
#    0.000    0.000   12.000    0.000    0.000    0.000 
#    0.000    0.000    0.000    0.000    0.000    0.000 
#
# Total GULP energy -122868.691632 kJ/mol
# GULP energy per Si atom -5584.940529 kJ/mol
# Density = 2.200620 g / cm^3
# Si number density = 22.056402 Si / 1000 Ang^3
#
#
#
# Elastic Constant Matrix: (Units=GPa)
#
#
# Indices 1 2 3 4 5 6 
#
# 1 106.0133 9.4676 28.4906 0.0000 24.5865 0.0000
# 2 9.4676 55.3235 46.5325 0.0000 11.5064 0.0000
# 3 28.4906 46.5325 135.6598 0.0000 47.9215 0.0000
# 4 0.0000 0.0000 0.0000 17.6338 0.0000 16.9230
# 5 24.5865 11.5064 47.9215 0.0000 45.8602 0.0000
# 6 0.0000 0.0000 0.0000 16.9230 0.0000 35.2385
#
#
#
# Elastic Compliance Matrix: (Units=1/GPa)
#
#
# Indices 1 2 3 4 5 6 
#
# 1 0.010797 -0.000608 -0.000108 0.000000 -0.005523 0.000000
# 2 -0.000608 0.025993 -0.010461 0.000000 0.004736 0.000000
# 3 -0.000108 -0.010461 0.015906 0.000000 -0.013938 0.000000
# 4 0.000000 0.000000 0.000000 0.105189 0.000000 -0.050516
# 5 -0.005523 0.004736 -0.013938 0.000000 0.038143 0.000000
# 6 0.000000 0.000000 0.000000 -0.050516 0.000000 0.052638
#
#
# Mechanical properties :
#
#
# Convention : Reuss Voigt Hill
#
# Bulk Modulus (GPa) = 32.95753 51.77533 42.36643
# Shear Modulus (GPa) = 17.78508 33.91357 25.84933
#
# Velocity S-wave (km/s) = 2.84270 3.92546 3.42711
# Velocity P-wave (km/s) = 5.07439 6.63857 5.90847
#
# Compressibility (1/GPa) = 0.03034208
#
# Stress axis : x y z
#
# Youngs Moduli (GPa) = 92.61830 38.47121 62.86952
#
# Poissons Ratio (x) = 0.02340 0.00678
# Poissons Ratio (y) = 0.05634 0.65768
# Poissons Ratio (z) = 0.00999 0.40245
#
# Static dielectric constant tensor:
#      x y z
#    x 1.884470 0.000000 0.007300 
#    y 0.000000 1.856430 0.000000 
#    z 0.007300 0.000000 1.873020 
# 
# From -- ./inp_files/227174.got.cif
#   From: 2010.05.17/outbox.cif.g08.bks.cpg/sg15_114_cif.got.tgz:227174.got - 2010.06.03 18:47:42.
