data_PCOD9283129
_publ_section_title
;
Structure prediction by ZEFSAII (Michael W. Deem and Ramdas Pophale) SiO2 
 PCOD9283129
Probable space group: C 2/C
;
_chemical_formula_sum "Si O2"
_cell_formula_units_Z 48
_cell_length_a 15.389296
_cell_length_b 17.363518
_cell_length_c 8.784977
_cell_angle_alpha 90.000000
_cell_angle_beta 90.555248
_cell_angle_gamma 90.000000
_cell_volume 2347.343841
_symmetry_space_group_name_H-M "C 2/C"
_symmetry_group_IT_number 15
_symmetry_cell_setting 'monoclinic'
loop_
_space_group_symop_operation_xyz
x,y,z
-x,y,1/2-z
-x,-y,-z
x,-y,1/2+z
1/2+x,1/2+y,z
1/2-x,1/2+y,1/2-z
1/2-x,1/2-y,-z
1/2+x,1/2-y,1/2+z
loop_
_atom_site_type_symbol
_atom_site_label
_atom_site_fract_x
_atom_site_fract_y
_atom_site_fract_z
Si Si1 0.403044 0.888249 0.726794
Si Si2 0.900045 0.982739 0.464418
Si Si3 0.751268 0.264636 0.681622
Si Si4 0.104130 0.119238 0.243059
Si Si5 0.667735 0.997276 0.023830
Si Si6 0.774584 0.907530 0.274383
O O1 0.500000 0.857248 0.750000
O O2 0.329775 0.822699 0.721379
O O3 0.383615 0.947647 0.862979
O O4 0.391328 0.938811 0.573461
O O5 0.871486 0.932247 0.609319
O O6 0.873513 0.930014 0.318643
O O7 0.870980 0.066876 0.402800
O O8 0.000000 0.000000 0.500000
O O9 0.750000 0.250000 0.500000
O O10 0.662102 0.305138 0.732874
O O11 0.763314 0.183042 0.763255
O O12 0.000000 0.132889 0.250000
O O13 0.734504 0.946737 0.124408
O O14 0.720207 0.051215 0.907817
#
# Coordination Sequence:
#
# PCOD9283129 Si02
#       6
#     8   8   8   8   8   8
#     4  11  23  44  66 100 131 172 223 276 332 398
#     4  10  21  39  67  99 129 170 229 279 326 397
#     4  12  26  44  65  97 143 178 218 277 348 402
#     4  10  23  44  68 100 135 176 229 282 340 404
#     4  10  22  42  71  90 124 171 230 274 322 392
#     4  11  22  42  67  94 129 177 218 277 335 399
#
# _framework density 20.448644000000002
#
# number of rings (size 3 to 8) (size 9 to 14) (size 15 to 20)
#    0.000    1.333    1.667    4.500    2.333    2.667 
#    9.000    0.833    0.000    0.000    0.000    0.000 
#    0.000    0.000    0.000    0.000    0.000    0.000 
#
# Total GULP energy -134005.912446 kJ/mol
# GULP energy per Si atom -5583.579685 kJ/mol
# Density = 2.040210 g / cm^3
# Si number density = 20.448644 Si / 1000 Ang^3
#
#
#
# Elastic Constant Matrix: (Units=GPa)
#
#
# Indices 1 2 3 4 5 6 
#
# 1 121.2888 59.4898 44.3261 0.0000 17.2047 0.0000
# 2 59.4898 146.2235 33.1608 0.0000 12.6483 0.0000
# 3 44.3261 33.1608 101.8728 0.0000 12.4323 0.0000
# 4 0.0000 0.0000 0.0000 28.3420 0.0000 -4.9648
# 5 17.2047 12.6483 12.4323 0.0000 32.5154 0.0000
# 6 0.0000 0.0000 0.0000 -4.9648 0.0000 27.2696
#
#
#
# Elastic Compliance Matrix: (Units=1/GPa)
#
#
# Indices 1 2 3 4 5 6 
#
# 1 0.011850 -0.003722 -0.003520 0.000000 -0.003476 0.000000
# 2 -0.003722 0.008685 -0.001086 0.000000 -0.000994 0.000000
# 3 -0.003520 -0.001086 0.011982 0.000000 -0.002296 0.000000
# 4 0.000000 0.000000 0.000000 0.036446 0.000000 0.006635
# 5 -0.003476 -0.000994 -0.002296 0.000000 0.033858 0.000000
# 6 0.000000 0.000000 0.000000 0.006635 0.000000 0.037879
#
#
# Mechanical properties :
#
#
# Convention : Reuss Voigt Hill
#
# Bulk Modulus (GPa) = 63.05300 71.48206 67.26753
# Shear Modulus (GPa) = 30.74194 33.11931 31.93062
#
# Velocity S-wave (km/s) = 3.88154 4.02883 3.95587
# Velocity P-wave (km/s) = 7.14074 7.52826 7.33706
#
# Compressibility (1/GPa) = 0.01585967
#
# Stress axis : x y z
#
# Youngs Moduli (GPa) = 84.38826 115.13480 83.46051
#
# Poissons Ratio (x) = 0.42854 0.29380
# Poissons Ratio (y) = 0.31410 0.09068
# Poissons Ratio (z) = 0.29707 0.12509
#
# Static dielectric constant tensor:
#      x y z
#    x 1.785070 0.000000 -0.007910 
#    y 0.000000 1.696390 0.000000 
#    z -0.007910 0.000000 1.780540 
# 
# From -- ./inp_files/48070.got.cif
#   From: 2010.05.17/outbox.cif.g08.bks.cpg/sg15_25_cif.got.tgz:48070.got - 2010.06.03 18:47:42.
