data_PCOD9283858
_publ_section_title
;
Structure prediction by ZEFSAII (Michael W. Deem and Ramdas Pophale) SiO2 
 PCOD9283858
Probable space group: C 2/C
;
_chemical_formula_sum "Si O2"
_cell_formula_units_Z 52
_cell_length_a 16.248949
_cell_length_b 12.485660
_cell_length_c 13.240496
_cell_angle_alpha 90.000000
_cell_angle_beta 101.998609
_cell_angle_gamma 90.000000
_cell_volume 2627.529916
_symmetry_space_group_name_H-M "C 2/C"
_symmetry_group_IT_number 15
_symmetry_cell_setting 'monoclinic'
loop_
_space_group_symop_operation_xyz
x,y,z
-x,y,1/2-z
-x,-y,-z
x,-y,1/2+z
1/2+x,1/2+y,z
1/2-x,1/2+y,1/2-z
1/2-x,1/2-y,-z
1/2+x,1/2-y,1/2+z
loop_
_atom_site_type_symbol
_atom_site_label
_atom_site_fract_x
_atom_site_fract_y
_atom_site_fract_z
Si Si1 0.000000 0.987166 0.750000
Si Si2 0.242706 0.406441 0.916297
Si Si3 0.849585 0.924813 0.338087
Si Si4 0.235838 0.338789 0.135202
Si Si5 0.960874 0.890508 0.537226
Si Si6 0.960768 0.337844 0.443908
Si Si7 0.945411 0.478187 0.638537
O O1 0.953029 0.916214 0.653480
O O2 0.931111 0.058069 0.789250
O O3 0.314115 0.462671 0.869214
O O4 0.238073 0.282473 0.884521
O O5 0.154335 0.465298 0.872087
O O6 0.260538 0.407720 0.041519
O O7 0.780824 0.871977 0.249161
O O8 0.878896 0.866955 0.448417
O O9 0.135182 0.349336 0.117702
O O10 0.018989 0.786874 0.542121
O O11 0.000000 0.000000 0.500000
O O12 0.966181 0.395467 0.553778
O O13 0.024694 0.404055 0.389631
O O14 0.000000 0.450167 0.750000
#
# Coordination Sequence:
#
# PCOD9283858 Si02
#       7
#     4   8   8   8   8   8   8
#     4  10  22  38  62  86 124 164 196 262 312 368
#     4  10  22  40  60  91 127 163 210 255 320 372
#     4  11  22  39  62  91 122 156 212 255 304 372
#     4  10  21  40  65  87 124 171 201 259 313 380
#     4  10  22  40  63  94 123 161 208 259 308 376
#     4  10  22  41  63  93 127 162 212 252 320 375
#     4  10  22  39  65  91 124 168 207 259 310 380
#
# _framework density 19.790451000000001
#
# number of rings (size 3 to 8) (size 9 to 14) (size 15 to 20)
#    0.000    1.846    0.000    3.692    3.231    6.154 
#    4.154    0.769    0.000    0.000    0.000    0.000 
#    0.000    0.000    0.000    0.000    0.000    0.000 
#
# Total GULP energy -145111.185789 kJ/mol
# GULP energy per Si atom -5581.199453 kJ/mol
# Density = 1.974541 g / cm^3
# Si number density = 19.790451 Si / 1000 Ang^3
#
#
#
# Elastic Constant Matrix: (Units=GPa)
#
#
# Indices 1 2 3 4 5 6 
#
# 1 74.0898 29.3625 29.2720 0.0000 6.9149 0.0000
# 2 29.3625 68.7472 27.1013 0.0000 8.7465 0.0000
# 3 29.2720 27.1013 169.9392 0.0000 38.2499 0.0000
# 4 0.0000 0.0000 0.0000 12.1611 0.0000 -0.1322
# 5 6.9149 8.7465 38.2499 0.0000 26.0185 0.0000
# 6 0.0000 0.0000 0.0000 -0.1322 0.0000 30.8619
#
#
#
# Elastic Compliance Matrix: (Units=1/GPa)
#
#
# Indices 1 2 3 4 5 6 
#
# 1 0.016791 -0.006464 -0.002012 0.000000 0.000668 0.000000
# 2 -0.006464 0.018107 -0.001182 0.000000 -0.002632 0.000000
# 3 -0.002012 -0.001182 0.009281 0.000000 -0.012711 0.000000
# 4 0.000000 0.000000 0.000000 0.082233 0.000000 0.000352
# 5 0.000668 -0.002632 -0.012711 0.000000 0.057829 0.000000
# 6 0.000000 0.000000 0.000000 0.000352 0.000000 0.032404
#
#
# Mechanical properties :
#
#
# Convention : Reuss Voigt Hill
#
# Bulk Modulus (GPa) = 40.21804 53.80530 47.01167
# Shear Modulus (GPa) = 20.47100 28.94431 24.70766
#
# Velocity S-wave (km/s) = 3.21968 3.82846 3.53719
# Velocity P-wave (km/s) = 5.84704 6.84028 6.36307
#
# Compressibility (1/GPa) = 0.02486446
#
# Stress axis : x y z
#
# Youngs Moduli (GPa) = 59.55502 55.22583 107.75178
#
# Poissons Ratio (x) = 0.35695 0.21678
# Poissons Ratio (y) = 0.38494 0.12737
# Poissons Ratio (z) = 0.11981 0.06528
#
# Static dielectric constant tensor:
#      x y z
#    x 1.717230 0.000000 0.002220 
#    y 0.000000 1.670580 0.000000 
#    z 0.002220 0.000000 1.729110 
# 
# From -- ./inp_files/152683.got.cif
#   From: 2010.05.17/outbox.cif.g08.bks.cpg/sg15_77_cif.got.tgz:152683.got - 2010.06.03 18:47:42.
