data_PCOD9283005
_publ_section_title
;
Structure prediction by ZEFSAII (Michael W. Deem and Ramdas Pophale) SiO2 
 PCOD9283005
Probable space group: C 2/C
;
_chemical_formula_sum "Si O2"
_cell_formula_units_Z 56
_cell_length_a 15.195195
_cell_length_b 8.417428
_cell_length_c 25.817681
_cell_angle_alpha 90.000000
_cell_angle_beta 55.927812
_cell_angle_gamma 90.000000
_cell_volume 2735.316313
_symmetry_space_group_name_H-M "C 2/C"
_symmetry_group_IT_number 15
_symmetry_cell_setting 'monoclinic'
loop_
_space_group_symop_operation_xyz
x,y,z
-x,y,1/2-z
-x,-y,-z
x,-y,1/2+z
1/2+x,1/2+y,z
1/2-x,1/2+y,1/2-z
1/2-x,1/2-y,-z
1/2+x,1/2-y,1/2+z
loop_
_atom_site_type_symbol
_atom_site_label
_atom_site_fract_x
_atom_site_fract_y
_atom_site_fract_z
Si Si1 0.651354 0.251196 0.237033
Si Si2 0.291113 0.891321 0.449994
Si Si3 0.865561 0.559460 0.688697
Si Si4 0.549460 0.767454 0.181483
Si Si5 0.514647 0.063519 0.052746
Si Si6 0.145537 0.144833 0.525148
Si Si7 0.429877 0.597724 0.835595
O O1 0.757409 0.346730 0.215189
O O2 0.650063 0.074360 0.261415
O O3 0.631112 0.278899 0.182091
O O4 0.549956 0.339377 0.295724
O O5 0.250000 0.750000 0.500000
O O6 0.345229 0.840073 0.378524
O O7 0.385794 0.978829 0.450803
O O8 0.189479 0.003884 0.475597
O O9 0.954590 0.691632 0.673144
O O10 0.912538 0.469299 0.622598
O O11 0.500000 0.838428 0.250000
O O12 0.572901 0.582489 0.183501
O O13 0.550048 0.246662 0.037148
O O14 0.500000 0.000000 0.000000
O O15 0.250000 0.250000 0.500000
O O16 0.114402 0.087324 0.592402
#
# Coordination Sequence:
#
# PCOD9283005 Si02
#       7
#     8   8   8   8   8   8   8
#     4  11  24  40  65  95 127 172 213 266 329 388
#     4  10  21  39  67  92 125 166 218 269 315 385
#     4  11  25  42  63  93 138 167 210 275 329 385
#     4  11  23  41  66  96 133 169 218 268 327 385
#     4  10  23  42  64  88 128 171 215 267 324 381
#     4  10  21  39  66  93 126 169 217 264 318 380
#     4  11  22  42  69  92 127 171 222 263 322 395
#
# _framework density 20.472951999999999
#
# number of rings (size 3 to 8) (size 9 to 14) (size 15 to 20)
#    0.000    1.429    4.286    0.857    6.000    0.000 
#    0.000    0.714    0.000    0.000    0.000    0.000 
#    0.000    0.000    0.000    0.000    0.000    0.000 
#
# Total GULP energy -156177.170676 kJ/mol
# GULP energy per Si atom -5577.756096 kJ/mol
# Density = 2.042636 g / cm^3
# Si number density = 20.472952 Si / 1000 Ang^3
#
#
#
# Elastic Constant Matrix: (Units=GPa)
#
#
# Indices 1 2 3 4 5 6 
#
# 1 35.8689 9.0998 20.1932 0.0000 -4.4689 0.0000
# 2 9.0998 69.2875 24.8190 0.0000 0.5797 0.0000
# 3 20.1932 24.8190 127.5004 0.0000 1.9974 0.0000
# 4 0.0000 0.0000 0.0000 30.0096 0.0000 -4.4026
# 5 -4.4689 0.5797 1.9974 0.0000 25.1581 0.0000
# 6 0.0000 0.0000 0.0000 -4.4026 0.0000 28.5293
#
#
#
# Elastic Compliance Matrix: (Units=1/GPa)
#
#
# Indices 1 2 3 4 5 6 
#
# 1 0.031909 -0.002577 -0.004648 0.000000 0.006096 0.000000
# 2 -0.002577 0.015723 -0.002643 0.000000 -0.000610 0.000000
# 3 -0.004648 -0.002643 0.009117 0.000000 -0.001488 0.000000
# 4 0.000000 0.000000 0.000000 0.034095 0.000000 0.005261
# 5 0.006096 -0.000610 -0.001488 0.000000 0.040964 0.000000
# 6 0.000000 0.000000 0.000000 0.005261 0.000000 0.035864
#
#
# Mechanical properties :
#
#
# Convention : Reuss Voigt Hill
#
# Bulk Modulus (GPa) = 27.01676 37.87563 32.44620
# Shear Modulus (GPa) = 25.03206 28.64237 26.83721
#
# Velocity S-wave (km/s) = 3.50049 3.74443 3.62451
# Velocity P-wave (km/s) = 5.43718 6.10203 5.77917
#
# Compressibility (1/GPa) = 0.03701405
#
# Stress axis : x y z
#
# Youngs Moduli (GPa) = 31.33902 63.60164 109.68566
#
# Poissons Ratio (x) = 0.16390 0.50977
# Poissons Ratio (y) = 0.08076 0.28989
# Poissons Ratio (z) = 0.14565 0.16809
#
# Static dielectric constant tensor:
#      x y z
#    x 1.709270 0.000000 0.017920 
#    y 0.000000 1.771530 0.000000 
#    z 0.017920 0.000000 1.754810 
# 
# From -- ./inp_files/273063.got.cif
#   From: 2010.05.17/outbox.cif.g08.bks.cpg/sg15_137_cif.got.tgz:273063.got - 2010.06.03 18:47:42.
