data_PCOD9283048
_publ_section_title
;
Structure prediction by ZEFSAII (Michael W. Deem and Ramdas Pophale) SiO2 
 PCOD9283048
Probable space group: C 2/C
;
_chemical_formula_sum "Si O2"
_cell_formula_units_Z 48
_cell_length_a 17.529614
_cell_length_b 11.768825
_cell_length_c 11.762773
_cell_angle_alpha 90.000000
_cell_angle_beta 105.475792
_cell_angle_gamma 90.000000
_cell_volume 2338.710880
_symmetry_space_group_name_H-M "C 2/C"
_symmetry_group_IT_number 15
_symmetry_cell_setting 'monoclinic'
loop_
_space_group_symop_operation_xyz
x,y,z
-x,y,1/2-z
-x,-y,-z
x,-y,1/2+z
1/2+x,1/2+y,z
1/2-x,1/2+y,1/2-z
1/2-x,1/2-y,-z
1/2+x,1/2-y,1/2+z
loop_
_atom_site_type_symbol
_atom_site_label
_atom_site_fract_x
_atom_site_fract_y
_atom_site_fract_z
Si Si1 0.915883 0.708134 0.278543
Si Si2 0.328626 0.328815 0.668433
Si Si3 0.818124 0.408987 0.561174
Si Si4 0.147024 0.819670 0.557548
Si Si5 0.414519 0.561862 0.666029
Si Si6 0.350391 0.157426 0.479766
O O1 0.862920 0.613489 0.196892
O O2 0.882916 0.833600 0.232204
O O3 0.916140 0.683183 0.411409
O O4 0.000000 0.705268 0.250000
O O5 0.356285 0.313822 0.808839
O O6 0.357665 0.454261 0.646262
O O7 0.362286 0.237957 0.592801
O O8 0.233812 0.315810 0.615734
O O9 0.843998 0.306624 0.488637
O O10 0.726162 0.388754 0.552657
O O11 0.841290 0.528766 0.517877
O O12 0.079954 0.885002 0.458563
O O13 0.500000 0.530180 0.750000
#
# Coordination Sequence:
#
# PCOD9283048 Si02
#       6
#     8   8   8   8   8   8
#     4  10  23  44  66  92 133 181 223 272 335 394
#     4  11  24  38  64 101 133 167 223 280 328 396
#     4  10  21  40  65  93 127 175 222 270 327 400
#     4  10  21  39  66  97 127 172 222 269 335 397
#     4  10  23  44  66  94 131 175 218 278 337 394
#     4  11  24  39  66  99 133 175 222 277 327 395
#
# _framework density 20.524128000000001
#
# number of rings (size 3 to 8) (size 9 to 14) (size 15 to 20)
#    0.000    1.667    3.333    0.000    4.667    1.333 
#    6.000    0.833    0.000    0.000    0.000    0.000 
#    0.000    0.000    0.000    0.000    0.000    0.000 
#
# Total GULP energy -134030.873758 kJ/mol
# GULP energy per Si atom -5584.619740 kJ/mol
# Density = 2.047741 g / cm^3
# Si number density = 20.524128 Si / 1000 Ang^3
#
#
#
# Elastic Constant Matrix: (Units=GPa)
#
#
# Indices 1 2 3 4 5 6 
#
# 1 51.3166 28.5026 34.1031 0.0000 -9.8329 0.0000
# 2 28.5026 108.9306 61.9365 0.0000 -27.1297 0.0000
# 3 34.1031 61.9365 172.7367 0.0000 -24.4141 0.0000
# 4 0.0000 0.0000 0.0000 24.4843 0.0000 5.0034
# 5 -9.8329 -27.1297 -24.4141 0.0000 36.3885 0.0000
# 6 0.0000 0.0000 0.0000 5.0034 0.0000 7.1693
#
#
#
# Elastic Compliance Matrix: (Units=1/GPa)
#
#
# Indices 1 2 3 4 5 6 
#
# 1 0.024128 -0.004253 -0.003055 0.000000 0.001300 0.000000
# 2 -0.004253 0.013826 -0.003119 0.000000 0.007066 0.000000
# 3 -0.003055 -0.003119 0.007806 0.000000 0.002086 0.000000
# 4 0.000000 0.000000 0.000000 0.047636 0.000000 -0.033245
# 5 0.001300 0.007066 0.002086 0.000000 0.034500 0.000000
# 6 0.000000 0.000000 0.000000 -0.033245 0.000000 0.162685
#
#
# Mechanical properties :
#
#
# Convention : Reuss Voigt Hill
#
# Bulk Modulus (GPa) = 40.15050 64.67425 52.41237
# Shear Modulus (GPa) = 15.63784 27.50454 21.57119
#
# Velocity S-wave (km/s) = 2.76329 3.66472 3.24545
# Velocity P-wave (km/s) = 5.45766 7.03467 6.29574
#
# Compressibility (1/GPa) = 0.02490629
#
# Stress axis : x y z
#
# Youngs Moduli (GPa) = 41.44529 72.32560 128.11360
#
# Poissons Ratio (x) = 0.30757 0.39140
# Poissons Ratio (y) = 0.17625 0.39962
# Poissons Ratio (z) = 0.12662 0.22560
#
# Static dielectric constant tensor:
#      x y z
#    x 1.767970 0.000000 0.024730 
#    y 0.000000 1.702980 0.000000 
#    z 0.024730 0.000000 1.749310 
# 
# From -- ./inp_files/103807.got.cif
#   From: 2010.05.17/outbox.cif.g08.bks.cpg/sg15_52_cif.got.tgz:103807.got - 2010.06.03 18:47:42.
