data_PCOD9283199
_publ_section_title
;
Structure prediction by ZEFSAII (Michael W. Deem and Ramdas Pophale) SiO2 
 PCOD9283199
Probable space group: C 2/C
;
_chemical_formula_sum "Si O2"
_cell_formula_units_Z 64
_cell_length_a 11.571582
_cell_length_b 14.336197
_cell_length_c 27.400448
_cell_angle_alpha 90.000000
_cell_angle_beta 43.325709
_cell_angle_gamma 90.000000
_cell_volume 3118.890755
_symmetry_space_group_name_H-M "C 2/C"
_symmetry_group_IT_number 15
_symmetry_cell_setting 'monoclinic'
loop_
_space_group_symop_operation_xyz
x,y,z
-x,y,1/2-z
-x,-y,-z
x,-y,1/2+z
1/2+x,1/2+y,z
1/2-x,1/2+y,1/2-z
1/2-x,1/2-y,-z
1/2+x,1/2-y,1/2+z
loop_
_atom_site_type_symbol
_atom_site_label
_atom_site_fract_x
_atom_site_fract_y
_atom_site_fract_z
Si Si1 0.353752 0.140896 0.677641
Si Si2 0.198929 0.667950 0.193218
Si Si3 0.222646 0.919253 0.933359
Si Si4 0.111685 0.100603 0.910074
Si Si5 0.732163 0.563646 0.094144
Si Si6 0.546323 0.996209 0.560611
Si Si7 0.898603 0.749457 0.828792
Si Si8 0.626302 0.496126 0.802816
O O1 0.241841 0.225576 0.692229
O O2 0.475786 0.095241 0.600429
O O3 0.469631 0.183200 0.684419
O O4 0.244820 0.056032 0.731932
O O5 0.266375 0.640502 0.119045
O O6 0.286573 0.601152 0.206937
O O7 0.000000 0.650381 0.250000
O O8 0.183480 0.024645 0.926699
O O9 0.388035 0.932324 0.915383
O O10 0.073325 0.879163 0.012584
O O11 0.236954 0.186849 0.865788
O O12 0.104027 0.050556 0.860521
O O13 0.891279 0.552051 0.080604
O O14 0.670106 0.670251 0.114383
O O15 0.559617 0.513174 0.162372
O O16 0.798969 0.520552 0.022945
O O17 0.000000 0.786434 0.750000
#
# Coordination Sequence:
#
# PCOD9283199 Si02
#       8
#     8   8   8   8   8   8   8   8
#     4  12  26  42  69 100 136 176 231 277 333 401
#     4  11  26  42  67 103 134 175 229 280 337 397
#     4  10  21  42  70  98 131 174 221 282 338 391
#     4  10  21  39  69 101 131 170 226 276 334 396
#     4  11  27  46  67  97 139 179 226 271 348 409
#     4  11  25  46  69  97 135 182 219 279 346 406
#     4  12  25  42  66 103 134 182 229 276 330 409
#     4  11  23  45  69  96 140 178 220 282 333 404
#
# _framework density 20.520115000000001
#
# number of rings (size 3 to 8) (size 9 to 14) (size 15 to 20)
#    0.000    1.000    5.000    0.750    7.000    1.500 
#    0.000    0.625    0.000    0.000    0.000    0.000 
#    0.000    0.000    0.000    0.000    0.000    0.000 
#
# Total GULP energy -178756.231897 kJ/mol
# GULP energy per Si atom -5586.132247 kJ/mol
# Density = 2.047341 g / cm^3
# Si number density = 20.520115 Si / 1000 Ang^3
#
#
#
# Elastic Constant Matrix: (Units=GPa)
#
#
# Indices 1 2 3 4 5 6 
#
# 1 52.4193 18.6525 23.4928 0.0000 -15.5477 0.0000
# 2 18.6525 58.9243 28.9895 0.0000 -6.8581 0.0000
# 3 23.4928 28.9895 73.6097 0.0000 -18.7679 0.0000
# 4 0.0000 0.0000 0.0000 25.1368 0.0000 -7.8801
# 5 -15.5477 -6.8581 -18.7679 0.0000 28.5756 0.0000
# 6 0.0000 0.0000 0.0000 -7.8801 0.0000 11.1548
#
#
#
# Elastic Compliance Matrix: (Units=1/GPa)
#
#
# Indices 1 2 3 4 5 6 
#
# 1 0.025552 -0.005173 -0.003471 0.000000 0.010382 0.000000
# 2 -0.005173 0.022102 -0.007710 0.000000 -0.002573 0.000000
# 3 -0.003471 -0.007710 0.020150 0.000000 0.009495 0.000000
# 4 0.000000 0.000000 0.000000 0.051098 0.000000 0.036098
# 5 0.010382 -0.002573 0.009495 0.000000 0.046262 0.000000
# 6 0.000000 0.000000 0.000000 0.036098 0.000000 0.115148
#
#
# Mechanical properties :
#
#
# Convention : Reuss Voigt Hill
#
# Bulk Modulus (GPa) = 28.49175 36.35810 32.42493
# Shear Modulus (GPa) = 15.39793 20.56135 17.97964
#
# Velocity S-wave (km/s) = 2.74228 3.16889 2.96327
# Velocity P-wave (km/s) = 4.89303 5.58085 5.24822
#
# Compressibility (1/GPa) = 0.03509788
#
# Stress axis : x y z
#
# Youngs Moduli (GPa) = 39.13525 45.24526 49.62735
#
# Poissons Ratio (x) = 0.23404 0.17226
# Poissons Ratio (y) = 0.20243 0.38260
# Poissons Ratio (z) = 0.13584 0.34882
#
# Static dielectric constant tensor:
#      x y z
#    x 1.735710 0.000000 0.005330 
#    y 0.000000 1.709040 0.000000 
#    z 0.005330 0.000000 1.728530 
# 
# From -- ./inp_files/311190.got.cif
#   From: 2010.05.17/outbox.cif.g08.bks.cpg/sg15_156_cif.got.tgz:311190.got - 2010.06.03 18:47:42.
