data_PCOD9283167
_publ_section_title
;
Structure prediction by ZEFSAII (Michael W. Deem and Ramdas Pophale) SiO2 
 PCOD9283167
Probable space group: C 2/C
;
_chemical_formula_sum "Si O2"
_cell_formula_units_Z 40
_cell_length_a 12.306398
_cell_length_b 26.615838
_cell_length_c 8.749628
_cell_angle_alpha 90.000000
_cell_angle_beta 140.021529
_cell_angle_gamma 90.000000
_cell_volume 1841.338500
_symmetry_space_group_name_H-M "C 2/C"
_symmetry_group_IT_number 15
_symmetry_cell_setting 'monoclinic'
loop_
_space_group_symop_operation_xyz
x,y,z
-x,y,1/2-z
-x,-y,-z
x,-y,1/2+z
1/2+x,1/2+y,z
1/2-x,1/2+y,1/2-z
1/2-x,1/2-y,-z
1/2+x,1/2-y,1/2+z
loop_
_atom_site_type_symbol
_atom_site_label
_atom_site_fract_x
_atom_site_fract_y
_atom_site_fract_z
Si Si1 0.698701 0.490868 0.239566
Si Si2 0.801903 0.694706 0.503088
Si Si3 0.889250 0.158227 0.494854
Si Si4 0.325554 0.063132 0.152848
Si Si5 0.632241 0.394580 0.012901
O O1 0.813698 0.536994 0.306388
O O2 0.723530 0.476933 0.441636
O O3 0.745247 0.438996 0.201361
O O4 0.500000 0.500000 0.000000
O O5 0.750000 0.750000 0.500000
O O6 0.729709 0.688405 0.252285
O O7 0.719175 0.650754 0.516023
O O8 0.000000 0.689911 0.750000
O O9 0.770335 0.115729 0.440534
O O10 0.025018 0.129460 0.534905
O O11 0.000000 0.183693 0.750000
O O12 0.500000 0.068552 0.250000
O O13 0.500000 0.417377 0.750000
#
# Coordination Sequence:
#
# PCOD9283167 Si02
#       5
#     8   8   8   8   8
#     4  12  22  41  64  94 137 188 236 268 347 414
#     4  11  26  48  74 104 138 178 232 291 358 426
#     4  11  22  44  71 101 135 184 231 286 346 413
#     4  12  26  39  61 100 142 177 234 289 343 408
#     4  10  21  39  68  94 135 181 229 275 347 414
#
# _framework density 21.723329
#
# number of rings (size 3 to 8) (size 9 to 14) (size 15 to 20)
#    0.000    0.800    4.000    4.200    5.600    0.800 
#    0.000    4.000    0.000    0.000    0.000    0.000 
#    0.000    0.000    0.000    0.000    0.000    0.000 
#
# Total GULP energy -111736.236255 kJ/mol
# GULP energy per Si atom -5586.811813 kJ/mol
# Density = 2.167389 g / cm^3
# Si number density = 21.723329 Si / 1000 Ang^3
#
#
#
# Elastic Constant Matrix: (Units=GPa)
#
#
# Indices 1 2 3 4 5 6 
#
# 1 102.2789 29.9089 51.5155 0.0000 13.7929 0.0000
# 2 29.9089 88.5160 40.2149 0.0000 2.3659 0.0000
# 3 51.5155 40.2149 136.4004 0.0000 -5.7520 0.0000
# 4 0.0000 0.0000 0.0000 30.2203 0.0000 0.2457
# 5 13.7929 2.3659 -5.7520 0.0000 41.4687 0.0000
# 6 0.0000 0.0000 0.0000 0.2457 0.0000 32.5212
#
#
#
# Elastic Compliance Matrix: (Units=1/GPa)
#
#
# Indices 1 2 3 4 5 6 
#
# 1 0.013446 -0.002318 -0.004605 0.000000 -0.004979 0.000000
# 2 -0.002318 0.013513 -0.003127 0.000000 -0.000434 0.000000
# 3 -0.004605 -0.003127 0.010124 0.000000 0.003114 0.000000
# 4 0.000000 0.000000 0.000000 0.033092 0.000000 -0.000250
# 5 -0.004979 -0.000434 0.003114 0.000000 0.026227 0.000000
# 6 0.000000 0.000000 0.000000 -0.000250 0.000000 0.030751
#
#
# Mechanical properties :
#
#
# Convention : Reuss Voigt Hill
#
# Bulk Modulus (GPa) = 58.88220 63.38601 61.13410
# Shear Modulus (GPa) = 32.69833 34.54575 33.62204
#
# Velocity S-wave (km/s) = 3.88392 3.99213 3.93840
# Velocity P-wave (km/s) = 6.87586 7.10575 6.99175
#
# Compressibility (1/GPa) = 0.01698306
#
# Stress axis : x y z
#
# Youngs Moduli (GPa) = 74.37305 74.00378 98.77883
#
# Poissons Ratio (x) = 0.17155 0.45484
# Poissons Ratio (y) = 0.17241 0.30886
# Poissons Ratio (z) = 0.34246 0.23139
#
# Static dielectric constant tensor:
#      x y z
#    x 1.823290 0.000000 -0.033500 
#    y 0.000000 1.658600 0.000000 
#    z -0.033500 0.000000 1.872560 
# 
# From -- ./inp_files/35451.got.cif
#   From: 2010.05.17/outbox.cif.g08.bks.cpg/sg15_18_cif.got.tgz:35451.got - 2010.06.03 18:47:42.
