data_PCOD9283566
_publ_section_title
;
Structure prediction by ZEFSAII (Michael W. Deem and Ramdas Pophale) SiO2 
 PCOD9283566
Probable space group: C 2/C
;
_chemical_formula_sum "Si O2"
_cell_formula_units_Z 56
_cell_length_a 4.906919
_cell_length_b 16.847531
_cell_length_c 25.750532
_cell_angle_alpha 90.000000
_cell_angle_beta 101.520979
_cell_angle_gamma 90.000000
_cell_volume 2085.891349
_symmetry_space_group_name_H-M "C 2/C"
_symmetry_group_IT_number 15
_symmetry_cell_setting 'monoclinic'
loop_
_space_group_symop_operation_xyz
x,y,z
-x,y,1/2-z
-x,-y,-z
x,-y,1/2+z
1/2+x,1/2+y,z
1/2-x,1/2+y,1/2-z
1/2-x,1/2-y,-z
1/2+x,1/2-y,1/2+z
loop_
_atom_site_type_symbol
_atom_site_label
_atom_site_fract_x
_atom_site_fract_y
_atom_site_fract_z
Si Si1 0.912938 0.122495 0.669538
Si Si2 0.609511 0.594645 0.415703
Si Si3 0.231471 0.951187 0.803185
Si Si4 0.488251 0.750650 0.396728
Si Si5 0.101216 0.068152 0.565968
Si Si6 0.538752 0.862226 0.015745
Si Si7 0.234172 0.724203 0.201094
O O1 0.693880 0.180979 0.634692
O O2 0.094257 0.088599 0.627420
O O3 0.094032 0.189873 0.705548
O O4 0.751993 0.049658 0.692811
O O5 0.661260 0.564317 0.360044
O O6 0.378240 0.662910 0.402580
O O7 0.502127 0.520483 0.443045
O O8 0.876869 0.628629 0.456017
O O9 0.397940 0.865947 0.798585
O O10 0.000000 0.945537 0.750000
O O11 0.546496 0.783901 0.455832
O O12 0.702778 0.732705 0.358313
O O13 0.869249 0.125146 0.530751
O O14 0.397830 0.073570 0.549694
O O15 0.500000 0.722954 0.250000
#
# Coordination Sequence:
#
# PCOD9283566 Si02
#       7
#     8   8   8   8   8   8   8
#     4  10  21  41  64  94 128 178 218 282 352 413
#     4  10  21  40  62  96 132 177 225 285 343 413
#     4   9  21  41  65  93 131 171 228 289 347 423
#     4  10  22  40  60  93 133 171 228 279 347 419
#     4  10  22  41  65  97 137 177 228 277 347 416
#     4  11  21  42  65  98 137 182 228 280 349 420
#     4  10  21  40  64  92 130 173 229 289 354 416
#
# _framework density 26.847037
#
# number of rings (size 3 to 8) (size 9 to 14) (size 15 to 20)
#    0.000    2.000    1.429    1.286    2.000    0.000 
#   15.429    2.143    0.000    0.000    0.000    0.000 
#    0.000    0.000    0.000    0.000    0.000    0.000 
#
# Total GULP energy -155907.101562 kJ/mol
# GULP energy per Si atom -5568.110770 kJ/mol
# Density = 2.678593 g / cm^3
# Si number density = 26.847037 Si / 1000 Ang^3
#
#
#
# Elastic Constant Matrix: (Units=GPa)
#
#
# Indices 1 2 3 4 5 6 
#
# 1 63.7888 29.2806 26.6515 0.0000 -5.4458 0.0000
# 2 29.2806 217.0956 35.8802 0.0000 10.9761 0.0000
# 3 26.6515 35.8802 143.6583 0.0000 0.0721 0.0000
# 4 0.0000 0.0000 0.0000 46.4000 0.0000 35.3227
# 5 -5.4458 10.9761 0.0721 0.0000 46.8360 0.0000
# 6 0.0000 0.0000 0.0000 35.3227 0.0000 -29.8477
#
#
#
# Elastic Compliance Matrix: (Units=1/GPa)
#
#
# Indices 1 2 3 4 5 6 
#
# 1 0.018041 -0.002098 -0.002824 0.000000 0.002594 0.000000
# 2 -0.002098 0.005108 -0.000886 0.000000 -0.001440 0.000000
# 3 -0.002824 -0.000886 0.007706 0.000000 -0.000133 0.000000
# 4 0.000000 0.000000 0.000000 0.011338 0.000000 0.013417
# 5 0.002594 -0.001440 -0.000133 0.000000 0.021990 0.000000
# 6 0.000000 0.000000 0.000000 0.013417 0.000000 -0.017625
#
#
# Mechanical properties :
#
#
# Convention : Reuss Voigt Hill
#
# Bulk Modulus (GPa) = 51.97569 67.57415 59.77492
# Shear Modulus (GPa) = 77.41387 34.85969 56.13678
#
# Velocity S-wave (km/s) = 5.37566 3.60732 4.57769
# Velocity P-wave (km/s) = 7.61133 6.52495 7.08898
#
# Compressibility (1/GPa) = 0.01923977
#
# Stress axis : x y z
#
# Youngs Moduli (GPa) = 55.42912 195.75592 129.76397
#
# Poissons Ratio (x) = 0.41062 0.36650
# Poissons Ratio (y) = 0.11627 0.11497
# Poissons Ratio (z) = 0.15655 0.17344
#
# Static dielectric constant tensor:
#      x y z
#    x 2.283520 0.000000 0.053210 
#    y 0.000000 2.201760 0.000000 
#    z 0.053210 0.000000 2.146960 
# 
# From -- ./inp_files/286112.got.cif
#   From: 2010.05.17/outbox.cif.g08.bks.cpg/sg15_144_cif.got.tgz:286112.got - 2010.06.03 18:47:42.
