data_PCOD9283411
_publ_section_title
;
Structure prediction by ZEFSAII (Michael W. Deem and Ramdas Pophale) SiO2 
 PCOD9283411
Probable space group: C 2/C
;
_chemical_formula_sum "Si O2"
_cell_formula_units_Z 52
_cell_length_a 11.698066
_cell_length_b 19.627598
_cell_length_c 9.255182
_cell_angle_alpha 90.000000
_cell_angle_beta 94.139840
_cell_angle_gamma 90.000000
_cell_volume 2119.490893
_symmetry_space_group_name_H-M "C 2/C"
_symmetry_group_IT_number 15
_symmetry_cell_setting 'monoclinic'
loop_
_space_group_symop_operation_xyz
x,y,z
-x,y,1/2-z
-x,-y,-z
x,-y,1/2+z
1/2+x,1/2+y,z
1/2-x,1/2+y,1/2-z
1/2-x,1/2-y,-z
1/2+x,1/2-y,1/2+z
loop_
_atom_site_type_symbol
_atom_site_label
_atom_site_fract_x
_atom_site_fract_y
_atom_site_fract_z
Si Si1 0.835532 0.872471 0.751308
Si Si2 0.836580 0.723619 0.806471
Si Si3 0.572534 0.255489 0.379680
Si Si4 0.500000 0.479598 0.750000
Si Si5 0.057555 0.903814 0.428641
Si Si6 0.878955 0.557218 0.160470
Si Si7 0.689845 0.924443 0.178325
O O1 0.860250 0.793480 0.720722
O O2 0.897997 0.932642 0.671509
O O3 0.704415 0.886466 0.774853
O O4 0.897276 0.893000 0.906624
O O5 0.703372 0.732100 0.841195
O O6 0.848430 0.647091 0.752247
O O7 0.912261 0.725091 0.959823
O O8 0.500000 0.218415 0.250000
O O9 0.510456 0.328585 0.392970
O O10 0.524928 0.535659 0.627280
O O11 0.177340 0.916889 0.354709
O O12 0.829275 0.485022 0.211534
O O13 0.000000 0.561843 0.250000
O O14 0.872896 0.563445 0.984678
#
# Coordination Sequence:
#
# PCOD9283411 Si02
#       7
#     8   8   8   4   8   8   8
#     4  10  22  36  56  84 120 152 196 242 297 357
#     4   9  20  35  51  86 118 147 193 244 293 356
#     4   9  15  29  55  80 109 145 193 241 288 337
#     4  12  18  34  56  82 116 152 192 240 306 354
#     4   9  18  32  55  87 111 146 195 248 288 345
#     4  11  22  39  64  89 117 158 203 251 288 349
#     4  10  21  40  61  89 122 152 199 251 297 350
#
# _framework density 24.534193999999999
#
# number of rings (size 3 to 8) (size 9 to 14) (size 15 to 20)
#    0.000    2.154    2.308    3.692    0.000    2.462 
#    1.385    0.000    0.000    0.923    0.000    0.000 
#    0.000    0.000    0.000    0.000    0.000    0.000 
#
# Total GULP energy -144920.468960 kJ/mol
# GULP energy per Si atom -5573.864191 kJ/mol
# Density = 2.447835 g / cm^3
# Si number density = 24.534194 Si / 1000 Ang^3
#
#
#
# Elastic Constant Matrix: (Units=GPa)
#
#
# Indices 1 2 3 4 5 6 
#
# 1 43.7163 0.8598 1.8303 0.0000 9.3422 0.0000
# 2 0.8598 197.4481 9.6098 0.0000 -12.8309 0.0000
# 3 1.8303 9.6098 52.1252 0.0000 13.9100 0.0000
# 4 0.0000 0.0000 0.0000 4.6700 0.0000 -9.1561
# 5 9.3422 -12.8309 13.9100 0.0000 28.0684 0.0000
# 6 0.0000 0.0000 0.0000 -9.1561 0.0000 11.2021
#
#
#
# Elastic Compliance Matrix: (Units=1/GPa)
#
#
# Indices 1 2 3 4 5 6 
#
# 1 0.024856 -0.000818 0.001827 0.000000 -0.009552 0.000000
# 2 -0.000818 0.005405 -0.001959 0.000000 0.003714 0.000000
# 3 0.001827 -0.001959 0.022913 0.000000 -0.012859 0.000000
# 4 0.000000 0.000000 0.000000 -0.355401 0.000000 -0.290488
# 5 -0.009552 0.003714 -0.012859 0.000000 0.046877 0.000000
# 6 0.000000 0.000000 0.000000 -0.290488 0.000000 -0.148163
#
#
# Mechanical properties :
#
#
# Convention : Reuss Voigt Hill
#
# Bulk Modulus (GPa) = 19.50288 35.32106 27.41197
# Shear Modulus (GPa) = -13.00311 27.52076 7.25883
#
# Velocity S-wave (km/s) = -2.30467 3.35286 1.72194
# Velocity P-wave (km/s) = 0.94049 5.42373 3.89238
#
# Compressibility (1/GPa) = 0.05127447
#
# Stress axis : x y z
#
# Youngs Moduli (GPa) = 40.23219 185.01924 43.64342
#
# Poissons Ratio (x) = 0.15133 -0.07974
# Poissons Ratio (y) = 0.03291 0.08549
# Poissons Ratio (z) = -0.07351 0.36240
#
# Static dielectric constant tensor:
#      x y z
#    x 2.170790 0.000000 -0.258520 
#    y 0.000000 2.071910 0.000000 
#    z -0.258520 0.000000 2.262910 
# 
# From -- ./inp_files/99143.got.cif
#   From: 2010.05.17/outbox.cif.g08.bks.cpg/sg15_50_cif.got.tgz:99143.got - 2010.06.03 18:47:42.
