data_PCOD9283989
_publ_section_title
;
Structure prediction by ZEFSAII (Michael W. Deem and Ramdas Pophale) SiO2 
 PCOD9283989
Probable space group: C 2/C
;
_chemical_formula_sum "Si O2"
_cell_formula_units_Z 40
_cell_length_a 10.193180
_cell_length_b 10.642376
_cell_length_c 16.303686
_cell_angle_alpha 90.000000
_cell_angle_beta 69.096836
_cell_angle_gamma 90.000000
_cell_volume 1652.216210
_symmetry_space_group_name_H-M "C 2/C"
_symmetry_group_IT_number 15
_symmetry_cell_setting 'monoclinic'
loop_
_space_group_symop_operation_xyz
x,y,z
-x,y,1/2-z
-x,-y,-z
x,-y,1/2+z
1/2+x,1/2+y,z
1/2-x,1/2+y,1/2-z
1/2-x,1/2-y,-z
1/2+x,1/2-y,1/2+z
loop_
_atom_site_type_symbol
_atom_site_label
_atom_site_fract_x
_atom_site_fract_y
_atom_site_fract_z
Si Si1 0.500000 0.295219 0.250000
Si Si2 0.870895 0.346419 0.445893
Si Si3 0.000000 0.360481 0.250000
Si Si4 0.914472 0.692587 0.107441
Si Si5 0.356706 0.519324 0.580333
Si Si6 0.769181 0.000435 0.764550
O O1 0.507043 0.205536 0.168758
O O2 0.632375 0.391112 0.220132
O O3 0.750000 0.250000 0.500000
O O4 0.944575 0.299441 0.346604
O O5 0.966738 0.350684 0.506044
O O6 0.784539 0.473870 0.442946
O O7 0.870603 0.439759 0.243221
O O8 0.869359 0.837570 0.109730
O O9 0.785237 0.602285 0.159883
O O10 0.500000 0.500000 0.500000
O O11 0.344084 0.441326 0.667085
#
# Coordination Sequence:
#
# PCOD9283989 Si02
#       6
#     4   8   4   8   8   8
#     4  10  23  44  67 110 148 182 253 303 354 444
#     4   9  20  40  64  99 135 184 243 291 362 438
#     4  10  21  44  71  96 142 192 233 309 370 430
#     4  10  21  40  66 100 138 184 237 291 363 433
#     4   9  20  41  64 101 142 184 248 304 351 442
#     4  10  22  41  72  95 144 193 234 304 370 428
#
# _framework density 24.209907000000001
#
# number of rings (size 3 to 8) (size 9 to 14) (size 15 to 20)
#    0.000    2.400    0.000    1.800    5.600    0.800 
#   28.800    5.000    0.000    0.000    0.000    0.000 
#    0.000    0.000    0.000    0.000    0.000    0.000 
#
# Total GULP energy -111440.164398 kJ/mol
# GULP energy per Si atom -5572.008220 kJ/mol
# Density = 2.415480 g / cm^3
# Si number density = 24.209907 Si / 1000 Ang^3
#
#
#
# Elastic Constant Matrix: (Units=GPa)
#
#
# Indices 1 2 3 4 5 6 
#
# 1 98.7417 29.7106 39.2726 0.0000 14.2112 0.0000
# 2 29.7106 68.2678 42.1067 0.0000 -2.4683 0.0000
# 3 39.2726 42.1067 231.3508 0.0000 6.5084 0.0000
# 4 0.0000 0.0000 0.0000 -3.2247 0.0000 18.8784
# 5 14.2112 -2.4683 6.5084 0.0000 47.9941 0.0000
# 6 0.0000 0.0000 0.0000 18.8784 0.0000 20.8975
#
#
#
# Elastic Compliance Matrix: (Units=1/GPa)
#
#
# Indices 1 2 3 4 5 6 
#
# 1 0.012614 -0.004927 -0.001137 0.000000 -0.003834 0.000000
# 2 -0.004927 0.018502 -0.002609 0.000000 0.002764 0.000000
# 3 -0.001137 -0.002609 0.005004 0.000000 -0.000476 0.000000
# 4 0.000000 0.000000 0.000000 -0.049312 0.000000 0.044547
# 5 -0.003834 0.002764 -0.000476 0.000000 0.022178 0.000000
# 6 0.000000 0.000000 0.000000 0.044547 0.000000 0.007609
#
#
# Mechanical properties :
#
#
# Convention : Reuss Voigt Hill
#
# Bulk Modulus (GPa) = 53.26543 68.94891 61.10717
# Shear Modulus (GPa) = 124.38591 32.28474 78.33532
#
# Velocity S-wave (km/s) = 7.17563 3.65572 5.69447
# Velocity P-wave (km/s) = 9.52377 6.80886 8.27836
#
# Compressibility (1/GPa) = 0.01877390
#
# Stress axis : x y z
#
# Youngs Moduli (GPa) = 79.27762 54.04966 199.85720
#
# Poissons Ratio (x) = 0.26632 0.22716
# Poissons Ratio (y) = 0.39062 0.52137
# Poissons Ratio (z) = 0.09011 0.14100
#
# Static dielectric constant tensor:
#      x y z
#    x 2.097080 0.000000 0.052850 
#    y 0.000000 1.945070 0.000000 
#    z 0.052850 0.000000 2.188500 
# 
# From -- ./inp_files/142169.got.cif
#   From: 2010.05.17/outbox.cif.g08.bks.cpg/sg15_72_cif.got.tgz:142169.got - 2010.06.03 18:47:42.
