data_PCOD9283319
_publ_section_title
;
Structure prediction by ZEFSAII (Michael W. Deem and Ramdas Pophale) SiO2 
 PCOD9283319
Probable space group: C 2/C
;
_chemical_formula_sum "Si O2"
_cell_formula_units_Z 52
_cell_length_a 12.648991
_cell_length_b 18.773824
_cell_length_c 13.773332
_cell_angle_alpha 90.000000
_cell_angle_beta 139.516549
_cell_angle_gamma 90.000000
_cell_volume 2123.465182
_symmetry_space_group_name_H-M "C 2/C"
_symmetry_group_IT_number 15
_symmetry_cell_setting 'monoclinic'
loop_
_space_group_symop_operation_xyz
x,y,z
-x,y,1/2-z
-x,-y,-z
x,-y,1/2+z
1/2+x,1/2+y,z
1/2-x,1/2+y,1/2-z
1/2-x,1/2-y,-z
1/2+x,1/2-y,1/2+z
loop_
_atom_site_type_symbol
_atom_site_label
_atom_site_fract_x
_atom_site_fract_y
_atom_site_fract_z
Si Si1 0.756394 0.902037 0.002568
Si Si2 0.203205 0.466823 0.716333
Si Si3 0.678181 0.213170 0.693690
Si Si4 0.382554 0.050582 0.555159
Si Si5 0.603694 0.410152 0.177045
Si Si6 0.500000 0.184715 0.750000
Si Si7 0.042721 0.321693 0.646051
O O1 0.820616 0.906830 0.159971
O O2 0.917237 0.888436 0.053501
O O3 0.620880 0.839958 0.906629
O O4 0.685674 0.981709 0.934339
O O5 0.215305 0.443624 0.612350
O O6 0.364174 0.512052 0.842477
O O7 0.141798 0.395383 0.722039
O O8 0.058716 0.523587 0.638295
O O9 0.785584 0.145506 0.801130
O O10 0.588607 0.232836 0.731070
O O11 0.818200 0.262711 0.745153
O O12 0.540979 0.193810 0.517978
O O13 0.392359 0.125529 0.615959
#
# Coordination Sequence:
#
# PCOD9283319 Si02
#       7
#     8   8   8   8   8   4   8
#     4   8  17  33  60  86 115 144 210 254 315 359
#     4   9  15  35  61  80 111 156 211 253 301 359
#     4  11  23  38  59  84 129 168 209 245 314 366
#     4   9  16  31  57  82 107 152 197 258 305 353
#     4   9  16  34  61  91 107 152 206 269 302 365
#     4  12  20  36  56  86 122 164 202 254 308 366
#     4  10  21  40  59  87 123 171 204 253 303 377
#
# _framework density 24.488275000000002
#
# number of rings (size 3 to 8) (size 9 to 14) (size 15 to 20)
#    0.000    2.462    3.077    1.846    0.000    1.231 
#    2.769    5.385    0.000    1.846    0.000    0.000 
#    0.000    0.000    0.000    0.000    0.000    0.000 
#
# Total GULP energy -145071.819530 kJ/mol
# GULP energy per Si atom -5579.685367 kJ/mol
# Density = 2.443254 g / cm^3
# Si number density = 24.488275 Si / 1000 Ang^3
#
#
#
# Elastic Constant Matrix: (Units=GPa)
#
#
# Indices 1 2 3 4 5 6 
#
# 1 91.8968 12.3145 33.6970 0.0000 4.1425 0.0000
# 2 12.3145 80.5417 28.6862 0.0000 11.5777 0.0000
# 3 33.6970 28.6862 110.8780 0.0001 18.7948 0.0000
# 4 0.0000 0.0000 0.0001 29.1431 0.0000 13.9402
# 5 4.1425 11.5777 18.7948 0.0000 19.1884 0.0000
# 6 0.0000 0.0000 0.0000 13.9402 0.0000 40.2256
#
#
#
# Elastic Compliance Matrix: (Units=1/GPa)
#
#
# Indices 1 2 3 4 5 6 
#
# 1 0.012309 -0.000745 -0.003806 0.000000 0.001520 0.000000
# 2 -0.000745 0.014269 -0.002438 0.000000 -0.006061 0.000000
# 3 -0.003806 -0.002438 0.012492 0.000000 -0.009943 0.000000
# 4 0.000000 0.000000 0.000000 0.041132 0.000000 -0.014254
# 5 0.001520 -0.006061 -0.009943 0.000000 0.065183 0.000000
# 6 0.000000 0.000000 0.000000 -0.014254 0.000000 0.029800
#
#
# Mechanical properties :
#
#
# Convention : Reuss Voigt Hill
#
# Bulk Modulus (GPa) = 39.85249 48.07909 43.96579
# Shear Modulus (GPa) = 25.31328 31.61933 28.46631
#
# Velocity S-wave (km/s) = 3.21859 3.59723 3.41317
# Velocity P-wave (km/s) = 5.48834 6.07697 5.79014
#
# Compressibility (1/GPa) = 0.02509253
#
# Stress axis : x y z
#
# Youngs Moduli (GPa) = 81.24451 70.07997 80.05356
#
# Poissons Ratio (x) = 0.05221 0.30465
# Poissons Ratio (y) = 0.06052 0.19517
# Poissons Ratio (z) = 0.30918 0.17085
#
# Static dielectric constant tensor:
#      x y z
#    x 1.991440 0.000000 -0.075810 
#    y 0.000000 1.961850 0.000000 
#    z -0.075810 0.000000 1.982790 
# 
# From -- ./inp_files/200416.got.cif
#   From: 2010.05.17/outbox.cif.g08.bks.cpg/sg15_101_cif.got.tgz:200416.got - 2010.06.03 18:47:42.
