data_PCOD9283090
_publ_section_title
;
Structure prediction by ZEFSAII (Michael W. Deem and Ramdas Pophale) SiO2 
 PCOD9283090
Probable space group: C 2/C
;
_chemical_formula_sum "Si O2"
_cell_formula_units_Z 64
_cell_length_a 21.036073
_cell_length_b 9.027126
_cell_length_c 16.076031
_cell_angle_alpha 90.000000
_cell_angle_beta 90.872697
_cell_angle_gamma 90.000000
_cell_volume 3052.408324
_symmetry_space_group_name_H-M "C 2/C"
_symmetry_group_IT_number 15
_symmetry_cell_setting 'monoclinic'
loop_
_space_group_symop_operation_xyz
x,y,z
-x,y,1/2-z
-x,-y,-z
x,-y,1/2+z
1/2+x,1/2+y,z
1/2-x,1/2+y,1/2-z
1/2-x,1/2-y,-z
1/2+x,1/2-y,1/2+z
loop_
_atom_site_type_symbol
_atom_site_label
_atom_site_fract_x
_atom_site_fract_y
_atom_site_fract_z
Si Si1 0.673513 0.022536 0.996390
Si Si2 0.361569 0.217577 0.656092
Si Si3 0.740177 0.460035 0.847518
Si Si4 0.867602 0.572168 0.250348
Si Si5 0.038108 0.847934 0.496913
Si Si6 0.997670 0.284938 0.151565
Si Si7 0.453511 0.094687 0.405127
Si Si8 0.839964 0.769821 0.095850
O O1 0.674028 0.123070 0.914869
O O2 0.685896 0.853895 0.968627
O O3 0.724685 0.075268 0.064560
O O4 0.602509 0.036720 0.034358
O O5 0.316345 0.350757 0.678588
O O6 0.428509 0.272739 0.622328
O O7 0.381268 0.099083 0.727330
O O8 0.795791 0.440175 0.781993
O O9 0.710839 0.622249 0.862456
O O10 0.913908 0.636350 0.321637
O O11 0.871483 0.672619 0.169535
O O12 0.047779 0.795597 0.592762
O O13 0.995788 0.721331 0.448742
O O14 0.104995 0.858789 0.450881
O O15 0.000000 0.000000 0.500000
O O16 0.000000 0.257865 0.250000
O O17 0.003861 0.457138 0.125463
#
# Coordination Sequence:
#
# PCOD9283090 Si02
#       8
#     8   8   8   8   8   8   8   8
#     4  10  21  39  67  91 123 180 233 269 326 402
#     4  11  21  39  62  94 129 167 219 280 332 390
#     4  11  23  40  63  94 136 171 222 280 338 390
#     4  10  23  41  66  97 125 176 229 277 326 398
#     4  12  26  44  65 101 145 177 222 285 353 410
#     4  12  23  42  71 101 132 171 228 281 336 413
#     4  11  21  42  69  94 128 177 237 274 325 411
#     4  11  23  41  65  96 138 181 223 277 342 405
#
# _framework density 20.96705
#
# number of rings (size 3 to 8) (size 9 to 14) (size 15 to 20)
#    0.000    1.000    3.750    4.125    0.000    0.000 
#    4.500    1.250    0.000    0.000    0.000    0.000 
#    0.000    0.000    0.000    0.000    0.000    0.000 
#
# Total GULP energy -178713.384883 kJ/mol
# GULP energy per Si atom -5584.793278 kJ/mol
# Density = 2.091933 g / cm^3
# Si number density = 20.967050 Si / 1000 Ang^3
#
#
#
# Elastic Constant Matrix: (Units=GPa)
#
#
# Indices 1 2 3 4 5 6 
#
# 1 61.0926 1.5359 0.5120 0.0000 -8.1230 0.0000
# 2 1.5359 53.1490 19.7044 0.0000 -2.2653 0.0000
# 3 0.5120 19.7044 89.7320 0.0000 -3.6084 0.0000
# 4 0.0000 0.0000 0.0000 15.7689 0.0000 -6.0241
# 5 -8.1230 -2.2653 -3.6084 0.0000 27.3540 0.0000
# 6 0.0000 0.0000 0.0000 -6.0241 0.0000 35.8684
#
#
#
# Elastic Compliance Matrix: (Units=1/GPa)
#
#
# Indices 1 2 3 4 5 6 
#
# 1 0.017048 -0.000344 0.000182 0.000000 0.005058 0.000000
# 2 -0.000344 0.020523 -0.004464 0.000000 0.001008 0.000000
# 3 0.000182 -0.004464 0.012175 0.000000 0.001290 0.000000
# 4 0.000000 0.000000 0.000000 0.067764 0.000000 0.011381
# 5 0.005058 0.001008 0.001290 0.000000 0.038313 0.000000
# 6 0.000000 0.000000 0.000000 0.011381 0.000000 0.029791
#
#
# Mechanical properties :
#
#
# Convention : Reuss Voigt Hill
#
# Bulk Modulus (GPa) = 24.69561 27.49757 26.09659
# Shear Modulus (GPa) = 23.99620 27.94635 25.97128
#
# Velocity S-wave (km/s) = 3.38667 3.65481 3.52329
# Velocity P-wave (km/s) = 5.20544 5.56357 5.38748
#
# Compressibility (1/GPa) = 0.04049302
#
# Stress axis : x y z
#
# Youngs Moduli (GPa) = 58.65701 48.72577 82.13248
#
# Poissons Ratio (x) = 0.01678 -0.01493
# Poissons Ratio (y) = 0.02020 0.36665
# Poissons Ratio (z) = -0.01066 0.21752
#
# Static dielectric constant tensor:
#      x y z
#    x 1.791050 0.000000 -0.019250 
#    y 0.000000 1.739030 0.000000 
#    z -0.019250 0.000000 1.787220 
# 
# From -- ./inp_files/213907.got.cif
#   From: 2010.05.17/outbox.cif.g08.bks.cpg/sg15_107_cif.got.tgz:213907.got - 2010.06.03 18:47:42.
