data_PCOD9283561
_publ_section_title
;
Structure prediction by ZEFSAII (Michael W. Deem and Ramdas Pophale) SiO2 
 PCOD9283561
Probable space group: C 2/C
;
_chemical_formula_sum "Si O2"
_cell_formula_units_Z 40
_cell_length_a 7.412813
_cell_length_b 14.546353
_cell_length_c 19.130139
_cell_angle_alpha 90.000000
_cell_angle_beta 89.784774
_cell_angle_gamma 90.000000
_cell_volume 2062.776754
_symmetry_space_group_name_H-M "C 2/C"
_symmetry_group_IT_number 15
_symmetry_cell_setting 'monoclinic'
loop_
_space_group_symop_operation_xyz
x,y,z
-x,y,1/2-z
-x,-y,-z
x,-y,1/2+z
1/2+x,1/2+y,z
1/2-x,1/2+y,1/2-z
1/2-x,1/2-y,-z
1/2+x,1/2-y,1/2+z
loop_
_atom_site_type_symbol
_atom_site_label
_atom_site_fract_x
_atom_site_fract_y
_atom_site_fract_z
Si Si1 0.778617 0.215927 0.578157
Si Si2 0.082399 0.708516 0.174562
Si Si3 0.050075 0.324325 0.331055
Si Si4 0.794003 0.028567 0.509429
Si Si5 0.486579 0.970469 0.604305
O O1 0.750000 0.250000 0.500000
O O2 0.606911 0.229934 0.627688
O O3 0.800916 0.107866 0.566990
O O4 0.954454 0.254531 0.613719
O O5 0.271687 0.761027 0.165982
O O6 0.000000 0.732660 0.250000
O O7 0.060297 0.598490 0.163503
O O8 0.054765 0.426389 0.366633
O O9 0.000000 0.336437 0.250000
O O10 0.698081 0.056954 0.436457
O O11 0.644860 0.962120 0.544887
O O12 0.000000 0.000000 0.500000
#
# Coordination Sequence:
#
# PCOD9283561 Si02
#       5
#     8   8   8   8   8
#     4  11  23  41  66  98 131 168 223 277 326 404
#     4  12  24  42  69  96 130 177 221 270 342 400
#     4  11  24  44  65  93 139 175 217 282 338 392
#     4  10  21  40  62  95 132 167 217 274 331 396
#     4  10  23  40  64  96 128 170 222 273 328 398
#
# _framework density 19.391338000000001
#
# number of rings (size 3 to 8) (size 9 to 14) (size 15 to 20)
#    0.000    1.200    4.000    1.800    2.800    0.800 
#    0.000    0.000    0.000    0.000    0.000    0.000 
#    0.000    0.000    0.000    0.000    0.000    0.000 
#
# Total GULP energy -111392.351360 kJ/mol
# GULP energy per Si atom -5569.617568 kJ/mol
# Density = 1.934720 g / cm^3
# Si number density = 19.391338 Si / 1000 Ang^3
#
#
#
# Elastic Constant Matrix: (Units=GPa)
#
#
# Indices 1 2 3 4 5 6 
#
# 1 167.6205 38.0826 46.3558 0.0000 -8.0645 0.0000
# 2 38.0826 54.0362 3.0920 0.0000 4.3248 0.0000
# 3 46.3558 3.0920 103.3131 0.0000 0.2670 0.0000
# 4 0.0000 0.0000 0.0000 28.9510 0.0000 -5.0171
# 5 -8.0645 4.3248 0.2670 0.0000 37.8896 0.0000
# 6 0.0000 0.0000 0.0000 -5.0171 0.0000 14.3429
#
#
#
# Elastic Compliance Matrix: (Units=1/GPa)
#
#
# Indices 1 2 3 4 5 6 
#
# 1 0.008434 -0.005937 -0.003613 0.000000 0.002498 0.000000
# 2 -0.005937 0.022888 0.001989 0.000000 -0.003890 0.000000
# 3 -0.003613 0.001989 0.011244 0.000000 -0.001075 0.000000
# 4 0.000000 0.000000 0.000000 0.036770 0.000000 0.012862
# 5 0.002498 -0.003890 -0.001075 0.000000 0.027376 0.000000
# 6 0.000000 0.000000 0.000000 0.012862 0.000000 0.074220
#
#
# Mechanical properties :
#
#
# Convention : Reuss Voigt Hill
#
# Bulk Modulus (GPa) = 36.43881 55.55896 45.99889
# Shear Modulus (GPa) = 24.36617 32.06597 28.21607
#
# Velocity S-wave (km/s) = 3.54863 4.07089 3.81870
# Velocity P-wave (km/s) = 5.96845 7.12810 6.57390
#
# Compressibility (1/GPa) = 0.02744327
#
# Stress axis : x y z
#
# Youngs Moduli (GPa) = 118.56488 43.69095 88.93830
#
# Poissons Ratio (x) = 0.25941 0.32135
# Poissons Ratio (y) = 0.70396 -0.17690
# Poissons Ratio (z) = 0.42839 -0.08690
#
# Static dielectric constant tensor:
#      x y z
#    x 1.687560 0.000000 -0.019570 
#    y 0.000000 1.834810 0.000000 
#    z -0.019570 0.000000 1.680880 
# 
# From -- ./inp_files/184320.got.cif
#   From: 2010.05.17/outbox.cif.g08.bks.cpg/sg15_93_cif.got.tgz:184320.got - 2010.06.03 18:47:42.
