data_PCOD9283847
_publ_section_title
;
Structure prediction by ZEFSAII (Michael W. Deem and Ramdas Pophale) SiO2 
 PCOD9283847
Probable space group: C 2/C
;
_chemical_formula_sum "Si O2"
_cell_formula_units_Z 52
_cell_length_a 14.240490
_cell_length_b 18.582483
_cell_length_c 8.760845
_cell_angle_alpha 90.000000
_cell_angle_beta 77.317089
_cell_angle_gamma 90.000000
_cell_volume 2261.759888
_symmetry_space_group_name_H-M "C 2/C"
_symmetry_group_IT_number 15
_symmetry_cell_setting 'monoclinic'
loop_
_space_group_symop_operation_xyz
x,y,z
-x,y,1/2-z
-x,-y,-z
x,-y,1/2+z
1/2+x,1/2+y,z
1/2-x,1/2+y,1/2-z
1/2-x,1/2-y,-z
1/2+x,1/2-y,1/2+z
loop_
_atom_site_type_symbol
_atom_site_label
_atom_site_fract_x
_atom_site_fract_y
_atom_site_fract_z
Si Si1 0.000000 0.298271 0.750000
Si Si2 0.945383 0.870979 0.915129
Si Si3 0.296138 0.281566 0.794593
Si Si4 0.778060 0.120707 0.696066
Si Si5 0.610991 0.981052 0.162133
Si Si6 0.621775 0.319636 0.055831
Si Si7 0.368346 0.103944 0.145351
O O1 0.086522 0.247624 0.668583
O O2 0.037158 0.347329 0.873947
O O3 0.892666 0.801933 0.854308
O O4 0.000000 0.907424 0.750000
O O5 0.858717 0.905620 0.044700
O O6 0.026266 0.851939 0.010330
O O7 0.255628 0.202116 0.834061
O O8 0.317420 0.291314 0.607771
O O9 0.219235 0.343755 0.857317
O O10 0.684935 0.071132 0.722633
O O11 0.825494 0.127126 0.846501
O O12 0.500000 0.972894 0.250000
O O13 0.641835 0.062096 0.191407
O O14 0.619919 0.956663 0.985128
#
# Coordination Sequence:
#
# PCOD9283847 Si02
#       7
#     4   8   8   8   8   8   8
#     4  12  24  40  74 102 150 184 240 288 364 418
#     4  10  21  40  65 102 138 174 224 296 357 407
#     4  11  24  40  70 102 145 182 239 299 354 415
#     4  12  23  42  69 107 139 183 240 292 356 423
#     4  12  30  46  71 101 148 194 239 289 361 428
#     4  11  23  39  70 108 141 184 229 300 358 418
#     4  12  27  48  69 101 148 192 238 291 354 433
#
# _framework density 22.990943999999999
#
# number of rings (size 3 to 8) (size 9 to 14) (size 15 to 20)
#    0.000    0.615    5.385    1.385    6.462    0.615 
#    0.000    0.000    0.000   10.154    2.000    0.000 
#    0.000    0.000    0.000    0.000    0.000    0.000 
#
# Total GULP energy -145399.416511 kJ/mol
# GULP energy per Si atom -5592.285250 kJ/mol
# Density = 2.293862 g / cm^3
# Si number density = 22.990944 Si / 1000 Ang^3
#
#
#
# Elastic Constant Matrix: (Units=GPa)
#
#
# Indices 1 2 3 4 5 6 
#
# 1 148.7502 40.5060 39.1405 0.0000 18.8191 0.0000
# 2 40.5060 48.0910 8.2371 0.0000 -3.5804 0.0000
# 3 39.1405 8.2371 106.8041 0.0000 5.1887 0.0000
# 4 0.0000 0.0000 0.0000 22.4639 0.0000 9.3668
# 5 18.8191 -3.5804 5.1887 0.0000 49.2496 0.0000
# 6 0.0000 0.0000 0.0000 9.3668 0.0000 30.4397
#
#
#
# Elastic Compliance Matrix: (Units=1/GPa)
#
#
# Indices 1 2 3 4 5 6 
#
# 1 0.010360 -0.008542 -0.002930 0.000000 -0.004271 0.000000
# 2 -0.008542 0.028260 0.000696 0.000000 0.005245 0.000000
# 3 -0.002930 0.000696 0.010379 0.000000 0.000077 0.000000
# 4 0.000000 0.000000 0.000000 0.051068 0.000000 -0.015715
# 5 -0.004271 0.005245 0.000077 0.000000 0.022310 0.000000
# 6 0.000000 0.000000 0.000000 -0.015715 0.000000 0.037688
#
#
# Mechanical properties :
#
#
# Convention : Reuss Voigt Hill
#
# Bulk Modulus (GPa) = 36.43423 53.26807 44.85115
# Shear Modulus (GPa) = 26.20986 34.81475 30.51231
#
# Velocity S-wave (km/s) = 3.38006 3.89560 3.64695
# Velocity P-wave (km/s) = 5.57806 6.59194 6.10608
#
# Compressibility (1/GPa) = 0.02744672
#
# Stress axis : x y z
#
# Youngs Moduli (GPa) = 96.52275 35.38552 96.34448
#
# Poissons Ratio (x) = 0.30227 0.28233
# Poissons Ratio (y) = 0.82452 -0.06707
# Poissons Ratio (z) = 0.28285 -0.02463
#
# Static dielectric constant tensor:
#      x y z
#    x 1.863760 0.000000 0.010750 
#    y 0.000000 1.812610 0.000000 
#    z 0.010750 0.000000 1.921150 
# 
# From -- ./inp_files/40753.got.cif
#   From: 2010.05.17/outbox.cif.g08.bks.cpg/sg15_21_cif.got.tgz:40753.got - 2010.06.03 18:47:42.
