data_PCOD9283777
_publ_section_title
;
Structure prediction by ZEFSAII (Michael W. Deem and Ramdas Pophale) SiO2 
 PCOD9283777
Probable space group: C 2/C
;
_chemical_formula_sum "Si O2"
_cell_formula_units_Z 52
_cell_length_a 10.752707
_cell_length_b 20.410587
_cell_length_c 18.905679
_cell_angle_alpha 90.000000
_cell_angle_beta 40.417504
_cell_angle_gamma 90.000000
_cell_volume 2690.151828
_symmetry_space_group_name_H-M "C 2/C"
_symmetry_group_IT_number 15
_symmetry_cell_setting 'monoclinic'
loop_
_space_group_symop_operation_xyz
x,y,z
-x,y,1/2-z
-x,-y,-z
x,-y,1/2+z
1/2+x,1/2+y,z
1/2-x,1/2+y,1/2-z
1/2-x,1/2-y,-z
1/2+x,1/2-y,1/2+z
loop_
_atom_site_type_symbol
_atom_site_label
_atom_site_fract_x
_atom_site_fract_y
_atom_site_fract_z
Si Si1 0.677873 0.961368 0.456214
Si Si2 0.730080 0.674310 0.661642
Si Si3 0.691646 0.195800 0.707491
Si Si4 0.923993 0.811893 0.545361
Si Si5 0.803589 0.842493 0.747468
Si Si6 0.919216 0.598826 0.358252
Si Si7 0.500000 0.453870 0.750000
O O1 0.702057 0.890498 0.408657
O O2 0.635159 0.951246 0.557122
O O3 0.500000 0.000000 0.500000
O O4 0.871226 0.001141 0.356134
O O5 0.500000 0.682305 0.750000
O O6 0.779699 0.671156 0.724096
O O7 0.841196 0.737907 0.583554
O O8 0.500000 0.172957 0.750000
O O9 0.684304 0.274972 0.715960
O O10 0.878982 0.180516 0.580870
O O11 0.938278 0.834160 0.620706
O O12 0.764293 0.857344 0.579061
O O13 0.588675 0.853893 0.812601
O O14 0.862833 0.905583 0.765829
O O15 0.000000 0.569330 0.250000
#
# Coordination Sequence:
#
# PCOD9283777 Si02
#       7
#     8   8   8   8   8   8   4
#     4  12  25  41  65  92 133 177 214 263 314 392
#     4  11  23  41  66  99 130 163 218 273 326 383
#     4  11  23  39  63  98 133 166 212 273 331 386
#     4  10  22  38  69  94 125 164 208 277 331 365
#     4  10  21  40  64  92 128 166 215 259 324 394
#     4  10  21  43  68  97 123 165 220 269 322 379
#     4  12  24  42  62  94 128 174 220 248 320 388
#
# _framework density 19.329764000000001
#
# number of rings (size 3 to 8) (size 9 to 14) (size 15 to 20)
#    0.000    1.231    3.077    4.154    0.000    5.538 
#    0.000    5.385    0.000    0.000    0.000    0.000 
#    0.000    0.000    0.000    0.000    0.000    0.000 
#
# Total GULP energy -145306.851391 kJ/mol
# GULP energy per Si atom -5588.725053 kJ/mol
# Density = 1.928577 g / cm^3
# Si number density = 19.329764 Si / 1000 Ang^3
#
#
#
# Elastic Constant Matrix: (Units=GPa)
#
#
# Indices 1 2 3 4 5 6 
#
# 1 103.5974 26.8131 68.6852 -0.0020 1.5481 -0.0012
# 2 26.8131 67.0038 36.2109 -0.0030 19.2306 -0.0008
# 3 68.6852 36.2109 157.4203 -0.0032 7.5127 0.0001
# 4 -0.0020 -0.0030 -0.0032 6.4116 0.0025 -1.7553
# 5 1.5481 19.2306 7.5127 0.0025 26.8223 -0.0001
# 6 -0.0012 -0.0008 0.0001 -1.7553 -0.0001 16.8019
#
#
#
# Elastic Compliance Matrix: (Units=1/GPa)
#
#
# Indices 1 2 3 4 5 6 
#
# 1 0.014209 -0.003668 -0.005516 -0.000001 0.003355 0.000001
# 2 -0.003668 0.022179 -0.002790 0.000014 -0.014908 0.000002
# 3 -0.005516 -0.002790 0.009416 0.000002 -0.000319 0.000000
# 4 -0.000001 0.000014 0.000002 0.160560 -0.000025 0.016774
# 5 0.003355 -0.014908 -0.000319 -0.000025 0.047867 -0.000003
# 6 0.000001 0.000002 0.000000 0.016774 -0.000003 0.061270
#
#
# Mechanical properties :
#
#
# Convention : Reuss Voigt Hill
#
# Bulk Modulus (GPa) = 45.75307 65.71554 55.73430
# Shear Modulus (GPa) = 14.42028 23.09464 18.75746
#
# Velocity S-wave (km/s) = 2.73429 3.46030 3.11849
# Velocity P-wave (km/s) = 5.80427 7.07359 6.47014
#
# Compressibility (1/GPa) = 0.02185646
#
# Stress axis : x y z
#
# Youngs Moduli (GPa) = 70.37748 45.08805 106.20059
#
# Poissons Ratio (x) = 0.16537 0.58581
# Poissons Ratio (y) = 0.25813 0.29629
# Poissons Ratio (z) = 0.38821 0.12579
#
# Static dielectric constant tensor:
#      x y z
#    x 1.693130 0.000000 -0.000670 
#    y 0.000000 1.643990 0.000000 
#    z -0.000670 0.000000 1.690610 
# 
# From -- ./inp_files/240511.got.cif
#   From: 2010.05.17/outbox.cif.g08.bks.cpg/sg15_121_cif.got.tgz:240511.got - 2010.06.03 18:47:42.
