data_PCOD9283459
_publ_section_title
;
Structure prediction by ZEFSAII (Michael W. Deem and Ramdas Pophale) SiO2 
 PCOD9283459
Probable space group: C 2/C
;
_chemical_formula_sum "Si O2"
_cell_formula_units_Z 56
_cell_length_a 20.411238
_cell_length_b 17.416158
_cell_length_c 8.635422
_cell_angle_alpha 90.000000
_cell_angle_beta 55.557785
_cell_angle_gamma 90.000000
_cell_volume 2531.626829
_symmetry_space_group_name_H-M "C 2/C"
_symmetry_group_IT_number 15
_symmetry_cell_setting 'monoclinic'
loop_
_space_group_symop_operation_xyz
x,y,z
-x,y,1/2-z
-x,-y,-z
x,-y,1/2+z
1/2+x,1/2+y,z
1/2-x,1/2+y,1/2-z
1/2-x,1/2-y,-z
1/2+x,1/2-y,1/2+z
loop_
_atom_site_type_symbol
_atom_site_label
_atom_site_fract_x
_atom_site_fract_y
_atom_site_fract_z
Si Si1 0.427148 0.705938 0.445367
Si Si2 0.273778 0.573518 0.852543
Si Si3 0.541994 0.428528 0.358649
Si Si4 0.769651 0.755019 0.296270
Si Si5 0.409068 0.901507 0.313643
Si Si6 0.836074 0.238612 0.311381
Si Si7 0.174792 0.531304 0.274322
O O1 0.500000 0.740880 0.250000
O O2 0.459349 0.645182 0.524508
O O3 0.361309 0.759393 0.620066
O O4 0.378459 0.675416 0.360483
O O5 0.363385 0.558899 0.787786
O O6 0.266870 0.653633 0.771970
O O7 0.246140 0.511526 0.765966
O O8 0.212946 0.575373 0.078210
O O9 0.500000 0.414755 0.250000
O O10 0.500000 0.500000 0.500000
O O11 0.750000 0.750000 0.500000
O O12 0.693234 0.715857 0.318049
O O13 0.500000 0.904534 0.250000
O O14 0.380635 0.820737 0.272771
O O15 0.362456 0.920350 0.535713
O O16 0.385431 0.968766 0.222066
O O17 0.750000 0.250000 0.500000
#
# Coordination Sequence:
#
# PCOD9283459 Si02
#       7
#     8   8   8   8   8   8   8
#     4  10  23  41  63  93 130 172 223 269 334 396
#     4  10  21  40  61  95 126 172 223 261 330 400
#     4  11  23  41  63  98 138 177 221 279 335 394
#     4  10  22  41  66  92 128 174 228 279 325 397
#     4  11  22  41  66  95 131 164 213 275 336 389
#     4  10  22  42  65  91 128 176 220 267 326 400
#     4  10  22  38  65  93 127 166 214 267 331 408
#
# _framework density 22.120165
#
# number of rings (size 3 to 8) (size 9 to 14) (size 15 to 20)
#    0.000    1.714    1.429    2.143    4.000    3.429 
#    5.143    0.000    0.000    0.000    0.000    0.000 
#    0.000    0.000    0.000    0.000    0.000    0.000 
#
# Total GULP energy -155884.368261 kJ/mol
# GULP energy per Si atom -5567.298866 kJ/mol
# Density = 2.206982 g / cm^3
# Si number density = 22.120165 Si / 1000 Ang^3
#
#
#
# Elastic Constant Matrix: (Units=GPa)
#
#
# Indices 1 2 3 4 5 6 
#
# 1 184.0994 26.0293 38.2374 0.0000 16.5409 0.0000
# 2 26.0293 72.7717 14.1419 0.0000 5.4683 0.0000
# 3 38.2374 14.1419 106.4496 0.0000 9.8150 0.0000
# 4 0.0000 0.0000 0.0000 16.4723 0.0000 8.0075
# 5 16.5409 5.4683 9.8150 0.0000 52.3399 0.0000
# 6 0.0000 0.0000 0.0000 8.0075 0.0000 27.3738
#
#
#
# Elastic Compliance Matrix: (Units=1/GPa)
#
#
# Indices 1 2 3 4 5 6 
#
# 1 0.006193 -0.001746 -0.001861 0.000000 -0.001426 0.000000
# 2 -0.001746 0.014666 -0.001252 0.000000 -0.000745 0.000000
# 3 -0.001861 -0.001252 0.010342 0.000000 -0.001220 0.000000
# 4 0.000000 0.000000 0.000000 0.070772 0.000000 -0.020703
# 5 -0.001426 -0.000745 -0.001220 0.000000 0.019863 0.000000
# 6 0.000000 0.000000 0.000000 -0.020703 0.000000 0.042587
#
#
# Mechanical properties :
#
#
# Convention : Reuss Voigt Hill
#
# Bulk Modulus (GPa) = 46.55335 57.79308 52.17321
# Shear Modulus (GPa) = 27.57812 38.23135 32.90474
#
# Velocity S-wave (km/s) = 3.53475 4.16185 3.86105
# Velocity P-wave (km/s) = 6.14416 7.01985 6.59655
#
# Compressibility (1/GPa) = 0.02148073
#
# Stress axis : x y z
#
# Youngs Moduli (GPa) = 161.46058 68.18645 96.69720
#
# Poissons Ratio (x) = 0.11909 0.17998
# Poissons Ratio (y) = 0.28199 0.12109
# Poissons Ratio (z) = 0.30052 0.08539
#
# Static dielectric constant tensor:
#      x y z
#    x 2.096840 0.000000 0.138800 
#    y 0.000000 1.903510 0.000000 
#    z 0.138800 0.000000 2.029520 
# 
# From -- ./inp_files/50141.got.cif
#   From: 2010.05.17/outbox.cif.g08.bks.cpg/sg15_26_cif.got.tgz:50141.got - 2010.06.03 18:47:42.
