data_PCOD9283063
_publ_section_title
;
Structure prediction by ZEFSAII (Michael W. Deem and Ramdas Pophale) SiO2 
 PCOD9283063
Probable space group: C 2/C
;
_chemical_formula_sum "Si O2"
_cell_formula_units_Z 36
_cell_length_a 5.056529
_cell_length_b 13.550975
_cell_length_c 23.429807
_cell_angle_alpha 90.000000
_cell_angle_beta 104.462916
_cell_angle_gamma 90.000000
_cell_volume 1554.554482
_symmetry_space_group_name_H-M "C 2/C"
_symmetry_group_IT_number 15
_symmetry_cell_setting 'monoclinic'
loop_
_space_group_symop_operation_xyz
x,y,z
-x,y,1/2-z
-x,-y,-z
x,-y,1/2+z
1/2+x,1/2+y,z
1/2-x,1/2+y,1/2-z
1/2-x,1/2-y,-z
1/2+x,1/2-y,1/2+z
loop_
_atom_site_type_symbol
_atom_site_label
_atom_site_fract_x
_atom_site_fract_y
_atom_site_fract_z
Si Si1 0.000000 0.924977 0.250000
Si Si2 0.220306 0.970732 0.658629
Si Si3 0.490069 0.180424 0.990015
Si Si4 0.596849 0.342131 0.371987
Si Si5 0.169453 0.368695 0.614995
O O1 0.196272 0.993831 0.222707
O O2 0.139433 0.858098 0.306398
O O3 0.093660 0.065948 0.620003
O O4 0.508582 0.938855 0.649929
O O5 0.993148 0.884932 0.637024
O O6 0.372849 0.148384 0.923060
O O7 0.750000 0.250000 0.000000
O O8 0.565474 0.106821 0.045328
O O9 0.250000 0.250000 0.000000
O O10 0.435534 0.241030 0.375491
#
# Coordination Sequence:
#
# PCOD9283063 Si02
#       5
#     4   8   8   8   8
#     4   8  22  48  56 100 124 176 216 280 310 402
#     4  10  24  41  62  97 126 166 225 259 320 404
#     4  10  21  39  66  99 130 166 221 268 327 404
#     4   9  22  44  64  95 134 168 214 276 327 386
#     4  11  22  41  68  93 128 174 209 271 337 377
#
# _framework density 23.15776
#
# number of rings (size 3 to 8) (size 9 to 14) (size 15 to 20)
#    1.333    0.889    0.000    2.667    0.000    9.778 
#    0.000    0.000    0.000    0.000    0.000    0.000 
#    0.000    0.000    0.000    0.000    0.000    0.000 
#
# Total GULP energy -100470.015887 kJ/mol
# GULP energy per Si atom -5581.667549 kJ/mol
# Density = 2.310505 g / cm^3
# Si number density = 23.157760 Si / 1000 Ang^3
#
#
#
# Elastic Constant Matrix: (Units=GPa)
#
#
# Indices 1 2 3 4 5 6 
#
# 1 97.0765 1.0666 25.6743 0.0000 -0.4926 0.0000
# 2 1.0666 83.8604 23.3129 0.0000 5.3570 0.0000
# 3 25.6743 23.3129 184.8958 0.0000 21.3116 0.0000
# 4 0.0000 0.0000 0.0000 40.0563 0.0000 8.4448
# 5 -0.4926 5.3570 21.3116 0.0000 27.7284 0.0000
# 6 0.0000 0.0000 0.0000 8.4448 0.0000 -0.4931
#
#
#
# Elastic Compliance Matrix: (Units=1/GPa)
#
#
# Indices 1 2 3 4 5 6 
#
# 1 0.010753 0.000241 -0.001690 0.000000 0.001443 0.000000
# 2 0.000241 0.012406 -0.001450 0.000000 -0.001278 0.000000
# 3 -0.001690 -0.001450 0.006361 0.000000 -0.004638 0.000000
# 4 0.000000 0.000000 0.000000 0.005415 0.000000 0.092731
# 5 0.001443 -0.001278 -0.004638 0.000000 0.039902 0.000000
# 6 0.000000 0.000000 0.000000 0.092731 0.000000 -0.439848
#
#
# Mechanical properties :
#
#
# Convention : Reuss Voigt Hill
#
# Bulk Modulus (GPa) = 42.15704 51.77115 46.96410
# Shear Modulus (GPa) = -14.23262 34.51024 10.13881
#
# Velocity S-wave (km/s) = -2.48179 3.86453 2.09467
# Velocity P-wave (km/s) = 3.16724 6.50516 5.11608
#
# Compressibility (1/GPa) = 0.02372083
#
# Stress axis : x y z
#
# Youngs Moduli (GPa) = 92.99950 80.60380 157.21734
#
# Poissons Ratio (x) = -0.01941 0.26567
# Poissons Ratio (y) = -0.02240 0.22803
# Poissons Ratio (z) = 0.15715 0.11691
#
# Static dielectric constant tensor:
#      x y z
#    x 1.827550 0.000000 0.015860 
#    y 0.000000 1.911670 0.000000 
#    z 0.015860 0.000000 1.948390 
# 
# From -- ./inp_files/259915.got.cif
#   From: 2010.05.17/outbox.cif.g08.bks.cpg/sg15_130_cif.got.tgz:259915.got - 2010.06.03 18:47:42.
