data_PCOD9283200
_publ_section_title
;
Structure prediction by ZEFSAII (Michael W. Deem and Ramdas Pophale) SiO2 
 PCOD9283200
Probable space group: C 2/C
;
_chemical_formula_sum "Si O2"
_cell_formula_units_Z 64
_cell_length_a 23.192424
_cell_length_b 11.463714
_cell_length_c 12.217220
_cell_angle_alpha 90.000000
_cell_angle_beta 109.227904
_cell_angle_gamma 90.000000
_cell_volume 3067.010608
_symmetry_space_group_name_H-M "C 2/C"
_symmetry_group_IT_number 15
_symmetry_cell_setting 'monoclinic'
loop_
_space_group_symop_operation_xyz
x,y,z
-x,y,1/2-z
-x,-y,-z
x,-y,1/2+z
1/2+x,1/2+y,z
1/2-x,1/2+y,1/2-z
1/2-x,1/2-y,-z
1/2+x,1/2-y,1/2+z
loop_
_atom_site_type_symbol
_atom_site_label
_atom_site_fract_x
_atom_site_fract_y
_atom_site_fract_z
Si Si1 0.105841 0.321676 0.974780
Si Si2 0.005344 0.086069 0.133116
Si Si3 0.514304 0.325272 0.101843
Si Si4 0.153724 0.445668 0.566900
Si Si5 0.263921 0.565522 0.743489
Si Si6 0.304559 0.195638 0.605872
Si Si7 0.644000 0.359360 0.679071
Si Si8 0.641477 0.233766 0.259352
O O1 0.037576 0.271588 0.918318
O O2 0.139572 0.320561 0.879015
O O3 0.105821 0.449759 0.026612
O O4 0.140615 0.234679 0.079734
O O5 0.076503 0.088406 0.146489
O O6 0.000000 0.136216 0.250000
O O7 0.971229 0.157036 0.017880
O O8 0.986508 0.950520 0.119751
O O9 0.576235 0.297219 0.202506
O O10 0.218689 0.510995 0.625156
O O11 0.154431 0.371805 0.456159
O O12 0.146045 0.362655 0.666851
O O13 0.224343 0.611156 0.820690
O O14 0.308314 0.462113 0.809956
O O15 0.304671 0.672353 0.724084
O O16 0.250000 0.250000 0.500000
O O17 0.338764 0.294253 0.697463
#
# Coordination Sequence:
#
# PCOD9283200 Si02
#       8
#     8   8   8   8   8   8   8   8
#     4  11  26  45  70  97 140 175 224 284 330 415
#     4  10  21  39  69 101 135 167 219 287 337 396
#     4  10  23  44  66 104 132 171 227 274 342 400
#     4  12  27  45  67 100 135 182 229 274 338 405
#     4  12  24  43  66 104 132 180 224 280 341 400
#     4  12  24  43  64  97 144 175 226 280 332 404
#     4  11  24  42  69 105 133 178 223 281 343 396
#     4  12  25  45  72  97 133 182 226 273 345 400
#
# _framework density 20.867225000000001
#
# number of rings (size 3 to 8) (size 9 to 14) (size 15 to 20)
#    0.000    0.750    5.000    1.875    3.500    1.000 
#    0.000    0.000    0.000    0.000    0.000    0.000 
#    0.000    0.000    0.000    0.000    0.000    0.000 
#
# Total GULP energy -178975.460959 kJ/mol
# GULP energy per Si atom -5592.983155 kJ/mol
# Density = 2.081973 g / cm^3
# Si number density = 20.867225 Si / 1000 Ang^3
#
#
#
# Elastic Constant Matrix: (Units=GPa)
#
#
# Indices 1 2 3 4 5 6 
#
# 1 37.9086 20.6220 7.7694 0.0000 0.0292 0.0000
# 2 20.6220 92.2647 11.8211 0.0000 -8.4432 0.0000
# 3 7.7694 11.8211 100.9998 0.0000 -13.5242 0.0000
# 4 0.0000 0.0000 0.0000 26.4360 0.0000 -3.4597
# 5 0.0292 -8.4432 -13.5242 0.0000 35.0485 0.0000
# 6 0.0000 0.0000 0.0000 -3.4597 0.0000 19.4149
#
#
#
# Elastic Compliance Matrix: (Units=1/GPa)
#
#
# Indices 1 2 3 4 5 6 
#
# 1 0.030455 -0.006786 -0.001867 0.000000 -0.002381 0.000000
# 2 -0.006786 0.012689 -0.000583 0.000000 0.002837 0.000000
# 3 -0.001867 -0.000583 0.010644 0.000000 0.003968 0.000000
# 4 0.000000 0.000000 0.000000 0.038730 0.000000 0.006902
# 5 -0.002381 0.002837 0.003968 0.000000 0.030749 0.000000
# 6 0.000000 0.000000 0.000000 0.006902 0.000000 0.052737
#
#
# Mechanical properties :
#
#
# Convention : Reuss Voigt Hill
#
# Bulk Modulus (GPa) = 28.31542 34.62202 31.46872
# Shear Modulus (GPa) = 24.24255 28.91060 26.57657
#
# Velocity S-wave (km/s) = 3.41215 3.72621 3.57263
# Velocity P-wave (km/s) = 5.39652 5.92794 5.66846
#
# Compressibility (1/GPa) = 0.03531645
#
# Stress axis : x y z
#
# Youngs Moduli (GPa) = 32.83524 78.80594 93.94710
#
# Poissons Ratio (x) = 0.53474 0.17543
# Poissons Ratio (y) = 0.22281 0.05480
# Poissons Ratio (z) = 0.06131 0.04596
#
# Static dielectric constant tensor:
#      x y z
#    x 1.734370 0.000000 -0.006810 
#    y 0.000000 1.757290 0.000000 
#    z -0.006810 0.000000 1.768850 
# 
# From -- ./inp_files/118027.got.cif
#   From: 2010.05.17/outbox.cif.g08.bks.cpg/sg15_60_cif.got.tgz:118027.got - 2010.06.03 18:47:42.
