data_PCOD9283955
_publ_section_title
;
Structure prediction by ZEFSAII (Michael W. Deem and Ramdas Pophale) SiO2 
 PCOD9283955
Probable space group: C 2/C
;
_chemical_formula_sum "Si O2"
_cell_formula_units_Z 44
_cell_length_a 30.479098
_cell_length_b 8.463951
_cell_length_c 8.168040
_cell_angle_alpha 90.000000
_cell_angle_beta 55.581519
_cell_angle_gamma 90.000000
_cell_volume 1738.244437
_symmetry_space_group_name_H-M "C 2/C"
_symmetry_group_IT_number 15
_symmetry_cell_setting 'monoclinic'
loop_
_space_group_symop_operation_xyz
x,y,z
-x,y,1/2-z
-x,-y,-z
x,-y,1/2+z
1/2+x,1/2+y,z
1/2-x,1/2+y,1/2-z
1/2-x,1/2-y,-z
1/2+x,1/2-y,1/2+z
loop_
_atom_site_type_symbol
_atom_site_label
_atom_site_fract_x
_atom_site_fract_y
_atom_site_fract_z
Si Si1 0.250000 0.250000 0.000000
Si Si2 0.446578 0.710242 0.151482
Si Si3 0.000000 0.979771 0.250000
Si Si4 0.167028 0.679618 0.171508
Si Si5 0.612854 0.883607 0.454114
Si Si6 0.000000 0.531960 0.750000
Si Si7 0.274905 0.440487 0.275389
O O1 0.273657 0.371249 0.804720
O O2 0.231332 0.121665 0.897032
O O3 0.450863 0.587731 0.291657
O O4 0.390308 0.770140 0.198652
O O5 0.481811 0.854593 0.142106
O O6 0.477835 0.624343 0.941648
O O7 0.145247 0.540781 0.337203
O O8 0.176837 0.842016 0.245338
O O9 0.130060 0.690022 0.089149
O O10 0.221831 0.614148 0.983369
O O11 0.552265 0.935074 0.602727
#
# Coordination Sequence:
#
# PCOD9283955 Si02
#       7
#     4   8   4   8   8   4   8
#     4  12  24  48  92 116 160 206 254 320 426 474
#     4  10  21  40  65  95 144 202 261 324 389 465
#     4   9  21  40  66  88 143 213 254 322 412 442
#     4  11  25  43  72 110 153 204 263 328 400 479
#     4  12  23  42  71 113 151 203 272 326 397 483
#     4  11  23  40  70 108 151 205 258 332 376 468
#     4  11  25  49  79 113 159 202 258 337 399 477
#
# _framework density 25.312895000000001
#
# number of rings (size 3 to 8) (size 9 to 14) (size 15 to 20)
#    0.000    1.091    1.818    5.455    2.545    0.000 
#    0.000    5.455    0.000    0.000    0.000    0.000 
#    0.000    0.000    0.000    0.000    0.000    0.182 
#
# Total GULP energy -122688.258259 kJ/mol
# GULP energy per Si atom -5576.739012 kJ/mol
# Density = 2.525528 g / cm^3
# Si number density = 25.312895 Si / 1000 Ang^3
#
#
#
# Elastic Constant Matrix: (Units=GPa)
#
#
# Indices 1 2 3 4 5 6 
#
# 1 140.6848 72.0333 37.6136 0.0000 52.9377 0.0000
# 2 72.0333 135.2491 28.5452 0.0000 32.5424 0.0000
# 3 37.6136 28.5452 85.3952 0.0000 16.2751 0.0000
# 4 0.0000 0.0000 0.0000 40.5818 0.0000 17.3099
# 5 52.9377 32.5424 16.2751 0.0000 52.4292 0.0000
# 6 0.0000 0.0000 0.0000 17.3099 0.0000 27.4509
#
#
#
# Elastic Compliance Matrix: (Units=1/GPa)
#
#
# Indices 1 2 3 4 5 6 
#
# 1 0.014080 -0.004360 -0.002711 0.000000 -0.010669 0.000000
# 2 -0.004360 0.010374 -0.001232 0.000000 -0.001655 0.000000
# 3 -0.002711 -0.001232 0.013444 0.000000 -0.000671 0.000000
# 4 0.000000 0.000000 0.000000 0.033708 0.000000 -0.021256
# 5 -0.010669 -0.001655 -0.000671 0.000000 0.031081 0.000000
# 6 0.000000 0.000000 0.000000 -0.021256 0.000000 0.049832
#
#
# Mechanical properties :
#
#
# Convention : Reuss Voigt Hill
#
# Bulk Modulus (GPa) = 46.96550 70.85705 58.91127
# Shear Modulus (GPa) = 28.37348 38.96818 33.67083
#
# Velocity S-wave (km/s) = 3.35163 3.92785 3.65113
# Velocity P-wave (km/s) = 5.79415 6.97309 6.41078
#
# Compressibility (1/GPa) = 0.02129222
#
# Stress axis : x y z
#
# Youngs Moduli (GPa) = 71.02521 96.39657 74.38183
#
# Poissons Ratio (x) = 0.42025 0.20165
# Poissons Ratio (y) = 0.30964 0.09164
# Poissons Ratio (z) = 0.19255 0.11877
#
# Static dielectric constant tensor:
#      x y z
#    x 2.005570 0.000000 -0.012500 
#    y 0.000000 2.075660 0.000000 
#    z -0.012500 0.000000 1.970120 
# 
# From -- ./inp_files/68539.got.cif
#   From: 2010.05.17/outbox.cif.g08.bks.cpg/sg15_35_cif.got.tgz:68539.got - 2010.06.03 18:47:42.
