data_PCOD9283767
_publ_section_title
;
Structure prediction by ZEFSAII (Michael W. Deem and Ramdas Pophale) SiO2 
 PCOD9283767
Probable space group: C 2/C
;
_chemical_formula_sum "Si O2"
_cell_formula_units_Z 56
_cell_length_a 11.484822
_cell_length_b 15.737020
_cell_length_c 15.769491
_cell_angle_alpha 90.000000
_cell_angle_beta 70.174964
_cell_angle_gamma 90.000000
_cell_volume 2681.208977
_symmetry_space_group_name_H-M "C 2/C"
_symmetry_group_IT_number 15
_symmetry_cell_setting 'monoclinic'
loop_
_space_group_symop_operation_xyz
x,y,z
-x,y,1/2-z
-x,-y,-z
x,-y,1/2+z
1/2+x,1/2+y,z
1/2-x,1/2+y,1/2-z
1/2-x,1/2-y,-z
1/2+x,1/2-y,1/2+z
loop_
_atom_site_type_symbol
_atom_site_label
_atom_site_fract_x
_atom_site_fract_y
_atom_site_fract_z
Si Si1 0.078100 0.247658 0.146041
Si Si2 0.646057 0.998144 0.448870
Si Si3 0.470192 0.310983 0.031313
Si Si4 0.759832 0.149541 0.994572
Si Si5 0.854474 0.412544 0.805349
Si Si6 0.221526 0.418140 0.104703
Si Si7 0.675262 0.834365 0.849519
O O1 0.113824 0.347239 0.135185
O O2 0.208791 0.200234 0.126952
O O3 0.000000 0.230018 0.250000
O O4 0.024082 0.216983 0.069242
O O5 0.705252 0.904359 0.429221
O O6 0.500000 0.000000 0.500000
O O7 0.711396 0.040535 0.514302
O O8 0.662852 0.065557 0.370535
O O9 0.352031 0.370657 0.077720
O O10 0.438751 0.224588 0.092157
O O11 0.593456 0.361470 0.026977
O O12 0.676437 0.118199 0.092992
O O13 0.750000 0.250000 0.000000
O O14 0.797453 0.507645 0.821681
O O15 0.803691 0.338719 0.755936
O O16 0.000000 0.418593 0.750000
#
# Coordination Sequence:
#
# PCOD9283767 Si02
#       7
#     8   8   8   8   8   8   8
#     4  11  21  37  66  96 124 163 219 266 317 383
#     4  11  21  38  64  89 120 164 210 255 308 387
#     4  11  21  43  68  92 131 167 212 268 326 385
#     4  11  25  42  64  97 126 173 210 260 332 385
#     4  11  23  40  62  93 129 165 216 266 312 376
#     4  10  21  40  64  92 123 171 211 257 320 375
#     4  11  21  42  62  91 128 168 212 266 324 377
#
# _framework density 20.886101
#
# number of rings (size 3 to 8) (size 9 to 14) (size 15 to 20)
#    0.000    1.143    2.857    5.571    0.000    2.286 
#    7.714    0.000    0.000    0.000    0.000    0.000 
#    0.000    0.000    0.000    0.000    0.000    0.000 
#
# Total GULP energy -156193.475877 kJ/mol
# GULP energy per Si atom -5578.338424 kJ/mol
# Density = 2.083856 g / cm^3
# Si number density = 20.886101 Si / 1000 Ang^3
#
#
#
# Elastic Constant Matrix: (Units=GPa)
#
#
# Indices 1 2 3 4 5 6 
#
# 1 87.5571 25.9898 -2.5425 0.0000 -17.1757 0.0000
# 2 25.9898 112.0616 15.1766 0.0000 -10.2139 0.0000
# 3 -2.5425 15.1766 55.7109 0.0000 -14.2387 0.0000
# 4 0.0000 0.0000 0.0000 31.3212 0.0000 3.8369
# 5 -17.1757 -10.2139 -14.2387 0.0000 28.9402 0.0000
# 6 0.0000 0.0000 0.0000 3.8369 0.0000 24.8779
#
#
#
# Elastic Compliance Matrix: (Units=1/GPa)
#
#
# Indices 1 2 3 4 5 6 
#
# 1 0.014237 -0.002975 0.003833 0.000000 0.009286 0.000000
# 2 -0.002975 0.010025 -0.002761 0.000000 0.000414 0.000000
# 3 0.003833 -0.002761 0.021972 0.000000 0.012111 0.000000
# 4 0.000000 0.000000 0.000000 0.032542 0.000000 -0.005019
# 5 0.009286 0.000414 0.012111 0.000000 0.046170 0.000000
# 6 0.000000 0.000000 0.000000 -0.005019 0.000000 0.040970
#
#
# Mechanical properties :
#
#
# Convention : Reuss Voigt Hill
#
# Bulk Modulus (GPa) = 23.56828 36.95304 30.26066
# Shear Modulus (GPa) = 27.19391 31.47489 29.33440
#
# Velocity S-wave (km/s) = 3.61225 3.88619 3.75172
# Velocity P-wave (km/s) = 5.35785 6.15367 5.76950
#
# Compressibility (1/GPa) = 0.04242992
#
# Stress axis : x y z
#
# Youngs Moduli (GPa) = 70.23982 99.74814 45.51197
#
# Poissons Ratio (x) = 0.29672 -0.17446
# Poissons Ratio (y) = 0.20894 0.12565
# Poissons Ratio (z) = -0.26925 0.27539
#
# Static dielectric constant tensor:
#      x y z
#    x 1.806900 0.000000 0.022830 
#    y 0.000000 1.838820 0.000000 
#    z 0.022830 0.000000 1.750520 
# 
# From -- ./inp_files/197768.got.cif
#   From: 2010.05.17/outbox.cif.g08.bks.cpg/sg15_99_cif.got.tgz:197768.got - 2010.06.03 18:47:42.
