data_PCOD9283738
_publ_section_title
;
Structure prediction by ZEFSAII (Michael W. Deem and Ramdas Pophale) SiO2 
 PCOD9283738
Probable space group: C 2/C
;
_chemical_formula_sum "Si O2"
_cell_formula_units_Z 60
_cell_length_a 17.155464
_cell_length_b 8.986973
_cell_length_c 18.772771
_cell_angle_alpha 90.000000
_cell_angle_beta 96.819907
_cell_angle_gamma 90.000000
_cell_volume 2873.825750
_symmetry_space_group_name_H-M "C 2/C"
_symmetry_group_IT_number 15
_symmetry_cell_setting 'monoclinic'
loop_
_space_group_symop_operation_xyz
x,y,z
-x,y,1/2-z
-x,-y,-z
x,-y,1/2+z
1/2+x,1/2+y,z
1/2-x,1/2+y,1/2-z
1/2-x,1/2-y,-z
1/2+x,1/2-y,1/2+z
loop_
_atom_site_type_symbol
_atom_site_label
_atom_site_fract_x
_atom_site_fract_y
_atom_site_fract_z
Si Si1 0.761221 0.978801 0.164971
Si Si2 0.674384 0.277574 0.735749
Si Si3 0.076206 0.973445 0.373740
Si Si4 0.051845 0.257600 0.988194
Si Si5 0.337168 0.451171 0.910814
Si Si6 0.379777 0.718804 0.004638
Si Si7 0.000000 0.839941 0.750000
Si Si8 0.694661 0.977508 0.997989
O O1 0.711420 0.874131 0.211315
O O2 0.850706 0.921549 0.166221
O O3 0.723172 0.969406 0.082765
O O4 0.774647 0.144498 0.196865
O O5 0.675938 0.396855 0.670605
O O6 0.583364 0.257250 0.749672
O O7 0.044539 0.838910 0.416088
O O8 0.110912 0.095804 0.432563
O O9 0.012442 0.054381 0.319168
O O10 0.114199 0.386921 0.983094
O O11 0.964616 0.294240 0.002860
O O12 0.091523 0.147359 0.050224
O O13 0.356295 0.622341 0.932457
O O14 0.260660 0.416350 0.951490
O O15 0.321344 0.849504 0.018862
#
# Coordination Sequence:
#
# PCOD9283738 Si02
#       8
#     8   8   8   8   8   8   4   8
#     4  11  24  41  63  92 125 164 207 253 307 374
#     4  11  24  41  66  90 123 164 208 254 312 365
#     4  10  21  40  64  90 118 165 209 252 296 375
#     4  11  20  38  61  90 123 159 206 253 306 359
#     4  11  21  39  67  89 118 165 210 250 303 373
#     4  11  23  35  62  94 125 157 205 254 308 359
#     4  10  22  42  66  86 128 162 208 248 310 378
#     4  12  23  39  63  94 130 158 205 261 313 359
#
# _framework density 20.878091999999999
#
# number of rings (size 3 to 8) (size 9 to 14) (size 15 to 20)
#    0.000    1.067    4.000    5.200    1.867    1.067 
#    0.000    0.000    0.000    0.800    0.000    0.000 
#    0.000    0.000    0.000    0.000    0.000    0.000 
#
# Total GULP energy -167670.548833 kJ/mol
# GULP energy per Si atom -5589.018294 kJ/mol
# Density = 2.083057 g / cm^3
# Si number density = 20.878092 Si / 1000 Ang^3
#
#
#
# Elastic Constant Matrix: (Units=GPa)
#
#
# Indices 1 2 3 4 5 6 
#
# 1 125.7555 31.5964 11.8575 0.0000 -17.8264 0.0000
# 2 31.5964 48.5792 8.8921 0.0000 -1.8786 0.0000
# 3 11.8575 8.8921 35.8986 0.0000 -13.1302 0.0000
# 4 0.0000 0.0000 0.0000 17.2789 0.0000 -7.0174
# 5 -17.8264 -1.8786 -13.1302 0.0000 19.0575 0.0000
# 6 0.0000 0.0000 0.0000 -7.0174 0.0000 30.2066
#
#
#
# Elastic Compliance Matrix: (Units=1/GPa)
#
#
# Indices 1 2 3 4 5 6 
#
# 1 0.011153 -0.007225 0.002221 0.000000 0.011250 0.000000
# 2 -0.007225 0.026305 -0.007557 0.000000 -0.009372 0.000000
# 3 0.002221 -0.007557 0.039414 0.000000 0.028488 0.000000
# 4 0.000000 0.000000 0.000000 0.063903 0.000000 0.014846
# 5 0.011250 -0.009372 0.028488 0.000000 0.081700 0.000000
# 6 0.000000 0.000000 0.000000 0.014846 0.000000 0.036554
#
#
# Mechanical properties :
#
#
# Convention : Reuss Voigt Hill
#
# Bulk Modulus (GPa) = 19.32416 34.99169 27.15793
# Shear Modulus (GPa) = 16.58913 23.83441 20.21177
#
# Velocity S-wave (km/s) = 2.82187 3.38242 3.11478
# Velocity P-wave (km/s) = 4.46017 5.66134 5.09627
#
# Compressibility (1/GPa) = 0.05174870
#
# Stress axis : x y z
#
# Youngs Moduli (GPa) = 89.66492 38.01545 25.37148
#
# Poissons Ratio (x) = 0.27467 -0.05634
# Poissons Ratio (y) = 0.64785 0.19174
# Poissons Ratio (z) = -0.19911 0.28729
#
# Static dielectric constant tensor:
#      x y z
#    x 1.758800 0.000000 -0.011780 
#    y 0.000000 1.728960 0.000000 
#    z -0.011780 0.000000 1.772290 
# 
# From -- ./inp_files/247520.got.cif
#   From: 2010.05.17/outbox.cif.g08.bks.cpg/sg15_124_cif.got.tgz:247520.got - 2010.06.03 18:47:42.
