data_PCOD9283868
_publ_section_title
;
Structure prediction by ZEFSAII (Michael W. Deem and Ramdas Pophale) SiO2 
 PCOD9283868
Probable space group: C 2/C
;
_chemical_formula_sum "Si O2"
_cell_formula_units_Z 52
_cell_length_a 19.879446
_cell_length_b 24.913500
_cell_length_c 5.106649
_cell_angle_alpha 90.000000
_cell_angle_beta 67.950036
_cell_angle_gamma 90.000000
_cell_volume 2344.162342
_symmetry_space_group_name_H-M "C 2/C"
_symmetry_group_IT_number 15
_symmetry_cell_setting 'monoclinic'
loop_
_space_group_symop_operation_xyz
x,y,z
-x,y,1/2-z
-x,-y,-z
x,-y,1/2+z
1/2+x,1/2+y,z
1/2-x,1/2+y,1/2-z
1/2-x,1/2-y,-z
1/2+x,1/2-y,1/2+z
loop_
_atom_site_type_symbol
_atom_site_label
_atom_site_fract_x
_atom_site_fract_y
_atom_site_fract_z
Si Si1 0.500000 0.805639 0.250000
Si Si2 0.414408 0.466185 0.386052
Si Si3 0.711065 0.398486 0.151810
Si Si4 0.766230 0.171045 0.363520
Si Si5 0.635597 0.232164 0.815504
Si Si6 0.082027 0.359328 0.738067
Si Si7 0.843973 0.467109 0.064033
O O1 0.447027 0.766023 0.166523
O O2 0.436962 0.847287 0.435500
O O3 0.500000 0.454099 0.250000
O O4 0.399199 0.484828 0.704833
O O5 0.365381 0.418423 0.348607
O O6 0.710461 0.359448 0.403532
O O7 0.749052 0.370707 0.845421
O O8 0.760312 0.449256 0.160604
O O9 0.695666 0.206309 0.534400
O O10 0.830149 0.210375 0.171716
O O11 0.628988 0.189929 0.061141
O O12 0.111726 0.415247 0.595228
O O13 0.000000 0.352489 0.750000
O O14 0.859463 0.514377 0.835137
#
# Coordination Sequence:
#
# PCOD9283868 Si02
#       7
#     4   8   8   8   8   8   8
#     4  10  22  42  72  88 138 174 228 260 336 400
#     4  10  21  40  65  89 126 175 220 261 326 396
#     4  12  23  43  63 100 130 173 211 284 326 392
#     4  11  25  40  72  94 136 165 223 265 336 389
#     4  10  23  43  65 100 125 180 213 271 321 404
#     4  10  23  42  66  92 134 177 221 266 331 392
#     4  12  26  41  66  96 131 170 225 279 324 386
#
# _framework density 22.182766000000001
#
# number of rings (size 3 to 8) (size 9 to 14) (size 15 to 20)
#    0.000    1.231    1.538    3.692    6.462    1.846 
#    2.769    0.000    0.000    0.000    0.000    0.000 
#    0.000    0.000    0.000    0.000    0.000    0.000 
#
# Total GULP energy -145118.041406 kJ/mol
# GULP energy per Si atom -5581.463131 kJ/mol
# Density = 2.213228 g / cm^3
# Si number density = 22.182766 Si / 1000 Ang^3
#
#
#
# Elastic Constant Matrix: (Units=GPa)
#
#
# Indices 1 2 3 4 5 6 
#
# 1 89.4183 9.2940 5.4399 0.0000 -7.8400 0.0000
# 2 9.2940 48.7841 18.8869 0.0000 -10.6479 0.0000
# 3 5.4399 18.8869 61.4865 0.0000 -0.6397 0.0000
# 4 0.0000 0.0000 0.0000 23.0520 0.0000 -6.9339
# 5 -7.8400 -10.6479 -0.6397 0.0000 30.3375 0.0000
# 6 0.0000 0.0000 0.0000 -6.9339 0.0000 32.6055
#
#
#
# Elastic Compliance Matrix: (Units=1/GPa)
#
#
# Indices 1 2 3 4 5 6 
#
# 1 0.011585 -0.001454 -0.000553 0.000000 0.002472 0.000000
# 2 -0.001454 0.025575 -0.007640 0.000000 0.008440 0.000000
# 3 -0.000553 -0.007640 0.018634 0.000000 -0.002431 0.000000
# 4 0.000000 0.000000 0.000000 0.046345 0.000000 0.009856
# 5 0.002472 0.008440 -0.002431 0.000000 0.036512 0.000000
# 6 0.000000 0.000000 0.000000 0.009856 0.000000 0.032766
#
#
# Mechanical properties :
#
#
# Convention : Reuss Voigt Hill
#
# Bulk Modulus (GPa) = 27.39549 29.65895 28.52722
# Shear Modulus (GPa) = 24.64563 28.27020 26.45792
#
# Velocity S-wave (km/s) = 3.33682 3.57378 3.45733
# Velocity P-wave (km/s) = 5.21752 5.51620 5.36894
#
# Compressibility (1/GPa) = 0.03650236
#
# Stress axis : x y z
#
# Youngs Moduli (GPa) = 86.31979 39.10039 53.66531
#
# Poissons Ratio (x) = 0.05683 0.02966
# Poissons Ratio (y) = 0.12547 0.40998
# Poissons Ratio (z) = 0.04771 0.29871
#
# Static dielectric constant tensor:
#      x y z
#    x 1.872300 0.000000 0.106880 
#    y 0.000000 1.791820 0.000000 
#    z 0.106880 0.000000 2.131770 
# 
# From -- ./inp_files/13850.got.cif
#   From: 2010.05.17/outbox.cif.g08.bks.cpg/sg15_7_cif.got.tgz:13850.got - 2010.06.03 18:47:42.
