data_PCOD9283983
_publ_section_title
;
Structure prediction by ZEFSAII (Michael W. Deem and Ramdas Pophale) SiO2 
 PCOD9283983
Probable space group: C 2/C
;
_chemical_formula_sum "Si O2"
_cell_formula_units_Z 56
_cell_length_a 12.327232
_cell_length_b 21.117507
_cell_length_c 9.771038
_cell_angle_alpha 90.000000
_cell_angle_beta 96.919755
_cell_angle_gamma 90.000000
_cell_volume 2525.072659
_symmetry_space_group_name_H-M "C 2/C"
_symmetry_group_IT_number 15
_symmetry_cell_setting 'monoclinic'
loop_
_space_group_symop_operation_xyz
x,y,z
-x,y,1/2-z
-x,-y,-z
x,-y,1/2+z
1/2+x,1/2+y,z
1/2-x,1/2+y,1/2-z
1/2-x,1/2-y,-z
1/2+x,1/2-y,1/2+z
loop_
_atom_site_type_symbol
_atom_site_label
_atom_site_fract_x
_atom_site_fract_y
_atom_site_fract_z
Si Si1 0.479640 0.211427 0.087629
Si Si2 0.119862 0.928327 0.984073
Si Si3 0.684506 0.469791 0.299906
Si Si4 0.207057 0.320085 0.474347
Si Si5 0.934393 0.861628 0.099728
Si Si6 0.896296 0.660223 0.816903
Si Si7 0.428586 0.988644 0.357296
O O1 0.500000 0.195684 0.250000
O O2 0.448262 0.286395 0.080915
O O3 0.589780 0.183182 0.032009
O O4 0.388107 0.184340 0.970096
O O5 0.160731 0.958532 0.135976
O O6 0.209410 0.873863 0.962875
O O7 0.004560 0.894562 0.992449
O O8 0.107050 0.981911 0.868447
O O9 0.673726 0.403103 0.383197
O O10 0.801605 0.504148 0.338231
O O11 0.250000 0.250000 0.500000
O O12 0.197342 0.330039 0.309021
O O13 0.000000 0.873863 0.250000
O O14 0.920433 0.586297 0.831182
O O15 0.000000 0.690881 0.750000
O O16 0.500000 0.020099 0.250000
O O17 0.500000 0.000000 0.500000
#
# Coordination Sequence:
#
# PCOD9283983 Si02
#       7
#     8   8   8   8   8   8   8
#     4  10  21  40  65  99 134 175 226 284 341 410
#     4  11  22  43  65  96 133 177 222 277 344 413
#     4  11  23  41  66  95 129 172 222 269 345 406
#     4  11  21  42  68  93 133 186 230 282 355 417
#     4   9  20  40  67  92 133 173 212 277 342 406
#     4   9  21  39  61  90 129 170 219 278 341 406
#     4  11  23  40  62  88 128 174 220 277 341 403
#
# _framework density 22.177579999999999
#
# number of rings (size 3 to 8) (size 9 to 14) (size 15 to 20)
#    0.000    1.714    2.857    1.286    4.000    0.571 
#    5.143    1.429    0.000    0.000    0.000    0.000 
#    0.000    0.000    0.000    0.000    0.000    0.000 
#
# Total GULP energy -155976.952325 kJ/mol
# GULP energy per Si atom -5570.605440 kJ/mol
# Density = 2.212710 g / cm^3
# Si number density = 22.177580 Si / 1000 Ang^3
#
#
#
# Elastic Constant Matrix: (Units=GPa)
#
#
# Indices 1 2 3 4 5 6 
#
# 1 59.3284 4.6049 7.2631 0.0000 -8.0498 0.0000
# 2 4.6049 85.1683 26.6656 0.0000 -7.0670 0.0000
# 3 7.2631 26.6656 104.9313 0.0000 -1.4261 0.0000
# 4 0.0000 0.0000 0.0000 41.7022 0.0000 -1.5721
# 5 -8.0498 -7.0670 -1.4261 0.0000 29.3048 0.0000
# 6 0.0000 0.0000 0.0000 -1.5721 0.0000 24.7895
#
#
#
# Elastic Compliance Matrix: (Units=1/GPa)
#
#
# Indices 1 2 3 4 5 6 
#
# 1 0.017651 -0.000216 -0.001102 0.000000 0.004743 0.000000
# 2 -0.000216 0.013014 -0.003253 0.000000 0.002921 0.000000
# 3 -0.001102 -0.003253 0.010425 0.000000 -0.000580 0.000000
# 4 0.000000 0.000000 0.000000 0.024037 0.000000 0.001524
# 5 0.004743 0.002921 -0.000580 0.000000 0.036103 0.000000
# 6 0.000000 0.000000 0.000000 0.001524 0.000000 0.040436
#
#
# Mechanical properties :
#
#
# Convention : Reuss Voigt Hill
#
# Bulk Modulus (GPa) = 31.30066 36.27723 33.78894
# Shear Modulus (GPa) = 30.96811 33.21892 32.09351
#
# Velocity S-wave (km/s) = 3.74086 3.87442 3.80822
# Velocity P-wave (km/s) = 5.72739 6.03390 5.88264
#
# Compressibility (1/GPa) = 0.03194820
#
# Stress axis : x y z
#
# Youngs Moduli (GPa) = 56.65541 76.84144 95.92310
#
# Poissons Ratio (x) = 0.01657 0.10575
# Poissons Ratio (y) = 0.01222 0.31199
# Poissons Ratio (z) = 0.06246 0.24993
#
# Static dielectric constant tensor:
#      x y z
#    x 1.988060 0.000000 -0.052920 
#    y 0.000000 1.798980 0.000000 
#    z -0.052920 0.000000 1.810250 
# 
# From -- ./inp_files/41249.got.cif
#   From: 2010.05.17/outbox.cif.g08.bks.cpg/sg15_21_cif.got.tgz:41249.got - 2010.06.03 18:47:42.
