data_PCOD9283865
_publ_section_title
;
Structure prediction by ZEFSAII (Michael W. Deem and Ramdas Pophale) SiO2 
 PCOD9283865
Probable space group: C 2/C
;
_chemical_formula_sum "Si O2"
_cell_formula_units_Z 64
_cell_length_a 14.328282
_cell_length_b 16.830258
_cell_length_c 14.893413
_cell_angle_alpha 90.000000
_cell_angle_beta 54.745128
_cell_angle_gamma 90.000000
_cell_volume 2932.813866
_symmetry_space_group_name_H-M "C 2/C"
_symmetry_group_IT_number 15
_symmetry_cell_setting 'monoclinic'
loop_
_space_group_symop_operation_xyz
x,y,z
-x,y,1/2-z
-x,-y,-z
x,-y,1/2+z
1/2+x,1/2+y,z
1/2-x,1/2+y,1/2-z
1/2-x,1/2-y,-z
1/2+x,1/2-y,1/2+z
loop_
_atom_site_type_symbol
_atom_site_label
_atom_site_fract_x
_atom_site_fract_y
_atom_site_fract_z
Si Si1 0.278274 0.358593 0.035590
Si Si2 0.095330 0.701033 0.348933
Si Si3 0.810811 0.285798 0.232330
Si Si4 0.237631 0.439115 0.326787
Si Si5 0.398749 0.039181 0.246175
Si Si6 0.430529 0.210968 0.926683
Si Si7 0.524873 0.380189 0.340755
Si Si8 0.200401 0.965113 0.000038
O O1 0.251480 0.329822 0.150562
O O2 0.152404 0.357957 0.062222
O O3 0.333765 0.443594 0.997375
O O4 0.359195 0.291625 0.948328
O O5 0.234108 0.708026 0.262068
O O6 0.057364 0.623342 0.317046
O O7 0.062851 0.696368 0.470869
O O8 0.050188 0.787322 0.343579
O O9 0.800478 0.346728 0.155674
O O10 0.943210 0.278361 0.180646
O O11 0.151242 0.488558 0.310687
O O12 0.363606 0.436078 0.210546
O O13 0.252381 0.461703 0.423052
O O14 0.500000 0.000967 0.250000
O O15 0.297057 0.053286 0.373468
O O16 0.500000 0.387359 0.250000
O O17 0.410223 0.409986 0.451524
#
# Coordination Sequence:
#
# PCOD9283865 Si02
#       8
#     8   8   8   8   8   8   8   8
#     4  10  21  41  59 101 128 163 234 265 316 407
#     4  10  23  42  59  96 133 163 231 266 311 410
#     4  10  21  40  65  88 130 177 209 270 332 379
#     4  10  23  44  65  99 130 168 220 269 337 388
#     4  12  27  41  63 102 132 174 220 271 324 398
#     4  10  22  37  67  89 130 182 205 273 336 374
#     4   9  21  45  68  93 131 172 218 279 327 389
#     4  11  24  42  73  96 132 176 216 276 337 378
#
# _framework density 21.822047000000001
#
# number of rings (size 3 to 8) (size 9 to 14) (size 15 to 20)
#    0.000    1.750    1.250    1.500    5.250    2.000 
#    0.000    8.750    0.000    0.000    0.000    0.000 
#    0.000    0.000    0.000    0.000    0.000    0.000 
#
# Total GULP energy -178595.104826 kJ/mol
# GULP energy per Si atom -5581.097026 kJ/mol
# Density = 2.177238 g / cm^3
# Si number density = 21.822047 Si / 1000 Ang^3
#
#
#
# Elastic Constant Matrix: (Units=GPa)
#
#
# Indices 1 2 3 4 5 6 
#
# 1 87.9860 2.9844 3.4669 0.0000 -3.2328 0.0000
# 2 2.9844 44.9389 -7.2393 0.0000 9.9350 0.0000
# 3 3.4669 -7.2393 37.6822 0.0000 -3.4112 0.0000
# 4 0.0000 0.0000 0.0000 25.1051 0.0000 1.8996
# 5 -3.2328 9.9350 -3.4112 0.0000 27.7534 0.0000
# 6 0.0000 0.0000 0.0000 1.8996 0.0000 30.0397
#
#
#
# Elastic Compliance Matrix: (Units=1/GPa)
#
#
# Indices 1 2 3 4 5 6 
#
# 1 0.011517 -0.001322 -0.001162 0.000000 0.001672 0.000000
# 2 -0.001322 0.024898 0.004130 0.000000 -0.008559 0.000000
# 3 -0.001162 0.004130 0.027599 0.000000 0.001778 0.000000
# 4 0.000000 0.000000 0.000000 0.040024 0.000000 -0.002531
# 5 0.001672 -0.008559 0.001778 0.000000 0.039509 0.000000
# 6 0.000000 0.000000 0.000000 -0.002531 0.000000 0.033449
#
#
# Mechanical properties :
#
#
# Convention : Reuss Voigt Hill
#
# Bulk Modulus (GPa) = 14.85741 18.78123 16.81932
# Shear Modulus (GPa) = 25.49201 28.00600 26.74900
#
# Velocity S-wave (km/s) = 3.42157 3.58632 3.50491
# Velocity P-wave (km/s) = 4.73632 5.07682 4.90952
#
# Compressibility (1/GPa) = 0.06730650
#
# Stress axis : x y z
#
# Youngs Moduli (GPa) = 86.82444 40.16428 36.23308
#
# Poissons Ratio (x) = 0.05309 0.04211
# Poissons Ratio (y) = 0.11476 -0.14964
# Poissons Ratio (z) = 0.10091 -0.16588
#
# Static dielectric constant tensor:
#      x y z
#    x 1.911340 0.000000 -0.020850 
#    y 0.000000 1.811390 0.000000 
#    z -0.020850 0.000000 1.791500 
# 
# From -- ./inp_files/155495.got.cif
#   From: 2010.05.17/outbox.cif.g08.bks.cpg/sg15_78_cif.got.tgz:155495.got - 2010.06.03 18:47:42.
