data_PCOD9283690
_publ_section_title
;
Structure prediction by ZEFSAII (Michael W. Deem and Ramdas Pophale) SiO2 
 PCOD9283690
Probable space group: C 2/C
;
_chemical_formula_sum "Si O2"
_cell_formula_units_Z 48
_cell_length_a 12.184233
_cell_length_b 18.267363
_cell_length_c 21.072232
_cell_angle_alpha 90.000000
_cell_angle_beta 150.578502
_cell_angle_gamma 90.000000
_cell_volume 2303.933889
_symmetry_space_group_name_H-M "C 2/C"
_symmetry_group_IT_number 15
_symmetry_cell_setting 'monoclinic'
loop_
_space_group_symop_operation_xyz
x,y,z
-x,y,1/2-z
-x,-y,-z
x,-y,1/2+z
1/2+x,1/2+y,z
1/2-x,1/2+y,1/2-z
1/2-x,1/2-y,-z
1/2+x,1/2-y,1/2+z
loop_
_atom_site_type_symbol
_atom_site_label
_atom_site_fract_x
_atom_site_fract_y
_atom_site_fract_z
Si Si1 0.522033 0.340850 0.876743
Si Si2 0.882866 0.592610 0.124089
Si Si3 0.330843 0.450584 0.455054
Si Si4 0.919966 0.328359 0.900120
Si Si5 0.967268 0.315799 0.406187
Si Si6 0.383008 0.345649 0.373540
O O1 0.344552 0.343702 0.731100
O O2 0.445620 0.272212 0.882974
O O3 0.524550 0.415821 0.916249
O O4 0.777512 0.329600 0.985826
O O5 0.863254 0.503872 0.117399
O O6 0.000000 0.614943 0.250000
O O7 0.998361 0.628434 0.120993
O O8 0.626918 0.619227 0.990278
O O9 0.500000 0.500000 0.500000
O O10 0.271499 0.382004 0.379813
O O11 0.930505 0.240603 0.900642
O O12 0.050497 0.343184 0.030765
O O13 0.788251 0.354371 0.270727
#
# Coordination Sequence:
#
# PCOD9283690 Si02
#       6
#     8   8   8   8   8   8
#     4  10  21  40  63  96 129 170 219 271 326 392
#     4  11  25  40  66  95 133 177 220 275 336 404
#     4  10  21  41  65  90 129 175 222 261 320 405
#     4  11  21  41  66  98 131 169 223 278 339 388
#     4  10  22  37  68  96 128 167 219 280 329 387
#     4  10  22  40  64  97 130 173 222 272 331 392
#
# _framework density 20.833932000000001
#
# number of rings (size 3 to 8) (size 9 to 14) (size 15 to 20)
#    0.000    1.667    1.667    3.000    4.667    0.667 
#    0.000    0.833    7.333    0.000    0.000    0.000 
#    0.000    0.000    0.000    0.000    0.000    0.000 
#
# Total GULP energy -133843.928149 kJ/mol
# GULP energy per Si atom -5576.830340 kJ/mol
# Density = 2.078651 g / cm^3
# Si number density = 20.833932 Si / 1000 Ang^3
#
#
#
# Elastic Constant Matrix: (Units=GPa)
#
#
# Indices 1 2 3 4 5 6 
#
# 1 87.9821 37.4215 37.2133 0.0012 -11.8877 -0.0002
# 2 37.4215 88.5783 20.1046 0.0012 -3.5015 0.0002
# 3 37.2133 20.1046 154.7067 0.0064 -18.7907 0.0015
# 4 0.0012 0.0012 0.0064 28.2790 0.0010 2.0419
# 5 -11.8877 -3.5015 -18.7907 0.0010 39.9582 0.0000
# 6 -0.0002 0.0002 0.0015 2.0419 0.0000 31.7576
#
#
#
# Elastic Compliance Matrix: (Units=1/GPa)
#
#
# Indices 1 2 3 4 5 6 
#
# 1 0.015293 -0.005762 -0.002586 0.000000 0.002829 0.000000
# 2 -0.005762 0.013808 -0.000498 0.000000 -0.000738 0.000000
# 3 -0.002586 -0.000498 0.007479 -0.000002 0.002704 0.000000
# 4 0.000000 0.000000 -0.000002 0.035527 -0.000002 -0.002284
# 5 0.002829 -0.000738 0.002704 -0.000002 0.027075 0.000000
# 6 0.000000 0.000000 0.000000 -0.002284 0.000000 0.031635
#
#
# Mechanical properties :
#
#
# Convention : Reuss Voigt Hill
#
# Bulk Modulus (GPa) = 52.94634 57.86066 55.40350
# Shear Modulus (GPa) = 32.29889 35.76747 34.03318
#
# Velocity S-wave (km/s) = 3.94166 4.14791 4.04610
# Velocity P-wave (km/s) = 6.79590 7.12551 6.96265
#
# Compressibility (1/GPa) = 0.01888705
#
# Stress axis : x y z
#
# Youngs Moduli (GPa) = 65.39061 72.42430 133.70609
#
# Poissons Ratio (x) = 0.41730 0.34579
# Poissons Ratio (y) = 0.37677 0.06659
# Poissons Ratio (z) = 0.16911 0.03607
#
# Static dielectric constant tensor:
#      x y z
#    x 1.789360 0.000000 0.015110 
#    y 0.000000 2.020440 0.000000 
#    z 0.015110 0.000000 1.672590 
# 
# From -- ./inp_files/240466.got.cif
#   From: 2010.05.17/outbox.cif.g08.bks.cpg/sg15_121_cif.got.tgz:240466.got - 2010.06.03 18:47:42.
