data_PCOD9283077
_publ_section_title
;
Structure prediction by ZEFSAII (Michael W. Deem and Ramdas Pophale) SiO2 
 PCOD9283077
Probable space group: C 2/C
;
_chemical_formula_sum "Si O2"
_cell_formula_units_Z 48
_cell_length_a 23.274546
_cell_length_b 7.391929
_cell_length_c 11.568309
_cell_angle_alpha 90.000000
_cell_angle_beta 114.196577
_cell_angle_gamma 90.000000
_cell_volume 1815.401037
_symmetry_space_group_name_H-M "C 2/C"
_symmetry_group_IT_number 15
_symmetry_cell_setting 'monoclinic'
loop_
_space_group_symop_operation_xyz
x,y,z
-x,y,1/2-z
-x,-y,-z
x,-y,1/2+z
1/2+x,1/2+y,z
1/2-x,1/2+y,1/2-z
1/2-x,1/2-y,-z
1/2+x,1/2-y,1/2+z
loop_
_atom_site_type_symbol
_atom_site_label
_atom_site_fract_x
_atom_site_fract_y
_atom_site_fract_z
Si Si1 0.241899 0.807281 0.360323
Si Si2 0.437383 0.752629 0.746776
Si Si3 0.616169 0.153137 0.535827
Si Si4 0.636995 0.254575 0.107007
Si Si5 0.315710 0.348400 0.583403
Si Si6 0.943365 0.680758 0.786847
O O1 0.250000 0.750000 0.500000
O O2 0.311863 0.813399 0.367913
O O3 0.195576 0.698769 0.238375
O O4 0.205755 0.996472 0.347701
O O5 0.500000 0.666085 0.750000
O O6 0.392357 0.767485 0.598986
O O7 0.411986 0.665565 0.842048
O O8 0.448753 0.962561 0.788440
O O9 0.563408 0.222426 0.581901
O O10 0.611808 0.932473 0.530115
O O11 0.659124 0.390050 0.025897
O O12 0.250000 0.250000 0.500000
O O13 0.374800 0.240218 0.683621
O O14 0.000000 0.746658 0.750000
#
# Coordination Sequence:
#
# PCOD9283077 Si02
#       6
#     8   8   8   8   8   8
#     4  12  26  42  66  99 137 178 230 283 353 406
#     4  10  21  39  67 104 135 179 230 281 341 411
#     4  11  22  41  69  99 143 177 231 287 340 413
#     4  11  24  40  66  98 135 173 226 282 341 410
#     4  12  24  43  68  99 137 180 231 288 345 413
#     4  10  23  39  67 104 139 183 231 279 353 410
#
# _framework density 26.440438
#
# number of rings (size 3 to 8) (size 9 to 14) (size 15 to 20)
#    0.000    1.000    5.000    1.000    7.000    2.000 
#    0.000    0.833    0.000    3.000    0.000    0.000 
#    0.000    0.000    0.000    0.000    0.000    0.000 
#
# Total GULP energy -134243.448205 kJ/mol
# GULP energy per Si atom -5593.477009 kJ/mol
# Density = 2.638026 g / cm^3
# Si number density = 26.440438 Si / 1000 Ang^3
#
#
#
# Elastic Constant Matrix: (Units=GPa)
#
#
# Indices 1 2 3 4 5 6 
#
# 1 202.0974 21.7900 36.1126 0.0000 -45.7187 0.0000
# 2 21.7900 74.4220 10.6806 0.0000 -4.7227 0.0000
# 3 36.1126 10.6806 89.7981 0.0000 -33.5246 0.0000
# 4 0.0000 0.0000 0.0000 27.7408 0.0000 2.1736
# 5 -45.7187 -4.7227 -33.5246 0.0000 57.0807 0.0000
# 6 0.0000 0.0000 0.0000 2.1736 0.0000 15.5474
#
#
#
# Elastic Compliance Matrix: (Units=1/GPa)
#
#
# Indices 1 2 3 4 5 6 
#
# 1 0.006237 -0.001447 -0.000661 0.000000 0.004488 0.000000
# 2 -0.001447 0.014008 -0.001389 0.000000 -0.000815 0.000000
# 3 -0.000661 -0.001389 0.014508 0.000000 0.007876 0.000000
# 4 0.000000 0.000000 0.000000 0.036447 0.000000 -0.005095
# 5 0.004488 -0.000815 0.007876 0.000000 0.025672 0.000000
# 6 0.000000 0.000000 0.000000 -0.005095 0.000000 0.065032
#
#
# Mechanical properties :
#
#
# Convention : Reuss Voigt Hill
#
# Bulk Modulus (GPa) = 36.02216 55.94266 45.98241
# Shear Modulus (GPa) = 28.06616 39.92270 33.99443
#
# Velocity S-wave (km/s) = 3.26158 3.88997 3.58955
# Velocity P-wave (km/s) = 5.27611 6.43271 5.88290
#
# Compressibility (1/GPa) = 0.02776069
#
# Stress axis : x y z
#
# Youngs Moduli (GPa) = 160.32152 71.38769 68.92972
#
# Poissons Ratio (x) = 0.10327 0.04555
# Poissons Ratio (y) = 0.23192 0.09573
# Poissons Ratio (z) = 0.10594 0.09914
#
# Static dielectric constant tensor:
#      x y z
#    x 2.195900 0.000000 0.095160 
#    y 0.000000 2.092430 0.000000 
#    z 0.095160 0.000000 2.168780 
# 
# From -- ./inp_files/116794.got.cif
#   From: 2010.05.17/outbox.cif.g08.bks.cpg/sg15_59_cif.got.tgz:116794.got - 2010.06.03 18:47:42.
