data_PCOD9283598
_publ_section_title
;
Structure prediction by ZEFSAII (Michael W. Deem and Ramdas Pophale) SiO2 
 PCOD9283598
Probable space group: C 2/C
;
_chemical_formula_sum "Si O2"
_cell_formula_units_Z 40
_cell_length_a 27.359051
_cell_length_b 6.244111
_cell_length_c 9.804664
_cell_angle_alpha 90.000000
_cell_angle_beta 79.349146
_cell_angle_gamma 90.000000
_cell_volume 1646.102967
_symmetry_space_group_name_H-M "C 2/C"
_symmetry_group_IT_number 15
_symmetry_cell_setting 'monoclinic'
loop_
_space_group_symop_operation_xyz
x,y,z
-x,y,1/2-z
-x,-y,-z
x,-y,1/2+z
1/2+x,1/2+y,z
1/2-x,1/2+y,1/2-z
1/2-x,1/2-y,-z
1/2+x,1/2-y,1/2+z
loop_
_atom_site_type_symbol
_atom_site_label
_atom_site_fract_x
_atom_site_fract_y
_atom_site_fract_z
Si Si1 0.052838 0.263734 0.675784
Si Si2 0.190043 0.299803 0.420573
Si Si3 0.787078 0.631433 0.878912
Si Si4 0.870662 0.917168 0.948341
Si Si5 0.086151 0.464787 0.921591
O O1 0.068177 0.442760 0.777642
O O2 0.052047 0.381561 0.530623
O O3 0.000000 0.175099 0.750000
O O4 0.095588 0.086150 0.648851
O O5 0.207499 0.396518 0.556790
O O6 0.225541 0.347425 0.273646
O O7 0.141246 0.439182 0.408192
O O8 0.169790 0.059338 0.447571
O O9 0.839025 0.758460 0.870790
O O10 0.750000 0.750000 0.000000
O O11 0.907120 0.774173 0.021836
#
# Coordination Sequence:
#
# PCOD9283598 Si02
#       5
#     8   8   8   8   8
#     4  11  23  39  63  95 128 167 214 260 310 376
#     4  10  22  42  62  90 124 162 209 257 317 374
#     4  11  25  41  65  93 125 164 210 263 317 378
#     4  10  22  40  66  89 126 166 210 264 316 368
#     4  10  21  40  63  88 125 166 206 259 314 368
#
# _framework density 24.299817000000001
#
# number of rings (size 3 to 8) (size 9 to 14) (size 15 to 20)
#    0.000    1.600    0.000    5.400    2.800    5.600 
#    0.000    0.000    0.000    0.000    0.000    0.000 
#    0.000    0.000    0.000    0.000    0.000    0.000 
#
# Total GULP energy -111946.586659 kJ/mol
# GULP energy per Si atom -5597.329333 kJ/mol
# Density = 2.424451 g / cm^3
# Si number density = 24.299817 Si / 1000 Ang^3
#
#
#
# Elastic Constant Matrix: (Units=GPa)
#
#
# Indices 1 2 3 4 5 6 
#
# 1 52.2930 9.9625 26.5043 0.0000 -10.9436 0.0000
# 2 9.9625 77.3966 35.5933 0.0000 -13.7869 0.0000
# 3 26.5043 35.5933 141.2740 0.0000 -12.9184 0.0000
# 4 0.0000 0.0000 0.0000 24.8488 0.0000 7.3284
# 5 -10.9436 -13.7869 -12.9184 0.0000 38.5755 0.0000
# 6 0.0000 0.0000 0.0000 7.3284 0.0000 29.7427
#
#
#
# Elastic Compliance Matrix: (Units=1/GPa)
#
#
# Indices 1 2 3 4 5 6 
#
# 1 0.022042 -0.000298 -0.003609 0.000000 0.004938 0.000000
# 2 -0.000298 0.015280 -0.003406 0.000000 0.004236 0.000000
# 3 -0.003609 -0.003406 0.008674 0.000000 0.000664 0.000000
# 4 0.000000 0.000000 0.000000 0.043397 0.000000 -0.010693
# 5 0.004938 0.004236 0.000664 0.000000 0.029060 0.000000
# 6 0.000000 0.000000 0.000000 -0.010693 0.000000 0.036256
#
#
# Mechanical properties :
#
#
# Convention : Reuss Voigt Hill
#
# Bulk Modulus (GPa) = 31.87741 46.12043 38.99892
# Shear Modulus (GPa) = 27.80973 31.89363 29.85168
#
# Velocity S-wave (km/s) = 3.38663 3.62678 3.50876
# Velocity P-wave (km/s) = 5.33284 6.04640 5.70080
#
# Compressibility (1/GPa) = 0.03137018
#
# Stress axis : x y z
#
# Youngs Moduli (GPa) = 45.36733 65.44543 115.28182
#
# Poissons Ratio (x) = 0.01951 0.41602
# Poissons Ratio (y) = 0.01352 0.39270
# Poissons Ratio (z) = 0.16372 0.22294
#
# Static dielectric constant tensor:
#      x y z
#    x 1.957540 0.000000 -0.007860 
#    y 0.000000 1.921830 0.000000 
#    z -0.007860 0.000000 1.955420 
# 
# From -- ./inp_files/124920.got.cif
#   From: 2010.05.17/outbox.cif.g08.bks.cpg/sg15_63_cif.got.tgz:124920.got - 2010.06.03 18:47:42.
