data_PCOD9283093
_publ_section_title
;
Structure prediction by ZEFSAII (Michael W. Deem and Ramdas Pophale) SiO2 
 PCOD9283093
Probable space group: C 2/C
;
_chemical_formula_sum "Si O2"
_cell_formula_units_Z 44
_cell_length_a 7.108446
_cell_length_b 25.167068
_cell_length_c 12.421966
_cell_angle_alpha 90.000000
_cell_angle_beta 60.733534
_cell_angle_gamma 90.000000
_cell_volume 1938.613153
_symmetry_space_group_name_H-M "C 2/C"
_symmetry_group_IT_number 15
_symmetry_cell_setting 'monoclinic'
loop_
_space_group_symop_operation_xyz
x,y,z
-x,y,1/2-z
-x,-y,-z
x,-y,1/2+z
1/2+x,1/2+y,z
1/2-x,1/2+y,1/2-z
1/2-x,1/2-y,-z
1/2+x,1/2-y,1/2+z
loop_
_atom_site_type_symbol
_atom_site_label
_atom_site_fract_x
_atom_site_fract_y
_atom_site_fract_z
Si Si1 0.000000 0.965441 0.750000
Si Si2 0.702549 0.104178 0.486680
Si Si3 0.277682 0.727862 0.765258
Si Si4 0.037699 0.795870 0.507140
Si Si5 0.773261 0.867359 0.421266
Si Si6 0.387666 0.458975 0.114649
O O1 0.141851 0.928994 0.633889
O O2 0.162164 0.003623 0.770814
O O3 0.817615 0.160273 0.475322
O O4 0.468242 0.111462 0.502622
O O5 0.706649 0.072646 0.599432
O O6 0.500000 0.751180 0.750000
O O7 0.272156 0.666630 0.809937
O O8 0.687212 0.729505 0.872019
O O9 0.081860 0.757493 0.876732
O O10 0.849309 0.825281 0.490501
O O11 0.938792 0.915636 0.392218
O O12 0.500000 0.500000 0.000000
#
# Coordination Sequence:
#
# PCOD9283093 Si02
#       6
#     4   8   8   8   8   8
#     4  10  22  40  64  92 130 170 224 282 334 392
#     4  10  23  42  63  96 130 173 222 279 337 399
#     4  10  21  40  67  97 130 179 219 272 339 400
#     4  10  23  43  66  96 138 175 224 276 334 404
#     4  10  21  39  67  91 130 176 220 271 342 401
#     4   9  21  41  61  88 129 169 219 278 327 397
#
# _framework density 22.696638
#
# number of rings (size 3 to 8) (size 9 to 14) (size 15 to 20)
#    0.000    2.182    0.000    2.182    6.364    7.273 
#    0.000   18.182    0.000    0.000    0.000    0.000 
#    0.000    0.000    0.000    0.000    0.000    0.000 
#
# Total GULP energy -122958.658958 kJ/mol
# GULP energy per Si atom -5589.029953 kJ/mol
# Density = 2.264498 g / cm^3
# Si number density = 22.696638 Si / 1000 Ang^3
#
#
#
# Elastic Constant Matrix: (Units=GPa)
#
#
# Indices 1 2 3 4 5 6 
#
# 1 132.9029 43.8770 40.8943 0.0000 -2.7986 0.0000
# 2 43.8770 115.3458 78.2971 0.0000 6.5891 0.0000
# 3 40.8943 78.2971 136.6441 0.0000 9.2386 0.0000
# 4 0.0000 0.0000 0.0000 24.7869 0.0000 17.3117
# 5 -2.7986 6.5891 9.2386 0.0000 11.1650 0.0000
# 6 0.0000 0.0000 0.0000 17.3117 0.0000 22.0482
#
#
#
# Elastic Compliance Matrix: (Units=1/GPa)
#
#
# Indices 1 2 3 4 5 6 
#
# 1 0.008978 -0.002698 -0.001484 0.000000 0.005070 0.000000
# 2 -0.002698 0.015031 -0.007584 0.000000 -0.003271 0.000000
# 3 -0.001484 -0.007584 0.012532 0.000000 -0.006266 0.000000
# 4 0.000000 0.000000 0.000000 0.089333 0.000000 -0.070142
# 5 0.005070 -0.003271 -0.006266 0.000000 0.097952 0.000000
# 6 0.000000 0.000000 0.000000 -0.070142 0.000000 0.100429
#
#
# Mechanical properties :
#
#
# Convention : Reuss Voigt Hill
#
# Bulk Modulus (GPa) = 76.86857 79.00329 77.93593
# Shear Modulus (GPa) = 14.19960 26.38830 20.29395
#
# Velocity S-wave (km/s) = 2.50396 3.41347 2.99346
# Velocity P-wave (km/s) = 6.50393 7.10068 6.80885
#
# Compressibility (1/GPa) = 0.01300922
#
# Stress axis : x y z
#
# Youngs Moduli (GPa) = 111.37974 66.53045 79.79703
#
# Poissons Ratio (x) = 0.17947 0.11843
# Poissons Ratio (y) = 0.30045 0.60519
# Poissons Ratio (z) = 0.16530 0.50458
#
# Static dielectric constant tensor:
#      x y z
#    x 1.782880 0.000000 0.009040 
#    y 0.000000 1.845200 0.000000 
#    z 0.009040 0.000000 1.862430 
# 
# From -- ./inp_files/129958.got.cif
#   From: 2010.05.17/outbox.cif.g08.bks.cpg/sg15_65_cif.got.tgz:129958.got - 2010.06.03 18:47:42.
