data_PCOD9283544
_publ_section_title
;
Structure prediction by ZEFSAII (Michael W. Deem and Ramdas Pophale) SiO2 
 PCOD9283544
Probable space group: C 2/C
;
_chemical_formula_sum "Si O2"
_cell_formula_units_Z 60
_cell_length_a 27.102565
_cell_length_b 9.099358
_cell_length_c 22.055105
_cell_angle_alpha 90.000000
_cell_angle_beta 148.486072
_cell_angle_gamma 90.000000
_cell_volume 2843.070373
_symmetry_space_group_name_H-M "C 2/C"
_symmetry_group_IT_number 15
_symmetry_cell_setting 'monoclinic'
loop_
_space_group_symop_operation_xyz
x,y,z
-x,y,1/2-z
-x,-y,-z
x,-y,1/2+z
1/2+x,1/2+y,z
1/2-x,1/2+y,1/2-z
1/2-x,1/2-y,-z
1/2+x,1/2-y,1/2+z
loop_
_atom_site_type_symbol
_atom_site_label
_atom_site_fract_x
_atom_site_fract_y
_atom_site_fract_z
Si Si1 0.550654 0.864750 0.018947
Si Si2 0.071834 0.985142 0.870134
Si Si3 0.852409 0.760722 0.135451
Si Si4 0.756316 0.775217 0.434238
Si Si5 0.000000 0.480722 0.750000
Si Si6 0.940185 0.891486 0.337491
Si Si7 0.913281 0.226897 0.327212
Si Si8 0.410122 0.902318 0.036493
O O1 0.616733 0.797722 0.140229
O O2 0.483207 0.730557 0.927314
O O3 0.500000 0.000000 0.000000
O O4 0.592035 0.946231 0.003549
O O5 0.101816 0.111262 0.855897
O O6 0.000000 0.894678 0.750000
O O7 0.020605 0.058017 0.873557
O O8 0.166386 0.903919 0.989667
O O9 0.860261 0.811627 0.213216
O O10 0.916543 0.618983 0.190854
O O11 0.750000 0.750000 0.000000
O O12 0.750000 0.750000 0.500000
O O13 0.653665 0.786925 0.296642
O O14 0.806317 0.650910 0.445455
O O15 0.957278 0.570368 0.650543
O O16 0.909384 0.050608 0.329587
O O17 0.020320 0.284047 0.423860
#
# Coordination Sequence:
#
# PCOD9283544 Si02
#       8
#     8   8   8   8   4   8   8   8
#     4  10  23  45  71  95 131 181 233 281 340 404
#     4  10  21  40  62  92 138 178 213 268 342 412
#     4  11  23  35  61  97 134 175 215 269 342 403
#     4  12  25  40  68 106 137 172 225 284 347 410
#     4  12  22  38  62  92 132 172 214 276 350 396
#     4  11  20  46  66  92 133 178 225 277 335 402
#     4  11  25  44  69  99 130 182 233 274 339 408
#     4  11  24  43  66  97 138 175 221 287 339 405
#
# _framework density 21.103945
#
# number of rings (size 3 to 8) (size 9 to 14) (size 15 to 20)
#    0.000    1.067    4.667    2.800    6.533    0.000 
#    2.400    0.000    0.000    0.000    0.000    0.000 
#    0.000    0.000    0.000    0.000    0.000    0.000 
#
# Total GULP energy -167360.523037 kJ/mol
# GULP energy per Si atom -5578.684101 kJ/mol
# Density = 2.105591 g / cm^3
# Si number density = 21.103945 Si / 1000 Ang^3
#
#
#
# Elastic Constant Matrix: (Units=GPa)
#
#
# Indices 1 2 3 4 5 6 
#
# 1 58.0120 18.8591 28.8349 0.0000 -13.5710 0.0000
# 2 18.8591 90.4468 27.2353 0.0000 -11.5435 0.0000
# 3 28.8349 27.2353 98.1745 0.0000 -8.0910 0.0000
# 4 0.0000 0.0000 0.0000 15.9703 0.0000 8.1688
# 5 -13.5710 -11.5435 -8.0910 0.0000 39.3204 0.0000
# 6 0.0000 0.0000 0.0000 8.1688 0.0000 32.9417
#
#
#
# Elastic Compliance Matrix: (Units=1/GPa)
#
#
# Indices 1 2 3 4 5 6 
#
# 1 0.021991 -0.002227 -0.005360 0.000000 0.005833 0.000000
# 2 -0.002227 0.012624 -0.002651 0.000000 0.002392 0.000000
# 3 -0.005360 -0.002651 0.012491 0.000000 -0.000058 0.000000
# 4 0.000000 0.000000 0.000000 0.071712 0.000000 -0.017783
# 5 0.005833 0.002392 -0.000058 0.000000 0.028136 0.000000
# 6 0.000000 0.000000 0.000000 -0.017783 0.000000 0.034766
#
#
# Mechanical properties :
#
#
# Convention : Reuss Voigt Hill
#
# Bulk Modulus (GPa) = 37.55231 44.05465 40.80348
# Shear Modulus (GPa) = 23.68851 29.09341 26.39096
#
# Velocity S-wave (km/s) = 3.35396 3.71695 3.54011
# Velocity P-wave (km/s) = 5.72986 6.27227 6.00719
#
# Compressibility (1/GPa) = 0.02662952
#
# Stress axis : x y z
#
# Youngs Moduli (GPa) = 45.47390 79.21370 80.05759
#
# Poissons Ratio (x) = 0.17638 0.42914
# Poissons Ratio (y) = 0.10126 0.21223
# Poissons Ratio (z) = 0.24376 0.21000
#
# Static dielectric constant tensor:
#      x y z
#    x 1.827460 0.000000 0.039600 
#    y 0.000000 1.828510 0.000000 
#    z 0.039600 0.000000 1.848220 
# 
# From -- ./inp_files/284310.got.cif
#   From: 2010.05.17/outbox.cif.g08.bks.cpg/sg15_143_cif.got.tgz:284310.got - 2010.06.03 18:47:42.
