data_PCOD9283536
_publ_section_title
;
Structure prediction by ZEFSAII (Michael W. Deem and Ramdas Pophale) SiO2 
 PCOD9283536
Probable space group: C 2/C
;
_chemical_formula_sum "Si O2"
_cell_formula_units_Z 60
_cell_length_a 7.020710
_cell_length_b 26.568543
_cell_length_c 22.285970
_cell_angle_alpha 90.000000
_cell_angle_beta 50.919435
_cell_angle_gamma 90.000000
_cell_volume 3226.916183
_symmetry_space_group_name_H-M "C 2/C"
_symmetry_group_IT_number 15
_symmetry_cell_setting 'monoclinic'
loop_
_space_group_symop_operation_xyz
x,y,z
-x,y,1/2-z
-x,-y,-z
x,-y,1/2+z
1/2+x,1/2+y,z
1/2-x,1/2+y,1/2-z
1/2-x,1/2-y,-z
1/2+x,1/2-y,1/2+z
loop_
_atom_site_type_symbol
_atom_site_label
_atom_site_fract_x
_atom_site_fract_y
_atom_site_fract_z
Si Si1 0.000000 0.002958 0.750000
Si Si2 0.063039 0.318903 0.114928
Si Si3 0.702168 0.774686 0.662301
Si Si4 0.056334 0.575307 0.809026
Si Si5 0.695409 0.333218 0.563532
Si Si6 0.211333 0.443455 0.907876
Si Si7 0.977313 0.248209 0.581866
Si Si8 0.276858 0.009128 0.961627
O O1 0.206075 0.040932 0.731631
O O2 0.097115 0.968994 0.675856
O O3 0.305567 0.300356 0.103431
O O4 0.863857 0.273975 0.149967
O O5 0.938482 0.367482 0.168897
O O6 0.162909 0.331647 0.028285
O O7 0.500000 0.791793 0.750000
O O8 0.537202 0.758927 0.638558
O O9 0.912629 0.816632 0.608732
O O10 0.000000 0.575795 0.750000
O O11 0.874391 0.546947 0.891271
O O12 0.730469 0.385525 0.591095
O O13 0.822413 0.291431 0.579867
O O14 0.948208 0.459338 0.931651
O O15 0.215265 0.467423 0.973479
O O16 0.250000 0.250000 0.500000
O O17 0.000000 0.000000 0.000000
#
# Coordination Sequence:
#
# PCOD9283536 Si02
#       8
#     4   8   8   8   8   8   8   8
#     4  10  24  44  60  88 134 162 206 270 328 368
#     4  11  23  39  63  95 125 164 217 258 310 398
#     4  11  25  41  61  94 132 164 207 267 317 376
#     4  11  24  40  63  94 124 162 205 263 322 377
#     4  11  22  42  65  93 124 166 222 255 313 394
#     4  10  22  40  64  88 124 166 205 263 311 373
#     4  11  21  40  64  88 128 169 201 259 323 372
#     4  10  21  40  62  92 122 158 208 254 312 380
#
# _framework density 18.593605
#
# number of rings (size 3 to 8) (size 9 to 14) (size 15 to 20)
#    0.000    1.333    4.000    1.600    2.800    4.800 
#    0.000    2.000    0.000    0.000    0.000    0.000 
#    0.000    0.000    0.000    0.000    0.000    0.000 
#
# Total GULP energy -167291.293175 kJ/mol
# GULP energy per Si atom -5576.376439 kJ/mol
# Density = 1.855128 g / cm^3
# Si number density = 18.593605 Si / 1000 Ang^3
#
#
#
# Elastic Constant Matrix: (Units=GPa)
#
#
# Indices 1 2 3 4 5 6 
#
# 1 90.6910 30.6891 26.2567 0.0000 2.4188 0.0000
# 2 30.6891 106.5028 22.5304 0.0000 -3.7829 0.0000
# 3 26.2567 22.5304 93.2672 0.0000 0.0898 0.0000
# 4 0.0000 0.0000 0.0000 16.0504 0.0000 17.0461
# 5 2.4188 -3.7829 0.0898 0.0000 30.0202 0.0000
# 6 0.0000 0.0000 0.0000 17.0461 0.0000 12.4831
#
#
#
# Elastic Compliance Matrix: (Units=1/GPa)
#
#
# Indices 1 2 3 4 5 6 
#
# 1 0.012976 -0.003180 -0.002883 0.000000 -0.001438 0.000000
# 2 -0.003180 0.010722 -0.001696 0.000000 0.001612 0.000000
# 3 -0.002883 -0.001696 0.011943 0.000000 -0.000017 0.000000
# 4 0.000000 0.000000 0.000000 -0.138378 0.000000 0.188960
# 5 -0.001438 0.001612 -0.000017 0.000000 0.033630 0.000000
# 6 0.000000 0.000000 0.000000 0.188960 0.000000 -0.177924
#
#
# Mechanical properties :
#
#
# Convention : Reuss Voigt Hill
#
# Bulk Modulus (GPa) = 49.69827 49.93484 49.81656
# Shear Modulus (GPa) = -22.24160 25.77639 1.76739
#
# Velocity S-wave (km/s) = -3.46236 3.72735 0.97601
# Velocity P-wave (km/s) = 3.28676 6.74080 5.30289
#
# Compressibility (1/GPa) = 0.02012142
#
# Stress axis : x y z
#
# Youngs Moduli (GPa) = 77.06725 93.26698 83.72819
#
# Poissons Ratio (x) = 0.29660 0.24142
# Poissons Ratio (y) = 0.24508 0.14203
# Poissons Ratio (z) = 0.22221 0.15822
#
# Static dielectric constant tensor:
#      x y z
#    x 1.620760 0.000000 0.035140 
#    y 0.000000 1.671010 0.000000 
#    z 0.035140 0.000000 1.606810 
# 
# From -- ./inp_files/228613.got.cif
#   From: 2010.05.17/outbox.cif.g08.bks.cpg/sg15_115_cif.got.tgz:228613.got - 2010.06.03 18:47:42.
