data_PCOD9283582
_publ_section_title
;
Structure prediction by ZEFSAII (Michael W. Deem and Ramdas Pophale) SiO2 
 PCOD9283582
Probable space group: C 2/C
;
_chemical_formula_sum "Si O2"
_cell_formula_units_Z 64
_cell_length_a 23.341281
_cell_length_b 5.195535
_cell_length_c 23.666280
_cell_angle_alpha 90.000000
_cell_angle_beta 115.456091
_cell_angle_gamma 90.000000
_cell_volume 2591.384170
_symmetry_space_group_name_H-M "C 2/C"
_symmetry_group_IT_number 15
_symmetry_cell_setting 'monoclinic'
loop_
_space_group_symop_operation_xyz
x,y,z
-x,y,1/2-z
-x,-y,-z
x,-y,1/2+z
1/2+x,1/2+y,z
1/2-x,1/2+y,1/2-z
1/2-x,1/2-y,-z
1/2+x,1/2-y,1/2+z
loop_
_atom_site_type_symbol
_atom_site_label
_atom_site_fract_x
_atom_site_fract_y
_atom_site_fract_z
Si Si1 0.151433 0.682961 0.047669
Si Si2 0.660952 0.812589 0.754568
Si Si3 0.180015 0.183969 0.989246
Si Si4 0.945927 0.298872 0.606400
Si Si5 0.283252 0.562966 0.824454
Si Si6 0.601929 0.795033 0.145327
Si Si7 0.543725 0.461762 0.223228
Si Si8 0.525369 0.296054 0.950660
O O1 0.190999 0.727756 0.120900
O O2 0.160675 0.400308 0.026890
O O3 0.076641 0.751872 0.021456
O O4 0.175331 0.899655 0.013362
O O5 0.708560 0.635259 0.738130
O O6 0.710129 0.000667 0.805618
O O7 0.609076 0.671844 0.770516
O O8 0.620338 0.949776 0.687446
O O9 0.127515 0.223173 0.918160
O O10 0.250000 0.250000 0.000000
O O11 0.951459 0.590697 0.587339
O O12 0.993060 0.243944 0.677644
O O13 0.968005 0.089141 0.568051
O O14 0.334556 0.334572 0.850838
O O15 0.569875 0.626428 0.181916
O O16 0.547620 0.785830 0.074804
O O17 0.500000 0.608791 0.250000
#
# Coordination Sequence:
#
# PCOD9283582 Si02
#       8
#     8   8   8   8   8   8   8   8
#     4  10  23  39  63  94 124 163 219 269 306 402
#     4  11  22  41  62  87 129 173 202 271 330 383
#     4  10  21  40  63  89 128 167 209 262 335 373
#     4   9  18  36  58  84 121 158 195 255 315 373
#     4  11  24  39  63  93 126 168 218 260 327 389
#     4  10  21  40  63  84 128 167 207 263 333 373
#     4  10  22  39  61  93 121 164 222 264 317 392
#     4   9  18  38  61  85 119 158 198 253 322 364
#
# _framework density 24.697226000000001
#
# number of rings (size 3 to 8) (size 9 to 14) (size 15 to 20)
#    0.000    2.000    2.500    0.375    1.750    2.000 
#    2.250    0.625    0.000    0.000    0.000    0.000 
#    0.000    0.000    0.000    0.000    0.000    0.000 
#
# Total GULP energy -178765.857065 kJ/mol
# GULP energy per Si atom -5586.433033 kJ/mol
# Density = 2.464101 g / cm^3
# Si number density = 24.697226 Si / 1000 Ang^3
#
#
#
# Elastic Constant Matrix: (Units=GPa)
#
#
# Indices 1 2 3 4 5 6 
#
# 1 139.0288 20.8815 44.7717 0.0001 32.3431 -0.0004
# 2 20.8815 77.9038 5.3903 -0.0010 -9.7670 -0.0027
# 3 44.7717 5.3903 76.3147 0.0000 21.8588 -0.0001
# 4 0.0001 -0.0010 0.0000 26.6891 0.0000 2.8183
# 5 32.3431 -9.7670 21.8588 0.0000 40.7177 -0.0001
# 6 -0.0004 -0.0027 -0.0001 2.8183 -0.0001 24.6480
#
#
#
# Elastic Compliance Matrix: (Units=1/GPa)
#
#
# Indices 1 2 3 4 5 6 
#
# 1 0.010659 -0.003484 -0.003950 0.000000 -0.007182 0.000000
# 2 -0.003484 0.014687 -0.000940 0.000000 0.006795 0.000002
# 3 -0.003950 -0.000940 0.017316 0.000000 -0.006384 0.000000
# 4 0.000000 0.000000 0.000000 0.037926 0.000000 -0.004337
# 5 -0.007182 0.006795 -0.006384 0.000000 0.035321 0.000001
# 6 0.000000 0.000002 0.000000 -0.004337 0.000001 0.041067
#
#
# Mechanical properties :
#
#
# Convention : Reuss Voigt Hill
#
# Bulk Modulus (GPa) = 38.58891 48.37047 43.47969
# Shear Modulus (GPa) = 27.41801 33.22455 30.32128
#
# Velocity S-wave (km/s) = 3.33553 3.67178 3.50768
# Velocity P-wave (km/s) = 5.52205 6.13220 5.83510
#
# Compressibility (1/GPa) = 0.02591418
#
# Stress axis : x y z
#
# Youngs Moduli (GPa) = 93.81878 68.08668 57.75060
#
# Poissons Ratio (x) = 0.23722 0.22812
# Poissons Ratio (y) = 0.32687 0.05426
# Poissons Ratio (z) = 0.37059 0.06398
#
# Static dielectric constant tensor:
#      x y z
#    x 1.974130 0.000000 0.012260 
#    y 0.000000 2.000000 0.000000 
#    z 0.012260 0.000000 2.028930 
# 
# From -- ./inp_files/281218.got.cif
#   From: 2010.05.17/outbox.cif.g08.bks.cpg/sg15_141_cif.got.tgz:281218.got - 2010.06.03 18:47:42.
