data_PCOD9283083
_publ_section_title
;
Structure prediction by ZEFSAII (Michael W. Deem and Ramdas Pophale) SiO2 
 PCOD9283083
Probable space group: C 2/C
;
_chemical_formula_sum "Si O2"
_cell_formula_units_Z 56
_cell_length_a 11.679934
_cell_length_b 13.630986
_cell_length_c 19.725540
_cell_angle_alpha 90.000000
_cell_angle_beta 65.896068
_cell_angle_gamma 90.000000
_cell_volume 2866.652963
_symmetry_space_group_name_H-M "C 2/C"
_symmetry_group_IT_number 15
_symmetry_cell_setting 'monoclinic'
loop_
_space_group_symop_operation_xyz
x,y,z
-x,y,1/2-z
-x,-y,-z
x,-y,1/2+z
1/2+x,1/2+y,z
1/2-x,1/2+y,1/2-z
1/2-x,1/2-y,-z
1/2+x,1/2-y,1/2+z
loop_
_atom_site_type_symbol
_atom_site_label
_atom_site_fract_x
_atom_site_fract_y
_atom_site_fract_z
Si Si1 0.431189 0.437304 0.872821
Si Si2 0.662856 0.359612 0.741214
Si Si3 0.105680 0.664071 0.828857
Si Si4 0.431407 0.941166 0.697557
Si Si5 0.705127 0.354571 0.095011
Si Si6 0.558926 0.185839 0.057963
Si Si7 0.600697 0.737241 0.027039
O O1 0.569040 0.431053 0.805935
O O2 0.351802 0.379101 0.834847
O O3 0.370407 0.543887 0.892232
O O4 0.429644 0.374296 0.942001
O O5 0.626612 0.249569 0.769505
O O6 0.801025 0.384902 0.729283
O O7 0.088751 0.557218 0.802519
O O8 0.226688 0.660011 0.849355
O O9 0.982929 0.695766 0.901830
O O10 0.500000 0.916748 0.750000
O O11 0.504028 0.903562 0.613823
O O12 0.612178 0.267248 0.096696
O O13 0.822271 0.350138 0.014702
O O14 0.455341 0.233958 0.032836
O O15 0.750000 0.750000 0.000000
#
# Coordination Sequence:
#
# PCOD9283083 Si02
#       7
#     8   8   8   8   8   8   8
#     4  10  21  39  67  89 124 170 212 262 315 377
#     4  10  22  42  59  92 129 166 217 256 314 381
#     4  10  23  40  66  89 128 168 209 266 315 375
#     4  12  25  41  64  94 127 170 209 260 321 387
#     4  10  21  44  68  92 125 167 215 265 321 369
#     4  10  24  42  64  94 129 166 213 267 314 382
#     4  10  22  38  62  94 128 161 207 266 318 379
#
# _framework density 19.534977000000001
#
# number of rings (size 3 to 8) (size 9 to 14) (size 15 to 20)
#    0.000    1.714    1.429    1.714    6.000    4.000 
#    5.143    0.000    0.000    0.000    0.000    0.000 
#    0.000    0.000    0.000    0.000    0.000    0.000 
#
# Total GULP energy -156386.233292 kJ/mol
# GULP energy per Si atom -5585.222618 kJ/mol
# Density = 1.949051 g / cm^3
# Si number density = 19.534977 Si / 1000 Ang^3
#
#
#
# Elastic Constant Matrix: (Units=GPa)
#
#
# Indices 1 2 3 4 5 6 
#
# 1 79.5288 10.8864 10.8971 0.0000 -0.6291 0.0000
# 2 10.8864 105.2028 30.6544 0.0000 -5.4993 0.0000
# 3 10.8971 30.6544 25.1755 0.0000 9.0542 0.0000
# 4 0.0000 0.0000 0.0000 22.8301 0.0000 2.7799
# 5 -0.6291 -5.4993 9.0542 0.0000 26.2711 0.0000
# 6 0.0000 0.0000 0.0000 2.7799 0.0000 42.0674
#
#
#
# Elastic Compliance Matrix: (Units=1/GPa)
#
#
# Indices 1 2 3 4 5 6 
#
# 1 0.013634 0.001375 -0.008900 0.000000 0.003681 0.000000
# 2 0.001375 0.017991 -0.027245 0.000000 0.013189 0.000000
# 3 -0.008900 -0.027245 0.090036 0.000000 -0.036947 0.000000
# 4 0.000000 0.000000 0.000000 0.044157 0.000000 -0.002918
# 5 0.003681 0.013189 -0.036947 0.000000 0.053647 0.000000
# 6 0.000000 0.000000 0.000000 -0.002918 0.000000 0.023964
#
#
# Mechanical properties :
#
#
# Convention : Reuss Voigt Hill
#
# Bulk Modulus (GPa) = 19.18602 34.97589 27.08095
# Shear Modulus (GPa) = 15.13574 28.73169 21.93371
#
# Velocity S-wave (km/s) = 2.78655 3.83924 3.35444
# Velocity P-wave (km/s) = 4.49397 6.13157 5.37550
#
# Compressibility (1/GPa) = 0.05212129
#
# Stress axis : x y z
#
# Youngs Moduli (GPa) = 73.34378 55.58195 11.10671
#
# Poissons Ratio (x) = -0.07641 0.09884
# Poissons Ratio (y) = -0.10083 0.30261
# Poissons Ratio (z) = 0.65273 1.51435
#
# Static dielectric constant tensor:
#      x y z
#    x 1.719430 0.000000 0.040670 
#    y 0.000000 1.647120 0.000000 
#    z 0.040670 0.000000 1.715770 
# 
# From -- ./inp_files/198220.got.cif
#   From: 2010.05.17/outbox.cif.g08.bks.cpg/sg15_100_cif.got.tgz:198220.got - 2010.06.03 18:47:42.
