data_PCOD9283995
_publ_section_title
;
Structure prediction by ZEFSAII (Michael W. Deem and Ramdas Pophale) SiO2 
 PCOD9283995
Probable space group: C 2/C
;
_chemical_formula_sum "Si O2"
_cell_formula_units_Z 48
_cell_length_a 26.198613
_cell_length_b 12.593687
_cell_length_c 13.158681
_cell_angle_alpha 90.000000
_cell_angle_beta 150.265256
_cell_angle_gamma 90.000000
_cell_volume 2153.338821
_symmetry_space_group_name_H-M "C 2/C"
_symmetry_group_IT_number 15
_symmetry_cell_setting 'monoclinic'
loop_
_space_group_symop_operation_xyz
x,y,z
-x,y,1/2-z
-x,-y,-z
x,-y,1/2+z
1/2+x,1/2+y,z
1/2-x,1/2+y,1/2-z
1/2-x,1/2-y,-z
1/2+x,1/2-y,1/2+z
loop_
_atom_site_type_symbol
_atom_site_label
_atom_site_fract_x
_atom_site_fract_y
_atom_site_fract_z
Si Si1 0.908773 0.335046 0.674103
Si Si2 0.238478 0.385876 0.260154
Si Si3 0.658352 0.990438 0.315940
Si Si4 0.243548 0.318669 0.591534
Si Si5 0.881213 0.898353 0.209702
Si Si6 0.593645 0.514634 0.045582
O O1 0.816488 0.375860 0.442866
O O2 0.921099 0.419256 0.787285
O O3 0.881025 0.222586 0.674852
O O4 0.000000 0.323631 0.750000
O O5 0.160239 0.428122 0.212182
O O6 0.277247 0.268998 0.359291
O O7 0.331308 0.468227 0.409431
O O8 0.770029 0.048711 0.504929
O O9 0.662146 0.907391 0.416580
O O10 0.250000 0.250000 0.500000
O O11 0.346245 0.383571 0.801406
O O12 0.978199 0.952640 0.321605
O O13 0.910614 0.921258 0.377662
#
# Coordination Sequence:
#
# PCOD9283995 Si02
#       6
#     8   8   8   8   8   8
#     4  12  25  40  64 100 131 176 222 273 332 394
#     4  11  23  38  69  94 129 178 217 267 341 388
#     4  10  23  42  64  92 138 173 217 273 327 400
#     4   9  19  39  60  87 129 173 209 268 326 390
#     4  10  22  40  65  98 137 158 224 280 326 392
#     4  10  21  40  66 101 126 175 221 273 339 394
#
# _framework density 22.290966000000001
#
# number of rings (size 3 to 8) (size 9 to 14) (size 15 to 20)
#    0.000    1.667    3.333    1.500    4.667    0.667 
#    0.000    0.000   18.333    0.000    0.000    0.000 
#    0.000    0.000    0.000    0.000    0.000    0.000 
#
# Total GULP energy -133905.082613 kJ/mol
# GULP energy per Si atom -5579.378442 kJ/mol
# Density = 2.224023 g / cm^3
# Si number density = 22.290966 Si / 1000 Ang^3
#
#
#
# Elastic Constant Matrix: (Units=GPa)
#
#
# Indices 1 2 3 4 5 6 
#
# 1 104.6842 45.5694 16.8515 0.0000 -6.2419 0.0000
# 2 45.5694 132.1824 28.7760 0.0000 -8.3875 0.0000
# 3 16.8515 28.7760 59.1975 0.0000 10.8834 0.0000
# 4 0.0000 0.0000 0.0000 15.8536 0.0000 -13.1874
# 5 -6.2419 -8.3875 10.8834 0.0000 27.1454 0.0000
# 6 0.0000 0.0000 0.0000 -13.1874 0.0000 48.8279
#
#
#
# Elastic Compliance Matrix: (Units=1/GPa)
#
#
# Indices 1 2 3 4 5 6 
#
# 1 0.011494 -0.003352 -0.002092 0.000000 0.002446 0.000000
# 2 -0.003352 0.010006 -0.004682 0.000000 0.004198 0.000000
# 3 -0.002092 -0.004682 0.021719 0.000000 -0.010636 0.000000
# 4 0.000000 0.000000 0.000000 0.081354 0.000000 0.021972
# 5 0.002446 0.004198 -0.010636 0.000000 0.042963 0.000000
# 6 0.000000 0.000000 0.000000 0.021972 0.000000 0.026414
#
#
# Mechanical properties :
#
#
# Convention : Reuss Voigt Hill
#
# Bulk Modulus (GPa) = 43.53888 53.16200 48.35044
# Shear Modulus (GPa) = 22.53678 32.02319 27.27999
#
# Velocity S-wave (km/s) = 3.18312 3.79436 3.50210
# Velocity P-wave (km/s) = 5.75188 6.56484 6.17176
#
# Compressibility (1/GPa) = 0.02296798
#
# Stress axis : x y z
#
# Youngs Moduli (GPa) = 86.99952 99.93540 46.04162
#
# Poissons Ratio (x) = 0.33497 0.09634
# Poissons Ratio (y) = 0.29161 0.21556
# Poissons Ratio (z) = 0.18204 0.46788
#
# Static dielectric constant tensor:
#      x y z
#    x 1.913200 0.000000 -0.022910 
#    y 0.000000 1.824720 0.000000 
#    z -0.022910 0.000000 1.856070 
# 
# From -- ./inp_files/177888.got.cif
#   From: 2010.05.17/outbox.cif.g08.bks.cpg/sg15_89_cif.got.tgz:177888.got - 2010.06.03 18:47:42.
