data_PCOD9283297
_publ_section_title
;
Structure prediction by ZEFSAII (Michael W. Deem and Ramdas Pophale) SiO2 
 PCOD9283297
Probable space group: C 2/C
;
_chemical_formula_sum "Si O2"
_cell_formula_units_Z 64
_cell_length_a 9.031066
_cell_length_b 29.304764
_cell_length_c 24.777910
_cell_angle_alpha 90.000000
_cell_angle_beta 150.183532
_cell_angle_gamma 90.000000
_cell_volume 3260.569296
_symmetry_space_group_name_H-M "C 2/C"
_symmetry_group_IT_number 15
_symmetry_cell_setting 'monoclinic'
loop_
_space_group_symop_operation_xyz
x,y,z
-x,y,1/2-z
-x,-y,-z
x,-y,1/2+z
1/2+x,1/2+y,z
1/2-x,1/2+y,1/2-z
1/2-x,1/2-y,-z
1/2+x,1/2-y,1/2+z
loop_
_atom_site_type_symbol
_atom_site_label
_atom_site_fract_x
_atom_site_fract_y
_atom_site_fract_z
Si Si1 0.104324 0.554938 0.194720
Si Si2 0.216182 0.218027 0.199297
Si Si3 0.746908 0.127872 0.552762
Si Si4 0.603178 0.973900 0.978957
Si Si5 0.736946 0.675183 0.775807
Si Si6 0.240116 0.355367 0.506903
Si Si7 0.457528 0.547522 0.409165
Si Si8 0.180044 0.349125 0.676732
O O1 0.333880 0.535430 0.310272
O O2 0.135639 0.609513 0.204137
O O3 0.135194 0.541445 0.141874
O O4 0.788989 0.544366 0.122753
O O5 0.500000 0.213256 0.250000
O O6 0.174222 0.271579 0.197354
O O7 0.297966 0.196268 0.282266
O O8 0.942191 0.188501 0.087364
O O9 0.766755 0.073362 0.547597
O O10 0.496503 0.135122 0.519920
O O11 0.591636 0.149436 0.450970
O O12 0.052537 0.152265 0.668332
O O13 0.500000 0.000000 0.000000
O O14 0.788372 0.010695 0.003667
O O15 0.500000 0.671177 0.750000
O O16 0.039852 0.651051 0.890217
O O17 0.432066 0.400664 0.559461
O O18 0.500000 0.356433 0.750000
#
# Coordination Sequence:
#
# PCOD9283297 Si02
#       8
#     8   8   8   8   8   8   8   8
#     4  10  23  38  59  90 124 155 204 259 314 367
#     4  11  21  37  63  94 118 159 211 256 317 371
#     4  10  21  40  58  90 129 162 206 259 315 364
#     4  11  23  38  60  92 121 165 211 251 312 382
#     4   9  22  38  59  89 126 166 202 256 312 384
#     4  11  19  37  63  88 124 160 212 257 312 366
#     4  11  21  39  62  89 121 162 206 258 314 367
#     4  11  20  36  65  89 124 158 202 268 304 367
#
# _framework density 19.628474000000001
#
# number of rings (size 3 to 8) (size 9 to 14) (size 15 to 20)
#    0.000    1.500    3.750    1.500    1.750    1.500 
#    2.250    0.000    5.500    0.000    0.000    0.000 
#    0.000    0.000    0.000    0.000    0.000    0.000 
#
# Total GULP energy -178393.620701 kJ/mol
# GULP energy per Si atom -5574.800647 kJ/mol
# Density = 1.958380 g / cm^3
# Si number density = 19.628474 Si / 1000 Ang^3
#
#
#
# Elastic Constant Matrix: (Units=GPa)
#
#
# Indices 1 2 3 4 5 6 
#
# 1 43.1796 20.7360 22.1042 0.0011 -6.0413 0.0025
# 2 20.7360 88.7458 61.5200 0.0007 -0.0184 0.0027
# 3 22.1042 61.5200 110.6453 0.0071 -24.1646 0.0083
# 4 0.0011 0.0007 0.0071 3.8930 -0.0008 -42.1864
# 5 -6.0413 -0.0184 -24.1646 -0.0008 22.8398 -0.0011
# 6 0.0025 0.0027 0.0083 -42.1864 -0.0011 -34.4936
#
#
#
# Elastic Compliance Matrix: (Units=1/GPa)
#
#
# Indices 1 2 3 4 5 6 
#
# 1 0.027251 -0.005767 -0.000864 0.000001 0.006290 0.000000
# 2 -0.005767 0.023799 -0.016139 0.000000 -0.018581 -0.000002
# 3 -0.000864 -0.016139 0.023579 0.000000 0.024705 0.000003
# 4 0.000001 0.000000 0.000000 0.018022 0.000000 -0.022041
# 5 0.006290 -0.018581 0.024705 0.000000 0.071570 0.000003
# 6 0.000000 -0.000002 0.000003 -0.022041 0.000003 -0.002034
#
#
# Mechanical properties :
#
#
# Convention : Reuss Voigt Hill
#
# Bulk Modulus (GPa) = 34.37574 50.14346 42.25960
# Shear Modulus (GPa) = 22.99657 7.66187 15.32922
#
# Velocity S-wave (km/s) = 3.42657 1.97786 2.79761
# Velocity P-wave (km/s) = 5.76250 5.55136 5.65791
#
# Compressibility (1/GPa) = 0.02909028
#
# Stress axis : x y z
#
# Youngs Moduli (GPa) = 36.69610 42.01798 42.41017
#
# Poissons Ratio (x) = 0.24233 0.03663
# Poissons Ratio (y) = 0.21163 0.68444
# Poissons Ratio (z) = 0.03170 0.67811
#
# Static dielectric constant tensor:
#      x y z
#    x 0.875730 0.000020 -0.056840 
#    y 0.000020 1.676000 0.000000 
#    z -0.056840 0.000000 1.722080 
# 
# From -- ./inp_files/266752.got.cif
#   From: 2010.05.17/outbox.cif.g08.bks.cpg/sg15_134_cif.got.tgz:266752.got - 2010.06.03 18:47:42.
