data_PCOD9283258
_publ_section_title
;
Structure prediction by ZEFSAII (Michael W. Deem and Ramdas Pophale) SiO2 
 PCOD9283258
Probable space group: C 2/C
;
_chemical_formula_sum "Si O2"
_cell_formula_units_Z 32
_cell_length_a 15.035461
_cell_length_b 12.316096
_cell_length_c 11.314011
_cell_angle_alpha 90.000000
_cell_angle_beta 36.569364
_cell_angle_gamma 90.000000
_cell_volume 1248.255955
_symmetry_space_group_name_H-M "C 2/C"
_symmetry_group_IT_number 15
_symmetry_cell_setting 'monoclinic'
loop_
_space_group_symop_operation_xyz
x,y,z
-x,y,1/2-z
-x,-y,-z
x,-y,1/2+z
1/2+x,1/2+y,z
1/2-x,1/2+y,1/2-z
1/2-x,1/2-y,-z
1/2+x,1/2-y,1/2+z
loop_
_atom_site_type_symbol
_atom_site_label
_atom_site_fract_x
_atom_site_fract_y
_atom_site_fract_z
Si Si1 0.274587 0.608915 0.907060
Si Si2 0.890233 0.181539 0.008749
Si Si3 0.897417 0.223063 0.268001
Si Si4 0.058639 0.546616 0.560492
O O1 0.500000 0.345249 0.750000
O O2 0.156179 0.700816 0.993845
O O3 0.436564 0.651393 0.691964
O O4 0.292770 0.602470 0.029442
O O5 0.857188 0.183784 0.181361
O O6 0.750000 0.250000 0.500000
O O7 0.726400 0.001831 0.397530
O O8 0.999572 0.329850 0.128932
O O9 0.000000 0.501326 0.750000
O O10 0.000000 0.500000 0.500000
#
# Coordination Sequence:
#
# PCOD9283258 Si02
#       4
#     8   8   8   8
#     4  10  22  39  72 109 142 199 253 330 372 461
#     4  10  21  39  71 108 143 192 264 310 385 462
#     4  11  24  43  72 105 149 200 251 316 399 472
#     4  11  25  43  72 107 151 199 255 319 392 460
#
# _framework density 25.635767999999999
#
# number of rings (size 3 to 8) (size 9 to 14) (size 15 to 20)
#    0.000    1.500    2.500    1.500    7.000    4.000 
#    0.000    0.000   22.000   19.500    0.000    0.000 
#    0.000    0.000    0.000    0.000    0.000    0.000 
#
# Total GULP energy -89397.312589 kJ/mol
# GULP energy per Si atom -5587.332037 kJ/mol
# Density = 2.557742 g / cm^3
# Si number density = 25.635768 Si / 1000 Ang^3
#
#
#
# Elastic Constant Matrix: (Units=GPa)
#
#
# Indices 1 2 3 4 5 6 
#
# 1 245.8732 73.3593 110.2964 0.0000 39.7180 0.0000
# 2 73.3593 117.5757 55.0875 0.0000 -5.2800 0.0000
# 3 110.2964 55.0875 138.3457 0.0000 14.5310 0.0000
# 4 0.0000 0.0000 0.0000 36.0414 0.0000 -10.6369
# 5 39.7180 -5.2800 14.5310 0.0000 69.9944 0.0000
# 6 0.0000 0.0000 0.0000 -10.6369 0.0000 36.2055
#
#
#
# Elastic Compliance Matrix: (Units=1/GPa)
#
#
# Indices 1 2 3 4 5 6 
#
# 1 0.007459 -0.002701 -0.004503 0.000000 -0.003501 0.000000
# 2 -0.002701 0.011633 -0.002793 0.000000 0.002990 0.000000
# 3 -0.004503 -0.002793 0.011945 0.000000 -0.000135 0.000000
# 4 0.000000 0.000000 0.000000 0.030380 0.000000 0.008925
# 5 -0.003501 0.002990 -0.000135 0.000000 0.016527 0.000000
# 6 0.000000 0.000000 0.000000 0.008925 0.000000 0.030242
#
#
# Mechanical properties :
#
#
# Convention : Reuss Voigt Hill
#
# Bulk Modulus (GPa) = 90.55944 108.80901 99.68422
# Shear Modulus (GPa) = 37.91860 45.98501 41.95181
#
# Velocity S-wave (km/s) = 3.85012 4.23990 4.04970
# Velocity P-wave (km/s) = 7.42743 8.15508 7.79974
#
# Compressibility (1/GPa) = 0.01104247
#
# Stress axis : x y z
#
# Youngs Moduli (GPa) = 134.07102 85.96047 83.71917
#
# Poissons Ratio (x) = 0.23219 0.37700
# Poissons Ratio (y) = 0.36214 0.23381
# Poissons Ratio (z) = 0.60375 0.24007
#
# Static dielectric constant tensor:
#      x y z
#    x 2.054740 0.000000 -0.034340 
#    y 0.000000 2.101700 0.000000 
#    z -0.034340 0.000000 2.098460 
# 
# From -- ./inp_files/103477.got.cif
#   From: 2010.05.17/outbox.cif.g08.bks.cpg/sg15_52_cif.got.tgz:103477.got - 2010.06.03 18:47:42.
