data_PCOD9283318
_publ_section_title
;
Structure prediction by ZEFSAII (Michael W. Deem and Ramdas Pophale) SiO2 
 PCOD9283318
Probable space group: C 2/C
;
_chemical_formula_sum "Si O2"
_cell_formula_units_Z 60
_cell_length_a 12.106631
_cell_length_b 14.877358
_cell_length_c 14.273394
_cell_angle_alpha 90.000000
_cell_angle_beta 92.659869
_cell_angle_gamma 90.000000
_cell_volume 2568.078074
_symmetry_space_group_name_H-M "C 2/C"
_symmetry_group_IT_number 15
_symmetry_cell_setting 'monoclinic'
loop_
_space_group_symop_operation_xyz
x,y,z
-x,y,1/2-z
-x,-y,-z
x,-y,1/2+z
1/2+x,1/2+y,z
1/2-x,1/2+y,1/2-z
1/2-x,1/2-y,-z
1/2+x,1/2-y,1/2+z
loop_
_atom_site_type_symbol
_atom_site_label
_atom_site_fract_x
_atom_site_fract_y
_atom_site_fract_z
Si Si1 0.752694 0.508549 0.290130
Si Si2 0.408317 0.148629 0.601951
Si Si3 0.430522 0.249640 0.414864
Si Si4 0.781210 0.903399 0.020725
Si Si5 0.211989 0.795186 0.793347
Si Si6 0.843985 0.717396 0.111069
Si Si7 0.500000 0.987508 0.250000
Si Si8 0.827549 0.934742 0.406183
O O1 0.753056 0.451723 0.384885
O O2 0.684709 0.600251 0.299734
O O3 0.694972 0.453412 0.204295
O O4 0.879383 0.531940 0.263364
O O5 0.453030 0.200639 0.514006
O O6 0.378312 0.224178 0.677928
O O7 0.480736 0.074682 0.657305
O O8 0.292712 0.102247 0.565557
O O9 0.313968 0.219524 0.368247
O O10 0.530036 0.219892 0.352745
O O11 0.415986 0.356647 0.424053
O O12 0.834983 0.807919 0.048688
O O13 0.681983 0.871622 0.949203
O O14 0.850875 0.974176 0.962747
O O15 0.256655 0.776359 0.691230
#
# Coordination Sequence:
#
# PCOD9283318 Si02
#       8
#     8   8   8   8   8   8   4   8
#     4  11  22  38  61  89 122 161 201 259 315 365
#     4  10  21  40  61  88 120 165 204 248 313 380
#     4  11  22  37  63  90 120 160 209 256 306 372
#     4  11  22  41  62  86 126 167 202 255 321 377
#     4  11  22  40  62  89 126 165 204 252 318 379
#     4  11  24  38  62  93 123 162 210 261 315 366
#     4  10  22  36  60  90 122 150 214 262 300 364
#     4  10  21  40  59  87 120 160 206 246 308 381
#
# _framework density 23.363776000000001
#
# number of rings (size 3 to 8) (size 9 to 14) (size 15 to 20)
#    0.000    1.333    1.333    6.800    1.867    1.600 
#    0.000    3.333    0.000    0.000    0.000    0.000 
#    0.000    0.000    0.000    0.000    0.000    0.000 
#
# Total GULP energy -167788.757101 kJ/mol
# GULP energy per Si atom -5592.958570 kJ/mol
# Density = 2.331060 g / cm^3
# Si number density = 23.363776 Si / 1000 Ang^3
#
#
#
# Elastic Constant Matrix: (Units=GPa)
#
#
# Indices 1 2 3 4 5 6 
#
# 1 20.2704 -11.7539 2.3110 0.0000 0.2040 0.0000
# 2 -11.7539 93.8289 27.2375 0.0000 -8.4433 0.0000
# 3 2.3110 27.2375 117.1350 0.0000 -11.4256 0.0000
# 4 0.0000 0.0000 0.0000 34.6923 0.0000 1.3102
# 5 0.2040 -8.4433 -11.4256 0.0000 14.7799 0.0000
# 6 0.0000 0.0000 0.0000 1.3102 0.0000 17.7079
#
#
#
# Elastic Compliance Matrix: (Units=1/GPa)
#
#
# Indices 1 2 3 4 5 6 
#
# 1 0.054092 0.007702 -0.002706 0.000000 0.001562 0.000000
# 2 0.007702 0.012855 -0.002634 0.000000 0.005201 0.000000
# 3 -0.002706 -0.002634 0.009799 0.000000 0.006108 0.000000
# 4 0.000000 0.000000 0.000000 0.028906 0.000000 -0.002139
# 5 0.001562 0.005201 0.006108 0.000000 0.075331 0.000000
# 6 0.000000 0.000000 0.000000 -0.002139 0.000000 0.056630
#
#
# Mechanical properties :
#
#
# Convention : Reuss Voigt Hill
#
# Bulk Modulus (GPa) = 12.27437 29.64704 20.96071
# Shear Modulus (GPa) = 19.22749 27.66533 23.44641
#
# Velocity S-wave (km/s) = 2.87184 3.44483 3.17130
# Velocity P-wave (km/s) = 4.03257 5.34222 4.73291
#
# Compressibility (1/GPa) = 0.08147056
#
# Stress axis : x y z
#
# Youngs Moduli (GPa) = 18.48709 77.78983 102.05392
#
# Poissons Ratio (x) = -0.59914 0.27614
# Poissons Ratio (y) = -0.14239 0.26879
# Poissons Ratio (z) = 0.05002 0.20488
#
# Static dielectric constant tensor:
#      x y z
#    x 1.880360 0.000000 0.008480 
#    y 0.000000 1.880250 0.000000 
#    z 0.008480 0.000000 1.866310 
# 
# From -- ./inp_files/153983.got.cif
#   From: 2010.05.17/outbox.cif.g08.bks.cpg/sg15_77_cif.got.tgz:153983.got - 2010.06.03 18:47:42.
