data_PCOD9283495
_publ_section_title
;
Structure prediction by ZEFSAII (Michael W. Deem and Ramdas Pophale) SiO2 
 PCOD9283495
Probable space group: C 2/C
;
_chemical_formula_sum "Si O2"
_cell_formula_units_Z 40
_cell_length_a 18.262402
_cell_length_b 7.500070
_cell_length_c 16.932373
_cell_angle_alpha 90.000000
_cell_angle_beta 44.490301
_cell_angle_gamma 90.000000
_cell_volume 1625.279353
_symmetry_space_group_name_H-M "C 2/C"
_symmetry_group_IT_number 15
_symmetry_cell_setting 'monoclinic'
loop_
_space_group_symop_operation_xyz
x,y,z
-x,y,1/2-z
-x,-y,-z
x,-y,1/2+z
1/2+x,1/2+y,z
1/2-x,1/2+y,1/2-z
1/2-x,1/2-y,-z
1/2+x,1/2-y,1/2+z
loop_
_atom_site_type_symbol
_atom_site_label
_atom_site_fract_x
_atom_site_fract_y
_atom_site_fract_z
Si Si1 0.751617 0.573305 0.720408
Si Si2 0.549049 0.767968 0.513087
Si Si3 0.036487 0.991840 0.309858
Si Si4 0.476984 0.885070 0.356283
Si Si5 0.658113 0.276580 0.426711
O O1 0.845823 0.692228 0.614806
O O2 0.642354 0.601527 0.758011
O O3 0.727446 0.570438 0.832974
O O4 0.788259 0.382302 0.662894
O O5 0.553080 0.596284 0.566613
O O6 0.458087 0.722303 0.521424
O O7 0.517760 0.945053 0.588599
O O8 0.000000 0.952532 0.250000
O O9 0.048686 0.206217 0.305360
O O10 0.500000 0.951268 0.250000
O O11 0.364895 0.791117 0.466709
#
# Coordination Sequence:
#
# PCOD9283495 Si02
#       5
#     8   8   8   8   8
#     4  10  22  37  64  93 119 163 206 257 305 364
#     4  10  22  42  63  89 127 162 209 257 300 363
#     4  10  23  40  61  91 127 164 205 251 307 370
#     4  10  21  40  62  87 126 166 195 255 307 360
#     4  10  23  38  65  94 120 165 204 260 304 363
#
# _framework density 24.611153999999999
#
# number of rings (size 3 to 8) (size 9 to 14) (size 15 to 20)
#    0.000    2.000    0.000    3.000    8.400    2.400 
#    0.000   18.000    0.000    0.000    0.000    0.000 
#    0.000    0.000    0.000    0.000    0.000    0.000 
#
# Total GULP energy -111468.598046 kJ/mol
# GULP energy per Si atom -5573.429902 kJ/mol
# Density = 2.455514 g / cm^3
# Si number density = 24.611154 Si / 1000 Ang^3
#
#
#
# Elastic Constant Matrix: (Units=GPa)
#
#
# Indices 1 2 3 4 5 6 
#
# 1 53.2542 -0.8858 45.5103 0.0000 6.6096 0.0000
# 2 -0.8858 92.9171 16.7997 0.0002 3.0916 -0.0002
# 3 45.5103 16.7997 198.4288 0.0001 16.3227 -0.0001
# 4 0.0000 0.0002 0.0001 54.7265 0.0000 0.5203
# 5 6.6096 3.0916 16.3227 0.0000 41.0146 0.0000
# 6 0.0000 -0.0002 -0.0001 0.5203 0.0000 32.7590
#
#
#
# Elastic Compliance Matrix: (Units=1/GPa)
#
#
# Indices 1 2 3 4 5 6 
#
# 1 0.023612 0.001256 -0.005377 0.000000 -0.001760 0.000000
# 2 0.001256 0.011005 -0.001173 0.000000 -0.000565 0.000000
# 3 -0.005377 -0.001173 0.006507 0.000000 -0.001634 0.000000
# 4 0.000000 0.000000 0.000000 0.018275 0.000000 -0.000290
# 5 -0.001760 -0.000565 -0.001634 0.000000 0.025358 0.000000
# 6 0.000000 0.000000 0.000000 -0.000290 0.000000 0.030531
#
#
# Mechanical properties :
#
#
# Convention : Reuss Voigt Hill
#
# Bulk Modulus (GPa) = 32.74918 51.93869 42.34394
# Shear Modulus (GPa) = 36.74956 44.57841 40.66398
#
# Velocity S-wave (km/s) = 3.86840 4.26056 4.06921
# Velocity P-wave (km/s) = 5.76959 6.73445 6.27060
#
# Compressibility (1/GPa) = 0.03053512
#
# Stress axis : x y z
#
# Youngs Moduli (GPa) = 42.35058 90.86622 153.68898
#
# Poissons Ratio (x) = -0.11412 0.82641
# Poissons Ratio (y) = -0.05319 0.18032
# Poissons Ratio (z) = 0.22773 0.10661
#
# Static dielectric constant tensor:
#      x y z
#    x 1.967560 0.000000 0.045180 
#    y 0.000000 2.216540 0.000000 
#    z 0.045180 0.000000 2.076760 
# 
# From -- ./inp_files/109792.got.cif
#   From: 2010.05.17/outbox.cif.g08.bks.cpg/sg15_55_cif.got.tgz:109792.got - 2010.06.03 18:47:42.
