data_PCOD9283573
_publ_section_title
;
Structure prediction by ZEFSAII (Michael W. Deem and Ramdas Pophale) SiO2 
 PCOD9283573
Probable space group: C 2/C
;
_chemical_formula_sum "Si O2"
_cell_formula_units_Z 52
_cell_length_a 21.743788
_cell_length_b 11.471288
_cell_length_c 11.549469
_cell_angle_alpha 90.000000
_cell_angle_beta 55.160770
_cell_angle_gamma 90.000000
_cell_volume 2364.420219
_symmetry_space_group_name_H-M "C 2/C"
_symmetry_group_IT_number 15
_symmetry_cell_setting 'monoclinic'
loop_
_space_group_symop_operation_xyz
x,y,z
-x,y,1/2-z
-x,-y,-z
x,-y,1/2+z
1/2+x,1/2+y,z
1/2-x,1/2+y,1/2-z
1/2-x,1/2-y,-z
1/2+x,1/2-y,1/2+z
loop_
_atom_site_type_symbol
_atom_site_label
_atom_site_fract_x
_atom_site_fract_y
_atom_site_fract_z
Si Si1 0.274443 0.926281 0.306452
Si Si2 0.000000 0.618560 0.750000
Si Si3 0.575013 0.032744 0.350153
Si Si4 0.132263 0.058290 0.791131
Si Si5 0.795270 0.141700 0.002106
Si Si6 0.531476 0.743256 0.993593
Si Si7 0.641281 0.705123 0.316617
O O1 0.207393 0.917042 0.286196
O O2 0.305563 0.798115 0.304904
O O3 0.349249 0.986304 0.174095
O O4 0.249267 0.019252 0.431227
O O5 0.060728 0.533355 0.744912
O O6 0.040157 0.701530 0.612471
O O7 0.574110 0.171698 0.357920
O O8 0.500000 0.000000 0.500000
O O9 0.139177 0.115246 0.658289
O O10 0.064965 0.115844 0.936317
O O11 0.129449 0.920531 0.773071
O O12 0.750000 0.250000 0.000000
O O13 0.822238 0.179075 0.099045
O O14 0.442457 0.751299 0.072544
#
# Coordination Sequence:
#
# PCOD9283573 Si02
#       7
#     8   4   8   8   8   8   8
#     4  11  23  44  66 101 139 175 236 298 338 418
#     4  10  22  40  68 100 134 178 236 290 350 406
#     4  10  21  40  63 100 134 177 228 292 345 409
#     4  11  26  44  69  99 143 186 227 290 354 422
#     4  11  24  43  70 101 140 188 228 283 364 415
#     4  11  24  45  68 100 143 180 237 294 344 421
#     4  11  24  46  67 103 138 183 240 286 344 426
#
# _framework density 21.992706999999999
#
# number of rings (size 3 to 8) (size 9 to 14) (size 15 to 20)
#    0.000    1.231    4.615    1.385    2.154    8.615 
#    0.000    0.000    0.000    0.000    0.000    0.000 
#    0.000    0.000    0.000    0.000    0.000    0.000 
#
# Total GULP energy -145064.130073 kJ/mol
# GULP energy per Si atom -5579.389618 kJ/mol
# Density = 2.194265 g / cm^3
# Si number density = 21.992707 Si / 1000 Ang^3
#
#
#
# Elastic Constant Matrix: (Units=GPa)
#
#
# Indices 1 2 3 4 5 6 
#
# 1 43.6923 14.2669 9.1001 0.0000 -11.9301 0.0000
# 2 14.2669 147.4181 43.1216 0.0000 6.3764 0.0000
# 3 9.1001 43.1216 78.5168 0.0000 2.6017 0.0000
# 4 0.0000 0.0000 0.0000 53.9241 0.0000 -6.2760
# 5 -11.9301 6.3764 2.6017 0.0000 29.4035 0.0000
# 6 0.0000 0.0000 0.0000 -6.2760 0.0000 27.4208
#
#
#
# Elastic Compliance Matrix: (Units=1/GPa)
#
#
# Indices 1 2 3 4 5 6 
#
# 1 0.027405 -0.002527 -0.002181 0.000000 0.011860 0.000000
# 2 -0.002527 0.008370 -0.004222 0.000000 -0.002467 0.000000
# 3 -0.002181 -0.004222 0.015352 0.000000 -0.001328 0.000000
# 4 0.000000 0.000000 0.000000 0.019052 0.000000 0.004361
# 5 0.011860 -0.002467 -0.001328 0.000000 0.039474 0.000000
# 6 0.000000 0.000000 0.000000 0.004361 0.000000 0.037467
#
#
# Mechanical properties :
#
#
# Convention : Reuss Voigt Hill
#
# Bulk Modulus (GPa) = 30.06109 44.73381 37.39745
# Shear Modulus (GPa) = 28.39795 35.69227 32.04511
#
# Velocity S-wave (km/s) = 3.59729 4.03291 3.82131
# Velocity P-wave (km/s) = 5.56348 6.48616 6.04246
#
# Compressibility (1/GPa) = 0.03326560
#
# Stress axis : x y z
#
# Youngs Moduli (GPa) = 36.48937 119.47868 65.13942
#
# Poissons Ratio (x) = 0.30194 0.14209
# Poissons Ratio (y) = 0.09221 0.27502
# Poissons Ratio (z) = 0.07960 0.50444
#
# Static dielectric constant tensor:
#      x y z
#    x 1.806300 0.000000 0.011390 
#    y 0.000000 1.936640 0.000000 
#    z 0.011390 0.000000 1.806950 
# 
# From -- ./inp_files/117930.got.cif
#   From: 2010.05.17/outbox.cif.g08.bks.cpg/sg15_59_cif.got.tgz:117930.got - 2010.06.03 18:47:42.
