data_PCOD9283963
_publ_section_title
;
Structure prediction by ZEFSAII (Michael W. Deem and Ramdas Pophale) SiO2 
 PCOD9283963
Probable space group: C 2/C
;
_chemical_formula_sum "Si O2"
_cell_formula_units_Z 48
_cell_length_a 33.631152
_cell_length_b 5.609332
_cell_length_c 21.472415
_cell_angle_alpha 90.000000
_cell_angle_beta 149.282020
_cell_angle_gamma 90.000000
_cell_volume 2069.166733
_symmetry_space_group_name_H-M "C 2/C"
_symmetry_group_IT_number 15
_symmetry_cell_setting 'monoclinic'
loop_
_space_group_symop_operation_xyz
x,y,z
-x,y,1/2-z
-x,-y,-z
x,-y,1/2+z
1/2+x,1/2+y,z
1/2-x,1/2+y,1/2-z
1/2-x,1/2-y,-z
1/2+x,1/2-y,1/2+z
loop_
_atom_site_type_symbol
_atom_site_label
_atom_site_fract_x
_atom_site_fract_y
_atom_site_fract_z
Si Si1 0.150004 0.355242 0.078208
Si Si2 0.591578 0.566981 0.889804
Si Si3 0.071557 0.719433 0.060662
Si Si4 0.295321 0.404250 0.731897
Si Si5 0.586739 0.160658 0.689748
Si Si6 0.913673 0.566046 0.665274
O O1 0.089579 0.537848 0.027658
O O2 0.211297 0.481814 0.115495
O O3 0.202120 0.278448 0.207203
O O4 0.108923 0.143684 0.984488
O O5 0.500000 0.549397 0.750000
O O6 0.623253 0.307400 0.913835
O O7 0.620402 0.800717 0.891093
O O8 0.140942 0.902719 0.160952
O O9 0.073602 0.568361 0.127537
O O10 0.986822 0.822622 0.930240
O O11 0.332215 0.278446 0.721674
O O12 0.582437 0.109135 0.756147
O O13 0.000000 0.550206 0.750000
#
# Coordination Sequence:
#
# PCOD9283963 Si02
#       6
#     8   8   8   8   8   8
#     4  11  23  40  66  98 133 176 230 272 348 413
#     4  10  23  39  66  96 128 179 230 281 322 400
#     4  10  21  40  65  96 132 169 222 286 344 397
#     4  11  23  39  65  98 132 176 212 294 343 402
#     4  10  23  39  65  98 132 171 226 285 338 401
#     4  10  22  41  64  96 128 179 227 281 332 396
#
# _framework density 23.197744
#
# number of rings (size 3 to 8) (size 9 to 14) (size 15 to 20)
#    0.000    1.667    1.667    2.500    9.333    0.000 
#    0.000    1.667    0.000    0.000    0.000    0.000 
#    0.000    0.000    0.000    0.000    0.000    0.000 
#
# Total GULP energy -134043.395157 kJ/mol
# GULP energy per Si atom -5585.141465 kJ/mol
# Density = 2.314494 g / cm^3
# Si number density = 23.197744 Si / 1000 Ang^3
#
#
#
# Elastic Constant Matrix: (Units=GPa)
#
#
# Indices 1 2 3 4 5 6 
#
# 1 135.8797 23.7337 33.4101 -0.0003 -5.7001 -0.0004
# 2 23.7337 105.8337 7.4024 -0.0013 -0.6954 -0.0013
# 3 33.4101 7.4024 50.7446 -0.0003 -0.1124 -0.0002
# 4 -0.0003 -0.0013 -0.0003 35.8108 -0.0003 0.4610
# 5 -5.7001 -0.6954 -0.1124 -0.0003 28.0638 -0.0001
# 6 -0.0004 -0.0013 -0.0002 0.4610 -0.0001 25.1686
#
#
#
# Elastic Compliance Matrix: (Units=1/GPa)
#
#
# Indices 1 2 3 4 5 6 
#
# 1 0.009140 -0.001634 -0.005776 0.000000 0.001793 0.000000
# 2 -0.001634 0.009840 -0.000360 0.000000 -0.000090 0.000000
# 3 -0.005776 -0.000360 0.023559 0.000000 -0.001088 0.000000
# 4 0.000000 0.000000 0.000000 0.027931 0.000000 -0.000512
# 5 0.001793 -0.000090 -0.001088 0.000000 0.035991 0.000000
# 6 0.000000 0.000000 0.000000 -0.000512 0.000000 0.039741
#
#
# Mechanical properties :
#
#
# Convention : Reuss Voigt Hill
#
# Bulk Modulus (GPa) = 37.03628 46.83895 41.93761
# Shear Modulus (GPa) = 29.28412 33.00276 31.14344
#
# Velocity S-wave (km/s) = 3.55684 3.77592 3.66802
# Velocity P-wave (km/s) = 5.73308 6.26459 6.00472
#
# Compressibility (1/GPa) = 0.02700055
#
# Stress axis : x y z
#
# Youngs Moduli (GPa) = 109.40744 101.62821 42.44634
#
# Poissons Ratio (x) = 0.16606 0.24515
# Poissons Ratio (y) = 0.17877 0.01527
# Poissons Ratio (z) = 0.63188 0.03656
#
# Static dielectric constant tensor:
#      x y z
#    x 1.879330 0.000000 0.011590 
#    y 0.000000 1.953170 0.000000 
#    z 0.011590 0.000000 1.860900 
# 
# From -- ./inp_files/253970.got.cif
#   From: 2010.05.17/outbox.cif.g08.bks.cpg/sg15_127_cif.got.tgz:253970.got - 2010.06.03 18:47:42.
