data_PCOD9283027
_publ_section_title
;
Structure prediction by ZEFSAII (Michael W. Deem and Ramdas Pophale) SiO2 
 PCOD9283027
Probable space group: C 2/C
;
_chemical_formula_sum "Si O2"
_cell_formula_units_Z 36
_cell_length_a 23.985278
_cell_length_b 4.894204
_cell_length_c 13.907016
_cell_angle_alpha 90.000000
_cell_angle_beta 111.149008
_cell_angle_gamma 90.000000
_cell_volume 1522.570007
_symmetry_space_group_name_H-M "C 2/C"
_symmetry_group_IT_number 15
_symmetry_cell_setting 'monoclinic'
loop_
_space_group_symop_operation_xyz
x,y,z
-x,y,1/2-z
-x,-y,-z
x,-y,1/2+z
1/2+x,1/2+y,z
1/2-x,1/2+y,1/2-z
1/2-x,1/2-y,-z
1/2+x,1/2-y,1/2+z
loop_
_atom_site_type_symbol
_atom_site_label
_atom_site_fract_x
_atom_site_fract_y
_atom_site_fract_z
Si Si1 0.000000 0.881103 0.250000
Si Si2 0.353406 0.570787 0.967744
Si Si3 0.738498 0.730870 0.309976
Si Si4 0.881798 0.063527 0.762210
Si Si5 0.600601 0.069547 0.394230
O O1 0.053092 0.043327 0.230588
O O2 0.033109 0.686254 0.348006
O O3 0.284503 0.662864 0.918077
O O4 0.376971 0.590288 0.873159
O O5 0.361747 0.267898 0.012458
O O6 0.390725 0.771731 0.059003
O O7 0.768166 0.478767 0.269742
O O8 0.675589 0.611697 0.304178
O O9 0.878434 0.347151 0.700351
#
# Coordination Sequence:
#
# PCOD9283027 Si02
#       5
#     4   8   8   8   8
#     4   8  22  48  56 100 124 174 204 268 310 366
#     4  11  22  40  68  93 124 171 208 256 324 370
#     4  10  21  39  66  95 126 166 208 260 320 368
#     4   9  22  44  63  94 136 160 209 272 299 384
#     4  10  24  41  63  98 123 168 215 252 320 376
#
# _framework density 23.644233
#
# number of rings (size 3 to 8) (size 9 to 14) (size 15 to 20)
#    1.333    0.889    0.000    2.667    0.000    9.778 
#    0.000    0.000    0.000    0.000    0.000    0.000 
#    0.000    0.000    0.000    0.000    0.000    0.000 
#
# Total GULP energy -100550.070397 kJ/mol
# GULP energy per Si atom -5586.115022 kJ/mol
# Density = 2.359042 g / cm^3
# Si number density = 23.644233 Si / 1000 Ang^3
#
#
#
# Elastic Constant Matrix: (Units=GPa)
#
#
# Indices 1 2 3 4 5 6 
#
# 1 156.7041 2.6986 28.5032 0.0000 7.2297 0.0000
# 2 2.6986 61.0017 -2.2257 0.0000 -0.3955 0.0000
# 3 28.5032 -2.2257 91.4698 0.0000 -5.1776 0.0000
# 4 0.0000 0.0000 0.0000 40.0182 0.0000 -5.6800
# 5 7.2297 -0.3955 -5.1776 0.0000 51.8287 0.0000
# 6 0.0000 0.0000 0.0000 -5.6800 0.0000 4.2729
#
#
#
# Elastic Compliance Matrix: (Units=1/GPa)
#
#
# Indices 1 2 3 4 5 6 
#
# 1 0.006844 -0.000391 -0.002209 0.000000 -0.001178 0.000000
# 2 -0.000391 0.016431 0.000535 0.000000 0.000233 0.000000
# 3 -0.002209 0.000535 0.011718 0.000000 0.001483 0.000000
# 4 0.000000 0.000000 0.000000 0.030800 0.000000 0.040942
# 5 -0.001178 0.000233 0.001483 0.000000 0.019609 0.000000
# 6 0.000000 0.000000 0.000000 0.040942 0.000000 0.288456
#
#
# Mechanical properties :
#
#
# Convention : Reuss Voigt Hill
#
# Bulk Modulus (GPa) = 32.40102 40.79198 36.59650
# Shear Modulus (GPa) = 12.87744 37.90393 25.39068
#
# Velocity S-wave (km/s) = 2.33627 4.00821 3.28054
# Velocity P-wave (km/s) = 4.58376 6.22180 5.46451
#
# Compressibility (1/GPa) = 0.03086323
#
# Stress axis : x y z
#
# Youngs Moduli (GPa) = 146.10575 60.85942 85.33964
#
# Poissons Ratio (x) = 0.02380 0.18852
# Poissons Ratio (y) = 0.05713 -0.04565
# Poissons Ratio (z) = 0.32275 -0.03255
#
# Static dielectric constant tensor:
#      x y z
#    x 1.953090 0.000000 -0.003490 
#    y 0.000000 1.899020 0.000000 
#    z -0.003490 0.000000 1.898690 
# 
# From -- ./inp_files/170625.got.cif
#   From: 2010.05.17/outbox.cif.g08.bks.cpg/sg15_86_cif.got.tgz:170625.got - 2010.06.03 18:47:42.
