data_PCOD9283427
_publ_section_title
;
Structure prediction by ZEFSAII (Michael W. Deem and Ramdas Pophale) SiO2 
 PCOD9283427
Probable space group: C 2/C
;
_chemical_formula_sum "Si O2"
_cell_formula_units_Z 24
_cell_length_a 6.786372
_cell_length_b 19.379581
_cell_length_c 10.441713
_cell_angle_alpha 90.000000
_cell_angle_beta 131.133275
_cell_angle_gamma 90.000000
_cell_volume 1034.316458
_symmetry_space_group_name_H-M "C 2/C"
_symmetry_group_IT_number 15
_symmetry_cell_setting 'monoclinic'
loop_
_space_group_symop_operation_xyz
x,y,z
-x,y,1/2-z
-x,-y,-z
x,-y,1/2+z
1/2+x,1/2+y,z
1/2-x,1/2+y,1/2-z
1/2-x,1/2-y,-z
1/2+x,1/2-y,1/2+z
loop_
_atom_site_type_symbol
_atom_site_label
_atom_site_fract_x
_atom_site_fract_y
_atom_site_fract_z
Si Si1 0.000000 0.576565 0.250000
Si Si2 0.538460 0.345503 0.952068
Si Si3 0.325767 0.489226 0.556181
Si Si4 0.500000 0.780823 0.250000
O O1 0.253155 0.624722 0.354087
O O2 0.059203 0.527405 0.398513
O O3 0.688932 0.406137 0.938394
O O4 0.504318 0.272734 0.868243
O O5 0.743074 0.327967 0.150922
O O6 0.500000 0.515455 0.750000
O O7 0.500000 0.500000 0.500000
#
# Coordination Sequence:
#
# PCOD9283427 Si02
#       4
#     4   8   8   4
#     4  10  23  40  64  98 125 160 214 270 320 370
#     4  10  21  40  61  91 123 166 211 259 315 378
#     4  10  21  40  63  96 128 163 206 267 323 373
#     4  10  21  40  62  84 127 172 210 254 314 382
#
# _framework density 23.203731000000001
#
# number of rings (size 3 to 8) (size 9 to 14) (size 15 to 20)
#    0.000    2.000    1.667    1.000    0.000    6.667 
#   24.000    0.000    0.000    0.000    0.000    0.000 
#    0.000    0.000    0.000    0.000    0.000    0.000 
#
# Total GULP energy -66849.067840 kJ/mol
# GULP energy per Si atom -5570.755653 kJ/mol
# Density = 2.315092 g / cm^3
# Si number density = 23.203731 Si / 1000 Ang^3
#
#
#
# Elastic Constant Matrix: (Units=GPa)
#
#
# Indices 1 2 3 4 5 6 
#
# 1 53.1127 35.0311 52.4856 0.0000 31.9444 0.0000
# 2 35.0311 110.8221 84.0068 0.0000 37.1430 0.0000
# 3 52.4856 84.0068 210.6216 0.0000 29.3546 0.0000
# 4 0.0000 0.0000 0.0000 63.6716 0.0000 17.5405
# 5 31.9444 37.1430 29.3546 0.0000 55.7256 0.0000
# 6 0.0000 0.0000 0.0000 17.5405 0.0000 36.7460
#
#
#
# Elastic Compliance Matrix: (Units=1/GPa)
#
#
# Indices 1 2 3 4 5 6 
#
# 1 0.035428 -0.001074 -0.006119 0.000000 -0.016370 0.000000
# 2 -0.001074 0.015468 -0.004911 0.000000 -0.007107 0.000000
# 3 -0.006119 -0.004911 0.007864 0.000000 0.002639 0.000000
# 4 0.000000 0.000000 0.000000 0.018084 0.000000 -0.008632
# 5 -0.016370 -0.007107 0.002639 0.000000 0.030676 0.000000
# 6 0.000000 0.000000 0.000000 -0.008632 0.000000 0.031334
#
#
# Mechanical properties :
#
#
# Convention : Reuss Voigt Hill
#
# Bulk Modulus (GPa) = 28.94208 79.73371 54.33790
# Shear Modulus (GPa) = 28.64026 44.76418 36.70222
#
# Velocity S-wave (km/s) = 3.51707 4.39701 3.98142
# Velocity P-wave (km/s) = 5.38452 7.75985 6.67864
#
# Compressibility (1/GPa) = 0.03455176
#
# Stress axis : x y z
#
# Youngs Moduli (GPa) = 28.22588 64.65032 127.16777
#
# Poissons Ratio (x) = 0.06946 0.77808
# Poissons Ratio (y) = 0.03033 0.62454
# Poissons Ratio (z) = 0.17270 0.31751
#
# Static dielectric constant tensor:
#      x y z
#    x 2.095500 0.000000 0.001320 
#    y 0.000000 1.892330 0.000000 
#    z 0.001320 0.000000 1.992500 
# 
# From -- ./inp_files/21271.got.cif
#   From: 2010.05.17/outbox.cif.g08.bks.cpg/sg15_11_cif.got.tgz:21271.got - 2010.06.03 18:47:42.
