data_PCOD9283922
_publ_section_title
;
Structure prediction by ZEFSAII (Michael W. Deem and Ramdas Pophale) SiO2 
 PCOD9283922
Probable space group: C 2/C
;
_chemical_formula_sum "Si O2"
_cell_formula_units_Z 64
_cell_length_a 13.506362
_cell_length_b 15.995759
_cell_length_c 21.740235
_cell_angle_alpha 90.000000
_cell_angle_beta 144.564537
_cell_angle_gamma 90.000000
_cell_volume 2723.170808
_symmetry_space_group_name_H-M "C 2/C"
_symmetry_group_IT_number 15
_symmetry_cell_setting 'monoclinic'
loop_
_space_group_symop_operation_xyz
x,y,z
-x,y,1/2-z
-x,-y,-z
x,-y,1/2+z
1/2+x,1/2+y,z
1/2-x,1/2+y,1/2-z
1/2-x,1/2-y,-z
1/2+x,1/2-y,1/2+z
loop_
_atom_site_type_symbol
_atom_site_label
_atom_site_fract_x
_atom_site_fract_y
_atom_site_fract_z
Si Si1 0.229630 0.029573 0.900911
Si Si2 0.711190 0.271998 0.107426
Si Si3 0.359578 0.831975 0.723204
Si Si4 0.899633 0.683351 0.917594
Si Si5 0.957284 0.083552 0.444597
Si Si6 0.482737 0.172445 0.657087
Si Si7 0.980648 0.496638 0.852048
Si Si8 0.119583 0.014164 0.222182
O O1 0.289226 0.111669 0.893950
O O2 0.188976 0.962332 0.825598
O O3 0.051730 0.037961 0.848443
O O4 0.382934 0.007273 0.023790
O O5 0.839039 0.292223 0.227079
O O6 0.840700 0.267435 0.114924
O O7 0.556993 0.208031 0.042602
O O8 0.600392 0.352137 0.034138
O O9 0.500000 0.795276 0.750000
O O10 0.231367 0.755638 0.671882
O O11 0.225344 0.891061 0.620323
O O12 0.450802 0.901028 0.813229
O O13 0.008385 0.668090 0.911293
O O14 0.938191 0.077871 0.360650
O O15 0.000000 0.000000 0.500000
O O16 0.460663 0.073154 0.662203
O O17 0.788892 0.524002 0.776320
#
# Coordination Sequence:
#
# PCOD9283922 Si02
#       8
#     8   8   8   8   8   8   8   8
#     4  11  24  41  69  98 135 181 223 271 350 401
#     4  10  23  42  65  98 128 179 222 275 344 401
#     4  10  25  41  64  97 133 172 218 275 337 403
#     4  11  25  44  64  95 143 180 221 271 340 420
#     4  10  21  40  65  93 130 161 218 278 339 384
#     4  11  23  41  73  94 133 172 232 285 333 401
#     4  11  23  43  70 101 133 172 232 288 332 400
#     4  10  22  40  62  97 134 170 220 281 329 401
#
# _framework density 23.502013999999999
#
# number of rings (size 3 to 8) (size 9 to 14) (size 15 to 20)
#    0.000    1.500    1.250    3.000    8.750    0.000 
#    0.000    0.625    0.000    0.000    0.000    0.000 
#    0.000    0.000    0.000    0.000    0.000    0.000 
#
# Total GULP energy -178158.172861 kJ/mol
# GULP energy per Si atom -5567.442902 kJ/mol
# Density = 2.344852 g / cm^3
# Si number density = 23.502014 Si / 1000 Ang^3
#
#
#
# Elastic Constant Matrix: (Units=GPa)
#
#
# Indices 1 2 3 4 5 6 
#
# 1 71.0151 30.5300 37.0964 0.0001 22.0373 0.0000
# 2 30.5300 51.7751 21.6859 0.0000 8.6855 0.0000
# 3 37.0964 21.6859 120.3859 -0.0001 25.0719 0.0000
# 4 0.0001 0.0000 -0.0001 11.2612 0.0000 2.8887
# 5 22.0373 8.6855 25.0719 0.0000 30.0915 0.0000
# 6 0.0000 0.0000 0.0000 2.8887 0.0000 27.4708
#
#
#
# Elastic Compliance Matrix: (Units=1/GPa)
#
#
# Indices 1 2 3 4 5 6 
#
# 1 0.024041 -0.010932 -0.002939 0.000000 -0.012002 0.000000
# 2 -0.010932 0.026171 -0.001742 0.000000 0.001903 0.000000
# 3 -0.002939 -0.001742 0.010857 0.000000 -0.006391 0.000000
# 4 0.000000 0.000000 0.000000 0.091262 0.000000 -0.009597
# 5 -0.012002 0.001903 -0.006391 0.000000 0.046797 0.000000
# 6 0.000000 0.000000 0.000000 -0.009597 0.000000 0.037411
#
#
# Mechanical properties :
#
#
# Convention : Reuss Voigt Hill
#
# Bulk Modulus (GPa) = 33.50934 46.86674 40.18804
# Shear Modulus (GPa) = 18.00423 24.02231 21.01327
#
# Velocity S-wave (km/s) = 2.77080 3.20056 2.99340
# Velocity P-wave (km/s) = 4.95232 5.80026 5.39298
#
# Compressibility (1/GPa) = 0.02984243
#
# Stress axis : x y z
#
# Youngs Moduli (GPa) = 41.59561 38.21067 92.10552
#
# Poissons Ratio (x) = 0.41770 0.27073
# Poissons Ratio (y) = 0.45471 0.16046
# Poissons Ratio (z) = 0.12227 0.06657
#
# Static dielectric constant tensor:
#      x y z
#    x 1.969970 0.000000 0.019290 
#    y 0.000000 1.981080 0.000000 
#    z 0.019290 0.000000 1.886860 
# 
# From -- ./inp_files/274854.got.cif
#   From: 2010.05.17/outbox.cif.g08.bks.cpg/sg15_138_cif.got.tgz:274854.got - 2010.06.03 18:47:42.
