data_PCOD9283772
_publ_section_title
;
Structure prediction by ZEFSAII (Michael W. Deem and Ramdas Pophale) SiO2 
 PCOD9283772
Probable space group: C 2/C
;
_chemical_formula_sum "Si O2"
_cell_formula_units_Z 64
_cell_length_a 31.215137
_cell_length_b 14.835373
_cell_length_c 8.006098
_cell_angle_alpha 90.000000
_cell_angle_beta 59.136329
_cell_angle_gamma 90.000000
_cell_volume 3182.507558
_symmetry_space_group_name_H-M "C 2/C"
_symmetry_group_IT_number 15
_symmetry_cell_setting 'monoclinic'
loop_
_space_group_symop_operation_xyz
x,y,z
-x,y,1/2-z
-x,-y,-z
x,-y,1/2+z
1/2+x,1/2+y,z
1/2-x,1/2+y,1/2-z
1/2-x,1/2-y,-z
1/2+x,1/2-y,1/2+z
loop_
_atom_site_type_symbol
_atom_site_label
_atom_site_fract_x
_atom_site_fract_y
_atom_site_fract_z
Si Si1 0.222442 0.662132 0.975867
Si Si2 0.313177 0.383366 0.092400
Si Si3 0.802536 0.087602 0.230934
Si Si4 0.054433 0.282063 0.711964
Si Si5 0.120609 0.570576 0.908151
Si Si6 0.196040 0.475095 0.006027
Si Si7 0.855360 0.200638 0.835686
Si Si8 0.534016 0.929000 0.029905
O O1 0.255817 0.648161 0.742488
O O2 0.166200 0.698479 0.097496
O O3 0.250000 0.750000 0.000000
O O4 0.221657 0.560758 0.054427
O O5 0.316394 0.485251 0.155161
O O6 0.346219 0.328582 0.162322
O O7 0.322609 0.383051 0.874766
O O8 0.823306 0.144791 0.035138
O O9 0.742375 0.087284 0.366684
O O10 0.087137 0.342887 0.518067
O O11 0.088198 0.200943 0.712150
O O12 0.000000 0.259387 0.750000
O O13 0.047119 0.348583 0.882415
O O14 0.151928 0.581847 0.676940
O O15 0.165681 0.535609 0.934583
O O16 0.082629 0.486250 0.980620
O O17 0.500000 0.897396 0.250000
O O18 0.500000 0.000000 0.000000
#
# Coordination Sequence:
#
# PCOD9283772 Si02
#       8
#     8   8   8   8   8   8   8   8
#     4   9  19  34  54  83 130 167 204 259 318 374
#     4  10  21  40  64  92 125 172 219 259 331 396
#     4  11  22  40  67  94 128 177 220 267 320 405
#     4  12  25  44  64  91 130 169 217 282 334 374
#     4  12  20  35  57  89 128 170 216 252 311 385
#     4  11  22  34  57  90 127 171 222 250 306 399
#     4  11  23  43  64  91 135 172 216 283 333 384
#     4  12  20  38  63  88 126 179 222 268 314 390
#
# _framework density 20.109929000000001
#
# number of rings (size 3 to 8) (size 9 to 14) (size 15 to 20)
#    0.000    1.000    6.250    1.500    3.500    0.500 
#    2.250    0.000    0.000    0.750    0.000    0.000 
#    0.000    0.000    0.000    0.000    0.000    0.000 
#
# Total GULP energy -178266.486139 kJ/mol
# GULP energy per Si atom -5570.827692 kJ/mol
# Density = 2.006416 g / cm^3
# Si number density = 20.109929 Si / 1000 Ang^3
#
#
#
# Elastic Constant Matrix: (Units=GPa)
#
#
# Indices 1 2 3 4 5 6 
#
# 1 130.1744 15.0843 11.2749 0.0000 -7.3684 0.0000
# 2 15.0843 30.4819 19.1900 0.0000 -2.8598 0.0000
# 3 11.2749 19.1900 21.0264 0.0000 0.4880 0.0000
# 4 0.0000 0.0000 0.0000 14.1223 0.0000 0.6727
# 5 -7.3684 -2.8598 0.4880 0.0000 35.1089 0.0000
# 6 0.0000 0.0000 0.0000 0.6727 0.0000 22.4764
#
#
#
# Elastic Compliance Matrix: (Units=1/GPa)
#
#
# Indices 1 2 3 4 5 6 
#
# 1 0.008254 -0.002658 -0.002036 0.000000 0.001544 0.000000
# 2 -0.002658 0.079865 -0.071626 0.000000 0.006943 0.000000
# 3 -0.002036 -0.071626 0.114204 0.000000 -0.007849 0.000000
# 4 0.000000 0.000000 0.000000 0.070911 0.000000 -0.002122
# 5 0.001544 0.006943 -0.007849 0.000000 0.029481 0.000000
# 6 0.000000 0.000000 0.000000 -0.002122 0.000000 0.044555
#
#
# Mechanical properties :
#
#
# Convention : Reuss Voigt Hill
#
# Bulk Modulus (GPa) = 20.12765 30.30902 25.21833
# Shear Modulus (GPa) = 9.68110 23.41710 16.54910
#
# Velocity S-wave (km/s) = 2.19648 3.41611 2.87179
# Velocity P-wave (km/s) = 4.05749 5.53752 4.85425
#
# Compressibility (1/GPa) = 0.04968290
#
# Stress axis : x y z
#
# Youngs Moduli (GPa) = 121.15738 12.52106 8.75630
#
# Poissons Ratio (x) = 0.03328 0.01783
# Poissons Ratio (y) = 0.32201 0.62718
# Poissons Ratio (z) = 0.24668 0.89683
#
# Static dielectric constant tensor:
#      x y z
#    x 1.862300 0.000000 0.057920 
#    y 0.000000 1.721840 0.000000 
#    z 0.057920 0.000000 1.870280 
# 
# From -- ./inp_files/69929.got.cif
#   From: 2010.05.17/outbox.cif.g08.bks.cpg/sg15_35_cif.got.tgz:69929.got - 2010.06.03 18:47:42.
