data_PCOD9283814
_publ_section_title
;
Structure prediction by ZEFSAII (Michael W. Deem and Ramdas Pophale) SiO2 
 PCOD9283814
Probable space group: C 2/C
;
_chemical_formula_sum "Si O2"
_cell_formula_units_Z 56
_cell_length_a 16.770778
_cell_length_b 9.461239
_cell_length_c 25.764107
_cell_angle_alpha 90.000000
_cell_angle_beta 139.521851
_cell_angle_gamma 90.000000
_cell_volume 2653.791102
_symmetry_space_group_name_H-M "C 2/C"
_symmetry_group_IT_number 15
_symmetry_cell_setting 'monoclinic'
loop_
_space_group_symop_operation_xyz
x,y,z
-x,y,1/2-z
-x,-y,-z
x,-y,1/2+z
1/2+x,1/2+y,z
1/2-x,1/2+y,1/2-z
1/2-x,1/2-y,-z
1/2+x,1/2-y,1/2+z
loop_
_atom_site_type_symbol
_atom_site_label
_atom_site_fract_x
_atom_site_fract_y
_atom_site_fract_z
Si Si1 0.687918 0.128681 0.504634
Si Si2 0.768119 0.996143 0.647318
Si Si3 0.412345 0.263142 0.773913
Si Si4 0.226987 0.051235 0.631543
Si Si5 0.840887 0.241383 0.355760
Si Si6 0.326149 0.860353 0.071627
Si Si7 0.038310 0.280465 0.536408
O O1 0.750000 0.250000 0.500000
O O2 0.568911 0.184563 0.476358
O O3 0.775729 0.066153 0.593970
O O4 0.645727 0.997178 0.448872
O O5 0.876488 0.895171 0.720088
O O6 0.646057 0.896587 0.587273
O O7 0.742108 0.121540 0.675022
O O8 0.337538 0.128361 0.715760
O O9 0.361154 0.293343 0.806104
O O10 0.553250 0.219027 0.848046
O O11 0.249199 0.081970 0.582167
O O12 0.102045 0.133778 0.583137
O O13 0.216421 0.889845 0.641816
O O14 0.971739 0.271873 0.447897
O O15 0.250000 0.750000 0.000000
#
# Coordination Sequence:
#
# PCOD9283814 Si02
#       7
#     8   8   8   8   8   8   8
#     4  11  23  41  68  98 130 169 216 274 329 385
#     4  10  21  40  64  95 130 167 213 267 323 383
#     4  11  23  40  62  90 127 169 210 264 326 384
#     4  11  24  40  61  94 127 162 210 264 316 380
#     4  11  20  37  64  94 123 164 213 260 313 382
#     4  12  24  43  67  93 124 169 218 267 325 392
#     4  10  21  41  65  92 126 166 210 260 314 384
#
# _framework density 21.101886
#
# number of rings (size 3 to 8) (size 9 to 14) (size 15 to 20)
#    0.000    1.143    0.000    9.429    0.000    2.286 
#    0.000    1.429    0.000    6.857    0.000    0.000 
#    0.000    0.000    0.000    0.000    0.000    0.000 
#
# Total GULP energy -156721.331389 kJ/mol
# GULP energy per Si atom -5597.190407 kJ/mol
# Density = 2.105386 g / cm^3
# Si number density = 21.101886 Si / 1000 Ang^3
#
#
#
# Elastic Constant Matrix: (Units=GPa)
#
#
# Indices 1 2 3 4 5 6 
#
# 1 102.0262 44.0818 55.4555 0.0000 -23.6433 0.0000
# 2 44.0818 132.4428 57.1158 0.0000 2.1529 0.0000
# 3 55.4555 57.1158 106.5767 0.0000 -0.0848 0.0000
# 4 0.0000 0.0000 0.0000 21.6634 0.0000 -16.7436
# 5 -23.6433 2.1529 -0.0848 0.0000 28.2743 0.0000
# 6 0.0000 0.0000 0.0000 -16.7436 0.0000 34.4787
#
#
#
# Elastic Compliance Matrix: (Units=1/GPa)
#
#
# Indices 1 2 3 4 5 6 
#
# 1 0.019649 -0.003131 -0.008533 0.000000 0.016644 0.000000
# 2 -0.003131 0.010335 -0.003913 0.000000 -0.003417 0.000000
# 3 -0.008533 -0.003913 0.015914 0.000000 -0.006790 0.000000
# 4 0.000000 0.000000 0.000000 0.073897 0.000000 0.035886
# 5 0.016644 -0.003417 -0.006790 0.000000 0.049525 0.000000
# 6 0.000000 0.000000 0.000000 0.035886 0.000000 0.046431
#
#
# Mechanical properties :
#
#
# Convention : Reuss Voigt Hill
#
# Bulk Modulus (GPa) = 67.81426 72.70577 70.26001
# Shear Modulus (GPa) = 19.85549 29.17611 24.51580
#
# Velocity S-wave (km/s) = 3.07079 3.72241 3.41219
# Velocity P-wave (km/s) = 6.69174 7.28042 6.99228
#
# Compressibility (1/GPa) = 0.01474616
#
# Stress axis : x y z
#
# Youngs Moduli (GPa) = 50.89300 96.75652 62.83625
#
# Poissons Ratio (x) = 0.30290 0.53619
# Poissons Ratio (y) = 0.15932 0.24585
# Poissons Ratio (z) = 0.43428 0.37856
#
# Static dielectric constant tensor:
#      x y z
#    x 1.791020 0.000000 -0.023680 
#    y 0.000000 1.752140 0.000000 
#    z -0.023680 0.000000 1.764420 
# 
# From -- ./inp_files/298559.got.cif
#   From: 2010.05.17/outbox.cif.g08.bks.cpg/sg15_150_cif.got.tgz:298559.got - 2010.06.03 18:47:42.
