data_PCOD9283204
_publ_section_title
;
Structure prediction by ZEFSAII (Michael W. Deem and Ramdas Pophale) SiO2 
 PCOD9283204
Probable space group: C 2/C
;
_chemical_formula_sum "Si O2"
_cell_formula_units_Z 44
_cell_length_a 11.696782
_cell_length_b 18.107307
_cell_length_c 10.836291
_cell_angle_alpha 90.000000
_cell_angle_beta 54.489323
_cell_angle_gamma 90.000000
_cell_volume 1868.225152
_symmetry_space_group_name_H-M "C 2/C"
_symmetry_group_IT_number 15
_symmetry_cell_setting 'monoclinic'
loop_
_space_group_symop_operation_xyz
x,y,z
-x,y,1/2-z
-x,-y,-z
x,-y,1/2+z
1/2+x,1/2+y,z
1/2-x,1/2+y,1/2-z
1/2-x,1/2-y,-z
1/2+x,1/2-y,1/2+z
loop_
_atom_site_type_symbol
_atom_site_label
_atom_site_fract_x
_atom_site_fract_y
_atom_site_fract_z
Si Si1 0.294321 0.062869 0.387150
Si Si2 0.152665 0.190369 0.146464
Si Si3 0.648474 0.720083 0.873802
Si Si4 0.000000 0.694553 0.250000
Si Si5 0.267766 0.035048 0.134842
Si Si6 0.469027 0.422716 0.140894
O O1 0.367618 0.141449 0.363055
O O2 0.342630 0.036371 0.221276
O O3 0.123150 0.066237 0.488041
O O4 0.326565 0.011214 0.483305
O O5 0.195830 0.244743 0.232097
O O6 0.251500 0.119042 0.099328
O O7 0.000000 0.155071 0.250000
O O8 0.132489 0.234578 0.030009
O O9 0.547123 0.759882 0.841292
O O10 0.628649 0.632503 0.874286
O O11 0.120592 0.993311 0.260589
O O12 0.500000 0.382070 0.250000
#
# Coordination Sequence:
#
# PCOD9283204 Si02
#       6
#     8   8   8   4   8   8
#     4  11  24  41  70  98 140 182 230 286 334 411
#     4  11  23  42  70  98 136 176 227 286 342 400
#     4  11  24  42  66 100 138 176 227 277 341 414
#     4  12  26  46  66  98 144 186 228 272 356 408
#     4  11  22  44  71 104 132 180 232 287 342 397
#     4  10  21  39  69 103 128 174 233 282 338 400
#
# _framework density 23.551765
#
# number of rings (size 3 to 8) (size 9 to 14) (size 15 to 20)
#    0.000    1.091    2.727    4.364    0.000    4.364 
#    0.000    0.000    4.000    0.000    0.000    0.000 
#    0.000    0.000    0.000    0.000    0.000    0.000 
#
# Total GULP energy -122549.032939 kJ/mol
# GULP energy per Si atom -5570.410588 kJ/mol
# Density = 2.349816 g / cm^3
# Si number density = 23.551765 Si / 1000 Ang^3
#
#
#
# Elastic Constant Matrix: (Units=GPa)
#
#
# Indices 1 2 3 4 5 6 
#
# 1 117.7240 49.8967 66.9648 0.0000 31.0585 0.0000
# 2 49.8967 105.5364 50.2557 0.0000 17.3266 0.0000
# 3 66.9648 50.2557 78.3264 0.0000 40.7299 0.0000
# 4 0.0000 0.0000 0.0000 -5.7573 0.0000 -1.2388
# 5 31.0585 17.3266 40.7299 0.0000 48.2199 0.0000
# 6 0.0000 0.0000 0.0000 -1.2388 0.0000 12.9878
#
#
#
# Elastic Compliance Matrix: (Units=1/GPa)
#
#
# Indices 1 2 3 4 5 6 
#
# 1 0.016810 -0.001362 -0.014484 0.000000 0.001896 0.000000
# 2 -0.001362 0.014310 -0.010342 0.000000 0.004471 0.000000
# 3 -0.014484 -0.010342 0.044586 0.000000 -0.024615 0.000000
# 4 0.000000 0.000000 0.000000 -0.170199 0.000000 -0.016234
# 5 0.001896 0.004471 -0.024615 0.000000 0.038702 0.000000
# 6 0.000000 0.000000 0.000000 -0.016234 0.000000 0.075447
#
#
# Mechanical properties :
#
#
# Convention : Reuss Voigt Hill
#
# Bulk Modulus (GPa) = 42.86372 70.64679 56.75525
# Shear Modulus (GPa) = 62.64989 20.05472 41.35231
#
# Velocity S-wave (km/s) = 5.16320 2.92124 4.19478
# Velocity P-wave (km/s) = 7.33377 6.43737 6.90014
#
# Compressibility (1/GPa) = 0.02332975
#
# Stress axis : x y z
#
# Youngs Moduli (GPa) = 59.48683 69.88038 22.42874
#
# Poissons Ratio (x) = 0.09517 0.32486
# Poissons Ratio (y) = 0.08101 0.23196
# Poissons Ratio (z) = 0.86161 0.72272
#
# Static dielectric constant tensor:
#      x y z
#    x 2.057110 0.000000 -0.233850 
#    y 0.000000 1.921730 0.000000 
#    z -0.233850 0.000000 2.285250 
# 
# From -- ./inp_files/87737.got.cif
#   From: 2010.05.17/outbox.cif.g08.bks.cpg/sg15_44_cif.got.tgz:87737.got - 2010.06.03 18:47:42.
