data_PCOD9283746
_publ_section_title
;
Structure prediction by ZEFSAII (Michael W. Deem and Ramdas Pophale) SiO2 
 PCOD9283746
Probable space group: C 2/C
;
_chemical_formula_sum "Si O2"
_cell_formula_units_Z 52
_cell_length_a 17.097467
_cell_length_b 9.458713
_cell_length_c 21.551066
_cell_angle_alpha 90.000000
_cell_angle_beta 48.263347
_cell_angle_gamma 90.000000
_cell_volume 2600.728892
_symmetry_space_group_name_H-M "C 2/C"
_symmetry_group_IT_number 15
_symmetry_cell_setting 'monoclinic'
loop_
_space_group_symop_operation_xyz
x,y,z
-x,y,1/2-z
-x,-y,-z
x,-y,1/2+z
1/2+x,1/2+y,z
1/2-x,1/2+y,1/2-z
1/2-x,1/2-y,-z
1/2+x,1/2-y,1/2+z
loop_
_atom_site_type_symbol
_atom_site_label
_atom_site_fract_x
_atom_site_fract_y
_atom_site_fract_z
Si Si1 0.880479 0.248628 0.205971
Si Si2 0.617368 0.956331 0.581127
Si Si3 0.585254 0.782100 0.014583
Si Si4 0.000000 0.629505 0.750000
Si Si5 0.009713 0.216525 0.920645
Si Si6 0.317124 0.485800 0.549966
Si Si7 0.791539 0.031114 0.708113
O O1 0.812149 0.382763 0.221159
O O2 0.982462 0.239210 0.108722
O O3 0.917390 0.275907 0.256455
O O4 0.812338 0.108314 0.236223
O O5 0.549736 0.826259 0.591828
O O6 0.627483 0.073251 0.521411
O O7 0.555229 0.033829 0.669387
O O8 0.729500 0.920557 0.551557
O O9 0.551208 0.792677 0.960984
O O10 0.664521 0.650153 0.976845
O O11 0.108893 0.135882 0.839044
O O12 0.925637 0.097933 0.985468
O O13 0.285494 0.484572 0.638970
#
# Coordination Sequence:
#
# PCOD9283746 Si02
#       7
#     8   8   8   4   8   8   8
#     4  11  22  43  64  88 125 165 207 254 318 370
#     4  11  23  38  65  92 127 166 207 251 311 368
#     4  10  21  40  64  90 126 161 209 253 303 373
#     4  10  24  42  60  88 130 162 204 262 310 374
#     4  11  22  41  64  94 127 159 209 261 304 366
#     4  11  20  43  62  91 123 165 205 258 314 354
#     4  11  23  40  66  90 124 169 206 254 315 372
#
# _framework density 19.994395000000001
#
# number of rings (size 3 to 8) (size 9 to 14) (size 15 to 20)
#    0.000    1.231    4.615    2.308    4.308    0.000 
#    0.000    2.308    0.000    0.000    0.000    0.000 
#    0.000    0.000    0.000    0.000    0.000    0.000 
#
# Total GULP energy -145367.915560 kJ/mol
# GULP energy per Si atom -5591.073675 kJ/mol
# Density = 1.994889 g / cm^3
# Si number density = 19.994395 Si / 1000 Ang^3
#
#
#
# Elastic Constant Matrix: (Units=GPa)
#
#
# Indices 1 2 3 4 5 6 
#
# 1 111.9306 37.5216 2.6990 0.0000 5.0235 0.0000
# 2 37.5216 68.7658 5.8452 0.0000 17.5340 0.0000
# 3 2.6990 5.8452 28.6211 0.0000 7.3685 0.0000
# 4 0.0000 0.0000 0.0000 21.5911 0.0000 5.2388
# 5 5.0235 17.5340 7.3685 0.0000 12.3126 0.0000
# 6 0.0000 0.0000 0.0000 5.2388 0.0000 34.9375
#
#
#
# Elastic Compliance Matrix: (Units=1/GPa)
#
#
# Indices 1 2 3 4 5 6 
#
# 1 0.011304 -0.007985 -0.001390 0.000000 0.007591 0.000000
# 2 -0.007985 0.028949 0.005456 0.000000 -0.041233 0.000000
# 3 -0.001390 0.005456 0.042333 0.000000 -0.032537 0.000000
# 4 0.000000 0.000000 0.000000 0.048064 0.000000 -0.007207
# 5 0.007591 -0.041233 -0.032537 0.000000 0.156310 0.000000
# 6 0.000000 0.000000 0.000000 -0.007207 0.000000 0.029703
#
#
# Mechanical properties :
#
#
# Convention : Reuss Voigt Hill
#
# Bulk Modulus (GPa) = 13.37824 33.49435 23.43629
# Shear Modulus (GPa) = 14.30957 24.65168 19.48063
#
# Velocity S-wave (km/s) = 2.67812 3.51512 3.12477
# Velocity P-wave (km/s) = 4.03344 5.76741 4.97653
#
# Compressibility (1/GPa) = 0.07474825
#
# Stress axis : x y z
#
# Youngs Moduli (GPa) = 88.46599 34.54348 23.62234
#
# Poissons Ratio (x) = 0.27584 0.03282
# Poissons Ratio (y) = 0.70643 -0.12889
# Poissons Ratio (z) = 0.12293 -0.18848
#
# Static dielectric constant tensor:
#      x y z
#    x 1.718110 0.000000 -0.018500 
#    y 0.000000 1.691760 0.000000 
#    z -0.018500 0.000000 1.689610 
# 
# From -- ./inp_files/209071.got.cif
#   From: 2010.05.17/outbox.cif.g08.bks.cpg/sg15_105_cif.got.tgz:209071.got - 2010.06.03 18:47:42.
