data_PCOD9283934
_publ_section_title
;
Structure prediction by ZEFSAII (Michael W. Deem and Ramdas Pophale) SiO2 
 PCOD9283934
Probable space group: C 2/C
;
_chemical_formula_sum "Si O2"
_cell_formula_units_Z 48
_cell_length_a 8.813773
_cell_length_b 18.301549
_cell_length_c 13.856334
_cell_angle_alpha 90.000000
_cell_angle_beta 67.280906
_cell_angle_gamma 90.000000
_cell_volume 2061.682522
_symmetry_space_group_name_H-M "C 2/C"
_symmetry_group_IT_number 15
_symmetry_cell_setting 'monoclinic'
loop_
_space_group_symop_operation_xyz
x,y,z
-x,y,1/2-z
-x,-y,-z
x,-y,1/2+z
1/2+x,1/2+y,z
1/2-x,1/2+y,1/2-z
1/2-x,1/2-y,-z
1/2+x,1/2-y,1/2+z
loop_
_atom_site_type_symbol
_atom_site_label
_atom_site_fract_x
_atom_site_fract_y
_atom_site_fract_z
Si Si1 0.194152 0.528238 0.728864
Si Si2 0.650003 0.248228 0.144764
Si Si3 0.716646 0.959033 0.452920
Si Si4 0.958363 0.322432 0.016749
Si Si5 0.740987 0.383262 0.463883
Si Si6 0.372960 0.606810 0.085759
O O1 0.218015 0.535365 0.837604
O O2 0.245852 0.599243 0.653078
O O3 0.308957 0.461442 0.664180
O O4 0.000000 0.515243 0.750000
O O5 0.500000 0.261311 0.250000
O O6 0.791960 0.308241 0.117333
O O7 0.747901 0.172525 0.137698
O O8 0.565645 0.237438 0.060387
O O9 0.569190 0.903874 0.518950
O O10 0.863645 0.920490 0.476374
O O11 0.708785 0.038314 0.502159
O O12 0.124412 0.324847 0.035150
O O13 0.560720 0.369099 0.550855
#
# Coordination Sequence:
#
# PCOD9283934 Si02
#       6
#     8   8   8   8   8   8
#     4  11  21  36  64  98 131 175 215 270 335 388
#     4  10  23  46  67  90 123 178 225 263 323 395
#     4  10  21  40  65  94 133 170 211 269 327 390
#     4  10  22  43  67  92 128 170 216 273 326 385
#     4  11  23  40  61 101 135 164 213 279 329 387
#     4  10  24  39  63  96 133 170 220 267 326 394
#
# _framework density 23.281953999999999
#
# number of rings (size 3 to 8) (size 9 to 14) (size 15 to 20)
#    0.000    1.667    1.667    3.000    7.000    3.333 
#   12.000    0.000    3.667    0.000    0.000    0.000 
#    0.000    0.000    0.000    0.000    0.000    0.000 
#
# Total GULP energy -134006.607784 kJ/mol
# GULP energy per Si atom -5583.608658 kJ/mol
# Density = 2.322896 g / cm^3
# Si number density = 23.281954 Si / 1000 Ang^3
#
#
#
# Elastic Constant Matrix: (Units=GPa)
#
#
# Indices 1 2 3 4 5 6 
#
# 1 109.4976 23.9513 40.6584 0.0000 -27.4671 0.0000
# 2 23.9513 44.6038 -5.5204 0.0000 -2.0765 0.0000
# 3 40.6584 -5.5204 99.3336 0.0000 -4.3927 0.0000
# 4 0.0000 0.0000 0.0000 19.9494 0.0000 3.0129
# 5 -27.4671 -2.0765 -4.3927 0.0000 45.6336 0.0000
# 6 0.0000 0.0000 0.0000 3.0129 0.0000 27.3409
#
#
#
# Elastic Compliance Matrix: (Units=1/GPa)
#
#
# Indices 1 2 3 4 5 6 
#
# 1 0.015547 -0.008763 -0.006482 0.000000 0.008335 0.000000
# 2 -0.008763 0.027574 0.004962 0.000000 -0.003542 0.000000
# 3 -0.006482 0.004962 0.012888 0.000000 -0.002435 0.000000
# 4 0.000000 0.000000 0.000000 0.050975 0.000000 -0.005617
# 5 0.008335 -0.003542 -0.002435 0.000000 0.026535 0.000000
# 6 0.000000 0.000000 0.000000 -0.005617 0.000000 0.037194
#
#
# Mechanical properties :
#
#
# Convention : Reuss Voigt Hill
#
# Bulk Modulus (GPa) = 28.21251 41.29040 34.75145
# Shear Modulus (GPa) = 24.61920 31.54117 28.08018
#
# Velocity S-wave (km/s) = 3.25535 3.68468 3.47665
# Velocity P-wave (km/s) = 5.12580 5.98965 5.57449
#
# Compressibility (1/GPa) = 0.03544527
#
# Stress axis : x y z
#
# Youngs Moduli (GPa) = 64.32080 36.26573 77.58955
#
# Poissons Ratio (x) = 0.31778 0.50293
# Poissons Ratio (y) = 0.56362 -0.38503
# Poissons Ratio (z) = 0.41693 -0.17997
#
# Static dielectric constant tensor:
#      x y z
#    x 1.933450 0.000000 0.015390 
#    y 0.000000 1.955240 0.000000 
#    z 0.015390 0.000000 1.897640 
# 
# From -- ./inp_files/135926.got.cif
#   From: 2010.05.17/outbox.cif.g08.bks.cpg/sg15_68_cif.got.tgz:135926.got - 2010.06.03 18:47:42.
