data_PCOD9283279
_publ_section_title
;
Structure prediction by ZEFSAII (Michael W. Deem and Ramdas Pophale) SiO2 
 PCOD9283279
Probable space group: C 2/C
;
_chemical_formula_sum "Si O2"
_cell_formula_units_Z 52
_cell_length_a 8.357249
_cell_length_b 11.762843
_cell_length_c 29.039913
_cell_angle_alpha 90.000000
_cell_angle_beta 110.434614
_cell_angle_gamma 90.000000
_cell_volume 2675.121801
_symmetry_space_group_name_H-M "C 2/C"
_symmetry_group_IT_number 15
_symmetry_cell_setting 'monoclinic'
loop_
_space_group_symop_operation_xyz
x,y,z
-x,y,1/2-z
-x,-y,-z
x,-y,1/2+z
1/2+x,1/2+y,z
1/2-x,1/2+y,1/2-z
1/2-x,1/2-y,-z
1/2+x,1/2-y,1/2+z
loop_
_atom_site_type_symbol
_atom_site_label
_atom_site_fract_x
_atom_site_fract_y
_atom_site_fract_z
Si Si1 0.000000 0.762879 0.750000
Si Si2 0.496368 0.745228 0.592458
Si Si3 0.081735 0.478692 0.648012
Si Si4 0.807193 0.590149 0.242076
Si Si5 0.358959 0.151244 0.487506
Si Si6 0.790989 0.403419 0.163110
Si Si7 0.298881 0.929346 0.432169
O O1 0.146156 0.830407 0.736572
O O2 0.106288 0.688313 0.796618
O O3 0.517106 0.852858 0.628392
O O4 0.552639 0.794287 0.548810
O O5 0.624968 0.650931 0.624844
O O6 0.317035 0.680816 0.572380
O O7 0.164959 0.476567 0.706925
O O8 0.203487 0.526109 0.620531
O O9 0.915293 0.555918 0.635331
O O10 0.762387 0.507699 0.195278
O O11 0.000000 0.638324 0.250000
O O12 0.250000 0.250000 0.500000
O O13 0.508015 0.104999 0.535464
O O14 0.256491 0.039092 0.459788
#
# Coordination Sequence:
#
# PCOD9283279 Si02
#       7
#     4   8   8   8   8   8   8
#     4  12  22  42  64  82 130 168 206 270 312 362
#     4  11  23  38  63  92 122 159 212 250 315 380
#     4  10  21  40  56  87 124 153 209 259 300 379
#     4  10  23  41  59  91 124 164 219 260 313 381
#     4  10  22  42  63  89 125 158 202 257 314 374
#     4  11  23  41  59  91 124 164 211 262 304 378
#     4  10  23  39  62  92 120 161 200 256 317 370
#
# _framework density 19.438367
#
# number of rings (size 3 to 8) (size 9 to 14) (size 15 to 20)
#    0.000    1.538    3.846    1.385    2.154    4.308 
#    1.385    0.000    0.000    0.000    0.000    0.000 
#    0.000    0.000    0.000    0.000    0.000    0.000 
#
# Total GULP energy -145073.775702 kJ/mol
# GULP energy per Si atom -5579.760604 kJ/mol
# Density = 1.939412 g / cm^3
# Si number density = 19.438367 Si / 1000 Ang^3
#
#
#
# Elastic Constant Matrix: (Units=GPa)
#
#
# Indices 1 2 3 4 5 6 
#
# 1 27.0298 3.7560 -32.6362 0.0000 -12.2284 0.0000
# 2 3.7560 52.8133 -34.4714 0.0000 -16.9946 0.0000
# 3 -32.6362 -34.4714 4.2989 0.0000 -20.8218 0.0000
# 4 0.0000 0.0000 0.0000 13.9105 0.0000 -4.9559
# 5 -12.2284 -16.9946 -20.8218 0.0000 19.0378 0.0000
# 6 0.0000 0.0000 0.0000 -4.9559 0.0000 51.7001
#
#
#
# Elastic Compliance Matrix: (Units=1/GPa)
#
#
# Indices 1 2 3 4 5 6 
#
# 1 0.019394 -0.012756 -0.011667 0.000000 -0.011689 0.000000
# 2 -0.012756 0.013652 -0.007440 0.000000 -0.004144 0.000000
# 3 -0.011667 -0.007440 -0.003704 0.000000 -0.018187 0.000000
# 4 0.000000 0.000000 0.000000 0.074430 0.000000 0.007135
# 5 -0.011689 -0.004144 -0.018187 0.000000 0.021428 0.000000
# 6 0.000000 0.000000 0.000000 0.007135 0.000000 0.020026
#
#
# Mechanical properties :
#
#
# Convention : Reuss Voigt Hill
#
# Bulk Modulus (GPa) = -29.08337 -4.72903 -16.90620
# Shear Modulus (GPa) = 25.31775 26.76258 26.04017
#
# Velocity S-wave (km/s) = 3.61288 3.71454 3.66406
# Velocity P-wave (km/s) = 1.55227 3.99487 3.03055
#
# Compressibility (1/GPa) = -0.03438391
#
# Stress axis : x y z
#
# Youngs Moduli (GPa) = 51.56258 73.25021 -269.95875
#
# Poissons Ratio (x) = 0.93435 -3.14951
# Poissons Ratio (y) = 0.65771 -2.00861
# Poissons Ratio (z) = 0.60156 0.54501
#
# Static dielectric constant tensor:
#      x y z
#    x 1.714540 0.000000 -0.065090 
#    y 0.000000 1.693780 0.000000 
#    z -0.065090 0.000000 1.536010 
# 
# From -- ./inp_files/287744.got.cif
#   From: 2010.05.17/outbox.cif.g08.bks.cpg/sg15_144_cif.got.tgz:287744.got - 2010.06.03 18:47:42.
