data_PCOD9283613
_publ_section_title
;
Structure prediction by ZEFSAII (Michael W. Deem and Ramdas Pophale) SiO2 
 PCOD9283613
Probable space group: C 2/C
;
_chemical_formula_sum "Si O2"
_cell_formula_units_Z 56
_cell_length_a 19.008684
_cell_length_b 30.893157
_cell_length_c 7.945758
_cell_angle_alpha 90.000000
_cell_angle_beta 35.519296
_cell_angle_gamma 90.000000
_cell_volume 2710.869994
_symmetry_space_group_name_H-M "C 2/C"
_symmetry_group_IT_number 15
_symmetry_cell_setting 'monoclinic'
loop_
_space_group_symop_operation_xyz
x,y,z
-x,y,1/2-z
-x,-y,-z
x,-y,1/2+z
1/2+x,1/2+y,z
1/2-x,1/2+y,1/2-z
1/2-x,1/2-y,-z
1/2+x,1/2-y,1/2+z
loop_
_atom_site_type_symbol
_atom_site_label
_atom_site_fract_x
_atom_site_fract_y
_atom_site_fract_z
Si Si1 0.000000 0.651673 0.750000
Si Si2 0.746116 0.138618 0.832701
Si Si3 0.080559 0.216016 0.928340
Si Si4 0.000000 0.835904 0.250000
Si Si5 0.261519 0.392449 0.669099
Si Si6 0.048893 0.698829 0.326768
Si Si7 0.130936 0.024156 0.407415
Si Si8 0.867757 0.065294 0.457836
O O1 0.127299 0.626132 0.472278
O O2 0.975043 0.679846 0.629046
O O3 0.822597 0.182449 0.687477
O O4 0.775786 0.105260 0.628492
O O5 0.780217 0.112332 0.933256
O O6 0.614860 0.157108 0.120557
O O7 0.000000 0.224745 0.250000
O O8 0.020444 0.191577 0.883135
O O9 0.121946 0.262633 0.776670
O O10 0.877494 0.864915 0.513542
O O11 0.276878 0.442092 0.689780
O O12 0.000000 0.719719 0.250000
O O13 0.118510 0.040564 0.243133
O O14 0.167140 0.974030 0.350231
O O15 0.000000 0.028486 0.750000
O O16 0.000000 0.083328 0.250000
#
# Coordination Sequence:
#
# PCOD9283613 Si02
#       8
#     4   8   8   4   8   8   8   8
#     4  10  24  42  62  90 126 178 206 266 316 386
#     4  10  23  39  60  87 123 166 203 265 312 380
#     4  11  22  38  61  88 125 157 208 264 326 369
#     4  10  22  38  62  96 122 166 210 278 306 380
#     4  10  21  40  63  89 129 160 215 252 325 367
#     4  11  23  42  61  83 125 165 221 253 319 375
#     4  11  21  36  63  93 129 163 202 259 315 378
#     4  11  22  36  60  94 127 161 205 258 323 371
#
# _framework density 20.657575000000001
#
# number of rings (size 3 to 8) (size 9 to 14) (size 15 to 20)
#    0.000    1.429    2.143    4.286    6.000    0.000 
#    0.000    1.429    1.571    2.571    0.000    0.000 
#    0.000    0.000    0.000    0.000    0.000    0.000 
#
# Total GULP energy -155942.950276 kJ/mol
# GULP energy per Si atom -5569.391081 kJ/mol
# Density = 2.061056 g / cm^3
# Si number density = 20.657575 Si / 1000 Ang^3
#
#
#
# Elastic Constant Matrix: (Units=GPa)
#
#
# Indices 1 2 3 4 5 6 
#
# 1 36.2599 7.2187 23.4576 0.0000 12.2629 0.0000
# 2 7.2187 109.0720 49.9922 0.0000 5.3092 0.0000
# 3 23.4576 49.9922 90.5250 0.0000 10.7179 0.0000
# 4 0.0000 0.0000 0.0000 18.7598 0.0000 8.8368
# 5 12.2629 5.3092 10.7179 0.0000 27.7425 0.0000
# 6 0.0000 0.0000 0.0000 8.8368 0.0000 25.9342
#
#
#
# Elastic Compliance Matrix: (Units=1/GPa)
#
#
# Indices 1 2 3 4 5 6 
#
# 1 0.037866 0.002565 -0.009629 0.000000 -0.013508 0.000000
# 2 0.002565 0.012451 -0.007466 0.000000 -0.000632 0.000000
# 3 -0.009629 -0.007466 0.017806 0.000000 -0.001194 0.000000
# 4 0.000000 0.000000 0.000000 0.063497 0.000000 -0.021636
# 5 -0.013508 -0.000632 -0.001194 0.000000 0.042599 0.000000
# 6 0.000000 0.000000 0.000000 -0.021636 0.000000 0.045931
#
#
# Mechanical properties :
#
#
# Convention : Reuss Voigt Hill
#
# Bulk Modulus (GPa) = 25.59971 44.13266 34.86618
# Shear Modulus (GPa) = 19.06706 24.83320 21.95013
#
# Velocity S-wave (km/s) = 3.04140 3.47094 3.26325
# Velocity P-wave (km/s) = 4.97522 6.12156 5.57792
#
# Compressibility (1/GPa) = 0.03906294
#
# Stress axis : x y z
#
# Youngs Moduli (GPa) = 26.40895 80.31334 56.15983
#
# Poissons Ratio (x) = -0.20600 0.54078
# Poissons Ratio (y) = -0.06774 0.41929
# Poissons Ratio (z) = 0.25430 0.59962
#
# Static dielectric constant tensor:
#      x y z
#    x 1.840570 0.000000 0.022080 
#    y 0.000000 1.753930 0.000000 
#    z 0.022080 0.000000 1.808780 
# 
# From -- ./inp_files/59364.got.cif
#   From: 2010.05.17/outbox.cif.g08.bks.cpg/sg15_30_cif.got.tgz:59364.got - 2010.06.03 18:47:42.
