data_PCOD9283127
_publ_section_title
;
Structure prediction by ZEFSAII (Michael W. Deem and Ramdas Pophale) SiO2 
 PCOD9283127
Probable space group: C 2/C
;
_chemical_formula_sum "Si O2"
_cell_formula_units_Z 64
_cell_length_a 16.001516
_cell_length_b 11.153719
_cell_length_c 29.169347
_cell_angle_alpha 90.000000
_cell_angle_beta 148.447177
_cell_angle_gamma 90.000000
_cell_volume 2724.239852
_symmetry_space_group_name_H-M "C 2/C"
_symmetry_group_IT_number 15
_symmetry_cell_setting 'monoclinic'
loop_
_space_group_symop_operation_xyz
x,y,z
-x,y,1/2-z
-x,-y,-z
x,-y,1/2+z
1/2+x,1/2+y,z
1/2-x,1/2+y,1/2-z
1/2-x,1/2-y,-z
1/2+x,1/2-y,1/2+z
loop_
_atom_site_type_symbol
_atom_site_label
_atom_site_fract_x
_atom_site_fract_y
_atom_site_fract_z
Si Si1 0.566781 0.899878 0.406951
Si Si2 0.891005 0.164653 0.740971
Si Si3 0.585790 0.379714 0.069343
Si Si4 0.578094 0.658210 0.457884
Si Si5 0.348191 0.557173 0.281480
Si Si6 0.494708 0.127718 0.341774
Si Si7 0.394619 0.217608 0.746172
Si Si8 0.751138 0.383410 0.615386
O O1 0.522433 0.794126 0.421053
O O2 0.741043 0.861890 0.472188
O O3 0.446447 0.878170 0.308384
O O4 0.570475 0.042544 0.416649
O O5 0.790245 0.269639 0.666826
O O6 0.000000 0.115799 0.750000
O O7 0.996300 0.231765 0.829585
O O8 0.811684 0.059008 0.733450
O O9 0.705068 0.290489 0.149776
O O10 0.690848 0.502660 0.116485
O O11 0.576941 0.352144 0.011272
O O12 0.396279 0.369092 0.990063
O O13 0.477696 0.558911 0.382870
O O14 0.424679 0.653707 0.282537
O O15 0.190449 0.607742 0.232007
O O16 0.591729 0.086652 0.340976
O O17 0.500000 0.201937 0.750000
#
# Coordination Sequence:
#
# PCOD9283127 Si02
#       8
#     8   8   8   8   8   8   8   8
#     4  10  21  39  67  98 133 166 224 287 343 389
#     4  10  23  46  68  94 138 187 225 279 339 412
#     4  11  21  40  71 101 129 174 229 287 339 402
#     4  10  21  40  66 103 132 174 220 291 340 400
#     4  11  26  40  66  98 135 185 227 273 345 418
#     4  11  22  42  64  94 132 176 224 271 333 409
#     4  11  21  40  66 100 130 169 227 285 341 405
#     4  10  22  40  67  98 131 172 224 277 340 402
#
# _framework density 23.492792000000001
#
# number of rings (size 3 to 8) (size 9 to 14) (size 15 to 20)
#    0.000    1.500    2.500    1.875    5.250    2.000 
#    0.000    4.375    0.000    0.000    0.000    0.000 
#    0.000    0.000    0.000    0.000    0.000    0.000 
#
# Total GULP energy -178186.841096 kJ/mol
# GULP energy per Si atom -5568.338784 kJ/mol
# Density = 2.343932 g / cm^3
# Si number density = 23.492792 Si / 1000 Ang^3
#
#
#
# Elastic Constant Matrix: (Units=GPa)
#
#
# Indices 1 2 3 4 5 6 
#
# 1 108.2199 21.9641 19.3675 0.0000 1.0465 0.0000
# 2 21.9641 45.7165 -1.2025 0.0000 -5.5929 0.0000
# 3 19.3675 -1.2025 80.6523 -0.0002 -5.0480 0.0000
# 4 0.0000 0.0000 -0.0002 -21.5677 0.0000 13.7666
# 5 1.0465 -5.5929 -5.0480 0.0000 19.8041 0.0000
# 6 0.0000 0.0000 0.0000 13.7666 0.0000 26.7653
#
#
#
# Elastic Compliance Matrix: (Units=1/GPa)
#
#
# Indices 1 2 3 4 5 6 
#
# 1 0.010942 -0.005691 -0.002895 0.000000 -0.002923 0.000000
# 2 -0.005691 0.025661 0.002258 0.000000 0.008123 0.000000
# 3 -0.002895 0.002258 0.013391 0.000000 0.004204 0.000000
# 4 0.000000 0.000000 0.000000 -0.034906 0.000000 0.017954
# 5 -0.002923 0.008123 0.004204 0.000000 0.054015 0.000000
# 6 0.000000 0.000000 0.000000 0.017954 0.000000 0.028127
#
#
# Mechanical properties :
#
#
# Convention : Reuss Voigt Hill
#
# Bulk Modulus (GPa) = 26.78310 34.98297 30.88303
# Shear Modulus (GPa) = 40.87212 17.96433 29.41822
#
# Velocity S-wave (km/s) = 4.17558 2.76827 3.54252
# Velocity P-wave (km/s) = 5.88835 5.01409 5.46872
#
# Compressibility (1/GPa) = 0.03733698
#
# Stress axis : x y z
#
# Youngs Moduli (GPa) = 91.39220 38.96942 74.67723
#
# Poissons Ratio (x) = 0.22176 0.21622
# Poissons Ratio (y) = 0.52009 -0.16859
# Poissons Ratio (z) = 0.26461 -0.08798
#
# Static dielectric constant tensor:
#      x y z
#    x 1.890930 0.000000 0.023910 
#    y 0.000000 2.018470 0.000000 
#    z 0.023910 0.000000 1.966750 
# 
# From -- ./inp_files/316245.got.cif
#   From: 2010.05.17/outbox.cif.g08.bks.cpg/sg15_159_cif.got.tgz:316245.got - 2010.06.03 18:47:42.
