data_PCOD9283452
_publ_section_title
;
Structure prediction by ZEFSAII (Michael W. Deem and Ramdas Pophale) SiO2 
 PCOD9283452
Probable space group: C 2/C
;
_chemical_formula_sum "Si O2"
_cell_formula_units_Z 40
_cell_length_a 12.131364
_cell_length_b 15.182558
_cell_length_c 12.260228
_cell_angle_alpha 90.000000
_cell_angle_beta 131.214536
_cell_angle_gamma 90.000000
_cell_volume 1698.689651
_symmetry_space_group_name_H-M "C 2/C"
_symmetry_group_IT_number 15
_symmetry_cell_setting 'monoclinic'
loop_
_space_group_symop_operation_xyz
x,y,z
-x,y,1/2-z
-x,-y,-z
x,-y,1/2+z
1/2+x,1/2+y,z
1/2-x,1/2+y,1/2-z
1/2-x,1/2-y,-z
1/2+x,1/2-y,1/2+z
loop_
_atom_site_type_symbol
_atom_site_label
_atom_site_fract_x
_atom_site_fract_y
_atom_site_fract_z
Si Si1 0.528918 0.749228 0.145227
Si Si2 0.837859 0.630796 0.162149
Si Si3 0.019336 0.906097 0.458556
Si Si4 0.536754 0.898615 0.540680
Si Si5 0.730628 0.321866 0.328558
O O1 0.500000 0.723619 0.250000
O O2 0.508881 0.672307 0.042263
O O3 0.436892 0.836219 0.046705
O O4 0.693678 0.785921 0.233995
O O5 0.683138 0.598750 0.015632
O O6 0.836991 0.736904 0.158021
O O7 0.000000 0.591482 0.250000
O O8 0.832107 0.609477 0.289230
O O9 0.893681 0.888470 0.288163
O O10 0.000000 0.000000 0.500000
O O11 0.380406 0.856970 0.483072
O O12 0.500000 0.000000 0.500000
#
# Coordination Sequence:
#
# PCOD9283452 Si02
#       5
#     8   8   8   8   8
#     4   9  21  41  68  93 128 175 217 262 331 395
#     4  11  22  41  66  90 126 175 214 260 332 396
#     4  11  22  42  63  94 135 164 215 279 319 379
#     4  10  21  40  61  93 130 169 217 266 322 394
#     4   9  20  40  62  91 127 170 212 271 321 383
#
# _framework density 23.547561000000002
#
# number of rings (size 3 to 8) (size 9 to 14) (size 15 to 20)
#    1.200    0.800    2.000    1.200    0.000    4.800 
#    0.000    3.000    0.000    0.000    0.000    0.000 
#    0.000    0.000    0.000    0.000    0.000    0.000 
#
# Total GULP energy -111494.414085 kJ/mol
# GULP energy per Si atom -5574.720704 kJ/mol
# Density = 2.349397 g / cm^3
# Si number density = 23.547561 Si / 1000 Ang^3
#
#
#
# Elastic Constant Matrix: (Units=GPa)
#
#
# Indices 1 2 3 4 5 6 
#
# 1 72.9218 -17.6016 -1.1402 0.0000 9.7466 0.0000
# 2 -17.6016 122.3408 8.7296 0.0000 3.5313 0.0000
# 3 -1.1402 8.7296 130.0836 0.0000 21.5034 0.0000
# 4 0.0000 0.0000 0.0000 28.6199 0.0000 6.6043
# 5 9.7466 3.5313 21.5034 0.0000 34.3926 0.0000
# 6 0.0000 0.0000 0.0000 6.6043 0.0000 20.9392
#
#
#
# Elastic Compliance Matrix: (Units=1/GPa)
#
#
# Indices 1 2 3 4 5 6 
#
# 1 0.014928 0.002234 0.000801 0.000000 -0.004961 0.000000
# 2 0.002234 0.008557 -0.000340 0.000000 -0.001299 0.000000
# 3 0.000801 -0.000340 0.008642 0.000000 -0.005595 0.000000
# 4 0.000000 0.000000 0.000000 0.037683 0.000000 -0.011885
# 5 -0.004961 -0.001299 -0.005595 0.000000 0.034114 0.000000
# 6 0.000000 0.000000 0.000000 -0.011885 0.000000 0.051506
#
#
# Mechanical properties :
#
#
# Convention : Reuss Voigt Hill
#
# Bulk Modulus (GPa) = 26.65464 33.92464 30.28964
# Shear Modulus (GPa) = 30.76050 39.14757 34.95403
#
# Velocity S-wave (km/s) = 3.61822 4.08179 3.85697
# Velocity P-wave (km/s) = 5.36651 6.05415 5.72067
#
# Compressibility (1/GPa) = 0.03751692
#
# Stress axis : x y z
#
# Youngs Moduli (GPa) = 66.98792 116.86303 115.71196
#
# Poissons Ratio (x) = -0.26105 -0.09268
# Poissons Ratio (y) = -0.14964 0.03933
# Poissons Ratio (z) = -0.05366 0.03972
#
# Static dielectric constant tensor:
#      x y z
#    x 2.131040 0.000000 -0.053250 
#    y 0.000000 1.851770 0.000000 
#    z -0.053250 0.000000 1.965370 
# 
# From -- ./inp_files/154163.got.cif
#   From: 2010.05.17/outbox.cif.g08.bks.cpg/sg15_78_cif.got.tgz:154163.got - 2010.06.03 18:47:42.
