data_PCOD9283725
_publ_section_title
;
Structure prediction by ZEFSAII (Michael W. Deem and Ramdas Pophale) SiO2 
 PCOD9283725
Probable space group: C 2/C
;
_chemical_formula_sum "Si O2"
_cell_formula_units_Z 56
_cell_length_a 15.336265
_cell_length_b 9.684698
_cell_length_c 23.119292
_cell_angle_alpha 90.000000
_cell_angle_beta 120.790008
_cell_angle_gamma 90.000000
_cell_volume 2949.838537
_symmetry_space_group_name_H-M "C 2/C"
_symmetry_group_IT_number 15
_symmetry_cell_setting 'monoclinic'
loop_
_space_group_symop_operation_xyz
x,y,z
-x,y,1/2-z
-x,-y,-z
x,-y,1/2+z
1/2+x,1/2+y,z
1/2-x,1/2+y,1/2-z
1/2-x,1/2-y,-z
1/2+x,1/2-y,1/2+z
loop_
_atom_site_type_symbol
_atom_site_label
_atom_site_fract_x
_atom_site_fract_y
_atom_site_fract_z
Si Si1 0.128945 0.791000 0.053545
Si Si2 0.756574 0.525084 0.045246
Si Si3 0.702928 0.981008 0.075081
Si Si4 0.382670 0.594389 0.715934
Si Si5 0.820070 0.019180 0.823294
Si Si6 0.400031 0.702293 0.433732
Si Si7 0.885860 0.576012 0.196869
O O1 0.153981 0.630608 0.064901
O O2 0.209362 0.873994 0.041151
O O3 0.139605 0.861385 0.120114
O O4 0.016620 0.813227 0.990506
O O5 0.671135 0.628047 0.042186
O O6 0.853371 0.546954 0.119683
O O7 0.781115 0.548421 0.987318
O O8 0.810713 0.973990 0.143848
O O9 0.633554 0.860897 0.078775
O O10 0.500000 0.554389 0.750000
O O11 0.344149 0.552955 0.766063
O O12 0.376278 0.759995 0.705024
O O13 0.872813 0.879917 0.865897
O O14 0.700348 0.999185 0.794566
O O15 0.000000 0.533468 0.250000
#
# Coordination Sequence:
#
# PCOD9283725 Si02
#       7
#     8   8   8   8   8   8   8
#     4  10  23  39  65  90 126 163 201 256 329 351
#     4  10  21  41  63  91 124 160 204 259 299 377
#     4  12  23  39  61  98 126 156 213 257 305 377
#     4  11  25  39  63  93 122 169 212 255 313 370
#     4  10  22  43  64  90 128 164 209 265 302 381
#     4  10  21  40  64  89 118 167 206 250 312 368
#     4   9  20  43  65  93 120 168 207 253 317 365
#
# _framework density 18.984089999999998
#
# number of rings (size 3 to 8) (size 9 to 14) (size 15 to 20)
#    0.000    2.000    2.857    3.000    6.000    1.143 
#    2.571    2.857    0.000    0.000    0.000    0.000 
#    0.000    0.000    0.000    0.000    0.000    0.000 
#
# Total GULP energy -156404.838540 kJ/mol
# GULP energy per Si atom -5585.887091 kJ/mol
# Density = 1.894088 g / cm^3
# Si number density = 18.984090 Si / 1000 Ang^3
#
#
#
# Elastic Constant Matrix: (Units=GPa)
#
#
# Indices 1 2 3 4 5 6 
#
# 1 69.2879 14.5983 91.5334 0.0000 22.2658 0.0000
# 2 14.5983 103.3152 31.9917 0.0000 13.2520 0.0000
# 3 91.5334 31.9917 165.1466 0.0000 18.2781 0.0000
# 4 0.0000 0.0000 0.0000 8.6001 0.0000 5.4959
# 5 22.2658 13.2520 18.2781 0.0000 45.0919 0.0000
# 6 0.0000 0.0000 0.0000 5.4959 0.0000 6.3087
#
#
#
# Elastic Compliance Matrix: (Units=1/GPa)
#
#
# Indices 1 2 3 4 5 6 
#
# 1 0.067691 0.004185 -0.036114 0.000000 -0.020016 0.000000
# 2 0.004185 0.010793 -0.004011 0.000000 -0.003613 0.000000
# 3 -0.036114 -0.004011 0.025906 0.000000 0.008510 0.000000
# 4 0.000000 0.000000 0.000000 0.262310 0.000000 -0.228515
# 5 -0.020016 -0.003613 0.008510 0.000000 0.029673 0.000000
# 6 0.000000 0.000000 0.000000 -0.228515 0.000000 0.357585
#
#
# Mechanical properties :
#
#
# Convention : Reuss Voigt Hill
#
# Bulk Modulus (GPa) = 30.75711 68.22184 49.48947
# Shear Modulus (GPa) = 5.97604 25.30856 15.64230
#
# Velocity S-wave (km/s) = 1.77616 3.65519 2.87360
# Velocity P-wave (km/s) = 4.52140 7.33677 6.09390
#
# Compressibility (1/GPa) = 0.03251281
#
# Stress axis : x y z
#
# Youngs Moduli (GPa) = 14.77299 92.65217 38.60044
#
# Poissons Ratio (x) = -0.38778 1.39400
# Poissons Ratio (y) = -0.06183 0.15481
# Poissons Ratio (z) = 0.53351 0.37160
#
# Static dielectric constant tensor:
#      x y z
#    x 1.638800 0.000000 0.010310 
#    y 0.000000 1.670440 0.000000 
#    z 0.010310 0.000000 1.641440 
# 
# From -- ./inp_files/273233.got.cif
#   From: 2010.05.17/outbox.cif.g08.bks.cpg/sg15_137_cif.got.tgz:273233.got - 2010.06.03 18:47:42.
