data_PCOD9283412
_publ_section_title
;
Structure prediction by ZEFSAII (Michael W. Deem and Ramdas Pophale) SiO2 
 PCOD9283412
Probable space group: C 2/C
;
_chemical_formula_sum "Si O2"
_cell_formula_units_Z 56
_cell_length_a 11.414608
_cell_length_b 8.938470
_cell_length_c 28.144694
_cell_angle_alpha 90.000000
_cell_angle_beta 108.200408
_cell_angle_gamma 90.000000
_cell_volume 2727.913099
_symmetry_space_group_name_H-M "C 2/C"
_symmetry_group_IT_number 15
_symmetry_cell_setting 'monoclinic'
loop_
_space_group_symop_operation_xyz
x,y,z
-x,y,1/2-z
-x,-y,-z
x,-y,1/2+z
1/2+x,1/2+y,z
1/2-x,1/2+y,1/2-z
1/2-x,1/2-y,-z
1/2+x,1/2-y,1/2+z
loop_
_atom_site_type_symbol
_atom_site_label
_atom_site_fract_x
_atom_site_fract_y
_atom_site_fract_z
Si Si1 0.201592 0.084443 0.003987
Si Si2 0.243012 0.288756 0.618419
Si Si3 0.647612 0.705107 0.269007
Si Si4 0.901618 0.626562 0.484583
Si Si5 0.205016 0.943729 0.617370
Si Si6 0.355511 0.930579 0.724164
Si Si7 0.946903 0.870795 0.567480
O O1 0.205791 0.076726 0.061001
O O2 0.250000 0.250000 0.000000
O O3 0.286917 0.947419 0.997277
O O4 0.082610 0.036897 0.957376
O O5 0.295144 0.352870 0.673752
O O6 0.129401 0.354651 0.574641
O O7 0.349286 0.303113 0.592059
O O8 0.206105 0.120404 0.624892
O O9 0.500000 0.664360 0.250000
O O10 0.745744 0.642504 0.242438
O O11 0.649464 0.888198 0.268422
O O12 0.946602 0.768864 0.519998
O O13 0.000000 0.500000 0.500000
O O14 0.315277 0.890141 0.664903
O O15 0.073959 0.871630 0.612500
O O16 0.500000 0.886316 0.750000
#
# Coordination Sequence:
#
# PCOD9283412 Si02
#       7
#     8   8   8   8   8   8   8
#     4  11  22  37  57  93 126 160 205 253 309 387
#     4  10  21  40  61  89 122 166 203 258 321 375
#     4  10  22  45  70  93 128 166 220 272 330 387
#     4  11  22  37  59  91 126 165 207 253 310 384
#     4  11  21  39  65  85 123 167 201 256 328 371
#     4  10  24  45  66  97 127 167 217 277 329 385
#     4  11  21  40  61  88 129 161 209 256 309 391
#
# _framework density 20.528513
#
# number of rings (size 3 to 8) (size 9 to 14) (size 15 to 20)
#    0.000    1.429    2.857    3.000    2.000    1.714 
#   12.857    0.000    0.000    0.000    0.000    0.000 
#    0.000    0.000    0.000    0.000    0.000    0.000 
#
# Total GULP energy -155873.100915 kJ/mol
# GULP energy per Si atom -5566.896461 kJ/mol
# Density = 2.048179 g / cm^3
# Si number density = 20.528513 Si / 1000 Ang^3
#
#
#
# Elastic Constant Matrix: (Units=GPa)
#
#
# Indices 1 2 3 4 5 6 
#
# 1 80.0247 12.3280 33.5549 0.0000 26.7277 0.0000
# 2 12.3280 50.8954 3.8280 0.0000 18.2298 0.0000
# 3 33.5549 3.8280 114.4801 0.0000 34.7810 0.0000
# 4 0.0000 0.0000 0.0000 17.0763 0.0000 -2.8416
# 5 26.7277 18.2298 34.7810 0.0000 38.5826 0.0000
# 6 0.0000 0.0000 0.0000 -2.8416 0.0000 37.4606
#
#
#
# Elastic Compliance Matrix: (Units=1/GPa)
#
#
# Indices 1 2 3 4 5 6 
#
# 1 0.016556 -0.000465 -0.001955 0.000000 -0.009487 0.000000
# 2 -0.000465 0.024784 0.003811 0.000000 -0.014824 0.000000
# 3 -0.001955 0.003811 0.012830 0.000000 -0.012013 0.000000
# 4 0.000000 0.000000 0.000000 0.059309 0.000000 0.004499
# 5 -0.009487 -0.014824 -0.012013 0.000000 0.050324 0.000000
# 6 0.000000 0.000000 0.000000 0.004499 0.000000 0.027036
#
#
# Mechanical properties :
#
#
# Convention : Reuss Voigt Hill
#
# Bulk Modulus (GPa) = 17.55840 38.31356 27.93598
# Shear Modulus (GPa) = 24.14982 31.66983 27.90983
#
# Velocity S-wave (km/s) = 3.43360 3.93201 3.69123
# Velocity P-wave (km/s) = 4.92861 6.27044 5.63957
#
# Compressibility (1/GPa) = 0.05695280
#
# Stress axis : x y z
#
# Youngs Moduli (GPa) = 60.40072 40.34919 77.94013
#
# Poissons Ratio (x) = 0.01877 0.15236
# Poissons Ratio (y) = 0.02809 -0.29705
# Poissons Ratio (z) = 0.11807 -0.15378
#
# Static dielectric constant tensor:
#      x y z
#    x 0.000000 0.000000 0.000000 
#    y 0.000000 0.000000 0.000000 
#    z 0.000000 0.000000 0.000000 
# 
# From -- ./inp_files/291623.got.cif
#   From: 2010.05.17/outbox.cif.g08.bks.cpg/sg15_146_cif.got.tgz:291623.got - 2010.06.03 18:47:42.
