data_PCOD9283750
_publ_section_title
;
Structure prediction by ZEFSAII (Michael W. Deem and Ramdas Pophale) SiO2 
 PCOD9283750
Probable space group: C 2/C
;
_chemical_formula_sum "Si O2"
_cell_formula_units_Z 52
_cell_length_a 8.587438
_cell_length_b 24.912456
_cell_length_c 12.326047
_cell_angle_alpha 90.000000
_cell_angle_beta 86.778993
_cell_angle_gamma 90.000000
_cell_volume 2632.796858
_symmetry_space_group_name_H-M "C 2/C"
_symmetry_group_IT_number 15
_symmetry_cell_setting 'monoclinic'
loop_
_space_group_symop_operation_xyz
x,y,z
-x,y,1/2-z
-x,-y,-z
x,-y,1/2+z
1/2+x,1/2+y,z
1/2-x,1/2+y,1/2-z
1/2-x,1/2-y,-z
1/2+x,1/2-y,1/2+z
loop_
_atom_site_type_symbol
_atom_site_label
_atom_site_fract_x
_atom_site_fract_y
_atom_site_fract_z
Si Si1 0.355372 0.168318 0.683773
Si Si2 0.325964 0.441725 0.812249
Si Si3 0.315319 0.436778 0.262970
Si Si4 0.000000 0.616744 0.250000
Si Si5 0.011333 0.317507 0.963277
Si Si6 0.286631 0.609541 0.541635
Si Si7 0.118792 0.212707 0.844727
O O1 0.500000 0.148825 0.750000
O O2 0.252571 0.114856 0.673407
O O3 0.390356 0.192516 0.565043
O O4 0.279225 0.210192 0.771164
O O5 0.500000 0.434927 0.750000
O O6 0.285913 0.505004 0.813018
O O7 0.164908 0.414186 0.771022
O O8 0.348000 0.419276 0.932681
O O9 0.500000 0.430840 0.250000
O O10 0.257575 0.431570 0.140799
O O11 0.957619 0.653828 0.355176
O O12 0.094872 0.263014 0.922953
O O13 0.131588 0.359156 0.012294
O O14 0.391445 0.657483 0.587486
O O15 0.000000 0.213984 0.750000
#
# Coordination Sequence:
#
# PCOD9283750 Si02
#       7
#     8   8   8   4   8   8   8
#     4  11  22  38  67  95 121 177 222 260 334 405
#     4  10  24  42  66  99 134 179 223 278 345 398
#     4  10  22  41  65  95 129 166 227 272 330 407
#     4  10  24  42  64  98 144 168 226 288 330 400
#     4  11  22  43  63  94 136 172 222 282 328 401
#     4  10  21  40  64  90 131 174 208 286 330 392
#     4  11  23  42  63  93 132 170 222 275 331 400
#
# _framework density 19.750859999999999
#
# number of rings (size 3 to 8) (size 9 to 14) (size 15 to 20)
#    0.000    1.538    3.846    2.308    1.077    6.769 
#    5.538    3.077    0.000    0.000    0.000    0.000 
#    0.000    0.000    0.000    0.000    0.000    0.000 
#
# Total GULP energy -144817.431090 kJ/mol
# GULP energy per Si atom -5569.901196 kJ/mol
# Density = 1.970591 g / cm^3
# Si number density = 19.750860 Si / 1000 Ang^3
#
#
#
# Elastic Constant Matrix: (Units=GPa)
#
#
# Indices 1 2 3 4 5 6 
#
# 1 59.0151 21.4564 26.5775 0.0000 -1.8188 0.0000
# 2 21.4564 90.2666 65.3023 0.0000 -17.7288 0.0000
# 3 26.5775 65.3023 162.0845 0.0000 -17.9496 0.0000
# 4 0.0000 0.0000 0.0000 35.9200 0.0000 14.9789
# 5 -1.8188 -17.7288 -17.9496 0.0000 36.3137 0.0000
# 6 0.0000 0.0000 0.0000 14.9789 0.0000 74.6273
#
#
#
# Elastic Compliance Matrix: (Units=1/GPa)
#
#
# Indices 1 2 3 4 5 6 
#
# 1 0.019013 -0.003472 -0.001905 0.000000 -0.001685 0.000000
# 2 -0.003472 0.017096 -0.005727 0.000000 0.005342 0.000000
# 3 -0.001905 -0.005727 0.008960 0.000000 0.001537 0.000000
# 4 0.000000 0.000000 0.000000 0.030383 0.000000 -0.006098
# 5 -0.001685 0.005342 0.001537 0.000000 0.030821 0.000000
# 6 0.000000 0.000000 0.000000 -0.006098 0.000000 0.014624
#
#
# Mechanical properties :
#
#
# Convention : Reuss Voigt Hill
#
# Bulk Modulus (GPa) = 43.74394 59.78206 51.76300
# Shear Modulus (GPa) = 33.17303 42.57421 37.87362
#
# Velocity S-wave (km/s) = 4.10271 4.64784 4.38376
# Velocity P-wave (km/s) = 6.68123 7.69006 7.20333
#
# Compressibility (1/GPa) = 0.02286031
#
# Stress axis : x y z
#
# Youngs Moduli (GPa) = 52.59477 58.49418 111.61201
#
# Poissons Ratio (x) = 0.20308 0.21267
# Poissons Ratio (y) = 0.18260 0.63919
# Poissons Ratio (z) = 0.10022 0.33499
#
# Static dielectric constant tensor:
#      x y z
#    x 1.893510 0.000000 -0.016140 
#    y 0.000000 1.687050 0.000000 
#    z -0.016140 0.000000 1.708520 
# 
# From -- ./inp_files/80699.got.cif
#   From: 2010.05.17/outbox.cif.g08.bks.cpg/sg15_41_cif.got.tgz:80699.got - 2010.06.03 18:47:42.
