data_PCOD9283021
_publ_section_title
;
Structure prediction by ZEFSAII (Michael W. Deem and Ramdas Pophale) SiO2 
 PCOD9283021
Probable space group: C 2/C
;
_chemical_formula_sum "Si O2"
_cell_formula_units_Z 28
_cell_length_a 11.962114
_cell_length_b 10.729602
_cell_length_c 9.169072
_cell_angle_alpha 90.000000
_cell_angle_beta 67.770186
_cell_angle_gamma 90.000000
_cell_volume 1089.368787
_symmetry_space_group_name_H-M "C 2/C"
_symmetry_group_IT_number 15
_symmetry_cell_setting 'monoclinic'
loop_
_space_group_symop_operation_xyz
x,y,z
-x,y,1/2-z
-x,-y,-z
x,-y,1/2+z
1/2+x,1/2+y,z
1/2-x,1/2+y,1/2-z
1/2-x,1/2-y,-z
1/2+x,1/2-y,1/2+z
loop_
_atom_site_type_symbol
_atom_site_label
_atom_site_fract_x
_atom_site_fract_y
_atom_site_fract_z
Si Si1 0.877411 0.732325 0.521269
Si Si2 0.000000 0.086112 0.750000
Si Si3 0.620810 0.027806 0.617500
Si Si4 0.718990 0.402378 0.706062
O O1 0.750000 0.750000 0.500000
O O2 0.914021 0.592587 0.465718
O O3 0.843127 0.779395 0.698240
O O4 0.974349 0.825022 0.400694
O O5 0.884229 0.999508 0.788477
O O6 0.500000 0.076725 0.750000
O O7 0.707028 0.970513 0.700429
O O8 0.693227 0.116810 0.473458
#
# Coordination Sequence:
#
# PCOD9283021 Si02
#       4
#     8   4   8   8
#     4  10  21  39  66  94 130 176 214 262 332 395
#     4  12  20  40  70  98 134 170 222 272 326 394
#     4  11  23  44  69  94 133 179 222 267 328 393
#     4  11  23  39  68 101 130 173 220 274 326 395
#
# _framework density 25.702959
#
# number of rings (size 3 to 8) (size 9 to 14) (size 15 to 20)
#    0.000    1.143    7.143    1.714    0.000    0.000 
#    0.000    1.429    9.429    0.000    0.000    0.000 
#    0.000    0.000    0.000    0.000    0.000    0.000 
#
# Total GULP energy -78533.119081 kJ/mol
# GULP energy per Si atom -5609.508506 kJ/mol
# Density = 2.564446 g / cm^3
# Si number density = 25.702959 Si / 1000 Ang^3
#
#
#
# Elastic Constant Matrix: (Units=GPa)
#
#
# Indices 1 2 3 4 5 6 
#
# 1 89.1168 46.5584 53.1637 0.0000 -14.9303 0.0000
# 2 46.5584 95.6819 57.2047 0.0000 -7.5465 0.0000
# 3 53.1637 57.2047 244.5551 0.0000 -37.3766 0.0000
# 4 0.0000 0.0000 0.0000 25.7465 0.0000 14.3233
# 5 -14.9303 -7.5465 -37.3766 0.0000 44.5451 0.0000
# 6 0.0000 0.0000 0.0000 14.3233 0.0000 22.6622
#
#
#
# Elastic Compliance Matrix: (Units=1/GPa)
#
#
# Indices 1 2 3 4 5 6 
#
# 1 0.016119 -0.006727 -0.001467 0.000000 0.003032 0.000000
# 2 -0.006727 0.014963 -0.002288 0.000000 -0.001640 0.000000
# 3 -0.001467 -0.002288 0.005516 0.000000 0.003749 0.000000
# 4 0.000000 0.000000 0.000000 0.059903 0.000000 -0.037861
# 5 0.003032 -0.001640 0.003749 0.000000 0.026333 0.000000
# 6 0.000000 0.000000 0.000000 -0.037861 0.000000 0.068056
#
#
# Mechanical properties :
#
#
# Convention : Reuss Voigt Hill
#
# Bulk Modulus (GPa) = 63.96548 82.57860 73.27204
# Shear Modulus (GPa) = 23.03431 36.75256 29.89344
#
# Velocity S-wave (km/s) = 2.99686 3.78550 3.41403
# Velocity P-wave (km/s) = 6.07580 7.16271 6.64153
#
# Compressibility (1/GPa) = 0.01563343
#
# Stress axis : x y z
#
# Youngs Moduli (GPa) = 62.03867 66.82929 181.28150
#
# Poissons Ratio (x) = 0.44957 0.26596
# Poissons Ratio (y) = 0.41734 0.41484
# Poissons Ratio (z) = 0.09102 0.15293
#
# Static dielectric constant tensor:
#      x y z
#    x 2.014560 0.000000 0.051730 
#    y 0.000000 2.014250 0.000000 
#    z 0.051730 0.000000 2.045390 
# 
# From -- ./inp_files/36684.got.cif
#   From: 2010.05.17/outbox.cif.g08.bks.cpg/sg15_19_cif.got.tgz:36684.got - 2010.06.03 18:47:42.
