data_PCOD9283839
_publ_section_title
;
Structure prediction by ZEFSAII (Michael W. Deem and Ramdas Pophale) SiO2 
 PCOD9283839
Probable space group: C 2/C
;
_chemical_formula_sum "Si O2"
_cell_formula_units_Z 44
_cell_length_a 27.909898
_cell_length_b 9.569864
_cell_length_c 8.674752
_cell_angle_alpha 90.000000
_cell_angle_beta 126.382349
_cell_angle_gamma 90.000000
_cell_volume 1865.341154
_symmetry_space_group_name_H-M "C 2/C"
_symmetry_group_IT_number 15
_symmetry_cell_setting 'monoclinic'
loop_
_space_group_symop_operation_xyz
x,y,z
-x,y,1/2-z
-x,-y,-z
x,-y,1/2+z
1/2+x,1/2+y,z
1/2-x,1/2+y,1/2-z
1/2-x,1/2-y,-z
1/2+x,1/2-y,1/2+z
loop_
_atom_site_type_symbol
_atom_site_label
_atom_site_fract_x
_atom_site_fract_y
_atom_site_fract_z
Si Si1 0.000000 0.870346 0.250000
Si Si2 0.933955 0.300100 0.849269
Si Si3 0.696289 0.580881 0.490782
Si Si4 0.611256 0.045329 0.544705
Si Si5 0.693403 0.892960 0.474274
Si Si6 0.384840 0.480558 0.404789
O O1 0.991515 0.778406 0.389838
O O2 0.057434 0.964419 0.395736
O O3 0.934616 0.430518 0.969749
O O4 0.909591 0.358757 0.637720
O O5 0.896798 0.175972 0.861757
O O6 0.713877 0.739301 0.560812
O O7 0.752792 0.525165 0.505279
O O8 0.635814 0.574725 0.276100
O O9 0.673169 0.508282 0.598414
O O10 0.640514 0.118875 0.747457
O O11 0.665384 0.963411 0.568385
#
# Coordination Sequence:
#
# PCOD9283839 Si02
#       6
#     4   8   8   8   8   8
#     4  12  26  46  72  98 130 174 232 288 344 378
#     4  11  24  44  69  97 131 182 222 282 331 398
#     4  11  23  39  66  98 135 173 219 267 338 398
#     4  10  22  44  66  94 137 171 224 268 333 399
#     4  10  21  40  64  99 135 175 212 267 329 409
#     4  12  24  44  66 102 133 175 225 284 336 393
#
# _framework density 23.588177999999999
#
# number of rings (size 3 to 8) (size 9 to 14) (size 15 to 20)
#    0.000    1.091    3.636    2.727    0.000    0.727 
#    0.000    3.636    0.000    0.000    0.000    0.000 
#    0.000    0.000    0.000    0.000    0.000    0.000 
#
# Total GULP energy -122659.837151 kJ/mol
# GULP energy per Si atom -5575.447143 kJ/mol
# Density = 2.353449 g / cm^3
# Si number density = 23.588178 Si / 1000 Ang^3
#
#
#
# Elastic Constant Matrix: (Units=GPa)
#
#
# Indices 1 2 3 4 5 6 
#
# 1 125.2336 24.1348 12.6442 0.0000 -18.4125 0.0000
# 2 24.1348 67.9788 20.8839 0.0000 -1.4622 0.0000
# 3 12.6442 20.8839 89.8694 0.0000 -4.3305 0.0000
# 4 0.0000 0.0000 0.0000 14.9520 0.0000 7.3178
# 5 -18.4125 -1.4622 -4.3305 0.0000 27.7781 0.0000
# 6 0.0000 0.0000 0.0000 7.3178 0.0000 1.3818
#
#
#
# Elastic Compliance Matrix: (Units=1/GPa)
#
#
# Indices 1 2 3 4 5 6 
#
# 1 0.009521 -0.003153 -0.000313 0.000000 0.006096 0.000000
# 2 -0.003153 0.016887 -0.003565 0.000000 -0.001757 0.000000
# 3 -0.000313 -0.003565 0.012071 0.000000 0.001487 0.000000
# 4 0.000000 0.000000 0.000000 -0.042012 0.000000 0.222492
# 5 0.006096 -0.001757 0.001487 0.000000 0.040179 0.000000
# 6 0.000000 0.000000 0.000000 0.222492 0.000000 -0.454602
#
#
# Mechanical properties :
#
#
# Convention : Reuss Voigt Hill
#
# Bulk Modulus (GPa) = 40.95537 44.26751 42.61144
# Shear Modulus (GPa) = -12.63414 23.85029 5.60808
#
# Velocity S-wave (km/s) = -2.31684 3.18325 1.54359
# Velocity P-wave (km/s) = 3.20052 5.68492 4.61312
#
# Compressibility (1/GPa) = 0.02441682
#
# Stress axis : x y z
#
# Youngs Moduli (GPa) = 105.03607 59.21589 82.83993
#
# Poissons Ratio (x) = 0.18670 0.02594
# Poissons Ratio (y) = 0.33116 0.29535
# Poissons Ratio (z) = 0.03289 0.21113
#
# Static dielectric constant tensor:
#      x y z
#    x 1.928730 0.000000 -0.003070 
#    y 0.000000 1.926750 0.000000 
#    z -0.003070 0.000000 1.875600 
# 
# From -- ./inp_files/68314.got.cif
#   From: 2010.05.17/outbox.cif.g08.bks.cpg/sg15_35_cif.got.tgz:68314.got - 2010.06.03 18:47:42.
