data_PCOD9283727
_publ_section_title
;
Structure prediction by ZEFSAII (Michael W. Deem and Ramdas Pophale) SiO2 
 PCOD9283727
Probable space group: C 2/C
;
_chemical_formula_sum "Si O2"
_cell_formula_units_Z 44
_cell_length_a 21.545037
_cell_length_b 8.614432
_cell_length_c 17.856490
_cell_angle_alpha 90.000000
_cell_angle_beta 138.219322
_cell_angle_gamma 90.000000
_cell_volume 2208.144231
_symmetry_space_group_name_H-M "C 2/C"
_symmetry_group_IT_number 15
_symmetry_cell_setting 'monoclinic'
loop_
_space_group_symop_operation_xyz
x,y,z
-x,y,1/2-z
-x,-y,-z
x,-y,1/2+z
1/2+x,1/2+y,z
1/2-x,1/2+y,1/2-z
1/2-x,1/2-y,-z
1/2+x,1/2-y,1/2+z
loop_
_atom_site_type_symbol
_atom_site_label
_atom_site_fract_x
_atom_site_fract_y
_atom_site_fract_z
Si Si1 0.656937 0.055510 0.888459
Si Si2 0.834775 0.898978 0.651675
Si Si3 0.738168 0.910017 0.187103
Si Si4 0.500000 0.617403 0.750000
Si Si5 0.644132 0.892614 0.725345
Si Si6 0.438348 0.869890 0.574917
O O1 0.637656 0.219753 0.831960
O O2 0.657098 0.923197 0.825507
O O3 0.584783 0.011159 0.888986
O O4 0.757192 0.067179 0.018268
O O5 0.786840 0.948220 0.686205
O O6 0.921383 0.009942 0.715169
O O7 0.811672 0.770994 0.258398
O O8 0.697370 0.974968 0.227297
O O9 0.651104 0.852792 0.058286
O O10 0.456353 0.724435 0.645681
O O11 0.533046 0.896654 0.614403
#
# Coordination Sequence:
#
# PCOD9283727 Si02
#       6
#     8   8   8   4   8   8
#     4  10  21  40  64  89 120 160 203 247 301 352
#     4  10  22  38  62  93 120 155 204 252 294 361
#     4  11  24  41  62  88 126 158 206 244 307 358
#     4  12  20  36  66  92 124 150 204 252 300 352
#     4  12  22  41  61  87 123 165 196 251 302 361
#     4  11  22  40  64  92 118 163 200 249 297 367
#
# _framework density 19.926233
#
# number of rings (size 3 to 8) (size 9 to 14) (size 15 to 20)
#    0.000    1.091    3.636    2.727    2.545    2.909 
#    0.000    0.909    0.000    0.000    0.000    0.000 
#    0.000    0.000    0.000    0.000    0.000    0.000 
#
# Total GULP energy -122979.564333 kJ/mol
# GULP energy per Si atom -5589.980197 kJ/mol
# Density = 1.988088 g / cm^3
# Si number density = 19.926233 Si / 1000 Ang^3
#
#
#
# Elastic Constant Matrix: (Units=GPa)
#
#
# Indices 1 2 3 4 5 6 
#
# 1 128.2279 43.2111 30.3420 0.0000 24.4266 0.0000
# 2 43.2111 82.8227 12.0899 0.0000 14.6603 0.0000
# 3 30.3420 12.0899 38.1734 0.0000 12.7077 0.0000
# 4 0.0000 0.0000 0.0000 26.6832 0.0000 5.8124
# 5 24.4266 14.6603 12.7077 0.0000 30.9153 0.0000
# 6 0.0000 0.0000 0.0000 5.8124 0.0000 39.7869
#
#
#
# Elastic Compliance Matrix: (Units=1/GPa)
#
#
# Indices 1 2 3 4 5 6 
#
# 1 0.011626 -0.004338 -0.006365 0.000000 -0.004513 0.000000
# 2 -0.004338 0.014996 -0.000087 0.000000 -0.003648 0.000000
# 3 -0.006365 -0.000087 0.034287 0.000000 -0.009023 0.000000
# 4 0.000000 0.000000 0.000000 0.038709 0.000000 -0.005655
# 5 -0.004513 -0.003648 -0.009023 0.000000 0.041351 0.000000
# 6 0.000000 0.000000 0.000000 -0.005655 0.000000 0.025960
#
#
# Mechanical properties :
#
#
# Convention : Reuss Voigt Hill
#
# Bulk Modulus (GPa) = 25.42658 46.72333 36.07496
# Shear Modulus (GPa) = 24.79953 30.38250 27.59102
#
# Velocity S-wave (km/s) = 3.53167 3.90904 3.72514
# Velocity P-wave (km/s) = 5.42386 6.62368 6.05357
#
# Compressibility (1/GPa) = 0.03932892
#
# Stress axis : x y z
#
# Youngs Moduli (GPa) = 86.01322 66.68638 29.16585
#
# Poissons Ratio (x) = 0.28927 0.18564
# Poissons Ratio (y) = 0.37311 0.00254
# Poissons Ratio (z) = 0.54747 0.00580
#
# Static dielectric constant tensor:
#      x y z
#    x 1.689580 0.000000 0.008300 
#    y 0.000000 1.696670 0.000000 
#    z 0.008300 0.000000 1.682360 
# 
# From -- ./inp_files/110177.got.cif
#   From: 2010.05.17/outbox.cif.g08.bks.cpg/sg15_56_cif.got.tgz:110177.got - 2010.06.03 18:47:42.
