data_PCOD9283601
_publ_section_title
;
Structure prediction by ZEFSAII (Michael W. Deem and Ramdas Pophale) SiO2 
 PCOD9283601
Probable space group: C 2/C
;
_chemical_formula_sum "Si O2"
_cell_formula_units_Z 56
_cell_length_a 21.408769
_cell_length_b 7.897395
_cell_length_c 16.439297
_cell_angle_alpha 90.000000
_cell_angle_beta 85.386783
_cell_angle_gamma 90.000000
_cell_volume 2770.445128
_symmetry_space_group_name_H-M "C 2/C"
_symmetry_group_IT_number 15
_symmetry_cell_setting 'monoclinic'
loop_
_space_group_symop_operation_xyz
x,y,z
-x,y,1/2-z
-x,-y,-z
x,-y,1/2+z
1/2+x,1/2+y,z
1/2-x,1/2+y,1/2-z
1/2-x,1/2-y,-z
1/2+x,1/2-y,1/2+z
loop_
_atom_site_type_symbol
_atom_site_label
_atom_site_fract_x
_atom_site_fract_y
_atom_site_fract_z
Si Si1 0.230707 0.771304 0.670393
Si Si2 0.392700 0.215821 0.711106
Si Si3 0.700441 0.334769 0.184808
Si Si4 0.739435 0.037983 0.057425
Si Si5 0.500000 0.465145 0.750000
Si Si6 0.000000 0.467913 0.750000
Si Si7 0.644142 0.253550 0.971916
Si Si8 0.437578 0.293780 0.370575
O O1 0.168717 0.713579 0.726593
O O2 0.287365 0.711835 0.722741
O O3 0.227043 0.975804 0.663589
O O4 0.233757 0.652039 0.590822
O O5 0.437228 0.364709 0.737697
O O6 0.372739 0.236360 0.620082
O O7 0.440180 0.062155 0.718716
O O8 0.730531 0.178219 0.130923
O O9 0.627962 0.329098 0.168674
O O10 0.808442 0.087768 0.018436
O O11 0.684926 0.093683 0.000660
O O12 0.514669 0.565245 0.665610
O O13 0.969102 0.369688 0.828322
O O14 0.583071 0.276330 0.034363
#
# Coordination Sequence:
#
# PCOD9283601 Si02
#       8
#     8   8   8   8   4   4   8   8
#     4  12  21  37  68  98 122 166 213 260 312 386
#     4  11  21  39  65  92 121 163 213 263 315 364
#     4  11  20  35  66  93 123 162 207 262 311 372
#     4  10  22  39  60  96 133 162 201 254 333 386
#     4  10  22  40  62  86 118 168 224 250 294 386
#     4  10  24  40  68  90 116 172 224 256 296 390
#     4  10  21  40  63  88 136 164 193 273 328 366
#     4  10  22  42  61  88 126 164 211 260 316 371
#
# _framework density 20.213356999999998
#
# number of rings (size 3 to 8) (size 9 to 14) (size 15 to 20)
#    0.000    1.429    4.286    1.714    0.000    1.143 
#    0.000    6.429   12.571    0.000    0.000    0.000 
#    0.000    0.000    0.000    0.000    0.000    0.000 
#
# Total GULP energy -156185.549134 kJ/mol
# GULP energy per Si atom -5578.055326 kJ/mol
# Density = 2.016735 g / cm^3
# Si number density = 20.213357 Si / 1000 Ang^3
#
#
#
# Elastic Constant Matrix: (Units=GPa)
#
#
# Indices 1 2 3 4 5 6 
#
# 1 39.0279 3.1132 19.7259 0.0000 -11.9623 0.0000
# 2 3.1132 74.8553 10.6384 0.0000 -4.3558 0.0000
# 3 19.7259 10.6384 87.5502 0.0000 -8.0712 0.0000
# 4 0.0000 0.0000 0.0000 40.3163 0.0000 -2.1827
# 5 -11.9623 -4.3558 -8.0712 0.0000 48.3096 0.0000
# 6 0.0000 0.0000 0.0000 -2.1827 0.0000 36.1086
#
#
#
# Elastic Compliance Matrix: (Units=1/GPa)
#
#
# Indices 1 2 3 4 5 6 
#
# 1 0.030845 0.000001 -0.006343 0.000000 0.006578 0.000000
# 2 0.000001 0.013638 -0.001568 0.000000 0.000968 0.000000
# 3 -0.006343 -0.001568 0.013086 0.000000 0.000474 0.000000
# 4 0.000000 0.000000 0.000000 0.024885 0.000000 0.001504
# 5 0.006578 0.000968 0.000474 0.000000 0.022495 0.000000
# 6 0.000000 0.000000 0.000000 0.001504 0.000000 0.027785
#
#
# Mechanical properties :
#
#
# Convention : Reuss Voigt Hill
#
# Bulk Modulus (GPa) = 23.95309 29.82092 26.88701
# Shear Modulus (GPa) = 30.77472 36.14394 33.45933
#
# Velocity S-wave (km/s) = 3.90615 4.23321 4.07296
# Velocity P-wave (km/s) = 5.67625 6.21920 5.95392
#
# Compressibility (1/GPa) = 0.04174827
#
# Stress axis : x y z
#
# Youngs Moduli (GPa) = 32.42019 73.32308 76.42032
#
# Poissons Ratio (x) = -0.00011 0.48477
# Poissons Ratio (y) = -0.00005 0.11985
# Poissons Ratio (z) = 0.20565 0.11499
#
# Static dielectric constant tensor:
#      x y z
#    x 1.663080 0.000000 -0.006350 
#    y 0.000000 1.782630 0.000000 
#    z -0.006350 0.000000 1.697440 
# 
# From -- ./inp_files/213435.got.cif
#   From: 2010.05.17/outbox.cif.g08.bks.cpg/sg15_107_cif.got.tgz:213435.got - 2010.06.03 18:47:42.
