data_PCOD9283854
_publ_section_title
;
Structure prediction by ZEFSAII (Michael W. Deem and Ramdas Pophale) SiO2 
 PCOD9283854
Probable space group: C 2/C
;
_chemical_formula_sum "Si O2"
_cell_formula_units_Z 64
_cell_length_a 17.271186
_cell_length_b 15.057588
_cell_length_c 13.339722
_cell_angle_alpha 90.000000
_cell_angle_beta 66.915130
_cell_angle_gamma 90.000000
_cell_volume 3191.367399
_symmetry_space_group_name_H-M "C 2/C"
_symmetry_group_IT_number 15
_symmetry_cell_setting 'monoclinic'
loop_
_space_group_symop_operation_xyz
x,y,z
-x,y,1/2-z
-x,-y,-z
x,-y,1/2+z
1/2+x,1/2+y,z
1/2-x,1/2+y,1/2-z
1/2-x,1/2-y,-z
1/2+x,1/2-y,1/2+z
loop_
_atom_site_type_symbol
_atom_site_label
_atom_site_fract_x
_atom_site_fract_y
_atom_site_fract_z
Si Si1 0.582109 0.124042 0.847283
Si Si2 0.410368 0.507019 0.491902
Si Si3 0.108844 0.641965 0.610194
Si Si4 0.315571 0.637352 0.936624
Si Si5 0.223989 0.755252 0.851664
Si Si6 0.823680 0.512313 0.555217
Si Si7 0.093715 0.162190 0.160695
Si Si8 0.297747 0.434601 0.727332
O O1 0.602899 0.094940 0.722476
O O2 0.801355 0.191412 0.841298
O O3 0.649467 0.202123 0.835055
O O4 0.596121 0.056468 0.932293
O O5 0.500000 0.500000 0.500000
O O6 0.390795 0.431410 0.417515
O O7 0.404616 0.600823 0.438785
O O8 0.657856 0.515531 0.387249
O O9 0.984770 0.650599 0.889248
O O10 0.161081 0.578645 0.510875
O O11 0.136936 0.743271 0.615213
O O12 0.228654 0.580370 0.987199
O O13 0.317264 0.709139 0.024059
O O14 0.249431 0.845488 0.784520
O O15 0.762958 0.496892 0.680313
O O16 0.135607 0.104568 0.227346
O O17 0.000000 0.181337 0.250000
#
# Coordination Sequence:
#
# PCOD9283854 Si02
#       8
#     8   8   8   8   8   8   8   8
#     4  10  21  40  65  84 118 164 204 252 310 367
#     4  11  23  37  64  88 123 166 202 248 307 372
#     4  11  23  40  62  92 120 162 210 254 309 370
#     4   9  20  37  59  87 114 160 206 247 299 364
#     4   9  18  38  61  83 116 160 204 248 303 365
#     4  11  24  39  60  90 126 158 208 260 307 360
#     4  12  21  41  62  92 125 163 208 256 309 372
#     4  11  22  39  60  90 125 162 205 255 310 364
#
# _framework density 20.054099000000001
#
# number of rings (size 3 to 8) (size 9 to 14) (size 15 to 20)
#    0.000    1.500    5.000    0.375    5.250    0.500 
#    4.500    0.000    0.000    1.500    0.000    0.000 
#    0.000    0.000    0.000    0.000    0.000    0.000 
#
# Total GULP energy -178381.803032 kJ/mol
# GULP energy per Si atom -5574.431345 kJ/mol
# Density = 2.000846 g / cm^3
# Si number density = 20.054099 Si / 1000 Ang^3
#
#
#
# Elastic Constant Matrix: (Units=GPa)
#
#
# Indices 1 2 3 4 5 6 
#
# 1 79.4584 17.1350 16.7053 0.0000 24.5104 0.0000
# 2 17.1350 98.4214 42.1615 0.0000 9.8258 0.0000
# 3 16.7053 42.1615 72.5574 0.0000 11.2463 0.0000
# 4 0.0000 0.0000 0.0000 44.5070 0.0000 11.6689
# 5 24.5104 9.8258 11.2463 0.0000 26.2609 0.0000
# 6 0.0000 0.0000 0.0000 11.6689 0.0000 28.4641
#
#
#
# Elastic Compliance Matrix: (Units=1/GPa)
#
#
# Indices 1 2 3 4 5 6 
#
# 1 0.017941 -0.001095 -0.001031 0.000000 -0.015894 0.000000
# 2 -0.001095 0.013676 -0.007562 0.000000 -0.000856 0.000000
# 3 -0.001031 -0.007562 0.019093 0.000000 -0.004385 0.000000
# 4 0.000000 0.000000 0.000000 0.025174 0.000000 -0.010320
# 5 -0.015894 -0.000856 -0.004385 0.000000 0.055112 0.000000
# 6 0.000000 0.000000 0.000000 -0.010320 0.000000 0.039363
#
#
# Mechanical properties :
#
#
# Convention : Reuss Voigt Hill
#
# Bulk Modulus (GPa) = 31.91380 44.71564 38.31472
# Shear Modulus (GPa) = 24.97759 31.47543 28.22651
#
# Velocity S-wave (km/s) = 3.53301 3.96602 3.75576
# Velocity P-wave (km/s) = 5.70888 6.58167 6.16075
#
# Compressibility (1/GPa) = 0.03133441
#
# Stress axis : x y z
#
# Youngs Moduli (GPa) = 55.73895 73.12138 52.37454
#
# Poissons Ratio (x) = 0.08008 0.05398
# Poissons Ratio (y) = 0.06105 0.39605
# Poissons Ratio (z) = 0.05745 0.55293
#
# Static dielectric constant tensor:
#      x y z
#    x 1.772210 0.000000 0.019740 
#    y 0.000000 1.743350 0.000000 
#    z 0.019740 0.000000 1.703210 
# 
# From -- ./inp_files/162800.got.cif
#   From: 2010.05.17/outbox.cif.g08.bks.cpg/sg15_82_cif.got.tgz:162800.got - 2010.06.03 18:47:42.
