data_PCOD9283623
_publ_section_title
;
Structure prediction by ZEFSAII (Michael W. Deem and Ramdas Pophale) SiO2 
 PCOD9283623
Probable space group: C 2/C
;
_chemical_formula_sum "Si O2"
_cell_formula_units_Z 64
_cell_length_a 19.291226
_cell_length_b 19.279718
_cell_length_c 14.493395
_cell_angle_alpha 90.000000
_cell_angle_beta 149.233180
_cell_angle_gamma 90.000000
_cell_volume 2757.495297
_symmetry_space_group_name_H-M "C 2/C"
_symmetry_group_IT_number 15
_symmetry_cell_setting 'monoclinic'
loop_
_space_group_symop_operation_xyz
x,y,z
-x,y,1/2-z
-x,-y,-z
x,-y,1/2+z
1/2+x,1/2+y,z
1/2-x,1/2+y,1/2-z
1/2-x,1/2-y,-z
1/2+x,1/2-y,1/2+z
loop_
_atom_site_type_symbol
_atom_site_label
_atom_site_fract_x
_atom_site_fract_y
_atom_site_fract_z
Si Si1 0.827713 0.448318 0.717039
Si Si2 0.973454 0.587843 0.886134
Si Si3 0.726811 0.327639 0.090593
Si Si4 0.299855 0.203036 0.144022
Si Si5 0.008593 0.055584 0.899654
Si Si6 0.527689 0.410998 0.630678
Si Si7 0.799034 0.330857 0.957230
Si Si8 0.983770 0.206875 0.628784
O O1 0.894124 0.519727 0.756640
O O2 0.831941 0.377460 0.661399
O O3 0.669577 0.456565 0.565408
O O4 0.921151 0.432368 0.912840
O O5 0.852657 0.636770 0.786686
O O6 0.069406 0.627780 0.924451
O O7 0.696081 0.247586 0.073369
O O8 0.589375 0.370494 0.949868
O O9 0.777733 0.330574 0.043039
O O10 0.426491 0.244083 0.330834
O O11 0.250000 0.250000 0.000000
O O12 0.174304 0.203020 0.070781
O O13 0.975645 0.069172 0.969231
O O14 0.964228 0.128260 0.805448
O O15 0.937613 0.985551 0.784750
O O16 0.661324 0.367103 0.766840
O O17 0.000000 0.237817 0.750000
#
# Coordination Sequence:
#
# PCOD9283623 Si02
#       8
#     8   8   8   8   8   8   8   8
#     4  10  21  41  67  92 134 171 214 282 323 392
#     4  11  22  42  66  95 129 175 221 265 340 399
#     4  11  24  42  65  93 132 168 213 274 332 392
#     4   9  19  39  60  88 126 164 205 259 323 375
#     4  10  21  40  63  90 123 163 216 263 317 387
#     4  11  22  41  64  90 124 164 213 263 325 392
#     4  11  24  42  63  96 131 167 214 275 328 399
#     4   9  19  37  59  85 122 160 203 263 312 381
#
# _framework density 23.209468000000001
#
# number of rings (size 3 to 8) (size 9 to 14) (size 15 to 20)
#    0.000    1.750    2.500    1.500    0.000    5.000 
#    6.750    2.500    0.000    0.000    0.000    0.000 
#    0.000    0.000    0.000    0.000    0.000    0.000 
#
# Total GULP energy -178607.872722 kJ/mol
# GULP energy per Si atom -5581.496023 kJ/mol
# Density = 2.315664 g / cm^3
# Si number density = 23.209468 Si / 1000 Ang^3
#
#
#
# Elastic Constant Matrix: (Units=GPa)
#
#
# Indices 1 2 3 4 5 6 
#
# 1 57.8714 44.1416 20.3857 0.0000 19.8402 0.0000
# 2 44.1416 196.4607 49.1444 0.0000 40.7496 0.0000
# 3 20.3857 49.1444 67.2376 0.0000 33.4201 0.0000
# 4 0.0000 0.0000 0.0000 69.2725 0.0000 56.5353
# 5 19.8402 40.7496 33.4201 0.0000 44.2331 0.0000
# 6 0.0000 0.0000 0.0000 56.5353 0.0000 95.3760
#
#
#
# Elastic Compliance Matrix: (Units=1/GPa)
#
#
# Indices 1 2 3 4 5 6 
#
# 1 0.022413 -0.003491 -0.001354 0.000000 -0.005814 0.000000
# 2 -0.003491 0.007171 -0.002686 0.000000 -0.003011 0.000000
# 3 -0.001354 -0.002686 0.025165 0.000000 -0.015931 0.000000
# 4 0.000000 0.000000 0.000000 0.027964 0.000000 -0.016576
# 5 -0.005814 -0.003011 -0.015931 0.000000 0.040026 0.000000
# 6 0.000000 0.000000 0.000000 -0.016576 0.000000 0.020310
#
#
# Mechanical properties :
#
#
# Convention : Reuss Voigt Hill
#
# Bulk Modulus (GPa) = 25.19780 60.99033 43.09407
# Shear Modulus (GPa) = 29.18174 55.63621 42.40897
#
# Velocity S-wave (km/s) = 3.54972 4.90137 4.27925
# Velocity P-wave (km/s) = 5.26127 7.63979 6.55924
#
# Compressibility (1/GPa) = 0.03968600
#
# Stress axis : x y z
#
# Youngs Moduli (GPa) = 44.61760 139.45161 39.73734
#
# Poissons Ratio (x) = 0.48686 0.05380
# Poissons Ratio (y) = 0.15577 0.10675
# Poissons Ratio (z) = 0.06040 0.37462
#
# Static dielectric constant tensor:
#      x y z
#    x 1.940980 0.000000 -0.011760 
#    y 0.000000 1.924570 0.000000 
#    z -0.011760 0.000000 1.976480 
# 
# From -- ./inp_files/216177.got.cif
#   From: 2010.05.17/outbox.cif.g08.bks.cpg/sg15_109_cif.got.tgz:216177.got - 2010.06.03 18:47:42.
