data_PCOD9283985
_publ_section_title
;
Structure prediction by ZEFSAII (Michael W. Deem and Ramdas Pophale) SiO2 
 PCOD9283985
Probable space group: C 2/C
;
_chemical_formula_sum "Si O2"
_cell_formula_units_Z 64
_cell_length_a 18.512992
_cell_length_b 13.295721
_cell_length_c 17.145475
_cell_angle_alpha 90.000000
_cell_angle_beta 135.277619
_cell_angle_gamma 90.000000
_cell_volume 2969.672008
_symmetry_space_group_name_H-M "C 2/C"
_symmetry_group_IT_number 15
_symmetry_cell_setting 'monoclinic'
loop_
_space_group_symop_operation_xyz
x,y,z
-x,y,1/2-z
-x,-y,-z
x,-y,1/2+z
1/2+x,1/2+y,z
1/2-x,1/2+y,1/2-z
1/2-x,1/2-y,-z
1/2+x,1/2-y,1/2+z
loop_
_atom_site_type_symbol
_atom_site_label
_atom_site_fract_x
_atom_site_fract_y
_atom_site_fract_z
Si Si1 0.105056 0.450931 0.607873
Si Si2 0.208286 0.933006 0.860254
Si Si3 0.697616 0.851129 0.250397
Si Si4 0.049349 0.830384 0.619082
Si Si5 0.645257 0.607372 0.039741
Si Si6 0.342153 0.224754 0.255024
Si Si7 0.675079 0.623560 0.508339
Si Si8 0.889597 0.130032 0.659298
O O1 0.183048 0.420757 0.598703
O O2 0.166148 0.536409 0.703649
O O3 0.085654 0.350439 0.642521
O O4 0.000000 0.500000 0.500000
O O5 0.119848 0.897207 0.732089
O O6 0.192143 0.049827 0.871632
O O7 0.199964 0.876635 0.936269
O O8 0.603115 0.778003 0.159816
O O9 0.793030 0.810557 0.272241
O O10 0.733455 0.838688 0.366782
O O11 0.059340 0.876517 0.539779
O O12 0.933271 0.824265 0.558248
O O13 0.746755 0.655672 0.154608
O O14 0.657245 0.491427 0.024760
O O15 0.626672 0.659982 0.942425
O O16 0.390827 0.276327 0.217729
O O17 0.000000 0.076356 0.750000
#
# Coordination Sequence:
#
# PCOD9283985 Si02
#       8
#     8   8   8   8   8   8   8   8
#     4  12  26  48  71  99 142 192 236 285 368 428
#     4  11  22  46  68 102 140 177 232 304 336 417
#     4  11  24  43  69  98 139 183 232 287 342 433
#     4  11  23  40  70 101 135 184 236 274 359 419
#     4  10  21  40  65  99 136 174 224 297 344 403
#     4  11  23  44  68  95 139 184 231 284 346 419
#     4  11  23  40  70  97 139 178 231 294 349 405
#     4  11  24  39  70 106 138 173 229 291 358 407
#
# _framework density 21.551202
#
# number of rings (size 3 to 8) (size 9 to 14) (size 15 to 20)
#    0.000    1.000    5.000    2.625    3.500    1.500 
#    4.500    1.875    0.000    0.000    0.000    0.000 
#    0.000    0.000    0.000    0.000    0.000    0.000 
#
# Total GULP energy -179028.216821 kJ/mol
# GULP energy per Si atom -5594.631776 kJ/mol
# Density = 2.150215 g / cm^3
# Si number density = 21.551202 Si / 1000 Ang^3
#
#
#
# Elastic Constant Matrix: (Units=GPa)
#
#
# Indices 1 2 3 4 5 6 
#
# 1 79.1647 24.5250 39.9938 0.0000 -26.0320 0.0000
# 2 24.5250 70.6554 24.7650 0.0000 -19.3678 0.0000
# 3 39.9938 24.7650 90.4538 0.0000 -24.2510 0.0000
# 4 0.0000 0.0000 0.0000 39.2314 0.0000 -11.1023
# 5 -26.0320 -19.3678 -24.2510 0.0000 42.3302 0.0000
# 6 0.0000 0.0000 0.0000 -11.1023 0.0000 14.7495
#
#
#
# Elastic Compliance Matrix: (Units=1/GPa)
#
#
# Indices 1 2 3 4 5 6 
#
# 1 0.018579 -0.002547 -0.005631 0.000000 0.007034 0.000000
# 2 -0.002547 0.017197 -0.002236 0.000000 0.005021 0.000000
# 3 -0.005631 -0.002236 0.015306 0.000000 0.004282 0.000000
# 4 0.000000 0.000000 0.000000 0.032389 0.000000 0.024380
# 5 0.007034 0.005021 0.004282 0.000000 0.032700 0.000000
# 6 0.000000 0.000000 0.000000 0.024380 0.000000 0.086150
#
#
# Mechanical properties :
#
#
# Convention : Reuss Voigt Hill
#
# Bulk Modulus (GPa) = 33.05458 46.53795 39.79627
# Shear Modulus (GPa) = 21.43763 29.32824 25.38294
#
# Velocity S-wave (km/s) = 3.15736 3.69299 3.43563
# Velocity P-wave (km/s) = 5.35377 6.31072 5.85184
#
# Compressibility (1/GPa) = 0.03025299
#
# Stress axis : x y z
#
# Youngs Moduli (GPa) = 53.82445 58.14832 65.33548
#
# Poissons Ratio (x) = 0.14810 0.36793
# Poissons Ratio (y) = 0.13709 0.14610
# Poissons Ratio (z) = 0.30311 0.13003
#
# Static dielectric constant tensor:
#      x y z
#    x 1.741870 0.000000 -0.006190 
#    y 0.000000 1.804530 0.000000 
#    z -0.006190 0.000000 1.802150 
# 
# From -- ./inp_files/162579.got.cif
#   From: 2010.05.17/outbox.cif.g08.bks.cpg/sg15_82_cif.got.tgz:162579.got - 2010.06.03 18:47:42.
