data_PCOD9283632
_publ_section_title
;
Structure prediction by ZEFSAII (Michael W. Deem and Ramdas Pophale) SiO2 
 PCOD9283632
Probable space group: C 2/C
;
_chemical_formula_sum "Si O2"
_cell_formula_units_Z 52
_cell_length_a 14.827331
_cell_length_b 19.397059
_cell_length_c 15.087303
_cell_angle_alpha 90.000000
_cell_angle_beta 148.817374
_cell_angle_gamma 90.000000
_cell_volume 2246.701427
_symmetry_space_group_name_H-M "C 2/C"
_symmetry_group_IT_number 15
_symmetry_cell_setting 'monoclinic'
loop_
_space_group_symop_operation_xyz
x,y,z
-x,y,1/2-z
-x,-y,-z
x,-y,1/2+z
1/2+x,1/2+y,z
1/2-x,1/2+y,1/2-z
1/2-x,1/2-y,-z
1/2+x,1/2-y,1/2+z
loop_
_atom_site_type_symbol
_atom_site_label
_atom_site_fract_x
_atom_site_fract_y
_atom_site_fract_z
Si Si1 0.939210 0.664402 0.073831
Si Si2 0.498296 0.004807 0.105089
Si Si3 0.633038 0.297560 0.182260
Si Si4 0.500000 0.224505 0.750000
Si Si5 0.781155 0.975693 0.485785
Si Si6 0.862878 0.167291 0.016220
Si Si7 0.360121 0.635189 0.557001
O O1 0.792242 0.672813 0.873580
O O2 0.821812 0.668337 0.064864
O O3 0.007372 0.586604 0.131741
O O4 0.084100 0.720430 0.171920
O O5 0.655245 0.971655 0.293278
O O6 0.329244 0.975192 0.015110
O O7 0.500000 0.000000 0.000000
O O8 0.670344 0.312872 0.112404
O O9 0.449983 0.336376 0.045952
O O10 0.674603 0.180478 0.903969
O O11 0.500214 0.277838 0.668568
O O12 0.908057 0.911332 0.577656
O O13 0.855353 0.052799 0.548174
O O14 0.500000 0.655119 0.750000
#
# Coordination Sequence:
#
# PCOD9283632 Si02
#       7
#     8   8   8   4   8   8   8
#     4  10  22  38  62  91 127 165 204 259 314 367
#     4  10  21  40  63  91 122 170 212 256 310 387
#     4  11  22  38  62  91 124 162 210 256 311 383
#     4  10  24  42  60  88 122 158 204 254 316 366
#     4  10  22  39  64  90 127 161 210 263 316 371
#     4  11  23  42  64  90 122 165 205 261 314 371
#     4   9  21  40  58  90 128 163 203 258 315 369
#
# _framework density 23.145042
#
# number of rings (size 3 to 8) (size 9 to 14) (size 15 to 20)
#    0.000    1.846    0.000    3.231    3.231    3.077 
#    8.308    0.000    0.000    0.000    0.000    0.000 
#    0.000    0.000    0.000    0.000    0.000    0.000 
#
# Total GULP energy -145245.559366 kJ/mol
# GULP energy per Si atom -5586.367668 kJ/mol
# Density = 2.309236 g / cm^3
# Si number density = 23.145042 Si / 1000 Ang^3
#
#
#
# Elastic Constant Matrix: (Units=GPa)
#
#
# Indices 1 2 3 4 5 6 
#
# 1 80.1467 30.0800 15.8046 0.0000 -26.3743 0.0000
# 2 30.0800 108.8067 -1.8601 0.0000 0.4708 0.0000
# 3 15.8046 -1.8601 70.8405 0.0000 -8.0201 0.0000
# 4 0.0000 0.0000 0.0000 32.6459 0.0000 -3.0461
# 5 -26.3743 0.4708 -8.0201 0.0000 35.7883 0.0000
# 6 0.0000 0.0000 0.0000 -3.0461 0.0000 15.6852
#
#
#
# Elastic Compliance Matrix: (Units=1/GPa)
#
#
# Indices 1 2 3 4 5 6 
#
# 1 0.019748 -0.005571 -0.002972 0.000000 0.013961 0.000000
# 2 -0.005571 0.010766 0.001072 0.000000 -0.004007 0.000000
# 3 -0.002972 0.001072 0.014937 0.000000 0.001143 0.000000
# 4 0.000000 0.000000 0.000000 0.031197 0.000000 0.006059
# 5 0.013961 -0.004007 0.001143 0.000000 0.038539 0.000000
# 6 0.000000 0.000000 0.000000 0.006059 0.000000 0.064931
#
#
# Mechanical properties :
#
#
# Convention : Reuss Voigt Hill
#
# Bulk Modulus (GPa) = 32.77560 38.64922 35.71241
# Shear Modulus (GPa) = 24.36305 31.20850 27.78578
#
# Velocity S-wave (km/s) = 3.24794 3.67602 3.46859
# Velocity P-wave (km/s) = 5.31575 5.89512 5.61292
#
# Compressibility (1/GPa) = 0.03051050
#
# Stress axis : x y z
#
# Youngs Moduli (GPa) = 50.63829 92.88254 66.94900
#
# Poissons Ratio (x) = 0.51741 0.19894
# Poissons Ratio (y) = 0.28209 -0.07176
# Poissons Ratio (z) = 0.15047 -0.09956
#
# Static dielectric constant tensor:
#      x y z
#    x 1.923510 0.000000 0.016760 
#    y 0.000000 1.872890 0.000000 
#    z 0.016760 0.000000 1.898090 
# 
# From -- ./inp_files/155552.got.cif
#   From: 2010.05.17/outbox.cif.g08.bks.cpg/sg15_78_cif.got.tgz:155552.got - 2010.06.03 18:47:42.
