data_PCOD9283171
_publ_section_title
;
Structure prediction by ZEFSAII (Michael W. Deem and Ramdas Pophale) SiO2 
 PCOD9283171
Probable space group: C 2/C
;
_chemical_formula_sum "Si O2"
_cell_formula_units_Z 60
_cell_length_a 22.842359
_cell_length_b 8.978280
_cell_length_c 18.175398
_cell_angle_alpha 90.000000
_cell_angle_beta 41.083634
_cell_angle_gamma 90.000000
_cell_volume 2449.565910
_symmetry_space_group_name_H-M "C 2/C"
_symmetry_group_IT_number 15
_symmetry_cell_setting 'monoclinic'
loop_
_space_group_symop_operation_xyz
x,y,z
-x,y,1/2-z
-x,-y,-z
x,-y,1/2+z
1/2+x,1/2+y,z
1/2-x,1/2+y,1/2-z
1/2-x,1/2-y,-z
1/2+x,1/2-y,1/2+z
loop_
_atom_site_type_symbol
_atom_site_label
_atom_site_fract_x
_atom_site_fract_y
_atom_site_fract_z
Si Si1 0.119709 0.867656 0.411429
Si Si2 0.866339 0.331629 0.318858
Si Si3 0.787991 0.358885 0.163625
Si Si4 0.547238 0.308727 0.019684
Si Si5 0.310419 0.857812 0.540189
Si Si6 0.686612 0.857512 0.656974
Si Si7 0.374712 0.363617 0.403713
Si Si8 0.500000 0.632693 0.250000
O O1 0.219177 0.909545 0.290582
O O2 0.129915 0.745213 0.464269
O O3 0.054185 0.803404 0.410236
O O4 0.076585 0.020111 0.480276
O O5 0.784518 0.226382 0.374012
O O6 0.850727 0.367627 0.420563
O O7 0.864629 0.489912 0.280508
O O8 0.956475 0.237498 0.229682
O O9 0.885668 0.296758 0.090041
O O10 0.797230 0.484875 0.092734
O O11 0.733038 0.221220 0.181263
O O12 0.572390 0.280404 0.080936
O O13 0.630162 0.738173 0.663797
O O14 0.773562 0.894709 0.524247
O O15 0.421935 0.520536 0.346668
#
# Coordination Sequence:
#
# PCOD9283171 Si02
#       8
#     8   8   8   8   8   8   8   4
#     4  11  24  42  67  96 131 179 222 273 325 404
#     4  11  23  41  63  96 133 168 212 276 330 388
#     4  11  23  43  69  98 129 182 220 270 331 401
#     4  10  23  43  65  95 134 173 225 272 329 384
#     4  11  23  43  67  92 133 172 217 268 335 389
#     4  10  21  43  68  94 130 176 217 268 334 392
#     4  10  21  39  68  95 127 172 218 275 324 393
#     4  12  24  36  62 106 128 168 216 270 340 390
#
# _framework density 24.494133000000001
#
# number of rings (size 3 to 8) (size 9 to 14) (size 15 to 20)
#    0.000    1.333    0.000    8.000    3.733    1.067 
#    4.800    0.000    0.000    0.000    0.000    0.000 
#    0.000    0.000    0.000    0.000    0.000    0.000 
#
# Total GULP energy -168049.351287 kJ/mol
# GULP energy per Si atom -5601.645043 kJ/mol
# Density = 2.443838 g / cm^3
# Si number density = 24.494133 Si / 1000 Ang^3
#
#
#
# Elastic Constant Matrix: (Units=GPa)
#
#
# Indices 1 2 3 4 5 6 
#
# 1 104.2316 31.3079 20.4865 0.0005 -16.9409 -0.0002
# 2 31.3079 132.4727 23.8833 0.0024 -14.2122 -0.0014
# 3 20.4865 23.8833 67.4043 0.0007 -24.6012 -0.0005
# 4 0.0005 0.0024 0.0007 28.6175 -0.0009 -12.7659
# 5 -16.9409 -14.2122 -24.6012 -0.0009 27.0042 0.0005
# 6 -0.0002 -0.0014 -0.0005 -12.7659 0.0005 39.7404
#
#
#
# Elastic Compliance Matrix: (Units=1/GPa)
#
#
# Indices 1 2 3 4 5 6 
#
# 1 0.011189 -0.001936 -0.000786 0.000000 0.005284 0.000000
# 2 -0.001936 0.008509 -0.001851 -0.000001 0.001578 0.000000
# 3 -0.000786 -0.001851 0.022764 0.000000 0.019271 0.000000
# 4 0.000000 -0.000001 0.000000 0.040789 0.000001 0.013103
# 5 0.005284 0.001578 0.019271 0.000001 0.058733 0.000000
# 6 0.000000 0.000000 0.000000 0.013103 0.000000 0.029372
#
#
# Mechanical properties :
#
#
# Convention : Reuss Voigt Hill
#
# Bulk Modulus (GPa) = 30.01478 50.60711 40.31095
# Shear Modulus (GPa) = 26.09509 34.30116 30.19812
#
# Velocity S-wave (km/s) = 3.26753 3.74623 3.51504
# Velocity P-wave (km/s) = 5.14938 6.27838 5.74170
#
# Compressibility (1/GPa) = 0.03331691
#
# Stress axis : x y z
#
# Youngs Moduli (GPa) = 89.37505 117.52056 43.92861
#
# Poissons Ratio (x) = 0.22748 0.03453
# Poissons Ratio (y) = 0.17300 0.08130
# Poissons Ratio (z) = 0.07026 0.21751
#
# Static dielectric constant tensor:
#      x y z
#    x 1.957030 0.000000 0.045760 
#    y 0.000000 1.910800 0.000000 
#    z 0.045760 0.000000 1.999160 
# 
# From -- ./inp_files/255163.got.cif
#   From: 2010.05.17/outbox.cif.g08.bks.cpg/sg15_128_cif.got.tgz:255163.got - 2010.06.03 18:47:42.
