data_PCOD9283422
_publ_section_title
;
Structure prediction by ZEFSAII (Michael W. Deem and Ramdas Pophale) SiO2 
 PCOD9283422
Probable space group: C 2/C
;
_chemical_formula_sum "Si O2"
_cell_formula_units_Z 56
_cell_length_a 7.407211
_cell_length_b 31.040357
_cell_length_c 11.974787
_cell_angle_alpha 90.000000
_cell_angle_beta 118.798569
_cell_angle_gamma 90.000000
_cell_volume 2412.744343
_symmetry_space_group_name_H-M "C 2/C"
_symmetry_group_IT_number 15
_symmetry_cell_setting 'monoclinic'
loop_
_space_group_symop_operation_xyz
x,y,z
-x,y,1/2-z
-x,-y,-z
x,-y,1/2+z
1/2+x,1/2+y,z
1/2-x,1/2+y,1/2-z
1/2-x,1/2-y,-z
1/2+x,1/2-y,1/2+z
loop_
_atom_site_type_symbol
_atom_site_label
_atom_site_fract_x
_atom_site_fract_y
_atom_site_fract_z
Si Si1 0.500000 0.545926 0.750000
Si Si2 0.213649 0.528188 0.247729
Si Si3 0.146916 0.337608 0.145636
Si Si4 0.112263 0.391026 0.586540
Si Si5 0.523628 0.332682 0.090112
Si Si6 0.500000 0.671060 0.250000
Si Si7 0.009969 0.241959 0.439291
Si Si8 0.161144 0.910162 0.527722
O O1 0.682473 0.515380 0.760871
O O2 0.414761 0.570945 0.614786
O O3 0.187844 0.560394 0.133718
O O4 0.348914 0.553995 0.379562
O O5 0.000000 0.520286 0.250000
O O6 0.346202 0.343380 0.125903
O O7 0.246424 0.339278 0.297039
O O8 0.082543 0.288629 0.104407
O O9 0.980416 0.372654 0.057266
O O10 0.295036 0.358293 0.673968
O O11 0.898134 0.392938 0.595218
O O12 0.481089 0.369326 0.985890
O O13 0.483775 0.283393 0.046852
O O14 0.448776 0.705602 0.332467
O O15 0.250000 0.250000 0.500000
#
# Coordination Sequence:
#
# PCOD9283422 Si02
#       8
#     4   8   8   8   8   4   8   8
#     4  12  23  44  78  96 140 174 218 288 340 407
#     4  10  23  41  67 105 135 171 224 272 343 411
#     4  10  21  40  61  90 125 171 228 268 328 391
#     4  10  21  40  62  89 133 171 212 269 323 402
#     4  10  22  41  65  88 125 176 222 268 331 392
#     4  12  23  38  60  92 132 176 220 268 342 385
#     4  12  23  39  60  91 132 170 218 284 323 382
#     4  10  22  44  68  97 130 176 224 273 333 406
#
# _framework density 23.210083999999998
#
# number of rings (size 3 to 8) (size 9 to 14) (size 15 to 20)
#    0.000    1.429    1.429    4.714    0.000    3.429 
#    2.571    2.857    0.000    0.000    0.000    0.000 
#    0.000    0.000    0.000    0.000    0.000    0.000 
#
# Total GULP energy -156248.417977 kJ/mol
# GULP energy per Si atom -5580.300642 kJ/mol
# Density = 2.315726 g / cm^3
# Si number density = 23.210084 Si / 1000 Ang^3
#
#
#
# Elastic Constant Matrix: (Units=GPa)
#
#
# Indices 1 2 3 4 5 6 
#
# 1 65.7228 45.5934 30.9116 0.0000 10.8170 0.0000
# 2 45.5934 145.9110 48.0268 0.0000 9.4547 0.0000
# 3 30.9116 48.0268 107.6481 0.0000 19.1855 0.0000
# 4 0.0000 0.0000 0.0000 45.8800 0.0000 6.6364
# 5 10.8170 9.4547 19.1855 0.0000 33.2711 0.0000
# 6 0.0000 0.0000 0.0000 6.6364 0.0000 21.9413
#
#
#
# Elastic Compliance Matrix: (Units=1/GPa)
#
#
# Indices 1 2 3 4 5 6 
#
# 1 0.020895 -0.005313 -0.002996 0.000000 -0.003556 0.000000
# 2 -0.005313 0.009386 -0.002780 0.000000 0.000663 0.000000
# 3 -0.002996 -0.002780 0.012344 0.000000 -0.005354 0.000000
# 4 0.000000 0.000000 0.000000 0.022793 0.000000 -0.006894
# 5 -0.003556 0.000663 -0.005354 0.000000 0.034111 0.000000
# 6 0.000000 0.000000 0.000000 -0.006894 0.000000 0.047661
#
#
# Mechanical properties :
#
#
# Convention : Reuss Voigt Hill
#
# Bulk Modulus (GPa) = 48.90517 63.14951 56.02734
# Shear Modulus (GPa) = 28.37927 33.20182 30.79055
#
# Velocity S-wave (km/s) = 3.50052 3.78629 3.64621
# Velocity P-wave (km/s) = 6.12002 6.81040 6.47442
#
# Compressibility (1/GPa) = 0.02044774
#
# Stress axis : x y z
#
# Youngs Moduli (GPa) = 47.85735 106.54582 81.00809
#
# Poissons Ratio (x) = 0.56604 0.24272
# Poissons Ratio (y) = 0.25425 0.22520
# Poissons Ratio (z) = 0.14339 0.29620
#
# Static dielectric constant tensor:
#      x y z
#    x 1.909180 0.000000 -0.078860 
#    y 0.000000 1.900870 0.000000 
#    z -0.078860 0.000000 2.028290 
# 
# From -- ./inp_files/139598.got.cif
#   From: 2010.05.17/outbox.cif.g08.bks.cpg/sg15_70_cif.got.tgz:139598.got - 2010.06.03 18:47:42.
