data_PCOD9283855
_publ_section_title
;
Structure prediction by ZEFSAII (Michael W. Deem and Ramdas Pophale) SiO2 
 PCOD9283855
Probable space group: C 2/C
;
_chemical_formula_sum "Si O2"
_cell_formula_units_Z 60
_cell_length_a 22.701698
_cell_length_b 8.804243
_cell_length_c 19.147937
_cell_angle_alpha 90.000000
_cell_angle_beta 37.311855
_cell_angle_gamma 90.000000
_cell_volume 2319.821641
_symmetry_space_group_name_H-M "C 2/C"
_symmetry_group_IT_number 15
_symmetry_cell_setting 'monoclinic'
loop_
_space_group_symop_operation_xyz
x,y,z
-x,y,1/2-z
-x,-y,-z
x,-y,1/2+z
1/2+x,1/2+y,z
1/2-x,1/2+y,1/2-z
1/2-x,1/2-y,-z
1/2+x,1/2-y,1/2+z
loop_
_atom_site_type_symbol
_atom_site_label
_atom_site_fract_x
_atom_site_fract_y
_atom_site_fract_z
Si Si1 0.500000 0.239951 0.250000
Si Si2 0.866544 0.526736 0.894564
Si Si3 0.580435 0.676653 0.876995
Si Si4 0.787747 0.146068 0.616235
Si Si5 0.245928 0.502295 0.363891
Si Si6 0.455648 0.196690 0.694652
Si Si7 0.118877 0.515981 0.854082
Si Si8 0.450916 0.489959 0.406904
O O1 0.589874 0.127294 0.178223
O O2 0.467282 0.348899 0.341756
O O3 0.866023 0.639679 0.828436
O O4 0.949827 0.607509 0.864661
O O5 0.781038 0.490299 0.029030
O O6 0.621894 0.666210 0.915635
O O7 0.665076 0.600479 0.747769
O O8 0.570877 0.857636 0.878057
O O9 0.483430 0.587277 0.949158
O O10 0.742692 0.315165 0.657931
O O11 0.844654 0.065509 0.499839
O O12 0.720527 0.024004 0.717072
O O13 0.152928 0.462684 0.401558
O O14 0.476399 0.373328 0.681155
O O15 0.440009 0.147388 0.629617
#
# Coordination Sequence:
#
# PCOD9283855 Si02
#       8
#     4   8   8   8   8   8   8   8
#     4  10  24  38  60  88 124 160 206 256 306 358
#     4  10  21  42  63  92 122 163 205 258 310 366
#     4  10  22  40  61  93 127 159 204 258 302 371
#     4  10  22  40  63  91 125 163 204 252 314 363
#     4  10  21  41  66  91 125 163 206 253 314 361
#     4  10  21  40  65  86 127 158 210 253 300 371
#     4  10  22  42  63  96 126 160 205 259 306 367
#     4  12  22  41  62  92 123 166 207 253 307 367
#
# _framework density 25.864058
#
# number of rings (size 3 to 8) (size 9 to 14) (size 15 to 20)
#    0.000    1.867    1.333    3.600    1.867    1.600 
#    4.800    2.667    0.000    0.000    0.000    0.000 
#    0.000    0.000    0.000    0.000    0.000    0.000 
#
# Total GULP energy -167692.322357 kJ/mol
# GULP energy per Si atom -5589.744079 kJ/mol
# Density = 2.580519 g / cm^3
# Si number density = 25.864058 Si / 1000 Ang^3
#
#
#
# Elastic Constant Matrix: (Units=GPa)
#
#
# Indices 1 2 3 4 5 6 
#
# 1 54.1074 -0.7868 -12.6260 -0.0001 9.9229 0.0000
# 2 -0.7868 88.7588 11.7896 -0.0004 -1.8024 0.0003
# 3 -12.6260 11.7896 84.3749 0.0000 3.2611 0.0001
# 4 -0.0001 -0.0004 0.0000 33.0047 0.0001 0.4278
# 5 9.9229 -1.8024 3.2611 0.0001 37.5972 -0.0001
# 6 0.0000 0.0003 0.0001 0.4278 -0.0001 44.8853
#
#
#
# Elastic Compliance Matrix: (Units=1/GPa)
#
#
# Indices 1 2 3 4 5 6 
#
# 1 0.020286 -0.000374 0.003307 0.000000 -0.005659 0.000000
# 2 -0.000374 0.011504 -0.001694 0.000000 0.000797 0.000000
# 3 0.003307 -0.001694 0.012663 0.000000 -0.002052 0.000000
# 4 0.000000 0.000000 0.000000 0.030302 0.000000 -0.000289
# 5 -0.005659 0.000797 -0.002052 0.000000 0.028307 0.000000
# 6 0.000000 0.000000 0.000000 -0.000289 0.000000 0.022282
#
#
# Mechanical properties :
#
#
# Convention : Reuss Voigt Hill
#
# Bulk Modulus (GPa) = 21.30889 24.88829 23.09859
# Shear Modulus (GPa) = 36.09812 38.35508 37.22660
#
# Velocity S-wave (km/s) = 3.73994 3.85509 3.79795
# Velocity P-wave (km/s) = 5.18712 5.42763 5.30874
#
# Compressibility (1/GPa) = 0.04692878
#
# Stress axis : x y z
#
# Youngs Moduli (GPa) = 49.29591 86.92314 78.97189
#
# Poissons Ratio (x) = 0.03253 -0.26113
# Poissons Ratio (y) = 0.01845 0.13380
# Poissons Ratio (z) = -0.16300 0.14728
#
# Static dielectric constant tensor:
#      x y z
#    x 2.165340 0.000000 0.007530 
#    y 0.000000 1.966480 0.000000 
#    z 0.007530 0.000000 2.115280 
# 
# From -- ./inp_files/257187.got.cif
#   From: 2010.05.17/outbox.cif.g08.bks.cpg/sg15_129_cif.got.tgz:257187.got - 2010.06.03 18:47:42.
