data_PCOD9283707
_publ_section_title
;
Structure prediction by ZEFSAII (Michael W. Deem and Ramdas Pophale) SiO2 
 PCOD9283707
Probable space group: C 2/C
;
_chemical_formula_sum "Si O2"
_cell_formula_units_Z 52
_cell_length_a 7.013822
_cell_length_b 23.559286
_cell_length_c 13.266232
_cell_angle_alpha 90.000000
_cell_angle_beta 65.147557
_cell_angle_gamma 90.000000
_cell_volume 1989.115307
_symmetry_space_group_name_H-M "C 2/C"
_symmetry_group_IT_number 15
_symmetry_cell_setting 'monoclinic'
loop_
_space_group_symop_operation_xyz
x,y,z
-x,y,1/2-z
-x,-y,-z
x,-y,1/2+z
1/2+x,1/2+y,z
1/2-x,1/2+y,1/2-z
1/2-x,1/2-y,-z
1/2+x,1/2-y,1/2+z
loop_
_atom_site_type_symbol
_atom_site_label
_atom_site_fract_x
_atom_site_fract_y
_atom_site_fract_z
Si Si1 0.443457 0.080418 0.359966
Si Si2 0.789520 0.982761 0.984904
Si Si3 0.500000 0.517580 0.750000
Si Si4 0.646009 0.811296 0.499945
Si Si5 0.281291 0.204880 0.740721
Si Si6 0.253224 0.323205 0.802660
Si Si7 0.759941 0.400824 0.339497
O O1 0.500000 0.040509 0.250000
O O2 0.374738 0.032802 0.455168
O O3 0.306087 0.135083 0.435759
O O4 0.347921 0.118201 0.209135
O O5 0.734273 0.923140 0.047815
O O6 0.852685 0.980805 0.855199
O O7 0.000000 0.000000 0.000000
O O8 0.365751 0.557022 0.705448
O O9 0.750000 0.750000 0.500000
O O10 0.695609 0.823712 0.372680
O O11 0.389820 0.807522 0.568268
O O12 0.500000 0.214595 0.750000
O O13 0.205416 0.268829 0.744004
O O14 0.162914 0.161513 0.840812
O O15 0.500000 0.331485 0.750000
O O16 0.000000 0.398365 0.250000
#
# Coordination Sequence:
#
# PCOD9283707 Si02
#       7
#     8   8   4   8   8   8   8
#     4  10  21  41  70 100 143 186 246 310 380 446
#     4  10  22  42  69 101 136 187 241 311 373 457
#     4  10  22  42  68  96 138 186 254 304 384 452
#     4  10  22  38  69 107 144 198 255 305 380 458
#     4  10  21  40  64 104 146 191 241 308 372 455
#     4   9  22  40  65 100 146 186 242 302 378 452
#     4  10  22  41  69 102 139 191 248 307 377 453
#
# _framework density 26.142275000000001
#
# number of rings (size 3 to 8) (size 9 to 14) (size 15 to 20)
#    0.923    1.231    0.000    2.308    0.000    6.769 
#    0.000   12.308   15.231    0.000    2.000    0.000 
#    0.000    0.000    0.000    0.000    0.000    0.000 
#
# Total GULP energy -144875.725558 kJ/mol
# GULP energy per Si atom -5572.143291 kJ/mol
# Density = 2.608277 g / cm^3
# Si number density = 26.142275 Si / 1000 Ang^3
#
#
#
# Elastic Constant Matrix: (Units=GPa)
#
#
# Indices 1 2 3 4 5 6 
#
# 1 105.2144 8.1185 -1.7651 0.0000 -10.7500 0.0000
# 2 8.1185 70.0619 44.8357 0.0000 2.8905 0.0000
# 3 -1.7651 44.8357 128.6810 0.0000 2.3354 0.0000
# 4 0.0000 0.0000 0.0000 40.0967 0.0000 12.3294
# 5 -10.7500 2.8905 2.3354 0.0000 33.4851 0.0000
# 6 0.0000 0.0000 0.0000 12.3294 0.0000 23.8314
#
#
#
# Elastic Compliance Matrix: (Units=1/GPa)
#
#
# Indices 1 2 3 4 5 6 
#
# 1 0.009987 -0.001728 0.000679 0.000000 0.003308 0.000000
# 2 -0.001728 0.018712 -0.006512 0.000000 -0.001716 0.000000
# 3 0.000679 -0.006512 0.010048 0.000000 0.000079 0.000000
# 4 0.000000 0.000000 0.000000 0.029658 0.000000 -0.015344
# 5 0.003308 -0.001716 0.000079 0.000000 0.031069 0.000000
# 6 0.000000 0.000000 0.000000 -0.015344 0.000000 0.049899
#
#
# Mechanical properties :
#
#
# Convention : Reuss Voigt Hill
#
# Bulk Modulus (GPa) = 42.32980 45.14840 43.73910
# Shear Modulus (GPa) = 29.00735 36.33386 32.67061
#
# Velocity S-wave (km/s) = 3.33467 3.73211 3.53898
# Velocity P-wave (km/s) = 5.57261 5.98994 5.78504
#
# Compressibility (1/GPa) = 0.02362402
#
# Stress axis : x y z
#
# Youngs Moduli (GPa) = 100.12863 53.44284 99.52204
#
# Poissons Ratio (x) = 0.09237 -0.06759
# Poissons Ratio (y) = 0.17306 0.64810
# Poissons Ratio (z) = -0.06800 0.34803
#
# Static dielectric constant tensor:
#      x y z
#    x 2.242640 0.000000 -0.096170 
#    y 0.000000 2.874720 0.000000 
#    z -0.096170 0.000000 1.861340 
# 
# From -- ./inp_files/81186.got.cif
#   From: 2010.05.17/outbox.cif.g08.bks.cpg/sg15_41_cif.got.tgz:81186.got - 2010.06.03 18:47:42.
