data_PCOD9283928
_publ_section_title
;
Structure prediction by ZEFSAII (Michael W. Deem and Ramdas Pophale) SiO2 
 PCOD9283928
Probable space group: C 2/C
;
_chemical_formula_sum "Si O2"
_cell_formula_units_Z 60
_cell_length_a 25.432258
_cell_length_b 7.393369
_cell_length_c 16.186196
_cell_angle_alpha 90.000000
_cell_angle_beta 97.303806
_cell_angle_gamma 90.000000
_cell_volume 3018.796642
_symmetry_space_group_name_H-M "C 2/C"
_symmetry_group_IT_number 15
_symmetry_cell_setting 'monoclinic'
loop_
_space_group_symop_operation_xyz
x,y,z
-x,y,1/2-z
-x,-y,-z
x,-y,1/2+z
1/2+x,1/2+y,z
1/2-x,1/2+y,1/2-z
1/2-x,1/2-y,-z
1/2+x,1/2-y,1/2+z
loop_
_atom_site_type_symbol
_atom_site_label
_atom_site_fract_x
_atom_site_fract_y
_atom_site_fract_z
Si Si1 0.500000 0.127789 0.250000
Si Si2 0.467997 0.839417 0.382602
Si Si3 0.691789 0.991075 0.672221
Si Si4 0.875338 0.780324 0.756933
Si Si5 0.579386 0.351329 0.917631
Si Si6 0.192530 0.124458 0.765092
Si Si7 0.400354 0.263364 0.132483
Si Si8 0.387747 0.018344 0.489185
O O1 0.449556 0.237912 0.205600
O O2 0.483028 0.996646 0.320964
O O3 0.425021 0.715091 0.328073
O O4 0.519415 0.720914 0.411384
O O5 0.439142 0.940948 0.451684
O O6 0.695606 0.781087 0.697514
O O7 0.654305 0.091680 0.731828
O O8 0.749571 0.078623 0.688826
O O9 0.662322 0.018774 0.579319
O O10 0.896980 0.802270 0.668435
O O11 0.834342 0.938815 0.770294
O O12 0.585353 0.566472 0.923495
O O13 0.609310 0.231153 0.991289
O O14 0.152473 0.191508 0.827782
O O15 0.389613 0.087412 0.075741
#
# Coordination Sequence:
#
# PCOD9283928 Si02
#       8
#     4   8   8   8   8   8   8   8
#     4  12  22  42  68  96 128 178 212 266 314 372
#     4  11  21  39  68  91 130 172 207 260 315 381
#     4  11  23  42  71  91 124 165 217 272 323 370
#     4  10  21  40  65  94 125 164 218 263 312 377
#     4  11  22  40  62  92 133 167 209 254 319 388
#     4  11  23  43  67  97 121 166 222 269 314 381
#     4  11  26  40  63  96 133 167 216 260 316 386
#     4  11  24  43  60  96 131 172 206 264 324 376
#
# _framework density 19.875468999999999
#
# number of rings (size 3 to 8) (size 9 to 14) (size 15 to 20)
#    0.000    1.067    4.000    2.800    3.733    3.200 
#    0.000    2.667    0.000    0.000    0.000    0.000 
#    0.000    0.000    0.000    0.000    0.000    0.000 
#
# Total GULP energy -167639.987657 kJ/mol
# GULP energy per Si atom -5587.999589 kJ/mol
# Density = 1.983023 g / cm^3
# Si number density = 19.875469 Si / 1000 Ang^3
#
#
#
# Elastic Constant Matrix: (Units=GPa)
#
#
# Indices 1 2 3 4 5 6 
#
# 1 103.8327 13.5719 18.3528 0.0000 25.1684 0.0000
# 2 13.5719 77.4150 6.1378 0.0000 16.2574 0.0000
# 3 18.3528 6.1378 35.5077 0.0000 9.3494 0.0000
# 4 0.0000 0.0000 0.0000 2.2482 0.0000 9.0588
# 5 25.1684 16.2574 9.3494 0.0000 24.5223 0.0000
# 6 0.0000 0.0000 0.0000 9.0588 0.0000 26.1069
#
#
#
# Elastic Compliance Matrix: (Units=1/GPa)
#
#
# Indices 1 2 3 4 5 6 
#
# 1 0.013253 0.000616 -0.003632 0.000000 -0.012626 0.000000
# 2 0.000616 0.015035 -0.000140 0.000000 -0.010547 0.000000
# 3 -0.003632 -0.000140 0.032301 0.000000 -0.008494 0.000000
# 4 0.000000 0.000000 0.000000 -1.117158 0.000000 0.387642
# 5 -0.012626 -0.010547 -0.008494 0.000000 0.063968 0.000000
# 6 0.000000 0.000000 0.000000 0.387642 0.000000 -0.096203
#
#
# Mechanical properties :
#
#
# Convention : Reuss Voigt Hill
#
# Bulk Modulus (GPa) = 18.42425 32.54227 25.48326
# Shear Modulus (GPa) = -4.69749 22.48833 8.89542
#
# Velocity S-wave (km/s) = -1.53902 3.36737 2.11785
# Velocity P-wave (km/s) = 2.47626 5.61494 4.33932
#
# Compressibility (1/GPa) = 0.05427630
#
# Stress axis : x y z
#
# Youngs Moduli (GPa) = 75.45647 66.50993 30.95872
#
# Poissons Ratio (x) = -0.04097 0.11244
# Poissons Ratio (y) = -0.04648 0.00435
# Poissons Ratio (z) = 0.27406 0.00934
#
# Static dielectric constant tensor:
#      x y z
#    x 1.689490 0.000000 -0.001510 
#    y 0.000000 1.717570 0.000000 
#    z -0.001510 0.000000 1.684470 
# 
# From -- ./inp_files/171943.got.cif
#   From: 2010.05.17/outbox.cif.g08.bks.cpg/sg15_86_cif.got.tgz:171943.got - 2010.06.03 18:47:42.
