data_PCOD9283418
_publ_section_title
;
Structure prediction by ZEFSAII (Michael W. Deem and Ramdas Pophale) SiO2 
 PCOD9283418
Probable space group: C 2/C
;
_chemical_formula_sum "Si O2"
_cell_formula_units_Z 60
_cell_length_a 21.833582
_cell_length_b 15.770864
_cell_length_c 17.321739
_cell_angle_alpha 90.000000
_cell_angle_beta 148.382081
_cell_angle_gamma 90.000000
_cell_volume 3126.887635
_symmetry_space_group_name_H-M "C 2/C"
_symmetry_group_IT_number 15
_symmetry_cell_setting 'monoclinic'
loop_
_space_group_symop_operation_xyz
x,y,z
-x,y,1/2-z
-x,-y,-z
x,-y,1/2+z
1/2+x,1/2+y,z
1/2-x,1/2+y,1/2-z
1/2-x,1/2-y,-z
1/2+x,1/2-y,1/2+z
loop_
_atom_site_type_symbol
_atom_site_label
_atom_site_fract_x
_atom_site_fract_y
_atom_site_fract_z
Si Si1 0.311423 0.580210 0.901750
Si Si2 0.333536 0.441360 0.728848
Si Si3 0.901932 0.493242 0.498114
Si Si4 0.000000 0.567560 0.750000
Si Si5 0.496006 0.668820 0.502807
Si Si6 0.763548 0.348302 0.024100
Si Si7 0.027985 0.065910 0.872668
Si Si8 0.951891 0.632352 0.933644
O O1 0.396653 0.624841 0.929979
O O2 0.318170 0.624033 0.993168
O O3 0.177262 0.603102 0.734490
O O4 0.352417 0.483809 0.970130
O O5 0.236311 0.502005 0.660476
O O6 0.275770 0.389814 0.597858
O O7 0.433743 0.497102 0.798946
O O8 0.384941 0.378703 0.846927
O O9 0.935636 0.506996 0.621642
O O10 0.954912 0.407898 0.522027
O O11 0.955114 0.575893 0.513052
O O12 0.898973 0.624403 0.680378
O O13 0.494105 0.644914 0.592105
O O14 0.481632 0.768479 0.468197
O O15 0.750000 0.250000 0.000000
O O16 0.000000 0.080623 0.750000
#
# Coordination Sequence:
#
# PCOD9283418 Si02
#       8
#     8   8   8   4   8   8   8   8
#     4  11  22  41  62  91 124 161 203 245 309 367
#     4  10  21  40  61  90 122 156 203 245 307 365
#     4  10  22  40  62  84 122 157 200 244 305 367
#     4  10  22  38  56  86 118 160 192 236 308 360
#     4  11  25  38  64  92 121 160 204 256 298 361
#     4  11  22  33  59  91 126 156 191 255 302 369
#     4  11  22  43  65  90 120 163 208 252 307 363
#     4  11  23  40  60  92 118 161 202 249 300 358
#
# _framework density 19.188409
#
# number of rings (size 3 to 8) (size 9 to 14) (size 15 to 20)
#    0.000    1.333    2.667    4.000    5.600    1.067 
#    1.200    0.000    0.000    1.600    0.000    0.000 
#    0.000    0.000    0.000    0.000    0.000    0.000 
#
# Total GULP energy -167077.642104 kJ/mol
# GULP energy per Si atom -5569.254737 kJ/mol
# Density = 1.914474 g / cm^3
# Si number density = 19.188409 Si / 1000 Ang^3
#
#
#
# Elastic Constant Matrix: (Units=GPa)
#
#
# Indices 1 2 3 4 5 6 
#
# 1 94.5239 27.7041 22.4640 0.0000 -16.1064 0.0000
# 2 27.7041 41.2902 13.7137 0.0000 -13.9945 0.0000
# 3 22.4640 13.7137 68.9047 0.0000 -2.2266 0.0000
# 4 0.0000 0.0000 0.0000 13.2964 0.0000 6.7785
# 5 -16.1064 -13.9945 -2.2266 0.0000 26.1497 0.0000
# 6 0.0000 0.0000 0.0000 6.7785 0.0000 0.6674
#
#
#
# Elastic Compliance Matrix: (Units=1/GPa)
#
#
# Indices 1 2 3 4 5 6 
#
# 1 0.014132 -0.006834 -0.003093 0.000000 0.004784 0.000000
# 2 -0.006834 0.035031 -0.004286 0.000000 0.014174 0.000000
# 3 -0.003093 -0.004286 0.016283 0.000000 -0.002812 0.000000
# 4 0.000000 0.000000 0.000000 -0.018003 0.000000 0.182837
# 5 0.004784 0.014174 -0.002812 0.000000 0.048534 0.000000
# 6 0.000000 0.000000 0.000000 0.182837 0.000000 -0.358643
#
#
# Mechanical properties :
#
#
# Convention : Reuss Voigt Hill
#
# Bulk Modulus (GPa) = 27.01101 36.94250 31.97676
# Shear Modulus (GPa) = -22.53285 17.41183 -2.56051
#
# Velocity S-wave (km/s) = -3.43052 3.01560 -1.15642
# Velocity P-wave (km/s) = 1.25856 5.60530 3.86235
#
# Compressibility (1/GPa) = 0.03702194
#
# Stress axis : x y z
#
# Youngs Moduli (GPa) = 70.75938 28.54574 61.41273
#
# Poissons Ratio (x) = 0.19507 0.18993
# Poissons Ratio (y) = 0.48354 0.26323
# Poissons Ratio (z) = 0.21884 0.12235
#
# Static dielectric constant tensor:
#      x y z
#    x 1.610070 0.000000 0.014850 
#    y 0.000000 1.637980 0.000000 
#    z 0.014850 0.000000 1.745940 
# 
# From -- ./inp_files/219601.got.cif
#   From: 2010.05.17/outbox.cif.g08.bks.cpg/sg15_110_cif.got.tgz:219601.got - 2010.06.03 18:47:42.
