data_PCOD9283869
_publ_section_title
;
Structure prediction by ZEFSAII (Michael W. Deem and Ramdas Pophale) SiO2 
 PCOD9283869
Probable space group: C 2/C
;
_chemical_formula_sum "Si O2"
_cell_formula_units_Z 36
_cell_length_a 13.722642
_cell_length_b 4.860734
_cell_length_c 25.065772
_cell_angle_alpha 90.000000
_cell_angle_beta 54.769861
_cell_angle_gamma 90.000000
_cell_volume 1365.710045
_symmetry_space_group_name_H-M "C 2/C"
_symmetry_group_IT_number 15
_symmetry_cell_setting 'monoclinic'
loop_
_space_group_symop_operation_xyz
x,y,z
-x,y,1/2-z
-x,-y,-z
x,-y,1/2+z
1/2+x,1/2+y,z
1/2-x,1/2+y,1/2-z
1/2-x,1/2-y,-z
1/2+x,1/2-y,1/2+z
loop_
_atom_site_type_symbol
_atom_site_label
_atom_site_fract_x
_atom_site_fract_y
_atom_site_fract_z
Si Si1 0.566327 0.716629 0.017481
Si Si2 0.000000 0.683473 0.750000
Si Si3 0.613870 0.226452 0.063546
Si Si4 0.784162 0.609950 0.271873
Si Si5 0.292173 0.862471 0.376400
O O1 0.693186 0.757187 0.946885
O O2 0.500000 0.500000 0.000000
O O3 0.570251 0.535357 0.070476
O O4 0.538257 0.020108 0.048589
O O5 0.081133 0.490696 0.762058
O O6 0.105098 0.827438 0.682938
O O7 0.634446 0.086029 0.113185
O O8 0.750000 0.250000 0.000000
O O9 0.770689 0.919669 0.257238
O O10 0.729682 0.522244 0.346373
#
# Coordination Sequence:
#
# PCOD9283869 Si02
#       5
#     8   4   8   8   8
#     4  11  23  39  64  99 125 169 219 276 329 401
#     4   8  22  44  62  96 128 176 212 270 330 378
#     4  10  21  40  65  89 127 171 214 265 337 392
#     4  10  23  41  63  93 127 170 219 261 321 387
#     4   9  21  42  62  93 130 170 217 267 330 394
#
# _framework density 26.359918
#
# number of rings (size 3 to 8) (size 9 to 14) (size 15 to 20)
#    1.333    0.889    0.000    3.333    0.000    9.778 
#    0.000    0.000    0.000    0.000    0.000    0.000 
#    0.000    0.000    0.000    0.000    0.000    0.000 
#
# Total GULP energy -100327.416898 kJ/mol
# GULP energy per Si atom -5573.745383 kJ/mol
# Density = 2.629992 g / cm^3
# Si number density = 26.359918 Si / 1000 Ang^3
#
#
#
# Elastic Constant Matrix: (Units=GPa)
#
#
# Indices 1 2 3 4 5 6 
#
# 1 90.2427 19.8798 21.6786 0.0450 11.7213 0.0581
# 2 19.8798 141.8557 24.7623 0.1513 7.6881 0.1169
# 3 21.6786 24.7623 107.2539 0.0404 10.8952 0.0187
# 4 0.0450 0.1513 0.0404 24.3344 -0.0036 16.8434
# 5 11.7213 7.6881 10.8952 -0.0036 43.8764 -0.0076
# 6 0.0581 0.1169 0.0187 16.8434 -0.0076 25.9126
#
#
#
# Elastic Compliance Matrix: (Units=1/GPa)
#
#
# Indices 1 2 3 4 5 6 
#
# 1 0.012143 -0.001230 -0.001911 0.000005 -0.002554 -0.000024
# 2 -0.001230 0.007504 -0.001420 -0.000039 -0.000634 -0.000005
# 3 -0.001911 -0.001420 0.010218 -0.000012 -0.001778 0.000011
# 4 0.000005 -0.000039 -0.000012 0.074705 0.000006 -0.048559
# 5 -0.002554 -0.000634 -0.001778 0.000006 0.024026 0.000013
# 6 -0.000024 -0.000005 0.000011 -0.048559 0.000013 0.070155
#
#
# Mechanical properties :
#
#
# Convention : Reuss Voigt Hill
#
# Bulk Modulus (GPa) = 48.20521 52.44376 50.32449
# Shear Modulus (GPa) = 23.27895 37.02679 30.15287
#
# Velocity S-wave (km/s) = 2.97496 3.75195 3.38581
# Velocity P-wave (km/s) = 5.48885 6.22157 5.86666
#
# Compressibility (1/GPa) = 0.02074464
#
# Stress axis : x y z
#
# Youngs Moduli (GPa) = 82.35246 133.26337 97.86369
#
# Poissons Ratio (x) = 0.16387 0.18702
# Poissons Ratio (y) = 0.10127 0.13892
# Poissons Ratio (z) = 0.15738 0.18917
#
# Static dielectric constant tensor:
#      x y z
#    x 2.162370 -0.000130 0.074420 
#    y -0.000130 2.025230 -0.000270 
#    z 0.074420 -0.000270 2.163010 
# 
# From -- ./inp_files/271611.got.cif
#   From: 2010.05.17/outbox.cif.g08.bks.cpg/sg15_136_cif.got.tgz:271611.got - 2010.06.03 18:47:42.
