data_PCOD9284864
_publ_section_title
;
Structure prediction by ZEFSAII (Michael W. Deem and Ramdas Pophale) SiO2 
 PCOD9284864
Probable space group: C 2/C
;
_chemical_formula_sum "Si O2"
_cell_formula_units_Z 56
_cell_length_a 17.514838
_cell_length_b 8.099576
_cell_length_c 27.164290
_cell_angle_alpha 90.000000
_cell_angle_beta 41.715713
_cell_angle_gamma 90.000000
_cell_volume 2564.321459
_symmetry_space_group_name_H-M "C 2/C"
_symmetry_group_IT_number 15
_symmetry_cell_setting 'monoclinic'
loop_
_space_group_symop_operation_xyz
x,y,z
-x,y,1/2-z
-x,-y,-z
x,-y,1/2+z
1/2+x,1/2+y,z
1/2-x,1/2+y,1/2-z
1/2-x,1/2-y,-z
1/2+x,1/2-y,1/2+z
loop_
_atom_site_type_symbol
_atom_site_label
_atom_site_fract_x
_atom_site_fract_y
_atom_site_fract_z
Si Si1 0.247472 0.398107 0.816552
Si Si2 0.152712 0.110107 0.046239
Si Si3 0.615901 0.721049 0.164399
Si Si4 0.334027 0.925059 0.904005
Si Si5 0.951522 0.292285 0.651327
Si Si6 0.405770 0.409329 0.648039
Si Si7 0.208703 0.278194 0.679903
O O1 0.278745 0.287333 0.848298
O O2 0.121018 0.386747 0.855182
O O3 0.333589 0.347590 0.730405
O O4 0.271821 0.584813 0.820467
O O5 0.127284 0.084341 0.116208
O O6 0.031496 0.168787 0.082629
O O7 0.250000 0.250000 0.000000
O O8 0.211412 0.965091 0.987483
O O9 0.500000 0.691208 0.250000
O O10 0.614088 0.899920 0.140008
O O11 0.419323 0.848087 0.902845
O O12 0.322361 0.816459 0.860854
O O13 0.890289 0.326482 0.733492
O O14 0.932955 0.101020 0.646027
O O15 0.322642 0.375985 0.642415
#
# Coordination Sequence:
#
# PCOD9284864 Si02
#       7
#     8   8   8   8   8   8   8
#     4  10  22  38  66  99 122 161 219 268 311 365
#     4  10  24  40  63  94 129 169 210 255 322 383
#     4  11  21  39  68  90 123 166 217 262 312 370
#     4  11  24  40  62  94 133 168 207 257 323 385
#     4  10  22  39  64  95 127 165 215 264 315 373
#     4  10  21  41  65  89 130 166 212 266 314 366
#     4  10  22  38  64  95 126 163 217 267 312 367
#
# _framework density 21.838134
#
# number of rings (size 3 to 8) (size 9 to 14) (size 15 to 20)
#    0.000    1.714    1.429    2.143    6.000    3.429 
#    0.000    0.714    0.000    0.000    0.000    0.000 
#    0.000    0.000    0.000    0.000    0.000    0.000 
#
# Total GULP energy -156503.305856 kJ/mol
# GULP energy per Si atom -5589.403781 kJ/mol
# Density = 2.178843 g / cm^3
# Si number density = 21.838134 Si / 1000 Ang^3
#
#
#
# Elastic Constant Matrix: (Units=GPa)
#
#
# Indices 1 2 3 4 5 6 
#
# 1 89.4271 10.7556 14.0898 0.0001 -18.3262 0.0007
# 2 10.7556 41.2903 4.3439 0.0002 2.2617 0.0021
# 3 14.0898 4.3439 72.1536 0.0000 -4.1488 -0.0001
# 4 0.0001 0.0002 0.0000 8.3581 0.0000 -8.3252
# 5 -18.3262 2.2617 -4.1488 0.0000 31.2890 0.0000
# 6 0.0007 0.0021 -0.0001 -8.3252 0.0000 34.5615
#
#
#
# Elastic Compliance Matrix: (Units=1/GPa)
#
#
# Indices 1 2 3 4 5 6 
#
# 1 0.013577 -0.003766 -0.001967 0.000000 0.007964 0.000000
# 2 -0.003766 0.025539 -0.001043 -0.000003 -0.004190 -0.000002
# 3 -0.001967 -0.001043 0.014354 0.000000 0.000827 0.000000
# 4 0.000000 -0.000003 0.000000 0.157415 0.000000 0.037918
# 5 0.007964 -0.004190 0.000827 0.000000 0.037037 0.000000
# 6 0.000000 -0.000002 0.000000 0.037918 0.000000 0.038068
#
#
# Mechanical properties :
#
#
# Convention : Reuss Voigt Hill
#
# Bulk Modulus (GPa) = 25.05109 29.02773 27.03941
# Shear Modulus (GPa) = 15.98227 26.42048 21.20137
#
# Velocity S-wave (km/s) = 2.70821 3.48204 3.11921
# Velocity P-wave (km/s) = 4.61252 5.43021 5.03798
#
# Compressibility (1/GPa) = 0.03991843
#
# Stress axis : x y z
#
# Youngs Moduli (GPa) = 73.65355 39.15578 69.66847
#
# Poissons Ratio (x) = 0.14746 0.13701
# Poissons Ratio (y) = 0.27738 0.07267
# Poissons Ratio (z) = 0.14485 0.04084
#
# Static dielectric constant tensor:
#      x y z
#    x 1.795150 0.000000 -0.011120 
#    y 0.000000 1.843880 0.000000 
#    z -0.011120 0.000000 1.819180 
# 
# From -- ./inp_files/315507.got.cif
#   From: 2010.05.17/outbox.cif.g08.bks.cpg/sg15_158_cif.got.tgz:315507.got - 2010.06.03 18:47:42.
