data_PCOD9284006
_publ_section_title
;
Structure prediction by ZEFSAII (Michael W. Deem and Ramdas Pophale) SiO2 
 PCOD9284006
Probable space group: C 2/C
;
_chemical_formula_sum "Si O2"
_cell_formula_units_Z 48
_cell_length_a 25.116117
_cell_length_b 12.925721
_cell_length_c 10.009889
_cell_angle_alpha 90.000000
_cell_angle_beta 38.127984
_cell_angle_gamma 90.000000
_cell_volume 2006.399154
_symmetry_space_group_name_H-M "C 2/C"
_symmetry_group_IT_number 15
_symmetry_cell_setting 'monoclinic'
loop_
_space_group_symop_operation_xyz
x,y,z
-x,y,1/2-z
-x,-y,-z
x,-y,1/2+z
1/2+x,1/2+y,z
1/2-x,1/2+y,1/2-z
1/2-x,1/2-y,-z
1/2+x,1/2-y,1/2+z
loop_
_atom_site_type_symbol
_atom_site_label
_atom_site_fract_x
_atom_site_fract_y
_atom_site_fract_z
Si Si1 0.414678 0.940297 0.713491
Si Si2 0.138198 0.039502 0.589807
Si Si3 0.908261 0.314081 0.488394
Si Si4 0.976091 0.776221 0.111604
Si Si5 0.245145 0.039343 0.107608
Si Si6 0.354036 0.686415 0.357566
O O1 0.371993 0.900638 0.658534
O O2 0.442291 0.834278 0.732265
O O3 0.500000 0.000000 0.500000
O O4 0.344008 0.007355 0.927320
O O5 0.064621 0.125613 0.737539
O O6 0.195744 0.049834 0.343997
O O7 0.195149 0.045355 0.613838
O O8 0.105073 0.921259 0.664682
O O9 0.938011 0.226632 0.535518
O O10 0.851416 0.265153 0.485325
O O11 0.000000 0.352568 0.250000
O O12 0.078428 0.776033 0.887636
O O13 0.231601 0.141055 0.041700
#
# Coordination Sequence:
#
# PCOD9284006 Si02
#       6
#     8   8   8   8   8   8
#     4  10  23  44  71 101 137 198 253 293 355 445
#     4  10  21  40  66 107 142 183 231 300 364 436
#     4   8  17  37  72  98 128 185 242 286 363 429
#     4   9  19  39  71  96 139 188 236 278 360 442
#     4  10  24  40  70 101 149 174 239 302 369 414
#     4   9  19  39  66 106 134 179 229 295 357 434
#
# _framework density 23.923455000000001
#
# number of rings (size 3 to 8) (size 9 to 14) (size 15 to 20)
#    2.000    0.667    0.000    1.500    0.000    2.667 
#    0.000    0.833   11.000    0.000    0.000    0.000 
#    0.000    0.000    0.000    0.000    0.000    0.000 
#
# Total GULP energy -133856.396765 kJ/mol
# GULP energy per Si atom -5577.349865 kJ/mol
# Density = 2.386900 g / cm^3
# Si number density = 23.923455 Si / 1000 Ang^3
#
#
#
# Elastic Constant Matrix: (Units=GPa)
#
#
# Indices 1 2 3 4 5 6 
#
# 1 92.9899 7.1155 16.9627 0.0000 0.5443 0.0000
# 2 7.1155 90.5900 8.3657 0.0000 -0.9224 0.0000
# 3 16.9627 8.3657 82.6232 0.0000 13.3924 0.0000
# 4 0.0000 0.0000 0.0000 31.8818 0.0000 -4.5505
# 5 0.5443 -0.9224 13.3924 0.0000 33.7793 0.0000
# 6 0.0000 0.0000 0.0000 -4.5505 0.0000 18.3054
#
#
#
# Elastic Compliance Matrix: (Units=1/GPa)
#
#
# Indices 1 2 3 4 5 6 
#
# 1 0.011230 -0.000657 -0.002358 0.000000 0.000736 0.000000
# 2 -0.000657 0.011202 -0.001123 0.000000 0.000762 0.000000
# 3 -0.002358 -0.001123 0.013572 0.000000 -0.005373 0.000000
# 4 0.000000 0.000000 0.000000 0.032520 0.000000 0.008084
# 5 0.000736 0.000762 -0.005373 0.000000 0.031743 0.000000
# 6 0.000000 0.000000 0.000000 0.008084 0.000000 0.056638
#
#
# Mechanical properties :
#
#
# Convention : Reuss Voigt Hill
#
# Bulk Modulus (GPa) = 36.06482 36.78789 36.42636
# Shear Modulus (GPa) = 28.66586 32.37725 30.52155
#
# Velocity S-wave (km/s) = 3.46530 3.68281 3.57571
# Velocity P-wave (km/s) = 5.57843 5.78747 5.68391
#
# Compressibility (1/GPa) = 0.02772785
#
# Stress axis : x y z
#
# Youngs Moduli (GPa) = 89.04718 89.27157 73.68115
#
# Poissons Ratio (x) = 0.05863 0.17377
# Poissons Ratio (y) = 0.05849 0.08273
# Poissons Ratio (z) = 0.21001 0.10023
#
# Static dielectric constant tensor:
#      x y z
#    x 1.955480 0.000000 -0.038120 
#    y 0.000000 1.942140 0.000000 
#    z -0.038120 0.000000 1.896680 
# 
# From -- ./inp_files/126818.got.cif
#   From: 2010.05.17/outbox.cif.g08.bks.cpg/sg15_64_cif.got.tgz:126818.got - 2010.06.03 18:47:42.
