data_PCOD9284923
_publ_section_title
;
Structure prediction by ZEFSAII (Michael W. Deem and Ramdas Pophale) SiO2 
 PCOD9284923
Probable space group: C 2/C
;
_chemical_formula_sum "Si O2"
_cell_formula_units_Z 60
_cell_length_a 20.646790
_cell_length_b 16.446553
_cell_length_c 9.089357
_cell_angle_alpha 90.000000
_cell_angle_beta 61.760375
_cell_angle_gamma 90.000000
_cell_volume 2719.098128
_symmetry_space_group_name_H-M "C 2/C"
_symmetry_group_IT_number 15
_symmetry_cell_setting 'monoclinic'
loop_
_space_group_symop_operation_xyz
x,y,z
-x,y,1/2-z
-x,-y,-z
x,-y,1/2+z
1/2+x,1/2+y,z
1/2-x,1/2+y,1/2-z
1/2-x,1/2-y,-z
1/2+x,1/2-y,1/2+z
loop_
_atom_site_type_symbol
_atom_site_label
_atom_site_fract_x
_atom_site_fract_y
_atom_site_fract_z
Si Si1 0.698700 0.600499 0.712492
Si Si2 0.406652 0.909057 0.590597
Si Si3 0.000000 0.513398 0.250000
Si Si4 0.085226 0.274144 0.130443
Si Si5 0.847437 0.891565 0.832513
Si Si6 0.222018 0.672178 0.622873
Si Si7 0.949131 0.043188 0.675920
Si Si8 0.234772 0.068730 0.336190
O O1 0.746804 0.667279 0.746765
O O2 0.610252 0.608973 0.813574
O O3 0.723272 0.587969 0.519097
O O4 0.710923 0.516692 0.788832
O O5 0.451611 0.932811 0.688734
O O6 0.404531 0.815426 0.538921
O O7 0.321042 0.927822 0.707806
O O8 0.446457 0.958925 0.413391
O O9 0.111767 0.182760 0.132777
O O10 0.135550 0.327699 0.189282
O O11 0.000000 0.278566 0.250000
O O12 0.898831 0.969477 0.793177
O O13 0.823508 0.873745 0.690370
O O14 0.766449 0.898773 0.991560
O O15 0.250000 0.750000 0.500000
O O16 0.000000 0.076128 0.750000
O O17 0.000000 0.000000 0.500000
#
# Coordination Sequence:
#
# PCOD9284923 Si02
#       8
#     8   8   4   8   8   8   8   8
#     4  11  23  39  64 100 133 174 228 280 348 411
#     4  11  22  40  62  95 130 174 220 290 343 413
#     4  10  24  38  62  96 138 164 226 294 360 394
#     4  11  23  39  67  94 129 180 230 272 350 412
#     4  10  21  41  65  95 130 180 225 275 335 426
#     4  10  22  42  66  91 130 182 231 273 337 421
#     4  11  21  37  64 102 135 166 216 283 342 395
#     4  11  22  37  66  97 129 173 226 285 335 403
#
# _framework density 22.066139
#
# number of rings (size 3 to 8) (size 9 to 14) (size 15 to 20)
#    0.000    1.333    2.000    5.200    1.867    2.133 
#    0.000    2.667    5.867    0.000    1.733    0.000 
#    0.000    0.000    0.000    0.000    0.000    0.000 
#
# Total GULP energy -167275.888645 kJ/mol
# GULP energy per Si atom -5575.862955 kJ/mol
# Density = 2.201592 g / cm^3
# Si number density = 22.066139 Si / 1000 Ang^3
#
#
#
# Elastic Constant Matrix: (Units=GPa)
#
#
# Indices 1 2 3 4 5 6 
#
# 1 211.4831 53.6884 68.7600 0.0000 4.1306 0.0000
# 2 53.6884 62.1251 14.9943 0.0000 22.0031 0.0000
# 3 68.7600 14.9943 113.6660 0.0000 23.3998 0.0000
# 4 0.0000 0.0000 0.0000 12.6136 0.0000 13.2138
# 5 4.1306 22.0031 23.3998 0.0000 51.7467 0.0000
# 6 0.0000 0.0000 0.0000 13.2138 0.0000 28.4757
#
#
#
# Elastic Compliance Matrix: (Units=1/GPa)
#
#
# Indices 1 2 3 4 5 6 
#
# 1 0.008152 -0.007552 -0.004920 0.000000 0.004786 0.000000
# 2 -0.007552 0.026036 0.003627 0.000000 -0.012108 0.000000
# 3 -0.004920 0.003627 0.012716 0.000000 -0.006900 0.000000
# 4 0.000000 0.000000 0.000000 0.154274 0.000000 -0.071589
# 5 0.004786 -0.012108 -0.006900 0.000000 0.027211 0.000000
# 6 0.000000 0.000000 0.000000 -0.071589 0.000000 0.068337
#
#
# Mechanical properties :
#
#
# Convention : Reuss Voigt Hill
#
# Bulk Modulus (GPa) = 34.23207 73.57329 53.90268
# Shear Modulus (GPa) = 15.42461 35.22264 25.32363
#
# Velocity S-wave (km/s) = 2.64676 3.99962 3.39133
# Velocity P-wave (km/s) = 4.98874 7.39891 6.30997
#
# Compressibility (1/GPa) = 0.02921237
#
# Stress axis : x y z
#
# Youngs Moduli (GPa) = 122.66778 38.40793 78.64028
#
# Poissons Ratio (x) = 0.29007 0.38694
# Poissons Ratio (y) = 0.92643 -0.28520
# Poissons Ratio (z) = 0.60357 -0.13929
#
# Static dielectric constant tensor:
#      x y z
#    x 1.894410 0.000000 0.030440 
#    y 0.000000 1.940780 0.000000 
#    z 0.030440 0.000000 1.893650 
# 
# From -- ./inp_files/57015.got.cif
#   From: 2010.05.17/outbox.cif.g08.bks.cpg/sg15_29_cif.got.tgz:57015.got - 2010.06.03 18:47:42.
