data_PCOD9284446
_publ_section_title
;
Structure prediction by ZEFSAII (Michael W. Deem and Ramdas Pophale) SiO2 
 PCOD9284446
Probable space group: C 2/C
;
_chemical_formula_sum "Si O2"
_cell_formula_units_Z 44
_cell_length_a 28.955826
_cell_length_b 8.913415
_cell_length_c 10.975650
_cell_angle_alpha 90.000000
_cell_angle_beta 145.098124
_cell_angle_gamma 90.000000
_cell_volume 1620.830080
_symmetry_space_group_name_H-M "C 2/C"
_symmetry_group_IT_number 15
_symmetry_cell_setting 'monoclinic'
loop_
_space_group_symop_operation_xyz
x,y,z
-x,y,1/2-z
-x,-y,-z
x,-y,1/2+z
1/2+x,1/2+y,z
1/2-x,1/2+y,1/2-z
1/2-x,1/2-y,-z
1/2+x,1/2-y,1/2+z
loop_
_atom_site_type_symbol
_atom_site_label
_atom_site_fract_x
_atom_site_fract_y
_atom_site_fract_z
Si Si1 0.074915 0.161038 0.254996
Si Si2 0.500000 0.577956 0.750000
Si Si3 0.616072 0.144906 0.475433
Si Si4 0.287154 0.262827 0.270059
Si Si5 0.774249 0.997621 0.028529
Si Si6 0.601027 0.949287 0.202617
O O1 0.127470 0.230544 0.479491
O O2 0.046247 0.309030 0.124395
O O3 0.144909 0.082192 0.328973
O O4 0.012221 0.037777 0.165048
O O5 0.425761 0.693322 0.596081
O O6 0.711694 0.179379 0.686094
O O7 0.587171 0.040999 0.526541
O O8 0.598008 0.074192 0.302811
O O9 0.258268 0.105466 0.152925
O O10 0.294991 0.377214 0.176295
O O11 0.697355 0.088927 0.912724
#
# Coordination Sequence:
#
# PCOD9284446 Si02
#       6
#     8   4   8   8   8   8
#     4  12  25  43  74 113 149 198 248 320 374 461
#     4  12  30  48  70 114 164 194 244 314 406 442
#     4  11  25  49  75 110 152 207 246 317 372 465
#     4  10  22  41  72 104 151 188 256 302 378 434
#     4  10  21  40  72 110 138 196 249 321 355 444
#     4  11  25  45  78 108 147 197 267 305 377 441
#
# _framework density 27.146585999999999
#
# number of rings (size 3 to 8) (size 9 to 14) (size 15 to 20)
#    0.000    1.091    3.636    1.636    5.091    2.182 
#    0.000    0.000    0.000    0.000    0.000    0.000 
#    0.000    0.000    0.000    0.000    0.000    0.000 
#
# Total GULP energy -123174.124070 kJ/mol
# GULP energy per Si atom -5598.823821 kJ/mol
# Density = 2.708480 g / cm^3
# Si number density = 27.146586 Si / 1000 Ang^3
#
#
#
# Elastic Constant Matrix: (Units=GPa)
#
#
# Indices 1 2 3 4 5 6 
#
# 1 140.1299 61.7013 53.6543 0.0000 -10.9148 0.0000
# 2 61.7013 108.9206 36.7357 0.0000 -12.4613 0.0000
# 3 53.6543 36.7357 96.5334 0.0000 -19.2256 0.0000
# 4 0.0000 0.0000 0.0000 -3.8430 0.0000 9.6144
# 5 -10.9148 -12.4613 -19.2256 0.0000 42.3749 0.0000
# 6 0.0000 0.0000 0.0000 9.6144 0.0000 65.9601
#
#
#
# Elastic Compliance Matrix: (Units=1/GPa)
#
#
# Indices 1 2 3 4 5 6 
#
# 1 0.010840 -0.004744 -0.004333 0.000000 -0.000569 0.000000
# 2 -0.004744 0.012686 -0.001859 0.000000 0.001665 0.000000
# 3 -0.004333 -0.001859 0.014449 0.000000 0.004893 0.000000
# 4 0.000000 0.000000 0.000000 -0.190679 0.000000 0.027794
# 5 -0.000569 0.001665 0.004893 0.000000 0.026162 0.000000
# 6 0.000000 0.000000 0.000000 0.027794 0.000000 0.011109
#
#
# Mechanical properties :
#
#
# Convention : Reuss Voigt Hill
#
# Bulk Modulus (GPa) = 62.10089 72.19626 67.14858
# Shear Modulus (GPa) = -56.69428 33.79790 -11.44819
#
# Velocity S-wave (km/s) = -4.57491 3.53230 -2.05580
# Velocity P-wave (km/s) = 2.23174 6.57943 4.37654
#
# Compressibility (1/GPa) = 0.01610283
#
# Stress axis : x y z
#
# Youngs Moduli (GPa) = 92.25171 78.82641 69.20766
#
# Poissons Ratio (x) = 0.37398 0.29986
# Poissons Ratio (y) = 0.43767 0.12866
# Poissons Ratio (z) = 0.39971 0.14655
#
# Static dielectric constant tensor:
#      x y z
#    x 2.119690 0.000000 -0.067520 
#    y 0.000000 2.112060 0.000000 
#    z -0.067520 0.000000 2.176090 
# 
# From -- ./inp_files/122115.got.cif
#   From: 2010.05.17/outbox.cif.g08.bks.cpg/sg15_62_cif.got.tgz:122115.got - 2010.06.03 18:47:42.
