data_PCOD9284347
_publ_section_title
;
Structure prediction by ZEFSAII (Michael W. Deem and Ramdas Pophale) SiO2 
 PCOD9284347
Probable space group: C 2/C
;
_chemical_formula_sum "Si O2"
_cell_formula_units_Z 40
_cell_length_a 15.033271
_cell_length_b 9.811068
_cell_length_c 13.045535
_cell_angle_alpha 90.000000
_cell_angle_beta 90.812345
_cell_angle_gamma 90.000000
_cell_volume 1923.924453
_symmetry_space_group_name_H-M "C 2/C"
_symmetry_group_IT_number 15
_symmetry_cell_setting 'monoclinic'
loop_
_space_group_symop_operation_xyz
x,y,z
-x,y,1/2-z
-x,-y,-z
x,-y,1/2+z
1/2+x,1/2+y,z
1/2-x,1/2+y,1/2-z
1/2-x,1/2-y,-z
1/2+x,1/2-y,1/2+z
loop_
_atom_site_type_symbol
_atom_site_label
_atom_site_fract_x
_atom_site_fract_y
_atom_site_fract_z
Si Si1 0.808773 0.730216 0.198783
Si Si2 0.596374 0.150522 0.500152
Si Si3 0.942370 0.558667 0.340240
Si Si4 0.649623 0.459295 0.767354
Si Si5 0.511983 0.588928 0.098891
O O1 0.828529 0.688050 0.081149
O O2 0.885489 0.670025 0.276588
O O3 0.721223 0.651820 0.234402
O O4 0.808877 0.893988 0.204536
O O5 0.514724 0.114248 0.422091
O O6 0.559782 0.273234 0.567469
O O7 0.616581 0.034917 0.585131
O O8 0.000000 0.485719 0.250000
O O9 0.585067 0.396930 0.852828
O O10 0.579370 0.486423 0.675712
O O11 0.500000 0.500000 0.000000
#
# Coordination Sequence:
#
# PCOD9284347 Si02
#       5
#     8   8   8   8   8
#     4  11  24  44  64  97 139 166 218 272 335 375
#     4  10  21  40  69  95 126 176 220 263 326 395
#     4   9  21  38  66  96 132 170 214 273 325 389
#     4  11  27  41  69  98 133 176 214 278 327 388
#     4  11  23  44  70  93 127 176 228 259 325 397
#
# _framework density 20.790837
#
# number of rings (size 3 to 8) (size 9 to 14) (size 15 to 20)
#    0.000    1.600    2.000    1.200   11.200    5.600 
#    0.000    3.000    0.000    0.000    0.000    0.000 
#    0.000    0.000    0.000    0.000    0.000    0.000 
#
# Total GULP energy -111575.927785 kJ/mol
# GULP energy per Si atom -5578.796389 kJ/mol
# Density = 2.074352 g / cm^3
# Si number density = 20.790837 Si / 1000 Ang^3
#
#
#
# Elastic Constant Matrix: (Units=GPa)
#
#
# Indices 1 2 3 4 5 6 
#
# 1 96.7930 14.7067 42.8181 0.0000 -26.5014 0.0000
# 2 14.7067 43.7181 21.7959 0.0000 -12.1769 0.0000
# 3 42.8181 21.7959 108.8972 0.0000 -14.0952 0.0000
# 4 0.0000 0.0000 0.0000 33.1027 0.0000 -5.4469
# 5 -26.5014 -12.1769 -14.0952 0.0000 37.7107 0.0000
# 6 0.0000 0.0000 0.0000 -5.4469 0.0000 16.3383
#
#
#
# Elastic Compliance Matrix: (Units=1/GPa)
#
#
# Indices 1 2 3 4 5 6 
#
# 1 0.014770 -0.000269 -0.004646 0.000000 0.008556 0.000000
# 2 -0.000269 0.027093 -0.004423 0.000000 0.006906 0.000000
# 3 -0.004646 -0.004423 0.011862 0.000000 -0.000260 0.000000
# 4 0.000000 0.000000 0.000000 0.031962 0.000000 0.010656
# 5 0.008556 0.006906 -0.000260 0.000000 0.034664 0.000000
# 6 0.000000 0.000000 0.000000 0.010656 0.000000 0.064758
#
#
# Mechanical properties :
#
#
# Convention : Reuss Voigt Hill
#
# Bulk Modulus (GPa) = 28.53217 45.33884 36.93550
# Shear Modulus (GPa) = 23.20525 28.76950 25.98738
#
# Velocity S-wave (km/s) = 3.34448 3.72393 3.53929
# Velocity P-wave (km/s) = 5.35418 6.35174 5.87418
#
# Compressibility (1/GPa) = 0.03504816
#
# Stress axis : x y z
#
# Youngs Moduli (GPa) = 67.70365 36.90984 84.30631
#
# Poissons Ratio (x) = 0.00993 0.39171
# Poissons Ratio (y) = 0.01821 0.37289
# Poissons Ratio (z) = 0.31457 0.16325
#
# Static dielectric constant tensor:
#      x y z
#    x 1.769850 0.000000 -0.005590 
#    y 0.000000 1.347930 0.000000 
#    z -0.005590 0.000000 1.741160 
# 
# From -- ./inp_files/150687.got.cif
#   From: 2010.05.17/outbox.cif.g08.bks.cpg/sg15_76_cif.got.tgz:150687.got - 2010.06.03 18:47:42.
