data_PCOD9284262
_publ_section_title
;
Structure prediction by ZEFSAII (Michael W. Deem and Ramdas Pophale) SiO2 
 PCOD9284262
Probable space group: C 2/C
;
_chemical_formula_sum "Si O2"
_cell_formula_units_Z 44
_cell_length_a 8.368389
_cell_length_b 11.944233
_cell_length_c 19.008970
_cell_angle_alpha 90.000000
_cell_angle_beta 101.448284
_cell_angle_gamma 90.000000
_cell_volume 1862.220005
_symmetry_space_group_name_H-M "C 2/C"
_symmetry_group_IT_number 15
_symmetry_cell_setting 'monoclinic'
loop_
_space_group_symop_operation_xyz
x,y,z
-x,y,1/2-z
-x,-y,-z
x,-y,1/2+z
1/2+x,1/2+y,z
1/2-x,1/2+y,1/2-z
1/2-x,1/2-y,-z
1/2+x,1/2-y,1/2+z
loop_
_atom_site_type_symbol
_atom_site_label
_atom_site_fract_x
_atom_site_fract_y
_atom_site_fract_z
Si Si1 0.390372 0.646325 0.841175
Si Si2 0.000000 0.500000 0.000000
Si Si3 0.796571 0.027751 0.444667
Si Si4 0.249235 0.107179 0.818673
Si Si5 0.605879 0.757312 0.045985
Si Si6 0.476075 0.104555 0.331350
O O1 0.345093 0.581804 0.906909
O O2 0.564579 0.600013 0.829833
O O3 0.263608 0.628822 0.766048
O O4 0.411424 0.777878 0.852836
O O5 0.992800 0.361828 0.015385
O O6 0.799131 0.509810 0.991301
O O7 0.933940 0.124349 0.454570
O O8 0.642726 0.074224 0.384755
O O9 0.329400 0.206274 0.871083
O O10 0.355245 0.996370 0.838285
O O11 0.750000 0.750000 0.000000
O O12 0.500000 0.114827 0.250000
#
# Coordination Sequence:
#
# PCOD9284262 Si02
#       6
#     8   4   8   8   8   8
#     4  11  24  40  64 102 131 171 217 284 350 398
#     4  10  22  40  66  98 124 178 232 262 330 398
#     4  11  22  41  68  92 130 176 220 276 333 396
#     4  11  22  40  63  97 134 166 226 275 340 413
#     4  10  21  40  68  92 132 181 222 274 329 397
#     4  12  21  40  66  94 134 173 211 280 343 403
#
# _framework density 23.627714000000001
#
# number of rings (size 3 to 8) (size 9 to 14) (size 15 to 20)
#    0.000    1.091    7.273    0.000    0.000    1.455 
#    0.000    4.545    0.000    0.000    0.000    0.000 
#    0.000    0.000    0.000    0.000    0.000    0.000 
#
# Total GULP energy -122487.243089 kJ/mol
# GULP energy per Si atom -5567.601959 kJ/mol
# Density = 2.357394 g / cm^3
# Si number density = 23.627714 Si / 1000 Ang^3
#
#
#
# Elastic Constant Matrix: (Units=GPa)
#
#
# Indices 1 2 3 4 5 6 
#
# 1 38.1673 53.1698 21.1781 0.0000 10.6906 0.0000
# 2 53.1698 157.1571 40.9920 0.0000 15.2081 0.0000
# 3 21.1781 40.9920 131.8648 0.0000 6.1173 0.0000
# 4 0.0000 0.0000 0.0000 73.7271 0.0000 -19.9301
# 5 10.6906 15.2081 6.1173 0.0000 14.5605 0.0000
# 6 0.0000 0.0000 0.0000 -19.9301 0.0000 57.9866
#
#
#
# Elastic Compliance Matrix: (Units=1/GPa)
#
#
# Indices 1 2 3 4 5 6 
#
# 1 0.057174 -0.016257 -0.003028 0.000000 -0.023725 0.000000
# 2 -0.016257 0.012198 -0.001166 0.000000 -0.000314 0.000000
# 3 -0.003028 -0.001166 0.008437 0.000000 -0.000103 0.000000
# 4 0.000000 0.000000 0.000000 0.014953 0.000000 0.005139
# 5 -0.023725 -0.000314 -0.000103 0.000000 0.086470 0.000000
# 6 0.000000 0.000000 0.000000 0.005139 0.000000 0.019012
#
#
# Mechanical properties :
#
#
# Convention : Reuss Voigt Hill
#
# Bulk Modulus (GPa) = 27.09624 61.98542 44.54083
# Shear Modulus (GPa) = 19.88481 43.37811 31.63146
#
# Velocity S-wave (km/s) = 2.90416 4.28939 3.66285
# Velocity P-wave (km/s) = 4.76848 7.12902 6.06471
#
# Compressibility (1/GPa) = 0.03690549
#
# Stress axis : x y z
#
# Youngs Moduli (GPa) = 17.49055 81.98116 118.52308
#
# Poissons Ratio (x) = 1.33281 0.35887
# Poissons Ratio (y) = 0.28435 0.13823
# Poissons Ratio (z) = 0.05296 0.09561
#
# Static dielectric constant tensor:
#      x y z
#    x 1.725800 0.000000 0.018980 
#    y 0.000000 1.920100 0.000000 
#    z 0.018980 0.000000 2.077520 
# 
# From -- ./inp_files/263304.got.cif
#   From: 2010.05.17/outbox.cif.g08.bks.cpg/sg15_132_cif.got.tgz:263304.got - 2010.06.03 18:47:42.
