data_PCOD9284032
_publ_section_title
;
Structure prediction by ZEFSAII (Michael W. Deem and Ramdas Pophale) SiO2 
 PCOD9284032
Probable space group: C 2/C
;
_chemical_formula_sum "Si O2"
_cell_formula_units_Z 40
_cell_length_a 24.402940
_cell_length_b 11.398860
_cell_length_c 11.545853
_cell_angle_alpha 90.000000
_cell_angle_beta 145.890263
_cell_angle_gamma 90.000000
_cell_volume 1801.033897
_symmetry_space_group_name_H-M "C 2/C"
_symmetry_group_IT_number 15
_symmetry_cell_setting 'monoclinic'
loop_
_space_group_symop_operation_xyz
x,y,z
-x,y,1/2-z
-x,-y,-z
x,-y,1/2+z
1/2+x,1/2+y,z
1/2-x,1/2+y,1/2-z
1/2-x,1/2-y,-z
1/2+x,1/2-y,1/2+z
loop_
_atom_site_type_symbol
_atom_site_label
_atom_site_fract_x
_atom_site_fract_y
_atom_site_fract_z
Si Si1 0.971938 0.116272 0.022195
Si Si2 0.601921 0.912687 0.982299
Si Si3 0.145875 0.236553 0.258056
Si Si4 0.153359 0.790529 0.393692
Si Si5 0.688443 0.469030 0.645792
O O1 0.069631 0.187759 0.220175
O O2 0.924336 0.198015 0.842227
O O3 0.888322 0.073912 0.963756
O O4 0.000000 0.000000 0.000000
O O5 0.500000 0.963784 0.750000
O O6 0.620677 0.804069 0.929146
O O7 0.607685 0.851860 0.120634
O O8 0.698631 0.993644 0.143960
O O9 0.250000 0.250000 0.500000
O O10 0.162342 0.133472 0.191610
O O11 0.250000 0.750000 0.500000
O O12 0.169164 0.913453 0.486530
#
# Coordination Sequence:
#
# PCOD9284032 Si02
#       5
#     8   8   8   8   8
#     4  10  21  40  66  91 122 167 222 267 323 375
#     4  11  22  41  64  93 133 172 213 265 336 404
#     4  10  23  42  62  95 129 166 220 280 325 377
#     4  11  22  43  65  92 130 172 213 270 333 389
#     4  10  24  40  64  97 123 169 228 262 322 406
#
# _framework density 22.209465000000002
#
# number of rings (size 3 to 8) (size 9 to 14) (size 15 to 20)
#    0.000    1.600    4.000    0.000    5.600    0.000 
#    3.600    2.000    0.000    0.000    0.000    0.000 
#    0.000    0.000    0.000    0.000    0.000    0.000 
#
# Total GULP energy -111607.955107 kJ/mol
# GULP energy per Si atom -5580.397755 kJ/mol
# Density = 2.215892 g / cm^3
# Si number density = 22.209465 Si / 1000 Ang^3
#
#
#
# Elastic Constant Matrix: (Units=GPa)
#
#
# Indices 1 2 3 4 5 6 
#
# 1 66.4068 1.6959 40.3851 0.0000 8.9482 0.0000
# 2 1.6959 14.1299 9.1513 0.0000 3.0480 0.0000
# 3 40.3851 9.1513 131.1729 0.0000 26.4807 0.0000
# 4 0.0000 0.0000 0.0000 43.2155 0.0000 4.9454
# 5 8.9482 3.0480 26.4807 0.0000 42.3024 0.0000
# 6 0.0000 0.0000 0.0000 4.9454 0.0000 -3.5445
#
#
#
# Elastic Compliance Matrix: (Units=1/GPa)
#
#
# Indices 1 2 3 4 5 6 
#
# 1 0.018567 0.001584 -0.005736 0.000000 -0.000451 0.000000
# 2 0.001584 0.074471 -0.005188 0.000000 -0.002453 0.000000
# 3 -0.005736 -0.005188 0.010795 0.000000 -0.005171 0.000000
# 4 0.000000 0.000000 0.000000 0.019954 0.000000 0.027840
# 5 -0.000451 -0.002453 -0.005171 0.000000 0.027148 0.000000
# 6 0.000000 0.000000 0.000000 0.027840 0.000000 -0.243284
#
#
# Mechanical properties :
#
#
# Convention : Reuss Voigt Hill
#
# Bulk Modulus (GPa) = 11.74348 34.90825 23.32587
# Shear Modulus (GPa) = -110.41400 27.09318 -41.66041
#
# Velocity S-wave (km/s) = -7.05852 3.49649 -4.33574
# Velocity P-wave (km/s) = 7.81865 5.66149 3.81306
#
# Compressibility (1/GPa) = 0.08515363
#
# Stress axis : x y z
#
# Youngs Moduli (GPa) = 53.85820 13.42804 92.63378
#
# Poissons Ratio (x) = -0.02127 0.53133
# Poissons Ratio (y) = -0.08529 0.48056
# Poissons Ratio (z) = 0.30892 0.06966
#
# Static dielectric constant tensor:
#      x y z
#    x 1.963240 0.000000 0.148120 
#    y 0.000000 1.834710 0.000000 
#    z 0.148120 0.000000 2.008180 
# 
# From -- ./inp_files/85494.got.cif
#   From: 2010.05.17/outbox.cif.g08.bks.cpg/sg15_43_cif.got.tgz:85494.got - 2010.06.03 18:47:42.
