data_PCOD9284950
_publ_section_title
;
Structure prediction by ZEFSAII (Michael W. Deem and Ramdas Pophale) SiO2 
 PCOD9284950
Probable space group: C 2/C
;
_chemical_formula_sum "Si O2"
_cell_formula_units_Z 44
_cell_length_a 17.091488
_cell_length_b 10.414280
_cell_length_c 13.922202
_cell_angle_alpha 90.000000
_cell_angle_beta 53.508690
_cell_angle_gamma 90.000000
_cell_volume 1992.253097
_symmetry_space_group_name_H-M "C 2/C"
_symmetry_group_IT_number 15
_symmetry_cell_setting 'monoclinic'
loop_
_space_group_symop_operation_xyz
x,y,z
-x,y,1/2-z
-x,-y,-z
x,-y,1/2+z
1/2+x,1/2+y,z
1/2-x,1/2+y,1/2-z
1/2-x,1/2-y,-z
1/2+x,1/2-y,1/2+z
loop_
_atom_site_type_symbol
_atom_site_label
_atom_site_fract_x
_atom_site_fract_y
_atom_site_fract_z
Si Si1 0.500000 0.953477 0.750000
Si Si2 0.284269 0.353899 0.263242
Si Si3 0.215737 0.066319 0.078985
Si Si4 0.378929 0.278337 0.003573
Si Si5 0.692060 0.851153 0.604513
Si Si6 0.943776 0.396570 0.107331
O O1 0.582826 0.864595 0.645774
O O2 0.552122 0.040315 0.790298
O O3 0.313674 0.466217 0.316707
O O4 0.341343 0.359676 0.121814
O O5 0.307084 0.212429 0.291379
O O6 0.167585 0.368455 0.337438
O O7 0.302372 0.158781 0.052426
O O8 0.132595 0.150991 0.090270
O O9 0.258665 0.984690 0.958297
O O10 0.486896 0.227063 0.942035
O O11 0.750000 0.750000 0.500000
O O12 0.000000 0.500000 0.000000
#
# Coordination Sequence:
#
# PCOD9284950 Si02
#       6
#     4   8   8   8   8   8
#     4  12  22  40  72  94 130 176 228 272 320 394
#     4  11  24  39  73  98 131 176 221 273 348 390
#     4  10  22  42  61  99 134 173 215 279 335 395
#     4  11  23  41  70  96 138 168 223 283 333 391
#     4  10  21  41  65  99 135 173 219 276 333 396
#     4  12  23  42  67 104 123 171 234 274 312 408
#
# _framework density 22.085546999999998
#
# number of rings (size 3 to 8) (size 9 to 14) (size 15 to 20)
#    0.000    1.091    3.636    3.273    5.091    0.000 
#    0.000    0.909   20.000    0.000    0.000    0.000 
#    0.000    0.000    0.000    0.000    0.000    0.000 
#
# Total GULP energy -122935.063372 kJ/mol
# GULP energy per Si atom -5587.957426 kJ/mol
# Density = 2.203528 g / cm^3
# Si number density = 22.085547 Si / 1000 Ang^3
#
#
#
# Elastic Constant Matrix: (Units=GPa)
#
#
# Indices 1 2 3 4 5 6 
#
# 1 86.0201 37.2741 28.7159 0.0000 1.8394 0.0000
# 2 37.2741 74.4476 29.7024 0.0000 7.1473 0.0000
# 3 28.7159 29.7024 75.3324 0.0000 3.3631 0.0000
# 4 0.0000 0.0000 0.0000 18.3704 0.0000 9.7273
# 5 1.8394 7.1473 3.3631 0.0000 40.4398 0.0000
# 6 0.0000 0.0000 0.0000 9.7273 0.0000 38.8737
#
#
#
# Elastic Compliance Matrix: (Units=1/GPa)
#
#
# Indices 1 2 3 4 5 6 
#
# 1 0.015564 -0.006505 -0.003400 0.000000 0.000725 0.000000
# 2 -0.006505 0.018875 -0.004845 0.000000 -0.002637 0.000000
# 3 -0.003400 -0.004845 0.016497 0.000000 -0.000361 0.000000
# 4 0.000000 0.000000 0.000000 0.062750 0.000000 -0.015702
# 5 0.000725 -0.002637 -0.000361 0.000000 0.025191 0.000000
# 6 0.000000 0.000000 0.000000 -0.015702 0.000000 0.029653
#
#
# Mechanical properties :
#
#
# Convention : Reuss Voigt Hill
#
# Bulk Modulus (GPa) = 46.65149 47.46501 47.05825
# Shear Modulus (GPa) = 24.36932 28.87728 26.62330
#
# Velocity S-wave (km/s) = 3.32536 3.61989 3.47574
# Velocity P-wave (km/s) = 5.99274 6.24576 6.12056
#
# Compressibility (1/GPa) = 0.02143554
#
# Stress axis : x y z
#
# Youngs Moduli (GPa) = 64.25234 52.97881 60.61742
#
# Poissons Ratio (x) = 0.34465 0.20610
# Poissons Ratio (y) = 0.41799 0.29368
# Poissons Ratio (z) = 0.21846 0.25667
#
# Static dielectric constant tensor:
#      x y z
#    x 1.754570 0.000000 0.016030 
#    y 0.000000 1.824370 0.000000 
#    z 0.016030 0.000000 1.836640 
# 
# From -- ./inp_files/160726.got.cif
#   From: 2010.05.17/outbox.cif.g08.bks.cpg/sg15_81_cif.got.tgz:160726.got - 2010.06.03 18:47:42.
