data_PCOD9284311
_publ_section_title
;
Structure prediction by ZEFSAII (Michael W. Deem and Ramdas Pophale) SiO2 
 PCOD9284311
Probable space group: C 2/C
;
_chemical_formula_sum "Si O2"
_cell_formula_units_Z 56
_cell_length_a 28.062752
_cell_length_b 8.009845
_cell_length_c 11.476234
_cell_angle_alpha 90.000000
_cell_angle_beta 74.358172
_cell_angle_gamma 90.000000
_cell_volume 2484.075055
_symmetry_space_group_name_H-M "C 2/C"
_symmetry_group_IT_number 15
_symmetry_cell_setting 'monoclinic'
loop_
_space_group_symop_operation_xyz
x,y,z
-x,y,1/2-z
-x,-y,-z
x,-y,1/2+z
1/2+x,1/2+y,z
1/2-x,1/2+y,1/2-z
1/2-x,1/2-y,-z
1/2+x,1/2-y,1/2+z
loop_
_atom_site_type_symbol
_atom_site_label
_atom_site_fract_x
_atom_site_fract_y
_atom_site_fract_z
Si Si1 0.592641 0.250096 0.866147
Si Si2 0.507921 0.891746 0.113972
Si Si3 0.732546 0.397501 0.757071
Si Si4 0.615320 0.108317 0.466074
Si Si5 0.827009 0.762990 0.890556
Si Si6 0.674328 0.739501 0.737216
Si Si7 0.842738 0.886018 0.498559
O O1 0.535624 0.244910 0.866770
O O2 0.629423 0.277208 0.734199
O O3 0.606636 0.070111 0.912579
O O4 0.607588 0.375888 0.958706
O O5 0.500000 0.969239 0.250000
O O6 0.564971 0.840699 0.064895
O O7 0.500000 0.000000 0.000000
O O8 0.722927 0.279461 0.651046
O O9 0.707197 0.573987 0.741568
O O10 0.789071 0.392951 0.758232
O O11 0.701162 0.329018 0.886856
O O12 0.659564 0.113783 0.531602
O O13 0.629082 0.235196 0.353979
O O14 0.830669 0.927839 0.966560
O O15 0.656226 0.723948 0.617947
#
# Coordination Sequence:
#
# PCOD9284311 Si02
#       7
#     8   8   8   8   8   8   8
#     4  10  23  39  69  96 121 170 218 261 325 394
#     4  10  21  40  68  99 135 167 218 276 328 391
#     4  10  23  40  61  91 125 178 216 268 322 389
#     4  11  23  39  66  95 127 166 213 271 323 382
#     4  10  21  42  62  90 131 163 209 267 323 379
#     4  11  24  40  62  92 131 168 220 269 326 385
#     4  10  22  43  64  87 134 171 212 271 327 391
#
# _framework density 22.543600999999999
#
# number of rings (size 3 to 8) (size 9 to 14) (size 15 to 20)
#    0.000    1.714    2.857    0.429    6.000    1.714 
#    0.000    0.714    6.286    0.000    0.000    0.000 
#    0.000    0.000    0.000    0.000    0.000    0.000 
#
# Total GULP energy -156344.291745 kJ/mol
# GULP energy per Si atom -5583.724705 kJ/mol
# Density = 2.249229 g / cm^3
# Si number density = 22.543601 Si / 1000 Ang^3
#
#
#
# Elastic Constant Matrix: (Units=GPa)
#
#
# Indices 1 2 3 4 5 6 
#
# 1 57.2295 8.3675 25.1264 0.0000 4.5294 0.0000
# 2 8.3675 50.9962 11.1990 0.0000 7.7915 0.0000
# 3 25.1264 11.1990 143.3062 0.0000 17.3079 0.0000
# 4 0.0000 0.0000 0.0000 22.8965 0.0000 8.8393
# 5 4.5294 7.7915 17.3079 0.0000 39.1892 0.0000
# 6 0.0000 0.0000 0.0000 8.8393 0.0000 25.1415
#
#
#
# Elastic Compliance Matrix: (Units=1/GPa)
#
#
# Indices 1 2 3 4 5 6 
#
# 1 0.019233 -0.002412 -0.003141 0.000000 -0.000356 0.000000
# 2 -0.002412 0.020709 -0.000773 0.000000 -0.003497 0.000000
# 3 -0.003141 -0.000773 0.007951 0.000000 -0.002995 0.000000
# 4 0.000000 0.000000 0.000000 0.050534 0.000000 -0.017767
# 5 -0.000356 -0.003497 -0.002995 0.000000 0.027576 0.000000
# 6 0.000000 0.000000 0.000000 -0.017767 0.000000 0.046021
#
#
# Mechanical properties :
#
#
# Convention : Reuss Voigt Hill
#
# Bulk Modulus (GPa) = 28.37510 37.87975 33.12743
# Shear Modulus (GPa) = 25.45526 31.23470 28.34498
#
# Velocity S-wave (km/s) = 3.36394 3.72630 3.54975
# Velocity P-wave (km/s) = 5.26329 5.94585 5.61495
#
# Compressibility (1/GPa) = 0.03524216
#
# Stress axis : x y z
#
# Youngs Moduli (GPa) = 51.99329 48.28793 125.77258
#
# Poissons Ratio (x) = 0.11645 0.39502
# Poissons Ratio (y) = 0.12539 0.09724
# Poissons Ratio (z) = 0.16330 0.03733
#
# Static dielectric constant tensor:
#      x y z
#    x 1.866710 0.000000 0.021750 
#    y 0.000000 1.903000 0.000000 
#    z 0.021750 0.000000 1.843830 
# 
# From -- ./inp_files/121852.got.cif
#   From: 2010.05.17/outbox.cif.g08.bks.cpg/sg15_61_cif.got.tgz:121852.got - 2010.06.03 18:47:42.
