data_PCOD9284857
_publ_section_title
;
Structure prediction by ZEFSAII (Michael W. Deem and Ramdas Pophale) SiO2 
 PCOD9284857
Probable space group: C 2/C
;
_chemical_formula_sum "Si O2"
_cell_formula_units_Z 40
_cell_length_a 23.376073
_cell_length_b 7.547354
_cell_length_c 22.372661
_cell_angle_alpha 90.000000
_cell_angle_beta 23.533751
_cell_angle_gamma 90.000000
_cell_volume 1576.055440
_symmetry_space_group_name_H-M "C 2/C"
_symmetry_group_IT_number 15
_symmetry_cell_setting 'monoclinic'
loop_
_space_group_symop_operation_xyz
x,y,z
-x,y,1/2-z
-x,-y,-z
x,-y,1/2+z
1/2+x,1/2+y,z
1/2-x,1/2+y,1/2-z
1/2-x,1/2-y,-z
1/2+x,1/2-y,1/2+z
loop_
_atom_site_type_symbol
_atom_site_label
_atom_site_fract_x
_atom_site_fract_y
_atom_site_fract_z
Si Si1 0.099781 0.315498 0.861729
Si Si2 0.809694 0.533354 0.975608
Si Si3 0.196151 0.906281 0.370084
Si Si4 0.333016 0.764186 0.049617
Si Si5 0.099464 0.292742 0.226057
O O1 0.089584 0.205107 0.931899
O O2 0.208759 0.476550 0.766687
O O3 0.181946 0.216698 0.728236
O O4 0.950888 0.367663 0.975476
O O5 0.829146 0.345003 0.987852
O O6 0.842848 0.551000 0.873894
O O7 0.931209 0.665067 0.889017
O O8 0.656347 0.616577 0.138977
O O9 0.314483 0.802945 0.295002
O O10 0.128614 0.056695 0.477498
#
# Coordination Sequence:
#
# PCOD9284857 Si02
#       5
#     8   8   8   8   8
#     4  10  23  39  59  92 122 170 200 253 309 368
#     4  10  21  41  65  88 125 158 213 254 309 364
#     4  10  23  38  62  90 126 159 211 246 312 369
#     4  10  22  41  61  89 124 165 203 256 308 363
#     4  10  22  40  63  92 119 167 202 260 305 368
#
# _framework density 25.379816999999999
#
# number of rings (size 3 to 8) (size 9 to 14) (size 15 to 20)
#    1.200    0.800    2.000    0.600    2.800    4.800 
#    0.000    0.000    0.000    0.000    0.000    0.000 
#    0.000    0.000    0.000    0.000    0.000    0.000 
#
# Total GULP energy -111642.495873 kJ/mol
# GULP energy per Si atom -5582.124794 kJ/mol
# Density = 2.532205 g / cm^3
# Si number density = 25.379817 Si / 1000 Ang^3
#
#
#
# Elastic Constant Matrix: (Units=GPa)
#
#
# Indices 1 2 3 4 5 6 
#
# 1 96.5934 15.2429 8.2884 0.0003 16.7888 -0.0008
# 2 15.2429 37.0560 9.5997 -0.0066 14.5280 0.0040
# 3 8.2884 9.5997 83.8865 -0.0024 -12.3067 0.0018
# 4 0.0003 -0.0066 -0.0024 19.2286 0.0003 11.8733
# 5 16.7888 14.5280 -12.3067 0.0003 28.7957 0.0001
# 6 -0.0008 0.0040 0.0018 11.8733 0.0001 45.3852
#
#
#
# Elastic Compliance Matrix: (Units=1/GPa)
#
#
# Indices 1 2 3 4 5 6 
#
# 1 0.012011 -0.001657 -0.002029 -0.000001 -0.007034 0.000001
# 2 -0.001657 0.037897 -0.007294 0.000017 -0.021270 -0.000008
# 3 -0.002029 -0.007294 0.014584 -0.000001 0.011096 0.000000
# 4 -0.000001 0.000017 -0.000001 0.062025 -0.000009 -0.016227
# 5 -0.007034 -0.021270 0.011096 -0.000009 0.054302 0.000003
# 6 0.000001 -0.000008 0.000000 -0.016227 0.000003 0.026279
#
#
# Mechanical properties :
#
#
# Convention : Reuss Voigt Hill
#
# Bulk Modulus (GPa) = 23.51204 31.53311 27.52258
# Shear Modulus (GPa) = 20.55634 30.97555 25.76595
#
# Velocity S-wave (km/s) = 2.84905 3.49733 3.18970
# Velocity P-wave (km/s) = 4.48408 5.36282 4.94301
#
# Compressibility (1/GPa) = 0.04253140
#
# Stress axis : x y z
#
# Youngs Moduli (GPa) = 83.25819 26.38757 68.56929
#
# Poissons Ratio (x) = 0.04374 0.13912
# Poissons Ratio (y) = 0.13800 0.50011
# Poissons Ratio (z) = 0.16893 0.19246
#
# Static dielectric constant tensor:
#      x y z
#    x 1.957230 0.000000 0.013940 
#    y 0.000000 2.098280 0.000000 
#    z 0.013940 0.000000 1.976440 
# 
# From -- ./inp_files/109767.got.cif
#   From: 2010.05.17/outbox.cif.g08.bks.cpg/sg15_55_cif.got.tgz:109767.got - 2010.06.03 18:47:42.
