data_PCOD9284987
_publ_section_title
;
Structure prediction by ZEFSAII (Michael W. Deem and Ramdas Pophale) SiO2 
 PCOD9284987
Probable space group: C 2/C
;
_chemical_formula_sum "Si O2"
_cell_formula_units_Z 60
_cell_length_a 8.408705
_cell_length_b 19.607461
_cell_length_c 26.378137
_cell_angle_alpha 90.000000
_cell_angle_beta 144.350491
_cell_angle_gamma 90.000000
_cell_volume 2534.737724
_symmetry_space_group_name_H-M "C 2/C"
_symmetry_group_IT_number 15
_symmetry_cell_setting 'monoclinic'
loop_
_space_group_symop_operation_xyz
x,y,z
-x,y,1/2-z
-x,-y,-z
x,-y,1/2+z
1/2+x,1/2+y,z
1/2-x,1/2+y,1/2-z
1/2-x,1/2-y,-z
1/2+x,1/2-y,1/2+z
loop_
_atom_site_type_symbol
_atom_site_label
_atom_site_fract_x
_atom_site_fract_y
_atom_site_fract_z
Si Si1 0.737779 0.409103 0.714220
Si Si2 0.890801 0.081714 0.938520
Si Si3 0.982177 0.332772 0.437196
Si Si4 0.928188 0.148507 0.845631
Si Si5 0.000000 0.248414 0.250000
Si Si6 0.748981 0.465143 0.275146
Si Si7 0.044281 0.225710 0.367646
Si Si8 0.331491 0.552625 0.026289
O O1 0.749639 0.452790 0.768340
O O2 0.705726 0.327893 0.702690
O O3 0.474274 0.436496 0.616239
O O4 0.000000 0.430181 0.750000
O O5 0.914455 0.139213 0.902580
O O6 0.575316 0.054973 0.861088
O O7 0.965496 0.099088 0.015848
O O8 0.098728 0.022791 0.974050
O O9 0.974090 0.296087 0.379984
O O10 0.227983 0.303873 0.534890
O O11 0.032461 0.415016 0.450326
O O12 0.706010 0.323505 0.395692
O O13 0.703112 0.203101 0.772250
O O14 0.845690 0.076680 0.799359
O O15 0.155563 0.217256 0.338284
O O16 0.500000 0.447883 0.250000
#
# Coordination Sequence:
#
# PCOD9284987 Si02
#       8
#     8   8   8   8   4   8   8   8
#     4  11  22  45  67  93 135 182 220 280 335 407
#     4  11  21  42  62 103 137 175 212 279 348 409
#     4  10  24  47  69  97 132 186 229 284 332 412
#     4  12  24  42  73 101 135 172 226 284 351 392
#     4  12  26  42  70  98 140 176 232 288 332 408
#     4  12  24  41  67 102 140 173 223 279 344 410
#     4  10  26  48  66  97 138 179 237 276 337 397
#     4  10  21  41  66  91 133 176 218 267 342 404
#
# _framework density 23.67109
#
# number of rings (size 3 to 8) (size 9 to 14) (size 15 to 20)
#    0.000    1.067    4.000    1.600    4.667    1.067 
#   12.000    0.000    0.000    0.000    0.000    0.000 
#    0.000    0.000    0.000    0.000    0.000    0.000 
#
# Total GULP energy -167036.957795 kJ/mol
# GULP energy per Si atom -5567.898593 kJ/mol
# Density = 2.361721 g / cm^3
# Si number density = 23.671090 Si / 1000 Ang^3
#
#
#
# Elastic Constant Matrix: (Units=GPa)
#
#
# Indices 1 2 3 4 5 6 
#
# 1 89.0615 0.5138 31.6014 0.0006 -4.2408 -0.0001
# 2 0.5138 43.7675 8.0378 -0.0004 1.4728 -0.0002
# 3 31.6014 8.0378 35.8201 0.0030 -0.6815 -0.0010
# 4 0.0006 -0.0004 0.0030 11.1543 0.0016 1.7626
# 5 -4.2408 1.4728 -0.6815 0.0016 51.7921 -0.0004
# 6 -0.0001 -0.0002 -0.0010 1.7626 -0.0004 26.8275
#
#
#
# Elastic Compliance Matrix: (Units=1/GPa)
#
#
# Indices 1 2 3 4 5 6 
#
# 1 0.016686 0.002573 -0.015278 0.000003 0.001092 -0.000001
# 2 0.002573 0.024256 -0.007724 0.000003 -0.000581 0.000000
# 3 -0.015278 -0.007724 0.043120 -0.000011 -0.000464 0.000002
# 4 0.000003 0.000003 -0.000011 0.090592 -0.000003 -0.005952
# 5 0.001092 -0.000581 -0.000464 -0.000003 0.019408 0.000000
# 6 -0.000001 0.000000 0.000002 -0.005952 0.000000 0.037666
#
#
# Mechanical properties :
#
#
# Convention : Reuss Voigt Hill
#
# Bulk Modulus (GPa) = 23.14541 27.66167 25.40354
# Shear Modulus (GPa) = 17.42239 26.52118 21.97178
#
# Velocity S-wave (km/s) = 2.71591 3.35087 3.04996
# Velocity P-wave (km/s) = 4.43103 5.16550 4.81230
#
# Compressibility (1/GPa) = 0.04320511
#
# Stress axis : x y z
#
# Youngs Moduli (GPa) = 59.92951 41.22720 23.19110
#
# Poissons Ratio (x) = -0.10608 0.35431
# Poissons Ratio (y) = -0.15420 0.17913
# Poissons Ratio (z) = 0.91558 0.31843
#
# Static dielectric constant tensor:
#      x y z
#    x 1.939840 0.000000 -0.079650 
#    y 0.000000 1.980180 0.000000 
#    z -0.079650 0.000000 1.997340 
# 
# From -- ./inp_files/309079.got.cif
#   From: 2010.05.17/outbox.cif.g08.bks.cpg/sg15_155_cif.got.tgz:309079.got - 2010.06.03 18:47:42.
