data_PCOD9284586
_publ_section_title
;
Structure prediction by ZEFSAII (Michael W. Deem and Ramdas Pophale) SiO2 
 PCOD9284586
Probable space group: C 2/C
;
_chemical_formula_sum "Si O2"
_cell_formula_units_Z 48
_cell_length_a 16.761116
_cell_length_b 8.469308
_cell_length_c 27.995205
_cell_angle_alpha 90.000000
_cell_angle_beta 146.476878
_cell_angle_gamma 90.000000
_cell_volume 2194.768323
_symmetry_space_group_name_H-M "C 2/C"
_symmetry_group_IT_number 15
_symmetry_cell_setting 'monoclinic'
loop_
_space_group_symop_operation_xyz
x,y,z
-x,y,1/2-z
-x,-y,-z
x,-y,1/2+z
1/2+x,1/2+y,z
1/2-x,1/2+y,1/2-z
1/2-x,1/2-y,-z
1/2+x,1/2-y,1/2+z
loop_
_atom_site_type_symbol
_atom_site_label
_atom_site_fract_x
_atom_site_fract_y
_atom_site_fract_z
Si Si1 0.234991 0.336528 0.211505
Si Si2 0.957199 0.659308 0.136136
Si Si3 0.634639 0.076786 0.767789
Si Si4 0.340701 0.572216 0.183298
Si Si5 0.389926 0.366082 0.927737
Si Si6 0.306672 0.118552 0.963757
O O1 0.387308 0.243263 0.291635
O O2 0.190607 0.394847 0.241334
O O3 0.271335 0.478375 0.193053
O O4 0.113147 0.226509 0.124899
O O5 0.837955 0.784300 0.093964
O O6 0.983915 0.513530 0.185087
O O7 0.901484 0.595350 0.057727
O O8 0.639369 0.246778 0.793827
O O9 0.740132 0.959694 0.848169
O O10 0.500000 0.506212 0.250000
O O11 0.240934 0.537579 0.087885
O O12 0.387600 0.231699 0.966723
O O13 0.500000 0.500000 0.000000
#
# Coordination Sequence:
#
# PCOD9284586 Si02
#       6
#     8   8   8   8   8   8
#     4  10  21  41  63  88 129 170 203 252 317 377
#     4  10  21  41  62  88 122 165 210 244 321 372
#     4  11  24  37  64  93 124 159 208 263 309 370
#     4  11  22  39  62  93 124 158 205 259 310 367
#     4  10  22  38  62  89 122 162 211 251 304 372
#     4  10  22  40  64  86 123 169 201 258 310 385
#
# _framework density 21.870190999999998
#
# number of rings (size 3 to 8) (size 9 to 14) (size 15 to 20)
#    0.000    1.667    1.667    3.000    2.333    1.333 
#    0.000    5.000    0.000    0.000    0.000    0.000 
#    0.000    0.000    0.000    0.000    0.000    0.000 
#
# Total GULP energy -134109.920788 kJ/mol
# GULP energy per Si atom -5587.913366 kJ/mol
# Density = 2.182041 g / cm^3
# Si number density = 21.870191 Si / 1000 Ang^3
#
#
#
# Elastic Constant Matrix: (Units=GPa)
#
#
# Indices 1 2 3 4 5 6 
#
# 1 45.4672 4.6996 -3.3293 0.0000 -8.2853 0.0000
# 2 4.6996 99.3049 47.4097 0.0000 -20.8990 0.0001
# 3 -3.3293 47.4097 123.2809 0.0000 -29.5497 0.0000
# 4 0.0000 0.0000 0.0000 42.9585 0.0000 -8.8187
# 5 -8.2853 -20.8990 -29.5497 0.0000 28.2572 0.0000
# 6 0.0000 0.0001 0.0000 -8.8187 0.0000 20.1714
#
#
#
# Elastic Compliance Matrix: (Units=1/GPa)
#
#
# Indices 1 2 3 4 5 6 
#
# 1 0.024135 -0.000594 0.003298 0.000000 0.010086 0.000000
# 2 -0.000594 0.013039 -0.003684 0.000000 0.005617 0.000000
# 3 0.003298 -0.003684 0.012272 0.000000 0.011076 0.000000
# 4 0.000000 0.000000 0.000000 0.025573 0.000000 0.011180
# 5 0.010086 0.005617 0.011076 0.000000 0.054083 0.000000
# 6 0.000000 0.000000 0.000000 0.011180 0.000000 0.054463
#
#
# Mechanical properties :
#
#
# Convention : Reuss Voigt Hill
#
# Bulk Modulus (GPa) = 21.05923 40.62364 30.84144
# Shear Modulus (GPa) = 24.83184 32.89562 28.86373
#
# Velocity S-wave (km/s) = 3.37325 3.88252 3.63681
# Velocity P-wave (km/s) = 4.98216 6.22204 5.63630
#
# Compressibility (1/GPa) = 0.04748511
#
# Stress axis : x y z
#
# Youngs Moduli (GPa) = 41.43427 76.69287 81.48531
#
# Poissons Ratio (x) = 0.04555 -0.26871
# Poissons Ratio (y) = 0.02461 0.30020
# Poissons Ratio (z) = -0.13664 0.28254
#
# Static dielectric constant tensor:
#      x y z
#    x 1.827610 0.000000 0.020240 
#    y 0.000000 1.806950 0.000000 
#    z 0.020240 0.000000 1.775480 
# 
# From -- ./inp_files/176894.got.cif
#   From: 2010.05.17/outbox.cif.g08.bks.cpg/sg15_89_cif.got.tgz:176894.got - 2010.06.03 18:47:42.
