data_PCOD9284161
_publ_section_title
;
Structure prediction by ZEFSAII (Michael W. Deem and Ramdas Pophale) SiO2 
 PCOD9284161
Probable space group: C 2/C
;
_chemical_formula_sum "Si O2"
_cell_formula_units_Z 56
_cell_length_a 10.039301
_cell_length_b 12.211102
_cell_length_c 20.539480
_cell_angle_alpha 90.000000
_cell_angle_beta 69.595183
_cell_angle_gamma 90.000000
_cell_volume 2359.959066
_symmetry_space_group_name_H-M "C 2/C"
_symmetry_group_IT_number 15
_symmetry_cell_setting 'monoclinic'
loop_
_space_group_symop_operation_xyz
x,y,z
-x,y,1/2-z
-x,-y,-z
x,-y,1/2+z
1/2+x,1/2+y,z
1/2-x,1/2+y,1/2-z
1/2-x,1/2-y,-z
1/2+x,1/2-y,1/2+z
loop_
_atom_site_type_symbol
_atom_site_label
_atom_site_fract_x
_atom_site_fract_y
_atom_site_fract_z
Si Si1 0.587337 0.478495 0.813301
Si Si2 0.107055 0.672382 0.604088
Si Si3 0.500000 0.322674 0.250000
Si Si4 0.590824 0.788981 0.962100
Si Si5 0.265672 0.527001 0.074302
Si Si6 0.000000 0.208616 0.250000
Si Si7 0.845370 0.238550 0.901728
Si Si8 0.213370 0.006683 0.072294
O O1 0.600319 0.591834 0.772102
O O2 0.663797 0.489949 0.868380
O O3 0.616983 0.374363 0.762393
O O4 0.421068 0.462603 0.860924
O O5 0.269956 0.714942 0.572996
O O6 0.045898 0.715128 0.545817
O O7 0.118019 0.540996 0.601366
O O8 0.044170 0.717932 0.681226
O O9 0.585088 0.256235 0.181810
O O10 0.471864 0.749000 0.932799
O O11 0.654022 0.912404 0.940500
O O12 0.247681 0.655846 0.070579
O O13 0.334185 0.485614 0.995284
O O14 0.765626 0.122296 0.919160
#
# Coordination Sequence:
#
# PCOD9284161 Si02
#       8
#     8   8   4   8   8   4   8   8
#     4  10  21  40  67  92 127 171 226 277 326 405
#     4  10  22  40  64 101 126 172 218 276 336 395
#     4   9  22  43  62  90 126 171 215 268 338 390
#     4  10  22  43  71  94 133 174 224 278 337 398
#     4  11  24  39  65  99 132 172 222 271 346 404
#     4  11  22  39  64  98 128 161 223 280 334 394
#     4  11  24  43  66  96 137 177 221 277 345 414
#     4  10  21  42  67  97 127 178 228 277 333 401
#
# _framework density 23.729226000000001
#
# number of rings (size 3 to 8) (size 9 to 14) (size 15 to 20)
#    0.000    1.714    1.429    2.571    2.000    5.143 
#    2.571    0.000    0.000    0.000    0.000    0.000 
#    0.000    0.000    0.000    0.000    0.000    0.000 
#
# Total GULP energy -156521.115463 kJ/mol
# GULP energy per Si atom -5590.039838 kJ/mol
# Density = 2.367522 g / cm^3
# Si number density = 23.729226 Si / 1000 Ang^3
#
#
#
# Elastic Constant Matrix: (Units=GPa)
#
#
# Indices 1 2 3 4 5 6 
#
# 1 54.0761 8.2524 16.2286 0.0000 14.4754 0.0000
# 2 8.2524 111.3323 12.8392 0.0000 -9.2718 0.0000
# 3 16.2286 12.8392 165.4153 0.0000 7.7014 0.0000
# 4 0.0000 0.0000 0.0000 32.0978 0.0000 2.0353
# 5 14.4754 -9.2718 7.7014 0.0000 19.7806 0.0000
# 6 0.0000 0.0000 0.0000 2.0353 0.0000 7.2878
#
#
#
# Elastic Compliance Matrix: (Units=1/GPa)
#
#
# Indices 1 2 3 4 5 6 
#
# 1 0.024426 -0.003239 -0.001265 0.000000 -0.018900 0.000000
# 2 -0.003239 0.009924 -0.000794 0.000000 0.007331 0.000000
# 3 -0.001265 -0.000794 0.006320 0.000000 -0.001907 0.000000
# 4 0.000000 0.000000 0.000000 0.031716 0.000000 -0.008857
# 5 -0.018900 0.007331 -0.001907 0.000000 0.068565 0.000000
# 6 0.000000 0.000000 0.000000 -0.008857 0.000000 0.139689
#
#
# Mechanical properties :
#
#
# Convention : Reuss Voigt Hill
#
# Bulk Modulus (GPa) = 33.25052 45.05157 39.15105
# Shear Modulus (GPa) = 16.59699 31.40013 23.99856
#
# Velocity S-wave (km/s) = 2.64755 3.64162 3.18362
# Velocity P-wave (km/s) = 4.83621 6.05878 5.48168
#
# Compressibility (1/GPa) = 0.03007471
#
# Stress axis : x y z
#
# Youngs Moduli (GPa) = 40.94049 100.76320 158.23029
#
# Poissons Ratio (x) = 0.32634 0.20017
# Poissons Ratio (y) = 0.13259 0.12561
# Poissons Ratio (z) = 0.05179 0.07999
#
# Static dielectric constant tensor:
#      x y z
#    x 1.898720 0.000000 -0.010590 
#    y 0.000000 1.967450 0.000000 
#    z -0.010590 0.000000 1.893170 
# 
# From -- ./inp_files/237563.got.cif
#   From: 2010.05.17/outbox.cif.g08.bks.cpg/sg15_119_cif.got.tgz:237563.got - 2010.06.03 18:47:42.
