data_PCOD9284278
_publ_section_title
;
Structure prediction by ZEFSAII (Michael W. Deem and Ramdas Pophale) SiO2 
 PCOD9284278
Probable space group: C 2/C
;
_chemical_formula_sum "Si O2"
_cell_formula_units_Z 48
_cell_length_a 12.359480
_cell_length_b 10.467184
_cell_length_c 17.845135
_cell_angle_alpha 90.000000
_cell_angle_beta 70.553678
_cell_angle_gamma 90.000000
_cell_volume 2176.909194
_symmetry_space_group_name_H-M "C 2/C"
_symmetry_group_IT_number 15
_symmetry_cell_setting 'monoclinic'
loop_
_space_group_symop_operation_xyz
x,y,z
-x,y,1/2-z
-x,-y,-z
x,-y,1/2+z
1/2+x,1/2+y,z
1/2-x,1/2+y,1/2-z
1/2-x,1/2-y,-z
1/2+x,1/2-y,1/2+z
loop_
_atom_site_type_symbol
_atom_site_label
_atom_site_fract_x
_atom_site_fract_y
_atom_site_fract_z
Si Si1 0.441435 0.364220 0.335836
Si Si2 0.502063 0.285454 0.839210
Si Si3 0.638714 0.526024 0.876951
Si Si4 0.312322 0.567502 0.459084
Si Si5 0.437282 0.058063 0.945736
Si Si6 0.382381 0.081980 0.316762
O O1 0.500000 0.432923 0.250000
O O2 0.554810 0.362688 0.363825
O O3 0.344882 0.440243 0.404105
O O4 0.384623 0.236326 0.314396
O O5 0.500000 0.274587 0.750000
O O6 0.580039 0.395324 0.859456
O O7 0.376651 0.327643 0.895212
O O8 0.516197 0.152850 0.879589
O O9 0.771003 0.501984 0.820226
O O10 0.642354 0.543929 0.966250
O O11 0.182033 0.610272 0.495223
O O12 0.397304 0.945928 0.900465
O O13 0.500000 0.000000 0.000000
O O14 0.500000 0.041476 0.250000
#
# Coordination Sequence:
#
# PCOD9284278 Si02
#       6
#     8   8   8   8   8   8
#     4  10  21  40  68  95 125 172 223 269 335 397
#     4  11  23  43  65  97 131 170 221 272 336 396
#     4  10  22  40  70  93 129 172 218 280 324 397
#     4  10  22  41  67  93 127 168 222 271 329 401
#     4  11  26  39  63  93 134 173 214 271 334 399
#     4  10  24  44  61  98 133 169 221 269 334 399
#
# _framework density 22.049610999999999
#
# number of rings (size 3 to 8) (size 9 to 14) (size 15 to 20)
#    0.000    1.667    0.000    5.000    7.000    4.000 
#   15.000    0.000    0.000    0.000    0.000    0.000 
#    0.000    0.000    0.000    0.000    0.000    0.000 
#
# Total GULP energy -133622.697302 kJ/mol
# GULP energy per Si atom -5567.612388 kJ/mol
# Density = 2.199943 g / cm^3
# Si number density = 22.049611 Si / 1000 Ang^3
#
#
#
# Elastic Constant Matrix: (Units=GPa)
#
#
# Indices 1 2 3 4 5 6 
#
# 1 78.2895 -3.4466 33.2560 0.0000 -6.0687 0.0000
# 2 -3.4466 46.0716 10.7451 0.0000 -0.5247 0.0000
# 3 33.2560 10.7451 133.3321 0.0000 -5.2492 0.0000
# 4 0.0000 0.0000 0.0000 -137.9112 0.0000 19.9627
# 5 -6.0687 -0.5247 -5.2492 0.0000 40.7794 0.0000
# 6 0.0000 0.0000 0.0000 19.9627 0.0000 9.2938
#
#
#
# Elastic Compliance Matrix: (Units=1/GPa)
#
#
# Indices 1 2 3 4 5 6 
#
# 1 0.014577 0.001979 -0.003728 0.000000 0.001715 0.000000
# 2 0.001979 0.022390 -0.002287 0.000000 0.000288 0.000000
# 3 -0.003728 -0.002287 0.008635 0.000000 0.000527 0.000000
# 4 0.000000 0.000000 0.000000 -0.005531 0.000000 0.011881
# 5 0.001715 0.000288 0.000527 0.000000 0.024849 0.000000
# 6 0.000000 0.000000 0.000000 0.011881 0.000000 0.082079
#
#
# Mechanical properties :
#
#
# Convention : Reuss Voigt Hill
#
# Bulk Modulus (GPa) = 26.64435 37.64469 32.14452
# Shear Modulus (GPa) = 29.83669 -3.09170 13.37249
#
# Velocity S-wave (km/s) = 3.68253 -1.18541 2.46534
# Velocity P-wave (km/s) = 5.49467 3.90336 4.76590
#
# Compressibility (1/GPa) = 0.03753141
#
# Stress axis : x y z
#
# Youngs Moduli (GPa) = 68.60284 44.66273 115.80911
#
# Poissons Ratio (x) = -0.08841 0.43171
# Poissons Ratio (y) = -0.13579 0.26483
# Poissons Ratio (z) = 0.25573 0.10213
#
# Static dielectric constant tensor:
#      x y z
#    x 1.851080 0.000000 -0.032730 
#    y 0.000000 1.928390 0.000000 
#    z -0.032730 0.000000 1.808310 
# 
# From -- ./inp_files/196468.got.cif
#   From: 2010.05.17/outbox.cif.g08.bks.cpg/sg15_99_cif.got.tgz:196468.got - 2010.06.03 18:47:42.
