data_PCOD9284641
_publ_section_title
;
Structure prediction by ZEFSAII (Michael W. Deem and Ramdas Pophale) SiO2 
 PCOD9284641
Probable space group: C 2/C
;
_chemical_formula_sum "Si O2"
_cell_formula_units_Z 40
_cell_length_a 4.894323
_cell_length_b 29.236274
_cell_length_c 13.146468
_cell_angle_alpha 90.000000
_cell_angle_beta 108.823746
_cell_angle_gamma 90.000000
_cell_volume 1780.539133
_symmetry_space_group_name_H-M "C 2/C"
_symmetry_group_IT_number 15
_symmetry_cell_setting 'monoclinic'
loop_
_space_group_symop_operation_xyz
x,y,z
-x,y,1/2-z
-x,-y,-z
x,-y,1/2+z
1/2+x,1/2+y,z
1/2-x,1/2+y,1/2-z
1/2-x,1/2-y,-z
1/2+x,1/2-y,1/2+z
loop_
_atom_site_type_symbol
_atom_site_label
_atom_site_fract_x
_atom_site_fract_y
_atom_site_fract_z
Si Si1 0.180298 0.302969 0.175886
Si Si2 0.971532 0.202162 0.366889
Si Si3 0.111616 0.464653 0.375657
Si Si4 0.049378 0.345915 0.959504
Si Si5 0.216344 0.942548 0.513947
O O1 0.500000 0.289272 0.250000
O O2 0.017494 0.256895 0.118899
O O3 0.000000 0.321351 0.250000
O O4 0.207561 0.337326 0.085780
O O5 0.683420 0.186130 0.388494
O O6 0.000000 0.194510 0.250000
O O7 0.226343 0.170909 0.441221
O O8 0.378672 0.434771 0.450673
O O9 0.233400 0.516564 0.400010
O O10 0.000000 0.454074 0.250000
O O11 0.852074 0.459546 0.423870
O O12 0.110533 0.397473 0.934388
#
# Coordination Sequence:
#
# PCOD9284641 Si02
#       5
#     8   8   8   8   8
#     4  11  23  40  61  89 123 165 210 248 302 367
#     4  11  23  40  60  87 122 163 206 248 304 362
#     4  10  21  41  63  84 122 161 189 242 306 361
#     4  12  23  40  63  90 124 157 200 262 305 346
#     4  10  23  39  60  94 118 150 207 242 293 377
#
# _framework density 22.465107
#
# number of rings (size 3 to 8) (size 9 to 14) (size 15 to 20)
#    0.000    1.200    0.000    7.200    0.000    4.000 
#    0.000    0.000    0.000    0.000    0.000    0.000 
#    0.000    0.000    0.000    0.000    0.000    0.000 
#
# Total GULP energy -111835.031377 kJ/mol
# GULP energy per Si atom -5591.751569 kJ/mol
# Density = 2.241398 g / cm^3
# Si number density = 22.465107 Si / 1000 Ang^3
#
#
#
# Elastic Constant Matrix: (Units=GPa)
#
#
# Indices 1 2 3 4 5 6 
#
# 1 95.2328 -10.7467 3.2962 0.0000 0.6707 0.0000
# 2 -10.7467 45.8722 -5.6790 0.0000 4.7982 0.0000
# 3 3.2962 -5.6790 32.6184 0.0000 -8.3097 0.0000
# 4 0.0000 0.0000 0.0000 5.0062 0.0000 -3.5839
# 5 0.6707 4.7982 -8.3097 0.0000 43.0388 0.0000
# 6 0.0000 0.0000 0.0000 -3.5839 0.0000 18.8313
#
#
#
# Elastic Compliance Matrix: (Units=1/GPa)
#
#
# Indices 1 2 3 4 5 6 
#
# 1 0.010815 0.002496 -0.000812 0.000000 -0.000604 0.000000
# 2 0.002496 0.022993 0.003248 0.000000 -0.001975 0.000000
# 3 -0.000812 0.003248 0.032831 0.000000 0.005989 0.000000
# 4 0.000000 0.000000 0.000000 0.231262 0.000000 0.044013
# 5 -0.000604 -0.001975 0.005989 0.000000 0.024621 0.000000
# 6 0.000000 0.000000 0.000000 0.044013 0.000000 0.061480
#
#
# Mechanical properties :
#
#
# Convention : Reuss Voigt Hill
#
# Bulk Modulus (GPa) = 13.07147 16.38494 14.72820
# Shear Modulus (GPa) = 12.51131 25.83210 19.17170
#
# Velocity S-wave (km/s) = 2.36248 3.39466 2.92447
# Velocity P-wave (km/s) = 3.64320 4.76175 4.23953
#
# Compressibility (1/GPa) = 0.07650250
#
# Stress axis : x y z
#
# Youngs Moduli (GPa) = 92.46734 43.49113 30.45917
#
# Poissons Ratio (x) = -0.10856 0.02473
# Poissons Ratio (y) = -0.23082 -0.09892
# Poissons Ratio (z) = 0.07509 -0.14125
#
# Static dielectric constant tensor:
#      x y z
#    x 1.798160 0.000000 0.051650 
#    y 0.000000 1.844280 0.000000 
#    z 0.051650 0.000000 1.813650 
# 
# From -- ./inp_files/73634.got.cif
#   From: 2010.05.17/outbox.cif.g08.bks.cpg/sg15_37_cif.got.tgz:73634.got - 2010.06.03 18:47:42.
