data_PCOD9284721
_publ_section_title
;
Structure prediction by ZEFSAII (Michael W. Deem and Ramdas Pophale) SiO2 
 PCOD9284721
Probable space group: C 2/C
;
_chemical_formula_sum "Si O2"
_cell_formula_units_Z 52
_cell_length_a 21.300498
_cell_length_b 17.955594
_cell_length_c 8.388510
_cell_angle_alpha 90.000000
_cell_angle_beta 134.674451
_cell_angle_gamma 90.000000
_cell_volume 2281.460813
_symmetry_space_group_name_H-M "C 2/C"
_symmetry_group_IT_number 15
_symmetry_cell_setting 'monoclinic'
loop_
_space_group_symop_operation_xyz
x,y,z
-x,y,1/2-z
-x,-y,-z
x,-y,1/2+z
1/2+x,1/2+y,z
1/2-x,1/2+y,1/2-z
1/2-x,1/2-y,-z
1/2+x,1/2-y,1/2+z
loop_
_atom_site_type_symbol
_atom_site_label
_atom_site_fract_x
_atom_site_fract_y
_atom_site_fract_z
Si Si1 0.781610 0.675915 0.359201
Si Si2 0.400547 0.363858 0.109016
Si Si3 0.934063 0.970830 0.746622
Si Si4 0.626677 0.056412 0.203443
Si Si5 0.500000 0.964954 0.750000
Si Si6 0.294746 0.689074 0.704509
Si Si7 0.754387 0.588644 0.608638
O O1 0.825522 0.622788 0.303790
O O2 0.817947 0.757703 0.392844
O O3 0.798481 0.646186 0.565261
O O4 0.676328 0.671762 0.135630
O O5 0.500000 0.339377 0.250000
O O6 0.399581 0.453727 0.097703
O O7 0.372407 0.344745 0.238936
O O8 0.847022 0.924760 0.623196
O O9 0.000000 0.926779 0.750000
O O10 0.000000 0.000000 0.000000
O O11 0.569635 0.076848 0.258904
O O12 0.697565 0.989557 0.343477
O O13 0.556563 0.019095 0.960734
O O14 0.250000 0.750000 0.500000
O O15 0.245477 0.620752 0.709272
#
# Coordination Sequence:
#
# PCOD9284721 Si02
#       7
#     8   8   8   8   4   8   8
#     4  11  23  42  65  98 134 177 228 273 342 424
#     4  10  21  41  63  96 135 171 222 276 334 414
#     4  11  22  35  62 102 136 168 222 276 338 410
#     4  11  23  42  69  99 126 173 228 290 346 399
#     4  10  24  42  64  96 134 160 228 302 334 394
#     4  10  25  42  65  93 135 182 230 274 341 414
#     4  12  23  40  72  96 135 181 220 287 346 409
#
# _framework density 22.792414000000001
#
# number of rings (size 3 to 8) (size 9 to 14) (size 15 to 20)
#    0.000    1.231    3.077    3.231    6.462    0.000 
#    1.385    1.538    5.077    0.000    0.000    0.000 
#    0.000    0.000    0.000    0.000    0.000    0.000 
#
# Total GULP energy -145025.428153 kJ/mol
# GULP energy per Si atom -5577.901083 kJ/mol
# Density = 2.274054 g / cm^3
# Si number density = 22.792414 Si / 1000 Ang^3
#
#
#
# Elastic Constant Matrix: (Units=GPa)
#
#
# Indices 1 2 3 4 5 6 
#
# 1 203.9666 43.4641 32.2133 0.0000 4.6953 0.0000
# 2 43.4641 58.6223 -6.8472 0.0000 3.4162 0.0000
# 3 32.2133 -6.8472 63.7057 0.0000 11.5535 0.0000
# 4 0.0000 0.0000 0.0000 14.4585 0.0000 -10.3922
# 5 4.6953 3.4162 11.5535 0.0000 32.2311 0.0000
# 6 0.0000 0.0000 0.0000 -10.3922 0.0000 42.0972
#
#
#
# Elastic Compliance Matrix: (Units=1/GPa)
#
#
# Indices 1 2 3 4 5 6 
#
# 1 0.006719 -0.005537 -0.004194 0.000000 0.001111 0.000000
# 2 -0.005537 0.022055 0.005827 0.000000 -0.003620 0.000000
# 3 -0.004194 0.005827 0.019728 0.000000 -0.007078 0.000000
# 4 0.000000 0.000000 0.000000 0.084082 0.000000 0.020757
# 5 0.001111 -0.003620 -0.007078 0.000000 0.033785 0.000000
# 6 0.000000 0.000000 0.000000 0.020757 0.000000 0.028879
#
#
# Mechanical properties :
#
#
# Convention : Reuss Voigt Hill
#
# Bulk Modulus (GPa) = 24.57396 51.55055 38.06226
# Shear Modulus (GPa) = 23.08172 34.92166 29.00169
#
# Velocity S-wave (km/s) = 3.18574 3.91853 3.57098
# Velocity P-wave (km/s) = 4.93325 6.56808 5.80847
#
# Compressibility (1/GPa) = 0.04069348
#
# Stress axis : x y z
#
# Youngs Moduli (GPa) = 148.82165 45.34139 50.68922
#
# Poissons Ratio (x) = 0.25104 0.21261
# Poissons Ratio (y) = 0.82398 -0.29535
# Poissons Ratio (z) = 0.62422 -0.26419
#
# Static dielectric constant tensor:
#      x y z
#    x 1.971690 0.000000 -0.051890 
#    y 0.000000 1.838130 0.000000 
#    z -0.051890 0.000000 1.917860 
# 
# From -- ./inp_files/50708.got.cif
#   From: 2010.05.17/outbox.cif.g08.bks.cpg/sg15_26_cif.got.tgz:50708.got - 2010.06.03 18:47:42.
