data_PCOD9284456
_publ_section_title
;
Structure prediction by ZEFSAII (Michael W. Deem and Ramdas Pophale) SiO2 
 PCOD9284456
Probable space group: C 2/C
;
_chemical_formula_sum "Si O2"
_cell_formula_units_Z 40
_cell_length_a 17.204871
_cell_length_b 11.929039
_cell_length_c 14.126677
_cell_angle_alpha 90.000000
_cell_angle_beta 40.136515
_cell_angle_gamma 90.000000
_cell_volume 1868.936729
_symmetry_space_group_name_H-M "C 2/C"
_symmetry_group_IT_number 15
_symmetry_cell_setting 'monoclinic'
loop_
_space_group_symop_operation_xyz
x,y,z
-x,y,1/2-z
-x,-y,-z
x,-y,1/2+z
1/2+x,1/2+y,z
1/2-x,1/2+y,1/2-z
1/2-x,1/2-y,-z
1/2+x,1/2-y,1/2+z
loop_
_atom_site_type_symbol
_atom_site_label
_atom_site_fract_x
_atom_site_fract_y
_atom_site_fract_z
Si Si1 0.244359 0.119217 0.040678
Si Si2 0.500000 0.511606 0.750000
Si Si3 0.000000 0.617169 0.750000
Si Si4 0.066056 0.095547 0.497898
Si Si5 0.455878 0.166038 0.574950
Si Si6 0.194708 0.544416 0.304962
O O1 0.251792 0.093956 0.146430
O O2 0.250000 0.250000 0.000000
O O3 0.367803 0.062265 0.886030
O O4 0.117625 0.066294 0.129414
O O5 0.501047 0.590377 0.658295
O O6 0.015414 0.674772 0.839071
O O7 0.055546 0.212812 0.456601
O O8 0.207955 0.067981 0.365834
O O9 0.000000 0.000000 0.500000
O O10 0.566800 0.106230 0.417872
O O11 0.340028 0.086979 0.664945
#
# Coordination Sequence:
#
# PCOD9284456 Si02
#       6
#     8   4   4   8   8   8
#     4  11  22  38  69 103 138 171 230 286 344 413
#     4  12  27  44  65 110 132 187 232 283 358 418
#     4  10  21  40  73 102 130 181 232 297 334 410
#     4  12  26  42  70 100 142 181 231 292 353 419
#     4  10  24  44  70 106 140 186 236 293 352 419
#     4  10  23  45  70 101 142 184 229 295 358 406
#
# _framework density 21.402543999999999
#
# number of rings (size 3 to 8) (size 9 to 14) (size 15 to 20)
#    0.000    1.200    2.000    3.000    8.400    0.000 
#    0.000   13.000    0.000    0.000    0.000    0.000 
#    0.000    0.000    0.000    0.000    0.000    0.000 
#
# Total GULP energy -111603.586386 kJ/mol
# GULP energy per Si atom -5580.179319 kJ/mol
# Density = 2.135383 g / cm^3
# Si number density = 21.402544 Si / 1000 Ang^3
#
#
#
# Elastic Constant Matrix: (Units=GPa)
#
#
# Indices 1 2 3 4 5 6 
#
# 1 80.0256 45.3510 30.6433 0.0000 10.5870 0.0000
# 2 45.3510 145.1069 39.2460 0.0000 8.6242 0.0000
# 3 30.6433 39.2460 152.1717 0.0000 -0.2078 0.0000
# 4 0.0000 0.0000 0.0000 6.6675 0.0000 -1.2088
# 5 10.5870 8.6242 -0.2078 0.0000 50.7587 0.0000
# 6 0.0000 0.0000 0.0000 -1.2088 0.0000 20.4378
#
#
#
# Elastic Compliance Matrix: (Units=1/GPa)
#
#
# Indices 1 2 3 4 5 6 
#
# 1 0.016098 -0.004296 -0.002137 0.000000 -0.002636 0.000000
# 2 -0.004296 0.008637 -0.001363 0.000000 -0.000577 0.000000
# 3 -0.002137 -0.001363 0.007354 0.000000 0.000707 0.000000
# 4 0.000000 0.000000 0.000000 0.151608 0.000000 0.008967
# 5 -0.002636 -0.000577 0.000707 0.000000 0.020352 0.000000
# 6 0.000000 0.000000 0.000000 0.008967 0.000000 0.049459
#
#
# Mechanical properties :
#
#
# Convention : Reuss Voigt Hill
#
# Bulk Modulus (GPa) = 60.62097 67.53164 64.07631
# Shear Modulus (GPa) = 18.20826 33.04373 25.62599
#
# Velocity S-wave (km/s) = 2.91993 3.93353 3.46401
# Velocity P-wave (km/s) = 6.30505 7.22854 6.78253
#
# Compressibility (1/GPa) = 0.01649594
#
# Stress axis : x y z
#
# Youngs Moduli (GPa) = 62.11955 115.77765 135.97216
#
# Poissons Ratio (x) = 0.49743 0.29060
# Poissons Ratio (y) = 0.26689 0.18536
# Poissons Ratio (z) = 0.13276 0.15783
#
# Static dielectric constant tensor:
#      x y z
#    x 1.802390 0.000000 -0.019350 
#    y 0.000000 2.719720 0.000000 
#    z -0.019350 0.000000 1.992890 
# 
# From -- ./inp_files/160685.got.cif
#   From: 2010.05.17/outbox.cif.g08.bks.cpg/sg15_81_cif.got.tgz:160685.got - 2010.06.03 18:47:42.
