data_PCOD9284818
_publ_section_title
;
Structure prediction by ZEFSAII (Michael W. Deem and Ramdas Pophale) SiO2 
 PCOD9284818
Probable space group: C 2/C
;
_chemical_formula_sum "Si O2"
_cell_formula_units_Z 56
_cell_length_a 5.570975
_cell_length_b 19.510573
_cell_length_c 22.929980
_cell_angle_alpha 90.000000
_cell_angle_beta 109.038423
_cell_angle_gamma 90.000000
_cell_volume 2355.996188
_symmetry_space_group_name_H-M "C 2/C"
_symmetry_group_IT_number 15
_symmetry_cell_setting 'monoclinic'
loop_
_space_group_symop_operation_xyz
x,y,z
-x,y,1/2-z
-x,-y,-z
x,-y,1/2+z
1/2+x,1/2+y,z
1/2-x,1/2+y,1/2-z
1/2-x,1/2-y,-z
1/2+x,1/2-y,1/2+z
loop_
_atom_site_type_symbol
_atom_site_label
_atom_site_fract_x
_atom_site_fract_y
_atom_site_fract_z
Si Si1 0.487125 0.327752 0.816229
Si Si2 0.887326 0.883449 0.926900
Si Si3 0.769227 0.024345 0.886612
Si Si4 0.469303 0.218778 0.408258
Si Si5 0.257400 0.807811 0.348801
Si Si6 0.823312 0.038102 0.683496
Si Si7 0.771158 0.661318 0.542694
O O1 0.500000 0.346073 0.750000
O O2 0.340083 0.371369 0.853726
O O3 0.392156 0.249159 0.818855
O O4 0.766931 0.331877 0.864339
O O5 0.710915 0.826474 0.942889
O O6 0.813296 0.960905 0.933564
O O7 0.166950 0.865785 0.973195
O O8 0.474670 0.016401 0.841130
O O9 0.789486 0.098502 0.918251
O O10 0.003556 0.021623 0.859375
O O11 0.521208 0.270224 0.358397
O O12 0.365333 0.268180 0.449850
O O13 0.198541 0.879101 0.314354
O O14 0.436835 0.823792 0.419069
O O15 0.000000 0.012326 0.750000
#
# Coordination Sequence:
#
# PCOD9284818 Si02
#       7
#     8   8   8   8   8   8   8
#     4  10  24  41  63  94 136 179 224 280 343 421
#     4  11  25  41  65  96 134 184 225 280 352 420
#     4  11  25  46  66 105 137 182 235 288 352 406
#     4  10  21  41  64  96 127 170 226 278 349 411
#     4   9  21  38  66  99 129 164 226 284 344 399
#     4  11  24  44  72 100 136 182 234 287 343 410
#     4  10  21  43  67  95 133 172 230 292 343 414
#
# _framework density 23.769141000000001
#
# number of rings (size 3 to 8) (size 9 to 14) (size 15 to 20)
#    0.000    1.714    1.429    1.286    4.000    8.571 
#    2.571    2.143    0.000    0.000    0.000    0.000 
#    0.000    0.000    0.000    0.000    0.000    0.000 
#
# Total GULP energy -156302.190784 kJ/mol
# GULP energy per Si atom -5582.221099 kJ/mol
# Density = 2.371504 g / cm^3
# Si number density = 23.769141 Si / 1000 Ang^3
#
#
#
# Elastic Constant Matrix: (Units=GPa)
#
#
# Indices 1 2 3 4 5 6 
#
# 1 84.5223 10.3262 28.2041 0.0000 5.5041 0.0000
# 2 10.3262 101.5089 3.0261 0.0000 12.1727 0.0000
# 3 28.2041 3.0261 110.1223 0.0000 3.2778 0.0000
# 4 0.0000 0.0000 0.0000 6.9576 0.0000 9.5986
# 5 5.5041 12.1727 3.2778 0.0000 24.4237 0.0000
# 6 0.0000 0.0000 0.0000 9.5986 0.0000 14.5520
#
#
#
# Elastic Compliance Matrix: (Units=1/GPa)
#
#
# Indices 1 2 3 4 5 6 
#
# 1 0.013183 -0.000999 -0.003288 0.000000 -0.002031 0.000000
# 2 -0.000999 0.010555 0.000116 0.000000 -0.005051 0.000000
# 3 -0.003288 0.000116 0.009939 0.000000 -0.000651 0.000000
# 4 0.000000 0.000000 0.000000 1.596709 0.000000 -1.053204
# 5 -0.002031 -0.005051 -0.000651 0.000000 0.044006 0.000000
# 6 0.000000 0.000000 0.000000 -1.053204 0.000000 0.763423
#
#
# Mechanical properties :
#
#
# Convention : Reuss Voigt Hill
#
# Bulk Modulus (GPa) = 39.47232 42.14070 40.80651
# Shear Modulus (GPa) = 2.03699 26.15981 14.09840
#
# Velocity S-wave (km/s) = 0.92674 3.32110 2.43809
# Velocity P-wave (km/s) = 4.21755 5.69859 5.01306
#
# Compressibility (1/GPa) = 0.02533421
#
# Stress axis : x y z
#
# Youngs Moduli (GPa) = 75.85585 94.73943 100.61171
#
# Poissons Ratio (x) = 0.09469 0.33085
# Poissons Ratio (y) = 0.07581 -0.01170
# Poissons Ratio (z) = 0.24945 -0.01102
#
# Static dielectric constant tensor:
#      x y z
#    x 1.929870 0.000000 -0.031990 
#    y 0.000000 1.892290 0.000000 
#    z -0.031990 0.000000 1.897850 
# 
# From -- ./inp_files/261396.got.cif
#   From: 2010.05.17/outbox.cif.g08.bks.cpg/sg15_131_cif.got.tgz:261396.got - 2010.06.03 18:47:42.
