data_PCOD9284062
_publ_section_title
;
Structure prediction by ZEFSAII (Michael W. Deem and Ramdas Pophale) SiO2 
 PCOD9284062
Probable space group: C 2/C
;
_chemical_formula_sum "Si O2"
_cell_formula_units_Z 56
_cell_length_a 25.917767
_cell_length_b 5.953077
_cell_length_c 18.114332
_cell_angle_alpha 90.000000
_cell_angle_beta 110.406714
_cell_angle_gamma 90.000000
_cell_volume 2619.465884
_symmetry_space_group_name_H-M "C 2/C"
_symmetry_group_IT_number 15
_symmetry_cell_setting 'monoclinic'
loop_
_space_group_symop_operation_xyz
x,y,z
-x,y,1/2-z
-x,-y,-z
x,-y,1/2+z
1/2+x,1/2+y,z
1/2-x,1/2+y,1/2-z
1/2-x,1/2-y,-z
1/2+x,1/2-y,1/2+z
loop_
_atom_site_type_symbol
_atom_site_label
_atom_site_fract_x
_atom_site_fract_y
_atom_site_fract_z
Si Si1 0.095960 0.685763 0.531444
Si Si2 0.407923 0.800253 0.847393
Si Si3 0.593826 0.810083 0.424214
Si Si4 0.888793 0.674073 0.739181
Si Si5 0.735945 0.792044 0.279183
Si Si6 0.023486 0.911480 0.608450
Si Si7 0.169856 0.074589 0.581735
O O1 0.093033 0.492070 0.591258
O O2 0.087385 0.565552 0.449674
O O3 0.049557 0.850312 0.541337
O O4 0.154173 0.814734 0.562474
O O5 0.465528 0.673728 0.875119
O O6 0.361518 0.637476 0.857126
O O7 0.395459 0.911765 0.763675
O O8 0.606535 0.789702 0.344951
O O9 0.536758 0.684047 0.412212
O O10 0.640892 0.701069 0.499384
O O11 0.828675 0.735859 0.738972
O O12 0.936966 0.800040 0.808721
O O13 0.755961 0.541469 0.258737
O O14 0.769011 0.845375 0.371323
#
# Coordination Sequence:
#
# PCOD9284062 Si02
#       7
#     8   8   8   8   8   8   8
#     4   9  20  38  62  92 126 173 223 274 335 413
#     4   9  18  39  64  89 122 170 232 271 329 410
#     4  11  24  40  61  99 145 176 221 287 361 416
#     4  11  24  41  65  99 135 180 232 290 352 420
#     4  12  25  46  79 103 133 187 246 301 346 424
#     4  10  21  40  66  93 131 183 232 281 337 422
#     4  10  22  40  65  99 133 175 230 288 347 418
#
# _framework density 21.378402999999999
#
# number of rings (size 3 to 8) (size 9 to 14) (size 15 to 20)
#    0.000    1.714    1.429    3.429    2.000    9.143 
#    0.000    3.571    0.000    0.000    0.000    0.000 
#    0.000    0.000    0.000    0.000    0.000    0.000 
#
# Total GULP energy -156153.860831 kJ/mol
# GULP energy per Si atom -5576.923601 kJ/mol
# Density = 2.132975 g / cm^3
# Si number density = 21.378403 Si / 1000 Ang^3
#
#
#
# Elastic Constant Matrix: (Units=GPa)
#
#
# Indices 1 2 3 4 5 6 
#
# 1 56.6532 22.1060 42.7529 0.0000 13.3550 0.0000
# 2 22.1060 91.5531 43.1034 0.0000 -4.0265 0.0000
# 3 42.7529 43.1034 142.6316 0.0000 8.6830 0.0000
# 4 0.0000 0.0000 0.0000 33.4599 0.0000 16.5735
# 5 13.3550 -4.0265 8.6830 0.0000 35.7804 0.0000
# 6 0.0000 0.0000 0.0000 16.5735 0.0000 24.5535
#
#
#
# Elastic Compliance Matrix: (Units=1/GPa)
#
#
# Indices 1 2 3 4 5 6 
#
# 1 0.025686 -0.003728 -0.006053 0.000000 -0.008538 0.000000
# 2 -0.003728 0.013482 -0.003181 0.000000 0.003681 0.000000
# 3 -0.006053 -0.003181 0.009816 0.000000 -0.000481 0.000000
# 4 0.000000 0.000000 0.000000 0.044898 0.000000 -0.030306
# 5 -0.008538 0.003681 -0.000481 0.000000 0.031666 0.000000
# 6 0.000000 0.000000 0.000000 -0.030306 0.000000 0.061184
#
#
# Mechanical properties :
#
#
# Convention : Reuss Voigt Hill
#
# Bulk Modulus (GPa) = 43.36341 56.30691 49.83516
# Shear Modulus (GPa) = 22.69194 30.95048 26.82121
#
# Velocity S-wave (km/s) = 3.26151 3.80905 3.54587
# Velocity P-wave (km/s) = 5.87461 6.76318 6.33449
#
# Compressibility (1/GPa) = 0.02306092
#
# Stress axis : x y z
#
# Youngs Moduli (GPa) = 38.93109 74.17174 101.87463
#
# Poissons Ratio (x) = 0.27650 0.61665
# Poissons Ratio (y) = 0.14513 0.32406
# Poissons Ratio (z) = 0.23565 0.23594
#
# Static dielectric constant tensor:
#      x y z
#    x 1.796200 0.000000 0.054930 
#    y 0.000000 1.905820 0.000000 
#    z 0.054930 0.000000 1.789220 
# 
# From -- ./inp_files/221296.got.cif
#   From: 2010.05.17/outbox.cif.g08.bks.cpg/sg15_111_cif.got.tgz:221296.got - 2010.06.03 18:47:42.
