data_PCOD9284928
_publ_section_title
;
Structure prediction by ZEFSAII (Michael W. Deem and Ramdas Pophale) SiO2 
 PCOD9284928
Probable space group: C 2/C
;
_chemical_formula_sum "Si O2"
_cell_formula_units_Z 52
_cell_length_a 25.537927
_cell_length_b 12.591521
_cell_length_c 21.318819
_cell_angle_alpha 90.000000
_cell_angle_beta 160.672710
_cell_angle_gamma 90.000000
_cell_volume 2268.859419
_symmetry_space_group_name_H-M "C 2/C"
_symmetry_group_IT_number 15
_symmetry_cell_setting 'monoclinic'
loop_
_space_group_symop_operation_xyz
x,y,z
-x,y,1/2-z
-x,-y,-z
x,-y,1/2+z
1/2+x,1/2+y,z
1/2-x,1/2+y,1/2-z
1/2-x,1/2-y,-z
1/2+x,1/2-y,1/2+z
loop_
_atom_site_type_symbol
_atom_site_label
_atom_site_fract_x
_atom_site_fract_y
_atom_site_fract_z
Si Si1 0.960342 0.587924 0.523311
Si Si2 0.373130 0.523934 0.409634
Si Si3 0.323550 0.281311 0.945402
Si Si4 0.873564 0.307343 0.055921
Si Si5 0.973369 0.899827 0.806389
Si Si6 0.502107 0.865206 0.933375
Si Si7 0.500000 0.406638 0.250000
O O1 0.798570 0.529334 0.317348
O O2 0.923321 0.654253 0.542632
O O3 0.026173 0.646436 0.535834
O O4 0.063794 0.483810 0.653915
O O5 0.500000 0.500000 0.500000
O O6 0.372742 0.636670 0.445385
O O7 0.422121 0.437278 0.516466
O O8 0.137473 0.286361 0.741820
O O9 0.365449 0.166312 0.966153
O O10 0.394680 0.328323 0.089175
O O11 0.000000 0.350902 0.250000
O O12 0.905994 0.180971 0.091950
O O13 0.692333 0.340231 0.864840
O O14 0.928010 0.007590 0.717771
#
# Coordination Sequence:
#
# PCOD9284928 Si02
#       7
#     8   8   8   8   8   8   4
#     4  10  24  43  66 100 139 173 222 286 340 396
#     4  10  21  41  65  96 129 173 220 280 334 395
#     4  10  24  41  68  92 128 174 225 270 341 394
#     4  12  26  41  68 101 137 186 223 277 341 417
#     4  11  25  43  68  96 138 178 229 275 344 404
#     4  10  24  43  65 100 129 172 225 282 336 399
#     4  10  24  46  64  92 136 176 222 282 328 406
#
# _framework density 22.919004999999999
#
# number of rings (size 3 to 8) (size 9 to 14) (size 15 to 20)
#    0.000    1.538    2.308    0.462    6.462    5.538 
#    1.385    0.000    0.000    0.000    0.000    0.000 
#    0.000    0.000    0.000    0.000    0.000    0.000 
#
# Total GULP energy -145027.899517 kJ/mol
# GULP energy per Si atom -5577.996135 kJ/mol
# Density = 2.286684 g / cm^3
# Si number density = 22.919005 Si / 1000 Ang^3
#
#
#
# Elastic Constant Matrix: (Units=GPa)
#
#
# Indices 1 2 3 4 5 6 
#
# 1 47.6166 3.8229 19.3884 -0.0002 -22.1338 -0.0003
# 2 3.8229 56.5283 25.9589 -0.0002 -15.0289 -0.0003
# 3 19.3884 25.9589 82.7961 -0.0011 -9.7375 -0.0007
# 4 -0.0002 -0.0002 -0.0011 58.2299 -0.0008 -17.6069
# 5 -22.1338 -15.0289 -9.7375 -0.0008 33.8929 -0.0002
# 6 -0.0003 -0.0003 -0.0007 -17.6069 -0.0002 53.5372
#
#
#
# Elastic Compliance Matrix: (Units=1/GPa)
#
#
# Indices 1 2 3 4 5 6 
#
# 1 0.034504 0.007461 -0.007638 0.000000 0.023647 0.000000
# 2 0.007461 0.024335 -0.007798 0.000000 0.013423 0.000000
# 3 -0.007638 -0.007798 0.015854 0.000000 -0.003891 0.000000
# 4 0.000000 0.000000 0.000000 0.019070 0.000001 0.006271
# 5 0.023647 0.013423 -0.003891 0.000001 0.049781 0.000001
# 6 0.000000 0.000000 0.000000 0.006271 0.000001 0.020741
#
#
# Mechanical properties :
#
#
# Convention : Reuss Voigt Hill
#
# Bulk Modulus (GPa) = 17.02349 31.69795 24.36072
# Shear Modulus (GPa) = 25.02293 38.31672 31.66983
#
# Velocity S-wave (km/s) = 3.30782 4.09324 3.72131
# Velocity P-wave (km/s) = 4.69390 6.01664 5.39595
#
# Compressibility (1/GPa) = 0.05874235
#
# Stress axis : x y z
#
# Youngs Moduli (GPa) = 28.98226 41.09229 63.07625
#
# Poissons Ratio (x) = -0.30658 0.48177
# Poissons Ratio (y) = -0.21623 0.49189
# Poissons Ratio (z) = 0.22136 0.32045
#
# Static dielectric constant tensor:
#      x y z
#    x 1.891640 0.000000 0.002350 
#    y 0.000000 2.034310 0.000000 
#    z 0.002350 0.000000 1.947150 
# 
# From -- ./inp_files/257821.got.cif
#   From: 2010.05.17/outbox.cif.g08.bks.cpg/sg15_129_cif.got.tgz:257821.got - 2010.06.03 18:47:42.
