data_PCOD9284598
_publ_section_title
;
Structure prediction by ZEFSAII (Michael W. Deem and Ramdas Pophale) SiO2 
 PCOD9284598
Probable space group: C 2/C
;
_chemical_formula_sum "Si O2"
_cell_formula_units_Z 48
_cell_length_a 13.072746
_cell_length_b 14.435299
_cell_length_c 12.820402
_cell_angle_alpha 90.000000
_cell_angle_beta 110.182367
_cell_angle_gamma 90.000000
_cell_volume 2270.776812
_symmetry_space_group_name_H-M "C 2/C"
_symmetry_group_IT_number 15
_symmetry_cell_setting 'monoclinic'
loop_
_space_group_symop_operation_xyz
x,y,z
-x,y,1/2-z
-x,-y,-z
x,-y,1/2+z
1/2+x,1/2+y,z
1/2-x,1/2+y,1/2-z
1/2-x,1/2-y,-z
1/2+x,1/2-y,1/2+z
loop_
_atom_site_type_symbol
_atom_site_label
_atom_site_fract_x
_atom_site_fract_y
_atom_site_fract_z
Si Si1 0.193374 0.842486 0.812345
Si Si2 0.000000 0.621996 0.250000
Si Si3 0.500000 0.527987 0.250000
Si Si4 0.918487 0.658352 0.816905
Si Si5 0.702246 0.009094 0.302203
Si Si6 0.585039 0.431337 0.081984
Si Si7 0.427423 0.786286 0.940432
O O1 0.148414 0.749209 0.742464
O O2 0.301915 0.817734 0.915639
O O3 0.092427 0.900223 0.826753
O O4 0.236517 0.909053 0.736150
O O5 0.099597 0.556479 0.320408
O O6 0.039214 0.679682 0.163728
O O7 0.563427 0.459498 0.194739
O O8 0.842028 0.568300 0.793661
O O9 0.000000 0.641418 0.750000
O O10 0.989377 0.674614 0.944758
O O11 0.791823 0.958862 0.403609
O O12 0.565866 0.324396 0.055242
O O13 0.500000 0.500000 0.000000
#
# Coordination Sequence:
#
# PCOD9284598 Si02
#       7
#     8   4   4   8   8   8   8
#     4  10  22  41  66  96 131 167 219 266 326 393
#     4  10  23  45  66  96 132 172 224 262 326 394
#     4  10  21  41  62  90 134 166 210 276 316 390
#     4  12  24  43  66  96 133 170 217 271 329 384
#     4  10  22  44  64  95 136 167 216 271 319 397
#     4  11  23  42  65  95 129 172 221 266 328 380
#     4  11  24  43  68  95 130 175 218 272 324 390
#
# _framework density 21.138141000000001
#
# number of rings (size 3 to 8) (size 9 to 14) (size 15 to 20)
#    0.000    1.333    3.333    2.500    0.000    4.667 
#    6.000    4.167    0.000    0.000    0.000    0.000 
#    0.000    0.000    0.000    0.000    0.000    0.000 
#
# Total GULP energy -133996.625374 kJ/mol
# GULP energy per Si atom -5583.192724 kJ/mol
# Density = 2.109003 g / cm^3
# Si number density = 21.138141 Si / 1000 Ang^3
#
#
#
# Elastic Constant Matrix: (Units=GPa)
#
#
# Indices 1 2 3 4 5 6 
#
# 1 89.6872 23.2344 18.8138 0.0000 17.4517 0.0000
# 2 23.2344 93.9530 12.9764 0.0000 4.6054 0.0000
# 3 18.8138 12.9764 83.6495 0.0000 22.0184 0.0000
# 4 0.0000 0.0000 0.0000 24.6792 0.0000 10.7746
# 5 17.4517 4.6054 22.0184 0.0000 37.5682 0.0000
# 6 0.0000 0.0000 0.0000 10.7746 0.0000 41.7793
#
#
#
# Elastic Compliance Matrix: (Units=1/GPa)
#
#
# Indices 1 2 3 4 5 6 
#
# 1 0.013114 -0.002832 -0.001180 0.000000 -0.005053 0.000000
# 2 -0.002832 0.011494 -0.001326 0.000000 0.000684 0.000000
# 3 -0.001180 -0.001326 0.014471 0.000000 -0.007771 0.000000
# 4 0.000000 0.000000 0.000000 0.045661 0.000000 -0.011776
# 5 -0.005053 0.000684 -0.007771 0.000000 0.033436 0.000000
# 6 0.000000 0.000000 0.000000 -0.011776 0.000000 0.026972
#
#
# Mechanical properties :
#
#
# Convention : Reuss Voigt Hill
#
# Bulk Modulus (GPa) = 35.20844 41.92657 38.56750
# Shear Modulus (GPa) = 30.24923 34.95633 32.60278
#
# Velocity S-wave (km/s) = 3.78699 4.07099 3.93156
# Velocity P-wave (km/s) = 5.98450 6.47881 6.23655
#
# Compressibility (1/GPa) = 0.02840228
#
# Stress axis : x y z
#
# Youngs Moduli (GPa) = 76.25155 87.00419 69.10282
#
# Poissons Ratio (x) = 0.24644 0.08155
# Poissons Ratio (y) = 0.21598 0.09163
# Poissons Ratio (z) = 0.08998 0.11536
#
# Static dielectric constant tensor:
#      x y z
#    x 1.840620 0.000000 0.024070 
#    y 0.000000 1.739180 0.000000 
#    z 0.024070 0.000000 1.794970 
# 
# From -- ./inp_files/144407.got.cif
#   From: 2010.05.17/outbox.cif.g08.bks.cpg/sg15_73_cif.got.tgz:144407.got - 2010.06.03 18:47:42.
