data_PCOD9284534
_publ_section_title
;
Structure prediction by ZEFSAII (Michael W. Deem and Ramdas Pophale) SiO2 
 PCOD9284534
Probable space group: C 2/C
;
_chemical_formula_sum "Si O2"
_cell_formula_units_Z 60
_cell_length_a 17.433072
_cell_length_b 11.938914
_cell_length_c 19.612791
_cell_angle_alpha 90.000000
_cell_angle_beta 136.793346
_cell_angle_gamma 90.000000
_cell_volume 2794.699968
_symmetry_space_group_name_H-M "C 2/C"
_symmetry_group_IT_number 15
_symmetry_cell_setting 'monoclinic'
loop_
_space_group_symop_operation_xyz
x,y,z
-x,y,1/2-z
-x,-y,-z
x,-y,1/2+z
1/2+x,1/2+y,z
1/2-x,1/2+y,1/2-z
1/2-x,1/2-y,-z
1/2+x,1/2-y,1/2+z
loop_
_atom_site_type_symbol
_atom_site_label
_atom_site_fract_x
_atom_site_fract_y
_atom_site_fract_z
Si Si1 0.886711 0.235064 0.653384
Si Si2 0.000000 0.242655 0.250000
Si Si3 0.908272 0.670257 0.926937
Si Si4 0.829503 0.315460 0.882099
Si Si5 0.757618 0.637852 0.183946
Si Si6 0.180307 0.387500 0.280040
Si Si7 0.792102 0.138068 0.062920
Si Si8 0.817382 0.586804 0.011713
O O1 0.831246 0.280184 0.685807
O O2 0.901324 0.343308 0.614188
O O3 0.801070 0.152173 0.562191
O O4 0.000000 0.178158 0.750000
O O5 0.084577 0.324042 0.262705
O O6 0.074742 0.160404 0.346400
O O7 0.862669 0.799380 0.899847
O O8 0.862551 0.619929 0.826294
O O9 0.863163 0.603049 0.964289
O O10 0.042065 0.667138 0.015892
O O11 0.798171 0.358360 0.787641
O O12 0.792782 0.185990 0.858844
O O13 0.748065 0.369481 0.884903
O O14 0.783983 0.512517 0.177270
O O15 0.719993 0.034877 0.986994
O O16 0.750000 0.250000 0.000000
#
# Coordination Sequence:
#
# PCOD9284534 Si02
#       8
#     8   4   8   8   8   8   8   8
#     4  10  22  38  62  90 120 164 205 257 307 354
#     4  10  24  40  60  92 124 166 202 252 316 364
#     4  10  21  41  61  87 124 162 203 253 305 364
#     4  10  22  39  60  88 122 160 202 245 308 369
#     4  10  22  38  62  89 120 158 206 253 304 361
#     4  10  22  39  61  91 123 159 207 256 299 367
#     4  11  24  40  62  92 124 163 204 250 306 371
#     4  10  23  40  60  92 125 157 212 253 301 373
#
# _framework density 21.469208999999999
#
# number of rings (size 3 to 8) (size 9 to 14) (size 15 to 20)
#    0.000    1.867    0.000    2.400    5.600    4.800 
#    0.000    0.000   11.733    0.000    0.000    0.000 
#    0.000    0.000    0.000    0.000    0.000    0.000 
#
# Total GULP energy -167327.475272 kJ/mol
# GULP energy per Si atom -5577.582509 kJ/mol
# Density = 2.142034 g / cm^3
# Si number density = 21.469209 Si / 1000 Ang^3
#
#
#
# Elastic Constant Matrix: (Units=GPa)
#
#
# Indices 1 2 3 4 5 6 
#
# 1 47.4169 29.6508 -3.8936 0.0000 -15.0563 0.0000
# 2 29.6508 73.5685 1.7486 0.0000 21.0658 0.0000
# 3 -3.8936 1.7486 59.4203 0.0000 10.5979 0.0000
# 4 0.0000 0.0000 0.0000 7.4372 0.0000 -2.3353
# 5 -15.0563 21.0658 10.5979 0.0000 41.7481 0.0000
# 6 0.0000 0.0000 0.0000 -2.3353 0.0000 7.9849
#
#
#
# Elastic Compliance Matrix: (Units=1/GPa)
#
#
# Indices 1 2 3 4 5 6 
#
# 1 0.050332 -0.029892 -0.001833 0.000000 0.033701 0.000000
# 2 -0.029892 0.033699 0.002100 0.000000 -0.028318 0.000000
# 3 -0.001833 0.002100 0.017758 0.000000 -0.006229 0.000000
# 4 0.000000 0.000000 0.000000 0.148056 0.000000 0.043302
# 5 0.033701 -0.028318 -0.006229 0.000000 0.051977 0.000000
# 6 0.000000 0.000000 0.000000 0.043302 0.000000 0.137900
#
#
# Mechanical properties :
#
#
# Convention : Reuss Voigt Hill
#
# Bulk Modulus (GPa) = 23.50731 26.15747 24.83239
# Shear Modulus (GPa) = 9.74368 21.62738 15.68553
#
# Velocity S-wave (km/s) = 2.13267 3.17735 2.70590
# Velocity P-wave (km/s) = 4.12765 5.06664 4.62106
#
# Compressibility (1/GPa) = 0.04253997
#
# Stress axis : x y z
#
# Youngs Moduli (GPa) = 19.86797 29.67434 56.31177
#
# Poissons Ratio (x) = 0.88703 0.10321
# Poissons Ratio (y) = 0.59390 -0.11827
# Poissons Ratio (z) = 0.03642 -0.06232
#
# Static dielectric constant tensor:
#      x y z
#    x 1.803890 0.000000 -0.013410 
#    y 0.000000 1.911940 0.000000 
#    z -0.013410 0.000000 1.801190 
# 
# From -- ./inp_files/248779.got.cif
#   From: 2010.05.17/outbox.cif.g08.bks.cpg/sg15_125_cif.got.tgz:248779.got - 2010.06.03 18:47:42.
