data_PCOD9284808
_publ_section_title
;
Structure prediction by ZEFSAII (Michael W. Deem and Ramdas Pophale) SiO2 
 PCOD9284808
Probable space group: C 2/C
;
_chemical_formula_sum "Si O2"
_cell_formula_units_Z 48
_cell_length_a 30.365900
_cell_length_b 10.102088
_cell_length_c 15.750576
_cell_angle_alpha 90.000000
_cell_angle_beta 26.251087
_cell_angle_gamma 90.000000
_cell_volume 2137.057891
_symmetry_space_group_name_H-M "C 2/C"
_symmetry_group_IT_number 15
_symmetry_cell_setting 'monoclinic'
loop_
_space_group_symop_operation_xyz
x,y,z
-x,y,1/2-z
-x,-y,-z
x,-y,1/2+z
1/2+x,1/2+y,z
1/2-x,1/2+y,1/2-z
1/2-x,1/2-y,-z
1/2+x,1/2-y,1/2+z
loop_
_atom_site_type_symbol
_atom_site_label
_atom_site_fract_x
_atom_site_fract_y
_atom_site_fract_z
Si Si1 0.711012 0.398461 0.055910
Si Si2 0.165088 0.344832 0.185506
Si Si3 0.094326 0.324256 0.496426
Si Si4 0.598311 0.559605 0.575183
Si Si5 0.245832 0.036106 0.676847
Si Si6 0.947397 0.418676 0.263441
O O1 0.639990 0.412767 0.097453
O O2 0.680357 0.437154 0.205972
O O3 0.750000 0.250000 0.000000
O O4 0.798427 0.502951 0.882857
O O5 0.140824 0.313907 0.323632
O O6 0.065327 0.340871 0.301400
O O7 0.250000 0.250000 0.000000
O O8 0.057637 0.182230 0.588083
O O9 0.182822 0.347503 0.411794
O O10 0.012102 0.443811 0.639729
O O11 0.500000 0.469259 0.750000
O O12 0.685278 0.506163 0.363971
O O13 0.333994 0.939011 0.492317
O O14 0.000000 0.347623 0.250000
#
# Coordination Sequence:
#
# PCOD9284808 Si02
#       6
#     8   8   8   8   8   8
#     4  11  23  43  72 101 136 188 234 279 357 426
#     4  11  23  42  70 102 146 185 229 293 354 412
#     4  11  20  39  69 101 134 182 238 286 342 417
#     4  12  25  42  70 100 142 184 232 293 355 426
#     4  10  21  41  64  94 137 177 228 287 344 409
#     4   9  20  38  66 101 131 171 236 286 332 406
#
# _framework density 22.460787
#
# number of rings (size 3 to 8) (size 9 to 14) (size 15 to 20)
#    0.000    1.333    3.333    4.000    2.333    0.667 
#    0.000    0.833    3.667    0.000    0.000    0.000 
#    0.000    0.000    0.000    0.000    0.000    0.000 
#
# Total GULP energy -133678.079818 kJ/mol
# GULP energy per Si atom -5569.919992 kJ/mol
# Density = 2.240966 g / cm^3
# Si number density = 22.460787 Si / 1000 Ang^3
#
#
#
# Elastic Constant Matrix: (Units=GPa)
#
#
# Indices 1 2 3 4 5 6 
#
# 1 218.9331 17.5865 53.4475 0.0000 10.9747 0.0000
# 2 17.5865 62.3005 17.6208 0.0000 -1.4108 0.0000
# 3 53.4475 17.6208 104.4511 0.0000 12.3201 0.0000
# 4 0.0000 0.0000 0.0000 4.6064 0.0000 -11.6584
# 5 10.9747 -1.4108 12.3201 0.0000 33.4683 0.0000
# 6 0.0000 0.0000 0.0000 -11.6584 0.0000 22.2744
#
#
#
# Elastic Compliance Matrix: (Units=1/GPa)
#
#
# Indices 1 2 3 4 5 6 
#
# 1 0.005277 -0.000813 -0.002462 0.000000 -0.000858 0.000000
# 2 -0.000813 0.017089 -0.002701 0.000000 0.001981 0.000000
# 3 -0.002462 -0.002701 0.011716 0.000000 -0.003619 0.000000
# 4 0.000000 0.000000 0.000000 -0.668664 0.000000 -0.349977
# 5 -0.000858 0.001981 -0.003619 0.000000 0.031576 0.000000
# 6 0.000000 0.000000 0.000000 -0.349977 0.000000 -0.138282
#
#
# Mechanical properties :
#
#
# Convention : Reuss Voigt Hill
#
# Bulk Modulus (GPa) = 45.18394 62.55493 53.86943
# Shear Modulus (GPa) = -6.92560 31.87181 12.47311
#
# Velocity S-wave (km/s) = -1.75787 3.77105 2.35910
# Velocity P-wave (km/s) = 4.00504 6.84633 5.60859
#
# Compressibility (1/GPa) = 0.02213176
#
# Stress axis : x y z
#
# Youngs Moduli (GPa) = 189.50432 58.51585 85.35254
#
# Poissons Ratio (x) = 0.04756 0.21012
# Poissons Ratio (y) = 0.15402 0.23052
# Poissons Ratio (z) = 0.46653 0.15804
#
# Static dielectric constant tensor:
#      x y z
#    x 1.929240 0.000000 0.024400 
#    y 0.000000 1.901590 0.000000 
#    z 0.024400 0.000000 2.201500 
# 
# From -- ./inp_files/177763.got.cif
#   From: 2010.05.17/outbox.cif.g08.bks.cpg/sg15_89_cif.got.tgz:177763.got - 2010.06.03 18:47:42.
