data_PCOD9284430
_publ_section_title
;
Structure prediction by ZEFSAII (Michael W. Deem and Ramdas Pophale) SiO2 
 PCOD9284430
Probable space group: C 2/C
;
_chemical_formula_sum "Si O2"
_cell_formula_units_Z 64
_cell_length_a 9.534752
_cell_length_b 29.552884
_cell_length_c 18.066034
_cell_angle_alpha 90.000000
_cell_angle_beta 40.531025
_cell_angle_gamma 90.000000
_cell_volume 3308.199581
_symmetry_space_group_name_H-M "C 2/C"
_symmetry_group_IT_number 15
_symmetry_cell_setting 'monoclinic'
loop_
_space_group_symop_operation_xyz
x,y,z
-x,y,1/2-z
-x,-y,-z
x,-y,1/2+z
1/2+x,1/2+y,z
1/2-x,1/2+y,1/2-z
1/2-x,1/2-y,-z
1/2+x,1/2-y,1/2+z
loop_
_atom_site_type_symbol
_atom_site_label
_atom_site_fract_x
_atom_site_fract_y
_atom_site_fract_z
Si Si1 0.682205 0.030050 0.966355
Si Si2 0.650778 0.875077 0.409283
Si Si3 0.912510 0.565103 0.209564
Si Si4 0.001130 0.284288 0.836320
Si Si5 0.927554 0.815379 0.409049
Si Si6 0.407516 0.513038 0.617909
Si Si7 0.254885 0.357240 0.824448
Si Si8 0.780844 0.614776 0.790976
O O1 0.597408 0.049079 0.079079
O O2 0.719524 0.074041 0.902228
O O3 0.903971 0.005730 0.897155
O O4 0.500000 0.000000 0.000000
O O5 0.815728 0.842046 0.385690
O O6 0.415214 0.865733 0.540029
O O7 0.658805 0.873539 0.318151
O O8 0.783159 0.521010 0.286141
O O9 0.771586 0.600102 0.219665
O O10 0.000000 0.586880 0.250000
O O11 0.033034 0.231123 0.839192
O O12 0.000000 0.292419 0.750000
O O13 0.173421 0.313755 0.811994
O O14 0.769096 0.300399 0.959846
O O15 0.094697 0.848542 0.382631
O O16 0.500000 0.500000 0.500000
O O17 0.321905 0.564627 0.657607
O O18 0.500000 0.352734 0.750000
O O19 0.000000 0.617693 0.750000
#
# Coordination Sequence:
#
# PCOD9284430 Si02
#       8
#     8   8   8   8   8   8   8   8
#     4  11  24  39  62  87 119 163 209 258 313 372
#     4  10  22  43  63  89 126 165 217 258 313 387
#     4  11  23  41  58  85 122 162 213 254 308 377
#     4  10  21  40  71  97 129 169 214 260 330 399
#     4  10  22  43  67  99 127 170 218 266 322 390
#     4  12  26  40  62  89 127 169 214 269 312 377
#     4  10  24  40  63  96 128 164 207 266 320 387
#     4  12  26  41  65  94 129 169 216 275 324 376
#
# _framework density 19.345870999999999
#
# number of rings (size 3 to 8) (size 9 to 14) (size 15 to 20)
#    0.000    1.250    2.500    2.625    5.250    3.500 
#    0.000    0.000    0.000    6.000    0.000    0.000 
#    0.000    0.000    0.000    0.000    0.000    0.000 
#
# Total GULP energy -178864.269153 kJ/mol
# GULP energy per Si atom -5589.508411 kJ/mol
# Density = 1.930184 g / cm^3
# Si number density = 19.345871 Si / 1000 Ang^3
#
#
#
# Elastic Constant Matrix: (Units=GPa)
#
#
# Indices 1 2 3 4 5 6 
#
# 1 114.4781 40.2741 34.4944 0.0000 -17.2339 0.0000
# 2 40.2741 126.2249 22.0469 0.0000 -9.1215 0.0000
# 3 34.4944 22.0469 45.4744 0.0000 -3.3876 0.0000
# 4 0.0000 0.0000 0.0000 24.1220 0.0000 -4.1898
# 5 -17.2339 -9.1215 -3.3876 0.0000 37.5103 0.0000
# 6 0.0000 0.0000 0.0000 -4.1898 0.0000 23.5791
#
#
#
# Elastic Compliance Matrix: (Units=1/GPa)
#
#
# Indices 1 2 3 4 5 6 
#
# 1 0.012688 -0.002293 -0.008175 0.000000 0.004533 0.000000
# 2 -0.002293 0.009184 -0.002643 0.000000 0.000941 0.000000
# 3 -0.008175 -0.002643 0.029343 0.000000 -0.001749 0.000000
# 4 0.000000 0.000000 0.000000 0.042776 0.000000 0.007601
# 5 0.004533 0.000941 -0.001749 0.000000 0.028813 0.000000
# 6 0.000000 0.000000 0.000000 0.007601 0.000000 0.043761
#
#
# Mechanical properties :
#
#
# Convention : Reuss Voigt Hill
#
# Bulk Modulus (GPa) = 40.01229 53.31203 46.66216
# Shear Modulus (GPa) = 24.86124 29.66641 27.26382
#
# Velocity S-wave (km/s) = 3.58871 3.92021 3.75812
# Velocity P-wave (km/s) = 6.15624 6.93598 6.55771
#
# Compressibility (1/GPa) = 0.02499232
#
# Stress axis : x y z
#
# Youngs Moduli (GPa) = 78.81711 108.89015 34.08021
#
# Poissons Ratio (x) = 0.24966 0.27860
# Poissons Ratio (y) = 0.18071 0.09008
# Poissons Ratio (z) = 0.64432 0.28781
#
# Static dielectric constant tensor:
#      x y z
#    x 2.992200 0.000000 0.972190 
#    y 0.000000 1.663840 0.000000 
#    z 0.972190 0.000000 2.395180 
# 
# From -- ./inp_files/194209.got.cif
#   From: 2010.05.17/outbox.cif.g08.bks.cpg/sg15_98_cif.got.tgz:194209.got - 2010.06.03 18:47:42.
