data_PCOD9284541
_publ_section_title
;
Structure prediction by ZEFSAII (Michael W. Deem and Ramdas Pophale) SiO2 
 PCOD9284541
Probable space group: C 2/C
;
_chemical_formula_sum "Si O2"
_cell_formula_units_Z 44
_cell_length_a 6.767386
_cell_length_b 24.095897
_cell_length_c 15.314889
_cell_angle_alpha 90.000000
_cell_angle_beta 52.711026
_cell_angle_gamma 90.000000
_cell_volume 1986.859974
_symmetry_space_group_name_H-M "C 2/C"
_symmetry_group_IT_number 15
_symmetry_cell_setting 'monoclinic'
loop_
_space_group_symop_operation_xyz
x,y,z
-x,y,1/2-z
-x,-y,-z
x,-y,1/2+z
1/2+x,1/2+y,z
1/2-x,1/2+y,1/2-z
1/2-x,1/2-y,-z
1/2+x,1/2-y,1/2+z
loop_
_atom_site_type_symbol
_atom_site_label
_atom_site_fract_x
_atom_site_fract_y
_atom_site_fract_z
Si Si1 0.662380 0.582487 0.442574
Si Si2 0.910607 0.172928 0.427864
Si Si3 0.500000 0.297431 0.250000
Si Si4 0.618753 0.117231 0.934598
Si Si5 0.890305 0.464354 0.371602
Si Si6 0.236136 0.727031 0.651159
O O1 0.632093 0.628442 0.374678
O O2 0.751902 0.609036 0.508199
O O3 0.839653 0.530011 0.380096
O O4 0.381076 0.560917 0.535313
O O5 0.653988 0.141491 0.478726
O O6 0.902998 0.221900 0.359930
O O7 0.884444 0.198615 0.532350
O O8 0.721741 0.338216 0.161671
O O9 0.584886 0.263987 0.313651
O O10 0.578461 0.059229 0.894142
O O11 0.000000 0.445704 0.250000
O O12 0.000000 0.692031 0.750000
#
# Coordination Sequence:
#
# PCOD9284541 Si02
#       6
#     8   8   4   8   8   8
#     4  10  21  41  61  89 127 165 203 263 319 378
#     4  10  23  40  62  86 129 164 205 266 319 372
#     4  12  22  34  66  96 120 166 224 262 314 372
#     4  11  21  36  63  91 120 162 211 265 311 376
#     4  10  22  38  62  91 124 160 209 259 319 382
#     4  11  23  41  60  91 124 165 213 264 316 379
#
# _framework density 22.145496000000001
#
# number of rings (size 3 to 8) (size 9 to 14) (size 15 to 20)
#    0.000    1.455    3.636    1.636    2.545    2.182 
#    3.273    0.000    0.000    0.000    0.000    0.000 
#    0.000    0.000    0.000    0.000    0.000    0.000 
#
# Total GULP energy -122813.583955 kJ/mol
# GULP energy per Si atom -5582.435634 kJ/mol
# Density = 2.209509 g / cm^3
# Si number density = 22.145496 Si / 1000 Ang^3
#
#
#
# Elastic Constant Matrix: (Units=GPa)
#
#
# Indices 1 2 3 4 5 6 
#
# 1 134.5250 56.0022 17.9623 0.0000 37.8582 0.0000
# 2 56.0022 109.2346 15.5235 0.0000 15.3237 0.0000
# 3 17.9623 15.5235 49.4575 0.0000 12.8501 0.0000
# 4 0.0000 0.0000 0.0000 18.3517 0.0000 12.8277
# 5 37.8582 15.3237 12.8501 0.0000 28.9399 0.0000
# 6 0.0000 0.0000 0.0000 12.8277 0.0000 35.8985
#
#
#
# Elastic Compliance Matrix: (Units=1/GPa)
#
#
# Indices 1 2 3 4 5 6 
#
# 1 0.013865 -0.004984 0.000628 0.000000 -0.015777 0.000000
# 2 -0.004984 0.011854 -0.002231 0.000000 0.001234 0.000000
# 3 0.000628 -0.002231 0.023284 0.000000 -0.009979 0.000000
# 4 0.000000 0.000000 0.000000 0.072633 0.000000 -0.025954
# 5 -0.015777 0.001234 -0.009979 0.000000 0.058971 0.000000
# 6 0.000000 0.000000 0.000000 -0.025954 0.000000 0.037131
#
#
# Mechanical properties :
#
#
# Convention : Reuss Voigt Hill
#
# Bulk Modulus (GPa) = 27.91065 52.46589 40.18827
# Shear Modulus (GPa) = 20.58851 30.21995 25.40423
#
# Velocity S-wave (km/s) = 3.05239 3.69807 3.39064
# Velocity P-wave (km/s) = 5.00535 6.47898 5.78924
#
# Compressibility (1/GPa) = 0.03582861
#
# Stress axis : x y z
#
# Youngs Moduli (GPa) = 72.12665 84.36134 42.94731
#
# Poissons Ratio (x) = 0.42046 -0.02698
# Poissons Ratio (y) = 0.35948 0.09582
# Poissons Ratio (z) = -0.04531 0.18822
#
# Static dielectric constant tensor:
#      x y z
#    x 1.785330 0.000000 0.005390 
#    y 0.000000 1.893280 0.000000 
#    z 0.005390 0.000000 1.826970 
# 
# From -- ./inp_files/129805.got.cif
#   From: 2010.05.17/outbox.cif.g08.bks.cpg/sg15_65_cif.got.tgz:129805.got - 2010.06.03 18:47:42.
