data_PCOD9284579
_publ_section_title
;
Structure prediction by ZEFSAII (Michael W. Deem and Ramdas Pophale) SiO2 
 PCOD9284579
Probable space group: C 2/C
;
_chemical_formula_sum "Si O2"
_cell_formula_units_Z 32
_cell_length_a 13.588359
_cell_length_b 6.969310
_cell_length_c 13.936181
_cell_angle_alpha 90.000000
_cell_angle_beta 96.256521
_cell_angle_gamma 90.000000
_cell_volume 1311.916384
_symmetry_space_group_name_H-M "C 2/C"
_symmetry_group_IT_number 15
_symmetry_cell_setting 'monoclinic'
loop_
_space_group_symop_operation_xyz
x,y,z
-x,y,1/2-z
-x,-y,-z
x,-y,1/2+z
1/2+x,1/2+y,z
1/2-x,1/2+y,1/2-z
1/2-x,1/2-y,-z
1/2+x,1/2-y,1/2+z
loop_
_atom_site_type_symbol
_atom_site_label
_atom_site_fract_x
_atom_site_fract_y
_atom_site_fract_z
Si Si1 0.309440 0.705677 0.358171
Si Si2 0.095933 0.256473 0.317929
Si Si3 0.112081 0.595486 0.445700
Si Si4 0.481924 0.577020 0.892297
O O1 0.316502 0.776787 0.249602
O O2 0.202304 0.674687 0.390628
O O3 0.363931 0.844317 0.442325
O O4 0.373992 0.508522 0.359904
O O5 0.109372 0.373508 0.416971
O O6 0.000000 0.333891 0.250000
O O7 0.063905 0.040265 0.339800
O O8 0.012917 0.702397 0.398685
O O9 0.500000 0.500000 0.000000
#
# Coordination Sequence:
#
# PCOD9284579 Si02
#       4
#     8   8   8   8
#     4   9  21  40  60  90 123 154 215 252 294 390
#     4  10  22  38  59  90 118 155 209 252 298 383
#     4  10  21  41  62  85 124 166 193 259 319 352
#     4   9  20  39  59  84 120 156 199 253 304 363
#
# _framework density 24.391798000000001
#
# number of rings (size 3 to 8) (size 9 to 14) (size 15 to 20)
#    0.000    2.500    0.000    0.000    3.500   12.000 
#    0.000   13.750    0.000    0.000    0.000    0.000 
#    0.000    0.000    0.000    0.000    0.000    0.000 
#
# Total GULP energy -89278.142815 kJ/mol
# GULP energy per Si atom -5579.883926 kJ/mol
# Density = 2.433628 g / cm^3
# Si number density = 24.391798 Si / 1000 Ang^3
#
#
#
# Elastic Constant Matrix: (Units=GPa)
#
#
# Indices 1 2 3 4 5 6 
#
# 1 84.2250 16.6760 29.4865 0.0000 -23.8961 0.0000
# 2 16.6760 46.5347 8.4213 0.0000 -1.4036 0.0000
# 3 29.4865 8.4213 106.9758 0.0000 -40.2620 0.0000
# 4 0.0000 0.0000 0.0000 35.2379 0.0000 -5.5413
# 5 -23.8961 -1.4036 -40.2620 0.0000 40.9492 0.0000
# 6 0.0000 0.0000 0.0000 -5.5413 0.0000 22.7025
#
#
#
# Elastic Compliance Matrix: (Units=1/GPa)
#
#
# Indices 1 2 3 4 5 6 
#
# 1 0.015461 -0.005147 -0.000837 0.000000 0.008023 0.000000
# 2 -0.005147 0.023571 -0.002005 0.000000 -0.004167 0.000000
# 3 -0.000837 -0.002005 0.015123 0.000000 0.014312 0.000000
# 4 0.000000 0.000000 0.000000 0.029511 0.000000 0.007203
# 5 0.008023 -0.004167 0.014312 0.000000 0.043032 0.000000
# 6 0.000000 0.000000 0.000000 0.007203 0.000000 0.045806
#
#
# Mechanical properties :
#
#
# Convention : Reuss Voigt Hill
#
# Bulk Modulus (GPa) = 26.19382 38.54478 32.36930
# Shear Modulus (GPa) = 24.84979 31.98803 28.41891
#
# Velocity S-wave (km/s) = 3.19529 3.62529 3.41706
# Velocity P-wave (km/s) = 4.93713 5.77584 5.37287
#
# Compressibility (1/GPa) = 0.03817695
#
# Stress axis : x y z
#
# Youngs Moduli (GPa) = 64.67714 42.42493 66.12433
#
# Poissons Ratio (x) = 0.21837 0.05533
# Poissons Ratio (y) = 0.33291 0.13259
# Poissons Ratio (z) = 0.05412 0.08507
#
# Static dielectric constant tensor:
#      x y z
#    x 1.954030 0.000000 -0.008920 
#    y 0.000000 1.969430 0.000000 
#    z -0.008920 0.000000 1.963180 
# 
# From -- ./inp_files/149857.got.cif
#   From: 2010.05.17/outbox.cif.g08.bks.cpg/sg15_75_cif.got.tgz:149857.got - 2010.06.03 18:47:42.
