data_PCOD9284277
_publ_section_title
;
Structure prediction by ZEFSAII (Michael W. Deem and Ramdas Pophale) SiO2 
 PCOD9284277
Probable space group: C 2/C
;
_chemical_formula_sum "Si O2"
_cell_formula_units_Z 56
_cell_length_a 14.107669
_cell_length_b 10.011290
_cell_length_c 17.239364
_cell_angle_alpha 90.000000
_cell_angle_beta 71.289276
_cell_angle_gamma 90.000000
_cell_volume 2306.138692
_symmetry_space_group_name_H-M "C 2/C"
_symmetry_group_IT_number 15
_symmetry_cell_setting 'monoclinic'
loop_
_space_group_symop_operation_xyz
x,y,z
-x,y,1/2-z
-x,-y,-z
x,-y,1/2+z
1/2+x,1/2+y,z
1/2-x,1/2+y,1/2-z
1/2-x,1/2-y,-z
1/2+x,1/2-y,1/2+z
loop_
_atom_site_type_symbol
_atom_site_label
_atom_site_fract_x
_atom_site_fract_y
_atom_site_fract_z
Si Si1 0.473762 0.058198 0.839749
Si Si2 0.000000 0.803535 0.750000
Si Si3 0.498009 0.692945 0.578694
Si Si4 0.272128 0.902295 0.468611
Si Si5 0.609639 0.570273 0.424769
Si Si6 0.500000 0.308955 0.250000
Si Si7 0.867739 0.435292 0.600281
Si Si8 0.329899 0.480462 0.757545
O O1 0.500000 0.988285 0.750000
O O2 0.520102 0.205166 0.815436
O O3 0.356982 0.083939 0.880605
O O4 0.528614 0.996899 0.898241
O O5 0.098570 0.887081 0.708673
O O6 0.569230 0.696852 0.483957
O O7 0.476212 0.533228 0.582808
O O8 0.535247 0.738705 0.654120
O O9 0.397196 0.778009 0.591514
O O10 0.250000 0.750000 0.500000
O O11 0.322846 0.970578 0.529707
O O12 0.177607 0.984651 0.465378
O O13 0.669335 0.583056 0.328643
O O14 0.603073 0.384940 0.251925
O O15 0.782117 0.477985 0.682923
#
# Coordination Sequence:
#
# PCOD9284277 Si02
#       8
#     8   4   8   8   8   4   8   8
#     4  10  25  42  65  94 133 163 216 270 321 383
#     4   9  22  39  68  92 126 169 214 257 316 386
#     4  10  22  37  66  94 129 167 214 269 323 376
#     4  12  23  42  69  94 127 174 219 258 323 389
#     4  10  22  42  64  97 128 166 220 270 309 384
#     4   9  20  39  62  92 132 161 214 271 320 374
#     4  12  24  39  65  96 128 171 212 268 329 377
#     4  10  21  40  68  95 125 167 220 265 318 383
#
# _framework density 24.283013
#
# number of rings (size 3 to 8) (size 9 to 14) (size 15 to 20)
#    0.429    1.143    1.429    3.000    3.000    3.429 
#    0.000    0.714    0.000    0.000    0.000    0.000 
#    0.000    0.000    0.000    0.000    0.000    0.000 
#
# Total GULP energy -156015.686835 kJ/mol
# GULP energy per Si atom -5571.988816 kJ/mol
# Density = 2.422774 g / cm^3
# Si number density = 24.283013 Si / 1000 Ang^3
#
#
#
# Elastic Constant Matrix: (Units=GPa)
#
#
# Indices 1 2 3 4 5 6 
#
# 1 109.1664 15.9825 42.6908 0.0000 -0.1924 0.0000
# 2 15.9825 14.5313 -2.6155 0.0000 6.5686 0.0000
# 3 42.6908 -2.6155 148.7223 0.0000 9.0530 0.0000
# 4 0.0000 0.0000 0.0000 19.8384 0.0000 1.7359
# 5 -0.1924 6.5686 9.0530 0.0000 59.3382 0.0000
# 6 0.0000 0.0000 0.0000 1.7359 0.0000 23.8213
#
#
#
# Elastic Compliance Matrix: (Units=1/GPa)
#
#
# Indices 1 2 3 4 5 6 
#
# 1 0.013231 -0.016451 -0.004240 0.000000 0.002511 0.000000
# 2 -0.016451 0.093365 0.007062 0.000000 -0.011466 0.000000
# 3 -0.004240 0.007062 0.008190 0.000000 -0.002045 0.000000
# 4 0.000000 0.000000 0.000000 0.050731 0.000000 -0.003697
# 5 0.002511 -0.011466 -0.002045 0.000000 0.018442 0.000000
# 6 0.000000 0.000000 0.000000 -0.003697 0.000000 0.042249
#
#
# Mechanical properties :
#
#
# Convention : Reuss Voigt Hill
#
# Bulk Modulus (GPa) = 11.42491 42.72618 27.07554
# Shear Modulus (GPa) = 17.69022 35.02373 26.35697
#
# Velocity S-wave (km/s) = 2.70201 3.80190 3.29813
# Velocity P-wave (km/s) = 3.80126 6.07502 5.06732
#
# Compressibility (1/GPa) = 0.08752805
#
# Stress axis : x y z
#
# Youngs Moduli (GPa) = 75.57724 10.71064 122.10321
#
# Poissons Ratio (x) = 0.17620 0.51775
# Poissons Ratio (y) = 1.24333 -0.86232
# Poissons Ratio (z) = 0.32047 -0.07564
#
# Static dielectric constant tensor:
#      x y z
#    x 1.890450 0.000000 -0.050360 
#    y 0.000000 2.067010 0.000000 
#    z -0.050360 0.000000 2.094810 
# 
# From -- ./inp_files/203985.got.cif
#   From: 2010.05.17/outbox.cif.g08.bks.cpg/sg15_102_cif.got.tgz:203985.got - 2010.06.03 18:47:42.
