data_PCOD9284655
_publ_section_title
;
Structure prediction by ZEFSAII (Michael W. Deem and Ramdas Pophale) SiO2 
 PCOD9284655
Probable space group: C 2/C
;
_chemical_formula_sum "Si O2"
_cell_formula_units_Z 48
_cell_length_a 16.206276
_cell_length_b 10.027814
_cell_length_c 26.979691
_cell_angle_alpha 90.000000
_cell_angle_beta 153.848945
_cell_angle_gamma 90.000000
_cell_volume 1932.449523
_symmetry_space_group_name_H-M "C 2/C"
_symmetry_group_IT_number 15
_symmetry_cell_setting 'monoclinic'
loop_
_space_group_symop_operation_xyz
x,y,z
-x,y,1/2-z
-x,-y,-z
x,-y,1/2+z
1/2+x,1/2+y,z
1/2-x,1/2+y,1/2-z
1/2-x,1/2-y,-z
1/2+x,1/2-y,1/2+z
loop_
_atom_site_type_symbol
_atom_site_label
_atom_site_fract_x
_atom_site_fract_y
_atom_site_fract_z
Si Si1 0.364830 0.993346 0.724405
Si Si2 0.432190 0.303025 0.070334
Si Si3 0.711275 0.838655 0.554728
Si Si4 0.190906 0.752640 0.679527
Si Si5 0.267078 0.948542 0.034250
Si Si6 0.732599 0.790231 0.672181
O O1 0.500000 0.978186 0.750000
O O2 0.267263 0.136020 0.674992
O O3 0.229779 0.871195 0.662339
O O4 0.520968 0.997257 0.851749
O O5 0.611084 0.319926 0.203336
O O6 0.369092 0.444698 0.014647
O O7 0.517357 0.206758 0.074263
O O8 0.250000 0.250000 0.000000
O O9 0.485144 0.833524 0.431232
O O10 0.784528 0.931700 0.550850
O O11 0.766524 0.689944 0.564146
O O12 0.774887 0.866957 0.644745
O O13 0.153894 0.811474 0.715480
#
# Coordination Sequence:
#
# PCOD9284655 Si02
#       6
#     8   8   8   8   8   8
#     4  12  22  39  68  95 128 169 221 271 318 391
#     4  10  21  41  63  87 131 170 214 267 321 379
#     4  11  23  38  66  97 130 172 212 271 331 383
#     4  10  24  39  62  93 133 165 217 272 323 380
#     4  11  21  39  63  98 131 164 218 272 323 384
#     4  10  23  42  63  96 127 168 222 262 328 387
#
# _framework density 24.838940999999998
#
# number of rings (size 3 to 8) (size 9 to 14) (size 15 to 20)
#    1.000    0.333    5.000    1.000    2.333    1.333 
#    0.000    3.333    3.667    4.000    0.000    0.000 
#    0.000    0.000    0.000    0.000    0.000    0.000 
#
# Total GULP energy -134066.409333 kJ/mol
# GULP energy per Si atom -5586.100389 kJ/mol
# Density = 2.478241 g / cm^3
# Si number density = 24.838941 Si / 1000 Ang^3
#
#
#
# Elastic Constant Matrix: (Units=GPa)
#
#
# Indices 1 2 3 4 5 6 
#
# 1 157.4740 8.6998 11.0565 -0.0001 -8.1347 0.0000
# 2 8.6998 23.3276 -4.9497 0.0001 6.2472 0.0000
# 3 11.0565 -4.9497 68.5086 0.0005 21.2780 0.0003
# 4 -0.0001 0.0001 0.0005 23.2193 0.0000 6.2106
# 5 -8.1347 6.2472 21.2780 0.0000 49.9011 0.0000
# 6 0.0000 0.0000 0.0003 6.2106 0.0000 26.9091
#
#
#
# Elastic Compliance Matrix: (Units=1/GPa)
#
#
# Indices 1 2 3 4 5 6 
#
# 1 0.006831 -0.003667 -0.002139 0.000000 0.002485 0.000000
# 2 -0.003667 0.048329 0.007087 0.000000 -0.009670 0.000000
# 3 -0.002139 0.007087 0.018256 0.000000 -0.009020 0.000000
# 4 0.000000 0.000000 0.000000 0.045901 0.000000 -0.010594
# 5 0.002485 -0.009670 -0.009020 0.000000 0.025502 0.000000
# 6 0.000000 0.000000 0.000000 -0.010594 0.000000 0.039607
#
#
# Mechanical properties :
#
#
# Convention : Reuss Voigt Hill
#
# Bulk Modulus (GPa) = 13.16188 30.99147 22.07668
# Shear Modulus (GPa) = 24.13242 35.63947 29.88594
#
# Velocity S-wave (km/s) = 3.12036 3.79201 3.47246
# Velocity P-wave (km/s) = 4.27698 5.62819 4.99846
#
# Compressibility (1/GPa) = 0.07597697
#
# Stress axis : x y z
#
# Youngs Moduli (GPa) = 146.38269 20.69163 54.77782
#
# Poissons Ratio (x) = 0.07588 0.11718
# Poissons Ratio (y) = 0.53680 -0.38821
# Poissons Ratio (z) = 0.31315 -0.14664
#
# Static dielectric constant tensor:
#      x y z
#    x 1.976470 0.000000 -0.030770 
#    y 0.000000 2.046230 0.000000 
#    z -0.030770 0.000000 2.026480 
# 
# From -- ./inp_files/209901.got.cif
#   From: 2010.05.17/outbox.cif.g08.bks.cpg/sg15_105_cif.got.tgz:209901.got - 2010.06.03 18:47:42.
