data_PCOD9284248
_publ_section_title
;
Structure prediction by ZEFSAII (Michael W. Deem and Ramdas Pophale) SiO2 
 PCOD9284248
Probable space group: C 2/C
;
_chemical_formula_sum "Si O2"
_cell_formula_units_Z 64
_cell_length_a 16.542106
_cell_length_b 29.502083
_cell_length_c 10.853902
_cell_angle_alpha 90.000000
_cell_angle_beta 147.952873
_cell_angle_gamma 90.000000
_cell_volume 2810.672386
_symmetry_space_group_name_H-M "C 2/C"
_symmetry_group_IT_number 15
_symmetry_cell_setting 'monoclinic'
loop_
_space_group_symop_operation_xyz
x,y,z
-x,y,1/2-z
-x,-y,-z
x,-y,1/2+z
1/2+x,1/2+y,z
1/2-x,1/2+y,1/2-z
1/2-x,1/2-y,-z
1/2+x,1/2-y,1/2+z
loop_
_atom_site_type_symbol
_atom_site_label
_atom_site_fract_x
_atom_site_fract_y
_atom_site_fract_z
Si Si1 0.684612 0.373516 0.497449
Si Si2 0.185150 0.921667 0.749632
Si Si3 0.912095 0.707808 0.765851
Si Si4 0.561771 0.980837 0.452428
Si Si5 0.845622 0.111866 0.818269
Si Si6 0.140570 0.606719 0.781650
Si Si7 0.849986 0.214255 0.915875
Si Si8 0.671613 0.272740 0.512233
O O1 0.500000 0.373953 0.250000
O O2 0.727360 0.404343 0.667163
O O3 0.729336 0.385816 0.414988
O O4 0.732968 0.323365 0.602995
O O5 0.003659 0.915496 0.522113
O O6 0.260097 0.971594 0.843903
O O7 0.254930 0.894676 0.958592
O O8 0.925339 0.656436 0.835041
O O9 0.725729 0.712345 0.544727
O O10 0.000000 0.701024 0.750000
O O11 0.011969 0.751767 0.934416
O O12 0.500000 0.005279 0.250000
O O13 0.485664 0.930739 0.357206
O O14 0.500000 0.000000 0.500000
O O15 0.739123 0.093594 0.789255
O O16 0.881553 0.164512 0.903817
O O17 0.706622 0.238169 0.665495
O O18 0.750000 0.250000 0.500000
O O19 0.500000 0.276773 0.250000
#
# Coordination Sequence:
#
# PCOD9284248 Si02
#       8
#     8   8   8   8   8   8   8   8
#     4   9  20  35  58  83 119 164 216 262 309 362
#     4  10  21  40  68  88 122 170 197 251 319 374
#     4  11  24  38  55  83 120 166 217 271 315 370
#     4  10  23  44  70 101 128 160 195 246 320 391
#     4  10  21  41  59  92 123 169 221 260 299 368
#     4  10  23  41  63  93 127 159 207 257 317 383
#     4  11  24  36  56  82 121 169 224 276 310 362
#     4  11  21  36  52  75 115 165 219 270 316 358
#
# _framework density 22.770351999999999
#
# number of rings (size 3 to 8) (size 9 to 14) (size 15 to 20)
#    0.000    1.750    1.250    2.625    7.000    3.000 
#    0.000    0.625    0.000    3.000    0.000    0.000 
#    0.000    0.000    0.000    0.000    0.000    0.000 
#
# Total GULP energy -178222.631939 kJ/mol
# GULP energy per Si atom -5569.457248 kJ/mol
# Density = 2.271853 g / cm^3
# Si number density = 22.770352 Si / 1000 Ang^3
#
#
#
# Elastic Constant Matrix: (Units=GPa)
#
#
# Indices 1 2 3 4 5 6 
#
# 1 161.3095 16.3887 26.1560 0.0000 7.0342 0.0000
# 2 16.3887 21.1085 9.8822 0.0000 2.9753 0.0000
# 3 26.1560 9.8822 58.7011 0.0000 0.3541 0.0000
# 4 0.0000 0.0000 0.0000 8.9199 0.0000 1.3595
# 5 7.0342 2.9753 0.3541 0.0000 36.6840 0.0000
# 6 0.0000 0.0000 0.0000 1.3595 0.0000 25.2485
#
#
#
# Elastic Compliance Matrix: (Units=1/GPa)
#
#
# Indices 1 2 3 4 5 6 
#
# 1 0.007064 -0.004206 -0.002434 0.000000 -0.000990 0.000000
# 2 -0.004206 0.054552 -0.007288 0.000000 -0.003548 0.000000
# 3 -0.002434 -0.007288 0.019342 0.000000 0.000871 0.000000
# 4 0.000000 0.000000 0.000000 0.113037 0.000000 -0.006086
# 5 -0.000990 -0.003548 0.000871 0.000000 0.027729 0.000000
# 6 0.000000 0.000000 0.000000 -0.006086 0.000000 0.039934
#
#
# Mechanical properties :
#
#
# Convention : Reuss Voigt Hill
#
# Bulk Modulus (GPa) = 18.83163 38.44143 28.63653
# Shear Modulus (GPa) = 16.27528 26.74996 21.51262
#
# Velocity S-wave (km/s) = 2.67640 3.43121 3.07704
# Velocity P-wave (km/s) = 4.22362 5.71109 5.02272
#
# Compressibility (1/GPa) = 0.05310215
#
# Stress axis : x y z
#
# Youngs Moduli (GPa) = 141.55573 18.33115 51.70212
#
# Poissons Ratio (x) = 0.07710 0.12583
# Poissons Ratio (y) = 0.59536 0.37682
# Poissons Ratio (z) = 0.34450 0.13360
#
# Static dielectric constant tensor:
#      x y z
#    x 1.932930 0.000000 -0.047570 
#    y 0.000000 1.846710 0.000000 
#    z -0.047570 0.000000 1.920960 
# 
# From -- ./inp_files/108654.got.cif
#   From: 2010.05.17/outbox.cif.g08.bks.cpg/sg15_55_cif.got.tgz:108654.got - 2010.06.03 18:47:42.
