data_PCOD9284757
_publ_section_title
;
Structure prediction by ZEFSAII (Michael W. Deem and Ramdas Pophale) SiO2 
 PCOD9284757
Probable space group: C 2/C
;
_chemical_formula_sum "Si O2"
_cell_formula_units_Z 36
_cell_length_a 32.056917
_cell_length_b 5.059981
_cell_length_c 10.870384
_cell_angle_alpha 90.000000
_cell_angle_beta 128.967884
_cell_angle_gamma 90.000000
_cell_volume 1370.929545
_symmetry_space_group_name_H-M "C 2/C"
_symmetry_group_IT_number 15
_symmetry_cell_setting 'monoclinic'
loop_
_space_group_symop_operation_xyz
x,y,z
-x,y,1/2-z
-x,-y,-z
x,-y,1/2+z
1/2+x,1/2+y,z
1/2-x,1/2+y,1/2-z
1/2-x,1/2-y,-z
1/2+x,1/2-y,1/2+z
loop_
_atom_site_type_symbol
_atom_site_label
_atom_site_fract_x
_atom_site_fract_y
_atom_site_fract_z
Si Si1 0.726367 0.453447 0.057580
Si Si2 0.583459 0.024072 0.569174
Si Si3 0.059700 0.020375 0.670426
Si Si4 0.320315 0.029171 0.935537
Si Si5 0.000000 0.736116 0.750000
O O1 0.678482 0.271201 0.017350
O O2 0.773884 0.469468 0.245113
O O3 0.750000 0.250000 0.000000
O O4 0.799003 0.750410 0.994491
O O5 0.587718 0.787099 0.677272
O O6 0.624662 0.065002 0.534320
O O7 0.526244 0.955707 0.399898
O O8 0.589339 0.284802 0.658212
O O9 0.046500 0.928973 0.784394
O O10 0.000000 0.000000 0.500000
#
# Coordination Sequence:
#
# PCOD9284757 Si02
#       5
#     8   8   8   8   4
#     4  10  21  41  64  90 122 159 197 249 308 360
#     4  11  23  40  61  91 122 160 206 252 303 363
#     4  10  22  39  59  85 121 161 205 252 299 358
#     4  10  22  40  63  91 123 154 202 252 297 365
#     4  10  22  40  62  88 126 166 204 254 310 362
#
# _framework density 26.259554999999999
#
# number of rings (size 3 to 8) (size 9 to 14) (size 15 to 20)
#    0.000    1.778    0.000    4.667    0.000    9.778 
#    0.000    6.667    0.000    0.000    0.000    0.000 
#    0.000    0.000    0.000    0.000    0.000    0.000 
#
# Total GULP energy -100542.788895 kJ/mol
# GULP energy per Si atom -5585.710494 kJ/mol
# Density = 2.619979 g / cm^3
# Si number density = 26.259555 Si / 1000 Ang^3
#
#
#
# Elastic Constant Matrix: (Units=GPa)
#
#
# Indices 1 2 3 4 5 6 
#
# 1 81.0288 5.8409 -7.4276 0.0000 0.8022 0.0000
# 2 5.8409 123.3277 -12.9000 0.0000 4.3033 0.0000
# 3 -7.4276 -12.9000 79.9834 0.0000 14.7715 0.0000
# 4 0.0000 0.0000 0.0000 5.1515 0.0000 -25.2093
# 5 0.8022 4.3033 14.7715 0.0000 31.1080 0.0000
# 6 0.0000 0.0000 0.0000 -25.2093 0.0000 25.0737
#
#
#
# Elastic Compliance Matrix: (Units=1/GPa)
#
#
# Indices 1 2 3 4 5 6 
#
# 1 0.012495 -0.000431 0.001249 0.000000 -0.000856 0.000000
# 2 -0.000431 0.008371 0.001668 0.000000 -0.001939 0.000000
# 3 0.001249 0.001668 0.014180 0.000000 -0.006996 0.000000
# 4 0.000000 0.000000 0.000000 -0.049519 0.000000 -0.049787
# 5 -0.000856 -0.001939 -0.006996 0.000000 0.035758 0.000000
# 6 0.000000 0.000000 0.000000 -0.049787 0.000000 -0.010174
#
#
# Mechanical properties :
#
#
# Convention : Reuss Voigt Hill
#
# Bulk Modulus (GPa) = 24.98916 28.37406 26.68161
# Shear Modulus (GPa) = 256.68369 32.18842 144.43606
#
# Velocity S-wave (km/s) = 9.89752 3.50491 7.42446
# Velocity P-wave (km/s) = 11.83856 5.21612 9.14766
#
# Compressibility (1/GPa) = 0.04001736
#
# Stress axis : x y z
#
# Youngs Moduli (GPa) = 80.02996 119.45924 70.52351
#
# Poissons Ratio (x) = 0.05152 -0.08807
# Poissons Ratio (y) = 0.03452 -0.11764
# Poissons Ratio (z) = -0.09994 -0.19928
#
# Static dielectric constant tensor:
#      x y z
#    x 1.971170 0.000000 0.366670 
#    y 0.000000 2.068020 0.000000 
#    z 0.366670 0.000000 1.181240 
# 
# From -- ./inp_files/124856.got.cif
#   From: 2010.05.17/outbox.cif.g08.bks.cpg/sg15_63_cif.got.tgz:124856.got - 2010.06.03 18:47:42.
