data_PCOD9284995
_publ_section_title
;
Structure prediction by ZEFSAII (Michael W. Deem and Ramdas Pophale) SiO2 
 PCOD9284995
Probable space group: C 2/C
;
_chemical_formula_sum "Si O2"
_cell_formula_units_Z 40
_cell_length_a 14.184080
_cell_length_b 17.030850
_cell_length_c 8.350797
_cell_angle_alpha 90.000000
_cell_angle_beta 125.978184
_cell_angle_gamma 90.000000
_cell_volume 1632.462305
_symmetry_space_group_name_H-M "C 2/C"
_symmetry_group_IT_number 15
_symmetry_cell_setting 'monoclinic'
loop_
_space_group_symop_operation_xyz
x,y,z
-x,y,1/2-z
-x,-y,-z
x,-y,1/2+z
1/2+x,1/2+y,z
1/2-x,1/2+y,1/2-z
1/2-x,1/2-y,-z
1/2+x,1/2-y,1/2+z
loop_
_atom_site_type_symbol
_atom_site_label
_atom_site_fract_x
_atom_site_fract_y
_atom_site_fract_z
Si Si1 0.073218 0.935255 0.478256
Si Si2 0.617283 0.271800 0.667443
Si Si3 0.089890 0.474580 0.955650
Si Si4 0.752645 0.565314 0.614603
Si Si5 0.137533 0.227638 0.553285
O O1 0.108430 0.864933 0.628937
O O2 0.000000 0.908300 0.250000
O O3 0.186620 0.982471 0.538425
O O4 0.000000 0.000000 0.500000
O O5 0.746667 0.251352 0.735227
O O6 0.484739 0.249959 0.486714
O O7 0.628977 0.239774 0.862157
O O8 0.151047 0.549517 0.928095
O O9 0.000000 0.430145 0.750000
O O10 0.184553 0.427843 0.150978
O O11 0.000000 0.500000 0.000000
O O12 0.659389 0.635629 0.529441
#
# Coordination Sequence:
#
# PCOD9284995 Si02
#       5
#     8   8   8   8   8
#     4  12  23  39  70 101 133 171 227 289 341 401
#     4  10  22  42  62  97 131 179 229 278 338 406
#     4   9  20  38  55  91 129 164 213 265 334 402
#     4  11  20  37  66  94 126 171 219 281 336 400
#     4  10  21  41  66  92 133 176 227 277 339 409
#
# _framework density 24.502863999999999
#
# number of rings (size 3 to 8) (size 9 to 14) (size 15 to 20)
#    0.000    1.600    2.000    3.600    0.000    0.000 
#   32.400    2.000    0.000    0.000    0.000    0.000 
#    0.000    0.000    0.000    0.000    0.000    0.000 
#
# Total GULP energy -111347.285014 kJ/mol
# GULP energy per Si atom -5567.364251 kJ/mol
# Density = 2.444709 g / cm^3
# Si number density = 24.502864 Si / 1000 Ang^3
#
#
#
# Elastic Constant Matrix: (Units=GPa)
#
#
# Indices 1 2 3 4 5 6 
#
# 1 125.1347 22.5055 44.0193 0.0000 39.1632 0.0000
# 2 22.5055 58.3685 13.8094 0.0000 14.7918 0.0000
# 3 44.0193 13.8094 132.2118 0.0000 30.8460 0.0000
# 4 0.0000 0.0000 0.0000 48.0889 0.0000 32.3573
# 5 39.1632 14.7918 30.8460 0.0000 54.1276 0.0000
# 6 0.0000 0.0000 0.0000 32.3573 0.0000 51.6126
#
#
#
# Elastic Compliance Matrix: (Units=1/GPa)
#
#
# Indices 1 2 3 4 5 6 
#
# 1 0.011045 -0.002203 -0.001988 0.000000 -0.006257 0.000000
# 2 -0.002203 0.018933 -0.000472 0.000000 -0.003311 0.000000
# 3 -0.001988 -0.000472 0.009122 0.000000 -0.003631 0.000000
# 4 0.000000 0.000000 0.000000 0.035967 0.000000 -0.022549
# 5 -0.006257 -0.003311 -0.003631 0.000000 0.025976 0.000000
# 6 0.000000 0.000000 0.000000 -0.022549 0.000000 0.033511
#
#
# Mechanical properties :
#
#
# Convention : Reuss Voigt Hill
#
# Bulk Modulus (GPa) = 33.58457 52.93150 43.25803
# Shear Modulus (GPa) = 32.50912 46.45786 39.48349
#
# Velocity S-wave (km/s) = 3.64641 4.35905 4.01856
# Velocity P-wave (km/s) = 5.60932 6.85450 6.26293
#
# Compressibility (1/GPa) = 0.02977558
#
# Stress axis : x y z
#
# Youngs Moduli (GPa) = 90.53962 52.81895 109.62691
#
# Poissons Ratio (x) = 0.11635 0.21789
# Poissons Ratio (y) = 0.19944 0.05169
# Poissons Ratio (z) = 0.17995 0.02491
#
# Static dielectric constant tensor:
#      x y z
#    x 2.074530 0.000000 0.037930 
#    y 0.000000 1.984740 0.000000 
#    z 0.037930 0.000000 1.730870 
# 
# From -- ./inp_files/41053.got.cif
#   From: 2010.05.17/outbox.cif.g08.bks.cpg/sg15_21_cif.got.tgz:41053.got - 2010.06.03 18:47:42.
