data_PCOD9284332
_publ_section_title
;
Structure prediction by ZEFSAII (Michael W. Deem and Ramdas Pophale) SiO2 
 PCOD9284332
Probable space group: C 2/C
;
_chemical_formula_sum "Si O2"
_cell_formula_units_Z 40
_cell_length_a 16.943011
_cell_length_b 9.206720
_cell_length_c 18.702874
_cell_angle_alpha 90.000000
_cell_angle_beta 44.038648
_cell_angle_gamma 90.000000
_cell_volume 2028.048328
_symmetry_space_group_name_H-M "C 2/C"
_symmetry_group_IT_number 15
_symmetry_cell_setting 'monoclinic'
loop_
_space_group_symop_operation_xyz
x,y,z
-x,y,1/2-z
-x,-y,-z
x,-y,1/2+z
1/2+x,1/2+y,z
1/2-x,1/2+y,1/2-z
1/2-x,1/2-y,-z
1/2+x,1/2-y,1/2+z
loop_
_atom_site_type_symbol
_atom_site_label
_atom_site_fract_x
_atom_site_fract_y
_atom_site_fract_z
Si Si1 0.756002 0.581788 0.153787
Si Si2 0.505739 0.144132 0.580109
Si Si3 0.638238 0.249365 0.619654
Si Si4 0.776848 0.741818 0.682783
Si Si5 0.398152 0.046869 0.268576
O O1 0.658274 0.620273 0.160596
O O2 0.736491 0.422049 0.196755
O O3 0.880138 0.595780 0.035074
O O4 0.749469 0.699755 0.220901
O O5 0.446762 0.008214 0.660048
O O6 0.540019 0.246574 0.624779
O O7 0.413792 0.225077 0.590840
O O8 0.750000 0.250000 0.500000
O O9 0.633371 0.098689 0.666823
O O10 0.709209 0.849902 0.674574
O O11 0.500000 0.114373 0.250000
#
# Coordination Sequence:
#
# PCOD9284332 Si02
#       5
#     8   8   8   8   8
#     4  11  22  39  64  93 117 160 201 249 302 355
#     4  10  21  40  69  79 123 165 196 238 314 355
#     4   9  19  40  65  87 116 162 201 238 308 363
#     4  12  22  38  64  90 123 155 206 250 295 362
#     4  10  21  41  61  85 123 167 195 245 305 356
#
# _framework density 19.723396000000001
#
# number of rings (size 3 to 8) (size 9 to 14) (size 15 to 20)
#    0.000    1.600    4.000    0.600    0.000    0.000 
#    3.600   18.000    0.000    0.000    0.000    0.000 
#    0.000    0.000    0.000    0.000    0.000    0.000 
#
# Total GULP energy -111484.823959 kJ/mol
# GULP energy per Si atom -5574.241198 kJ/mol
# Density = 1.967850 g / cm^3
# Si number density = 19.723396 Si / 1000 Ang^3
#
#
#
# Elastic Constant Matrix: (Units=GPa)
#
#
# Indices 1 2 3 4 5 6 
#
# 1 96.0711 21.5566 -14.5439 0.0000 -22.7380 0.0000
# 2 21.5566 60.4970 16.4163 0.0000 -4.2866 0.0000
# 3 -14.5439 16.4163 75.9195 0.0000 -0.8516 0.0000
# 4 0.0000 0.0000 0.0000 20.0562 0.0000 -7.1666
# 5 -22.7380 -4.2866 -0.8516 0.0000 33.8165 0.0000
# 6 0.0000 0.0000 0.0000 -7.1666 0.0000 35.6712
#
#
#
# Elastic Compliance Matrix: (Units=1/GPa)
#
#
# Indices 1 2 3 4 5 6 
#
# 1 0.014439 -0.005607 0.004081 0.000000 0.009101 0.000000
# 2 -0.005607 0.019893 -0.005391 0.000000 -0.001385 0.000000
# 3 0.004081 -0.005391 0.015147 0.000000 0.002442 0.000000
# 4 0.000000 0.000000 0.000000 0.053716 0.000000 0.010792
# 5 0.009101 -0.001385 0.002442 0.000000 0.035576 0.000000
# 6 0.000000 0.000000 0.000000 0.010792 0.000000 0.030202
#
#
# Mechanical properties :
#
#
# Convention : Reuss Voigt Hill
#
# Bulk Modulus (GPa) = 28.05656 31.03839 29.54747
# Shear Modulus (GPa) = 25.68191 31.84601 28.76396
#
# Velocity S-wave (km/s) = 3.61238 4.02261 3.82300
# Velocity P-wave (km/s) = 5.62627 6.11115 5.87372
#
# Compressibility (1/GPa) = 0.03564229
#
# Stress axis : x y z
#
# Youngs Moduli (GPa) = 69.25772 50.26986 66.02093
#
# Poissons Ratio (x) = 0.28188 -0.26941
# Poissons Ratio (y) = 0.38836 0.35593
# Poissons Ratio (z) = -0.28261 0.27101
#
# Static dielectric constant tensor:
#      x y z
#    x 1.782010 0.000000 -0.022370 
#    y 0.000000 1.673300 0.000000 
#    z -0.022370 0.000000 1.712020 
# 
# From -- ./inp_files/276182.got.cif
#   From: 2010.05.17/outbox.cif.g08.bks.cpg/sg15_139_cif.got.tgz:276182.got - 2010.06.03 18:47:42.
