data_PCOD9284010
_publ_section_title
;
Structure prediction by ZEFSAII (Michael W. Deem and Ramdas Pophale) SiO2 
 PCOD9284010
Probable space group: C 2/C
;
_chemical_formula_sum "Si O2"
_cell_formula_units_Z 52
_cell_length_a 16.683629
_cell_length_b 20.796305
_cell_length_c 7.795714
_cell_angle_alpha 90.000000
_cell_angle_beta 121.519834
_cell_angle_gamma 90.000000
_cell_volume 2305.718173
_symmetry_space_group_name_H-M "C 2/C"
_symmetry_group_IT_number 15
_symmetry_cell_setting 'monoclinic'
loop_
_space_group_symop_operation_xyz
x,y,z
-x,y,1/2-z
-x,-y,-z
x,-y,1/2+z
1/2+x,1/2+y,z
1/2-x,1/2+y,1/2-z
1/2-x,1/2-y,-z
1/2+x,1/2-y,1/2+z
loop_
_atom_site_type_symbol
_atom_site_label
_atom_site_fract_x
_atom_site_fract_y
_atom_site_fract_z
Si Si1 0.239461 0.671786 0.185124
Si Si2 0.933113 0.137671 0.837314
Si Si3 0.356232 0.202623 0.789174
Si Si4 0.000000 0.060120 0.250000
Si Si5 0.761482 0.586109 0.843132
Si Si6 0.052822 0.712832 0.127425
Si Si7 0.295877 0.458850 0.597982
O O1 0.315166 0.728372 0.307627
O O2 0.148294 0.673542 0.205227
O O3 0.284199 0.601253 0.213706
O O4 0.194561 0.689163 0.948256
O O5 0.830387 0.114187 0.670646
O O6 0.920737 0.212724 0.863670
O O7 0.000000 0.129527 0.750000
O O8 0.970102 0.102975 0.051746
O O9 0.331657 0.144198 0.889744
O O10 0.468013 0.202016 0.900052
O O11 0.093307 0.022362 0.291168
O O12 0.775534 0.516846 0.943469
O O13 0.729308 0.567043 0.616108
O O14 0.000000 0.704924 0.250000
#
# Coordination Sequence:
#
# PCOD9284010 Si02
#       7
#     8   8   8   4   8   8   8
#     4  10  21  41  63  93 117 167 218 257 315 380
#     4  10  22  37  58  91 126 161 211 257 315 386
#     4  10  21  40  66  86 124 166 210 267 309 375
#     4  10  22  38  58  90 122 176 208 250 326 374
#     4  10  22  40  58  90 125 163 206 258 311 378
#     4  11  23  38  60  95 125 159 211 264 321 373
#     4  10  23  37  61  89 125 163 212 252 318 383
#
# _framework density 22.552624999999999
#
# number of rings (size 3 to 8) (size 9 to 14) (size 15 to 20)
#    0.000    1.846    1.538    1.385    7.538    3.077 
#    0.000    0.769    0.000    0.000    0.000    0.000 
#    0.000    0.000    0.000    0.000    0.000    0.000 
#
# Total GULP energy -145252.622824 kJ/mol
# GULP energy per Si atom -5586.639339 kJ/mol
# Density = 2.250129 g / cm^3
# Si number density = 22.552625 Si / 1000 Ang^3
#
#
#
# Elastic Constant Matrix: (Units=GPa)
#
#
# Indices 1 2 3 4 5 6 
#
# 1 92.6757 40.2104 3.7188 0.0000 -0.7992 0.0000
# 2 40.2104 101.5148 -2.4001 0.0000 -3.6687 0.0000
# 3 3.7188 -2.4001 51.5724 0.0000 -3.4466 0.0000
# 4 0.0000 0.0000 0.0000 9.8787 0.0000 1.0617
# 5 -0.7992 -3.6687 -3.4466 0.0000 27.2304 0.0000
# 6 0.0000 0.0000 0.0000 1.0617 0.0000 27.3228
#
#
#
# Elastic Compliance Matrix: (Units=1/GPa)
#
#
# Indices 1 2 3 4 5 6 
#
# 1 0.013108 -0.005238 -0.001221 0.000000 -0.000476 0.000000
# 2 -0.005238 0.012008 0.001043 0.000000 0.001596 0.000000
# 3 -0.001221 0.001043 0.019700 0.000000 0.002598 0.000000
# 4 0.000000 0.000000 0.000000 0.101652 0.000000 -0.003950
# 5 -0.000476 0.001596 0.002598 0.000000 0.037254 0.000000
# 6 0.000000 0.000000 0.000000 -0.003950 0.000000 0.036753
#
#
# Mechanical properties :
#
#
# Convention : Reuss Voigt Hill
#
# Bulk Modulus (GPa) = 29.42475 36.53567 32.98021
# Shear Modulus (GPa) = 20.60711 26.50198 23.55455
#
# Velocity S-wave (km/s) = 3.02608 3.43172 3.23526
# Velocity P-wave (km/s) = 5.02842 5.65134 5.34896
#
# Compressibility (1/GPa) = 0.03398499
#
# Stress axis : x y z
#
# Youngs Moduli (GPa) = 76.28958 83.27791 50.76034
#
# Poissons Ratio (x) = 0.43622 0.06197
# Poissons Ratio (y) = 0.39962 -0.05295
# Poissons Ratio (z) = 0.09313 -0.08688
#
# Static dielectric constant tensor:
#      x y z
#    x 1.847990 0.000000 -0.014750 
#    y 0.000000 1.863730 0.000000 
#    z -0.014750 0.000000 1.893570 
# 
# From -- ./inp_files/49217.got.cif
#   From: 2010.05.17/outbox.cif.g08.bks.cpg/sg15_25_cif.got.tgz:49217.got - 2010.06.03 18:47:42.
