data_PCOD9284398
_publ_section_title
;
Structure prediction by ZEFSAII (Michael W. Deem and Ramdas Pophale) SiO2 
 PCOD9284398
Probable space group: C 2/C
;
_chemical_formula_sum "Si O2"
_cell_formula_units_Z 64
_cell_length_a 31.831047
_cell_length_b 5.606319
_cell_length_c 31.056655
_cell_angle_alpha 90.000000
_cell_angle_beta 146.344359
_cell_angle_gamma 90.000000
_cell_volume 3071.496670
_symmetry_space_group_name_H-M "C 2/C"
_symmetry_group_IT_number 15
_symmetry_cell_setting 'monoclinic'
loop_
_space_group_symop_operation_xyz
x,y,z
-x,y,1/2-z
-x,-y,-z
x,-y,1/2+z
1/2+x,1/2+y,z
1/2-x,1/2+y,1/2-z
1/2-x,1/2-y,-z
1/2+x,1/2-y,1/2+z
loop_
_atom_site_type_symbol
_atom_site_label
_atom_site_fract_x
_atom_site_fract_y
_atom_site_fract_z
Si Si1 0.311646 0.447562 0.543633
Si Si2 0.601159 0.891918 0.265588
Si Si3 0.550668 0.261791 0.162381
Si Si4 0.706406 0.522956 0.313538
Si Si5 0.784507 0.723709 0.298440
Si Si6 0.777524 0.275541 0.596114
Si Si7 0.468393 0.250801 0.452001
Si Si8 0.015036 0.979358 0.808612
O O1 0.250000 0.250000 0.500000
O O2 0.287876 0.559507 0.478008
O O3 0.298470 0.615265 0.573334
O O4 0.399322 0.390420 0.616473
O O5 0.566863 0.993187 0.192083
O O6 0.642478 0.102820 0.325002
O O7 0.668336 0.712635 0.312381
O O8 0.539307 0.748535 0.238367
O O9 0.633692 0.389375 0.230275
O O10 0.513318 0.264153 0.083743
O O11 0.507098 0.380253 0.166194
O O12 0.757582 0.655056 0.323197
O O13 0.747795 0.343840 0.381040
O O14 0.753462 0.482953 0.246405
O O15 0.875899 0.742052 0.375003
O O16 0.500000 0.500000 0.500000
O O17 0.500000 0.000000 0.500000
O O18 0.000000 0.110393 0.750000
#
# Coordination Sequence:
#
# PCOD9284398 Si02
#       8
#     8   8   8   8   8   8   8   8
#     4  11  23  42  61  91 139 176 229 281 346 417
#     4  10  21  40  70  95 133 169 235 288 350 417
#     4  10  23  44  67  99 142 182 233 298 358 433
#     4  10  21  40  70  98 130 174 237 290 343 423
#     4  12  25  46  78 107 139 190 252 298 367 447
#     4  10  22  40  62  95 134 176 219 296 344 411
#     4  12  28  49  73 107 156 193 242 311 386 437
#     4  11  23  39  68  99 131 183 236 281 357 427
#
# _framework density 20.836746999999999
#
# number of rings (size 3 to 8) (size 9 to 14) (size 15 to 20)
#    0.000    1.250    1.250    5.250    5.250    4.500 
#    4.500    1.250    0.000    0.000    0.000    0.000 
#    0.000    0.000    0.000    0.000    0.000    0.000 
#
# Total GULP energy -178455.914183 kJ/mol
# GULP energy per Si atom -5576.747318 kJ/mol
# Density = 2.078932 g / cm^3
# Si number density = 20.836747 Si / 1000 Ang^3
#
#
#
# Elastic Constant Matrix: (Units=GPa)
#
#
# Indices 1 2 3 4 5 6 
#
# 1 98.6198 22.6979 71.2763 0.0057 14.5393 0.0242
# 2 22.6979 94.6953 62.9645 -0.0679 -4.7825 0.1702
# 3 71.2763 62.9645 137.7151 0.0061 -17.5070 0.0066
# 4 0.0057 -0.0679 0.0061 28.4635 -0.0058 0.7657
# 5 14.5393 -4.7825 -17.5070 -0.0058 43.5536 0.0131
# 6 0.0242 0.1702 0.0066 0.7657 0.0131 3.7071
#
#
#
# Elastic Compliance Matrix: (Units=1/GPa)
#
#
# Indices 1 2 3 4 5 6 
#
# 1 0.021665 0.003871 -0.014594 0.000012 -0.012674 -0.000251
# 2 0.003871 0.015924 -0.009723 0.000058 -0.003452 -0.000739
# 3 -0.014594 -0.009723 0.020807 -0.000035 0.012168 0.000469
# 4 0.000012 0.000058 -0.000035 0.035329 -0.000005 -0.007300
# 5 -0.012674 -0.003452 0.012168 -0.000005 0.031703 0.000109
# 6 -0.000251 -0.000739 0.000469 -0.007300 0.000109 0.271292
#
#
# Mechanical properties :
#
#
# Convention : Reuss Voigt Hill
#
# Bulk Modulus (GPa) = 57.12803 71.65640 64.39222
# Shear Modulus (GPa) = 11.27528 26.75094 19.01311
#
# Velocity S-wave (km/s) = 2.32873 3.58695 3.02400
# Velocity P-wave (km/s) = 5.89128 7.18464 6.56986
#
# Compressibility (1/GPa) = 0.01750454
#
# Stress axis : x y z
#
# Youngs Moduli (GPa) = 46.15679 62.79660 48.06028
#
# Poissons Ratio (x) = -0.24311 0.70141
# Poissons Ratio (y) = -0.17869 0.46730
# Poissons Ratio (z) = 0.67363 0.61059
#
# Static dielectric constant tensor:
#      x y z
#    x 1.764040 -0.000210 -0.053490 
#    y -0.000210 1.782800 -0.000280 
#    z -0.053490 -0.000280 1.738870 
# 
# From -- ./inp_files/304093.got.cif
#   From: 2010.05.17/outbox.cif.g08.bks.cpg/sg15_153_cif.got.tgz:304093.got - 2010.06.03 18:47:42.
