data_PCOD9284523
_publ_section_title
;
Structure prediction by ZEFSAII (Michael W. Deem and Ramdas Pophale) SiO2 
 PCOD9284523
Probable space group: C 2/C
;
_chemical_formula_sum "Si O2"
_cell_formula_units_Z 40
_cell_length_a 24.285782
_cell_length_b 9.463580
_cell_length_c 9.015928
_cell_angle_alpha 90.000000
_cell_angle_beta 81.706625
_cell_angle_gamma 90.000000
_cell_volume 2050.465304
_symmetry_space_group_name_H-M "C 2/C"
_symmetry_group_IT_number 15
_symmetry_cell_setting 'monoclinic'
loop_
_space_group_symop_operation_xyz
x,y,z
-x,y,1/2-z
-x,-y,-z
x,-y,1/2+z
1/2+x,1/2+y,z
1/2-x,1/2+y,1/2-z
1/2-x,1/2-y,-z
1/2+x,1/2-y,1/2+z
loop_
_atom_site_type_symbol
_atom_site_label
_atom_site_fract_x
_atom_site_fract_y
_atom_site_fract_z
Si Si1 0.855488 0.389738 0.800510
Si Si2 0.064098 0.144040 0.684552
Si Si3 0.820734 0.646299 0.650486
Si Si4 0.215986 0.183739 0.877360
Si Si5 0.629880 0.450697 0.886442
O O1 0.912028 0.301082 0.796191
O O2 0.860516 0.545273 0.731651
O O3 0.818353 0.303555 0.696498
O O4 0.826663 0.387818 0.973802
O O5 0.080541 0.101057 0.512446
O O6 0.000000 0.132594 0.750000
O O7 0.101383 0.037703 0.767141
O O8 0.759610 0.622174 0.740746
O O9 0.836816 0.809398 0.667764
O O10 0.173824 0.060042 0.941782
O O11 0.250000 0.250000 0.000000
#
# Coordination Sequence:
#
# PCOD9284523 Si02
#       5
#     8   8   8   8   8
#     4  10  23  37  55  83 116 152 195 231 279 344
#     4  10  21  41  61  81 110 147 191 246 289 328
#     4  11  21  37  55  83 121 155 185 233 282 344
#     4  11  21  36  59  87 119 153 183 229 292 349
#     4  10  22  37  59  88 112 145 194 231 280 349
#
# _framework density 19.507767999999999
#
# number of rings (size 3 to 8) (size 9 to 14) (size 15 to 20)
#    0.000    1.600    0.000    4.800    0.000    8.000 
#    0.000    5.000    0.000    0.000    0.000    0.000 
#    0.000    0.000    0.000    0.000    0.000    0.000 
#
# Total GULP energy -111744.152869 kJ/mol
# GULP energy per Si atom -5587.207643 kJ/mol
# Density = 1.946337 g / cm^3
# Si number density = 19.507768 Si / 1000 Ang^3
#
#
#
# Elastic Constant Matrix: (Units=GPa)
#
#
# Indices 1 2 3 4 5 6 
#
# 1 57.9910 15.6556 29.7130 0.0000 -18.0608 0.0000
# 2 15.6556 100.9818 23.7678 0.0000 2.9616 0.0000
# 3 29.7130 23.7678 66.4822 0.0000 -3.1881 0.0000
# 4 0.0000 0.0000 0.0000 19.1915 0.0000 -3.7417
# 5 -18.0608 2.9616 -3.1881 0.0000 32.3463 0.0000
# 6 0.0000 0.0000 0.0000 -3.7417 0.0000 6.2279
#
#
#
# Elastic Compliance Matrix: (Units=1/GPa)
#
#
# Indices 1 2 3 4 5 6 
#
# 1 0.028123 -0.002187 -0.011077 0.000000 0.014811 0.000000
# 2 -0.002187 0.011044 -0.003092 0.000000 -0.002537 0.000000
# 3 -0.011077 -0.003092 0.020914 0.000000 -0.003840 0.000000
# 4 0.000000 0.000000 0.000000 0.059020 0.000000 0.035458
# 5 0.014811 -0.002537 -0.003840 0.000000 0.039039 0.000000
# 6 0.000000 0.000000 0.000000 0.035458 0.000000 0.181870
#
#
# Mechanical properties :
#
#
# Convention : Reuss Voigt Hill
#
# Bulk Modulus (GPa) = 36.53965 40.41419 38.47692
# Shear Modulus (GPa) = 13.09434 21.97439 17.53437
#
# Velocity S-wave (km/s) = 2.59364 3.35989 3.00132
# Velocity P-wave (km/s) = 5.26695 5.98446 5.63713
#
# Compressibility (1/GPa) = 0.02736753
#
# Stress axis : x y z
#
# Youngs Moduli (GPa) = 35.55847 90.54562 47.81585
#
# Poissons Ratio (x) = 0.19805 0.52964
# Poissons Ratio (y) = 0.07778 0.14787
# Poissons Ratio (z) = 0.39387 0.28001
#
# Static dielectric constant tensor:
#      x y z
#    x 1.650300 0.000000 0.006540 
#    y 0.000000 1.701410 0.000000 
#    z 0.006540 0.000000 1.682850 
# 
# From -- ./inp_files/59893.got.cif
#   From: 2010.05.17/outbox.cif.g08.bks.cpg/sg15_30_cif.got.tgz:59893.got - 2010.06.03 18:47:42.
