data_PCOD9284720
_publ_section_title
;
Structure prediction by ZEFSAII (Michael W. Deem and Ramdas Pophale) SiO2 
 PCOD9284720
Probable space group: C 2/C
;
_chemical_formula_sum "Si O2"
_cell_formula_units_Z 60
_cell_length_a 16.595607
_cell_length_b 7.601464
_cell_length_c 21.511561
_cell_angle_alpha 90.000000
_cell_angle_beta 79.003009
_cell_angle_gamma 90.000000
_cell_volume 2663.871800
_symmetry_space_group_name_H-M "C 2/C"
_symmetry_group_IT_number 15
_symmetry_cell_setting 'monoclinic'
loop_
_space_group_symop_operation_xyz
x,y,z
-x,y,1/2-z
-x,-y,-z
x,-y,1/2+z
1/2+x,1/2+y,z
1/2-x,1/2+y,1/2-z
1/2-x,1/2-y,-z
1/2+x,1/2-y,1/2+z
loop_
_atom_site_type_symbol
_atom_site_label
_atom_site_fract_x
_atom_site_fract_y
_atom_site_fract_z
Si Si1 0.315523 0.294859 0.437873
Si Si2 0.003960 0.173334 0.924854
Si Si3 0.669181 0.265123 0.201697
Si Si4 0.920127 0.490586 0.141185
Si Si5 0.976340 0.219951 0.436241
Si Si6 0.254101 0.612879 0.309560
Si Si7 0.300450 0.714004 0.429696
Si Si8 0.000000 0.561517 0.250000
O O1 0.250000 0.250000 0.500000
O O2 0.409971 0.259280 0.441807
O O3 0.300553 0.214357 0.371985
O O4 0.311209 0.504033 0.429921
O O5 0.054825 0.307482 0.875894
O O6 0.039712 0.182397 0.988963
O O7 0.001855 0.969813 0.904691
O O8 0.670199 0.478020 0.206843
O O9 0.726933 0.198165 0.248962
O O10 0.578755 0.181620 0.221639
O O11 0.823266 0.488727 0.161501
O O12 0.967543 0.445582 0.197562
O O13 0.953647 0.363058 0.083590
O O14 0.891414 0.292057 0.421244
O O15 0.264278 0.745912 0.366202
O O16 0.250000 0.750000 0.500000
#
# Coordination Sequence:
#
# PCOD9284720 Si02
#       8
#     8   8   8   8   8   8   8   4
#     4  10  22  37  65  94 128 174 220 266 343 397
#     4  10  21  41  63  96 135 171 216 279 331 395
#     4  10  22  45  63  96 132 170 226 270 330 413
#     4  11  22  41  68  93 128 177 221 269 332 397
#     4  10  23  38  63  96 129 168 229 266 327 403
#     4  10  24  42  65  95 132 171 222 271 344 398
#     4  10  22  38  58  94 132 168 217 277 327 394
#     4  10  22  42  70  92 126 182 220 268 338 402
#
# _framework density 22.523605
#
# number of rings (size 3 to 8) (size 9 to 14) (size 15 to 20)
#    0.000    1.867    1.333    1.200    5.600    3.200 
#    4.800    0.667    0.000    0.000    0.000    0.000 
#    0.000    0.000    0.000    0.000    0.000    0.000 
#
# Total GULP energy -167562.571914 kJ/mol
# GULP energy per Si atom -5585.419064 kJ/mol
# Density = 2.247234 g / cm^3
# Si number density = 22.523605 Si / 1000 Ang^3
#
#
#
# Elastic Constant Matrix: (Units=GPa)
#
#
# Indices 1 2 3 4 5 6 
#
# 1 77.8753 -0.0797 31.0432 0.0000 12.0354 0.0000
# 2 -0.0797 32.6162 0.4457 0.0000 -5.0384 0.0000
# 3 31.0432 0.4457 106.2428 0.0000 12.7875 0.0000
# 4 0.0000 0.0000 0.0000 19.9093 0.0000 -0.2275
# 5 12.0354 -5.0384 12.7875 0.0000 41.4293 0.0000
# 6 0.0000 0.0000 0.0000 -0.2275 0.0000 15.4061
#
#
#
# Elastic Compliance Matrix: (Units=1/GPa)
#
#
# Indices 1 2 3 4 5 6 
#
# 1 0.014913 -0.000396 -0.003976 0.000000 -0.003153 0.000000
# 2 -0.000396 0.031295 -0.000506 0.000000 0.004077 0.000000
# 3 -0.003976 -0.000506 0.010848 0.000000 -0.002255 0.000000
# 4 0.000000 0.000000 0.000000 0.050236 0.000000 0.000742
# 5 -0.003153 0.004077 -0.002255 0.000000 0.026245 0.000000
# 6 0.000000 0.000000 0.000000 0.000742 0.000000 0.064920
#
#
# Mechanical properties :
#
#
# Convention : Reuss Voigt Hill
#
# Bulk Modulus (GPa) = 21.14231 31.06141 26.10186
# Shear Modulus (GPa) = 22.32323 27.70394 25.01358
#
# Velocity S-wave (km/s) = 3.15160 3.51093 3.33611
# Velocity P-wave (km/s) = 4.75926 5.50055 5.14328
#
# Compressibility (1/GPa) = 0.04729851
#
# Stress axis : x y z
#
# Youngs Moduli (GPa) = 67.05564 31.95355 92.18527
#
# Poissons Ratio (x) = 0.01266 0.36655
# Poissons Ratio (y) = 0.02658 0.04667
# Poissons Ratio (z) = 0.26663 0.01618
#
# Static dielectric constant tensor:
#      x y z
#    x 1.842800 0.000000 0.035360 
#    y 0.000000 1.862840 0.000000 
#    z 0.035360 0.000000 1.909270 
# 
# From -- ./inp_files/247434.got.cif
#   From: 2010.05.17/outbox.cif.g08.bks.cpg/sg15_124_cif.got.tgz:247434.got - 2010.06.03 18:47:42.
