data_PCOD9284584
_publ_section_title
;
Structure prediction by ZEFSAII (Michael W. Deem and Ramdas Pophale) SiO2 
 PCOD9284584
Probable space group: C 2/C
;
_chemical_formula_sum "Si O2"
_cell_formula_units_Z 48
_cell_length_a 13.109686
_cell_length_b 20.999041
_cell_length_c 12.970138
_cell_angle_alpha 90.000000
_cell_angle_beta 41.703397
_cell_angle_gamma 90.000000
_cell_volume 2375.403020
_symmetry_space_group_name_H-M "C 2/C"
_symmetry_group_IT_number 15
_symmetry_cell_setting 'monoclinic'
loop_
_space_group_symop_operation_xyz
x,y,z
-x,y,1/2-z
-x,-y,-z
x,-y,1/2+z
1/2+x,1/2+y,z
1/2-x,1/2+y,1/2-z
1/2-x,1/2-y,-z
1/2+x,1/2-y,1/2+z
loop_
_atom_site_type_symbol
_atom_site_label
_atom_site_fract_x
_atom_site_fract_y
_atom_site_fract_z
Si Si1 0.807071 0.616383 0.192191
Si Si2 0.774164 0.204564 0.581575
Si Si3 0.684689 0.951135 0.613907
Si Si4 0.599652 0.173630 0.075569
Si Si5 0.675706 0.422275 0.579099
Si Si6 0.391992 0.259214 0.611169
O O1 0.770507 0.561395 0.301845
O O2 0.782600 0.594097 0.095568
O O3 0.696026 0.675709 0.297990
O O4 0.977360 0.639306 0.091712
O O5 0.750000 0.250000 0.500000
O O6 0.796413 0.133186 0.525050
O O7 0.641580 0.214058 0.765394
O O8 0.928079 0.226483 0.524203
O O9 0.500000 0.963340 0.750000
O O10 0.705344 0.883324 0.538961
O O11 0.777881 0.008871 0.497038
O O12 0.500000 0.195738 0.250000
O O13 0.663389 0.229060 0.955050
O O14 0.500000 0.419496 0.750000
#
# Coordination Sequence:
#
# PCOD9284584 Si02
#       6
#     8   8   8   8   8   8
#     4  10  21  41  62  87 128 161 209 261 313 365
#     4  12  23  38  62  96 126 163 206 254 322 372
#     4   9  24  43  62  88 119 171 217 252 308 374
#     4   9  21  42  66  93 123 164 215 258 306 376
#     4  12  23  41  62  92 132 162 206 266 312 375
#     4  12  21  40  65  94 127 166 202 264 320 370
#
# _framework density 20.207097000000001
#
# number of rings (size 3 to 8) (size 9 to 14) (size 15 to 20)
#    0.000    1.667    5.000    0.500    0.000   10.000 
#    3.000    0.000    0.000    0.000    0.000    0.000 
#    0.000    0.000    0.000    0.000    0.000    0.000 
#
# Total GULP energy -134064.350202 kJ/mol
# GULP energy per Si atom -5586.014592 kJ/mol
# Density = 2.016111 g / cm^3
# Si number density = 20.207097 Si / 1000 Ang^3
#
#
#
# Elastic Constant Matrix: (Units=GPa)
#
#
# Indices 1 2 3 4 5 6 
#
# 1 50.6193 1.7603 8.7550 -0.0002 16.4256 -0.0002
# 2 1.7603 94.9617 37.3448 -0.0003 22.8529 0.0002
# 3 8.7550 37.3448 57.8653 -0.0010 29.6994 0.0008
# 4 -0.0002 -0.0003 -0.0010 50.2246 0.0006 16.0288
# 5 16.4256 22.8529 29.6994 0.0006 33.2553 -0.0002
# 6 -0.0002 0.0002 0.0008 16.0288 -0.0002 20.2149
#
#
#
# Elastic Compliance Matrix: (Units=1/GPa)
#
#
# Indices 1 2 3 4 5 6 
#
# 1 0.024499 0.002213 0.003427 0.000001 -0.016682 -0.000001
# 2 0.002213 0.014464 -0.007398 0.000000 -0.004425 0.000000
# 3 0.003427 -0.007398 0.036551 0.000002 -0.029252 -0.000003
# 4 0.000001 0.000000 0.000002 0.026656 -0.000003 -0.021136
# 5 -0.016682 -0.004425 -0.029252 -0.000003 0.067475 0.000004
# 6 -0.000001 0.000000 -0.000003 -0.021136 0.000004 0.066228
#
#
# Mechanical properties :
#
#
# Convention : Reuss Voigt Hill
#
# Bulk Modulus (GPa) = 13.88937 33.24070 23.56504
# Shear Modulus (GPa) = 18.98343 31.11137 25.04740
#
# Velocity S-wave (km/s) = 3.06836 3.92806 3.52452
# Velocity P-wave (km/s) = 4.40926 6.08758 5.31508
#
# Compressibility (1/GPa) = 0.07199749
#
# Stress axis : x y z
#
# Youngs Moduli (GPa) = 40.81838 69.13760 27.35920
#
# Poissons Ratio (x) = -0.15297 -0.09377
# Poissons Ratio (y) = -0.09031 0.20240
# Poissons Ratio (z) = -0.13990 0.51148
#
# Static dielectric constant tensor:
#      x y z
#    x 1.725390 0.000000 -0.005280 
#    y 0.000000 1.725520 0.000000 
#    z -0.005280 0.000000 1.725770 
# 
# From -- ./inp_files/89393.got.cif
#   From: 2010.05.17/outbox.cif.g08.bks.cpg/sg15_45_cif.got.tgz:89393.got - 2010.06.03 18:47:42.
