data_PCOD9284581
_publ_section_title
;
Structure prediction by ZEFSAII (Michael W. Deem and Ramdas Pophale) SiO2 
 PCOD9284581
Probable space group: C 2/C
;
_chemical_formula_sum "Si O2"
_cell_formula_units_Z 40
_cell_length_a 12.769574
_cell_length_b 8.081027
_cell_length_c 15.962202
_cell_angle_alpha 90.000000
_cell_angle_beta 83.858034
_cell_angle_gamma 90.000000
_cell_volume 1637.704979
_symmetry_space_group_name_H-M "C 2/C"
_symmetry_group_IT_number 15
_symmetry_cell_setting 'monoclinic'
loop_
_space_group_symop_operation_xyz
x,y,z
-x,y,1/2-z
-x,-y,-z
x,-y,1/2+z
1/2+x,1/2+y,z
1/2-x,1/2+y,1/2-z
1/2-x,1/2-y,-z
1/2+x,1/2-y,1/2+z
loop_
_atom_site_type_symbol
_atom_site_label
_atom_site_fract_x
_atom_site_fract_y
_atom_site_fract_z
Si Si1 0.763590 0.666962 0.298441
Si Si2 0.799896 0.185342 0.627710
Si Si3 0.588391 0.737822 0.048962
Si Si4 0.374057 0.846962 0.083420
Si Si5 0.849640 0.892274 0.429584
O O1 0.807722 0.683704 0.202228
O O2 0.715983 0.490693 0.325852
O O3 0.662928 0.787299 0.322214
O O4 0.844765 0.749979 0.358794
O O5 0.692407 0.201896 0.585673
O O6 0.891240 0.207378 0.551493
O O7 0.497596 0.872167 0.072492
O O8 0.576461 0.550826 0.087665
O O9 0.274216 0.953709 0.060389
O O10 0.367561 0.693568 0.017244
#
# Coordination Sequence:
#
# PCOD9284581 Si02
#       5
#     8   8   8   8   8
#     4  10  21  41  62  85 130 160 202 265 317 360
#     4  11  23  37  62  92 124 160 203 262 315 375
#     4  11  21  39  67  91 119 166 215 248 319 381
#     4   9  19  37  70  86 122 160 213 253 310 371
#     4   9  18  39  67  88 118 161 206 264 299 374
#
# _framework density 24.424423999999998
#
# number of rings (size 3 to 8) (size 9 to 14) (size 15 to 20)
#    1.200    0.800    2.000    1.800    0.000    0.800 
#    0.000   10.000    8.800    0.000    0.000    0.000 
#    0.000    0.000    0.000    0.000    0.000    0.000 
#
# Total GULP energy -111465.000258 kJ/mol
# GULP energy per Si atom -5573.250013 kJ/mol
# Density = 2.436883 g / cm^3
# Si number density = 24.424424 Si / 1000 Ang^3
#
#
#
# Elastic Constant Matrix: (Units=GPa)
#
#
# Indices 1 2 3 4 5 6 
#
# 1 76.0048 -11.5038 -8.9542 0.0000 2.1043 0.0000
# 2 -11.5038 70.2241 -1.8992 0.0000 0.2115 0.0000
# 3 -8.9542 -1.8992 80.8342 0.0000 -10.3379 0.0000
# 4 0.0000 0.0000 0.0000 38.9859 0.0000 5.3507
# 5 2.1043 0.2115 -10.3379 0.0000 11.2418 0.0000
# 6 0.0000 0.0000 0.0000 5.3507 0.0000 19.6704
#
#
#
# Elastic Compliance Matrix: (Units=1/GPa)
#
#
# Indices 1 2 3 4 5 6 
#
# 1 0.013705 0.002287 0.001403 0.000000 -0.001318 0.000000
# 2 0.002287 0.014631 0.000575 0.000000 -0.000175 0.000000
# 3 0.001403 0.000575 0.014172 0.000000 0.012759 0.000000
# 4 0.000000 0.000000 0.000000 0.026645 0.000000 -0.007248
# 5 -0.001318 -0.000175 0.012759 0.000000 0.100936 0.000000
# 6 0.000000 0.000000 0.000000 -0.007248 0.000000 0.052809
#
#
# Mechanical properties :
#
#
# Convention : Reuss Voigt Hill
#
# Bulk Modulus (GPa) = 19.59338 20.26099 19.92718
# Shear Modulus (GPa) = 21.60941 30.60765 26.10853
#
# Velocity S-wave (km/s) = 2.97769 3.54384 3.27303
# Velocity P-wave (km/s) = 4.45664 5.00584 4.73920
#
# Compressibility (1/GPa) = 0.05103766
#
# Stress axis : x y z
#
# Youngs Moduli (GPa) = 72.96594 68.34879 70.56337
#
# Poissons Ratio (x) = -0.15631 -0.09902
# Poissons Ratio (y) = -0.16687 -0.04055
# Poissons Ratio (z) = -0.10240 -0.03928
#
# Static dielectric constant tensor:
#      x y z
#    x 2.007850 0.000000 -0.036030 
#    y 0.000000 2.035370 0.000000 
#    z -0.036030 0.000000 1.901880 
# 
# From -- ./inp_files/141823.got.cif
#   From: 2010.05.17/outbox.cif.g08.bks.cpg/sg15_71_cif.got.tgz:141823.got - 2010.06.03 18:47:42.
