data_PCOD9284717
_publ_section_title
;
Structure prediction by ZEFSAII (Michael W. Deem and Ramdas Pophale) SiO2 
 PCOD9284717
Probable space group: C 2/C
;
_chemical_formula_sum "Si O2"
_cell_formula_units_Z 48
_cell_length_a 32.762204
_cell_length_b 7.621225
_cell_length_c 8.766180
_cell_angle_alpha 90.000000
_cell_angle_beta 73.440838
_cell_angle_gamma 90.000000
_cell_volume 2098.032232
_symmetry_space_group_name_H-M "C 2/C"
_symmetry_group_IT_number 15
_symmetry_cell_setting 'monoclinic'
loop_
_space_group_symop_operation_xyz
x,y,z
-x,y,1/2-z
-x,-y,-z
x,-y,1/2+z
1/2+x,1/2+y,z
1/2-x,1/2+y,1/2-z
1/2-x,1/2-y,-z
1/2+x,1/2-y,1/2+z
loop_
_atom_site_type_symbol
_atom_site_label
_atom_site_fract_x
_atom_site_fract_y
_atom_site_fract_z
Si Si1 0.459423 0.292464 0.584657
Si Si2 0.796999 0.096462 0.598828
Si Si3 0.407415 0.092286 0.438017
Si Si4 0.000000 0.520463 0.750000
Si Si5 0.798955 0.736946 0.762163
Si Si6 0.000000 0.031192 0.750000
Si Si7 0.145067 0.621052 0.305407
O O1 0.414522 0.223877 0.572453
O O2 0.490017 0.141161 0.615470
O O3 0.459937 0.422270 0.726710
O O4 0.483012 0.373926 0.415749
O O5 0.805173 0.160232 0.416336
O O6 0.748554 0.155057 0.687313
O O7 0.826717 0.216075 0.674219
O O8 0.802708 0.889638 0.629820
O O9 0.376010 0.144580 0.337156
O O10 0.454955 0.073001 0.321096
O O11 0.391685 0.911882 0.529741
O O12 0.828713 0.563970 0.718131
#
# Coordination Sequence:
#
# PCOD9284717 Si02
#       7
#     8   8   8   4   8   4   8
#     4  10  21  41  63  95 128 185 231 289 357 421
#     4  11  25  46  75 108 146 192 235 289 363 438
#     4  12  25  44  69  98 144 183 248 298 352 427
#     4  11  23  42  70  96 125 191 246 286 362 418
#     4  11  25  46  75 108 144 192 237 287 368 432
#     4   9  21  40  64  92 135 171 244 286 358 426
#     4  12  26  47  68 112 147 186 244 302 352 428
#
# _framework density 22.878578999999998
#
# number of rings (size 3 to 8) (size 9 to 14) (size 15 to 20)
#    0.000    1.000    5.000    1.000    4.667    0.667 
#    3.000    0.000    0.000    0.000    0.000    0.000 
#    0.000    0.000    0.000    0.000    0.000    0.000 
#
# Total GULP energy -134041.331418 kJ/mol
# GULP energy per Si atom -5585.055476 kJ/mol
# Density = 2.282651 g / cm^3
# Si number density = 22.878579 Si / 1000 Ang^3
#
#
#
# Elastic Constant Matrix: (Units=GPa)
#
#
# Indices 1 2 3 4 5 6 
#
# 1 100.9026 27.8333 31.9591 0.0000 23.7480 0.0000
# 2 27.8333 86.0732 20.1824 0.0000 8.1820 0.0000
# 3 31.9591 20.1824 82.0415 0.0000 25.6419 0.0000
# 4 0.0000 0.0000 0.0000 55.0819 0.0000 33.6241
# 5 23.7480 8.1820 25.6419 0.0000 47.5770 0.0000
# 6 0.0000 0.0000 0.0000 33.6241 0.0000 46.3571
#
#
#
# Elastic Compliance Matrix: (Units=1/GPa)
#
#
# Indices 1 2 3 4 5 6 
#
# 1 0.012648 -0.003016 -0.002855 0.000000 -0.004256 0.000000
# 2 -0.003016 0.013062 -0.002173 0.000000 0.000430 0.000000
# 3 -0.002855 -0.002173 0.015962 0.000000 -0.006804 0.000000
# 4 0.000000 0.000000 0.000000 0.032580 0.000000 -0.023631
# 5 -0.004256 0.000430 -0.006804 0.000000 0.026736 0.000000
# 6 0.000000 0.000000 0.000000 -0.023631 0.000000 0.038712
#
#
# Mechanical properties :
#
#
# Convention : Reuss Voigt Hill
#
# Bulk Modulus (GPa) = 39.08565 47.66301 43.37433
# Shear Modulus (GPa) = 30.42895 42.40604 36.41750
#
# Velocity S-wave (km/s) = 3.65090 4.30993 3.99403
# Velocity P-wave (km/s) = 5.90704 6.75615 6.34581
#
# Compressibility (1/GPa) = 0.02558484
#
# Stress axis : x y z
#
# Youngs Moduli (GPa) = 79.06092 76.55850 62.64773
#
# Poissons Ratio (x) = 0.23091 0.17886
# Poissons Ratio (y) = 0.23846 0.13612
# Poissons Ratio (z) = 0.22572 0.16635
#
# Static dielectric constant tensor:
#      x y z
#    x 1.813260 0.000000 -0.054410 
#    y 0.000000 1.994310 0.000000 
#    z -0.054410 0.000000 1.884360 
# 
# From -- ./inp_files/68619.got.cif
#   From: 2010.05.17/outbox.cif.g08.bks.cpg/sg15_35_cif.got.tgz:68619.got - 2010.06.03 18:47:42.
