data_PCOD9284351
_publ_section_title
;
Structure prediction by ZEFSAII (Michael W. Deem and Ramdas Pophale) SiO2 
 PCOD9284351
Probable space group: C 2/C
;
_chemical_formula_sum "Si O2"
_cell_formula_units_Z 52
_cell_length_a 11.722589
_cell_length_b 12.286176
_cell_length_c 20.133296
_cell_angle_alpha 90.000000
_cell_angle_beta 44.125711
_cell_angle_gamma 90.000000
_cell_volume 2018.882244
_symmetry_space_group_name_H-M "C 2/C"
_symmetry_group_IT_number 15
_symmetry_cell_setting 'monoclinic'
loop_
_space_group_symop_operation_xyz
x,y,z
-x,y,1/2-z
-x,-y,-z
x,-y,1/2+z
1/2+x,1/2+y,z
1/2-x,1/2+y,1/2-z
1/2-x,1/2-y,-z
1/2+x,1/2-y,1/2+z
loop_
_atom_site_type_symbol
_atom_site_label
_atom_site_fract_x
_atom_site_fract_y
_atom_site_fract_z
Si Si1 0.491720 0.589411 0.357754
Si Si2 0.219494 0.008881 0.435921
Si Si3 0.181546 0.375672 0.920239
Si Si4 0.246171 0.273403 0.283383
Si Si5 0.445699 0.664426 0.574914
Si Si6 0.500000 0.607774 0.750000
Si Si7 0.027160 0.479690 0.379371
O O1 0.379545 0.564356 0.468551
O O2 0.368421 0.652071 0.359116
O O3 0.645164 0.661556 0.317465
O O4 0.508799 0.475281 0.309596
O O5 0.170103 0.941104 0.391075
O O6 0.411357 0.019815 0.368626
O O7 0.127987 0.122277 0.486498
O O8 0.085247 0.263814 0.961452
O O9 0.152137 0.439763 0.863970
O O10 0.105179 0.453396 0.007634
O O11 0.387885 0.283790 0.168331
O O12 0.341205 0.314223 0.309973
O O13 0.115676 0.368694 0.323942
#
# Coordination Sequence:
#
# PCOD9284351 Si02
#       7
#     8   8   8   8   8   4   8
#     4  11  22  44  72  95 137 185 226 294 351 417
#     4  10  23  43  64  94 141 184 229 291 351 428
#     4  10  21  40  69  96 130 184 236 278 358 424
#     4  12  25  40  74 104 136 183 240 293 359 417
#     4  11  23  40  63  98 139 185 229 294 357 417
#     4  12  24  46  70 104 146 180 236 298 348 420
#     4  10  22  41  67 102 134 180 240 288 342 429
#
# _framework density 25.756827000000001
#
# number of rings (size 3 to 8) (size 9 to 14) (size 15 to 20)
#    0.000    1.231    3.077    2.769    0.000    4.923 
#    0.000    3.077    3.385    0.000    0.000    0.000 
#    0.000    0.000    0.000    0.000    0.000    0.000 
#
# Total GULP energy -145235.075734 kJ/mol
# GULP energy per Si atom -5585.964451 kJ/mol
# Density = 2.569820 g / cm^3
# Si number density = 25.756827 Si / 1000 Ang^3
#
#
#
# Elastic Constant Matrix: (Units=GPa)
#
#
# Indices 1 2 3 4 5 6 
#
# 1 117.6252 49.3642 11.8452 0.0000 -30.0899 0.0000
# 2 49.3642 115.8627 13.5951 0.0000 -4.6916 0.0000
# 3 11.8452 13.5951 59.4121 0.0000 5.4878 0.0000
# 4 0.0000 0.0000 0.0000 45.2676 0.0000 -12.6296
# 5 -30.0899 -4.6916 5.4878 0.0000 33.1458 0.0000
# 6 0.0000 0.0000 0.0000 -12.6296 0.0000 43.4073
#
#
#
# Elastic Compliance Matrix: (Units=1/GPa)
#
#
# Indices 1 2 3 4 5 6 
#
# 1 0.014197 -0.005209 -0.002804 0.000000 0.012615 0.000000
# 2 -0.005209 0.010866 -0.001171 0.000000 -0.002997 0.000000
# 3 -0.002804 -0.001171 0.018187 0.000000 -0.005722 0.000000
# 4 0.000000 0.000000 0.000000 0.024043 0.000000 0.006995
# 5 0.012615 -0.002997 -0.005722 0.000000 0.042145 0.000000
# 6 0.000000 0.000000 0.000000 0.006995 0.000000 0.025073
#
#
# Mechanical properties :
#
#
# Convention : Reuss Voigt Hill
#
# Bulk Modulus (GPa) = 40.18864 49.16765 44.67815
# Shear Modulus (GPa) = 31.02253 38.90383 34.96318
#
# Velocity S-wave (km/s) = 3.47427 3.89064 3.68833
# Velocity P-wave (km/s) = 5.63303 6.27004 5.96005
#
# Compressibility (1/GPa) = 0.02488265
#
# Stress axis : x y z
#
# Youngs Moduli (GPa) = 70.43698 92.02760 54.98389
#
# Poissons Ratio (x) = 0.47937 0.15416
# Poissons Ratio (y) = 0.36690 0.06440
# Poissons Ratio (z) = 0.19749 0.10778
#
# Static dielectric constant tensor:
#      x y z
#    x 2.156820 0.000000 0.079290 
#    y 0.000000 2.005060 0.000000 
#    z 0.079290 0.000000 2.050100 
# 
# From -- ./inp_files/237677.got.cif
#   From: 2010.05.17/outbox.cif.g08.bks.cpg/sg15_119_cif.got.tgz:237677.got - 2010.06.03 18:47:42.
