data_PCOD9284386
_publ_section_title
;
Structure prediction by ZEFSAII (Michael W. Deem and Ramdas Pophale) SiO2 
 PCOD9284386
Probable space group: C 2/C
;
_chemical_formula_sum "Si O2"
_cell_formula_units_Z 48
_cell_length_a 13.140957
_cell_length_b 27.873979
_cell_length_c 11.070334
_cell_angle_alpha 90.000000
_cell_angle_beta 145.084260
_cell_angle_gamma 90.000000
_cell_volume 2320.942758
_symmetry_space_group_name_H-M "C 2/C"
_symmetry_group_IT_number 15
_symmetry_cell_setting 'monoclinic'
loop_
_space_group_symop_operation_xyz
x,y,z
-x,y,1/2-z
-x,-y,-z
x,-y,1/2+z
1/2+x,1/2+y,z
1/2-x,1/2+y,1/2-z
1/2-x,1/2-y,-z
1/2+x,1/2-y,1/2+z
loop_
_atom_site_type_symbol
_atom_site_label
_atom_site_fract_x
_atom_site_fract_y
_atom_site_fract_z
Si Si1 0.607975 0.125429 0.718821
Si Si2 0.184689 0.308024 0.638369
Si Si3 0.069387 0.620622 0.186859
Si Si4 0.575409 0.437966 0.457543
Si Si5 0.128034 0.050814 0.487763
Si Si6 0.926010 0.201446 0.042271
O O1 0.419228 0.154168 0.552562
O O2 0.572604 0.104865 0.550225
O O3 0.690425 0.079417 0.864255
O O4 0.762669 0.165332 0.869386
O O5 0.099844 0.323549 0.682757
O O6 0.138338 0.254557 0.554400
O O7 0.395460 0.313489 0.853231
O O8 0.253734 0.593933 0.348358
O O9 0.000000 0.612248 0.250000
O O10 0.500000 0.424600 0.250000
O O11 0.637627 0.493355 0.504106
O O12 0.450836 0.434651 0.456375
O O13 0.000000 0.063046 0.250000
O O14 0.000000 0.202482 0.250000
#
# Coordination Sequence:
#
# PCOD9284386 Si02
#       6
#     8   8   8   8   8   8
#     4  10  23  38  62  92 133 160 216 264 319 389
#     4  10  23  37  60  94 119 167 217 253 312 384
#     4  10  22  41  62  91 125 170 224 264 322 385
#     4  10  21  40  70  92 130 179 219 265 332 394
#     4  10  21  41  63 102 133 167 219 275 327 386
#     4  12  22  42  64  87 135 171 204 259 331 404
#
# _framework density 20.681251
#
# number of rings (size 3 to 8) (size 9 to 14) (size 15 to 20)
#    1.000    0.667    1.667    3.000    0.000    0.667 
#    3.000    3.333    0.000    0.000    0.000    0.000 
#    0.000    0.000    0.000    0.000    0.000    0.000 
#
# Total GULP energy -133695.922103 kJ/mol
# GULP energy per Si atom -5570.663421 kJ/mol
# Density = 2.063418 g / cm^3
# Si number density = 20.681251 Si / 1000 Ang^3
#
#
#
# Elastic Constant Matrix: (Units=GPa)
#
#
# Indices 1 2 3 4 5 6 
#
# 1 52.9567 16.9703 31.8580 0.0000 5.5068 0.0000
# 2 16.9703 63.5607 48.7782 0.0000 0.6299 0.0000
# 3 31.8580 48.7782 131.2881 0.0000 -1.1603 0.0000
# 4 0.0000 0.0000 0.0000 29.4836 0.0000 2.5371
# 5 5.5068 0.6299 -1.1603 0.0000 28.5636 0.0000
# 6 0.0000 0.0000 0.0000 2.5371 0.0000 13.6621
#
#
#
# Elastic Compliance Matrix: (Units=1/GPa)
#
#
# Indices 1 2 3 4 5 6 
#
# 1 0.022978 -0.002490 -0.004691 0.000000 -0.004566 0.000000
# 2 -0.002490 0.022297 -0.007683 0.000000 -0.000324 0.000000
# 3 -0.004691 -0.007683 0.011623 0.000000 0.001546 0.000000
# 4 0.000000 0.000000 0.000000 0.034468 0.000000 -0.006401
# 5 -0.004566 -0.000324 0.001546 0.000000 0.035960 0.000000
# 6 0.000000 0.000000 0.000000 -0.006401 0.000000 0.074384
#
#
# Mechanical properties :
#
#
# Convention : Reuss Voigt Hill
#
# Bulk Modulus (GPa) = 36.80386 49.22426 43.01406
# Shear Modulus (GPa) = 20.79052 24.35512 22.57282
#
# Velocity S-wave (km/s) = 3.17406 3.43540 3.30731
# Velocity P-wave (km/s) = 5.59171 6.29198 5.95216
#
# Compressibility (1/GPa) = 0.02717106
#
# Stress axis : x y z
#
# Youngs Moduli (GPa) = 43.51973 44.84923 86.03413
#
# Poissons Ratio (x) = 0.11166 0.40360
# Poissons Ratio (y) = 0.10835 0.66099
# Poissons Ratio (z) = 0.20416 0.34457
#
# Static dielectric constant tensor:
#      x y z
#    x 1.973300 0.000000 0.033360 
#    y 0.000000 1.733220 0.000000 
#    z 0.033360 0.000000 1.428450 
# 
# From -- ./inp_files/101678.got.cif
#   From: 2010.05.17/outbox.cif.g08.bks.cpg/sg15_51_cif.got.tgz:101678.got - 2010.06.03 18:47:42.
