data_PCOD9284953
_publ_section_title
;
Structure prediction by ZEFSAII (Michael W. Deem and Ramdas Pophale) SiO2 
 PCOD9284953
Probable space group: C 2/C
;
_chemical_formula_sum "Si O2"
_cell_formula_units_Z 36
_cell_length_a 27.056672
_cell_length_b 5.094164
_cell_length_c 10.220948
_cell_angle_alpha 90.000000
_cell_angle_beta 65.457898
_cell_angle_gamma 90.000000
_cell_volume 1281.491737
_symmetry_space_group_name_H-M "C 2/C"
_symmetry_group_IT_number 15
_symmetry_cell_setting 'monoclinic'
loop_
_space_group_symop_operation_xyz
x,y,z
-x,y,1/2-z
-x,-y,-z
x,-y,1/2+z
1/2+x,1/2+y,z
1/2-x,1/2+y,1/2-z
1/2-x,1/2-y,-z
1/2+x,1/2-y,1/2+z
loop_
_atom_site_type_symbol
_atom_site_label
_atom_site_fract_x
_atom_site_fract_y
_atom_site_fract_z
Si Si1 0.686242 0.455530 0.494658
Si Si2 0.794180 0.261389 0.793403
Si Si3 0.000000 0.281621 0.750000
Si Si4 0.074438 0.989427 0.486951
Si Si5 0.094985 0.486514 0.296817
O O1 0.733561 0.648028 0.388817
O O2 0.697112 0.487026 0.637485
O O3 0.695124 0.233016 0.373850
O O4 0.623498 0.518879 0.537382
O O5 0.842353 0.441149 0.802242
O O6 0.948793 0.459443 0.767370
O O7 0.019888 0.090122 0.613369
O O8 0.088796 0.197110 0.358470
O O9 0.076885 0.698192 0.427081
#
# Coordination Sequence:
#
# PCOD9284953 Si02
#       5
#     8   8   4   8   8
#     4  10  21  41  66 100 138 179 226 282 343 409
#     4  10  21  41  66 100 138 179 226 282 343 409
#     4  12  24  46  66 100 128 190 220 296 322 418
#     4  11  25  44  67  99 135 177 228 281 340 407
#     4  11  25  44  67  99 135 177 228 281 340 407
#
# _framework density 28.092261000000001
#
# number of rings (size 3 to 8) (size 9 to 14) (size 15 to 20)
#    0.000    1.333    2.222    2.667    0.000    4.444 
#    4.000    0.000    0.000    0.000    0.000    0.000 
#    0.000    0.000    0.000    0.000    0.000    0.000 
#
# Total GULP energy -100809.399041 kJ/mol
# GULP energy per Si atom -5600.522169 kJ/mol
# Density = 2.802832 g / cm^3
# Si number density = 28.092261 Si / 1000 Ang^3
#
#
#
# Elastic Constant Matrix: (Units=GPa)
#
#
# Indices 1 2 3 4 5 6 
#
# 1 160.7269 28.9949 23.9359 0.0000 12.0351 0.0000
# 2 28.9949 62.9495 40.9145 0.0000 8.5350 0.0000
# 3 23.9359 40.9145 118.9743 0.0000 -21.8042 0.0000
# 4 0.0000 0.0000 0.0000 34.1012 0.0000 -4.0364
# 5 12.0351 8.5350 -21.8042 0.0000 37.4703 0.0000
# 6 0.0000 0.0000 0.0000 -4.0364 0.0000 39.0730
#
#
#
# Elastic Compliance Matrix: (Units=1/GPa)
#
#
# Indices 1 2 3 4 5 6 
#
# 1 0.006953 -0.002177 -0.001084 0.000000 -0.002369 0.000000
# 2 -0.002177 0.024953 -0.010138 0.000000 -0.010884 0.000000
# 3 -0.001084 -0.010138 0.014101 0.000000 0.010863 0.000000
# 4 0.000000 0.000000 0.000000 0.029687 0.000000 0.003067
# 5 -0.002369 -0.010884 0.010863 0.000000 0.036249 0.000000
# 6 0.000000 0.000000 0.000000 0.003067 0.000000 0.025910
#
#
# Mechanical properties :
#
#
# Convention : Reuss Voigt Hill
#
# Bulk Modulus (GPa) = 52.05968 58.92682 55.49325
# Shear Modulus (GPa) = 29.23038 38.71595 33.97316
#
# Velocity S-wave (km/s) = 3.22920 3.71640 3.48133
# Velocity P-wave (km/s) = 5.69873 6.27991 5.99636
#
# Compressibility (1/GPa) = 0.01920872
#
# Stress axis : x y z
#
# Youngs Moduli (GPa) = 143.81744 40.07463 70.91910
#
# Poissons Ratio (x) = 0.08723 0.07690
# Poissons Ratio (y) = 0.31306 0.71899
# Poissons Ratio (z) = 0.15595 0.40628
#
# Static dielectric constant tensor:
#      x y z
#    x 2.214970 0.000000 0.090680 
#    y 0.000000 2.197150 0.000000 
#    z 0.090680 0.000000 2.198420 
# 
# From -- ./inp_files/120650.got.cif
#   From: 2010.05.17/outbox.cif.g08.bks.cpg/sg15_61_cif.got.tgz:120650.got - 2010.06.03 18:47:42.
