data_PCOD9284785
_publ_section_title
;
Structure prediction by ZEFSAII (Michael W. Deem and Ramdas Pophale) SiO2 
 PCOD9284785
Probable space group: C 2/C
;
_chemical_formula_sum "Si O2"
_cell_formula_units_Z 52
_cell_length_a 28.366124
_cell_length_b 18.361780
_cell_length_c 14.348830
_cell_angle_alpha 90.000000
_cell_angle_beta 160.164459
_cell_angle_gamma 90.000000
_cell_volume 2535.961365
_symmetry_space_group_name_H-M "C 2/C"
_symmetry_group_IT_number 15
_symmetry_cell_setting 'monoclinic'
loop_
_space_group_symop_operation_xyz
x,y,z
-x,y,1/2-z
-x,-y,-z
x,-y,1/2+z
1/2+x,1/2+y,z
1/2-x,1/2+y,1/2-z
1/2-x,1/2-y,-z
1/2+x,1/2-y,1/2+z
loop_
_atom_site_type_symbol
_atom_site_label
_atom_site_fract_x
_atom_site_fract_y
_atom_site_fract_z
Si Si1 0.000000 0.937642 0.750000
Si Si2 0.983555 0.833803 0.109625
Si Si3 0.331040 0.533574 0.589570
Si Si4 0.568948 0.095396 0.028922
Si Si5 0.782681 0.073817 0.703470
Si Si6 0.876019 0.301647 0.702239
Si Si7 0.297739 0.919319 0.915296
O O1 0.894968 0.895412 0.485904
O O2 0.917662 0.986113 0.675528
O O3 0.000000 0.832407 0.250000
O O4 0.109900 0.884900 0.312530
O O5 0.006020 0.752392 0.116195
O O6 0.842066 0.875828 0.820358
O O7 0.168785 0.533585 0.259304
O O8 0.341758 0.529394 0.721905
O O9 0.569087 0.157772 0.105177
O O10 0.643340 0.116046 0.069900
O O11 0.412507 0.079247 0.708948
O O12 0.682414 0.136815 0.478076
O O13 0.719970 0.004828 0.641324
O O14 0.750000 0.250000 0.500000
#
# Coordination Sequence:
#
# PCOD9284785 Si02
#       7
#     4   8   8   8   8   8   8
#     4  12  20  38  64 106 126 168 230 286 322 396
#     4  12  20  41  67  93 125 180 226 268 331 420
#     4  11  19  37  69  91 126 173 219 269 335 393
#     4  10  21  41  64  92 129 176 208 282 335 392
#     4  11  23  38  66 101 129 175 222 283 331 398
#     4  11  23  41  64  92 134 178 218 271 348 405
#     4  11  22  39  68  96 126 171 231 271 336 398
#
# _framework density 20.505044000000002
#
# number of rings (size 3 to 8) (size 9 to 14) (size 15 to 20)
#    0.000    0.923    8.462    0.462    0.000    3.077 
#    2.769    4.615    0.000    0.000    0.000    0.000 
#    0.000    0.000    0.000    0.000    0.000    0.000 
#
# Total GULP energy -144840.981089 kJ/mol
# GULP energy per Si atom -5570.806965 kJ/mol
# Density = 2.045837 g / cm^3
# Si number density = 20.505044 Si / 1000 Ang^3
#
#
#
# Elastic Constant Matrix: (Units=GPa)
#
#
# Indices 1 2 3 4 5 6 
#
# 1 66.4236 22.2834 35.5891 0.0000 -25.1433 0.0000
# 2 22.2834 89.7300 40.8143 0.0000 1.6356 0.0000
# 3 35.5891 40.8143 137.4906 0.0000 -20.7710 0.0000
# 4 0.0000 0.0000 0.0000 -3.2346 0.0000 -8.1732
# 5 -25.1433 1.6356 -20.7710 0.0000 34.2824 0.0000
# 6 0.0000 0.0000 0.0000 -8.1732 0.0000 31.9248
#
#
#
# Elastic Compliance Matrix: (Units=1/GPa)
#
#
# Indices 1 2 3 4 5 6 
#
# 1 0.024394 -0.005375 -0.002177 0.000000 0.016829 0.000000
# 2 -0.005375 0.014401 -0.003944 0.000000 -0.007019 0.000000
# 3 -0.002177 -0.003944 0.009681 0.000000 0.004457 0.000000
# 4 0.000000 0.000000 0.000000 -0.187721 0.000000 -0.048059
# 5 0.016829 -0.007019 0.004457 0.000000 0.044548 0.000000
# 6 0.000000 0.000000 0.000000 -0.048059 0.000000 0.019020
#
#
# Mechanical properties :
#
#
# Convention : Reuss Voigt Hill
#
# Bulk Modulus (GPa) = 39.23789 54.55754 46.89771
# Shear Modulus (GPa) = -113.14520 25.59167 -43.77677
#
# Velocity S-wave (km/s) = -7.43633 3.53663 -4.62554
# Velocity P-wave (km/s) = 7.38612 6.58344 2.36781
#
# Compressibility (1/GPa) = 0.02548557
#
# Stress axis : x y z
#
# Youngs Moduli (GPa) = 40.99298 69.43829 103.29729
#
# Poissons Ratio (x) = 0.37322 0.22483
# Poissons Ratio (y) = 0.22033 0.40742
# Poissons Ratio (z) = 0.08922 0.27387
#
# Static dielectric constant tensor:
#      x y z
#    x 1.817780 0.000000 0.026710 
#    y 0.000000 1.777420 0.000000 
#    z 0.026710 0.000000 1.811580 
# 
# From -- ./inp_files/182897.got.cif
#   From: 2010.05.17/outbox.cif.g08.bks.cpg/sg15_92_cif.got.tgz:182897.got - 2010.06.03 18:47:42.
