data_PCOD9284831
_publ_section_title
;
Structure prediction by ZEFSAII (Michael W. Deem and Ramdas Pophale) SiO2 
 PCOD9284831
Probable space group: C 2/C
;
_chemical_formula_sum "Si O2"
_cell_formula_units_Z 32
_cell_length_a 6.916809
_cell_length_b 7.795177
_cell_length_c 32.536622
_cell_angle_alpha 90.000000
_cell_angle_beta 44.085375
_cell_angle_gamma 90.000000
_cell_volume 1220.519227
_symmetry_space_group_name_H-M "C 2/C"
_symmetry_group_IT_number 15
_symmetry_cell_setting 'monoclinic'
loop_
_space_group_symop_operation_xyz
x,y,z
-x,y,1/2-z
-x,-y,-z
x,-y,1/2+z
1/2+x,1/2+y,z
1/2-x,1/2+y,1/2-z
1/2-x,1/2-y,-z
1/2+x,1/2-y,1/2+z
loop_
_atom_site_type_symbol
_atom_site_label
_atom_site_fract_x
_atom_site_fract_y
_atom_site_fract_z
Si Si1 0.824762 0.665579 0.172849
Si Si2 0.936240 0.117363 0.932423
Si Si3 0.745906 0.014111 0.237078
Si Si4 0.807552 0.710326 0.038931
O O1 0.537317 0.610524 0.195399
O O2 0.871512 0.512256 0.198189
O O3 0.838244 0.867584 0.065676
O O4 0.020545 0.732283 0.106937
O O5 0.923740 0.929534 0.913871
O O6 0.619584 0.134799 0.996870
O O7 0.205227 0.165779 0.793428
O O8 0.500000 0.106120 0.250000
O O9 0.750000 0.750000 0.000000
#
# Coordination Sequence:
#
# PCOD9284831 Si02
#       4
#     8   8   8   8
#     4  11  25  43  70  99 138 185 233 284 350 407
#     4  10  22  40  65  98 131 173 225 274 340 409
#     4  11  24  46  65  98 138 181 232 290 336 415
#     4  10  21  41  64  98 137 170 221 279 334 411
#
# _framework density 26.218350999999998
#
# number of rings (size 3 to 8) (size 9 to 14) (size 15 to 20)
#    0.000    1.500    2.500    2.250    3.500    4.000 
#    0.000    0.000    0.000    0.000    0.000    0.000 
#    0.000    0.000    0.000    0.000    0.000    0.000 
#
# Total GULP energy -89340.532063 kJ/mol
# GULP energy per Si atom -5583.783254 kJ/mol
# Density = 2.615868 g / cm^3
# Si number density = 26.218351 Si / 1000 Ang^3
#
#
#
# Elastic Constant Matrix: (Units=GPa)
#
#
# Indices 1 2 3 4 5 6 
#
# 1 154.9867 64.2543 20.7478 -0.0001 47.5264 0.0001
# 2 64.2543 107.3857 20.6844 0.0001 18.8604 0.0000
# 3 20.7478 20.6844 80.5347 -0.0006 24.3163 0.0008
# 4 -0.0001 0.0001 -0.0006 42.7757 0.0001 16.1425
# 5 47.5264 18.8604 24.3163 0.0001 39.5830 -0.0002
# 6 0.0001 0.0000 0.0008 16.1425 -0.0002 42.6155
#
#
#
# Elastic Compliance Matrix: (Units=1/GPa)
#
#
# Indices 1 2 3 4 5 6 
#
# 1 0.012822 -0.005647 0.002435 0.000000 -0.014200 0.000000
# 2 -0.005647 0.012782 -0.002500 0.000000 0.002226 0.000000
# 3 0.002435 -0.002500 0.015905 0.000000 -0.011502 -0.000001
# 4 0.000000 0.000000 0.000000 0.027277 -0.000001 -0.010332
# 5 -0.014200 0.002226 -0.011502 -0.000001 0.048318 0.000001
# 6 0.000000 0.000000 -0.000001 -0.010332 0.000001 0.027379
#
#
# Mechanical properties :
#
#
# Convention : Reuss Voigt Hill
#
# Bulk Modulus (GPa) = 33.24094 61.58667 47.41380
# Shear Modulus (GPa) = 30.13225 40.80956 35.47090
#
# Velocity S-wave (km/s) = 3.39378 3.94956 3.68217
# Velocity P-wave (km/s) = 5.29746 6.65880 6.01676
#
# Compressibility (1/GPa) = 0.03008338
#
# Stress axis : x y z
#
# Youngs Moduli (GPa) = 77.99343 78.23701 62.87360
#
# Poissons Ratio (x) = 0.44179 -0.15307
# Poissons Ratio (y) = 0.44042 0.15719
# Poissons Ratio (z) = -0.18988 0.19560
#
# Static dielectric constant tensor:
#      x y z
#    x 2.018430 0.000000 0.023040 
#    y 0.000000 2.254260 0.000000 
#    z 0.023040 0.000000 2.122210 
# 
# From -- ./inp_files/259847.got.cif
#   From: 2010.05.17/outbox.cif.g08.bks.cpg/sg15_130_cif.got.tgz:259847.got - 2010.06.03 18:47:42.
