data_PCOD9284858
_publ_section_title
;
Structure prediction by ZEFSAII (Michael W. Deem and Ramdas Pophale) SiO2 
 PCOD9284858
Probable space group: C 2/C
;
_chemical_formula_sum "Si O2"
_cell_formula_units_Z 60
_cell_length_a 9.316273
_cell_length_b 18.354796
_cell_length_c 19.794734
_cell_angle_alpha 90.000000
_cell_angle_beta 127.725827
_cell_angle_gamma 90.000000
_cell_volume 2677.252047
_symmetry_space_group_name_H-M "C 2/C"
_symmetry_group_IT_number 15
_symmetry_cell_setting 'monoclinic'
loop_
_space_group_symop_operation_xyz
x,y,z
-x,y,1/2-z
-x,-y,-z
x,-y,1/2+z
1/2+x,1/2+y,z
1/2-x,1/2+y,1/2-z
1/2-x,1/2-y,-z
1/2+x,1/2-y,1/2+z
loop_
_atom_site_type_symbol
_atom_site_label
_atom_site_fract_x
_atom_site_fract_y
_atom_site_fract_z
Si Si1 0.861004 0.033194 0.152127
Si Si2 0.169836 0.190045 0.403127
Si Si3 0.341311 0.654838 0.409634
Si Si4 0.326633 0.304031 0.152316
Si Si5 0.944005 0.334418 0.098194
Si Si6 0.994431 0.497501 0.110178
Si Si7 0.649489 0.575090 0.955889
Si Si8 0.500000 0.929721 0.750000
O O1 0.830348 0.120321 0.145292
O O2 0.668505 0.996076 0.112397
O O3 0.000000 0.012359 0.250000
O O4 0.925591 0.999554 0.099203
O O5 0.134898 0.274073 0.372671
O O6 0.351899 0.186279 0.499866
O O7 0.000697 0.173549 0.403837
O O8 0.245323 0.730355 0.404013
O O9 0.423044 0.609383 0.495596
O O10 0.177808 0.614293 0.324035
O O11 0.500000 0.291163 0.250000
O O12 0.362318 0.364843 0.106157
O O13 0.159726 0.327958 0.152394
O O14 0.902621 0.419189 0.094575
O O15 0.055134 0.524172 0.200797
O O16 0.853423 0.554003 0.037406
#
# Coordination Sequence:
#
# PCOD9284858 Si02
#       8
#     8   8   8   8   8   8   8   4
#     4  12  23  39  64  97 130 166 217 272 325 385
#     4  10  22  41  63  90 128 175 212 259 330 391
#     4  10  22  41  63  90 131 168 211 266 326 385
#     4  11  21  39  66  95 128 163 216 276 322 378
#     4  10  21  41  65  88 128 168 209 270 321 387
#     4  11  22  42  66  91 128 167 216 270 325 391
#     4  11  22  37  65  96 121 169 221 258 322 388
#     4  10  22  42  64  94 122 166 206 276 322 376
#
# _framework density 22.411038999999999
#
# number of rings (size 3 to 8) (size 9 to 14) (size 15 to 20)
#    0.000    1.333    3.333    2.800    0.000    0.533 
#    3.600    0.000    0.000    0.000    0.000    0.000 
#    0.000    0.000    0.000    0.000    0.000    0.000 
#
# Total GULP energy -167524.717050 kJ/mol
# GULP energy per Si atom -5584.157235 kJ/mol
# Density = 2.236003 g / cm^3
# Si number density = 22.411039 Si / 1000 Ang^3
#
#
#
# Elastic Constant Matrix: (Units=GPa)
#
#
# Indices 1 2 3 4 5 6 
#
# 1 33.3228 7.4900 12.8955 0.0000 8.1195 0.0000
# 2 7.4900 107.9602 7.0347 0.0000 -10.9131 0.0000
# 3 12.8955 7.0347 81.9822 0.0000 0.5425 0.0000
# 4 0.0000 0.0000 0.0000 18.0695 0.0000 1.5286
# 5 8.1195 -10.9131 0.5425 0.0000 31.8641 0.0000
# 6 0.0000 0.0000 0.0000 1.5286 0.0000 24.7334
#
#
#
# Elastic Compliance Matrix: (Units=1/GPa)
#
#
# Indices 1 2 3 4 5 6 
#
# 1 0.035136 -0.003103 -0.005195 0.000000 -0.009927 0.000000
# 2 -0.003103 0.009928 -0.000392 0.000000 0.004197 0.000000
# 3 -0.005195 -0.000392 0.013042 0.000000 0.000968 0.000000
# 4 0.000000 0.000000 0.000000 0.055633 0.000000 -0.003438
# 5 -0.009927 0.004197 0.000968 0.000000 0.035334 0.000000
# 6 0.000000 0.000000 0.000000 -0.003438 0.000000 0.040644
#
#
# Mechanical properties :
#
#
# Convention : Reuss Voigt Hill
#
# Bulk Modulus (GPa) = 24.55329 30.90061 27.72695
# Shear Modulus (GPa) = 22.65821 27.98974 25.32397
#
# Velocity S-wave (km/s) = 3.18312 3.53785 3.36516
# Velocity P-wave (km/s) = 4.94867 5.52327 5.24385
#
# Compressibility (1/GPa) = 0.04072775
#
# Stress axis : x y z
#
# Youngs Moduli (GPa) = 28.46066 100.72787 76.67469
#
# Poissons Ratio (x) = 0.31253 0.39832
# Poissons Ratio (y) = 0.08830 0.03003
# Poissons Ratio (z) = 0.14785 0.03945
#
# Static dielectric constant tensor:
#      x y z
#    x 1.858200 0.000000 -0.016160 
#    y 0.000000 1.938600 0.000000 
#    z -0.016160 0.000000 1.783860 
# 
# From -- ./inp_files/239978.got.cif
#   From: 2010.05.17/outbox.cif.g08.bks.cpg/sg15_120_cif.got.tgz:239978.got - 2010.06.03 18:47:42.
