data_PCOD9284582
_publ_section_title
;
Structure prediction by ZEFSAII (Michael W. Deem and Ramdas Pophale) SiO2 
 PCOD9284582
Probable space group: C 2/C
;
_chemical_formula_sum "Si O2"
_cell_formula_units_Z 48
_cell_length_a 18.600287
_cell_length_b 11.368947
_cell_length_c 11.628788
_cell_angle_alpha 90.000000
_cell_angle_beta 78.239085
_cell_angle_gamma 90.000000
_cell_volume 2407.465027
_symmetry_space_group_name_H-M "C 2/C"
_symmetry_group_IT_number 15
_symmetry_cell_setting 'monoclinic'
loop_
_space_group_symop_operation_xyz
x,y,z
-x,y,1/2-z
-x,-y,-z
x,-y,1/2+z
1/2+x,1/2+y,z
1/2-x,1/2+y,1/2-z
1/2-x,1/2-y,-z
1/2+x,1/2-y,1/2+z
loop_
_atom_site_type_symbol
_atom_site_label
_atom_site_fract_x
_atom_site_fract_y
_atom_site_fract_z
Si Si1 0.902480 0.393629 0.672000
Si Si2 0.266514 0.731810 0.666738
Si Si3 0.554077 0.809265 0.592177
Si Si4 0.535959 0.468424 0.113916
Si Si5 0.817293 0.385967 0.107547
Si Si6 0.798621 0.938399 0.962085
O O1 0.844424 0.294658 0.654823
O O2 0.921219 0.371544 0.798320
O O3 0.863587 0.517542 0.664357
O O4 0.978598 0.373072 0.579358
O O5 0.228193 0.701302 0.798031
O O6 0.216601 0.824104 0.612871
O O7 0.280199 0.610856 0.594222
O O8 0.536778 0.673070 0.618452
O O9 0.622010 0.819234 0.485282
O O10 0.500000 0.507503 0.250000
O O11 0.618947 0.517160 0.080827
O O12 0.500000 0.500000 0.000000
O O13 0.759142 0.460714 0.052370
#
# Coordination Sequence:
#
# PCOD9284582 Si02
#       6
#     8   8   8   8   8   8
#     4  10  21  41  62  85 138 168 213 275 343 385
#     4  10  22  42  62  92 128 169 218 284 326 396
#     4  11  23  41  63  97 131 176 220 280 337 400
#     4  12  27  45  71 100 137 181 224 280 342 404
#     4  11  23  37  68  96 123 175 228 270 335 406
#     4  10  24  41  65  91 131 170 222 274 339 393
#
# _framework density 19.937985000000001
#
# number of rings (size 3 to 8) (size 9 to 14) (size 15 to 20)
#    0.000    1.333    1.667    3.500    4.667    4.000 
#    0.000    3.333    0.000    0.000    0.000    0.000 
#    0.000    0.000    0.000    0.000    0.000    0.000 
#
# Total GULP energy -134046.261484 kJ/mol
# GULP energy per Si atom -5585.260895 kJ/mol
# Density = 1.989261 g / cm^3
# Si number density = 19.937985 Si / 1000 Ang^3
#
#
#
# Elastic Constant Matrix: (Units=GPa)
#
#
# Indices 1 2 3 4 5 6 
#
# 1 124.6085 22.3506 31.4366 0.0000 -6.2210 0.0000
# 2 22.3506 39.0620 11.4883 0.0000 -3.6408 0.0000
# 3 31.4366 11.4883 101.0240 0.0000 -17.7939 0.0000
# 4 0.0000 0.0000 0.0000 28.2759 0.0000 -8.5082
# 5 -6.2210 -3.6408 -17.7939 0.0000 30.2444 0.0000
# 6 0.0000 0.0000 0.0000 -8.5082 0.0000 11.3705
#
#
#
# Elastic Compliance Matrix: (Units=1/GPa)
#
#
# Indices 1 2 3 4 5 6 
#
# 1 0.009480 -0.004716 -0.002421 0.000000 -0.000042 0.000000
# 2 -0.004716 0.028900 -0.001536 0.000000 0.001605 0.000000
# 3 -0.002421 -0.001536 0.011944 0.000000 0.006344 0.000000
# 4 0.000000 0.000000 0.000000 0.045642 0.000000 0.034153
# 5 -0.000042 0.001605 0.006344 0.000000 0.036981 0.000000
# 6 0.000000 0.000000 0.000000 0.034153 0.000000 0.113502
#
#
# Mechanical properties :
#
#
# Convention : Reuss Voigt Hill
#
# Bulk Modulus (GPa) = 30.32374 43.91615 37.11994
# Shear Modulus (GPa) = 18.19582 27.27276 22.73429
#
# Velocity S-wave (km/s) = 3.02424 3.70250 3.38042
# Velocity P-wave (km/s) = 5.23801 6.35234 5.82189
#
# Compressibility (1/GPa) = 0.03297746
#
# Stress axis : x y z
#
# Youngs Moduli (GPa) = 105.48849 34.60189 83.72293
#
# Poissons Ratio (x) = 0.16318 0.20270
# Poissons Ratio (y) = 0.49749 0.12862
# Poissons Ratio (z) = 0.25539 0.05316
#
# Static dielectric constant tensor:
#      x y z
#    x 1.704770 0.000000 0.021720 
#    y 0.000000 1.675290 0.000000 
#    z 0.021720 0.000000 1.724620 
# 
# From -- ./inp_files/103675.got.cif
#   From: 2010.05.17/outbox.cif.g08.bks.cpg/sg15_52_cif.got.tgz:103675.got - 2010.06.03 18:47:42.
