data_PCOD9284086
_publ_section_title
;
Structure prediction by ZEFSAII (Michael W. Deem and Ramdas Pophale) SiO2 
 PCOD9284086
Probable space group: C 2/C
;
_chemical_formula_sum "Si O2"
_cell_formula_units_Z 52
_cell_length_a 26.288979
_cell_length_b 12.455242
_cell_length_c 12.095697
_cell_angle_alpha 90.000000
_cell_angle_beta 139.990063
_cell_angle_gamma 90.000000
_cell_volume 2546.326172
_symmetry_space_group_name_H-M "C 2/C"
_symmetry_group_IT_number 15
_symmetry_cell_setting 'monoclinic'
loop_
_space_group_symop_operation_xyz
x,y,z
-x,y,1/2-z
-x,-y,-z
x,-y,1/2+z
1/2+x,1/2+y,z
1/2-x,1/2+y,1/2-z
1/2-x,1/2-y,-z
1/2+x,1/2-y,1/2+z
loop_
_atom_site_type_symbol
_atom_site_label
_atom_site_fract_x
_atom_site_fract_y
_atom_site_fract_z
Si Si1 0.430668 0.240850 0.222158
Si Si2 0.035806 0.888022 0.011979
Si Si3 0.220151 0.116292 0.068018
Si Si4 0.695340 0.603403 0.630250
Si Si5 0.167738 0.667413 0.040114
Si Si6 0.317828 0.938407 0.518905
Si Si7 0.500000 0.257277 0.750000
O O1 0.500000 0.253689 0.250000
O O2 0.455042 0.300737 0.375379
O O3 0.402388 0.117177 0.179936
O O4 0.351397 0.301224 0.050361
O O5 0.122055 0.899439 0.095930
O O6 0.983820 0.835037 0.827588
O O7 0.000000 0.000000 0.000000
O O8 0.285705 0.143391 0.268963
O O9 0.261805 0.109134 0.019939
O O10 0.186051 0.999987 0.039589
O O11 0.695756 0.712117 0.560207
O O12 0.776505 0.592941 0.834292
O O13 0.180753 0.567820 0.980365
O O14 0.074555 0.683795 0.902411
#
# Coordination Sequence:
#
# PCOD9284086 Si02
#       7
#     8   8   8   8   8   8   4
#     4  12  25  42  69 100 134 174 227 279 332 401
#     4  11  24  41  68  99 136 173 218 283 340 391
#     4  11  22  42  70  95 130 172 226 278 332 397
#     4  10  21  40  66  95 129 172 216 276 333 389
#     4  10  23  41  65  94 133 177 216 268 332 398
#     4  11  22  42  66  94 130 176 223 270 325 407
#     4  10  24  44  62  94 144 174 218 280 332 406
#
# _framework density 20.421578
#
# number of rings (size 3 to 8) (size 9 to 14) (size 15 to 20)
#    0.000    1.231    3.077    3.231    6.462    0.615 
#    5.538    1.538    0.000    0.000    0.000    0.000 
#    0.000    0.000    0.000    0.000    0.000    0.000 
#
# Total GULP energy -145132.527007 kJ/mol
# GULP energy per Si atom -5582.020270 kJ/mol
# Density = 2.037510 g / cm^3
# Si number density = 20.421578 Si / 1000 Ang^3
#
#
#
# Elastic Constant Matrix: (Units=GPa)
#
#
# Indices 1 2 3 4 5 6 
#
# 1 84.2829 28.0993 25.1496 0.0000 7.6099 0.0000
# 2 28.0993 115.2669 19.9517 0.0000 2.5720 0.0000
# 3 25.1496 19.9517 79.6903 0.0000 0.2409 0.0000
# 4 0.0000 0.0000 0.0000 20.2349 0.0000 7.7842
# 5 7.6099 2.5720 0.2409 0.0000 13.1926 0.0000
# 6 0.0000 0.0000 0.0000 7.7842 0.0000 19.5651
#
#
#
# Elastic Compliance Matrix: (Units=1/GPa)
#
#
# Indices 1 2 3 4 5 6 
#
# 1 0.014649 -0.002718 -0.003919 0.000000 -0.007849 0.000000
# 2 -0.002718 0.009612 -0.001548 0.000000 -0.000278 0.000000
# 3 -0.003919 -0.001548 0.014166 0.000000 0.002304 0.000000
# 4 0.000000 0.000000 0.000000 0.058350 0.000000 -0.023215
# 5 -0.007849 -0.000278 0.002304 0.000000 0.080339 0.000000
# 6 0.000000 0.000000 0.000000 -0.023215 0.000000 0.060348
#
#
# Mechanical properties :
#
#
# Convention : Reuss Voigt Hill
#
# Bulk Modulus (GPa) = 45.33538 47.29348 46.31443
# Shear Modulus (GPa) = 19.14340 24.33449 21.73894
#
# Velocity S-wave (km/s) = 3.06504 3.45571 3.26622
# Velocity P-wave (km/s) = 5.89694 6.25551 6.07887
#
# Compressibility (1/GPa) = 0.02205783
#
# Stress axis : x y z
#
# Youngs Moduli (GPa) = 68.26466 104.03491 70.59164
#
# Poissons Ratio (x) = 0.28272 0.27665
# Poissons Ratio (y) = 0.18551 0.10928
# Poissons Ratio (z) = 0.26753 0.16105
#
# Static dielectric constant tensor:
#      x y z
#    x 1.698750 0.000000 0.020980 
#    y 0.000000 1.772490 0.000000 
#    z 0.020980 0.000000 1.745100 
# 
# From -- ./inp_files/126469.got.cif
#   From: 2010.05.17/outbox.cif.g08.bks.cpg/sg15_64_cif.got.tgz:126469.got - 2010.06.03 18:47:42.
