data_PCOD9284761
_publ_section_title
;
Structure prediction by ZEFSAII (Michael W. Deem and Ramdas Pophale) SiO2 
 PCOD9284761
Probable space group: C 2/C
;
_chemical_formula_sum "Si O2"
_cell_formula_units_Z 40
_cell_length_a 19.531357
_cell_length_b 14.623143
_cell_length_c 16.579144
_cell_angle_alpha 90.000000
_cell_angle_beta 25.190574
_cell_angle_gamma 90.000000
_cell_volume 2015.430920
_symmetry_space_group_name_H-M "C 2/C"
_symmetry_group_IT_number 15
_symmetry_cell_setting 'monoclinic'
loop_
_space_group_symop_operation_xyz
x,y,z
-x,y,1/2-z
-x,-y,-z
x,-y,1/2+z
1/2+x,1/2+y,z
1/2-x,1/2+y,1/2-z
1/2-x,1/2-y,-z
1/2+x,1/2-y,1/2+z
loop_
_atom_site_type_symbol
_atom_site_label
_atom_site_fract_x
_atom_site_fract_y
_atom_site_fract_z
Si Si1 0.162007 0.335626 0.789161
Si Si2 0.886627 0.206528 0.798338
Si Si3 0.637681 0.209498 0.804895
Si Si4 0.025061 0.043271 0.562019
Si Si5 0.044932 0.852551 0.612696
O O1 0.082656 0.291886 0.793985
O O2 0.266177 0.256831 0.723781
O O3 0.296001 0.411801 0.627855
O O4 0.008532 0.354793 0.009642
O O5 0.000000 0.175089 0.750000
O O6 0.897060 0.120909 0.725476
O O7 0.750000 0.250000 0.000000
O O8 0.769190 0.161814 0.608840
O O9 0.556767 0.292388 0.841906
O O10 0.008176 0.958680 0.639926
O O11 0.000000 0.000000 0.500000
O O12 0.000000 0.822143 0.750000
#
# Coordination Sequence:
#
# PCOD9284761 Si02
#       5
#     8   8   8   8   8
#     4  11  20  40  66  95 131 178 224 269 340 412
#     4  12  23  40  68 100 139 178 224 282 349 400
#     4  10  21  41  64  90 127 180 219 270 339 408
#     4  12  23  41  68  97 133 176 231 277 331 414
#     4  11  23  39  65  92 129 170 225 278 337 396
#
# _framework density 19.846871
#
# number of rings (size 3 to 8) (size 9 to 14) (size 15 to 20)
#    0.000    0.800    6.000    2.400    0.000    0.800 
#    0.000    0.000    0.000    0.000    0.000    0.000 
#    0.000    0.000    0.000    0.000    0.000    0.000 
#
# Total GULP energy -111352.744898 kJ/mol
# GULP energy per Si atom -5567.637245 kJ/mol
# Density = 1.980170 g / cm^3
# Si number density = 19.846871 Si / 1000 Ang^3
#
#
#
# Elastic Constant Matrix: (Units=GPa)
#
#
# Indices 1 2 3 4 5 6 
#
# 1 78.1411 15.0065 15.5605 -0.0006 20.2971 0.0006
# 2 15.0065 73.5248 19.7882 -0.0010 3.9151 0.0010
# 3 15.5605 19.7882 123.3031 -0.0010 15.5500 0.0008
# 4 -0.0006 -0.0010 -0.0010 36.4594 0.0007 14.5738
# 5 20.2971 3.9151 15.5500 0.0007 24.6394 -0.0006
# 6 0.0006 0.0010 0.0008 14.5738 -0.0006 10.7390
#
#
#
# Elastic Compliance Matrix: (Units=1/GPa)
#
#
# Indices 1 2 3 4 5 6 
#
# 1 0.016802 -0.002717 0.000007 0.000002 -0.013414 -0.000004
# 2 -0.002717 0.014672 -0.002173 0.000001 0.001278 -0.000003
# 3 0.000007 -0.002173 0.009143 0.000001 -0.005431 -0.000003
# 4 0.000002 0.000001 0.000001 0.059947 -0.000007 -0.081354
# 5 -0.013414 0.001278 -0.005431 -0.000007 0.054860 0.000013
# 6 -0.000004 -0.000003 -0.000003 -0.081354 0.000013 0.203525
#
#
# Mechanical properties :
#
#
# Convention : Reuss Voigt Hill
#
# Bulk Modulus (GPa) = 32.41327 41.74215 37.07771
# Shear Modulus (GPa) = 13.19270 29.34179 21.26725
#
# Velocity S-wave (km/s) = 2.58102 3.84918 3.27703
# Velocity P-wave (km/s) = 5.02487 6.39005 5.74813
#
# Compressibility (1/GPa) = 0.03085156
#
# Stress axis : x y z
#
# Youngs Moduli (GPa) = 59.51713 68.15631 109.37575
#
# Poissons Ratio (x) = 0.18518 -0.00080
# Poissons Ratio (y) = 0.16171 0.23767
# Poissons Ratio (z) = -0.00044 0.14810
#
# Static dielectric constant tensor:
#      x y z
#    x 1.761700 0.000000 0.041210 
#    y 0.000000 1.672580 0.000000 
#    z 0.041210 0.000000 1.808230 
# 
# From -- ./inp_files/46675.got.cif
#   From: 2010.05.17/outbox.cif.g08.bks.cpg/sg15_24_cif.got.tgz:46675.got - 2010.06.03 18:47:42.
