data_PCOD9284156
_publ_section_title
;
Structure prediction by ZEFSAII (Michael W. Deem and Ramdas Pophale) SiO2 
 PCOD9284156
Probable space group: C 2/C
;
_chemical_formula_sum "Si O2"
_cell_formula_units_Z 40
_cell_length_a 16.488337
_cell_length_b 14.729504
_cell_length_c 11.819928
_cell_angle_alpha 90.000000
_cell_angle_beta 36.583753
_cell_angle_gamma 90.000000
_cell_volume 1710.897648
_symmetry_space_group_name_H-M "C 2/C"
_symmetry_group_IT_number 15
_symmetry_cell_setting 'monoclinic'
loop_
_space_group_symop_operation_xyz
x,y,z
-x,y,1/2-z
-x,-y,-z
x,-y,1/2+z
1/2+x,1/2+y,z
1/2-x,1/2+y,1/2-z
1/2-x,1/2-y,-z
1/2+x,1/2-y,1/2+z
loop_
_atom_site_type_symbol
_atom_site_label
_atom_site_fract_x
_atom_site_fract_y
_atom_site_fract_z
Si Si1 0.650542 0.029625 0.868558
Si Si2 0.885775 0.924229 0.956966
Si Si3 0.278252 0.600549 0.946323
Si Si4 0.721589 0.168557 0.246750
Si Si5 0.523755 0.682090 0.948780
O O1 0.721828 0.931058 0.800305
O O2 0.730464 0.087605 0.682244
O O3 0.672802 0.075796 0.964802
O O4 0.500000 0.000000 0.000000
O O5 0.000000 0.874166 0.750000
O O6 0.853019 0.014012 0.920089
O O7 0.961544 0.908154 0.991536
O O8 0.395577 0.658525 0.755293
O O9 0.205751 0.650173 0.130926
O O10 0.605294 0.236263 0.416896
O O11 0.870212 0.208389 0.099399
#
# Coordination Sequence:
#
# PCOD9284156 Si02
#       5
#     8   8   8   8   8
#     4  10  23  42  69  98 135 174 228 287 334 403
#     4  10  21  40  67  91 130 175 230 273 331 401
#     4  10  21  41  68  96 126 176 232 277 335 401
#     4  11  24  40  67  96 139 173 219 278 349 397
#     4  11  24  41  65  99 139 175 219 287 335 408
#
# _framework density 23.379539999999999
#
# number of rings (size 3 to 8) (size 9 to 14) (size 15 to 20)
#    0.000    1.600    0.000    4.800    5.600    8.800 
#    0.000    4.000    0.000    0.000    0.000    0.000 
#    0.000    0.000    0.000    0.000    0.000    0.000 
#
# Total GULP energy -111364.854281 kJ/mol
# GULP energy per Si atom -5568.242714 kJ/mol
# Density = 2.332633 g / cm^3
# Si number density = 23.379540 Si / 1000 Ang^3
#
#
#
# Elastic Constant Matrix: (Units=GPa)
#
#
# Indices 1 2 3 4 5 6 
#
# 1 100.5436 35.1180 57.7465 0.0000 -32.5991 0.0000
# 2 35.1180 49.0317 27.4949 0.0000 -1.4374 0.0000
# 3 57.7465 27.4949 99.5471 0.0000 -23.6417 0.0000
# 4 0.0000 0.0000 0.0000 27.0558 0.0000 -0.3627
# 5 -32.5991 -1.4374 -23.6417 0.0000 41.1482 0.0000
# 6 0.0000 0.0000 0.0000 -0.3627 0.0000 25.7300
#
#
#
# Elastic Compliance Matrix: (Units=1/GPa)
#
#
# Indices 1 2 3 4 5 6 
#
# 1 0.022097 -0.011874 -0.006346 0.000000 0.013446 0.000000
# 2 -0.011874 0.030946 -0.004211 0.000000 -0.010746 0.000000
# 3 -0.006346 -0.004211 0.015819 0.000000 0.003915 0.000000
# 4 0.000000 0.000000 0.000000 0.036968 0.000000 0.000521
# 5 0.013446 -0.010746 0.003915 0.000000 0.036828 0.000000
# 6 0.000000 0.000000 0.000000 0.000521 0.000000 0.038873
#
#
# Mechanical properties :
#
#
# Convention : Reuss Voigt Hill
#
# Bulk Modulus (GPa) = 41.66537 54.42682 48.04609
# Shear Modulus (GPa) = 21.33159 27.37097 24.35128
#
# Velocity S-wave (km/s) = 3.02388 3.42530 3.23083
# Velocity P-wave (km/s) = 5.48195 6.24290 5.87476
#
# Compressibility (1/GPa) = 0.02400075
#
# Stress axis : x y z
#
# Youngs Moduli (GPa) = 45.25406 32.31420 63.21362
#
# Poissons Ratio (x) = 0.38371 0.40113
# Poissons Ratio (y) = 0.53736 0.26620
# Poissons Ratio (z) = 0.28716 0.13608
#
# Static dielectric constant tensor:
#      x y z
#    x 1.857400 0.000000 -0.016230 
#    y 0.000000 1.950290 0.000000 
#    z -0.016230 0.000000 1.943860 
# 
# From -- ./inp_files/98082.got.cif
#   From: 2010.05.17/outbox.cif.g08.bks.cpg/sg15_50_cif.got.tgz:98082.got - 2010.06.03 18:47:42.
