data_PCOD9284229
_publ_section_title
;
Structure prediction by ZEFSAII (Michael W. Deem and Ramdas Pophale) SiO2 
 PCOD9284229
Probable space group: C 2/C
;
_chemical_formula_sum "Si O2"
_cell_formula_units_Z 48
_cell_length_a 16.423557
_cell_length_b 14.696352
_cell_length_c 17.851850
_cell_angle_alpha 90.000000
_cell_angle_beta 26.600883
_cell_angle_gamma 90.000000
_cell_volume 1929.379995
_symmetry_space_group_name_H-M "C 2/C"
_symmetry_group_IT_number 15
_symmetry_cell_setting 'monoclinic'
loop_
_space_group_symop_operation_xyz
x,y,z
-x,y,1/2-z
-x,-y,-z
x,-y,1/2+z
1/2+x,1/2+y,z
1/2-x,1/2+y,1/2-z
1/2-x,1/2-y,-z
1/2+x,1/2-y,1/2+z
loop_
_atom_site_type_symbol
_atom_site_label
_atom_site_fract_x
_atom_site_fract_y
_atom_site_fract_z
Si Si1 0.134011 0.878523 0.210946
Si Si2 0.514256 0.555480 0.148888
Si Si3 0.634345 0.054940 0.205008
Si Si4 0.128789 0.771629 0.463487
Si Si5 0.976798 0.706042 0.108464
Si Si6 0.503220 0.130629 0.836864
O O1 0.000000 0.883519 0.250000
O O2 0.045128 0.804772 0.338075
O O3 0.330670 0.839263 0.030969
O O4 0.139604 0.979927 0.240352
O O5 0.500000 0.574806 0.250000
O O6 0.696536 0.497647 0.973557
O O7 0.521598 0.646543 0.093495
O O8 0.500000 0.089097 0.250000
O O9 0.668747 0.137339 0.233422
O O10 0.525387 0.974513 0.337247
O O11 0.316169 0.817905 0.285044
O O12 0.042572 0.722201 0.463382
O O13 0.159188 0.689714 0.497105
O O14 0.500000 0.135347 0.750000
#
# Coordination Sequence:
#
# PCOD9284229 Si02
#       6
#     8   8   8   8   8   8
#     4  11  23  41  67  96 130 178 227 273 329 400
#     4  10  22  42  69  98 131 176 229 279 328 394
#     4  10  21  40  67  99 132 172 225 279 332 398
#     4  11  24  41  64  99 140 178 218 275 342 403
#     4  12  24  41  65  99 142 177 216 276 344 405
#     4  10  22  41  67  96 131 178 228 276 326 395
#
# _framework density 24.878458999999999
#
# number of rings (size 3 to 8) (size 9 to 14) (size 15 to 20)
#    0.000    1.333    0.000    6.000    0.000    5.333 
#    0.000    3.333    0.000    0.000    0.000    0.000 
#    0.000    0.000    0.000    0.000    0.000    0.000 
#
# Total GULP energy -134295.959636 kJ/mol
# GULP energy per Si atom -5595.664985 kJ/mol
# Density = 2.482183 g / cm^3
# Si number density = 24.878459 Si / 1000 Ang^3
#
#
#
# Elastic Constant Matrix: (Units=GPa)
#
#
# Indices 1 2 3 4 5 6 
#
# 1 67.5268 49.2810 28.5954 -0.0029 16.2028 0.0051
# 2 49.2810 169.3034 53.0046 0.0145 34.3051 -0.0907
# 3 28.5954 53.0046 122.0766 0.0136 14.3148 -0.2709
# 4 -0.0029 0.0145 0.0136 54.1514 -0.0038 -26.8119
# 5 16.2028 34.3051 14.3148 -0.0038 36.5710 0.0174
# 6 0.0051 -0.0907 -0.2709 -26.8119 0.0174 1245.8825
#
#
#
# Elastic Compliance Matrix: (Units=1/GPa)
#
#
# Indices 1 2 3 4 5 6 
#
# 1 0.019838 -0.004254 -0.002345 0.000002 -0.003881 -0.000001
# 2 -0.004254 0.008998 -0.002245 -0.000002 -0.005677 0.000000
# 3 -0.002345 -0.002245 0.009796 -0.000001 -0.000690 0.000002
# 4 0.000002 -0.000002 -0.000001 0.018666 0.000003 0.000402
# 5 -0.003881 -0.005677 -0.000690 0.000003 0.034659 -0.000001
# 6 -0.000001 0.000000 0.000002 0.000402 -0.000001 0.000811
#
#
# Mechanical properties :
#
#
# Convention : Reuss Voigt Hill
#
# Bulk Modulus (GPa) = 47.74358 68.96321 58.35339
# Shear Modulus (GPa) = 42.57647 282.52270 162.54958
#
# Velocity S-wave (km/s) = 4.14137 10.66807 8.09193
# Velocity P-wave (km/s) = 6.48848 13.39865 10.52673
#
# Compressibility (1/GPa) = 0.02094522
#
# Stress axis : x y z
#
# Youngs Moduli (GPa) = 50.40950 111.13783 102.07889
#
# Poissons Ratio (x) = 0.47277 0.23934
# Poissons Ratio (y) = 0.21444 0.22913
# Poissons Ratio (z) = 0.11819 0.24947
#
# Static dielectric constant tensor:
#      x y z
#    x 1.956700 0.000000 -0.033530 
#    y 0.000000 1.963880 0.000000 
#    z -0.033530 0.000000 2.118130 
# 
# From -- ./inp_files/211302.got.cif
#   From: 2010.05.17/outbox.cif.g08.bks.cpg/sg15_106_cif.got.tgz:211302.got - 2010.06.03 18:47:42.
