data_PCOD9284415
_publ_section_title
;
Structure prediction by ZEFSAII (Michael W. Deem and Ramdas Pophale) SiO2 
 PCOD9284415
Probable space group: C 2/C
;
_chemical_formula_sum "Si O2"
_cell_formula_units_Z 64
_cell_length_a 23.668491
_cell_length_b 11.163415
_cell_length_c 11.225925
_cell_angle_alpha 90.000000
_cell_angle_beta 79.424985
_cell_angle_gamma 90.000000
_cell_volume 2915.748961
_symmetry_space_group_name_H-M "C 2/C"
_symmetry_group_IT_number 15
_symmetry_cell_setting 'monoclinic'
loop_
_space_group_symop_operation_xyz
x,y,z
-x,y,1/2-z
-x,-y,-z
x,-y,1/2+z
1/2+x,1/2+y,z
1/2-x,1/2+y,1/2-z
1/2-x,1/2-y,-z
1/2+x,1/2-y,1/2+z
loop_
_atom_site_type_symbol
_atom_site_label
_atom_site_fract_x
_atom_site_fract_y
_atom_site_fract_z
Si Si1 0.754698 0.774829 0.302752
Si Si2 0.364361 0.149245 0.716815
Si Si3 0.636734 0.871691 0.825716
Si Si4 0.548719 0.281464 0.966997
Si Si5 0.103170 0.963190 0.419662
Si Si6 0.573206 0.766800 0.072105
Si Si7 0.803825 0.899222 0.487753
Si Si8 0.084384 0.194312 0.692007
O O1 0.698752 0.794391 0.245327
O O2 0.808122 0.715462 0.213876
O O3 0.768709 0.895795 0.375393
O O4 0.734934 0.677140 0.408129
O O5 0.397515 0.197043 0.587182
O O6 0.403770 0.195036 0.809234
O O7 0.354028 0.009000 0.706245
O O8 0.591760 0.823386 0.745898
O O9 0.609024 0.845641 0.963912
O O10 0.566593 0.415246 0.920875
O O11 0.494514 0.223326 0.922838
O O12 0.534471 0.300304 0.113189
O O13 0.083478 0.872236 0.530969
O O14 0.092706 0.896431 0.298493
O O15 0.167822 0.997616 0.439838
O O16 0.861373 0.836351 0.414400
#
# Coordination Sequence:
#
# PCOD9284415 Si02
#       8
#     8   8   8   8   8   8   8   8
#     4  10  21  42  68 100 133 185 229 274 354 415
#     4  12  26  45  71  99 138 186 232 287 348 423
#     4  10  26  44  67 100 138 180 234 291 343 425
#     4  11  24  45  71 101 138 189 231 285 351 417
#     4  10  21  40  71 105 139 175 222 296 348 421
#     4  11  27  46  65 105 141 176 237 290 352 408
#     4   9  19  37  66  96 134 174 218 274 336 416
#     4   9  20  42  67 101 137 179 230 275 355 413
#
# _framework density 21.949763000000001
#
# number of rings (size 3 to 8) (size 9 to 14) (size 15 to 20)
#    0.000    1.750    2.500    0.750    5.250    7.000 
#    4.500    0.000    0.000    0.000    0.000    0.000 
#    0.000    0.000    0.000    0.000    0.000    0.000 
#
# Total GULP energy -178277.938820 kJ/mol
# GULP energy per Si atom -5571.185588 kJ/mol
# Density = 2.189980 g / cm^3
# Si number density = 21.949763 Si / 1000 Ang^3
#
#
#
# Elastic Constant Matrix: (Units=GPa)
#
#
# Indices 1 2 3 4 5 6 
#
# 1 116.1809 35.5095 37.3728 0.0000 17.6617 0.0000
# 2 35.5095 78.8404 43.4135 0.0000 6.7184 0.0000
# 3 37.3728 43.4135 84.1115 0.0000 14.1037 0.0000
# 4 0.0000 0.0000 0.0000 8.7512 0.0000 -0.2636
# 5 17.6617 6.7184 14.1037 0.0000 34.7261 0.0000
# 6 0.0000 0.0000 0.0000 -0.2636 0.0000 24.5787
#
#
#
# Elastic Compliance Matrix: (Units=1/GPa)
#
#
# Indices 1 2 3 4 5 6 
#
# 1 0.011015 -0.003205 -0.002580 0.000000 -0.003934 0.000000
# 2 -0.003205 0.018656 -0.008448 0.000000 0.001452 0.000000
# 3 -0.002580 -0.008448 0.018137 0.000000 -0.004419 0.000000
# 4 0.000000 0.000000 0.000000 0.114308 0.000000 0.001226
# 5 -0.003934 0.001452 -0.004419 0.000000 0.032312 0.000000
# 6 0.000000 0.000000 0.000000 0.001226 0.000000 0.040699
#
#
# Mechanical properties :
#
#
# Convention : Reuss Voigt Hill
#
# Bulk Modulus (GPa) = 51.70543 56.85827 54.28185
# Shear Modulus (GPa) = 18.51577 24.46699 21.49138
#
# Velocity S-wave (km/s) = 2.90755 3.34231 3.13248
# Velocity P-wave (km/s) = 5.90586 6.39177 6.15361
#
# Compressibility (1/GPa) = 0.01934033
#
# Stress axis : x y z
#
# Youngs Moduli (GPa) = 90.78580 53.60270 55.13557
#
# Poissons Ratio (x) = 0.17180 0.14227
# Poissons Ratio (y) = 0.29097 0.46581
# Poissons Ratio (z) = 0.23425 0.45286
#
# Static dielectric constant tensor:
#      x y z
#    x 1.916840 0.000000 0.053300 
#    y 0.000000 1.795510 0.000000 
#    z 0.053300 0.000000 1.848230 
# 
# From -- ./inp_files/117570.got.cif
#   From: 2010.05.17/outbox.cif.g08.bks.cpg/sg15_59_cif.got.tgz:117570.got - 2010.06.03 18:47:42.
