data_PCOD9284970
_publ_section_title
;
Structure prediction by ZEFSAII (Michael W. Deem and Ramdas Pophale) SiO2 
 PCOD9284970
Probable space group: C 2/C
;
_chemical_formula_sum "Si O2"
_cell_formula_units_Z 32
_cell_length_a 21.481488
_cell_length_b 7.362569
_cell_length_c 13.653220
_cell_angle_alpha 90.000000
_cell_angle_beta 142.358811
_cell_angle_gamma 90.000000
_cell_volume 1318.764078
_symmetry_space_group_name_H-M "C 2/C"
_symmetry_group_IT_number 15
_symmetry_cell_setting 'monoclinic'
loop_
_space_group_symop_operation_xyz
x,y,z
-x,y,1/2-z
-x,-y,-z
x,-y,1/2+z
1/2+x,1/2+y,z
1/2-x,1/2+y,1/2-z
1/2-x,1/2-y,-z
1/2+x,1/2-y,1/2+z
loop_
_atom_site_type_symbol
_atom_site_label
_atom_site_fract_x
_atom_site_fract_y
_atom_site_fract_z
Si Si1 0.317203 0.785570 0.180759
Si Si2 0.965434 0.140173 0.041071
Si Si3 0.793338 0.891525 0.194227
Si Si4 0.332569 0.592606 0.512550
O O1 0.439362 0.771543 0.318423
O O2 0.291940 0.606803 0.213477
O O3 0.269694 0.979860 0.145941
O O4 0.250000 0.750000 0.000000
O O5 0.865588 0.210730 0.860917
O O6 0.922737 0.024494 0.078726
O O7 0.000000 0.000000 0.000000
O O8 0.684331 0.793775 0.051110
O O9 0.836790 0.886307 0.135808
#
# Coordination Sequence:
#
# PCOD9284970 Si02
#       4
#     8   8   8   8
#     4   9  20  39  61  92 127 164 214 261 326 372
#     4  10  22  37  64  98 125 168 216 264 325 381
#     4   9  21  39  62  96 123 175 214 256 330 375
#     4  10  21  41  66  87 139 167 211 274 311 396
#
# _framework density 24.265142000000001
#
# number of rings (size 3 to 8) (size 9 to 14) (size 15 to 20)
#    0.000    2.500    0.000    0.000    7.000   10.000 
#    0.000    5.000    0.000   27.000    0.000    0.000 
#    0.000    0.000    0.000    0.000    0.000    0.000 
#
# Total GULP energy -89115.482188 kJ/mol
# GULP energy per Si atom -5569.717637 kJ/mol
# Density = 2.420991 g / cm^3
# Si number density = 24.265142 Si / 1000 Ang^3
#
#
#
# Elastic Constant Matrix: (Units=GPa)
#
#
# Indices 1 2 3 4 5 6 
#
# 1 119.1925 16.4528 53.8020 0.0000 3.2441 0.0000
# 2 16.4528 51.6497 35.2451 0.0000 3.4014 0.0000
# 3 53.8020 35.2451 164.6412 0.0000 -1.0321 0.0000
# 4 0.0000 0.0000 0.0000 38.4299 0.0000 4.1588
# 5 3.2441 3.4014 -1.0321 0.0000 27.6246 0.0000
# 6 0.0000 0.0000 0.0000 4.1588 0.0000 37.4631
#
#
#
# Elastic Compliance Matrix: (Units=1/GPa)
#
#
# Indices 1 2 3 4 5 6 
#
# 1 0.009932 -0.001017 -0.003035 0.000000 -0.001155 0.000000
# 2 -0.001017 0.023024 -0.004615 0.000000 -0.002888 0.000000
# 3 -0.003035 -0.004615 0.008061 0.000000 0.001226 0.000000
# 4 0.000000 0.000000 0.000000 0.026338 0.000000 -0.002924
# 5 -0.001155 -0.002888 0.001226 0.000000 0.036737 0.000000
# 6 0.000000 0.000000 0.000000 -0.002924 0.000000 0.027018
#
#
# Mechanical properties :
#
#
# Convention : Reuss Voigt Hill
#
# Bulk Modulus (GPa) = 42.22216 60.72034 51.47125
# Shear Modulus (GPa) = 31.98233 36.03577 34.00905
#
# Velocity S-wave (km/s) = 3.63442 3.85786 3.74780
# Velocity P-wave (km/s) = 5.92031 6.70240 6.32346
#
# Compressibility (1/GPa) = 0.02368425
#
# Stress axis : x y z
#
# Youngs Moduli (GPa) = 100.68947 43.43248 124.05087
#
# Poissons Ratio (x) = 0.04415 0.37651
# Poissons Ratio (y) = 0.10235 0.57247
# Poissons Ratio (z) = 0.30560 0.20043
#
# Static dielectric constant tensor:
#      x y z
#    x 2.068160 0.000000 0.032950 
#    y 0.000000 2.017260 0.000000 
#    z 0.032950 0.000000 2.072390 
# 
# From -- ./inp_files/166545.got.cif
#   From: 2010.05.17/outbox.cif.g08.bks.cpg/sg15_84_cif.got.tgz:166545.got - 2010.06.03 18:47:42.
