data_PCOD9284638
_publ_section_title
;
Structure prediction by ZEFSAII (Michael W. Deem and Ramdas Pophale) SiO2 
 PCOD9284638
Probable space group: C 2/C
;
_chemical_formula_sum "Si O2"
_cell_formula_units_Z 40
_cell_length_a 5.111065
_cell_length_b 13.469649
_cell_length_c 30.285903
_cell_angle_alpha 90.000000
_cell_angle_beta 92.541296
_cell_angle_gamma 90.000000
_cell_volume 2082.959766
_symmetry_space_group_name_H-M "C 2/C"
_symmetry_group_IT_number 15
_symmetry_cell_setting 'monoclinic'
loop_
_space_group_symop_operation_xyz
x,y,z
-x,y,1/2-z
-x,-y,-z
x,-y,1/2+z
1/2+x,1/2+y,z
1/2-x,1/2+y,1/2-z
1/2-x,1/2-y,-z
1/2+x,1/2-y,1/2+z
loop_
_atom_site_type_symbol
_atom_site_label
_atom_site_fract_x
_atom_site_fract_y
_atom_site_fract_z
Si Si1 0.899019 0.230326 0.339698
Si Si2 0.738238 0.451128 0.719140
Si Si3 0.595480 0.675939 0.700807
Si Si4 0.029485 0.208218 0.056595
Si Si5 0.983286 0.384285 0.988702
O O1 0.663634 0.308730 0.330524
O O2 0.973418 0.220454 0.391142
O O3 0.158331 0.260195 0.314120
O O4 0.777091 0.128649 0.319759
O O5 0.500000 0.428285 0.750000
O O6 0.692506 0.562643 0.701890
O O7 0.000000 0.446718 0.750000
O O8 0.500000 0.700990 0.750000
O O9 0.289789 0.152622 0.042378
O O10 0.788791 0.144372 0.036247
O O11 0.013589 0.315338 0.032427
O O12 0.000000 0.500000 0.000000
#
# Coordination Sequence:
#
# PCOD9284638 Si02
#       5
#     8   8   8   8   8
#     4  12  23  38  61  87 119 151 194 251 291 334
#     4  11  23  38  57  82 113 153 197 235 283 345
#     4  11  23  39  58  83 116 157 195 233 289 345
#     4  10  23  38  59  93 115 147 202 237 287 364
#     4  10  21  41  63  83 120 158 186 238 301 354
#
# _framework density 19.203441999999999
#
# number of rings (size 3 to 8) (size 9 to 14) (size 15 to 20)
#    0.000    1.200    0.000    7.800    0.000    3.200 
#    0.000    0.000    0.000    0.000    0.000    0.000 
#    0.000    0.000    0.000    0.000    0.000    0.000 
#
# Total GULP energy -111830.684453 kJ/mol
# GULP energy per Si atom -5591.534223 kJ/mol
# Density = 1.915973 g / cm^3
# Si number density = 19.203442 Si / 1000 Ang^3
#
#
#
# Elastic Constant Matrix: (Units=GPa)
#
#
# Indices 1 2 3 4 5 6 
#
# 1 -116.9901 -59.8321 -123.4634 0.0000 -107.8057 0.0000
# 2 -59.8321 87.3364 5.8957 0.0000 -49.6580 0.0000
# 3 -123.4634 5.8957 18.4728 0.0000 -71.9851 0.0000
# 4 0.0000 0.0000 0.0000 15.8513 0.0000 8.7447
# 5 -107.8057 -49.6580 -71.9851 0.0000 -30.3476 0.0000
# 6 0.0000 0.0000 0.0000 8.7447 0.0000 23.6726
#
#
#
# Elastic Compliance Matrix: (Units=1/GPa)
#
#
# Indices 1 2 3 4 5 6 
#
# 1 0.006128 -0.002104 -0.002908 0.000000 -0.011428 0.000000
# 2 -0.002104 0.012119 -0.006451 0.000000 0.002945 0.000000
# 3 -0.002908 -0.006451 0.011534 0.000000 -0.006473 0.000000
# 4 0.000000 0.000000 0.000000 0.079233 0.000000 -0.029269
# 5 -0.011428 0.002945 -0.006473 0.000000 0.018181 0.000000
# 6 0.000000 0.000000 0.000000 -0.029269 0.000000 0.053055
#
#
# Mechanical properties :
#
#
# Convention : Reuss Voigt Hill
#
# Bulk Modulus (GPa) = 145.87400 -40.66448 52.60476
# Shear Modulus (GPa) = 24.33570 12.91650 18.62610
#
# Velocity S-wave (km/s) = 3.56372 2.59629 3.11776
# Velocity P-wave (km/s) = 9.64680 3.49770 6.35715
#
# Compressibility (1/GPa) = 0.00685523
#
# Stress axis : x y z
#
# Youngs Moduli (GPa) = 163.19690 82.51624 86.70113
#
# Poissons Ratio (x) = 0.17358 0.25210
# Poissons Ratio (y) = 0.34331 0.55932
# Poissons Ratio (z) = 0.47453 0.53233
#
# Static dielectric constant tensor:
#      x y z
#    x 1.677410 0.000000 -0.009800 
#    y 0.000000 1.676650 0.000000 
#    z -0.009800 0.000000 1.626580 
# 
# From -- ./inp_files/285176.got.cif
#   From: 2010.05.17/outbox.cif.g08.bks.cpg/sg15_143_cif.got.tgz:285176.got - 2010.06.03 18:47:42.
