data_PCOD9284596
_publ_section_title
;
Structure prediction by ZEFSAII (Michael W. Deem and Ramdas Pophale) SiO2 
 PCOD9284596
Probable space group: C 2/C
;
_chemical_formula_sum "Si O2"
_cell_formula_units_Z 60
_cell_length_a 11.730087
_cell_length_b 8.707624
_cell_length_c 26.639726
_cell_angle_alpha 90.000000
_cell_angle_beta 96.065800
_cell_angle_gamma 90.000000
_cell_volume 2705.778818
_symmetry_space_group_name_H-M "C 2/C"
_symmetry_group_IT_number 15
_symmetry_cell_setting 'monoclinic'
loop_
_space_group_symop_operation_xyz
x,y,z
-x,y,1/2-z
-x,-y,-z
x,-y,1/2+z
1/2+x,1/2+y,z
1/2-x,1/2+y,1/2-z
1/2-x,1/2-y,-z
1/2+x,1/2-y,1/2+z
loop_
_atom_site_type_symbol
_atom_site_label
_atom_site_fract_x
_atom_site_fract_y
_atom_site_fract_z
Si Si1 0.847825 0.667508 0.846098
Si Si2 0.904994 0.281883 0.155610
Si Si3 0.000000 0.838730 0.250000
Si Si4 0.824319 0.392957 0.522637
Si Si5 0.210719 0.055590 0.269597
Si Si6 0.148393 0.364027 0.820901
Si Si7 0.249045 0.308662 0.442579
Si Si8 0.572601 0.923684 0.568886
O O1 0.798836 0.557060 0.801213
O O2 0.738688 0.768119 0.859243
O O3 0.900639 0.551646 0.889147
O O4 0.960684 0.757770 0.833655
O O5 0.836307 0.177899 0.192092
O O6 0.882298 0.462473 0.165953
O O7 0.859831 0.260258 0.096311
O O8 0.963269 0.732910 0.200840
O O9 0.892810 0.949460 0.254359
O O10 0.750000 0.250000 0.500000
O O11 0.747020 0.509342 0.551153
O O12 0.877277 0.491659 0.478554
O O13 0.941580 0.369291 0.558975
O O14 0.276915 0.128450 0.226623
O O15 0.250000 0.250000 0.500000
O O16 0.353961 0.229011 0.419924
#
# Coordination Sequence:
#
# PCOD9284596 Si02
#       8
#     8   8   4   8   8   8   8   8
#     4  11  23  39  64  93 126 168 211 265 322 383
#     4  12  23  41  68  95 128 171 217 262 324 387
#     4  10  22  42  60  90 128 158 206 264 318 374
#     4  10  22  40  67  91 125 165 212 262 324 375
#     4  11  23  42  64  91 126 171 210 261 325 381
#     4  11  25  40  63  94 127 162 220 265 316 382
#     4  10  22  42  65  95 130 169 213 268 325 390
#     4  10  21  41  62  90 130 163 203 266 317 380
#
# _framework density 22.174761
#
# number of rings (size 3 to 8) (size 9 to 14) (size 15 to 20)
#    0.000    1.333    2.667    3.200    1.867    2.133 
#    0.000    2.667    0.000    0.000    0.000    0.000 
#    0.000    0.000    0.000    0.000    0.000    0.000 
#
# Total GULP energy -167541.517259 kJ/mol
# GULP energy per Si atom -5584.717242 kJ/mol
# Density = 2.212429 g / cm^3
# Si number density = 22.174761 Si / 1000 Ang^3
#
#
#
# Elastic Constant Matrix: (Units=GPa)
#
#
# Indices 1 2 3 4 5 6 
#
# 1 103.9914 46.4637 42.8090 0.0000 37.3509 0.0000
# 2 46.4637 100.4871 25.9224 0.0000 21.6468 0.0000
# 3 42.8090 25.9224 70.3324 0.0000 16.1169 0.0000
# 4 0.0000 0.0000 0.0000 41.0907 0.0000 1.6463
# 5 37.3509 21.6468 16.1169 0.0000 37.6840 0.0000
# 6 0.0000 0.0000 0.0000 1.6463 0.0000 43.5992
#
#
#
# Elastic Compliance Matrix: (Units=1/GPa)
#
#
# Indices 1 2 3 4 5 6 
#
# 1 0.019318 -0.004146 -0.007082 0.000000 -0.013737 0.000000
# 2 -0.004146 0.012841 -0.001619 0.000000 -0.002574 0.000000
# 3 -0.007082 -0.001619 0.019184 0.000000 -0.000255 0.000000
# 4 0.000000 0.000000 0.000000 0.024373 0.000000 -0.000920
# 5 -0.013737 -0.002574 -0.000255 0.000000 0.041739 0.000000
# 6 0.000000 0.000000 0.000000 -0.000920 0.000000 0.022971
#
#
# Mechanical properties :
#
#
# Convention : Reuss Voigt Hill
#
# Bulk Modulus (GPa) = 38.99004 56.13348 47.56176
# Shear Modulus (GPa) = 28.62517 35.11581 31.87049
#
# Velocity S-wave (km/s) = 3.59679 3.98376 3.79521
# Velocity P-wave (km/s) = 5.90512 6.82125 6.37965
#
# Compressibility (1/GPa) = 0.02564758
#
# Stress axis : x y z
#
# Youngs Moduli (GPa) = 51.76508 77.87615 52.12627
#
# Poissons Ratio (x) = 0.32289 0.36917
# Poissons Ratio (y) = 0.21463 0.08440
# Poissons Ratio (z) = 0.36662 0.12610
#
# Static dielectric constant tensor:
#      x y z
#    x 1.869510 0.000000 0.097790 
#    y 0.000000 1.853360 0.000000 
#    z 0.097790 0.000000 2.212310 
# 
# From -- ./inp_files/310022.got.cif
#   From: 2010.05.17/outbox.cif.g08.bks.cpg/sg15_156_cif.got.tgz:310022.got - 2010.06.03 18:47:42.
