data_PCOD9284812
_publ_section_title
;
Structure prediction by ZEFSAII (Michael W. Deem and Ramdas Pophale) SiO2 
 PCOD9284812
Probable space group: C 2/C
;
_chemical_formula_sum "Si O2"
_cell_formula_units_Z 56
_cell_length_a 13.671134
_cell_length_b 13.518734
_cell_length_c 27.023040
_cell_angle_alpha 90.000000
_cell_angle_beta 27.713506
_cell_angle_gamma 90.000000
_cell_volume 2322.603671
_symmetry_space_group_name_H-M "C 2/C"
_symmetry_group_IT_number 15
_symmetry_cell_setting 'monoclinic'
loop_
_space_group_symop_operation_xyz
x,y,z
-x,y,1/2-z
-x,-y,-z
x,-y,1/2+z
1/2+x,1/2+y,z
1/2-x,1/2+y,1/2-z
1/2-x,1/2-y,-z
1/2+x,1/2-y,1/2+z
loop_
_atom_site_type_symbol
_atom_site_label
_atom_site_fract_x
_atom_site_fract_y
_atom_site_fract_z
Si Si1 0.205532 0.687647 0.193801
Si Si2 0.656855 0.866751 0.119002
Si Si3 0.915837 0.864928 0.191599
Si Si4 0.524090 0.951052 0.082623
Si Si5 0.091197 0.308419 0.971848
Si Si6 0.205229 0.957600 0.349427
Si Si7 0.651232 0.160649 0.012964
O O1 0.152634 0.751490 0.266718
O O2 0.402534 0.744849 0.081518
O O3 0.268247 0.573586 0.171802
O O4 0.000000 0.690274 0.250000
O O5 0.664659 0.886113 0.057351
O O6 0.425754 0.905239 0.235814
O O7 0.813040 0.929671 0.084506
O O8 0.699838 0.753430 0.111551
O O9 0.723500 0.928189 0.299499
O O10 0.946900 0.904963 0.121571
O O11 0.147643 0.873847 0.110558
O O12 0.587325 0.914338 0.999930
O O13 0.572721 0.063031 0.075237
O O14 0.035575 0.309730 0.939480
O O15 0.750000 0.250000 0.000000
#
# Coordination Sequence:
#
# PCOD9284812 Si02
#       7
#     8   8   8   8   8   8   8
#     4  11  21  41  68  91 128 177 215 277 336 401
#     4  10  21  41  64  95 128 171 220 277 326 397
#     4  10  24  43  64  97 136 174 219 274 343 398
#     4  10  25  45  67  96 136 181 222 272 343 409
#     4  11  24  42  67  96 137 170 225 274 341 403
#     4  10  22  41  65  95 134 169 223 278 335 395
#     4  12  26  42  70 103 135 175 232 282 331 404
#
# _framework density 24.110869999999998
#
# number of rings (size 3 to 8) (size 9 to 14) (size 15 to 20)
#    0.000    1.429    2.857    1.714    8.000    0.571 
#    0.000    1.429    0.000    0.000    0.000    0.000 
#    0.000    0.000    0.000    0.000    0.000    0.000 
#
# Total GULP energy -156412.299231 kJ/mol
# GULP energy per Si atom -5586.153544 kJ/mol
# Density = 2.405599 g / cm^3
# Si number density = 24.110870 Si / 1000 Ang^3
#
#
#
# Elastic Constant Matrix: (Units=GPa)
#
#
# Indices 1 2 3 4 5 6 
#
# 1 88.6372 46.3765 -5.6616 0.0005 7.7393 -0.0004
# 2 46.3765 123.2889 28.3287 -0.0004 -14.7338 -0.0005
# 3 -5.6616 28.3287 48.5502 0.0028 -12.9166 -0.0029
# 4 0.0005 -0.0004 0.0028 29.4825 -0.0024 -8.5773
# 5 7.7393 -14.7338 -12.9166 -0.0024 20.4975 0.0001
# 6 -0.0004 -0.0005 -0.0029 -8.5773 0.0001 42.1528
#
#
#
# Elastic Compliance Matrix: (Units=1/GPa)
#
#
# Indices 1 2 3 4 5 6 
#
# 1 0.016858 -0.008502 0.004334 -0.000002 -0.009745 0.000000
# 2 -0.008502 0.013929 -0.006729 0.000002 0.008982 0.000000
# 3 0.004334 -0.006729 0.028001 -0.000001 0.011172 0.000002
# 4 -0.000002 0.000002 -0.000001 0.036053 0.000005 0.007336
# 5 -0.009745 0.008982 0.011172 0.000005 0.065962 0.000002
# 6 0.000000 0.000000 0.000002 0.007336 0.000002 0.025216
#
#
# Mechanical properties :
#
#
# Convention : Reuss Voigt Hill
#
# Bulk Modulus (GPa) = 27.03152 44.28484 35.65818
# Shear Modulus (GPa) = 22.71245 31.18873 26.95059
#
# Velocity S-wave (km/s) = 3.07253 3.60050 3.34695
# Velocity P-wave (km/s) = 4.88088 5.97427 5.45504
#
# Compressibility (1/GPa) = 0.03699384
#
# Stress axis : x y z
#
# Youngs Moduli (GPa) = 59.31939 71.79476 35.71267
#
# Poissons Ratio (x) = 0.61038 -0.15477
# Poissons Ratio (y) = 0.50432 0.24032
# Poissons Ratio (z) = -0.25708 0.48312
#
# Static dielectric constant tensor:
#      x y z
#    x 1.993630 0.000000 0.053780 
#    y 0.000000 1.907680 0.000000 
#    z 0.053780 0.000000 2.027670 
# 
# From -- ./inp_files/313728.got.cif
#   From: 2010.05.17/outbox.cif.g08.bks.cpg/sg15_157_cif.got.tgz:313728.got - 2010.06.03 18:47:42.
