data_PCOD9284133
_publ_section_title
;
Structure prediction by ZEFSAII (Michael W. Deem and Ramdas Pophale) SiO2 
 PCOD9284133
Probable space group: C 2/C
;
_chemical_formula_sum "Si O2"
_cell_formula_units_Z 44
_cell_length_a 15.885311
_cell_length_b 17.206745
_cell_length_c 7.606910
_cell_angle_alpha 90.000000
_cell_angle_beta 118.886377
_cell_angle_gamma 90.000000
_cell_volume 1820.531773
_symmetry_space_group_name_H-M "C 2/C"
_symmetry_group_IT_number 15
_symmetry_cell_setting 'monoclinic'
loop_
_space_group_symop_operation_xyz
x,y,z
-x,y,1/2-z
-x,-y,-z
x,-y,1/2+z
1/2+x,1/2+y,z
1/2-x,1/2+y,1/2-z
1/2-x,1/2-y,-z
1/2+x,1/2-y,1/2+z
loop_
_atom_site_type_symbol
_atom_site_label
_atom_site_fract_x
_atom_site_fract_y
_atom_site_fract_z
Si Si1 0.606441 0.228925 0.812560
Si Si2 0.295566 0.088148 0.451813
Si Si3 0.077677 0.899952 0.697152
Si Si4 0.393644 0.957831 0.719498
Si Si5 0.849114 0.288156 0.552185
Si Si6 0.000000 0.831975 0.250000
O O1 0.500000 0.197788 0.750000
O O2 0.600475 0.321140 0.831782
O O3 0.625254 0.220360 0.625253
O O4 0.685755 0.178709 0.993262
O O5 0.186747 0.068603 0.283936
O O6 0.382188 0.064832 0.409394
O O7 0.325123 0.032809 0.640634
O O8 0.035239 0.879533 0.459243
O O9 0.000000 0.941228 0.750000
O O10 0.500000 0.966487 0.750000
O O11 0.351669 0.879303 0.591326
O O12 0.750000 0.250000 0.500000
O O13 0.920711 0.231297 0.730789
#
# Coordination Sequence:
#
# PCOD9284133 Si02
#       6
#     8   8   8   8   8   4
#     4  10  21  40  67 103 137 175 224 286 345 409
#     4  12  25  43  66 102 137 187 232 273 352 415
#     4  10  24  43  73  98 139 181 232 293 338 414
#     4  12  24  42  67  97 141 181 224 287 347 417
#     4  11  23  40  72 102 134 175 225 288 342 416
#     4  10  22  44  66 110 134 174 234 286 356 398
#
# _framework density 24.168761
#
# number of rings (size 3 to 8) (size 9 to 14) (size 15 to 20)
#    0.000    1.091    0.909    6.000    7.636    0.000 
#    3.273    0.909    2.000    0.000    0.000    0.000 
#    0.000    0.000    0.000    0.000    0.000    0.000 
#
# Total GULP energy -122752.113146 kJ/mol
# GULP energy per Si atom -5579.641507 kJ/mol
# Density = 2.411375 g / cm^3
# Si number density = 24.168761 Si / 1000 Ang^3
#
#
#
# Elastic Constant Matrix: (Units=GPa)
#
#
# Indices 1 2 3 4 5 6 
#
# 1 149.1564 22.1207 42.6985 0.0000 25.8397 0.0000
# 2 22.1207 58.6410 17.1996 0.0000 11.5036 0.0000
# 3 42.6985 17.1996 70.9710 0.0000 13.8680 0.0000
# 4 0.0000 0.0000 0.0000 41.4851 0.0000 -2.3754
# 5 25.8397 11.5036 13.8680 0.0000 47.8263 0.0000
# 6 0.0000 0.0000 0.0000 -2.3754 0.0000 34.6742
#
#
#
# Elastic Compliance Matrix: (Units=1/GPa)
#
#
# Indices 1 2 3 4 5 6 
#
# 1 0.008674 -0.001410 -0.004269 0.000000 -0.003109 0.000000
# 2 -0.001410 0.019096 -0.003213 0.000000 -0.002900 0.000000
# 3 -0.004269 -0.003213 0.017847 0.000000 -0.002095 0.000000
# 4 0.000000 0.000000 0.000000 0.024200 0.000000 0.001658
# 5 -0.003109 -0.002900 -0.002095 0.000000 0.023894 0.000000
# 6 0.000000 0.000000 0.000000 0.001658 0.000000 0.028953
#
#
# Mechanical properties :
#
#
# Convention : Reuss Voigt Hill
#
# Bulk Modulus (GPa) = 35.92907 49.20067 42.56487
# Shear Modulus (GPa) = 33.39405 37.91375 35.65390
#
# Velocity S-wave (km/s) = 3.72116 3.96499 3.84501
# Velocity P-wave (km/s) = 5.77589 6.43140 6.11244
#
# Compressibility (1/GPa) = 0.02783262
#
# Stress axis : x y z
#
# Youngs Moduli (GPa) = 115.28214 52.36702 56.03167
#
# Poissons Ratio (x) = 0.07383 0.23923
# Poissons Ratio (y) = 0.16254 0.18003
# Poissons Ratio (z) = 0.49220 0.16825
#
# Static dielectric constant tensor:
#      x y z
#    x 1.772630 0.000000 -0.105010 
#    y 0.000000 2.411680 0.000000 
#    z -0.105010 0.000000 1.977260 
# 
# From -- ./inp_files/39765.got.cif
#   From: 2010.05.17/outbox.cif.g08.bks.cpg/sg15_20_cif.got.tgz:39765.got - 2010.06.03 18:47:42.
