data_PCOD9284575
_publ_section_title
;
Structure prediction by ZEFSAII (Michael W. Deem and Ramdas Pophale) SiO2 
 PCOD9284575
Probable space group: C 2/C
;
_chemical_formula_sum "Si O2"
_cell_formula_units_Z 64
_cell_length_a 13.781573
_cell_length_b 9.978649
_cell_length_c 25.937624
_cell_angle_alpha 90.000000
_cell_angle_beta 116.184010
_cell_angle_gamma 90.000000
_cell_volume 3200.942425
_symmetry_space_group_name_H-M "C 2/C"
_symmetry_group_IT_number 15
_symmetry_cell_setting 'monoclinic'
loop_
_space_group_symop_operation_xyz
x,y,z
-x,y,1/2-z
-x,-y,-z
x,-y,1/2+z
1/2+x,1/2+y,z
1/2-x,1/2+y,1/2-z
1/2-x,1/2-y,-z
1/2+x,1/2-y,1/2+z
loop_
_atom_site_type_symbol
_atom_site_label
_atom_site_fract_x
_atom_site_fract_y
_atom_site_fract_z
Si Si1 0.097607 0.589875 0.500540
Si Si2 0.748804 0.322388 0.118354
Si Si3 0.538923 0.351305 0.351061
Si Si4 0.997705 0.130373 0.963352
Si Si5 0.407284 0.050489 0.122697
Si Si6 0.228552 0.033186 0.387916
Si Si7 0.652678 0.006326 0.689065
Si Si8 0.702577 0.281145 0.227272
O O1 0.101489 0.563816 0.440752
O O2 0.209940 0.544801 0.552340
O O3 0.000000 0.500000 0.500000
O O4 0.068928 0.746421 0.501688
O O5 0.627042 0.325624 0.068916
O O6 0.813215 0.455865 0.120485
O O7 0.744031 0.305875 0.178782
O O8 0.798918 0.186928 0.106497
O O9 0.530019 0.386223 0.410404
O O10 0.589148 0.202960 0.356600
O O11 0.620407 0.457217 0.346273
O O12 0.418485 0.342169 0.299954
O O13 0.000000 0.000000 0.000000
O O14 0.524025 0.986953 0.163409
O O15 0.315038 0.032204 0.361646
O O16 0.715420 0.140704 0.717408
O O17 0.692649 0.878839 0.732168
#
# Coordination Sequence:
#
# PCOD9284575 Si02
#       8
#     8   8   8   8   8   8   8   8
#     4  11  20  39  59  83 122 158 188 235 287 342
#     4  10  22  39  57  85 117 150 191 240 283 339
#     4   9  22  40  56  84 118 150 190 237 287 345
#     4  10  22  38  56  82 119 155 191 233 281 337
#     4  10  22  38  60  86 118 153 192 233 291 347
#     4  11  22  38  61  86 118 154 193 236 288 344
#     4  10  21  41  62  83 113 155 190 240 294 340
#     4   9  21  42  60  80 117 148 191 244 289 339
#
# _framework density 19.994109999999999
#
# number of rings (size 3 to 8) (size 9 to 14) (size 15 to 20)
#    0.000    2.000    2.500    1.500    3.500    5.500 
#    2.250    5.000    0.000    0.000    0.000    0.000 
#    0.000    0.000    0.000    0.000    0.000    0.000 
#
# Total GULP energy -178683.846991 kJ/mol
# GULP energy per Si atom -5583.870218 kJ/mol
# Density = 1.994860 g / cm^3
# Si number density = 19.994110 Si / 1000 Ang^3
#
#
#
# Elastic Constant Matrix: (Units=GPa)
#
#
# Indices 1 2 3 4 5 6 
#
# 1 54.0490 23.7260 -15.6353 0.0000 10.4668 0.0000
# 2 23.7260 70.1104 19.5717 0.0000 7.8877 0.0000
# 3 -15.6353 19.5717 36.7402 0.0000 10.1886 0.0000
# 4 0.0000 0.0000 0.0000 31.6044 0.0000 4.5040
# 5 10.4668 7.8877 10.1886 0.0000 11.5005 0.0000
# 6 0.0000 0.0000 0.0000 4.5040 0.0000 33.0919
#
#
#
# Elastic Compliance Matrix: (Units=1/GPa)
#
#
# Indices 1 2 3 4 5 6 
#
# 1 0.111353 -0.052588 0.123958 0.000000 -0.175096 0.000000
# 2 -0.052588 0.041788 -0.066238 0.000000 0.077883 0.000000
# 3 0.123958 -0.066238 0.177569 0.000000 -0.224701 0.000000
# 4 0.000000 0.000000 0.000000 0.032267 0.000000 -0.004392
# 5 -0.175096 0.077883 -0.224701 0.000000 0.391964 0.000000
# 6 0.000000 0.000000 0.000000 -0.004392 0.000000 0.030817
#
#
# Mechanical properties :
#
#
# Convention : Reuss Voigt Hill
#
# Bulk Modulus (GPa) = 2.93277 24.02495 13.47886
# Shear Modulus (GPa) = 5.62334 24.12182 14.87258
#
# Velocity S-wave (km/s) = 1.67887 3.47716 2.73032
# Velocity P-wave (km/s) = 2.28651 5.30688 4.08602
#
# Compressibility (1/GPa) = 0.34097403
#
# Stress axis : x y z
#
# Youngs Moduli (GPa) = 8.98045 23.93022 5.63162
#
# Poissons Ratio (x) = 1.25844 -0.69809
# Poissons Ratio (y) = 0.47226 0.37303
# Poissons Ratio (z) = -1.11320 1.58510
#
# Static dielectric constant tensor:
#      x y z
#    x 1.695660 0.000000 -0.023850 
#    y 0.000000 1.720990 0.000000 
#    z -0.023850 0.000000 1.707410 
# 
# From -- ./inp_files/312923.got.cif
#   From: 2010.05.17/outbox.cif.g08.bks.cpg/sg15_157_cif.got.tgz:312923.got - 2010.06.03 18:47:42.
