data_PCOD9284395
_publ_section_title
;
Structure prediction by ZEFSAII (Michael W. Deem and Ramdas Pophale) SiO2 
 PCOD9284395
Probable space group: C 2/C
;
_chemical_formula_sum "Si O2"
_cell_formula_units_Z 40
_cell_length_a 8.835559
_cell_length_b 17.227929
_cell_length_c 14.834759
_cell_angle_alpha 90.000000
_cell_angle_beta 124.417733
_cell_angle_gamma 90.000000
_cell_volume 1862.812855
_symmetry_space_group_name_H-M "C 2/C"
_symmetry_group_IT_number 15
_symmetry_cell_setting 'monoclinic'
loop_
_space_group_symop_operation_xyz
x,y,z
-x,y,1/2-z
-x,-y,-z
x,-y,1/2+z
1/2+x,1/2+y,z
1/2-x,1/2+y,1/2-z
1/2-x,1/2-y,-z
1/2+x,1/2-y,1/2+z
loop_
_atom_site_type_symbol
_atom_site_label
_atom_site_fract_x
_atom_site_fract_y
_atom_site_fract_z
Si Si1 0.091858 0.441324 0.959330
Si Si2 0.971651 0.136155 0.639887
Si Si3 0.557145 0.216783 0.051415
Si Si4 0.106464 0.687091 0.875565
Si Si5 0.308328 0.540888 0.909939
O O1 0.148293 0.482029 0.884291
O O2 0.972307 0.363983 0.908622
O O3 0.284598 0.411135 0.065248
O O4 0.000000 0.500000 0.000000
O O5 0.000000 0.163747 0.750000
O O6 0.969250 0.210082 0.572512
O O7 0.140599 0.079206 0.668694
O O8 0.769743 0.239845 0.110529
O O9 0.490296 0.205398 0.925314
O O10 0.247576 0.617229 0.945986
O O11 0.000000 0.662781 0.750000
O O12 0.500000 0.500000 0.000000
#
# Coordination Sequence:
#
# PCOD9284395 Si02
#       5
#     8   8   8   8   8
#     4  11  21  39  66  91 130 166 210 275 342 380
#     4  10  23  42  66  91 126 178 226 263 324 397
#     4  10  22  39  66  94 129 172 220 276 311 392
#     4  10  21  40  70  94 132 179 218 263 334 395
#     4   9  20  39  66  91 126 168 215 269 333 389
#
# _framework density 21.472904
#
# number of rings (size 3 to 8) (size 9 to 14) (size 15 to 20)
#    0.000    2.000    2.000    0.600    5.600    0.000 
#    0.000    4.000   13.200    0.000    0.000    0.000 
#    0.000    0.000    0.000    0.000    0.000    0.000 
#
# Total GULP energy -111436.443325 kJ/mol
# GULP energy per Si atom -5571.822166 kJ/mol
# Density = 2.142403 g / cm^3
# Si number density = 21.472904 Si / 1000 Ang^3
#
#
#
# Elastic Constant Matrix: (Units=GPa)
#
#
# Indices 1 2 3 4 5 6 
#
# 1 131.0488 81.5427 34.5286 0.0000 -20.8215 0.0000
# 2 81.5427 146.6200 31.4089 0.0000 -10.9459 0.0000
# 3 34.5286 31.4089 61.9158 0.0000 -21.5918 0.0000
# 4 0.0000 0.0000 0.0000 -4.1975 0.0000 6.1805
# 5 -20.8215 -10.9459 -21.5918 0.0000 25.9661 0.0000
# 6 0.0000 0.0000 0.0000 6.1805 0.0000 70.2457
#
#
#
# Elastic Compliance Matrix: (Units=1/GPa)
#
#
# Indices 1 2 3 4 5 6 
#
# 1 0.013117 -0.006426 -0.001875 0.000000 0.006249 0.000000
# 2 -0.006426 0.010801 -0.002964 0.000000 -0.003065 0.000000
# 3 -0.001875 -0.002964 0.024986 0.000000 0.018023 0.000000
# 4 0.000000 0.000000 0.000000 -0.210911 0.000000 0.018557
# 5 0.006249 -0.003065 0.018023 0.000000 0.057218 0.000000
# 6 0.000000 0.000000 0.000000 0.018557 0.000000 0.012603
#
#
# Mechanical properties :
#
#
# Convention : Reuss Voigt Hill
#
# Bulk Modulus (GPa) = 37.92015 70.50500 54.21258
# Shear Modulus (GPa) = -82.14767 31.20982 -25.46892
#
# Velocity S-wave (km/s) = -6.19189 3.81655 -3.44771
# Velocity P-wave (km/s) = 5.78113 7.23375 3.07455
#
# Compressibility (1/GPa) = 0.02637120
#
# Stress axis : x y z
#
# Youngs Moduli (GPa) = 76.23965 92.58772 40.02311
#
# Poissons Ratio (x) = 0.59501 0.07506
# Poissons Ratio (y) = 0.48995 0.11863
# Poissons Ratio (z) = 0.14297 0.27442
#
# Static dielectric constant tensor:
#      x y z
#    x 1.846630 0.000000 0.002210 
#    y 0.000000 1.794830 0.000000 
#    z 0.002210 0.000000 1.806300 
# 
# From -- ./inp_files/134606.got.cif
#   From: 2010.05.17/outbox.cif.g08.bks.cpg/sg15_68_cif.got.tgz:134606.got - 2010.06.03 18:47:42.
