data_PCOD9284610
_publ_section_title
;
Structure prediction by ZEFSAII (Michael W. Deem and Ramdas Pophale) SiO2 
 PCOD9284610
Probable space group: C 2/C
;
_chemical_formula_sum "Si O2"
_cell_formula_units_Z 60
_cell_length_a 13.055175
_cell_length_b 8.788501
_cell_length_c 28.006428
_cell_angle_alpha 90.000000
_cell_angle_beta 131.135510
_cell_angle_gamma 90.000000
_cell_volume 2420.137645
_symmetry_space_group_name_H-M "C 2/C"
_symmetry_group_IT_number 15
_symmetry_cell_setting 'monoclinic'
loop_
_space_group_symop_operation_xyz
x,y,z
-x,y,1/2-z
-x,-y,-z
x,-y,1/2+z
1/2+x,1/2+y,z
1/2-x,1/2+y,1/2-z
1/2-x,1/2-y,-z
1/2+x,1/2-y,1/2+z
loop_
_atom_site_type_symbol
_atom_site_label
_atom_site_fract_x
_atom_site_fract_y
_atom_site_fract_z
Si Si1 0.049665 0.261231 0.627459
Si Si2 0.431578 0.473481 0.028162
Si Si3 0.279812 0.082818 0.756772
Si Si4 0.421676 0.239024 0.890754
Si Si5 0.500000 0.874556 0.250000
Si Si6 0.692392 0.919935 0.493341
Si Si7 0.310078 0.402274 0.686831
Si Si8 0.807351 0.146610 0.611570
O O1 0.147491 0.384127 0.632457
O O2 0.973590 0.187829 0.559867
O O3 0.168837 0.165062 0.690105
O O4 0.926382 0.253520 0.627473
O O5 0.500447 0.598126 0.085445
O O6 0.270399 0.489813 0.975799
O O7 0.500000 0.500000 0.000000
O O8 0.193563 0.955766 0.759013
O O9 0.348559 0.187786 0.819261
O O10 0.408720 0.038193 0.761829
O O11 0.309539 0.241214 0.897937
O O12 0.535556 0.115290 0.940444
O O13 0.610464 0.750758 0.303325
O O14 0.750000 0.750000 0.500000
O O15 0.742925 0.023284 0.553707
O O16 0.364438 0.536461 0.670603
#
# Coordination Sequence:
#
# PCOD9284610 Si02
#       8
#     8   8   8   8   4   8   8   8
#     4  10  23  40  64  93 129 168 217 262 326 399
#     4  10  23  41  63  93 126 169 216 270 329 386
#     4  10  23  41  64 102 124 171 222 263 325 395
#     4  10  22  40  65  91 127 166 218 271 322 394
#     4  10  22  38  66  90 128 176 210 268 320 390
#     4   9  20  36  64  87 117 163 215 262 310 392
#     4  10  22  39  64  89 132 165 217 264 324 388
#     4  10  21  41  62  92 126 171 205 269 337 374
#
# _framework density 24.791975999999998
#
# number of rings (size 3 to 8) (size 9 to 14) (size 15 to 20)
#    0.000    2.133    0.000    1.200   13.067    2.667 
#    9.600    1.333    0.000    0.000    0.000    0.000 
#    0.000    0.000    0.000    0.000    0.000    0.000 
#
# Total GULP energy -167032.880766 kJ/mol
# GULP energy per Si atom -5567.762692 kJ/mol
# Density = 2.473555 g / cm^3
# Si number density = 24.791976 Si / 1000 Ang^3
#
#
#
# Elastic Constant Matrix: (Units=GPa)
#
#
# Indices 1 2 3 4 5 6 
#
# 1 188.5794 -4.1947 33.3560 0.0000 19.5010 0.0000
# 2 -4.1947 28.8927 17.4669 0.0000 13.7688 0.0000
# 3 33.3560 17.4669 52.1580 0.0000 16.9423 0.0000
# 4 0.0000 0.0000 0.0000 50.6698 0.0000 10.8340
# 5 19.5010 13.7688 16.9423 0.0000 41.7633 0.0000
# 6 0.0000 0.0000 0.0000 10.8340 0.0000 18.6977
#
#
#
# Elastic Compliance Matrix: (Units=1/GPa)
#
#
# Indices 1 2 3 4 5 6 
#
# 1 0.006619 0.005392 -0.005134 0.000000 -0.002786 0.000000
# 2 0.005392 0.051482 -0.016537 0.000000 -0.012782 0.000000
# 3 -0.005134 -0.016537 0.029306 0.000000 -0.004039 0.000000
# 4 0.000000 0.000000 0.000000 0.022526 0.000000 -0.013052
# 5 -0.002786 -0.012782 -0.004039 0.000000 0.031098 0.000000
# 6 0.000000 0.000000 0.000000 -0.013052 0.000000 0.061045
#
#
# Mechanical properties :
#
#
# Convention : Reuss Voigt Hill
#
# Bulk Modulus (GPa) = 18.23171 40.32071 29.27621
# Shear Modulus (GPa) = 19.76933 37.09296 28.43114
#
# Velocity S-wave (km/s) = 2.82691 3.87223 3.39010
# Velocity P-wave (km/s) = 4.24559 6.02421 5.21134
#
# Compressibility (1/GPa) = 0.05484950
#
# Stress axis : x y z
#
# Youngs Moduli (GPa) = 151.08323 19.42420 34.12302
#
# Poissons Ratio (x) = -0.10474 0.17518
# Poissons Ratio (y) = -0.81464 0.56429
# Poissons Ratio (z) = 0.77562 0.32122
#
# Static dielectric constant tensor:
#      x y z
#    x 1.957770 0.000000 -0.013660 
#    y 0.000000 2.159090 0.000000 
#    z -0.013660 0.000000 1.956970 
# 
# From -- ./inp_files/268787.got.cif
#   From: 2010.05.17/outbox.cif.g08.bks.cpg/sg15_135_cif.got.tgz:268787.got - 2010.06.03 18:47:42.
