data_PCOD9284966
_publ_section_title
;
Structure prediction by ZEFSAII (Michael W. Deem and Ramdas Pophale) SiO2 
 PCOD9284966
Probable space group: C 2/C
;
_chemical_formula_sum "Si O2"
_cell_formula_units_Z 56
_cell_length_a 7.960885
_cell_length_b 20.061553
_cell_length_c 14.412988
_cell_angle_alpha 90.000000
_cell_angle_beta 89.173670
_cell_angle_gamma 90.000000
_cell_volume 2301.626010
_symmetry_space_group_name_H-M "C 2/C"
_symmetry_group_IT_number 15
_symmetry_cell_setting 'monoclinic'
loop_
_space_group_symop_operation_xyz
x,y,z
-x,y,1/2-z
-x,-y,-z
x,-y,1/2+z
1/2+x,1/2+y,z
1/2-x,1/2+y,1/2-z
1/2-x,1/2-y,-z
1/2+x,1/2-y,1/2+z
loop_
_atom_site_type_symbol
_atom_site_label
_atom_site_fract_x
_atom_site_fract_y
_atom_site_fract_z
Si Si1 0.227298 0.874722 0.855334
Si Si2 0.425638 0.647844 0.495448
Si Si3 0.091401 0.937289 0.151778
Si Si4 0.928784 0.494846 0.896702
Si Si5 0.748553 0.419517 0.651842
Si Si6 0.432320 0.219007 0.472911
Si Si7 0.459805 0.867991 0.152173
O O1 0.211112 0.879556 0.745589
O O2 0.062603 0.851201 0.910612
O O3 0.266234 0.949555 0.891372
O O4 0.382788 0.828740 0.887985
O O5 0.482914 0.593364 0.569476
O O6 0.262837 0.625040 0.440306
O O7 0.440012 0.720035 0.542918
O O8 0.271186 0.898517 0.148564
O O9 0.000000 0.925836 0.250000
O O10 0.127452 0.016115 0.141842
O O11 0.071552 0.454158 0.841660
O O12 0.917295 0.568151 0.855548
O O13 0.000000 0.500000 0.000000
O O14 0.250000 0.250000 0.500000
O O15 0.482674 0.178030 0.563552
O O16 0.500000 0.834302 0.250000
#
# Coordination Sequence:
#
# PCOD9284966 Si02
#       7
#     8   8   8   8   8   8   8
#     4  11  20  41  65  90 126 168 208 261 318 375
#     4  11  23  43  65  92 128 171 214 253 321 384
#     4  11  22  41  62  95 130 164 201 271 324 367
#     4  11  21  40  66  93 130 163 205 269 326 367
#     4  11  24  37  65 103 125 162 215 266 315 384
#     4  10  21  41  66  83 126 173 209 250 319 380
#     4  11  22  39  66  94 119 163 220 257 313 381
#
# _framework density 24.330628000000001
#
# number of rings (size 3 to 8) (size 9 to 14) (size 15 to 20)
#    0.000    1.143    4.286    4.714    0.000    4.571 
#    0.000    2.143    0.000    0.000    0.000    0.000 
#    0.000    0.000    0.000    0.000    0.000    0.000 
#
# Total GULP energy -156872.429018 kJ/mol
# GULP energy per Si atom -5602.586751 kJ/mol
# Density = 2.427525 g / cm^3
# Si number density = 24.330628 Si / 1000 Ang^3
#
#
#
# Elastic Constant Matrix: (Units=GPa)
#
#
# Indices 1 2 3 4 5 6 
#
# 1 59.6643 17.9817 24.2868 0.0000 9.7721 0.0000
# 2 17.9817 119.0810 50.6983 0.0000 15.9490 0.0000
# 3 24.2868 50.6983 165.9240 0.0000 26.2297 0.0000
# 4 0.0000 0.0000 0.0000 17.6252 0.0000 -7.3516
# 5 9.7721 15.9490 26.2297 0.0000 42.9257 0.0000
# 6 0.0000 0.0000 0.0000 -7.3516 0.0000 12.6548
#
#
#
# Elastic Compliance Matrix: (Units=1/GPa)
#
#
# Indices 1 2 3 4 5 6 
#
# 1 0.018401 -0.001687 -0.001788 0.000000 -0.002470 0.000000
# 2 -0.001687 0.009962 -0.002516 0.000000 -0.001780 0.000000
# 3 -0.001788 -0.002516 0.007577 0.000000 -0.003288 0.000000
# 4 0.000000 0.000000 0.000000 0.074882 0.000000 0.043501
# 5 -0.002470 -0.001780 -0.003288 0.000000 0.026529 0.000000
# 6 0.000000 0.000000 0.000000 0.043501 0.000000 0.104293
#
#
# Mechanical properties :
#
#
# Convention : Reuss Voigt Hill
#
# Bulk Modulus (GPa) = 41.73617 58.95588 50.34603
# Shear Modulus (GPa) = 19.11246 31.42131 25.26689
#
# Velocity S-wave (km/s) = 2.80577 3.59755 3.22604
# Velocity P-wave (km/s) = 5.26189 6.44517 5.88335
#
# Compressibility (1/GPa) = 0.02396003
#
# Stress axis : x y z
#
# Youngs Moduli (GPa) = 54.34491 100.38400 131.97928
#
# Poissons Ratio (x) = 0.16932 0.23592
# Poissons Ratio (y) = 0.09167 0.33200
# Poissons Ratio (z) = 0.09714 0.25252
#
# Static dielectric constant tensor:
#      x y z
#    x 2.042960 0.000000 -0.009030 
#    y 0.000000 1.977880 0.000000 
#    z -0.009030 0.000000 1.917620 
# 
# From -- ./inp_files/136443.got.cif
#   From: 2010.05.17/outbox.cif.g08.bks.cpg/sg15_69_cif.got.tgz:136443.got - 2010.06.03 18:47:42.
