data_PCOD9284563
_publ_section_title
;
Structure prediction by ZEFSAII (Michael W. Deem and Ramdas Pophale) SiO2 
 PCOD9284563
Probable space group: C 2/C
;
_chemical_formula_sum "Si O2"
_cell_formula_units_Z 60
_cell_length_a 23.664764
_cell_length_b 22.598057
_cell_length_c 8.328747
_cell_angle_alpha 90.000000
_cell_angle_beta 143.807631
_cell_angle_gamma 90.000000
_cell_volume 2630.095484
_symmetry_space_group_name_H-M "C 2/C"
_symmetry_group_IT_number 15
_symmetry_cell_setting 'monoclinic'
loop_
_space_group_symop_operation_xyz
x,y,z
-x,y,1/2-z
-x,-y,-z
x,-y,1/2+z
1/2+x,1/2+y,z
1/2-x,1/2+y,1/2-z
1/2-x,1/2-y,-z
1/2+x,1/2-y,1/2+z
loop_
_atom_site_type_symbol
_atom_site_label
_atom_site_fract_x
_atom_site_fract_y
_atom_site_fract_z
Si Si1 0.106295 0.927536 0.428115
Si Si2 0.869350 0.858657 0.534660
Si Si3 0.673131 0.859701 0.250193
Si Si4 0.385079 0.955833 0.629249
Si Si5 0.443665 0.910509 0.269009
Si Si6 0.185709 0.972779 0.287323
Si Si7 0.562232 0.680681 0.639136
Si Si8 0.000000 0.276203 0.750000
O O1 0.127717 0.962630 0.314655
O O2 0.115559 0.859990 0.393487
O O3 0.000000 0.936442 0.250000
O O4 0.175690 0.959351 0.712288
O O5 0.778759 0.842165 0.436652
O O6 0.857010 0.925322 0.437922
O O7 0.878918 0.818457 0.393761
O O8 0.965228 0.852383 0.858114
O O9 0.643593 0.872108 0.365290
O O10 0.652548 0.921665 0.111724
O O11 0.593661 0.814311 0.004370
O O12 0.297123 0.956014 0.552592
O O13 0.410298 0.023272 0.648837
O O14 0.476333 0.922233 0.910234
O O15 0.500000 0.882893 0.250000
O O16 0.528116 0.737885 0.657208
#
# Coordination Sequence:
#
# PCOD9284563 Si02
#       8
#     8   8   8   8   8   8   8   4
#     4  11  23  37  57  90 130 171 210 265 329 393
#     4   9  23  45  67  94 132 170 215 275 336 390
#     4  11  23  45  68  97 133 175 219 271 329 398
#     4  10  21  41  61  94 134 172 204 260 330 400
#     4  11  22  37  65  95 133 167 208 263 329 398
#     4  10  24  34  62  95 129 167 209 259 331 412
#     4  10  23  45  66  92 130 175 223 277 326 380
#     4  12  24  44  72  92 126 178 228 284 326 366
#
# _framework density 22.812860000000001
#
# number of rings (size 3 to 8) (size 9 to 14) (size 15 to 20)
#    0.000    1.600    2.000    2.000   11.200    1.067 
#    2.400    0.000    0.000    0.000    0.000    0.000 
#    0.000    0.000    0.000    0.000    0.000    0.000 
#
# Total GULP energy -167720.034205 kJ/mol
# GULP energy per Si atom -5590.667807 kJ/mol
# Density = 2.276094 g / cm^3
# Si number density = 22.812860 Si / 1000 Ang^3
#
#
#
# Elastic Constant Matrix: (Units=GPa)
#
#
# Indices 1 2 3 4 5 6 
#
# 1 201.6800 35.2418 23.1500 0.0000 19.5882 0.0000
# 2 35.2418 46.8622 12.0569 0.0000 1.6245 0.0000
# 3 23.1500 12.0569 33.3133 0.0000 10.6218 0.0000
# 4 0.0000 0.0000 0.0000 10.3393 0.0000 -0.3216
# 5 19.5882 1.6245 10.6218 0.0000 24.5961 0.0000
# 6 0.0000 0.0000 0.0000 -0.3216 0.0000 25.8649
#
#
#
# Elastic Compliance Matrix: (Units=1/GPa)
#
#
# Indices 1 2 3 4 5 6 
#
# 1 0.006257 -0.004166 -0.001553 0.000000 -0.004037 0.000000
# 2 -0.004166 0.026433 -0.008319 0.000000 0.005164 0.000000
# 3 -0.001553 -0.008319 0.038894 0.000000 -0.015010 0.000000
# 4 0.000000 0.000000 0.000000 0.096756 0.000000 0.001203
# 5 -0.004037 0.005164 -0.015010 0.000000 0.050013 0.000000
# 6 0.000000 0.000000 0.000000 0.001203 0.000000 0.038677
#
#
# Mechanical properties :
#
#
# Convention : Reuss Voigt Hill
#
# Bulk Modulus (GPa) = 22.98370 46.97257 34.97813
# Shear Modulus (GPa) = 16.68851 26.25384 21.47118
#
# Velocity S-wave (km/s) = 2.70763 3.39608 3.07121
# Velocity P-wave (km/s) = 4.45778 6.00107 5.28605
#
# Compressibility (1/GPa) = 0.04350909
#
# Stress axis : x y z
#
# Youngs Moduli (GPa) = 159.83084 37.83135 25.71103
#
# Poissons Ratio (x) = 0.15759 0.03993
# Poissons Ratio (y) = 0.66580 0.21388
# Poissons Ratio (z) = 0.24822 0.31470
#
# Static dielectric constant tensor:
#      x y z
#    x 1.918350 0.000000 -0.022570 
#    y 0.000000 1.821560 0.000000 
#    z -0.022570 0.000000 1.858750 
# 
# From -- ./inp_files/63951.got.cif
#   From: 2010.05.17/outbox.cif.g08.bks.cpg/sg15_32_cif.got.tgz:63951.got - 2010.06.03 18:47:42.
