data_PCOD9284553
_publ_section_title
;
Structure prediction by ZEFSAII (Michael W. Deem and Ramdas Pophale) SiO2 
 PCOD9284553
Probable space group: C 2/C
;
_chemical_formula_sum "Si O2"
_cell_formula_units_Z 56
_cell_length_a 11.365239
_cell_length_b 28.482603
_cell_length_c 8.482243
_cell_angle_alpha 90.000000
_cell_angle_beta 104.411537
_cell_angle_gamma 90.000000
_cell_volume 2659.398452
_symmetry_space_group_name_H-M "C 2/C"
_symmetry_group_IT_number 15
_symmetry_cell_setting 'monoclinic'
loop_
_space_group_symop_operation_xyz
x,y,z
-x,y,1/2-z
-x,-y,-z
x,-y,1/2+z
1/2+x,1/2+y,z
1/2-x,1/2+y,1/2-z
1/2-x,1/2-y,-z
1/2+x,1/2-y,1/2+z
loop_
_atom_site_type_symbol
_atom_site_label
_atom_site_fract_x
_atom_site_fract_y
_atom_site_fract_z
Si Si1 0.855495 0.714033 0.011759
Si Si2 0.500000 0.152472 0.250000
Si Si3 0.751775 0.538752 0.242007
Si Si4 0.067143 0.226616 0.424599
Si Si5 0.587083 0.528559 0.907374
Si Si6 0.400476 0.099153 0.500348
Si Si7 0.789053 0.682947 0.659486
Si Si8 0.000000 0.518024 0.750000
O O1 0.812250 0.681473 0.853253
O O2 0.972356 0.744949 0.001401
O O3 0.750000 0.750000 0.000000
O O4 0.885334 0.685544 0.179229
O O5 0.487486 0.122471 0.401714
O O6 0.669010 0.505157 0.323939
O O7 0.785340 0.582368 0.361336
O O8 0.879569 0.512696 0.243868
O O9 0.681109 0.552647 0.058928
O O10 0.145383 0.269114 0.375033
O O11 0.152239 0.191183 0.550909
O O12 0.000000 0.204243 0.250000
O O13 0.500000 0.554197 0.750000
O O14 0.500000 0.500000 0.000000
O O15 0.355693 0.138187 0.607199
O O16 0.462528 0.053859 0.598493
#
# Coordination Sequence:
#
# PCOD9284553 Si02
#       8
#     8   4   8   8   8   8   8   4
#     4  11  22  38  66  91 126 174 219 261 322 397
#     4  12  25  38  58 100 130 164 220 272 324 387
#     4  11  22  42  67  99 128 173 223 273 348 402
#     4   9  19  37  65  88 122 169 215 250 318 391
#     4   9  20  41  69  91 120 165 227 269 319 406
#     4  12  25  39  64  95 137 167 214 281 337 398
#     4  10  21  41  61  91 128 172 209 265 326 387
#     4  12  25  42  66  98 136 176 216 284 356 397
#
# _framework density 21.057395
#
# number of rings (size 3 to 8) (size 9 to 14) (size 15 to 20)
#    0.000    1.429    2.857    2.571    7.000    0.000 
#    0.000    2.143    0.000    1.714    0.000    0.000 
#    0.000    0.000    0.000    0.000    0.000    0.000 
#
# Total GULP energy -156279.573933 kJ/mol
# GULP energy per Si atom -5581.413355 kJ/mol
# Density = 2.100947 g / cm^3
# Si number density = 21.057395 Si / 1000 Ang^3
#
#
#
# Elastic Constant Matrix: (Units=GPa)
#
#
# Indices 1 2 3 4 5 6 
#
# 1 73.2318 6.7925 35.1893 0.0000 9.9340 0.0000
# 2 6.7925 43.1997 34.0476 0.0000 3.7593 0.0000
# 3 35.1893 34.0476 144.8945 0.0000 20.3570 0.0000
# 4 0.0000 0.0000 0.0000 116.9163 0.0000 -29.4405
# 5 9.9340 3.7593 20.3570 0.0000 34.2476 0.0000
# 6 0.0000 0.0000 0.0000 -29.4405 0.0000 8.7837
#
#
#
# Elastic Compliance Matrix: (Units=1/GPa)
#
#
# Indices 1 2 3 4 5 6 
#
# 1 0.015663 0.000585 -0.003594 0.000000 -0.002471 0.000000
# 2 0.000585 0.028459 -0.006947 0.000000 0.000836 0.000000
# 3 -0.003594 -0.006947 0.009987 0.000000 -0.004131 0.000000
# 4 0.000000 0.000000 0.000000 0.054824 0.000000 0.183755
# 5 -0.002471 0.000836 -0.004131 0.000000 0.032280 0.000000
# 6 0.000000 0.000000 0.000000 0.183755 0.000000 0.729741
#
#
# Mechanical properties :
#
#
# Convention : Reuss Voigt Hill
#
# Bulk Modulus (GPa) = 29.24212 45.93165 37.58689
# Shear Modulus (GPa) = 5.54161 44.34262 24.94211
#
# Velocity S-wave (km/s) = 1.62400 4.59388 3.44536
# Velocity P-wave (km/s) = 4.17535 7.07094 5.80654
#
# Compressibility (1/GPa) = 0.03419725
#
# Stress axis : x y z
#
# Youngs Moduli (GPa) = 63.84329 35.13873 100.12712
#
# Poissons Ratio (x) = -0.02056 0.35989
# Poissons Ratio (y) = -0.03735 0.69556
# Poissons Ratio (z) = 0.22947 0.24410
#
# Static dielectric constant tensor:
#      x y z
#    x 1.829920 0.000000 0.016860 
#    y 0.000000 1.733410 0.000000 
#    z 0.016860 0.000000 1.779830 
# 
# From -- ./inp_files/34368.got.cif
#   From: 2010.05.17/outbox.cif.g08.bks.cpg/sg15_18_cif.got.tgz:34368.got - 2010.06.03 18:47:42.
