data_PCOD9284701
_publ_section_title
;
Structure prediction by ZEFSAII (Michael W. Deem and Ramdas Pophale) SiO2 
 PCOD9284701
Probable space group: C 2/C
;
_chemical_formula_sum "Si O2"
_cell_formula_units_Z 48
_cell_length_a 8.020162
_cell_length_b 31.033256
_cell_length_c 13.279739
_cell_angle_alpha 90.000000
_cell_angle_beta 42.078423
_cell_angle_gamma 90.000000
_cell_volume 2214.981993
_symmetry_space_group_name_H-M "C 2/C"
_symmetry_group_IT_number 15
_symmetry_cell_setting 'monoclinic'
loop_
_space_group_symop_operation_xyz
x,y,z
-x,y,1/2-z
-x,-y,-z
x,-y,1/2+z
1/2+x,1/2+y,z
1/2-x,1/2+y,1/2-z
1/2-x,1/2-y,-z
1/2+x,1/2-y,1/2+z
loop_
_atom_site_type_symbol
_atom_site_label
_atom_site_fract_x
_atom_site_fract_y
_atom_site_fract_z
Si Si1 0.875729 0.206145 0.915715
Si Si2 0.508310 0.470450 0.866782
Si Si3 0.170204 0.886349 0.074569
Si Si4 0.766204 0.888774 0.076213
Si Si5 0.940489 0.472409 0.926013
Si Si6 0.240130 0.292766 0.074420
O O1 0.720776 0.162011 0.977026
O O2 0.000000 0.210149 0.750000
O O3 0.052270 0.202637 0.933100
O O4 0.750000 0.250000 0.000000
O O5 0.500000 0.473445 0.750000
O O6 0.805856 0.473721 0.752656
O O7 0.368113 0.426627 0.960377
O O8 0.327000 0.508122 0.988242
O O9 0.000000 0.891573 0.250000
O O10 0.975635 0.888442 0.069799
O O11 0.376505 0.922898 0.977947
O O12 0.500000 0.897857 0.250000
O O13 0.736265 0.842097 0.033972
O O14 0.000000 0.500000 0.000000
O O15 0.000000 0.287013 0.250000
O O16 0.250000 0.250000 0.000000
#
# Coordination Sequence:
#
# PCOD9284701 Si02
#       6
#     8   8   8   8   8   8
#     4  10  21  41  63  95 125 173 223 271 335 401
#     4  10  23  42  65  95 132 171 221 275 332 398
#     4  10  22  41  67  91 133 177 215 275 336 395
#     4  10  24  41  65  98 130 169 226 270 337 405
#     4  10  22  42  66  97 133 173 225 270 340 391
#     4  10  21  41  63  93 131 172 217 277 338 401
#
# _framework density 21.670604000000001
#
# number of rings (size 3 to 8) (size 9 to 14) (size 15 to 20)
#    0.000    2.000    0.000    2.500    7.000    3.333 
#    9.000    0.000    0.000    0.000    0.000    0.000 
#    0.000    0.000    0.000    0.000    0.000    0.000 
#
# Total GULP energy -133746.138893 kJ/mol
# GULP energy per Si atom -5572.755787 kJ/mol
# Density = 2.162128 g / cm^3
# Si number density = 21.670604 Si / 1000 Ang^3
#
#
#
# Elastic Constant Matrix: (Units=GPa)
#
#
# Indices 1 2 3 4 5 6 
#
# 1 52.6447 32.8274 27.2374 0.0000 -5.6687 0.0000
# 2 32.8274 209.3011 107.7142 0.0000 -8.7515 0.0000
# 3 27.2374 107.7142 129.3664 0.0000 -12.6975 0.0000
# 4 0.0000 0.0000 0.0000 49.3970 0.0000 -1.0798
# 5 -5.6687 -8.7515 -12.6975 0.0000 40.5586 0.0000
# 6 0.0000 0.0000 0.0000 -1.0798 0.0000 32.1531
#
#
#
# Elastic Compliance Matrix: (Units=1/GPa)
#
#
# Indices 1 2 3 4 5 6 
#
# 1 0.021836 -0.001879 -0.002861 0.000000 0.001751 0.000000
# 2 -0.001879 0.008528 -0.006758 0.000000 -0.000538 0.000000
# 3 -0.002861 -0.006758 0.014213 0.000000 0.002592 0.000000
# 4 0.000000 0.000000 0.000000 0.020259 0.000000 0.000680
# 5 0.001751 -0.000538 0.002592 0.000000 0.025596 0.000000
# 6 0.000000 0.000000 0.000000 0.000680 0.000000 0.031124
#
#
# Mechanical properties :
#
#
# Convention : Reuss Voigt Hill
#
# Bulk Modulus (GPa) = 46.33620 80.76335 63.54978
# Shear Modulus (GPa) = 32.95005 39.32396 36.13700
#
# Velocity S-wave (km/s) = 3.90358 4.26446 4.08801
# Velocity P-wave (km/s) = 6.46110 7.84838 7.18828
#
# Compressibility (1/GPa) = 0.02158140
#
# Stress axis : x y z
#
# Youngs Moduli (GPa) = 45.79639 117.26373 70.35672
#
# Poissons Ratio (x) = 0.22037 0.20128
# Poissons Ratio (y) = 0.08607 0.47544
# Poissons Ratio (z) = 0.13101 0.79242
#
# Static dielectric constant tensor:
#      x y z
#    x 1.909160 0.000000 -0.020140 
#    y 0.000000 1.991000 0.000000 
#    z -0.020140 0.000000 1.800570 
# 
# From -- ./inp_files/138891.got.cif
#   From: 2010.05.17/outbox.cif.g08.bks.cpg/sg15_70_cif.got.tgz:138891.got - 2010.06.03 18:47:42.
