data_PCOD9284833
_publ_section_title
;
Structure prediction by ZEFSAII (Michael W. Deem and Ramdas Pophale) SiO2 
 PCOD9284833
Probable space group: C 2/C
;
_chemical_formula_sum "Si O2"
_cell_formula_units_Z 44
_cell_length_a 5.376779
_cell_length_b 25.348803
_cell_length_c 12.976631
_cell_angle_alpha 90.000000
_cell_angle_beta 99.026884
_cell_angle_gamma 90.000000
_cell_volume 1746.743761
_symmetry_space_group_name_H-M "C 2/C"
_symmetry_group_IT_number 15
_symmetry_cell_setting 'monoclinic'
loop_
_space_group_symop_operation_xyz
x,y,z
-x,y,1/2-z
-x,-y,-z
x,-y,1/2+z
1/2+x,1/2+y,z
1/2-x,1/2+y,1/2-z
1/2-x,1/2-y,-z
1/2+x,1/2-y,1/2+z
loop_
_atom_site_type_symbol
_atom_site_label
_atom_site_fract_x
_atom_site_fract_y
_atom_site_fract_z
Si Si1 0.813055 0.605225 0.545863
Si Si2 0.919771 0.239453 0.373208
Si Si3 0.500000 0.163835 0.750000
Si Si4 0.532714 0.565741 0.138511
Si Si5 0.969386 0.501141 0.861549
Si Si6 0.447654 0.200540 0.415776
O O1 0.824569 0.631109 0.660115
O O2 0.549826 0.595944 0.470350
O O3 0.952856 0.548972 0.559539
O O4 0.940110 0.646620 0.477562
O O5 0.684442 0.201441 0.357611
O O6 0.855366 0.294985 0.314909
O O7 0.179093 0.214568 0.350357
O O8 0.994486 0.253379 0.496610
O O9 0.500000 0.592442 0.250000
O O10 0.809582 0.542725 0.135691
O O11 0.312661 0.520343 0.137819
O O12 0.000000 0.526164 0.750000
#
# Coordination Sequence:
#
# PCOD9284833 Si02
#       6
#     8   8   4   8   8   8
#     4  11  21  40  69 104 130 177 234 280 321 413
#     4   9  19  40  56  89 122 168 202 271 343 381
#     4  10  22  40  72  98 138 168 234 288 340 396
#     4  10  23  41  65  93 142 184 217 272 338 398
#     4  10  21  41  64  98 140 177 217 276 342 390
#     4   9  20  36  62  83 127 165 214 260 327 398
#
# _framework density 25.189727000000001
#
# number of rings (size 3 to 8) (size 9 to 14) (size 15 to 20)
#    0.000    2.182    0.909    1.091    0.000    3.636 
#    1.636    9.091    0.000    0.000    0.000    0.000 
#    0.000    0.000    0.000    0.000    0.000    0.000 
#
# Total GULP energy -122820.894111 kJ/mol
# GULP energy per Si atom -5582.767914 kJ/mol
# Density = 2.513239 g / cm^3
# Si number density = 25.189727 Si / 1000 Ang^3
#
#
#
# Elastic Constant Matrix: (Units=GPa)
#
#
# Indices 1 2 3 4 5 6 
#
# 1 145.2634 31.5524 30.6431 0.0000 10.5838 0.0000
# 2 31.5524 63.4243 32.3128 0.0000 16.1145 0.0000
# 3 30.6431 32.3128 141.5328 0.0000 15.7621 0.0000
# 4 0.0000 0.0000 0.0000 49.5295 0.0000 1.6596
# 5 10.5838 16.1145 15.7621 0.0000 30.6887 0.0000
# 6 0.0000 0.0000 0.0000 1.6596 0.0000 5.9707
#
#
#
# Elastic Compliance Matrix: (Units=1/GPa)
#
#
# Indices 1 2 3 4 5 6 
#
# 1 0.007827 -0.003317 -0.000881 0.000000 -0.000505 0.000000
# 2 -0.003317 0.021155 -0.003184 0.000000 -0.008329 0.000000
# 3 -0.000881 -0.003184 0.008234 0.000000 -0.002253 0.000000
# 4 0.000000 0.000000 0.000000 0.020380 0.000000 -0.005665
# 5 -0.000505 -0.008329 -0.002253 0.000000 0.038291 0.000000
# 6 0.000000 0.000000 0.000000 -0.005665 0.000000 0.169059
#
#
# Mechanical properties :
#
#
# Convention : Reuss Voigt Hill
#
# Bulk Modulus (GPa) = 44.53793 59.91524 52.22658
# Shear Modulus (GPa) = 17.40983 34.28527 25.84755
#
# Velocity S-wave (km/s) = 2.63182 3.69329 3.20678
# Velocity P-wave (km/s) = 5.19179 6.48262 5.87278
#
# Compressibility (1/GPa) = 0.02245277
#
# Stress axis : x y z
#
# Youngs Moduli (GPa) = 127.76089 47.26951 121.44476
#
# Poissons Ratio (x) = 0.15677 0.10702
# Poissons Ratio (y) = 0.42372 0.38671
# Poissons Ratio (z) = 0.11258 0.15052
#
# Static dielectric constant tensor:
#      x y z
#    x 1.974170 0.000000 0.001850 
#    y 0.000000 1.987140 0.000000 
#    z 0.001850 0.000000 2.135070 
# 
# From -- ./inp_files/129882.got.cif
#   From: 2010.05.17/outbox.cif.g08.bks.cpg/sg15_65_cif.got.tgz:129882.got - 2010.06.03 18:47:42.
