data_PCOD9284280
_publ_section_title
;
Structure prediction by ZEFSAII (Michael W. Deem and Ramdas Pophale) SiO2 
 PCOD9284280
Probable space group: C 2/C
;
_chemical_formula_sum "Si O2"
_cell_formula_units_Z 40
_cell_length_a 8.545294
_cell_length_b 6.384404
_cell_length_c 30.234927
_cell_angle_alpha 90.000000
_cell_angle_beta 68.337742
_cell_angle_gamma 90.000000
_cell_volume 1533.019627
_symmetry_space_group_name_H-M "C 2/C"
_symmetry_group_IT_number 15
_symmetry_cell_setting 'monoclinic'
loop_
_space_group_symop_operation_xyz
x,y,z
-x,y,1/2-z
-x,-y,-z
x,-y,1/2+z
1/2+x,1/2+y,z
1/2-x,1/2+y,1/2-z
1/2-x,1/2-y,-z
1/2+x,1/2-y,1/2+z
loop_
_atom_site_type_symbol
_atom_site_label
_atom_site_fract_x
_atom_site_fract_y
_atom_site_fract_z
Si Si1 0.603571 0.699793 0.278229
Si Si2 0.375614 0.965954 0.554388
Si Si3 0.907801 0.103612 0.968027
Si Si4 0.284215 0.807680 0.144644
Si Si5 0.422313 0.860435 0.690794
O O1 0.500000 0.587029 0.250000
O O2 0.637934 0.649689 0.326600
O O3 0.512226 0.923144 0.294099
O O4 0.789701 0.741342 0.238334
O O5 0.453609 0.756941 0.567615
O O6 0.367571 0.163127 0.588258
O O7 0.500000 0.000000 0.500000
O O8 0.187861 0.944065 0.554484
O O9 0.750000 0.250000 0.000000
O O10 0.000000 0.000000 0.000000
O O11 0.313780 0.038253 0.162652
O O12 0.087412 0.763681 0.161063
#
# Coordination Sequence:
#
# PCOD9284280 Si02
#       5
#     8   8   8   8   8
#     4  10  22  38  67  95 135 178 220 282 346 407
#     4  10  21  41  70  97 141 182 231 284 341 404
#     4  10  21  40  68  95 128 179 225 276 336 389
#     4  10  22  41  67 101 140 178 236 276 349 409
#     4  10  23  40  68  91 140 169 232 275 352 401
#
# _framework density 26.092296000000001
#
# number of rings (size 3 to 8) (size 9 to 14) (size 15 to 20)
#    1.200    0.800    0.000    3.600    2.800    0.000 
#    0.000   12.000    4.400    0.000    0.000    0.000 
#    0.000    0.000    0.000    0.000    0.000    0.000 
#
# Total GULP energy -111494.678137 kJ/mol
# GULP energy per Si atom -5574.733907 kJ/mol
# Density = 2.603291 g / cm^3
# Si number density = 26.092296 Si / 1000 Ang^3
#
#
#
# Elastic Constant Matrix: (Units=GPa)
#
#
# Indices 1 2 3 4 5 6 
#
# 1 177.1722 61.6372 28.7324 0.0000 25.2939 0.0000
# 2 61.6372 53.9860 5.3638 0.0000 -4.8357 0.0000
# 3 28.7324 5.3638 109.7736 0.0000 3.9582 0.0000
# 4 0.0000 0.0000 0.0000 30.0503 0.0000 2.1925
# 5 25.2939 -4.8357 3.9582 0.0000 24.8382 0.0000
# 6 0.0000 0.0000 0.0000 2.1925 0.0000 65.0139
#
#
#
# Elastic Compliance Matrix: (Units=1/GPa)
#
#
# Indices 1 2 3 4 5 6 
#
# 1 0.015332 -0.018960 -0.002404 0.000000 -0.018921 0.000000
# 2 -0.018960 0.042424 0.001907 0.000000 0.027264 0.000000
# 3 -0.002404 0.001907 0.009599 0.000000 0.001290 0.000000
# 4 0.000000 0.000000 0.000000 0.033360 0.000000 -0.001125
# 5 -0.018921 0.027264 0.001290 0.000000 0.064631 0.000000
# 6 0.000000 0.000000 0.000000 -0.001125 0.000000 0.015419
#
#
# Mechanical properties :
#
#
# Convention : Reuss Voigt Hill
#
# Bulk Modulus (GPa) = 35.16343 59.15541 47.15942
# Shear Modulus (GPa) = 21.81882 40.32704 31.07293
#
# Velocity S-wave (km/s) = 2.89488 3.93562 3.45466
# Velocity P-wave (km/s) = 4.96785 6.58581 5.83320
#
# Compressibility (1/GPa) = 0.02843864
#
# Stress axis : x y z
#
# Youngs Moduli (GPa) = 65.22465 23.57179 104.17458
#
# Poissons Ratio (x) = 0.44693 0.25046
# Poissons Ratio (y) = 1.23669 -0.19864
# Poissons Ratio (z) = 0.15681 -0.04495
#
# Static dielectric constant tensor:
#      x y z
#    x 2.028610 0.000000 0.053270 
#    y 0.000000 2.472120 0.000000 
#    z 0.053270 0.000000 2.228210 
# 
# From -- ./inp_files/287020.got.cif
#   From: 2010.05.17/outbox.cif.g08.bks.cpg/sg15_144_cif.got.tgz:287020.got - 2010.06.03 18:47:42.
