data_PCOD9284014
_publ_section_title
;
Structure prediction by ZEFSAII (Michael W. Deem and Ramdas Pophale) SiO2 
 PCOD9284014
Probable space group: C 2/C
;
_chemical_formula_sum "Si O2"
_cell_formula_units_Z 40
_cell_length_a 14.566328
_cell_length_b 10.524858
_cell_length_c 20.154762
_cell_angle_alpha 90.000000
_cell_angle_beta 138.664874
_cell_angle_gamma 90.000000
_cell_volume 2040.759922
_symmetry_space_group_name_H-M "C 2/C"
_symmetry_group_IT_number 15
_symmetry_cell_setting 'monoclinic'
loop_
_space_group_symop_operation_xyz
x,y,z
-x,y,1/2-z
-x,-y,-z
x,-y,1/2+z
1/2+x,1/2+y,z
1/2-x,1/2+y,1/2-z
1/2-x,1/2-y,-z
1/2+x,1/2-y,1/2+z
loop_
_atom_site_type_symbol
_atom_site_label
_atom_site_fract_x
_atom_site_fract_y
_atom_site_fract_z
Si Si1 0.133050 0.827922 0.974520
Si Si2 0.333166 0.604611 0.856432
Si Si3 0.111326 0.094208 0.934164
Si Si4 0.183424 0.804573 0.680971
Si Si5 0.362130 0.809648 0.650506
O O1 0.980410 0.770992 0.906088
O O2 0.100736 0.948249 0.910374
O O3 0.250000 0.750000 0.000000
O O4 0.185130 0.880241 0.074496
O O5 0.496871 0.618713 0.928692
O O6 0.254468 0.719374 0.776660
O O7 0.700539 0.539271 0.188565
O O8 0.082839 0.187994 0.859092
O O9 0.265023 0.118379 0.045645
O O10 0.263200 0.768909 0.656798
O O11 0.500000 0.881622 0.750000
#
# Coordination Sequence:
#
# PCOD9284014 Si02
#       5
#     8   8   8   8   8
#     4  11  24  44  61  87 131 170 202 259 321 367
#     4  11  22  44  65  91 129 169 204 258 318 371
#     4  10  21  40  66  88 127 168 203 252 320 374
#     4  11  23  42  67  93 125 166 211 258 312 375
#     4  11  20  36  67  96 117 158 217 255 302 368
#
# _framework density 19.600542000000001
#
# number of rings (size 3 to 8) (size 9 to 14) (size 15 to 20)
#    0.000    1.200    6.000    1.200    0.000    4.000 
#    0.000    2.000    0.000    0.000    0.000    0.000 
#    0.000    0.000    0.000    0.000    0.000    0.000 
#
# Total GULP energy -111416.765687 kJ/mol
# GULP energy per Si atom -5570.838284 kJ/mol
# Density = 1.955593 g / cm^3
# Si number density = 19.600542 Si / 1000 Ang^3
#
#
#
# Elastic Constant Matrix: (Units=GPa)
#
#
# Indices 1 2 3 4 5 6 
#
# 1 114.0921 46.0692 9.7967 0.0000 16.7170 0.0000
# 2 46.0692 75.8555 22.4634 0.0000 -0.7510 0.0000
# 3 9.7967 22.4634 75.7942 0.0000 13.7362 0.0000
# 4 0.0000 0.0000 0.0000 21.9353 0.0000 2.2673
# 5 16.7170 -0.7510 13.7362 0.0000 29.9865 0.0000
# 6 0.0000 0.0000 0.0000 2.2673 0.0000 26.1526
#
#
#
# Elastic Compliance Matrix: (Units=1/GPa)
#
#
# Indices 1 2 3 4 5 6 
#
# 1 0.013507 -0.009048 0.002553 0.000000 -0.008926 0.000000
# 2 -0.009048 0.020691 -0.006511 0.000000 0.008545 0.000000
# 3 0.002553 -0.006511 0.016446 0.000000 -0.009120 0.000000
# 4 0.000000 0.000000 0.000000 0.046001 0.000000 -0.003988
# 5 -0.008926 0.008545 -0.009120 0.000000 0.042716 0.000000
# 6 0.000000 0.000000 0.000000 -0.003988 0.000000 0.038583
#
#
# Mechanical properties :
#
#
# Convention : Reuss Voigt Hill
#
# Bulk Modulus (GPa) = 40.59670 46.93341 43.76506
# Shear Modulus (GPa) = 23.56652 28.10905 25.83778
#
# Velocity S-wave (km/s) = 3.47124 3.79105 3.63467
# Velocity P-wave (km/s) = 6.06820 6.56961 6.32387
#
# Compressibility (1/GPa) = 0.02463254
#
# Stress axis : x y z
#
# Youngs Moduli (GPa) = 74.03700 48.33108 60.80424
#
# Poissons Ratio (x) = 0.43728 -0.15525
# Poissons Ratio (y) = 0.66985 0.39591
# Poissons Ratio (z) = -0.18904 0.31470
#
# Static dielectric constant tensor:
#      x y z
#    x 1.685690 0.000000 0.017620 
#    y 0.000000 1.720780 0.000000 
#    z 0.017620 0.000000 1.707310 
# 
# From -- ./inp_files/243519.got.cif
#   From: 2010.05.17/outbox.cif.g08.bks.cpg/sg15_122_cif.got.tgz:243519.got - 2010.06.03 18:47:42.
