data_PCOD9284366
_publ_section_title
;
Structure prediction by ZEFSAII (Michael W. Deem and Ramdas Pophale) SiO2 
 PCOD9284366
Probable space group: C 2/C
;
_chemical_formula_sum "Si O2"
_cell_formula_units_Z 56
_cell_length_a 26.567436
_cell_length_b 17.399898
_cell_length_c 5.558856
_cell_angle_alpha 90.000000
_cell_angle_beta 80.477816
_cell_angle_gamma 90.000000
_cell_volume 2534.289884
_symmetry_space_group_name_H-M "C 2/C"
_symmetry_group_IT_number 15
_symmetry_cell_setting 'monoclinic'
loop_
_space_group_symop_operation_xyz
x,y,z
-x,y,1/2-z
-x,-y,-z
x,-y,1/2+z
1/2+x,1/2+y,z
1/2-x,1/2+y,1/2-z
1/2-x,1/2-y,-z
1/2+x,1/2-y,1/2+z
loop_
_atom_site_type_symbol
_atom_site_label
_atom_site_fract_x
_atom_site_fract_y
_atom_site_fract_z
Si Si1 0.667404 0.704235 0.588650
Si Si2 0.914896 0.471460 0.603157
Si Si3 0.201049 0.472796 0.215902
Si Si4 0.417692 0.339811 0.648022
Si Si5 0.736175 0.188105 0.709757
Si Si6 0.416102 0.791306 0.517003
Si Si7 0.500000 0.452072 0.750000
Si Si8 0.500000 0.720387 0.750000
O O1 0.637473 0.648480 0.428005
O O2 0.699161 0.769526 0.424923
O O3 0.710109 0.663519 0.715538
O O4 0.626276 0.749207 0.784161
O O5 0.938261 0.515457 0.352442
O O6 0.857500 0.503190 0.693804
O O7 0.910830 0.382330 0.532476
O O8 0.223161 0.481274 0.469618
O O9 0.206757 0.384899 0.133399
O O10 0.448014 0.399297 0.793334
O O11 0.457557 0.332126 0.401234
O O12 0.413002 0.255177 0.770867
O O13 0.750000 0.250000 0.500000
O O14 0.471747 0.771893 0.577687
O O15 0.500000 0.500000 0.500000
#
# Coordination Sequence:
#
# PCOD9284366 Si02
#       8
#     8   8   8   8   8   8   4   4
#     4  10  24  38  70  99 142 175 257 289 357 412
#     4  10  23  38  62  97 136 179 231 280 346 404
#     4  10  23  40  65  91 137 180 231 283 353 410
#     4  11  23  44  72 108 136 188 237 295 358 443
#     4  11  24  42  67 104 139 194 244 300 351 434
#     4  11  22  40  72  99 137 185 235 290 344 433
#     4  12  27  48  78 109 148 186 238 304 381 450
#     4  10  21  40  70 101 142 174 242 280 353 410
#
# _framework density 22.096920000000001
#
# number of rings (size 3 to 8) (size 9 to 14) (size 15 to 20)
#    0.000    1.429    1.429    3.000   18.000    0.000 
#    0.000    2.143    0.000    0.000    0.000    0.000 
#    0.000    0.000    0.000    0.000    0.000    0.000 
#
# Total GULP energy -156224.751437 kJ/mol
# GULP energy per Si atom -5579.455408 kJ/mol
# Density = 2.204663 g / cm^3
# Si number density = 22.096920 Si / 1000 Ang^3
#
#
#
# Elastic Constant Matrix: (Units=GPa)
#
#
# Indices 1 2 3 4 5 6 
#
# 1 106.9101 5.2497 3.0963 0.0000 15.9851 0.0000
# 2 5.2497 76.7718 14.4570 0.0000 -1.4389 0.0000
# 3 3.0963 14.4570 120.0577 0.0000 8.3353 0.0000
# 4 0.0000 0.0000 0.0000 31.0254 0.0000 4.1734
# 5 15.9851 -1.4389 8.3353 0.0000 29.1375 0.0000
# 6 0.0000 0.0000 0.0000 4.1734 0.0000 19.1244
#
#
#
# Elastic Compliance Matrix: (Units=1/GPa)
#
#
# Indices 1 2 3 4 5 6 
#
# 1 0.010245 -0.000852 0.000236 0.000000 -0.005730 0.000000
# 2 -0.000852 0.013436 -0.001708 0.000000 0.001620 0.000000
# 3 0.000236 -0.001708 0.008717 0.000000 -0.002708 0.000000
# 4 0.000000 0.000000 0.000000 0.033206 0.000000 -0.007246
# 5 -0.005730 0.001620 -0.002708 0.000000 0.038318 0.000000
# 6 0.000000 0.000000 0.000000 -0.007246 0.000000 0.053870
#
#
# Mechanical properties :
#
#
# Convention : Reuss Voigt Hill
#
# Bulk Modulus (GPa) = 36.03710 38.81616 37.42663
# Shear Modulus (GPa) = 29.12182 34.58658 31.85420
#
# Velocity S-wave (km/s) = 3.63425 3.96058 3.80092
# Velocity P-wave (km/s) = 5.82704 6.20640 6.01971
#
# Compressibility (1/GPa) = 0.02774918
#
# Stress axis : x y z
#
# Youngs Moduli (GPa) = 97.60398 74.42702 114.71917
#
# Poissons Ratio (x) = 0.06345 -0.02711
# Poissons Ratio (y) = 0.08321 0.19599
# Poissons Ratio (z) = -0.02306 0.12715
#
# Static dielectric constant tensor:
#      x y z
#    x 1.948730 0.000000 0.290660 
#    y 0.000000 1.819400 0.000000 
#    z 0.290660 0.000000 2.451190 
# 
# From -- ./inp_files/17175.got.cif
#   From: 2010.05.17/outbox.cif.g08.bks.cpg/sg15_9_cif.got.tgz:17175.got - 2010.06.03 18:47:42.
