data_PCOD9284919
_publ_section_title
;
Structure prediction by ZEFSAII (Michael W. Deem and Ramdas Pophale) SiO2 
 PCOD9284919
Probable space group: C 2/C
;
_chemical_formula_sum "Si O2"
_cell_formula_units_Z 48
_cell_length_a 15.396260
_cell_length_b 9.672156
_cell_length_c 12.919835
_cell_angle_alpha 90.000000
_cell_angle_beta 104.798826
_cell_angle_gamma 90.000000
_cell_volume 1860.137274
_symmetry_space_group_name_H-M "C 2/C"
_symmetry_group_IT_number 15
_symmetry_cell_setting 'monoclinic'
loop_
_space_group_symop_operation_xyz
x,y,z
-x,y,1/2-z
-x,-y,-z
x,-y,1/2+z
1/2+x,1/2+y,z
1/2-x,1/2+y,1/2-z
1/2-x,1/2-y,-z
1/2+x,1/2-y,1/2+z
loop_
_atom_site_type_symbol
_atom_site_label
_atom_site_fract_x
_atom_site_fract_y
_atom_site_fract_z
Si Si1 0.719051 0.619862 0.917361
Si Si2 0.097032 0.479490 0.727919
Si Si3 0.992378 0.651597 0.948794
Si Si4 0.330645 0.308164 0.329185
Si Si5 0.982470 0.131278 0.623086
Si Si6 0.186545 0.613241 0.940103
O O1 0.781877 0.490668 0.961392
O O2 0.716037 0.657260 0.794465
O O3 0.616432 0.565501 0.906758
O O4 0.750000 0.750000 0.000000
O O5 0.081073 0.622536 0.661145
O O6 0.125608 0.342827 0.675735
O O7 0.165548 0.504420 0.840296
O O8 0.090073 0.684283 0.930839
O O9 0.000000 0.500000 0.000000
O O10 0.965643 0.752593 0.031239
O O11 0.415041 0.413786 0.374707
O O12 0.265273 0.301280 0.407694
O O13 0.000000 0.163359 0.750000
O O14 0.000000 0.454433 0.750000
#
# Coordination Sequence:
#
# PCOD9284919 Si02
#       6
#     8   8   8   8   8   8
#     4  11  22  41  68  95 124 175 222 258 318 400
#     4  10  21  41  65  95 129 173 220 267 328 390
#     4  11  22  38  69  95 128 167 219 275 326 381
#     4  11  23  41  65  94 133 166 215 275 321 389
#     4  10  23  42  67  94 132 177 217 268 328 394
#     4  11  26  39  65 102 127 169 220 270 326 383
#
# _framework density 25.804545000000001
#
# number of rings (size 3 to 8) (size 9 to 14) (size 15 to 20)
#    0.000    1.333    3.333    2.500    7.000    1.333 
#    0.000    0.000    0.000    0.000    0.000    0.000 
#    0.000    0.000    0.000    0.000    0.000    0.000 
#
# Total GULP energy -134054.000562 kJ/mol
# GULP energy per Si atom -5585.583357 kJ/mol
# Density = 2.574581 g / cm^3
# Si number density = 25.804545 Si / 1000 Ang^3
#
#
#
# Elastic Constant Matrix: (Units=GPa)
#
#
# Indices 1 2 3 4 5 6 
#
# 1 167.2418 19.4108 39.8585 0.0000 -9.1808 0.0000
# 2 19.4108 45.1725 21.2389 0.0000 0.3176 0.0000
# 3 39.8585 21.2389 135.0444 0.0000 -2.2755 0.0000
# 4 0.0000 0.0000 0.0000 27.2058 0.0000 0.6346
# 5 -9.1808 0.3176 -2.2755 0.0000 61.8727 0.0000
# 6 0.0000 0.0000 0.0000 0.6346 0.0000 23.8215
#
#
#
# Elastic Compliance Matrix: (Units=1/GPa)
#
#
# Indices 1 2 3 4 5 6 
#
# 1 0.006661 -0.002108 -0.001619 0.000000 0.000940 0.000000
# 2 -0.002108 0.024576 -0.003252 0.000000 -0.000559 0.000000
# 3 -0.001619 -0.003252 0.008396 0.000000 0.000085 0.000000
# 4 0.000000 0.000000 0.000000 0.036780 0.000000 -0.000980
# 5 0.000940 -0.000559 0.000085 0.000000 0.016308 0.000000
# 6 0.000000 0.000000 0.000000 -0.000980 0.000000 0.042005
#
#
# Mechanical properties :
#
#
# Convention : Reuss Voigt Hill
#
# Bulk Modulus (GPa) = 38.94821 56.49723 47.72272
# Shear Modulus (GPa) = 31.79800 40.37668 36.08734
#
# Velocity S-wave (km/s) = 3.51417 3.95994 3.74369
# Velocity P-wave (km/s) = 5.62069 6.54599 6.10091
#
# Compressibility (1/GPa) = 0.02567512
#
# Stress axis : x y z
#
# Youngs Moduli (GPa) = 150.11840 40.68957 119.10836
#
# Poissons Ratio (x) = 0.08577 0.19281
# Poissons Ratio (y) = 0.31644 0.38739
# Poissons Ratio (z) = 0.24301 0.13234
#
# Static dielectric constant tensor:
#      x y z
#    x 2.139860 0.000000 0.012090 
#    y 0.000000 2.068730 0.000000 
#    z 0.012090 0.000000 2.147220 
# 
# From -- ./inp_files/143749.got.cif
#   From: 2010.05.17/outbox.cif.g08.bks.cpg/sg15_72_cif.got.tgz:143749.got - 2010.06.03 18:47:42.
