data_PCOD9284218
_publ_section_title
;
Structure prediction by ZEFSAII (Michael W. Deem and Ramdas Pophale) SiO2 
 PCOD9284218
Probable space group: C 2/C
;
_chemical_formula_sum "Si O2"
_cell_formula_units_Z 40
_cell_length_a 16.102527
_cell_length_b 12.390644
_cell_length_c 9.472330
_cell_angle_alpha 90.000000
_cell_angle_beta 104.112346
_cell_angle_gamma 90.000000
_cell_volume 1832.886814
_symmetry_space_group_name_H-M "C 2/C"
_symmetry_group_IT_number 15
_symmetry_cell_setting 'monoclinic'
loop_
_space_group_symop_operation_xyz
x,y,z
-x,y,1/2-z
-x,-y,-z
x,-y,1/2+z
1/2+x,1/2+y,z
1/2-x,1/2+y,1/2-z
1/2-x,1/2-y,-z
1/2+x,1/2-y,1/2+z
loop_
_atom_site_type_symbol
_atom_site_label
_atom_site_fract_x
_atom_site_fract_y
_atom_site_fract_z
Si Si1 0.371208 0.746413 0.988714
Si Si2 0.517316 0.890021 0.923146
Si Si3 0.208468 0.385764 0.098899
Si Si4 0.295441 0.311028 0.730584
Si Si5 0.206267 0.984235 0.114847
O O1 0.456355 0.796891 0.961178
O O2 0.290883 0.818963 0.900051
O O3 0.349995 0.622671 0.933885
O O4 0.363889 0.744072 0.155019
O O5 0.500000 0.901009 0.750000
O O6 0.616430 0.869768 0.993459
O O7 0.500000 0.000000 0.000000
O O8 0.235850 0.265673 0.155858
O O9 0.214148 0.446943 0.253075
O O10 0.264742 0.456120 0.015185
O O11 0.333503 0.420332 0.807791
#
# Coordination Sequence:
#
# PCOD9284218 Si02
#       5
#     8   8   8   8   8
#     4  10  23  41  67 101 141 173 229 291 340 408
#     4  12  27  43  66 100 140 178 221 285 354 405
#     4  11  23  38  68  97 133 174 232 279 343 404
#     4  10  21  40  67  98 132 177 239 277 337 404
#     4  11  21  43  70 102 130 181 230 287 333 412
#
# _framework density 21.823495999999999
#
# number of rings (size 3 to 8) (size 9 to 14) (size 15 to 20)
#    0.000    1.200    2.000    4.200    8.400    1.600 
#    0.000    1.000    0.000    0.000    0.000    0.000 
#    0.000    0.000    0.000    0.000    0.000    0.000 
#
# Total GULP energy -111654.559008 kJ/mol
# GULP energy per Si atom -5582.727950 kJ/mol
# Density = 2.177383 g / cm^3
# Si number density = 21.823496 Si / 1000 Ang^3
#
#
#
# Elastic Constant Matrix: (Units=GPa)
#
#
# Indices 1 2 3 4 5 6 
#
# 1 61.3561 33.9358 35.9938 0.0000 -14.1110 0.0000
# 2 33.9358 159.5218 59.8508 0.0000 -23.1308 0.0000
# 3 35.9938 59.8508 145.4029 0.0000 -21.6529 0.0000
# 4 0.0000 0.0000 0.0000 40.7142 0.0000 -7.2732
# 5 -14.1110 -23.1308 -21.6529 0.0000 27.4490 0.0000
# 6 0.0000 0.0000 0.0000 -7.2732 0.0000 34.2346
#
#
#
# Elastic Compliance Matrix: (Units=1/GPa)
#
#
# Indices 1 2 3 4 5 6 
#
# 1 0.020947 -0.002315 -0.003308 0.000000 0.006208 0.000000
# 2 -0.002315 0.008158 -0.002197 0.000000 0.003952 0.000000
# 3 -0.003308 -0.002197 0.009146 0.000000 0.003663 0.000000
# 4 0.000000 0.000000 0.000000 0.025530 0.000000 0.005424
# 5 0.006208 0.003952 0.003663 0.000000 0.045843 0.000000
# 6 0.000000 0.000000 0.000000 0.005424 0.000000 0.030363
#
#
# Mechanical properties :
#
#
# Convention : Reuss Voigt Hill
#
# Bulk Modulus (GPa) = 44.22312 69.53794 56.88053
# Shear Modulus (GPa) = 30.64408 36.24623 33.44516
#
# Velocity S-wave (km/s) = 3.75130 4.07981 3.91900
# Velocity P-wave (km/s) = 6.25068 7.35705 6.82631
#
# Compressibility (1/GPa) = 0.02261261
#
# Stress axis : x y z
#
# Youngs Moduli (GPa) = 47.73942 122.57331 109.33774
#
# Poissons Ratio (x) = 0.28374 0.36169
# Poissons Ratio (y) = 0.11051 0.24017
# Poissons Ratio (z) = 0.15792 0.26924
#
# Static dielectric constant tensor:
#      x y z
#    x 1.869380 0.000000 0.081500 
#    y 0.000000 1.896890 0.000000 
#    z 0.081500 0.000000 1.992080 
# 
# From -- ./inp_files/46254.got.cif
#   From: 2010.05.17/outbox.cif.g08.bks.cpg/sg15_24_cif.got.tgz:46254.got - 2010.06.03 18:47:42.
