data_PCOD9284222
_publ_section_title
;
Structure prediction by ZEFSAII (Michael W. Deem and Ramdas Pophale) SiO2 
 PCOD9284222
Probable space group: C 2/C
;
_chemical_formula_sum "Si O2"
_cell_formula_units_Z 40
_cell_length_a 9.053766
_cell_length_b 10.545061
_cell_length_c 24.479774
_cell_angle_alpha 90.000000
_cell_angle_beta 131.273793
_cell_angle_gamma 90.000000
_cell_volume 1756.519015
_symmetry_space_group_name_H-M "C 2/C"
_symmetry_group_IT_number 15
_symmetry_cell_setting 'monoclinic'
loop_
_space_group_symop_operation_xyz
x,y,z
-x,y,1/2-z
-x,-y,-z
x,-y,1/2+z
1/2+x,1/2+y,z
1/2-x,1/2+y,1/2-z
1/2-x,1/2-y,-z
1/2+x,1/2-y,1/2+z
loop_
_atom_site_type_symbol
_atom_site_label
_atom_site_fract_x
_atom_site_fract_y
_atom_site_fract_z
Si Si1 0.976353 0.621049 0.886738
Si Si2 0.969587 0.649439 0.363394
Si Si3 0.919660 0.172161 0.173551
Si Si4 0.075826 0.105615 0.854014
Si Si5 0.670202 0.538312 0.999905
O O1 0.941740 0.496923 0.839108
O O2 0.018198 0.744231 0.862000
O O3 0.171674 0.576676 0.967014
O O4 0.788363 0.630620 0.879309
O O5 0.950392 0.765762 0.317175
O O6 0.192630 0.646313 0.439729
O O7 0.815343 0.667570 0.375002
O O8 0.000000 0.226302 0.250000
O O9 0.995645 0.027966 0.187222
O O10 0.090520 0.078739 0.922172
O O11 0.500000 0.500000 0.000000
#
# Coordination Sequence:
#
# PCOD9284222 Si02
#       5
#     8   8   8   8   8
#     4   9  23  39  62  95 124 170 207 260 323 379
#     4   9  23  41  60  97 127 165 208 257 320 392
#     4  11  25  44  63  89 129 173 222 268 311 376
#     4  11  22  41  68  97 129 163 215 263 327 386
#     4  10  21  40  67  98 135 164 201 266 334 392
#
# _framework density 22.772313
#
# number of rings (size 3 to 8) (size 9 to 14) (size 15 to 20)
#    1.200    0.800    0.000    2.400    2.800    4.000 
#    0.000    1.000    0.000    0.000    0.000    0.000 
#    0.000    0.000    0.000    0.000    0.000    0.000 
#
# Total GULP energy -111568.462916 kJ/mol
# GULP energy per Si atom -5578.423146 kJ/mol
# Density = 2.272048 g / cm^3
# Si number density = 22.772313 Si / 1000 Ang^3
#
#
#
# Elastic Constant Matrix: (Units=GPa)
#
#
# Indices 1 2 3 4 5 6 
#
# 1 112.4044 40.7185 5.1139 0.0000 -1.6363 0.0000
# 2 40.7185 122.5589 4.0988 0.0000 -13.3760 0.0000
# 3 5.1139 4.0988 29.9256 0.0000 0.9419 0.0000
# 4 0.0000 0.0000 0.0000 5.4187 0.0000 -17.8630
# 5 -1.6363 -13.3760 0.9419 0.0000 24.0288 0.0000
# 6 0.0000 0.0000 0.0000 -17.8630 0.0000 39.2576
#
#
#
# Elastic Compliance Matrix: (Units=1/GPa)
#
#
# Indices 1 2 3 4 5 6 
#
# 1 0.010194 -0.003476 -0.001228 0.000000 -0.001193 0.000000
# 2 -0.003476 0.009927 -0.000933 0.000000 0.005326 0.000000
# 3 -0.001228 -0.000933 0.033815 0.000000 -0.001929 0.000000
# 4 0.000000 0.000000 0.000000 -0.369097 0.000000 -0.167946
# 5 -0.001193 0.005326 -0.001929 0.000000 0.044576 0.000000
# 6 0.000000 0.000000 0.000000 -0.167946 0.000000 -0.050946
#
#
# Mechanical properties :
#
#
# Convention : Reuss Voigt Hill
#
# Bulk Modulus (GPa) = 23.44103 40.52792 31.98447
# Shear Modulus (GPa) = -16.88981 28.07153 5.59086
#
# Velocity S-wave (km/s) = -2.72634 3.51480 1.56858
# Velocity P-wave (km/s) = 0.63674 5.85725 4.16610
#
# Compressibility (1/GPa) = 0.04266025
#
# Stress axis : x y z
#
# Youngs Moduli (GPa) = 98.09560 100.73920 29.57293
#
# Poissons Ratio (x) = 0.35016 0.03633
# Poissons Ratio (y) = 0.34097 0.02760
# Poissons Ratio (z) = 0.12050 0.09401
#
# Static dielectric constant tensor:
#      x y z
#    x 1.810980 0.000000 -0.036520 
#    y 0.000000 1.925290 0.000000 
#    z -0.036520 0.000000 3.877930 
# 
# From -- ./inp_files/262865.got.cif
#   From: 2010.05.17/outbox.cif.g08.bks.cpg/sg15_132_cif.got.tgz:262865.got - 2010.06.03 18:47:42.
