data_PCOD9284644
_publ_section_title
;
Structure prediction by ZEFSAII (Michael W. Deem and Ramdas Pophale) SiO2 
 PCOD9284644
Probable space group: C 2/C
;
_chemical_formula_sum "Si O2"
_cell_formula_units_Z 40
_cell_length_a 24.124077
_cell_length_b 15.512506
_cell_length_c 5.268897
_cell_angle_alpha 90.000000
_cell_angle_beta 69.928531
_cell_angle_gamma 90.000000
_cell_volume 1851.998536
_symmetry_space_group_name_H-M "C 2/C"
_symmetry_group_IT_number 15
_symmetry_cell_setting 'monoclinic'
loop_
_space_group_symop_operation_xyz
x,y,z
-x,y,1/2-z
-x,-y,-z
x,-y,1/2+z
1/2+x,1/2+y,z
1/2-x,1/2+y,1/2-z
1/2-x,1/2-y,-z
1/2+x,1/2-y,1/2+z
loop_
_atom_site_type_symbol
_atom_site_label
_atom_site_fract_x
_atom_site_fract_y
_atom_site_fract_z
Si Si1 0.250147 0.558578 0.296656
Si Si2 0.640230 0.816151 0.919841
Si Si3 0.566880 0.035889 0.418844
Si Si4 0.570650 0.452351 0.142278
Si Si5 0.351754 0.297595 0.589277
O O1 0.255799 0.505409 0.548355
O O2 0.188241 0.608796 0.380232
O O3 0.299041 0.633785 0.201541
O O4 0.577914 0.866113 0.981479
O O5 0.656188 0.763315 0.641994
O O6 0.641224 0.756460 0.165056
O O7 0.500000 0.000000 0.500000
O O8 0.593954 0.977650 0.599212
O O9 0.500000 0.456567 0.250000
O O10 0.592492 0.486307 0.379621
O O11 0.591449 0.356553 0.053661
#
# Coordination Sequence:
#
# PCOD9284644 Si02
#       5
#     8   8   8   8   8
#     4  12  24  42  68  92 128 175 221 255 327 397
#     4  12  24  41  63  96 134 164 212 274 327 375
#     4  10  21  41  63  86 120 173 215 253 305 380
#     4  10  21  41  65  87 123 167 213 260 320 394
#     4  12  24  41  63  99 130 163 212 278 331 374
#
# _framework density 21.598286999999999
#
# number of rings (size 3 to 8) (size 9 to 14) (size 15 to 20)
#    0.000    0.800    0.000    8.400    0.000    0.000 
#   10.800    0.000    0.000    0.000    0.000    0.000 
#    0.000    0.000    0.000    0.000    0.000    0.000 
#
# Total GULP energy -111839.791799 kJ/mol
# GULP energy per Si atom -5591.989590 kJ/mol
# Density = 2.154913 g / cm^3
# Si number density = 21.598287 Si / 1000 Ang^3
#
#
#
# Elastic Constant Matrix: (Units=GPa)
#
#
# Indices 1 2 3 4 5 6 
#
# 1 56.5153 60.0723 55.7875 0.0000 7.3133 0.0000
# 2 60.0723 144.5648 75.1763 0.0000 12.5634 0.0000
# 3 55.7875 75.1763 154.6417 0.0000 38.7619 0.0000
# 4 0.0000 0.0000 0.0000 57.7674 0.0000 15.0540
# 5 7.3133 12.5634 38.7619 0.0000 32.1396 0.0000
# 6 0.0000 0.0000 0.0000 15.0540 0.0000 44.0402
#
#
#
# Elastic Compliance Matrix: (Units=1/GPa)
#
#
# Indices 1 2 3 4 5 6 
#
# 1 0.039506 -0.011557 -0.010768 0.000000 0.008515 0.000000
# 2 -0.011557 0.012791 -0.002086 0.000000 0.000145 0.000000
# 3 -0.010768 -0.002086 0.015116 0.000000 -0.014965 0.000000
# 4 0.000000 0.000000 0.000000 0.019004 0.000000 -0.006496
# 5 0.008515 0.000145 -0.014965 0.000000 0.047169 0.000000
# 6 0.000000 0.000000 0.000000 -0.006496 0.000000 0.024927
#
#
# Mechanical properties :
#
#
# Convention : Reuss Voigt Hill
#
# Bulk Modulus (GPa) = 53.78372 81.97711 67.88042
# Shear Modulus (GPa) = 23.41573 37.76849 30.59211
#
# Velocity S-wave (km/s) = 3.29621 4.18626 3.76761
# Velocity P-wave (km/s) = 6.28033 7.83608 7.10094
#
# Compressibility (1/GPa) = 0.01859299
#
# Stress axis : x y z
#
# Youngs Moduli (GPa) = 25.31264 78.17706 66.15408
#
# Poissons Ratio (x) = 0.90346 0.71236
# Poissons Ratio (y) = 0.29253 0.13797
# Poissons Ratio (z) = 0.27257 0.16304
#
# Static dielectric constant tensor:
#      x y z
#    x 1.823760 0.000000 0.024210 
#    y 0.000000 1.742180 0.000000 
#    z 0.024210 0.000000 1.751680 
# 
# From -- ./inp_files/15089.got.cif
#   From: 2010.05.17/outbox.cif.g08.bks.cpg/sg15_8_cif.got.tgz:15089.got - 2010.06.03 18:47:42.
