data_PCOD9284189
_publ_section_title
;
Structure prediction by ZEFSAII (Michael W. Deem and Ramdas Pophale) SiO2 
 PCOD9284189
Probable space group: C 2/C
;
_chemical_formula_sum "Si O2"
_cell_formula_units_Z 48
_cell_length_a 11.843964
_cell_length_b 7.513114
_cell_length_c 22.486044
_cell_angle_alpha 90.000000
_cell_angle_beta 93.837170
_cell_angle_gamma 90.000000
_cell_volume 1996.436250
_symmetry_space_group_name_H-M "C 2/C"
_symmetry_group_IT_number 15
_symmetry_cell_setting 'monoclinic'
loop_
_space_group_symop_operation_xyz
x,y,z
-x,y,1/2-z
-x,-y,-z
x,-y,1/2+z
1/2+x,1/2+y,z
1/2-x,1/2+y,1/2-z
1/2-x,1/2-y,-z
1/2+x,1/2-y,1/2+z
loop_
_atom_site_type_symbol
_atom_site_label
_atom_site_fract_x
_atom_site_fract_y
_atom_site_fract_z
Si Si1 0.841731 0.649899 0.965230
Si Si2 0.379001 0.700937 0.746754
Si Si3 0.937068 0.505008 0.149878
Si Si4 0.050443 0.291690 0.541694
Si Si5 0.161055 0.702768 0.671090
Si Si6 0.311595 0.397824 0.361953
O O1 0.862012 0.441321 0.977562
O O2 0.807078 0.660973 0.895787
O O3 0.750000 0.750000 0.000000
O O4 0.962094 0.741176 0.985920
O O5 0.500000 0.598912 0.750000
O O6 0.259737 0.629981 0.717061
O O7 0.350071 0.746242 0.814104
O O8 0.405964 0.859819 0.701694
O O9 0.821752 0.399704 0.131610
O O10 0.978096 0.612158 0.092493
O O11 0.037437 0.377795 0.174989
O O12 0.117371 0.134383 0.576038
O O13 0.158450 0.917166 0.669843
#
# Coordination Sequence:
#
# PCOD9284189 Si02
#       6
#     8   8   8   8   8   8
#     4  10  21  40  67  95 129 173 212 260 316 382
#     4  11  23  41  66  89 130 168 206 265 322 382
#     4  10  23  46  63  91 131 165 214 266 314 390
#     4  10  22  42  67  92 130 173 208 260 327 370
#     4  10  25  42  66  97 126 168 218 262 321 374
#     4  11  24  41  66  98 124 170 215 261 323 377
#
# _framework density 24.042842
#
# number of rings (size 3 to 8) (size 9 to 14) (size 15 to 20)
#    0.000    1.667    1.667    2.000    4.667    2.000 
#    9.000   11.667    0.000    0.000    0.000    0.000 
#    0.000    0.000    0.000    0.000    0.000    0.000 
#
# Total GULP energy -134162.878513 kJ/mol
# GULP energy per Si atom -5590.119938 kJ/mol
# Density = 2.398812 g / cm^3
# Si number density = 24.042842 Si / 1000 Ang^3
#
#
#
# Elastic Constant Matrix: (Units=GPa)
#
#
# Indices 1 2 3 4 5 6 
#
# 1 123.9564 37.4182 -4.6169 0.0000 12.0795 0.0000
# 2 37.4182 58.4486 0.3269 0.0000 0.1064 0.0000
# 3 -4.6169 0.3269 67.5567 0.0000 17.6945 0.0000
# 4 0.0000 0.0000 0.0000 25.0320 0.0000 6.2619
# 5 12.0795 0.1064 17.6945 0.0000 54.2140 0.0000
# 6 0.0000 0.0000 0.0000 6.2619 0.0000 28.9002
#
#
#
# Elastic Compliance Matrix: (Units=1/GPa)
#
#
# Indices 1 2 3 4 5 6 
#
# 1 0.010406 -0.006665 0.001473 0.000000 -0.002786 0.000000
# 2 -0.006665 0.021378 -0.001024 0.000000 0.001777 0.000000
# 3 0.001473 -0.001024 0.016395 0.000000 -0.005677 0.000000
# 4 0.000000 0.000000 0.000000 0.042238 0.000000 -0.009152
# 5 -0.002786 0.001777 -0.005677 0.000000 0.020916 0.000000
# 6 0.000000 0.000000 0.000000 -0.009152 0.000000 0.036585
#
#
# Mechanical properties :
#
#
# Convention : Reuss Voigt Hill
#
# Bulk Modulus (GPa) = 27.97455 35.13534 31.55494
# Shear Modulus (GPa) = 29.02501 36.08480 32.55491
#
# Velocity S-wave (km/s) = 3.47828 3.87829 3.68372
# Velocity P-wave (km/s) = 5.27179 5.89069 5.58981
#
# Compressibility (1/GPa) = 0.03574678
#
# Stress axis : x y z
#
# Youngs Moduli (GPa) = 96.10213 46.77657 60.99416
#
# Poissons Ratio (x) = 0.31175 -0.08985
# Poissons Ratio (y) = 0.64049 0.06249
# Poissons Ratio (z) = -0.14157 0.04792
#
# Static dielectric constant tensor:
#      x y z
#    x 1.930120 0.000000 0.006950 
#    y 0.000000 2.050360 0.000000 
#    z 0.006950 0.000000 1.945450 
# 
# From -- ./inp_files/267746.got.cif
#   From: 2010.05.17/outbox.cif.g08.bks.cpg/sg15_134_cif.got.tgz:267746.got - 2010.06.03 18:47:42.
