data_PCOD9284067
_publ_section_title
;
Structure prediction by ZEFSAII (Michael W. Deem and Ramdas Pophale) SiO2 
 PCOD9284067
Probable space group: C 2/C
;
_chemical_formula_sum "Si O2"
_cell_formula_units_Z 48
_cell_length_a 15.254061
_cell_length_b 13.047615
_cell_length_c 10.968892
_cell_angle_alpha 90.000000
_cell_angle_beta 61.643316
_cell_angle_gamma 90.000000
_cell_volume 1921.170644
_symmetry_space_group_name_H-M "C 2/C"
_symmetry_group_IT_number 15
_symmetry_cell_setting 'monoclinic'
loop_
_space_group_symop_operation_xyz
x,y,z
-x,y,1/2-z
-x,-y,-z
x,-y,1/2+z
1/2+x,1/2+y,z
1/2-x,1/2+y,1/2-z
1/2-x,1/2-y,-z
1/2+x,1/2-y,1/2+z
loop_
_atom_site_type_symbol
_atom_site_label
_atom_site_fract_x
_atom_site_fract_y
_atom_site_fract_z
Si Si1 0.590773 0.420421 0.257353
Si Si2 0.338076 0.285589 0.808760
Si Si3 0.027593 0.809651 0.540678
Si Si4 0.389482 0.196848 0.358805
Si Si5 0.138553 0.375662 0.871515
Si Si6 0.814942 0.404019 0.152853
O O1 0.500000 0.479474 0.250000
O O2 0.556937 0.386183 0.414298
O O3 0.603248 0.318898 0.163176
O O4 0.704532 0.451299 0.203374
O O5 0.415464 0.328648 0.657052
O O6 0.399686 0.303346 0.891512
O O7 0.232058 0.339753 0.890662
O O8 0.319562 0.169847 0.768272
O O9 0.046454 0.696444 0.470263
O O10 0.500000 0.155937 0.250000
O O11 0.325778 0.156848 0.287100
O O12 0.344372 0.159971 0.513934
O O13 0.117779 0.495130 0.884575
#
# Coordination Sequence:
#
# PCOD9284067 Si02
#       6
#     8   8   8   8   8   8
#     4  10  21  40  66  94 126 168 211 260 313 377
#     4  11  23  43  67  90 131 172 208 262 318 370
#     4  10  23  43  67  90 130 171 211 258 316 376
#     4  10  22  40  64  93 128 163 217 264 313 371
#     4  11  25  41  64  97 126 166 220 257 313 391
#     4  12  24  39  69  94 128 171 206 266 322 369
#
# _framework density 24.984766
#
# number of rings (size 3 to 8) (size 9 to 14) (size 15 to 20)
#    0.000    1.333    3.333    4.000    4.667    2.667 
#    3.000    0.833    0.000    0.000    0.000    0.000 
#    0.000    0.000    0.000    0.000    0.000    0.000 
#
# Total GULP energy -134157.294144 kJ/mol
# GULP energy per Si atom -5589.887256 kJ/mol
# Density = 2.492790 g / cm^3
# Si number density = 24.984766 Si / 1000 Ang^3
#
#
#
# Elastic Constant Matrix: (Units=GPa)
#
#
# Indices 1 2 3 4 5 6 
#
# 1 118.4409 -12.8594 23.6265 0.0000 -6.2276 0.0000
# 2 -12.8594 75.7576 7.6013 0.0000 -4.2750 0.0000
# 3 23.6265 7.6013 114.0349 0.0000 -0.7304 0.0000
# 4 0.0000 0.0000 0.0000 -2.8184 0.0000 -4.1891
# 5 -6.2276 -4.2750 -0.7304 0.0000 50.5415 0.0000
# 6 0.0000 0.0000 0.0000 -4.1891 0.0000 18.3553
#
#
#
# Elastic Compliance Matrix: (Units=1/GPa)
#
#
# Indices 1 2 3 4 5 6 
#
# 1 0.009105 0.001816 -0.001999 0.000000 0.001247 0.000000
# 2 0.001816 0.013714 -0.001282 0.000000 0.001365 0.000000
# 3 -0.001999 -0.001282 0.009268 0.000000 -0.000221 0.000000
# 4 0.000000 0.000000 0.000000 -0.264937 0.000000 -0.060465
# 5 0.001247 0.001365 -0.000221 0.000000 0.020052 0.000000
# 6 0.000000 0.000000 0.000000 -0.060465 0.000000 0.040680
#
#
# Mechanical properties :
#
#
# Convention : Reuss Voigt Hill
#
# Bulk Modulus (GPa) = 34.29754 38.33001 36.31377
# Shear Modulus (GPa) = -31.35386 32.54002 0.59308
#
# Velocity S-wave (km/s) = -3.54633 3.61279 0.48774
# Velocity P-wave (km/s) = 1.73534 5.72517 3.85786
#
# Compressibility (1/GPa) = 0.02915661
#
# Stress axis : x y z
#
# Youngs Moduli (GPa) = 109.83415 72.91831 107.90365
#
# Poissons Ratio (x) = -0.13245 0.21575
# Poissons Ratio (y) = -0.19950 0.13830
# Poissons Ratio (z) = 0.21961 0.09346
#
# Static dielectric constant tensor:
#      x y z
#    x 2.089430 0.000000 0.014310 
#    y 0.000000 2.000290 0.000000 
#    z 0.014310 0.000000 1.958190 
# 
# From -- ./inp_files/96165.got.cif
#   From: 2010.05.17/outbox.cif.g08.bks.cpg/sg15_49_cif.got.tgz:96165.got - 2010.06.03 18:47:42.
