data_PCOD9284538
_publ_section_title
;
Structure prediction by ZEFSAII (Michael W. Deem and Ramdas Pophale) SiO2 
 PCOD9284538
Probable space group: C 2/C
;
_chemical_formula_sum "Si O2"
_cell_formula_units_Z 48
_cell_length_a 22.115980
_cell_length_b 14.698265
_cell_length_c 12.777672
_cell_angle_alpha 90.000000
_cell_angle_beta 34.300992
_cell_angle_gamma 90.000000
_cell_volume 2340.717575
_symmetry_space_group_name_H-M "C 2/C"
_symmetry_group_IT_number 15
_symmetry_cell_setting 'monoclinic'
loop_
_space_group_symop_operation_xyz
x,y,z
-x,y,1/2-z
-x,-y,-z
x,-y,1/2+z
1/2+x,1/2+y,z
1/2-x,1/2+y,1/2-z
1/2-x,1/2-y,-z
1/2+x,1/2-y,1/2+z
loop_
_atom_site_type_symbol
_atom_site_label
_atom_site_fract_x
_atom_site_fract_y
_atom_site_fract_z
Si Si1 0.876613 0.214943 0.915612
Si Si2 0.380084 0.068270 0.440047
Si Si3 0.085940 0.134161 0.844540
Si Si4 0.193110 0.032536 0.104974
Si Si5 0.659991 0.691603 0.308273
Si Si6 0.261106 0.613363 0.678291
O O1 0.880644 0.322642 0.926850
O O2 0.848874 0.190324 0.837124
O O3 0.000000 0.180690 0.750000
O O4 0.815928 0.173869 0.102627
O O5 0.500000 0.034523 0.250000
O O6 0.326970 0.054985 0.630587
O O7 0.299863 0.025779 0.471327
O O8 0.147830 0.134957 0.865628
O O9 0.095438 0.031046 0.785445
O O10 0.968689 0.178255 0.020105
O O11 0.205632 0.118805 0.162968
O O12 0.187781 0.063264 0.993432
O O13 0.703363 0.792965 0.225466
#
# Coordination Sequence:
#
# PCOD9284538 Si02
#       6
#     8   8   8   8   8   8
#     4   8  17  37  64  84 111 154 200 246 293 357
#     4   9  20  40  60  88 119 153 204 254 304 354
#     4  10  22  40  65  91 118 164 206 252 305 356
#     4  11  23  37  59  91 130 156 204 249 306 367
#     4  10  21  41  61  88 127 160 202 250 307 366
#     4  10  23  41  61  89 125 161 203 252 301 375
#
# _framework density 20.506533000000001
#
# number of rings (size 3 to 8) (size 9 to 14) (size 15 to 20)
#    0.000    2.333    0.000    2.000    4.667    7.333 
#    6.000    0.000    0.000    0.000    0.000    0.000 
#    0.000    0.000    0.000    0.000    0.000    0.000 
#
# Total GULP energy -133854.780492 kJ/mol
# GULP energy per Si atom -5577.282520 kJ/mol
# Density = 2.045986 g / cm^3
# Si number density = 20.506533 Si / 1000 Ang^3
#
#
#
# Elastic Constant Matrix: (Units=GPa)
#
#
# Indices 1 2 3 4 5 6 
#
# 1 103.1578 36.2955 54.8770 0.0000 16.6020 0.0000
# 2 36.2955 50.7066 32.6042 0.0000 8.6807 0.0000
# 3 54.8770 32.6042 68.9268 0.0000 10.5254 0.0000
# 4 0.0000 0.0000 0.0000 17.0663 0.0000 2.7765
# 5 16.6020 8.6807 10.5254 0.0000 40.1091 0.0000
# 6 0.0000 0.0000 0.0000 2.7765 0.0000 29.4773
#
#
#
# Elastic Compliance Matrix: (Units=1/GPa)
#
#
# Indices 1 2 3 4 5 6 
#
# 1 0.018148 -0.004960 -0.011584 0.000000 -0.003399 0.000000
# 2 -0.004960 0.029986 -0.009956 0.000000 -0.001824 0.000000
# 3 -0.011584 -0.009956 0.028522 0.000000 -0.000535 0.000000
# 4 0.000000 0.000000 0.000000 0.059507 0.000000 -0.005605
# 5 -0.003399 -0.001824 -0.000535 0.000000 0.026874 0.000000
# 6 0.000000 0.000000 0.000000 -0.005605 0.000000 0.034452
#
#
# Mechanical properties :
#
#
# Convention : Reuss Voigt Hill
#
# Bulk Modulus (GPa) = 42.27348 52.26051 47.26699
# Shear Modulus (GPa) = 19.35169 23.93152 21.64160
#
# Velocity S-wave (km/s) = 3.07528 3.41987 3.25214
# Velocity P-wave (km/s) = 5.76794 6.41359 6.09932
#
# Compressibility (1/GPa) = 0.02365549
#
# Stress axis : x y z
#
# Youngs Moduli (GPa) = 55.10155 33.34881 35.06073
#
# Poissons Ratio (x) = 0.16542 0.40613
# Poissons Ratio (y) = 0.27333 0.34908
# Poissons Ratio (z) = 0.63828 0.33203
#
# Static dielectric constant tensor:
#      x y z
#    x 1.742820 0.000000 -0.000350 
#    y 0.000000 1.755510 0.000000 
#    z -0.000350 0.000000 1.772140 
# 
# From -- ./inp_files/96172.got.cif
#   From: 2010.05.17/outbox.cif.g08.bks.cpg/sg15_49_cif.got.tgz:96172.got - 2010.06.03 18:47:42.
