data_PCOD9284230
_publ_section_title
;
Structure prediction by ZEFSAII (Michael W. Deem and Ramdas Pophale) SiO2 
 PCOD9284230
Probable space group: C 2/C
;
_chemical_formula_sum "Si O2"
_cell_formula_units_Z 40
_cell_length_a 19.022855
_cell_length_b 6.925847
_cell_length_c 12.607092
_cell_angle_alpha 90.000000
_cell_angle_beta 105.292925
_cell_angle_gamma 90.000000
_cell_volume 1602.161405
_symmetry_space_group_name_H-M "C 2/C"
_symmetry_group_IT_number 15
_symmetry_cell_setting 'monoclinic'
loop_
_space_group_symop_operation_xyz
x,y,z
-x,y,1/2-z
-x,-y,-z
x,-y,1/2+z
1/2+x,1/2+y,z
1/2-x,1/2+y,1/2-z
1/2-x,1/2-y,-z
1/2+x,1/2-y,1/2+z
loop_
_atom_site_type_symbol
_atom_site_label
_atom_site_fract_x
_atom_site_fract_y
_atom_site_fract_z
Si Si1 0.996462 0.279509 0.962155
Si Si2 0.312800 0.940497 0.151547
Si Si3 0.879036 0.843535 0.136219
Si Si4 0.568593 0.307632 0.703988
Si Si5 0.338683 0.672084 0.957573
O O1 0.964399 0.830801 0.924883
O O2 0.912128 0.226068 0.927044
O O3 0.045177 0.243883 0.878614
O O4 0.000000 0.500000 0.000000
O O5 0.369858 0.854281 0.258452
O O6 0.231615 0.865736 0.142410
O O7 0.326987 0.167406 0.146242
O O8 0.328333 0.840026 0.042523
O O9 0.897839 0.999744 0.232870
O O10 0.846489 0.975652 0.029066
O O11 0.500000 0.250969 0.750000
#
# Coordination Sequence:
#
# PCOD9284230 Si02
#       5
#     8   8   8   8   8
#     4  12  23  45  71 103 142 189 242 297 355 427
#     4  10  21  42  67  98 138 186 226 293 360 420
#     4  11  22  41  72  96 139 186 237 291 359 423
#     4  11  23  42  65 103 137 180 238 289 348 431
#     4  10  21  40  67  99 138 181 234 288 356 423
#
# _framework density 24.966273000000001
#
# number of rings (size 3 to 8) (size 9 to 14) (size 15 to 20)
#    0.000    1.200    6.000    1.200    0.000    2.400 
#    0.000    2.000    4.400    0.000    0.000    0.000 
#    0.000    0.000    0.000    0.000    0.000    0.000 
#
# Total GULP energy -112158.550617 kJ/mol
# GULP energy per Si atom -5607.927531 kJ/mol
# Density = 2.490945 g / cm^3
# Si number density = 24.966273 Si / 1000 Ang^3
#
#
#
# Elastic Constant Matrix: (Units=GPa)
#
#
# Indices 1 2 3 4 5 6 
#
# 1 100.6468 34.8865 27.6268 0.0000 38.2593 0.0000
# 2 34.8865 131.9900 -1.5330 0.0000 11.3135 0.0000
# 3 27.6268 -1.5330 68.7687 0.0000 20.8701 0.0000
# 4 0.0000 0.0000 0.0000 29.1355 0.0000 7.0739
# 5 38.2593 11.3135 20.8701 0.0000 41.9852 0.0000
# 6 0.0000 0.0000 0.0000 7.0739 0.0000 29.8296
#
#
#
# Elastic Compliance Matrix: (Units=1/GPa)
#
#
# Indices 1 2 3 4 5 6 
#
# 1 0.016840 -0.003370 -0.002896 0.000000 -0.012998 0.000000
# 2 -0.003370 0.008483 0.001537 0.000000 0.000022 0.000000
# 3 -0.002896 0.001537 0.017740 0.000000 -0.006594 0.000000
# 4 0.000000 0.000000 0.000000 0.036419 0.000000 -0.008637
# 5 -0.012998 0.000022 -0.006594 0.000000 0.038934 0.000000
# 6 0.000000 0.000000 0.000000 -0.008637 0.000000 0.035572
#
#
# Mechanical properties :
#
#
# Convention : Reuss Voigt Hill
#
# Bulk Modulus (GPa) = 29.75844 47.04068 38.39956
# Shear Modulus (GPa) = 28.62894 36.21841 32.42368
#
# Velocity S-wave (km/s) = 3.38998 3.81293 3.60766
# Velocity P-wave (km/s) = 5.22187 6.18605 5.72429
#
# Compressibility (1/GPa) = 0.03360391
#
# Stress axis : x y z
#
# Youngs Moduli (GPa) = 59.38335 117.88026 56.36945
#
# Poissons Ratio (x) = 0.39731 0.16323
# Poissons Ratio (y) = 0.20015 -0.08662
# Poissons Ratio (z) = 0.17195 -0.18113
#
# Static dielectric constant tensor:
#      x y z
#    x 1.967550 0.000000 -0.007240 
#    y 0.000000 2.005000 0.000000 
#    z -0.007240 0.000000 1.980590 
# 
# From -- ./inp_files/212731.got.cif
#   From: 2010.05.17/outbox.cif.g08.bks.cpg/sg15_107_cif.got.tgz:212731.got - 2010.06.03 18:47:42.
