data_PCOD9284480
_publ_section_title
;
Structure prediction by ZEFSAII (Michael W. Deem and Ramdas Pophale) SiO2 
 PCOD9284480
Probable space group: C 2/C
;
_chemical_formula_sum "Si O2"
_cell_formula_units_Z 64
_cell_length_a 28.533545
_cell_length_b 7.414098
_cell_length_c 14.434892
_cell_angle_alpha 90.000000
_cell_angle_beta 113.441103
_cell_angle_gamma 90.000000
_cell_volume 2801.684453
_symmetry_space_group_name_H-M "C 2/C"
_symmetry_group_IT_number 15
_symmetry_cell_setting 'monoclinic'
loop_
_space_group_symop_operation_xyz
x,y,z
-x,y,1/2-z
-x,-y,-z
x,-y,1/2+z
1/2+x,1/2+y,z
1/2-x,1/2+y,1/2-z
1/2-x,1/2-y,-z
1/2+x,1/2-y,1/2+z
loop_
_atom_site_type_symbol
_atom_site_label
_atom_site_fract_x
_atom_site_fract_y
_atom_site_fract_z
Si Si1 0.749070 0.208038 0.890776
Si Si2 0.789358 0.672393 0.102370
Si Si3 0.055360 0.281848 0.805575
Si Si4 0.138219 0.762947 0.494154
Si Si5 0.559672 0.211878 0.793076
Si Si6 0.137780 0.169858 0.516334
Si Si7 0.355492 0.184379 0.786280
Si Si8 0.133230 0.754844 0.213531
O O1 0.807279 0.263532 0.914266
O O2 0.696352 0.267459 0.800148
O O3 0.739009 0.994195 0.873485
O O4 0.750000 0.250000 0.000000
O O5 0.811674 0.803071 0.198597
O O6 0.750000 0.750000 0.000000
O O7 0.835583 0.637208 0.064427
O O8 0.054379 0.495142 0.787294
O O9 0.092335 0.195950 0.758969
O O10 0.000000 0.205048 0.750000
O O11 0.078491 0.250699 0.924623
O O12 0.148190 0.718038 0.607487
O O13 0.152107 0.971936 0.490347
O O14 0.500000 0.278021 0.750000
O O15 0.595086 0.257808 0.731101
O O16 0.596524 0.254794 0.910966
O O17 0.115949 0.165547 0.602921
O O18 0.360840 0.964950 0.782981
#
# Coordination Sequence:
#
# PCOD9284480 Si02
#       8
#     8   8   8   8   8   8   8   8
#     4  11  23  38  63  89 123 161 201 250 297 364
#     4  10  21  41  56  86 122 163 199 239 300 354
#     4   9  20  43  68  86 114 164 210 257 309 363
#     4  11  24  38  61  90 127 161 203 249 303 372
#     4  10  22  43  67  89 119 157 210 264 309 363
#     4  12  24  38  59  96 125 163 198 250 318 356
#     4  10  22  40  60  91 119 161 207 245 303 368
#     4   9  22  37  60  88 121 153 204 255 292 364
#
# _framework density 22.843402999999999
#
# number of rings (size 3 to 8) (size 9 to 14) (size 15 to 20)
#    0.000    1.750    2.500    1.500    3.500    4.500 
#    0.000    5.000    0.000    0.000    0.000    0.000 
#    0.000    0.000    0.000    0.000    0.000    0.000 
#
# Total GULP energy -178199.802099 kJ/mol
# GULP energy per Si atom -5568.743816 kJ/mol
# Density = 2.279141 g / cm^3
# Si number density = 22.843403 Si / 1000 Ang^3
#
#
#
# Elastic Constant Matrix: (Units=GPa)
#
#
# Indices 1 2 3 4 5 6 
#
# 1 99.4610 -0.0245 51.6442 0.0000 30.3353 0.0000
# 2 -0.0245 52.8934 -17.1719 0.0000 5.1631 0.0000
# 3 51.6442 -17.1719 129.0754 0.0000 8.7618 0.0000
# 4 0.0000 0.0000 0.0000 27.5088 0.0000 -1.7522
# 5 30.3353 5.1631 8.7618 0.0000 43.7478 0.0000
# 6 0.0000 0.0000 0.0000 -1.7522 0.0000 9.9139
#
#
#
# Elastic Compliance Matrix: (Units=1/GPa)
#
#
# Indices 1 2 3 4 5 6 
#
# 1 0.016143 -0.000946 -0.005913 0.000000 -0.009898 0.000000
# 2 -0.000946 0.020184 0.003225 0.000000 -0.002372 0.000000
# 3 -0.005913 0.003225 0.010432 0.000000 0.001630 0.000000
# 4 0.000000 0.000000 0.000000 0.036766 0.000000 0.006498
# 5 -0.009898 -0.002372 0.001630 0.000000 0.029675 0.000000
# 6 0.000000 0.000000 0.000000 0.006498 0.000000 0.102017
#
#
# Mechanical properties :
#
#
# Convention : Reuss Voigt Hill
#
# Bulk Modulus (GPa) = 25.32272 38.92502 32.12387
# Shear Modulus (GPa) = 21.21808 32.69957 26.95883
#
# Velocity S-wave (km/s) = 3.05101 3.78758 3.43907
# Velocity P-wave (km/s) = 4.84984 6.01703 5.46468
#
# Compressibility (1/GPa) = 0.03949023
#
# Stress axis : x y z
#
# Youngs Moduli (GPa) = 61.94624 49.54423 95.86281
#
# Poissons Ratio (x) = 0.04687 0.56683
# Poissons Ratio (y) = 0.05860 -0.30913
# Poissons Ratio (z) = 0.36628 -0.15977
#
# Static dielectric constant tensor:
#      x y z
#    x 2.073230 0.000000 0.060200 
#    y 0.000000 1.908480 0.000000 
#    z 0.060200 0.000000 1.894590 
# 
# From -- ./inp_files/180832.got.cif
#   From: 2010.05.17/outbox.cif.g08.bks.cpg/sg15_91_cif.got.tgz:180832.got - 2010.06.03 18:47:42.
