data_PCOD9284863
_publ_section_title
;
Structure prediction by ZEFSAII (Michael W. Deem and Ramdas Pophale) SiO2 
 PCOD9284863
Probable space group: C 2/C
;
_chemical_formula_sum "Si O2"
_cell_formula_units_Z 40
_cell_length_a 16.863856
_cell_length_b 5.454098
_cell_length_c 18.660632
_cell_angle_alpha 90.000000
_cell_angle_beta 85.426772
_cell_angle_gamma 90.000000
_cell_volume 1710.886805
_symmetry_space_group_name_H-M "C 2/C"
_symmetry_group_IT_number 15
_symmetry_cell_setting 'monoclinic'
loop_
_space_group_symop_operation_xyz
x,y,z
-x,y,1/2-z
-x,-y,-z
x,-y,1/2+z
1/2+x,1/2+y,z
1/2-x,1/2+y,1/2-z
1/2-x,1/2-y,-z
1/2+x,1/2-y,1/2+z
loop_
_atom_site_type_symbol
_atom_site_label
_atom_site_fract_x
_atom_site_fract_y
_atom_site_fract_z
Si Si1 0.666957 0.516136 0.313370
Si Si2 0.986270 0.304516 0.168113
Si Si3 0.469374 0.192486 0.061050
Si Si4 0.890798 0.077935 0.440408
Si Si5 0.256682 0.484129 0.845638
O O1 0.574000 0.573927 0.334220
O O2 0.682143 0.515036 0.226474
O O3 0.706598 0.266186 0.338703
O O4 0.710554 0.758748 0.341051
O O5 0.947157 0.535634 0.131606
O O6 0.000000 0.352432 0.250000
O O7 0.068292 0.262992 0.119701
O O8 0.547304 0.354790 0.068404
O O9 0.400552 0.331534 0.021365
O O10 0.500000 0.000000 0.000000
O O11 0.804535 0.021828 0.416631
#
# Coordination Sequence:
#
# PCOD9284863 Si02
#       5
#     8   8   8   8   8
#     4  10  23  39  59  97 133 164 215 272 324 389
#     4  11  22  38  64  98 125 164 218 275 325 378
#     4   9  22  39  64  91 129 163 223 264 319 388
#     4  10  21  41  65  89 125 177 217 262 325 390
#     4  10  22  40  63  89 134 175 209 262 336 388
#
# _framework density 23.379688999999999
#
# number of rings (size 3 to 8) (size 9 to 14) (size 15 to 20)
#    0.000    2.000    2.000    0.000    8.400    2.400 
#    0.000    2.000    0.000    0.000    0.000    0.000 
#    0.000    0.000    0.000    0.000    0.000    0.000 
#
# Total GULP energy -111747.694796 kJ/mol
# GULP energy per Si atom -5587.384740 kJ/mol
# Density = 2.332648 g / cm^3
# Si number density = 23.379689 Si / 1000 Ang^3
#
#
#
# Elastic Constant Matrix: (Units=GPa)
#
#
# Indices 1 2 3 4 5 6 
#
# 1 43.8016 4.7161 23.9250 0.0000 8.2171 0.0000
# 2 4.7161 102.8059 37.7226 0.0000 13.7052 0.0000
# 3 23.9250 37.7226 131.7968 0.0000 31.2070 0.0000
# 4 0.0000 0.0000 0.0000 19.9426 0.0000 -8.9218
# 5 8.2171 13.7052 31.2070 0.0000 39.7203 0.0000
# 6 0.0000 0.0000 0.0000 -8.9218 0.0000 12.8319
#
#
#
# Elastic Compliance Matrix: (Units=1/GPa)
#
#
# Indices 1 2 3 4 5 6 
#
# 1 0.025518 0.000701 -0.004331 0.000000 -0.002118 0.000000
# 2 0.000701 0.010972 -0.002871 0.000000 -0.001675 0.000000
# 3 -0.004331 -0.002871 0.010748 0.000000 -0.006558 0.000000
# 4 0.000000 0.000000 0.000000 0.072784 0.000000 0.050606
# 5 -0.002118 -0.001675 -0.006558 0.000000 0.031345 0.000000
# 6 0.000000 0.000000 0.000000 0.050606 0.000000 0.113116
#
#
# Mechanical properties :
#
#
# Convention : Reuss Voigt Hill
#
# Bulk Modulus (GPa) = 29.20970 45.68129 37.44550
# Shear Modulus (GPa) = 17.30724 28.63500 22.97112
#
# Velocity S-wave (km/s) = 2.72374 3.50348 3.13793
# Velocity P-wave (km/s) = 4.73418 5.99560 5.40183
#
# Compressibility (1/GPa) = 0.03423520
#
# Stress axis : x y z
#
# Youngs Moduli (GPa) = 39.18817 91.14408 93.03877
#
# Poissons Ratio (x) = -0.06390 0.40299
# Poissons Ratio (y) = -0.02747 0.26710
# Poissons Ratio (z) = 0.16974 0.26166
#
# Static dielectric constant tensor:
#      x y z
#    x 1.928830 0.000000 -0.057840 
#    y 0.000000 2.019140 0.000000 
#    z -0.057840 0.000000 1.892350 
# 
# From -- ./inp_files/207979.got.cif
#   From: 2010.05.17/outbox.cif.g08.bks.cpg/sg15_104_cif.got.tgz:207979.got - 2010.06.03 18:47:42.
