data_PCOD9284640
_publ_section_title
;
Structure prediction by ZEFSAII (Michael W. Deem and Ramdas Pophale) SiO2 
 PCOD9284640
Probable space group: C 2/C
;
_chemical_formula_sum "Si O2"
_cell_formula_units_Z 48
_cell_length_a 19.779561
_cell_length_b 16.723352
_cell_length_c 7.728140
_cell_angle_alpha 90.000000
_cell_angle_beta 120.106995
_cell_angle_gamma 90.000000
_cell_volume 2211.446035
_symmetry_space_group_name_H-M "C 2/C"
_symmetry_group_IT_number 15
_symmetry_cell_setting 'monoclinic'
loop_
_space_group_symop_operation_xyz
x,y,z
-x,y,1/2-z
-x,-y,-z
x,-y,1/2+z
1/2+x,1/2+y,z
1/2-x,1/2+y,1/2-z
1/2-x,1/2-y,-z
1/2+x,1/2-y,1/2+z
loop_
_atom_site_type_symbol
_atom_site_label
_atom_site_fract_x
_atom_site_fract_y
_atom_site_fract_z
Si Si1 0.000000 0.848083 0.750000
Si Si2 0.697095 0.393205 0.323590
Si Si3 0.649395 0.436010 0.870982
Si Si4 0.605398 0.245669 0.147848
Si Si5 0.000000 0.633437 0.250000
Si Si6 0.808245 0.391375 0.936359
Si Si7 0.644629 0.062997 0.615969
O O1 0.937472 0.904167 0.768608
O O2 0.952999 0.793298 0.554970
O O3 0.662108 0.469047 0.378166
O O4 0.657845 0.309670 0.319576
O O5 0.790918 0.397798 0.431479
O O6 0.672346 0.409098 0.092875
O O7 0.714545 0.397526 0.829975
O O8 0.553684 0.189687 0.201517
O O9 0.661798 0.190052 0.105905
O O10 0.058266 0.580935 0.440201
O O11 0.840835 0.403747 0.173105
O O12 0.837535 0.468585 0.867591
#
# Coordination Sequence:
#
# PCOD9284640 Si02
#       7
#     4   8   8   8   4   8   8
#     4  10  22  38  60  90 120 156 194 240 292 338
#     4   9  21  40  61  86 116 157 197 234 289 354
#     4   9  20  38  62  87 116 156 198 233 287 353
#     4  11  24  38  58  89 121 153 195 246 295 338
#     4  12  26  38  56  90 120 152 196 250 300 336
#     4  10  21  41  63  84 117 159 198 235 287 357
#     4  10  22  40  62  85 116 157 197 237 290 354
#
# _framework density 21.705255999999999
#
# number of rings (size 3 to 8) (size 9 to 14) (size 15 to 20)
#    0.000    2.000    0.000    2.000    0.000   17.333 
#    0.000    0.000    0.000    0.000    0.000    0.000 
#    0.000    0.000    0.000    0.000    0.000    0.000 
#
# Total GULP energy -134248.387368 kJ/mol
# GULP energy per Si atom -5593.682807 kJ/mol
# Density = 2.165585 g / cm^3
# Si number density = 21.705256 Si / 1000 Ang^3
#
#
#
# Elastic Constant Matrix: (Units=GPa)
#
#
# Indices 1 2 3 4 5 6 
#
# 1 116.7199 82.6240 38.0028 0.0000 21.5789 0.0000
# 2 82.6240 83.2797 30.6917 0.0000 22.9948 0.0000
# 3 38.0028 30.6917 58.9447 0.0000 17.1583 0.0000
# 4 0.0000 0.0000 0.0000 31.4080 0.0000 3.6901
# 5 21.5789 22.9948 17.1583 0.0000 29.7649 0.0000
# 6 0.0000 0.0000 0.0000 3.6901 0.0000 -64.9925
#
#
#
# Elastic Compliance Matrix: (Units=1/GPa)
#
#
# Indices 1 2 3 4 5 6 
#
# 1 0.030087 -0.028844 -0.005427 0.000000 0.003599 0.000000
# 2 -0.028844 0.044511 -0.000790 0.000000 -0.013020 0.000000
# 3 -0.005427 -0.000790 0.023495 0.000000 -0.008999 0.000000
# 4 0.000000 0.000000 0.000000 0.031628 0.000000 0.001796
# 5 0.003599 -0.013020 -0.008999 0.000000 0.046234 0.000000
# 6 0.000000 0.000000 0.000000 0.001796 0.000000 -0.015284
#
#
# Mechanical properties :
#
#
# Convention : Reuss Voigt Hill
#
# Bulk Modulus (GPa) = 35.75082 62.39792 49.07437
# Shear Modulus (GPa) = 20.82329 6.41115 13.61722
#
# Velocity S-wave (km/s) = 3.10072 1.72051 2.50745
# Velocity P-wave (km/s) = 5.41536 5.72338 5.57150
#
# Compressibility (1/GPa) = 0.02797138
#
# Stress axis : x y z
#
# Youngs Moduli (GPa) = 33.23650 22.46637 42.56288
#
# Poissons Ratio (x) = 0.64803 0.23098
# Poissons Ratio (y) = 0.95868 0.03361
# Poissons Ratio (z) = 0.18037 0.01774
#
# Static dielectric constant tensor:
#      x y z
#    x 1.798370 0.000000 0.005220 
#    y 0.000000 1.784310 0.000000 
#    z 0.005220 0.000000 1.814120 
# 
# From -- ./inp_files/48735.got.cif
#   From: 2010.05.17/outbox.cif.g08.bks.cpg/sg15_25_cif.got.tgz:48735.got - 2010.06.03 18:47:42.
