data_PCOD9284238
_publ_section_title
;
Structure prediction by ZEFSAII (Michael W. Deem and Ramdas Pophale) SiO2 
 PCOD9284238
Probable space group: C 2/C
;
_chemical_formula_sum "Si O2"
_cell_formula_units_Z 56
_cell_length_a 21.639467
_cell_length_b 19.030912
_cell_length_c 11.059305
_cell_angle_alpha 90.000000
_cell_angle_beta 27.754045
_cell_angle_gamma 90.000000
_cell_volume 2120.893117
_symmetry_space_group_name_H-M "C 2/C"
_symmetry_group_IT_number 15
_symmetry_cell_setting 'monoclinic'
loop_
_space_group_symop_operation_xyz
x,y,z
-x,y,1/2-z
-x,-y,-z
x,-y,1/2+z
1/2+x,1/2+y,z
1/2-x,1/2+y,1/2-z
1/2-x,1/2-y,-z
1/2+x,1/2-y,1/2+z
loop_
_atom_site_type_symbol
_atom_site_label
_atom_site_fract_x
_atom_site_fract_y
_atom_site_fract_z
Si Si1 0.500000 0.490415 0.750000
Si Si2 0.849080 0.615889 0.881182
Si Si3 0.060395 0.515028 0.532895
Si Si4 0.149687 0.749441 0.450259
Si Si5 0.244063 0.900184 0.319473
Si Si6 0.693400 0.400105 0.998199
Si Si7 0.000000 0.216765 0.750000
Si Si8 0.086732 0.316102 0.812367
O O1 0.614026 0.440599 0.497497
O O2 0.576658 0.542392 0.711425
O O3 0.818076 0.681173 0.022259
O O4 0.740058 0.592998 0.974449
O O5 0.916139 0.548463 0.831853
O O6 0.970852 0.644198 0.587557
O O7 0.123615 0.438722 0.455325
O O8 0.191420 0.561765 0.277134
O O9 0.000000 0.500000 0.500000
O O10 0.238898 0.817246 0.312039
O O11 0.143445 0.732735 0.320443
O O12 0.000000 0.768884 0.750000
O O13 0.786690 0.365468 0.940481
O O14 0.622238 0.337501 0.047852
O O15 0.476706 0.232195 0.178194
#
# Coordination Sequence:
#
# PCOD9284238 Si02
#       8
#     4   8   8   8   8   8   4   8
#     4   9  20  40  68  98 138 187 228 292 363 430
#     4  10  21  40  68 101 142 191 240 296 360 428
#     4  10  21  43  66  98 141 192 245 297 355 435
#     4  10  21  41  67 103 143 176 232 300 362 422
#     4  11  21  39  67 104 141 180 244 298 353 432
#     4   9  20  41  68  94 145 193 230 291 366 436
#     4  11  22  40  68 106 138 187 238 296 369 436
#     4  10  22  40  67 102 140 186 237 293 363 431
#
# _framework density 26.403970999999999
#
# number of rings (size 3 to 8) (size 9 to 14) (size 15 to 20)
#    0.000    2.000    0.714    3.429    2.000    0.000 
#    6.429    5.714    0.000    8.571    0.000    0.000 
#    0.000    0.000    0.000    0.000    0.000    0.000 
#
# Total GULP energy -156292.691615 kJ/mol
# GULP energy per Si atom -5581.881843 kJ/mol
# Density = 2.634387 g / cm^3
# Si number density = 26.403971 Si / 1000 Ang^3
#
#
#
# Elastic Constant Matrix: (Units=GPa)
#
#
# Indices 1 2 3 4 5 6 
#
# 1 83.0918 50.0683 45.5907 0.0001 -19.0624 -0.0001
# 2 50.0683 194.9871 69.8057 0.0001 -13.6409 -0.0001
# 3 45.5907 69.8057 141.1767 0.0001 -20.9891 -0.0003
# 4 0.0001 0.0001 0.0001 33.6007 0.0000 -15.3371
# 5 -19.0624 -13.6409 -20.9891 0.0000 31.8409 0.0001
# 6 -0.0001 -0.0001 -0.0003 -15.3371 0.0001 41.5730
#
#
#
# Elastic Compliance Matrix: (Units=1/GPa)
#
#
# Indices 1 2 3 4 5 6 
#
# 1 0.016992 -0.002773 -0.003082 0.000000 0.006953 0.000000
# 2 -0.002773 0.006699 -0.002480 0.000000 -0.000425 0.000000
# 3 -0.003082 -0.002480 0.009837 0.000000 0.003576 0.000000
# 4 0.000000 0.000000 0.000000 0.035788 0.000000 0.013203
# 5 0.006953 -0.000425 0.003576 0.000000 0.037744 0.000000
# 6 0.000000 0.000000 0.000000 0.013203 0.000000 0.028925
#
#
# Mechanical properties :
#
#
# Convention : Reuss Voigt Hill
#
# Bulk Modulus (GPa) = 59.32423 83.35389 71.33906
# Shear Modulus (GPa) = 31.59075 38.32231 34.95653
#
# Velocity S-wave (km/s) = 3.46271 3.81384 3.64251
# Velocity P-wave (km/s) = 6.20515 7.14360 6.69085
#
# Compressibility (1/GPa) = 0.01685652
#
# Stress axis : x y z
#
# Youngs Moduli (GPa) = 58.85015 149.28244 101.66098
#
# Poissons Ratio (x) = 0.41401 0.31336
# Poissons Ratio (y) = 0.16321 0.25210
# Poissons Ratio (z) = 0.18140 0.37020
#
# Static dielectric constant tensor:
#      x y z
#    x 2.605300 0.000000 0.030240 
#    y 0.000000 2.266460 0.000000 
#    z 0.030240 0.000000 2.125940 
# 
# From -- ./inp_files/225832.got.cif
#   From: 2010.05.17/outbox.cif.g08.bks.cpg/sg15_113_cif.got.tgz:225832.got - 2010.06.03 18:47:42.
