data_PCOD9284491
_publ_section_title
;
Structure prediction by ZEFSAII (Michael W. Deem and Ramdas Pophale) SiO2 
 PCOD9284491
Probable space group: C 2/C
;
_chemical_formula_sum "Si O2"
_cell_formula_units_Z 56
_cell_length_a 25.930202
_cell_length_b 7.844928
_cell_length_c 21.042390
_cell_angle_alpha 90.000000
_cell_angle_beta 147.871528
_cell_angle_gamma 90.000000
_cell_volume 2276.429285
_symmetry_space_group_name_H-M "C 2/C"
_symmetry_group_IT_number 15
_symmetry_cell_setting 'monoclinic'
loop_
_space_group_symop_operation_xyz
x,y,z
-x,y,1/2-z
-x,-y,-z
x,-y,1/2+z
1/2+x,1/2+y,z
1/2-x,1/2+y,1/2-z
1/2-x,1/2-y,-z
1/2+x,1/2-y,1/2+z
loop_
_atom_site_type_symbol
_atom_site_label
_atom_site_fract_x
_atom_site_fract_y
_atom_site_fract_z
Si Si1 0.139700 0.237004 0.555520
Si Si2 0.397600 0.630309 0.709845
Si Si3 0.192981 0.074969 0.487389
Si Si4 0.544114 0.446310 0.613247
Si Si5 0.245599 0.022773 0.768590
Si Si6 0.398030 0.009736 0.138768
Si Si7 0.692437 0.782786 0.056382
O O1 0.165917 0.395884 0.627587
O O2 0.024408 0.206624 0.436666
O O3 0.173564 0.225098 0.517449
O O4 0.199205 0.086648 0.655001
O O5 0.384513 0.469560 0.648827
O O6 0.464322 0.585430 0.839238
O O7 0.414094 0.810679 0.693747
O O8 0.290315 0.656008 0.624468
O O9 0.302136 0.073810 0.571536
O O10 0.179260 0.904718 0.515946
O O11 0.500000 0.500000 0.500000
O O12 0.658167 0.432841 0.717677
O O13 0.284976 0.191695 0.846464
O O14 0.500000 0.912886 0.250000
O O15 0.382228 0.081531 0.050812
#
# Coordination Sequence:
#
# PCOD9284491 Si02
#       7
#     8   8   8   8   8   8   8
#     4  11  22  37  62  83 113 155 195 238 294 341
#     4   8  16  31  55  81 112 145 193 235 266 341
#     4   9  18  33  56  89 113 150 194 235 290 341
#     4   9  20  37  58  84 110 151 195 230 281 345
#     4  10  21  41  59  82 117 151 192 243 288 347
#     4   9  17  30  53  87 118 148 186 237 288 336
#     4   8  16  34  55  78 116 147 181 238 290 329
#
# _framework density 24.599927999999998
#
# number of rings (size 3 to 8) (size 9 to 14) (size 15 to 20)
#    0.000    2.857    0.000    2.571    4.000    1.143 
#    2.571    7.143    0.000    0.000    0.000    0.000 
#    0.000    0.000    0.000    0.000    0.000    0.000 
#
# Total GULP energy -156145.670148 kJ/mol
# GULP energy per Si atom -5576.631077 kJ/mol
# Density = 2.454394 g / cm^3
# Si number density = 24.599928 Si / 1000 Ang^3
#
#
#
# Elastic Constant Matrix: (Units=GPa)
#
#
# Indices 1 2 3 4 5 6 
#
# 1 73.3872 0.4633 22.4405 0.0000 -10.6784 0.0000
# 2 0.4633 65.5433 1.7479 -0.0001 -7.5003 -0.0001
# 3 22.4405 1.7479 85.3092 0.0000 -18.7371 0.0000
# 4 0.0000 -0.0001 0.0000 33.4619 0.0000 -5.8247
# 5 -10.6784 -7.5003 -18.7371 0.0000 48.3426 0.0000
# 6 0.0000 -0.0001 0.0000 -5.8247 0.0000 23.3740
#
#
#
# Elastic Compliance Matrix: (Units=1/GPa)
#
#
# Indices 1 2 3 4 5 6 
#
# 1 0.014987 0.000215 -0.003511 0.000000 0.001983 0.000000
# 2 0.000215 0.015540 0.000180 0.000000 0.002528 0.000000
# 3 -0.003511 0.000180 0.013639 0.000000 0.004539 0.000000
# 4 0.000000 0.000000 0.000000 0.031240 0.000000 0.007785
# 5 0.001983 0.002528 0.004539 0.000000 0.023275 0.000000
# 6 0.000000 0.000000 0.000000 0.007785 0.000000 0.044722
#
#
# Mechanical properties :
#
#
# Convention : Reuss Voigt Hill
#
# Bulk Modulus (GPa) = 26.36169 30.39368 28.37768
# Shear Modulus (GPa) = 30.81085 34.34157 32.57621
#
# Velocity S-wave (km/s) = 3.54287 3.74037 3.64296
# Velocity P-wave (km/s) = 5.24170 5.57098 5.40884
#
# Compressibility (1/GPa) = 0.03793384
#
# Stress axis : x y z
#
# Youngs Moduli (GPa) = 66.72357 64.34967 73.31983
#
# Poissons Ratio (x) = -0.01381 0.25744
# Poissons Ratio (y) = -0.01432 -0.01323
# Poissons Ratio (z) = 0.23428 -0.01161
#
# Static dielectric constant tensor:
#      x y z
#    x 1.978010 0.000000 -0.025050 
#    y 0.000000 2.054360 0.000000 
#    z -0.025050 0.000000 2.034840 
# 
# From -- ./inp_files/259014.got.cif
#   From: 2010.05.17/outbox.cif.g08.bks.cpg/sg15_130_cif.got.tgz:259014.got - 2010.06.03 18:47:42.
