data_PCOD9284848
_publ_section_title
;
Structure prediction by ZEFSAII (Michael W. Deem and Ramdas Pophale) SiO2 
 PCOD9284848
Probable space group: C 2/C
;
_chemical_formula_sum "Si O2"
_cell_formula_units_Z 60
_cell_length_a 25.214072
_cell_length_b 19.299460
_cell_length_c 12.285555
_cell_angle_alpha 90.000000
_cell_angle_beta 26.951000
_cell_angle_gamma 90.000000
_cell_volume 2709.567534
_symmetry_space_group_name_H-M "C 2/C"
_symmetry_group_IT_number 15
_symmetry_cell_setting 'monoclinic'
loop_
_space_group_symop_operation_xyz
x,y,z
-x,y,1/2-z
-x,-y,-z
x,-y,1/2+z
1/2+x,1/2+y,z
1/2-x,1/2+y,1/2-z
1/2-x,1/2-y,-z
1/2+x,1/2-y,1/2+z
loop_
_atom_site_type_symbol
_atom_site_label
_atom_site_fract_x
_atom_site_fract_y
_atom_site_fract_z
Si Si1 0.172596 0.532696 0.669547
Si Si2 0.089399 0.280629 0.842967
Si Si3 0.000000 0.848522 0.750000
Si Si4 0.053540 0.181529 0.538422
Si Si5 0.223668 0.249163 0.793632
Si Si6 0.965289 0.420119 0.690897
Si Si7 0.428407 0.434488 0.674333
Si Si8 0.082757 0.647689 0.683034
O O1 0.140155 0.472274 0.644414
O O2 0.308194 0.535957 0.445621
O O3 0.141140 0.603235 0.666684
O O4 0.079118 0.537013 0.937949
O O5 0.205550 0.260576 0.697991
O O6 0.074998 0.351224 0.800733
O O7 0.046050 0.218186 0.849998
O O8 0.995090 0.294205 0.114059
O O9 0.126832 0.807708 0.508738
O O10 0.007985 0.893086 0.845446
O O11 0.143518 0.245231 0.406262
O O12 0.095465 0.119166 0.382431
O O13 0.000000 0.154962 0.750000
O O14 0.178262 0.318779 0.933138
O O15 0.000000 0.402904 0.750000
O O16 0.500000 0.500000 0.500000
O O17 0.000000 0.606974 0.750000
#
# Coordination Sequence:
#
# PCOD9284848 Si02
#       8
#     8   8   4   8   8   8   8   8
#     4  10  22  42  68  97 138 192 237 291 349 442
#     4  10  21  41  65 109 141 173 237 302 369 427
#     4  12  26  50  80 108 134 186 254 312 366 438
#     4  12  27  46  70 105 150 194 243 306 379 433
#     4  11  21  42  77 104 136 184 242 315 362 427
#     4  10  22  41  68 110 144 178 235 302 376 427
#     4  12  29  51  71 103 148 200 250 291 357 461
#     4   9  16  33  65 101 127 164 229 295 350 406
#
# _framework density 22.143754000000001
#
# number of rings (size 3 to 8) (size 9 to 14) (size 15 to 20)
#    0.000    1.333    4.667    0.800    4.667    4.800 
#    2.400    0.000    0.000    0.000    0.000    0.000 
#    0.000    0.000    0.000    0.000    0.000    0.000 
#
# Total GULP energy -167195.641091 kJ/mol
# GULP energy per Si atom -5573.188036 kJ/mol
# Density = 2.209335 g / cm^3
# Si number density = 22.143754 Si / 1000 Ang^3
#
#
#
# Elastic Constant Matrix: (Units=GPa)
#
#
# Indices 1 2 3 4 5 6 
#
# 1 129.7490 25.8139 30.0919 0.0001 6.3851 -0.0001
# 2 25.8139 65.0580 17.6920 0.0000 -6.8776 0.0000
# 3 30.0919 17.6920 59.6622 0.0001 -11.7184 -0.0001
# 4 0.0001 0.0000 0.0001 3.9092 -0.0001 -6.8311
# 5 6.3851 -6.8776 -11.7184 -0.0001 35.0636 0.0001
# 6 -0.0001 0.0000 -0.0001 -6.8311 0.0001 28.2754
#
#
#
# Elastic Compliance Matrix: (Units=1/GPa)
#
#
# Indices 1 2 3 4 5 6 
#
# 1 0.009578 -0.002927 -0.004729 0.000000 -0.003899 0.000000
# 2 -0.002927 0.017713 -0.003199 0.000000 0.002938 0.000000
# 3 -0.004729 -0.003199 0.021556 -0.000001 0.007438 0.000000
# 4 0.000000 0.000000 -0.000001 0.442699 0.000000 0.106952
# 5 -0.003899 0.002938 0.007438 0.000000 0.032291 0.000000
# 6 0.000000 0.000000 0.000000 0.106952 0.000000 0.061205
#
#
# Mechanical properties :
#
#
# Convention : Reuss Voigt Hill
#
# Bulk Modulus (GPa) = 36.85002 44.62945 40.73973
# Shear Modulus (GPa) = 8.11956 25.50774 16.81365
#
# Velocity S-wave (km/s) = 1.91695 3.39767 2.75852
# Velocity P-wave (km/s) = 4.64511 5.96577 5.34637
#
# Compressibility (1/GPa) = 0.02713703
#
# Stress axis : x y z
#
# Youngs Moduli (GPa) = 104.40581 56.45657 46.39159
#
# Poissons Ratio (x) = 0.16522 0.21938
# Poissons Ratio (y) = 0.30555 0.14842
# Poissons Ratio (z) = 0.49371 0.18062
#
# Static dielectric constant tensor:
#      x y z
#    x 1.820190 0.000000 -0.022210 
#    y 0.000000 1.809260 0.000000 
#    z -0.022210 0.000000 1.887120 
# 
# From -- ./inp_files/119935.got.cif
#   From: 2010.05.17/outbox.cif.g08.bks.cpg/sg15_60_cif.got.tgz:119935.got - 2010.06.03 18:47:42.
