data_PCOD9284946
_publ_section_title
;
Structure prediction by ZEFSAII (Michael W. Deem and Ramdas Pophale) SiO2 
 PCOD9284946
Probable space group: C 2/C
;
_chemical_formula_sum "Si O2"
_cell_formula_units_Z 56
_cell_length_a 21.520909
_cell_length_b 8.306136
_cell_length_c 14.387870
_cell_angle_alpha 90.000000
_cell_angle_beta 93.599584
_cell_angle_gamma 90.000000
_cell_volume 2566.838382
_symmetry_space_group_name_H-M "C 2/C"
_symmetry_group_IT_number 15
_symmetry_cell_setting 'monoclinic'
loop_
_space_group_symop_operation_xyz
x,y,z
-x,y,1/2-z
-x,-y,-z
x,-y,1/2+z
1/2+x,1/2+y,z
1/2-x,1/2+y,1/2-z
1/2-x,1/2-y,-z
1/2+x,1/2-y,1/2+z
loop_
_atom_site_type_symbol
_atom_site_label
_atom_site_fract_x
_atom_site_fract_y
_atom_site_fract_z
Si Si1 0.294406 0.877889 0.950831
Si Si2 0.580977 0.713938 0.340442
Si Si3 0.683424 0.459170 0.350073
Si Si4 0.618077 0.323033 0.167645
Si Si5 0.628818 0.815050 0.973455
Si Si6 0.946735 0.135817 0.376377
Si Si7 0.436097 0.061366 0.196658
O O1 0.346159 0.769181 0.908319
O O2 0.251145 0.967555 0.870658
O O3 0.250000 0.750000 0.000000
O O4 0.329987 0.026031 0.004212
O O5 0.634626 0.595565 0.377611
O O6 0.518457 0.688810 0.395020
O O7 0.566077 0.664739 0.233433
O O8 0.600688 0.898238 0.329240
O O9 0.666026 0.413814 0.242436
O O10 0.670616 0.308388 0.416845
O O11 0.568537 0.446357 0.119113
O O12 0.588321 0.189242 0.231684
O O13 0.568293 0.851015 0.902861
O O14 0.601058 0.734246 0.063686
O O15 0.500000 0.005379 0.250000
#
# Coordination Sequence:
#
# PCOD9284946 Si02
#       7
#     8   8   8   8   8   8   8
#     4  12  25  44  66  98 137 176 232 288 330 398
#     4  10  21  42  66  96 136 177 218 269 340 406
#     4  10  24  43  66  96 133 183 223 271 335 409
#     4  10  25  41  68  98 134 182 221 273 342 408
#     4  11  25  42  67 100 132 177 228 282 341 398
#     4  10  21  41  65  98 133 176 220 279 336 404
#     4  11  23  43  66  99 135 175 220 279 344 413
#
# _framework density 21.816721000000001
#
# number of rings (size 3 to 8) (size 9 to 14) (size 15 to 20)
#    0.000    1.429    1.429    3.000    6.000    6.857 
#    2.571    0.000    0.000    0.000    0.000    0.000 
#    0.000    0.000    0.000    0.000    0.000    0.000 
#
# Total GULP energy -156255.523913 kJ/mol
# GULP energy per Si atom -5580.554425 kJ/mol
# Density = 2.176707 g / cm^3
# Si number density = 21.816721 Si / 1000 Ang^3
#
#
#
# Elastic Constant Matrix: (Units=GPa)
#
#
# Indices 1 2 3 4 5 6 
#
# 1 21.3201 24.8841 3.3834 0.0000 9.9714 0.0000
# 2 24.8841 134.1034 34.3947 0.0000 0.5470 0.0000
# 3 3.3834 34.3947 47.4412 0.0000 -7.3422 0.0000
# 4 0.0000 0.0000 0.0000 39.0552 0.0000 -1.4824
# 5 9.9714 0.5470 -7.3422 0.0000 23.4751 0.0000
# 6 0.0000 0.0000 0.0000 -1.4824 0.0000 29.3784
#
#
#
# Elastic Compliance Matrix: (Units=1/GPa)
#
#
# Indices 1 2 3 4 5 6 
#
# 1 0.079669 -0.014563 -0.000324 0.000000 -0.033603 0.000000
# 2 -0.014563 0.011954 -0.007055 0.000000 0.003701 0.000000
# 3 -0.000324 -0.007055 0.027599 0.000000 0.008934 0.000000
# 4 0.000000 0.000000 0.000000 0.025654 0.000000 0.001294
# 5 -0.033603 0.003701 0.008934 0.000000 0.059579 0.000000
# 6 0.000000 0.000000 0.000000 0.001294 0.000000 0.034104
#
#
# Mechanical properties :
#
#
# Convention : Reuss Voigt Hill
#
# Bulk Modulus (GPa) = 13.27360 36.46545 24.86952
# Shear Modulus (GPa) = 16.25720 27.72857 21.99288
#
# Velocity S-wave (km/s) = 2.73274 3.56895 3.17846
# Velocity P-wave (km/s) = 4.00681 5.80809 4.98941
#
# Compressibility (1/GPa) = 0.07533753
#
# Stress axis : x y z
#
# Youngs Moduli (GPa) = 12.55194 83.65685 36.23275
#
# Poissons Ratio (x) = 1.21830 0.01174
# Poissons Ratio (y) = 0.18280 0.25562
# Poissons Ratio (z) = 0.00407 0.59019
#
# Static dielectric constant tensor:
#      x y z
#    x 1.827350 0.000000 0.024900 
#    y 0.000000 1.309090 0.000000 
#    z 0.024900 0.000000 1.807790 
# 
# From -- ./inp_files/166668.got.cif
#   From: 2010.05.17/outbox.cif.g08.bks.cpg/sg15_84_cif.got.tgz:166668.got - 2010.06.03 18:47:42.
