data_PCOD9284619
_publ_section_title
;
Structure prediction by ZEFSAII (Michael W. Deem and Ramdas Pophale) SiO2 
 PCOD9284619
Probable space group: C 2/C
;
_chemical_formula_sum "Si O2"
_cell_formula_units_Z 48
_cell_length_a 11.531806
_cell_length_b 27.418297
_cell_length_c 7.686565
_cell_angle_alpha 90.000000
_cell_angle_beta 72.675947
_cell_angle_gamma 90.000000
_cell_volume 2320.106174
_symmetry_space_group_name_H-M "C 2/C"
_symmetry_group_IT_number 15
_symmetry_cell_setting 'monoclinic'
loop_
_space_group_symop_operation_xyz
x,y,z
-x,y,1/2-z
-x,-y,-z
x,-y,1/2+z
1/2+x,1/2+y,z
1/2-x,1/2+y,1/2-z
1/2-x,1/2-y,-z
1/2+x,1/2-y,1/2+z
loop_
_atom_site_type_symbol
_atom_site_label
_atom_site_fract_x
_atom_site_fract_y
_atom_site_fract_z
Si Si1 0.233148 0.648588 0.210062
Si Si2 0.256987 0.162957 0.899567
Si Si3 0.640410 0.215757 0.978900
Si Si4 0.358088 0.059680 0.761034
Si Si5 0.856526 0.548917 0.354042
Si Si6 0.009964 0.193415 0.453207
O O1 0.220745 0.673247 0.405553
O O2 0.209551 0.590882 0.226105
O O3 0.368363 0.661042 0.077789
O O4 0.139175 0.671509 0.114404
O O5 0.330815 0.194947 0.726446
O O6 0.290833 0.106634 0.863017
O O7 0.114789 0.170998 0.924698
O O8 0.529197 0.252810 0.021361
O O9 0.750000 0.250000 0.000000
O O10 0.500000 0.063563 0.750000
O O11 0.343788 0.060995 0.561147
O O12 0.314488 0.006434 0.841357
O O13 0.000000 0.549858 0.250000
O O14 0.000000 0.198476 0.250000
#
# Coordination Sequence:
#
# PCOD9284619 Si02
#       6
#     8   8   8   8   8   8
#     4  10  21  41  62  94 128 166 211 259 314 372
#     4  11  22  43  65  90 129 169 206 267 312 371
#     4  10  22  41  59  90 123 167 220 249 315 373
#     4  11  22  39  66  96 125 166 209 256 322 374
#     4  11  21  40  63  97 129 161 208 263 312 376
#     4   9  22  41  63  88 127 168 213 261 312 371
#
# _framework density 20.688707999999998
#
# number of rings (size 3 to 8) (size 9 to 14) (size 15 to 20)
#    0.000    1.667    1.667    4.000    0.000    9.333 
#    9.000    2.500    0.000    0.000    0.000    0.000 
#    0.000    0.000    0.000    0.000    0.000    0.000 
#
# Total GULP energy -134140.935189 kJ/mol
# GULP energy per Si atom -5589.205633 kJ/mol
# Density = 2.064162 g / cm^3
# Si number density = 20.688708 Si / 1000 Ang^3
#
#
#
# Elastic Constant Matrix: (Units=GPa)
#
#
# Indices 1 2 3 4 5 6 
#
# 1 74.7247 58.2540 22.2809 0.0000 -5.8780 0.0000
# 2 58.2540 148.6123 24.3247 0.0000 -14.9098 0.0000
# 3 22.2809 24.3247 94.6930 0.0000 6.1489 0.0000
# 4 0.0000 0.0000 0.0000 46.2089 0.0000 7.0009
# 5 -5.8780 -14.9098 6.1489 0.0000 21.0893 0.0000
# 6 0.0000 0.0000 0.0000 7.0009 0.0000 46.6257
#
#
#
# Elastic Compliance Matrix: (Units=1/GPa)
#
#
# Indices 1 2 3 4 5 6 
#
# 1 0.019993 -0.007224 -0.002934 0.000000 0.001321 0.000000
# 2 -0.007224 0.010349 -0.001328 0.000000 0.005690 0.000000
# 3 -0.002934 -0.001328 0.011932 0.000000 -0.005236 0.000000
# 4 0.000000 0.000000 0.000000 0.022145 0.000000 -0.003325
# 5 0.001321 0.005690 -0.005236 0.000000 0.053335 0.000000
# 6 0.000000 0.000000 0.000000 -0.003325 0.000000 0.021947
#
#
# Mechanical properties :
#
#
# Convention : Reuss Voigt Hill
#
# Bulk Modulus (GPa) = 51.81122 58.63880 55.22501
# Shear Modulus (GPa) = 29.56703 36.99615 33.28159
#
# Velocity S-wave (km/s) = 3.78450 4.23333 4.01519
# Velocity P-wave (km/s) = 6.64787 7.23186 6.94600
#
# Compressibility (1/GPa) = 0.01930084
#
# Stress axis : x y z
#
# Youngs Moduli (GPa) = 50.01706 96.62757 83.80816
#
# Poissons Ratio (x) = 0.69807 0.24592
# Poissons Ratio (y) = 0.36134 0.11131
# Poissons Ratio (z) = 0.14676 0.12833
#
# Static dielectric constant tensor:
#      x y z
#    x 1.740030 0.000000 0.024030 
#    y 0.000000 1.760520 0.000000 
#    z 0.024030 0.000000 1.756170 
# 
# From -- ./inp_files/32544.got.cif
#   From: 2010.05.17/outbox.cif.g08.bks.cpg/sg15_17_cif.got.tgz:32544.got - 2010.06.03 18:47:42.
