data_PCOD9284303
_publ_section_title
;
Structure prediction by ZEFSAII (Michael W. Deem and Ramdas Pophale) SiO2 
 PCOD9284303
Probable space group: C 2/C
;
_chemical_formula_sum "Si O2"
_cell_formula_units_Z 36
_cell_length_a 7.886466
_cell_length_b 6.502173
_cell_length_c 27.751713
_cell_angle_alpha 90.000000
_cell_angle_beta 102.685382
_cell_angle_gamma 90.000000
_cell_volume 1388.348065
_symmetry_space_group_name_H-M "C 2/C"
_symmetry_group_IT_number 15
_symmetry_cell_setting 'monoclinic'
loop_
_space_group_symop_operation_xyz
x,y,z
-x,y,1/2-z
-x,-y,-z
x,-y,1/2+z
1/2+x,1/2+y,z
1/2-x,1/2+y,1/2-z
1/2-x,1/2-y,-z
1/2+x,1/2-y,1/2+z
loop_
_atom_site_type_symbol
_atom_site_label
_atom_site_fract_x
_atom_site_fract_y
_atom_site_fract_z
Si Si1 0.000000 0.734089 0.750000
Si Si2 0.715804 0.443232 0.685888
Si Si3 0.557247 0.764601 0.010467
Si Si4 0.261269 0.328721 0.109030
Si Si5 0.128761 0.775942 0.089821
O O1 0.153869 0.579935 0.774980
O O2 0.056851 0.878978 0.709523
O O3 0.770622 0.225904 0.665626
O O4 0.933424 0.269346 0.596585
O O5 0.590244 0.746620 0.069674
O O6 0.750000 0.750000 0.000000
O O7 0.410732 0.652672 0.968080
O O8 0.500000 0.000000 0.000000
O O9 0.246323 0.572582 0.098915
O O10 0.692654 0.428466 0.135101
#
# Coordination Sequence:
#
# PCOD9284303 Si02
#       5
#     4   8   8   8   8
#     4  12  32  48  76  98 142 182 248 310 352 412
#     4  12  28  47  68 102 128 187 236 296 360 412
#     4   8  16  33  60  99 134 173 213 268 340 419
#     4  10  21  40  68  98 139 176 221 280 347 425
#     4  10  21  40  68  98 139 176 221 280 347 425
#
# _framework density 25.930098000000001
#
# number of rings (size 3 to 8) (size 9 to 14) (size 15 to 20)
#    0.000    1.778    0.000    2.667    9.333    0.889 
#    0.000    0.000    0.000   18.667    0.000    0.000 
#    0.000    0.000    0.000    0.000    0.000    0.000 
#
# Total GULP energy -100526.284932 kJ/mol
# GULP energy per Si atom -5584.793607 kJ/mol
# Density = 2.587108 g / cm^3
# Si number density = 25.930098 Si / 1000 Ang^3
#
#
#
# Elastic Constant Matrix: (Units=GPa)
#
#
# Indices 1 2 3 4 5 6 
#
# 1 85.0856 45.0472 13.6557 0.0000 -9.4210 0.0000
# 2 45.0472 89.0141 39.4514 0.0000 9.1666 0.0000
# 3 13.6557 39.4514 98.2329 0.0000 5.1109 0.0000
# 4 0.0000 0.0000 0.0000 51.7681 0.0000 15.7024
# 5 -9.4210 9.1666 5.1109 0.0000 41.6938 0.0000
# 6 0.0000 0.0000 0.0000 15.7024 0.0000 47.1706
#
#
#
# Elastic Compliance Matrix: (Units=1/GPa)
#
#
# Indices 1 2 3 4 5 6 
#
# 1 0.017544 -0.010071 0.001293 0.000000 0.006020 0.000000
# 2 -0.010071 0.019680 -0.006200 0.000000 -0.005843 0.000000
# 3 0.001293 -0.006200 0.012484 0.000000 0.000125 0.000000
# 4 0.000000 0.000000 0.000000 0.021486 0.000000 -0.007153
# 5 0.006020 -0.005843 0.000125 0.000000 0.026614 0.000000
# 6 0.000000 0.000000 0.000000 -0.007153 0.000000 0.023581
#
#
# Mechanical properties :
#
#
# Convention : Reuss Voigt Hill
#
# Bulk Modulus (GPa) = 50.63009 52.07125 51.35067
# Shear Modulus (GPa) = 31.65967 39.73838 35.69903
#
# Velocity S-wave (km/s) = 3.49802 3.91899 3.71447
# Velocity P-wave (km/s) = 5.99023 6.37204 6.18408
#
# Compressibility (1/GPa) = 0.01975110
#
# Stress axis : x y z
#
# Youngs Moduli (GPa) = 56.99934 50.81199 80.10504
#
# Poissons Ratio (x) = 0.51174 -0.10355
# Poissons Ratio (y) = 0.57406 0.49664
# Poissons Ratio (z) = -0.07368 0.31503
#
# Static dielectric constant tensor:
#      x y z
#    x 1.973640 0.000000 0.046790 
#    y 0.000000 2.481520 0.000000 
#    z 0.046790 0.000000 2.267300 
# 
# From -- ./inp_files/306310.got.cif
#   From: 2010.05.17/outbox.cif.g08.bks.cpg/sg15_154_cif.got.tgz:306310.got - 2010.06.03 18:47:42.
