data_PCOD9284329
_publ_section_title
;
Structure prediction by ZEFSAII (Michael W. Deem and Ramdas Pophale) SiO2 
 PCOD9284329
Probable space group: C 2/C
;
_chemical_formula_sum "Si O2"
_cell_formula_units_Z 40
_cell_length_a 21.873728
_cell_length_b 11.108949
_cell_length_c 16.792425
_cell_angle_alpha 90.000000
_cell_angle_beta 158.037843
_cell_angle_gamma 90.000000
_cell_volume 1526.068306
_symmetry_space_group_name_H-M "C 2/C"
_symmetry_group_IT_number 15
_symmetry_cell_setting 'monoclinic'
loop_
_space_group_symop_operation_xyz
x,y,z
-x,y,1/2-z
-x,-y,-z
x,-y,1/2+z
1/2+x,1/2+y,z
1/2-x,1/2+y,1/2-z
1/2-x,1/2-y,-z
1/2+x,1/2-y,1/2+z
loop_
_atom_site_type_symbol
_atom_site_label
_atom_site_fract_x
_atom_site_fract_y
_atom_site_fract_z
Si Si1 0.130367 0.509208 0.339781
Si Si2 0.577658 0.358230 0.760593
Si Si3 0.020137 0.646276 0.568058
Si Si4 0.710569 0.776141 0.146443
Si Si5 0.912104 0.122293 0.748933
O O1 0.234122 0.393793 0.496766
O O2 0.272422 0.610379 0.512028
O O3 0.000000 0.536557 0.250000
O O4 0.052800 0.468685 0.163256
O O5 0.500000 0.320370 0.750000
O O6 0.551266 0.263550 0.660507
O O7 0.505175 0.490439 0.651832
O O8 0.148102 0.659844 0.650984
O O9 0.833325 0.666688 0.315914
O O10 0.546006 0.724997 0.907527
O O11 0.812770 0.859941 0.210770
#
# Coordination Sequence:
#
# PCOD9284329 Si02
#       5
#     8   8   8   8   8
#     4  10  21  41  65 106 132 181 230 288 336 427
#     4  10  21  40  69 107 135 175 231 294 341 411
#     4  11  20  38  75 102 144 170 234 290 358 398
#     4  10  22  43  64 104 143 185 215 294 350 413
#     4   9  24  44  67  95 144 185 235 275 357 411
#
# _framework density 26.211148999999999
#
# number of rings (size 3 to 8) (size 9 to 14) (size 15 to 20)
#    1.200    0.800    0.000    3.600    0.000    3.200 
#    7.200    4.000    0.000    0.000    0.000    0.000 
#    0.000    0.000    0.000    0.000    0.000    0.000 
#
# Total GULP energy -112069.170795 kJ/mol
# GULP energy per Si atom -5603.458540 kJ/mol
# Density = 2.615149 g / cm^3
# Si number density = 26.211149 Si / 1000 Ang^3
#
#
#
# Elastic Constant Matrix: (Units=GPa)
#
#
# Indices 1 2 3 4 5 6 
#
# 1 198.8108 56.1110 34.7766 0.0000 10.1711 0.0000
# 2 56.1110 80.4849 23.5985 0.0000 -11.1690 0.0000
# 3 34.7766 23.5985 136.7955 0.0000 -4.8794 0.0000
# 4 0.0000 0.0000 0.0000 53.2110 0.0000 -8.0221
# 5 10.1711 -11.1690 -4.8794 0.0000 27.2428 0.0000
# 6 0.0000 0.0000 0.0000 -8.0221 0.0000 33.8155
#
#
#
# Elastic Compliance Matrix: (Units=1/GPa)
#
#
# Indices 1 2 3 4 5 6 
#
# 1 0.006934 -0.005211 -0.001039 0.000000 -0.004911 0.000000
# 2 -0.005211 0.017714 -0.001412 0.000000 0.008955 0.000000
# 3 -0.001039 -0.001412 0.007861 0.000000 0.001217 0.000000
# 4 0.000000 0.000000 0.000000 0.019490 0.000000 0.004624
# 5 -0.004911 0.008955 0.001217 0.000000 0.042430 0.000000
# 6 0.000000 0.000000 0.000000 0.004624 0.000000 0.030669
#
#
# Mechanical properties :
#
#
# Convention : Reuss Voigt Hill
#
# Bulk Modulus (GPa) = 58.18670 71.67373 64.93021
# Shear Modulus (GPa) = 34.21161 42.96086 38.58623
#
# Velocity S-wave (km/s) = 3.61672 4.05289 3.84100
# Velocity P-wave (km/s) = 6.29986 7.02177 6.67059
#
# Compressibility (1/GPa) = 0.01718606
#
# Stress axis : x y z
#
# Youngs Moduli (GPa) = 144.22706 56.45261 127.20615
#
# Poissons Ratio (x) = 0.29416 0.13216
# Poissons Ratio (y) = 0.75152 0.17958
# Poissons Ratio (z) = 0.14984 0.07970
#
# Static dielectric constant tensor:
#      x y z
#    x 1.976370 0.000000 -0.038750 
#    y 0.000000 2.103430 0.000000 
#    z -0.038750 0.000000 2.077730 
# 
# From -- ./inp_files/219629.got.cif
#   From: 2010.05.17/outbox.cif.g08.bks.cpg/sg15_110_cif.got.tgz:219629.got - 2010.06.03 18:47:42.
