data_PCOD9284883
_publ_section_title
;
Structure prediction by ZEFSAII (Michael W. Deem and Ramdas Pophale) SiO2 
 PCOD9284883
Probable space group: C 2/C
;
_chemical_formula_sum "Si O2"
_cell_formula_units_Z 52
_cell_length_a 18.325081
_cell_length_b 12.513778
_cell_length_c 17.822478
_cell_angle_alpha 90.000000
_cell_angle_beta 144.199416
_cell_angle_gamma 90.000000
_cell_volume 2390.743687
_symmetry_space_group_name_H-M "C 2/C"
_symmetry_group_IT_number 15
_symmetry_cell_setting 'monoclinic'
loop_
_space_group_symop_operation_xyz
x,y,z
-x,y,1/2-z
-x,-y,-z
x,-y,1/2+z
1/2+x,1/2+y,z
1/2-x,1/2+y,1/2-z
1/2-x,1/2-y,-z
1/2+x,1/2-y,1/2+z
loop_
_atom_site_type_symbol
_atom_site_label
_atom_site_fract_x
_atom_site_fract_y
_atom_site_fract_z
Si Si1 0.855621 0.270625 0.653038
Si Si2 0.929553 0.826972 0.952819
Si Si3 0.196346 0.898057 0.801716
Si Si4 0.314327 0.460481 0.979017
Si Si5 0.280154 0.130540 0.844786
Si Si6 0.500000 0.483152 0.750000
Si Si7 0.798947 0.825686 0.388568
O O1 0.750000 0.250000 0.500000
O O2 0.808460 0.389743 0.635103
O O3 0.830259 0.192861 0.702831
O O4 0.000000 0.269209 0.750000
O O5 0.833623 0.867049 0.809191
O O6 0.916314 0.915543 0.005463
O O7 0.894589 0.710807 0.957094
O O8 0.059749 0.820612 0.021065
O O9 0.259910 0.790662 0.884454
O O10 0.069516 0.918179 0.742478
O O11 0.275484 0.007907 0.866764
O O12 0.284339 0.582773 0.937642
O O13 0.386810 0.452230 0.117949
O O14 0.268995 0.137186 0.745292
#
# Coordination Sequence:
#
# PCOD9284883 Si02
#       7
#     8   8   8   8   8   4   8
#     4  11  27  44  69 107 142 181 229 289 354 406
#     4  10  21  41  65  92 126 172 222 285 334 404
#     4  11  23  40  62  96 125 174 230 270 346 408
#     4  11  23  44  70  97 132 179 229 286 347 410
#     4  10  23  39  67  96 129 174 228 281 338 412
#     4  12  24  40  68  94 132 184 226 274 346 430
#     4  11  22  41  67  92 133 176 227 285 338 407
#
# _framework density 21.750554999999999
#
# number of rings (size 3 to 8) (size 9 to 14) (size 15 to 20)
#    0.000    1.231    3.077    2.308    8.615    1.231 
#    1.385    4.615    0.000    0.000    0.000    0.000 
#    0.000    0.000    0.000    0.000    0.000    0.000 
#
# Total GULP energy -145164.278975 kJ/mol
# GULP energy per Si atom -5583.241499 kJ/mol
# Density = 2.170105 g / cm^3
# Si number density = 21.750555 Si / 1000 Ang^3
#
#
#
# Elastic Constant Matrix: (Units=GPa)
#
#
# Indices 1 2 3 4 5 6 
#
# 1 59.5583 19.5674 7.9499 0.0000 1.6425 0.0000
# 2 19.5674 182.5948 27.1301 0.0000 8.8410 0.0000
# 3 7.9499 27.1301 50.5551 0.0000 -3.3052 0.0000
# 4 0.0000 0.0000 0.0000 20.1993 0.0000 -2.2704
# 5 1.6425 8.8410 -3.3052 0.0000 31.5212 0.0000
# 6 0.0000 0.0000 0.0000 -2.2704 0.0000 20.4721
#
#
#
# Elastic Compliance Matrix: (Units=1/GPa)
#
#
# Indices 1 2 3 4 5 6 
#
# 1 0.017585 -0.001558 -0.001974 0.000000 -0.000686 0.000000
# 2 -0.001558 0.006219 -0.003223 0.000000 -0.002001 0.000000
# 3 -0.001974 -0.003223 0.022038 0.000000 0.003318 0.000000
# 4 0.000000 0.000000 0.000000 0.050132 0.000000 0.005560
# 5 -0.000686 -0.002001 0.003318 0.000000 0.032670 0.000000
# 6 0.000000 0.000000 0.000000 0.005560 0.000000 0.049463
#
#
# Mechanical properties :
#
#
# Convention : Reuss Voigt Hill
#
# Bulk Modulus (GPa) = 30.93032 44.66701 37.79867
# Shear Modulus (GPa) = 24.70429 30.30923 27.50676
#
# Velocity S-wave (km/s) = 3.37382 3.73700 3.56004
# Velocity P-wave (km/s) = 5.42478 6.26106 5.85786
#
# Compressibility (1/GPa) = 0.03233074
#
# Stress axis : x y z
#
# Youngs Moduli (GPa) = 56.86821 160.78734 45.37701
#
# Poissons Ratio (x) = 0.25049 0.08958
# Poissons Ratio (y) = 0.08859 0.14627
# Poissons Ratio (z) = 0.11226 0.51829
#
# Static dielectric constant tensor:
#      x y z
#    x 1.787220 0.000000 -0.035950 
#    y 0.000000 1.871150 0.000000 
#    z -0.035950 0.000000 1.855000 
# 
# From -- ./inp_files/252745.got.cif
#   From: 2010.05.17/outbox.cif.g08.bks.cpg/sg15_127_cif.got.tgz:252745.got - 2010.06.03 18:47:42.
