data_PCOD9284253
_publ_section_title
;
Structure prediction by ZEFSAII (Michael W. Deem and Ramdas Pophale) SiO2 
 PCOD9284253
Probable space group: C 2/C
;
_chemical_formula_sum "Si O2"
_cell_formula_units_Z 48
_cell_length_a 11.933603
_cell_length_b 13.455963
_cell_length_c 19.725721
_cell_angle_alpha 90.000000
_cell_angle_beta 54.845453
_cell_angle_gamma 90.000000
_cell_volume 2589.769805
_symmetry_space_group_name_H-M "C 2/C"
_symmetry_group_IT_number 15
_symmetry_cell_setting 'monoclinic'
loop_
_space_group_symop_operation_xyz
x,y,z
-x,y,1/2-z
-x,-y,-z
x,-y,1/2+z
1/2+x,1/2+y,z
1/2-x,1/2+y,1/2-z
1/2-x,1/2-y,-z
1/2+x,1/2-y,1/2+z
loop_
_atom_site_type_symbol
_atom_site_label
_atom_site_fract_x
_atom_site_fract_y
_atom_site_fract_z
Si Si1 0.884832 0.058414 0.705978
Si Si2 0.241752 0.255846 0.921434
Si Si3 0.654372 0.054869 0.674347
Si Si4 0.329696 0.478549 0.872536
Si Si5 0.211213 0.405100 0.534116
Si Si6 0.480323 0.725751 0.923093
O O1 0.759911 0.040052 0.699159
O O2 0.944708 0.166782 0.664442
O O3 0.837934 0.038357 0.799016
O O4 0.016750 0.987104 0.649955
O O5 0.330904 0.167279 0.858280
O O6 0.289839 0.364053 0.879735
O O7 0.089236 0.237632 0.945390
O O8 0.250000 0.250000 0.000000
O O9 0.500000 0.035098 0.750000
O O10 0.698204 0.981746 0.599256
O O11 0.226849 0.533437 0.959168
O O12 0.350427 0.340539 0.491052
O O13 0.083417 0.330421 0.576438
#
# Coordination Sequence:
#
# PCOD9284253 Si02
#       6
#     8   8   8   8   8   8
#     4   9  22  42  62  87 124 166 202 253 308 369
#     4  11  23  39  63  94 126 159 207 257 308 371
#     4  11  25  41  59  92 130 161 206 256 309 360
#     4  10  21  40  68  90 121 164 210 249 311 369
#     4  10  21  43  64  89 121 167 209 252 303 368
#     4   9  22  41  63  91 123 159 213 249 306 364
#
# _framework density 18.534465000000001
#
# number of rings (size 3 to 8) (size 9 to 14) (size 15 to 20)
#    0.000    2.000    1.667    0.000    7.000    4.000 
#    9.000    0.000    0.000    0.000    0.000    0.000 
#    0.000    0.000    0.000    0.000    0.000    0.000 
#
# Total GULP energy -133936.607721 kJ/mol
# GULP energy per Si atom -5580.691988 kJ/mol
# Density = 1.849228 g / cm^3
# Si number density = 18.534465 Si / 1000 Ang^3
#
#
#
# Elastic Constant Matrix: (Units=GPa)
#
#
# Indices 1 2 3 4 5 6 
#
# 1 94.4307 56.5715 62.2548 0.0000 16.3822 0.0000
# 2 56.5715 113.4514 46.7852 0.0000 6.1293 0.0000
# 3 62.2548 46.7852 99.2332 0.0000 12.1538 0.0000
# 4 0.0000 0.0000 0.0000 20.5939 0.0000 6.1165
# 5 16.3822 6.1293 12.1538 0.0000 19.5178 0.0000
# 6 0.0000 0.0000 0.0000 6.1165 0.0000 13.9674
#
#
#
# Elastic Compliance Matrix: (Units=1/GPa)
#
#
# Indices 1 2 3 4 5 6 
#
# 1 0.023187 -0.006857 -0.009953 0.000000 -0.011111 0.000000
# 2 -0.006857 0.012971 -0.002186 0.000000 0.003044 0.000000
# 3 -0.009953 -0.002186 0.017586 0.000000 -0.001911 0.000000
# 4 0.000000 0.000000 0.000000 0.055818 0.000000 -0.024443
# 5 -0.011111 0.003044 -0.001911 0.000000 0.060795 0.000000
# 6 0.000000 0.000000 0.000000 -0.024443 0.000000 0.082299
#
#
# Mechanical properties :
#
#
# Convention : Reuss Voigt Hill
#
# Bulk Modulus (GPa) = 63.48678 70.92648 67.20663
# Shear Modulus (GPa) = 16.89771 20.24941 18.57356
#
# Velocity S-wave (km/s) = 3.02270 3.30893 3.16905
# Velocity P-wave (km/s) = 6.81982 7.27661 7.05192
#
# Compressibility (1/GPa) = 0.01575131
#
# Stress axis : x y z
#
# Youngs Moduli (GPa) = 43.12798 77.09655 56.86411
#
# Poissons Ratio (x) = 0.52868 0.56595
# Poissons Ratio (y) = 0.29574 0.12431
# Poissons Ratio (z) = 0.42924 0.16854
#
# Static dielectric constant tensor:
#      x y z
#    x 1.628160 0.000000 -0.008700 
#    y 0.000000 1.630830 0.000000 
#    z -0.008700 0.000000 1.623170 
# 
# From -- ./inp_files/143613.got.cif
#   From: 2010.05.17/outbox.cif.g08.bks.cpg/sg15_72_cif.got.tgz:143613.got - 2010.06.03 18:47:42.
