data_PCOD9284150
_publ_section_title
;
Structure prediction by ZEFSAII (Michael W. Deem and Ramdas Pophale) SiO2 
 PCOD9284150
Probable space group: C 2/C
;
_chemical_formula_sum "Si O2"
_cell_formula_units_Z 52
_cell_length_a 9.388953
_cell_length_b 25.684990
_cell_length_c 10.062617
_cell_angle_alpha 90.000000
_cell_angle_beta 76.923127
_cell_angle_gamma 90.000000
_cell_volume 2363.722592
_symmetry_space_group_name_H-M "C 2/C"
_symmetry_group_IT_number 15
_symmetry_cell_setting 'monoclinic'
loop_
_space_group_symop_operation_xyz
x,y,z
-x,y,1/2-z
-x,-y,-z
x,-y,1/2+z
1/2+x,1/2+y,z
1/2-x,1/2+y,1/2-z
1/2-x,1/2-y,-z
1/2+x,1/2-y,1/2+z
loop_
_atom_site_type_symbol
_atom_site_label
_atom_site_fract_x
_atom_site_fract_y
_atom_site_fract_z
Si Si1 0.217227 0.852194 0.593544
Si Si2 0.623880 0.055092 0.832114
Si Si3 0.086095 0.828929 0.903661
Si Si4 0.430992 0.938769 0.631293
Si Si5 0.763172 0.842958 0.344449
Si Si6 0.500000 0.260407 0.250000
Si Si7 0.520015 0.785157 0.028181
O O1 0.182136 0.836181 0.752904
O O2 0.314460 0.902956 0.584509
O O3 0.318510 0.808964 0.501335
O O4 0.060091 0.863469 0.563848
O O5 0.500000 0.069327 0.750000
O O6 0.753248 0.097613 0.796919
O O7 0.644384 0.993116 0.808631
O O8 0.559176 0.056018 0.995599
O O9 0.175667 0.838403 0.018123
O O10 0.014170 0.771605 0.908280
O O11 0.500000 0.914860 0.750000
O O12 0.864856 0.799985 0.251225
O O13 0.596503 0.823620 0.382167
O O14 0.520538 0.224340 0.118282
#
# Coordination Sequence:
#
# PCOD9284150 Si02
#       7
#     8   8   8   8   8   4   8
#     4  11  21  37  60  88 118 161 202 252 300 352
#     4  10  22  40  63  95 118 151 208 259 300 357
#     4  10  23  36  54  90 127 153 200 248 300 364
#     4  10  21  40  67  91 117 155 208 257 298 357
#     4  11  21  40  59  84 121 164 196 248 310 356
#     4  10  22  34  56  86 124 154 200 248 302 368
#     4  11  20  37  59  84 116 166 208 240 291 360
#
# _framework density 21.999196000000001
#
# number of rings (size 3 to 8) (size 9 to 14) (size 15 to 20)
#    0.000    1.538    1.538    5.077    1.077    2.462 
#    5.538    2.308    0.000    0.000    0.000    0.000 
#    0.000    0.000    0.000    0.000    0.000    0.000 
#
# Total GULP energy -145265.490725 kJ/mol
# GULP energy per Si atom -5587.134259 kJ/mol
# Density = 2.194913 g / cm^3
# Si number density = 21.999196 Si / 1000 Ang^3
#
#
#
# Elastic Constant Matrix: (Units=GPa)
#
#
# Indices 1 2 3 4 5 6 
#
# 1 77.2394 17.1320 -0.3228 0.0000 -7.5187 0.0000
# 2 17.1320 73.0503 -16.0007 0.0000 -4.9269 0.0000
# 3 -0.3228 -16.0007 45.7292 0.0000 8.0458 0.0000
# 4 0.0000 0.0000 0.0000 13.2494 0.0000 10.9811
# 5 -7.5187 -4.9269 8.0458 0.0000 34.8846 0.0000
# 6 0.0000 0.0000 0.0000 10.9811 0.0000 12.3361
#
#
#
# Elastic Compliance Matrix: (Units=1/GPa)
#
#
# Indices 1 2 3 4 5 6 
#
# 1 0.013985 -0.003438 -0.001615 0.000000 0.002901 0.000000
# 2 -0.003438 0.015700 0.005430 0.000000 0.000224 0.000000
# 3 -0.001615 0.005430 0.024684 0.000000 -0.005274 0.000000
# 4 0.000000 0.000000 0.000000 0.287812 0.000000 -0.256199
# 5 0.002901 0.000224 -0.005274 0.000000 0.030539 0.000000
# 6 0.000000 0.000000 0.000000 -0.256199 0.000000 0.309122
#
#
# Mechanical properties :
#
#
# Convention : Reuss Voigt Hill
#
# Bulk Modulus (GPa) = 18.14098 21.95953 20.05026
# Shear Modulus (GPa) = 7.14835 25.10804 16.12820
#
# Velocity S-wave (km/s) = 1.80456 3.38200 2.71057
# Velocity P-wave (km/s) = 3.55049 5.02536 4.35088
#
# Compressibility (1/GPa) = 0.05512380
#
# Stress axis : x y z
#
# Youngs Moduli (GPa) = 71.50566 63.69483 40.51156
#
# Poissons Ratio (x) = 0.21897 0.06541
# Poissons Ratio (y) = 0.24582 -0.21997
# Poissons Ratio (z) = 0.11545 -0.34584
#
# Static dielectric constant tensor:
#      x y z
#    x 1.798080 0.000000 -0.000900 
#    y 0.000000 1.871480 0.000000 
#    z -0.000900 0.000000 1.826030 
# 
# From -- ./inp_files/80702.got.cif
#   From: 2010.05.17/outbox.cif.g08.bks.cpg/sg15_41_cif.got.tgz:80702.got - 2010.06.03 18:47:42.
