data_PCOD9284615
_publ_section_title
;
Structure prediction by ZEFSAII (Michael W. Deem and Ramdas Pophale) SiO2 
 PCOD9284615
Probable space group: C 2/C
;
_chemical_formula_sum "Si O2"
_cell_formula_units_Z 56
_cell_length_a 9.447980
_cell_length_b 10.169990
_cell_length_c 28.710643
_cell_angle_alpha 90.000000
_cell_angle_beta 122.864453
_cell_angle_gamma 90.000000
_cell_volume 2317.177518
_symmetry_space_group_name_H-M "C 2/C"
_symmetry_group_IT_number 15
_symmetry_cell_setting 'monoclinic'
loop_
_space_group_symop_operation_xyz
x,y,z
-x,y,1/2-z
-x,-y,-z
x,-y,1/2+z
1/2+x,1/2+y,z
1/2-x,1/2+y,1/2-z
1/2-x,1/2-y,-z
1/2+x,1/2-y,1/2+z
loop_
_atom_site_type_symbol
_atom_site_label
_atom_site_fract_x
_atom_site_fract_y
_atom_site_fract_z
Si Si1 0.754197 0.160499 0.893844
Si Si2 0.670655 0.009932 0.299223
Si Si3 0.438923 0.710480 0.342201
Si Si4 0.180461 0.528953 0.626761
Si Si5 0.814004 0.554281 0.043445
Si Si6 0.372400 0.343283 0.079697
Si Si7 0.663086 0.541772 0.258829
O O1 0.640399 0.286589 0.886827
O O2 0.934704 0.172343 0.902203
O O3 0.637290 0.093019 0.833286
O O4 0.762481 0.063251 0.939387
O O5 0.500000 0.078118 0.250000
O O6 0.819689 0.101722 0.345399
O O7 0.747876 0.956423 0.264919
O O8 0.398249 0.667961 0.281694
O O9 0.371854 0.844744 0.351725
O O10 0.327221 0.579090 0.618696
O O11 0.229050 0.427233 0.676452
O O12 0.011176 0.481216 0.571257
O O13 0.803699 0.693606 0.068780
O O14 0.721940 0.579917 0.978618
O O15 0.500000 0.470933 0.250000
#
# Coordination Sequence:
#
# PCOD9284615 Si02
#       7
#     8   8   8   8   8   8   8
#     4  11  22  43  70  93 135 179 212 274 341 390
#     4  10  21  41  62  93 130 172 221 263 320 408
#     4   9  24  40  60  92 132 173 213 266 327 388
#     4  11  22  45  66  95 138 180 217 281 337 394
#     4  10  24  44  67 105 133 170 235 280 334 409
#     4  11  24  42  74  99 131 178 226 286 340 389
#     4  10  23  39  58  94 132 165 223 263 315 407
#
# _framework density 24.167335000000001
#
# number of rings (size 3 to 8) (size 9 to 14) (size 15 to 20)
#    0.857    0.857    0.000    4.286    2.000    2.286 
#    2.571    0.000    0.000    9.429    0.000    0.000 
#    0.000    0.000    0.000    0.000    0.000    0.000 
#
# Total GULP energy -156234.167764 kJ/mol
# GULP energy per Si atom -5579.791706 kJ/mol
# Density = 2.411233 g / cm^3
# Si number density = 24.167335 Si / 1000 Ang^3
#
#
#
# Elastic Constant Matrix: (Units=GPa)
#
#
# Indices 1 2 3 4 5 6 
#
# 1 128.4365 9.4714 18.0464 0.0000 -6.4721 0.0000
# 2 9.4714 70.6321 12.2587 0.0000 -12.5487 0.0000
# 3 18.0464 12.2587 70.6426 0.0000 0.4888 0.0000
# 4 0.0000 0.0000 0.0000 32.6005 0.0000 -0.9466
# 5 -6.4721 -12.5487 0.4888 0.0000 33.5078 0.0000
# 6 0.0000 0.0000 0.0000 -0.9466 0.0000 25.1909
#
#
#
# Elastic Compliance Matrix: (Units=1/GPa)
#
#
# Indices 1 2 3 4 5 6 
#
# 1 0.008177 -0.000494 -0.002013 0.000000 0.001424 0.000000
# 2 -0.000494 0.015718 -0.002642 0.000000 0.005830 0.000000
# 3 -0.002013 -0.002642 0.015139 0.000000 -0.001599 0.000000
# 4 0.000000 0.000000 0.000000 0.030708 0.000000 0.001154
# 5 0.001424 0.005830 -0.001599 0.000000 0.032325 0.000000
# 6 0.000000 0.000000 0.000000 0.001154 0.000000 0.039740
#
#
# Mechanical properties :
#
#
# Convention : Reuss Voigt Hill
#
# Bulk Modulus (GPa) = 34.79834 38.80715 36.80274
# Shear Modulus (GPa) = 30.92433 33.58881 32.25657
#
# Velocity S-wave (km/s) = 3.58102 3.73210 3.65734
# Velocity P-wave (km/s) = 5.61502 5.88762 5.75293
#
# Compressibility (1/GPa) = 0.02873700
#
# Stress axis : x y z
#
# Youngs Moduli (GPa) = 122.29460 63.61998 66.05242
#
# Poissons Ratio (x) = 0.03144 0.13296
# Poissons Ratio (y) = 0.06044 0.17449
# Poissons Ratio (z) = 0.24618 0.16807
#
# Static dielectric constant tensor:
#      x y z
#    x 1.972830 0.000000 0.077450 
#    y 0.000000 1.953560 0.000000 
#    z 0.077450 0.000000 1.916100 
# 
# From -- ./inp_files/307544.got.cif
#   From: 2010.05.17/outbox.cif.g08.bks.cpg/sg15_154_cif.got.tgz:307544.got - 2010.06.03 18:47:42.
