data_PCOD9284839
_publ_section_title
;
Structure prediction by ZEFSAII (Michael W. Deem and Ramdas Pophale) SiO2 
 PCOD9284839
Probable space group: C 2/C
;
_chemical_formula_sum "Si O2"
_cell_formula_units_Z 56
_cell_length_a 17.693220
_cell_length_b 12.004900
_cell_length_c 12.215460
_cell_angle_alpha 90.000000
_cell_angle_beta 77.217360
_cell_angle_gamma 90.000000
_cell_volume 2530.324745
_symmetry_space_group_name_H-M "C 2/C"
_symmetry_group_IT_number 15
_symmetry_cell_setting 'monoclinic'
loop_
_space_group_symop_operation_xyz
x,y,z
-x,y,1/2-z
-x,-y,-z
x,-y,1/2+z
1/2+x,1/2+y,z
1/2-x,1/2+y,1/2-z
1/2-x,1/2-y,-z
1/2+x,1/2-y,1/2+z
loop_
_atom_site_type_symbol
_atom_site_label
_atom_site_fract_x
_atom_site_fract_y
_atom_site_fract_z
Si Si1 0.376426 0.879255 0.135905
Si Si2 0.336048 0.301391 0.005039
Si Si3 0.500000 0.661083 0.750000
Si Si4 0.149339 0.176077 0.236759
Si Si5 0.101282 0.350116 0.621479
Si Si6 0.500000 0.949604 0.250000
Si Si7 0.681208 0.874742 0.813457
Si Si8 0.422049 0.510374 0.598039
O O1 0.325019 0.794706 0.222101
O O2 0.458308 0.873713 0.173053
O O3 0.356288 0.007075 0.154561
O O4 0.373529 0.851171 0.010707
O O5 0.382347 0.303313 0.875252
O O6 0.250000 0.250000 0.000000
O O7 0.358226 0.213924 0.092557
O O8 0.354236 0.423029 0.052827
O O9 0.546117 0.744677 0.656733
O O10 0.444054 0.584730 0.696236
O O11 0.228456 0.109451 0.192621
O O12 0.101848 0.108410 0.342538
O O13 0.167176 0.341362 0.692473
O O14 0.056330 0.465031 0.666348
O O15 0.500000 0.500000 0.500000
#
# Coordination Sequence:
#
# PCOD9284839 Si02
#       8
#     8   8   4   8   8   4   8   8
#     4  11  24  40  68 101 135 178 237 290 355 433
#     4  10  24  47  72 100 144 196 245 298 369 436
#     4  11  22  39  68  96 144 181 229 286 366 426
#     4  11  27  43  70 103 139 188 239 288 368 440
#     4  10  21  41  65 100 130 181 231 290 356 417
#     4   9  22  39  62  94 140 175 223 284 352 416
#     4  10  24  43  70  97 138 188 235 305 353 426
#     4  12  25  45  72 106 150 191 238 303 373 449
#
# _framework density 22.131546
#
# number of rings (size 3 to 8) (size 9 to 14) (size 15 to 20)
#    0.000    1.429    1.429    2.143    8.000    4.571 
#    0.000    0.000    0.000    0.000    0.000    0.000 
#    0.000    0.000    0.000    0.000    0.000    0.000 
#
# Total GULP energy -156213.827330 kJ/mol
# GULP energy per Si atom -5579.065262 kJ/mol
# Density = 2.208117 g / cm^3
# Si number density = 22.131546 Si / 1000 Ang^3
#
#
#
# Elastic Constant Matrix: (Units=GPa)
#
#
# Indices 1 2 3 4 5 6 
#
# 1 52.8767 3.8347 10.2076 0.0000 15.1768 0.0000
# 2 3.8347 68.1346 29.3814 0.0000 11.6198 0.0000
# 3 10.2076 29.3814 143.4842 0.0000 26.4913 0.0000
# 4 0.0000 0.0000 0.0000 5.3377 0.0000 2.8572
# 5 15.1768 11.6198 26.4913 0.0000 32.9076 0.0000
# 6 0.0000 0.0000 0.0000 2.8572 0.0000 18.1699
#
#
#
# Elastic Compliance Matrix: (Units=1/GPa)
#
#
# Indices 1 2 3 4 5 6 
#
# 1 0.021824 0.000429 0.000289 0.000000 -0.010449 0.000000
# 2 0.000429 0.016470 -0.002693 0.000000 -0.003846 0.000000
# 3 0.000289 -0.002693 0.008632 0.000000 -0.006131 0.000000
# 4 0.000000 0.000000 0.000000 0.204564 0.000000 -0.032167
# 5 -0.010449 -0.003846 -0.006131 0.000000 0.041501 0.000000
# 6 0.000000 0.000000 0.000000 -0.032167 0.000000 0.060094
#
#
# Mechanical properties :
#
#
# Convention : Reuss Voigt Hill
#
# Bulk Modulus (GPa) = 23.26874 39.03810 31.15342
# Shear Modulus (GPa) = 13.46398 26.02116 19.74257
#
# Velocity S-wave (km/s) = 2.46917 3.43264 2.98997
# Velocity P-wave (km/s) = 4.32039 5.77824 5.10166
#
# Compressibility (1/GPa) = 0.04297610
#
# Stress axis : x y z
#
# Youngs Moduli (GPa) = 45.82067 60.71717 115.84304
#
# Poissons Ratio (x) = -0.02606 -0.03345
# Poissons Ratio (y) = -0.01967 0.31197
# Poissons Ratio (z) = -0.01323 0.16352
#
# Static dielectric constant tensor:
#      x y z
#    x 1.901510 0.000000 0.012610 
#    y 0.000000 1.806260 0.000000 
#    z 0.012610 0.000000 1.831680 
# 
# From -- ./inp_files/111595.got.cif
#   From: 2010.05.17/outbox.cif.g08.bks.cpg/sg15_56_cif.got.tgz:111595.got - 2010.06.03 18:47:42.
