data_PCOD9284819
_publ_section_title
;
Structure prediction by ZEFSAII (Michael W. Deem and Ramdas Pophale) SiO2 
 PCOD9284819
Probable space group: C 2/C
;
_chemical_formula_sum "Si O2"
_cell_formula_units_Z 44
_cell_length_a 16.069212
_cell_length_b 22.967762
_cell_length_c 4.955771
_cell_angle_alpha 90.000000
_cell_angle_beta 79.873535
_cell_angle_gamma 90.000000
_cell_volume 1800.552681
_symmetry_space_group_name_H-M "C 2/C"
_symmetry_group_IT_number 15
_symmetry_cell_setting 'monoclinic'
loop_
_space_group_symop_operation_xyz
x,y,z
-x,y,1/2-z
-x,-y,-z
x,-y,1/2+z
1/2+x,1/2+y,z
1/2-x,1/2+y,1/2-z
1/2-x,1/2-y,-z
1/2+x,1/2-y,1/2+z
loop_
_atom_site_type_symbol
_atom_site_label
_atom_site_fract_x
_atom_site_fract_y
_atom_site_fract_z
Si Si1 0.178764 0.539421 0.721762
Si Si2 0.425434 0.641453 0.481021
Si Si3 0.254933 0.856012 0.595632
Si Si4 0.500000 0.748333 0.750000
Si Si5 0.177284 0.702907 0.955347
Si Si6 0.500000 0.956649 0.250000
Si Si7 0.000000 0.954987 0.250000
O O1 0.181313 0.483028 0.523990
O O2 0.245245 0.582220 0.556053
O O3 0.089794 0.573483 0.716878
O O4 0.500000 0.618916 0.250000
O O5 0.344126 0.656149 0.349258
O O6 0.454129 0.703546 0.576416
O O7 0.424714 0.592072 0.718409
O O8 0.297416 0.850866 0.861923
O O9 0.303310 0.812623 0.364463
O O10 0.420766 0.782088 0.930506
O O11 0.250000 0.750000 0.000000
O O12 0.500000 0.000000 0.500000
O O13 0.000000 0.000000 0.500000
#
# Coordination Sequence:
#
# PCOD9284819 Si02
#       7
#     8   8   8   4   8   4   4
#     4  10  21  41  64  96 132 175 215 274 336 400
#     4  11  25  45  73 100 139 193 237 285 365 434
#     4  12  27  44  72 104 142 178 242 287 349 427
#     4  11  26  44  75 100 142 188 231 295 378 408
#     4  12  26  47  69 104 139 184 235 299 348 428
#     4   8  16  32  59  82 118 166 209 252 324 392
#     4  11  24  44  66 104 142 186 242 295 340 418
#
# _framework density 24.436942999999999
#
# number of rings (size 3 to 8) (size 9 to 14) (size 15 to 20)
#    0.000    1.091    2.727    2.727    5.091    2.909 
#    0.000    1.818    0.000    0.000    0.000    0.000 
#    0.000    0.000    0.000    0.000    0.000    0.000 
#
# Total GULP energy -122778.591974 kJ/mol
# GULP energy per Si atom -5580.845090 kJ/mol
# Density = 2.438132 g / cm^3
# Si number density = 24.436943 Si / 1000 Ang^3
#
#
#
# Elastic Constant Matrix: (Units=GPa)
#
#
# Indices 1 2 3 4 5 6 
#
# 1 112.9617 20.4145 9.1350 0.0000 -11.8966 0.0000
# 2 20.4145 76.1535 6.2781 0.0000 -5.0278 0.0000
# 3 9.1350 6.2781 109.6751 0.0000 4.3942 0.0000
# 4 0.0000 0.0000 0.0000 31.7765 0.0000 -0.2490
# 5 -11.8966 -5.0278 4.3942 0.0000 31.3450 0.0000
# 6 0.0000 0.0000 0.0000 -0.2490 0.0000 15.4356
#
#
#
# Elastic Compliance Matrix: (Units=1/GPa)
#
#
# Indices 1 2 3 4 5 6 
#
# 1 0.009696 -0.002306 -0.000813 0.000000 0.003424 0.000000
# 2 -0.002306 0.013900 -0.000662 0.000000 0.001447 0.000000
# 3 -0.000813 -0.000662 0.009292 0.000000 -0.001717 0.000000
# 4 0.000000 0.000000 0.000000 0.031474 0.000000 0.000508
# 5 0.003424 0.001447 -0.001717 0.000000 0.033675 0.000000
# 6 0.000000 0.000000 0.000000 0.000508 0.000000 0.064793
#
#
# Mechanical properties :
#
#
# Convention : Reuss Voigt Hill
#
# Bulk Modulus (GPa) = 39.48393 41.16062 40.32227
# Shear Modulus (GPa) = 27.95906 33.24227 30.60066
#
# Velocity S-wave (km/s) = 3.38617 3.69226 3.54252
# Velocity P-wave (km/s) = 5.61077 5.92092 5.76793
#
# Compressibility (1/GPa) = 0.02532676
#
# Stress axis : x y z
#
# Youngs Moduli (GPa) = 103.13939 71.94438 107.61705
#
# Poissons Ratio (x) = 0.16591 0.08746
# Poissons Ratio (y) = 0.23784 0.07120
# Poissons Ratio (z) = 0.08383 0.04760
#
# Static dielectric constant tensor:
#      x y z
#    x 2.198220 0.000000 -0.093420 
#    y 0.000000 2.000690 0.000000 
#    z -0.093420 0.000000 2.038250 
# 
# From -- ./inp_files/7583.got.cif
#   From: 2010.05.17/outbox.cif.g08.bks.cpg/sg15_4_cif.got.tgz:7583.got - 2010.06.03 18:47:42.
