data_PCOD9284637
_publ_section_title
;
Structure prediction by ZEFSAII (Michael W. Deem and Ramdas Pophale) SiO2 
 PCOD9284637
Probable space group: C 2/C
;
_chemical_formula_sum "Si O2"
_cell_formula_units_Z 56
_cell_length_a 10.489740
_cell_length_b 20.850978
_cell_length_c 14.310520
_cell_angle_alpha 90.000000
_cell_angle_beta 78.631374
_cell_angle_gamma 90.000000
_cell_volume 3068.602852
_symmetry_space_group_name_H-M "C 2/C"
_symmetry_group_IT_number 15
_symmetry_cell_setting 'monoclinic'
loop_
_space_group_symop_operation_xyz
x,y,z
-x,y,1/2-z
-x,-y,-z
x,-y,1/2+z
1/2+x,1/2+y,z
1/2-x,1/2+y,1/2-z
1/2-x,1/2-y,-z
1/2+x,1/2-y,1/2+z
loop_
_atom_site_type_symbol
_atom_site_label
_atom_site_fract_x
_atom_site_fract_y
_atom_site_fract_z
Si Si1 0.862716 0.187457 0.750792
Si Si2 0.620608 0.953328 0.798363
Si Si3 0.645094 0.353969 0.758036
Si Si4 0.108014 0.602580 0.809473
Si Si5 0.303178 0.230397 0.091796
Si Si6 0.514470 0.120548 0.032315
Si Si7 0.277481 0.794362 0.905382
O O1 0.736529 0.145394 0.788491
O O2 0.855123 0.210871 0.645522
O O3 0.856271 0.249855 0.820108
O O4 0.000000 0.154192 0.750000
O O5 0.500000 0.932873 0.750000
O O6 0.748752 0.911290 0.761035
O O7 0.562635 0.937648 0.908779
O O8 0.642262 0.028674 0.782721
O O9 0.500000 0.373279 0.750000
O O10 0.695488 0.303298 0.673114
O O11 0.658784 0.320268 0.858136
O O12 0.000000 0.624359 0.750000
O O13 0.048022 0.607448 0.920984
O O14 0.418114 0.180418 0.058138
O O15 0.250000 0.250000 0.000000
O O16 0.642419 0.144446 0.069124
O O17 0.250000 0.750000 0.000000
#
# Coordination Sequence:
#
# PCOD9284637 Si02
#       7
#     8   8   8   8   8   8   8
#     4  11  22  36  56  89 121 153 190 235 304 357
#     4  10  21  41  63  83 114 160 208 242 286 351
#     4  10  23  37  60  88 117 152 198 245 297 351
#     4  11  24  39  60  87 119 158 201 249 289 346
#     4  10  22  34  57  84 120 152 184 239 295 355
#     4  11  20  38  63  84 113 157 202 240 288 354
#     4  11  21  36  61  87 118 156 194 239 299 364
#
# _framework density 18.249348000000001
#
# number of rings (size 3 to 8) (size 9 to 14) (size 15 to 20)
#    0.000    1.429    4.286    1.286    2.000    2.857 
#    0.000    0.000    0.000    0.857    0.000    0.000 
#    0.000    0.000    0.000    0.000    0.000    0.000 
#
# Total GULP energy -156247.149810 kJ/mol
# GULP energy per Si atom -5580.255350 kJ/mol
# Density = 1.820781 g / cm^3
# Si number density = 18.249348 Si / 1000 Ang^3
#
#
#
# Elastic Constant Matrix: (Units=GPa)
#
#
# Indices 1 2 3 4 5 6 
#
# 1 125.7475 23.8387 41.8229 0.0000 13.2194 0.0000
# 2 23.8387 30.7200 11.8464 0.0000 -0.2752 0.0000
# 3 41.8229 11.8464 119.1814 0.0000 18.5799 0.0000
# 4 0.0000 0.0000 0.0000 19.2343 0.0000 4.4082
# 5 13.2194 -0.2752 18.5799 0.0000 20.7742 0.0000
# 6 0.0000 0.0000 0.0000 4.4082 0.0000 14.1374
#
#
#
# Elastic Compliance Matrix: (Units=1/GPa)
#
#
# Indices 1 2 3 4 5 6 
#
# 1 0.010611 -0.007418 -0.002229 0.000000 -0.004857 0.000000
# 2 -0.007418 0.039326 -0.002467 0.000000 0.007448 0.000000
# 3 -0.002229 -0.002467 0.010693 0.000000 -0.008178 0.000000
# 4 0.000000 0.000000 0.000000 0.055992 0.000000 -0.017459
# 5 -0.004857 0.007448 -0.008178 0.000000 0.058640 0.000000
# 6 0.000000 0.000000 0.000000 -0.017459 0.000000 0.076178
#
#
# Mechanical properties :
#
#
# Convention : Reuss Voigt Hill
#
# Bulk Modulus (GPa) = 27.47081 47.85165 37.66123
# Shear Modulus (GPa) = 17.37312 24.03858 20.70585
#
# Velocity S-wave (km/s) = 3.08877 3.63330 3.37205
# Velocity P-wave (km/s) = 5.27318 6.62413 5.98688
#
# Compressibility (1/GPa) = 0.03640227
#
# Stress axis : x y z
#
# Youngs Moduli (GPa) = 94.24550 25.42824 93.52046
#
# Poissons Ratio (x) = 0.18862 0.20846
# Poissons Ratio (y) = 0.69909 0.23071
# Poissons Ratio (z) = 0.21007 0.06273
#
# Static dielectric constant tensor:
#      x y z
#    x 1.669370 0.000000 0.018200 
#    y 0.000000 1.630530 0.000000 
#    z 0.018200 0.000000 1.635030 
# 
# From -- ./inp_files/136447.got.cif
#   From: 2010.05.17/outbox.cif.g08.bks.cpg/sg15_69_cif.got.tgz:136447.got - 2010.06.03 18:47:42.
