data_PCOD9284622
_publ_section_title
;
Structure prediction by ZEFSAII (Michael W. Deem and Ramdas Pophale) SiO2 
 PCOD9284622
Probable space group: C 2/C
;
_chemical_formula_sum "Si O2"
_cell_formula_units_Z 60
_cell_length_a 8.634342
_cell_length_b 11.690132
_cell_length_c 26.076851
_cell_angle_alpha 90.000000
_cell_angle_beta 108.436598
_cell_angle_gamma 90.000000
_cell_volume 2497.013527
_symmetry_space_group_name_H-M "C 2/C"
_symmetry_group_IT_number 15
_symmetry_cell_setting 'monoclinic'
loop_
_space_group_symop_operation_xyz
x,y,z
-x,y,1/2-z
-x,-y,-z
x,-y,1/2+z
1/2+x,1/2+y,z
1/2-x,1/2+y,1/2-z
1/2-x,1/2-y,-z
1/2+x,1/2-y,1/2+z
loop_
_atom_site_type_symbol
_atom_site_label
_atom_site_fract_x
_atom_site_fract_y
_atom_site_fract_z
Si Si1 0.830412 0.452186 0.585995
Si Si2 0.080485 0.792432 0.869147
Si Si3 0.099371 0.986256 0.150082
Si Si4 0.647431 0.087488 0.615016
Si Si5 0.000000 0.729613 0.750000
Si Si6 0.830324 0.822593 0.463460
Si Si7 0.677592 0.395792 0.262414
Si Si8 0.115532 0.810996 0.429066
O O1 0.763518 0.484745 0.635738
O O2 0.728203 0.545500 0.542116
O O3 0.829633 0.317940 0.576163
O O4 0.017070 0.488333 0.599316
O O5 0.249555 0.745193 0.907188
O O6 0.950412 0.701775 0.878358
O O7 0.069251 0.792303 0.806923
O O8 0.026442 0.916654 0.881395
O O9 0.136705 0.988352 0.214207
O O10 0.018114 0.866883 0.124307
O O11 0.770184 0.065934 0.675278
O O12 0.729498 0.111842 0.569083
O O13 0.839547 0.663942 0.755681
O O14 0.750000 0.750000 0.500000
O O15 0.023374 0.818940 0.473675
O O16 0.500000 0.332704 0.250000
#
# Coordination Sequence:
#
# PCOD9284622 Si02
#       8
#     8   8   8   8   4   8   8   8
#     4  10  23  44  68  91 137 175 221 287 345 408
#     4  10  22  41  68  91 138 176 220 283 347 398
#     4  11  22  40  61  96 136 178 223 283 334 414
#     4  10  21  41  62  94 131 177 225 279 336 403
#     4  10  22  40  64  94 132 196 218 286 352 400
#     4  10  24  46  71  99 132 176 229 288 355 418
#     4  11  21  36  59  93 138 177 239 279 335 415
#     4  11  22  40  67  94 126 173 226 270 345 413
#
# _framework density 24.028704000000001
#
# number of rings (size 3 to 8) (size 9 to 14) (size 15 to 20)
#    0.000    1.600    2.667    3.200    2.800    0.533 
#    4.800    6.667    1.467    0.000    0.000    0.000 
#    0.000    0.000    0.000    0.000    0.000    0.000 
#
# Total GULP energy -167466.724695 kJ/mol
# GULP energy per Si atom -5582.224156 kJ/mol
# Density = 2.397401 g / cm^3
# Si number density = 24.028704 Si / 1000 Ang^3
#
#
#
# Elastic Constant Matrix: (Units=GPa)
#
#
# Indices 1 2 3 4 5 6 
#
# 1 159.6438 38.4737 32.9561 0.0000 -21.7820 0.0000
# 2 38.4737 104.2505 27.3487 0.0000 6.8414 0.0000
# 3 32.9561 27.3487 51.7560 0.0000 2.5972 0.0000
# 4 0.0000 0.0000 0.0000 5.1840 0.0000 -0.3933
# 5 -21.7820 6.8414 2.5972 0.0000 26.7713 0.0000
# 6 0.0000 0.0000 0.0000 -0.3933 0.0000 37.3603
#
#
#
# Elastic Compliance Matrix: (Units=1/GPa)
#
#
# Indices 1 2 3 4 5 6 
#
# 1 0.009050 -0.002640 -0.004794 0.000000 0.008503 0.000000
# 2 -0.002640 0.012047 -0.004444 0.000000 -0.004796 0.000000
# 3 -0.004794 -0.004444 0.024983 0.000000 -0.005189 0.000000
# 4 0.000000 0.000000 0.000000 0.193056 0.000000 0.002033
# 5 0.008503 -0.004796 -0.005189 0.000000 0.046001 0.000000
# 6 0.000000 0.000000 0.000000 0.002033 0.000000 0.026788
#
#
# Mechanical properties :
#
#
# Convention : Reuss Voigt Hill
#
# Bulk Modulus (GPa) = 44.79680 57.02304 50.90992
# Shear Modulus (GPa) = 14.57202 28.32124 21.44663
#
# Velocity S-wave (km/s) = 2.46528 3.43686 2.99079
# Velocity P-wave (km/s) = 5.17561 6.28745 5.75843
#
# Compressibility (1/GPa) = 0.02232302
#
# Stress axis : x y z
#
# Youngs Moduli (GPa) = 110.49516 83.00660 40.02719
#
# Poissons Ratio (x) = 0.21916 0.19190
# Poissons Ratio (y) = 0.29174 0.17788
# Poissons Ratio (z) = 0.52975 0.36889
#
# Static dielectric constant tensor:
#      x y z
#    x 2.055150 0.000000 -0.000060 
#    y 0.000000 1.896990 0.000000 
#    z -0.000060 0.000000 1.967400 
# 
# From -- ./inp_files/307221.got.cif
#   From: 2010.05.17/outbox.cif.g08.bks.cpg/sg15_154_cif.got.tgz:307221.got - 2010.06.03 18:47:42.
