data_PCOD9284270
_publ_section_title
;
Structure prediction by ZEFSAII (Michael W. Deem and Ramdas Pophale) SiO2 
 PCOD9284270
Probable space group: C 2/C
;
_chemical_formula_sum "Si O2"
_cell_formula_units_Z 52
_cell_length_a 13.661201
_cell_length_b 5.838126
_cell_length_c 28.664496
_cell_angle_alpha 90.000000
_cell_angle_beta 114.436919
_cell_angle_gamma 90.000000
_cell_volume 2081.359739
_symmetry_space_group_name_H-M "C 2/C"
_symmetry_group_IT_number 15
_symmetry_cell_setting 'monoclinic'
loop_
_space_group_symop_operation_xyz
x,y,z
-x,y,1/2-z
-x,-y,-z
x,-y,1/2+z
1/2+x,1/2+y,z
1/2-x,1/2+y,1/2-z
1/2-x,1/2-y,-z
1/2+x,1/2-y,1/2+z
loop_
_atom_site_type_symbol
_atom_site_label
_atom_site_fract_x
_atom_site_fract_y
_atom_site_fract_z
Si Si1 0.642625 0.258778 0.431144
Si Si2 0.357981 0.523339 0.478006
Si Si3 0.599209 0.248852 0.613241
Si Si4 0.205345 0.366400 0.585326
Si Si5 0.919043 0.623248 0.640710
Si Si6 0.767284 0.327887 0.727629
Si Si7 0.500000 0.022990 0.250000
O O1 0.589682 0.357358 0.467167
O O2 0.730647 0.065344 0.462770
O O3 0.718480 0.445461 0.422646
O O4 0.575402 0.135672 0.377972
O O5 0.391709 0.636502 0.435727
O O6 0.363975 0.255814 0.468503
O O7 0.686705 0.333958 0.667610
O O8 0.631226 0.985176 0.608724
O O9 0.483290 0.266182 0.614428
O O10 0.295562 0.195296 0.623531
O O11 0.981231 0.632744 0.701083
O O12 0.751680 0.576470 0.751297
O O13 0.891405 0.333272 0.735599
#
# Coordination Sequence:
#
# PCOD9284270 Si02
#       7
#     8   8   8   8   8   8   4
#     4   9  19  39  63 100 132 184 231 295 354 439
#     4   9  19  37  66  96 139 178 236 287 363 427
#     4  11  25  43  67 102 139 183 235 303 355 443
#     4  10  21  40  68  93 138 184 233 291 362 431
#     4  11  25  43  66 100 137 179 246 291 368 437
#     4  12  29  50  77 109 148 194 249 308 376 443
#     4  12  26  48  74 102 142 196 240 316 372 448
#
# _framework density 24.983668000000002
#
# number of rings (size 3 to 8) (size 9 to 14) (size 15 to 20)
#    0.000    1.538    1.538    3.231    4.308    6.154 
#    0.000    1.538    0.000    0.000    0.000    0.000 
#    0.000    0.000    0.000    0.000    0.000    0.000 
#
# Total GULP energy -145269.102125 kJ/mol
# GULP energy per Si atom -5587.273159 kJ/mol
# Density = 2.492680 g / cm^3
# Si number density = 24.983668 Si / 1000 Ang^3
#
#
#
# Elastic Constant Matrix: (Units=GPa)
#
#
# Indices 1 2 3 4 5 6 
#
# 1 138.0217 32.3592 8.0271 0.0000 -11.9819 0.0000
# 2 32.3592 92.5956 27.5399 0.0000 -18.4852 0.0000
# 3 8.0271 27.5399 94.7409 0.0000 -35.7511 0.0000
# 4 0.0000 0.0000 0.0000 29.5598 0.0000 0.9974
# 5 -11.9819 -18.4852 -35.7511 0.0000 28.8976 0.0000
# 6 0.0000 0.0000 0.0000 0.9974 0.0000 0.1371
#
#
#
# Elastic Compliance Matrix: (Units=1/GPa)
#
#
# Indices 1 2 3 4 5 6 
#
# 1 0.008054 -0.002539 0.001318 0.000000 0.003347 0.000000
# 2 -0.002539 0.013247 -0.001567 0.000000 0.005483 0.000001
# 3 0.001318 -0.001567 0.020120 0.000000 0.024436 0.000000
# 4 0.000000 0.000000 0.000000 0.044835 0.000000 -0.326159
# 5 0.003347 0.005483 0.024436 0.000000 0.069732 0.000000
# 6 0.000000 0.000001 0.000000 -0.326159 0.000000 9.666407
#
#
# Mechanical properties :
#
#
# Convention : Reuss Voigt Hill
#
# Bulk Modulus (GPa) = 27.89547 51.24563 39.57055
# Shear Modulus (GPa) = 0.50813 28.88102 14.69458
#
# Velocity S-wave (km/s) = 0.45147 3.40368 2.42785
# Velocity P-wave (km/s) = 3.38548 6.00024 4.87157
#
# Compressibility (1/GPa) = 0.03584811
#
# Stress axis : x y z
#
# Youngs Moduli (GPa) = 124.15722 75.48622 49.70184
#
# Poissons Ratio (x) = 0.19164 -0.06553
# Poissons Ratio (y) = 0.31520 0.07786
# Poissons Ratio (z) = -0.16370 0.11825
#
# Static dielectric constant tensor:
#      x y z
#    x 1.971500 0.000000 0.029150 
#    y 0.000000 2.102250 0.000000 
#    z 0.029150 0.000000 2.000300 
# 
# From -- ./inp_files/312425.got.cif
#   From: 2010.05.17/outbox.cif.g08.bks.cpg/sg15_157_cif.got.tgz:312425.got - 2010.06.03 18:47:42.
