data_PCOD9284041
_publ_section_title
;
Structure prediction by ZEFSAII (Michael W. Deem and Ramdas Pophale) SiO2 
 PCOD9284041
Probable space group: C 2/C
;
_chemical_formula_sum "Si O2"
_cell_formula_units_Z 56
_cell_length_a 11.320579
_cell_length_b 33.620292
_cell_length_c 8.028071
_cell_angle_alpha 90.000000
_cell_angle_beta 59.700272
_cell_angle_gamma 90.000000
_cell_volume 2638.106576
_symmetry_space_group_name_H-M "C 2/C"
_symmetry_group_IT_number 15
_symmetry_cell_setting 'monoclinic'
loop_
_space_group_symop_operation_xyz
x,y,z
-x,y,1/2-z
-x,-y,-z
x,-y,1/2+z
1/2+x,1/2+y,z
1/2-x,1/2+y,1/2-z
1/2-x,1/2-y,-z
1/2+x,1/2-y,1/2+z
loop_
_atom_site_type_symbol
_atom_site_label
_atom_site_fract_x
_atom_site_fract_y
_atom_site_fract_z
Si Si1 0.046758 0.543702 0.908739
Si Si2 0.202813 0.585127 0.298084
Si Si3 0.201079 0.911521 0.384883
Si Si4 0.951454 0.043074 0.974345
Si Si5 0.649253 0.245508 0.224161
Si Si6 0.881378 0.173249 0.564465
Si Si7 0.807740 0.170098 0.225295
O O1 0.203797 0.558502 0.790436
O O2 0.000000 0.546483 0.750000
O O3 0.000000 0.500000 0.000000
O O4 0.955133 0.573254 0.084233
O O5 0.247341 0.585383 0.461876
O O6 0.236438 0.629488 0.218495
O O7 0.295687 0.553480 0.131134
O O8 0.194992 0.866682 0.317383
O O9 0.044508 0.925120 0.503523
O O10 0.000000 0.047016 0.750000
O O11 0.000000 0.000000 0.000000
O O12 0.500000 0.241546 0.250000
O O13 0.662337 0.284908 0.327501
O O14 0.703647 0.206307 0.276647
O O15 0.750000 0.250000 0.000000
O O16 0.848385 0.170670 0.391379
O O17 0.045849 0.172425 0.471827
#
# Coordination Sequence:
#
# PCOD9284041 Si02
#       7
#     8   8   8   8   8   8   8
#     4  10  22  39  61  89 128 163 201 254 313 374
#     4  10  21  41  65  91 122 160 210 266 314 373
#     4  10  21  40  66  92 120 164 208 262 321 371
#     4  12  24  37  59  91 123 163 211 258 310 378
#     4  12  25  42  63  94 135 172 207 264 329 388
#     4  10  21  41  69  95 126 166 218 269 320 387
#     4  10  21  42  68  95 126 167 218 268 320 388
#
# _framework density 21.227345
#
# number of rings (size 3 to 8) (size 9 to 14) (size 15 to 20)
#    0.000    1.429    2.857    2.571    0.000    6.286 
#    0.000    2.143    0.000    0.000    0.000    0.000 
#    0.000    0.000    0.000    0.000    0.000    0.000 
#
# Total GULP energy -156321.197144 kJ/mol
# GULP energy per Si atom -5582.899898 kJ/mol
# Density = 2.117903 g / cm^3
# Si number density = 21.227345 Si / 1000 Ang^3
#
#
#
# Elastic Constant Matrix: (Units=GPa)
#
#
# Indices 1 2 3 4 5 6 
#
# 1 45.3429 1.2479 15.8485 0.0000 -9.6727 0.0000
# 2 1.2479 134.2035 37.3480 0.0000 -7.8720 0.0000
# 3 15.8485 37.3480 91.1786 0.0000 -27.0007 0.0000
# 4 0.0000 0.0000 0.0000 30.2707 0.0000 -14.7734
# 5 -9.6727 -7.8720 -27.0007 0.0000 29.3253 0.0000
# 6 0.0000 0.0000 0.0000 -14.7734 0.0000 22.1681
#
#
#
# Elastic Compliance Matrix: (Units=1/GPa)
#
#
# Indices 1 2 3 4 5 6 
#
# 1 0.024240 0.000921 -0.002956 0.000000 0.005521 0.000000
# 2 0.000921 0.008479 -0.003945 0.000000 -0.001052 0.000000
# 3 -0.002956 -0.003945 0.017179 0.000000 0.013783 0.000000
# 4 0.000000 0.000000 0.000000 0.048959 0.000000 0.032627
# 5 0.005521 -0.001052 0.013783 0.000000 0.048329 0.000000
# 6 0.000000 0.000000 0.000000 0.032627 0.000000 0.066854
#
#
# Mechanical properties :
#
#
# Convention : Reuss Voigt Hill
#
# Bulk Modulus (GPa) = 26.35841 42.17932 34.26886
# Shear Modulus (GPa) = 20.95173 30.77153 25.86163
#
# Velocity S-wave (km/s) = 3.14509 3.81151 3.49423
# Velocity P-wave (km/s) = 5.06290 6.26766 5.69722
#
# Compressibility (1/GPa) = 0.03793855
#
# Stress axis : x y z
#
# Youngs Moduli (GPa) = 41.25466 117.94005 58.21198
#
# Poissons Ratio (x) = -0.10862 0.17205
# Poissons Ratio (y) = -0.03799 0.22963
# Poissons Ratio (z) = 0.12193 0.46524
#
# Static dielectric constant tensor:
#      x y z
#    x 0.717710 0.000000 0.241700 
#    y 0.000000 1.841700 0.000000 
#    z 0.241700 0.000000 1.729070 
# 
# From -- ./inp_files/35578.got.cif
#   From: 2010.05.17/outbox.cif.g08.bks.cpg/sg15_18_cif.got.tgz:35578.got - 2010.06.03 18:47:42.
