data_PCOD9284844
_publ_section_title
;
Structure prediction by ZEFSAII (Michael W. Deem and Ramdas Pophale) SiO2 
 PCOD9284844
Probable space group: C 2/C
;
_chemical_formula_sum "Si O2"
_cell_formula_units_Z 56
_cell_length_a 10.448746
_cell_length_b 26.322691
_cell_length_c 8.684532
_cell_angle_alpha 90.000000
_cell_angle_beta 104.431617
_cell_angle_gamma 90.000000
_cell_volume 2313.216008
_symmetry_space_group_name_H-M "C 2/C"
_symmetry_group_IT_number 15
_symmetry_cell_setting 'monoclinic'
loop_
_space_group_symop_operation_xyz
x,y,z
-x,y,1/2-z
-x,-y,-z
x,-y,1/2+z
1/2+x,1/2+y,z
1/2-x,1/2+y,1/2-z
1/2-x,1/2-y,-z
1/2+x,1/2-y,1/2+z
loop_
_atom_site_type_symbol
_atom_site_label
_atom_site_fract_x
_atom_site_fract_y
_atom_site_fract_z
Si Si1 0.676147 0.680543 0.190993
Si Si2 0.909406 0.787520 0.493613
Si Si3 0.649986 0.945169 0.293997
Si Si4 0.807770 0.017433 0.568883
Si Si5 0.920522 0.306158 0.588905
Si Si6 0.616066 0.425601 0.686238
Si Si7 0.148013 0.668296 0.760889
O O1 0.645611 0.707111 0.346215
O O2 0.787802 0.711793 0.135760
O O3 0.718602 0.621185 0.216778
O O4 0.543434 0.679187 0.046770
O O5 0.783986 0.805547 0.355836
O O6 0.975914 0.735999 0.445573
O O7 0.500000 0.962251 0.250000
O O8 0.714671 0.948164 0.145502
O O9 0.652566 0.886547 0.344152
O O10 0.727130 0.983160 0.426096
O O11 0.902699 0.052473 0.491805
O O12 0.860276 0.975167 0.702104
O O13 0.864139 0.336117 0.426432
O O14 0.000000 0.333622 0.750000
O O15 0.500000 0.400178 0.750000
O O16 0.000000 0.690662 0.750000
#
# Coordination Sequence:
#
# PCOD9284844 Si02
#       7
#     8   8   8   8   8   8   8
#     4  11  25  48  73 105 145 196 237 299 371 431
#     4  11  26  47  73 101 142 188 244 302 362 432
#     4  10  21  41  65 102 141 183 237 287 355 421
#     4  10  22  37  68 102 141 185 235 283 349 429
#     4  12  29  47  73 104 139 184 246 303 368 432
#     4  11  21  42  66 101 145 185 233 287 354 424
#     4  11  26  46  73 105 146 192 242 306 365 433
#
# _framework density 24.208722999999999
#
# number of rings (size 3 to 8) (size 9 to 14) (size 15 to 20)
#    0.000    1.143    1.429    3.857    6.000    2.286 
#    0.000    3.571    0.000    0.000    0.000    0.000 
#    0.000    0.000    0.000    0.000    0.000    0.000 
#
# Total GULP energy -156084.886339 kJ/mol
# GULP energy per Si atom -5574.460226 kJ/mol
# Density = 2.415362 g / cm^3
# Si number density = 24.208723 Si / 1000 Ang^3
#
#
#
# Elastic Constant Matrix: (Units=GPa)
#
#
# Indices 1 2 3 4 5 6 
#
# 1 135.7381 15.9379 48.0755 0.0000 6.5599 0.0000
# 2 15.9379 80.0405 15.2555 0.0000 11.9145 0.0000
# 3 48.0755 15.2555 111.0933 0.0000 9.1412 0.0000
# 4 0.0000 0.0000 0.0000 38.4728 0.0000 3.6783
# 5 6.5599 11.9145 9.1412 0.0000 44.7514 0.0000
# 6 0.0000 0.0000 0.0000 3.6783 0.0000 47.3885
#
#
#
# Elastic Compliance Matrix: (Units=1/GPa)
#
#
# Indices 1 2 3 4 5 6 
#
# 1 0.008789 -0.001015 -0.003642 0.000000 -0.000274 0.000000
# 2 -0.001015 0.013386 -0.001137 0.000000 -0.003183 0.000000
# 3 -0.003642 -0.001137 0.010847 0.000000 -0.001379 0.000000
# 4 0.000000 0.000000 0.000000 0.026187 0.000000 -0.002033
# 5 -0.000274 -0.003183 -0.001379 0.000000 0.023515 0.000000
# 6 0.000000 0.000000 0.000000 -0.002033 0.000000 0.021260
#
#
# Mechanical properties :
#
#
# Convention : Reuss Voigt Hill
#
# Bulk Modulus (GPa) = 46.65275 53.93441 50.29358
# Shear Modulus (GPa) = 40.74414 42.62938 41.68676
#
# Velocity S-wave (km/s) = 4.10693 4.20087 4.15417
# Velocity P-wave (km/s) = 6.46545 6.77178 6.62039
#
# Compressibility (1/GPa) = 0.02143496
#
# Stress axis : x y z
#
# Youngs Moduli (GPa) = 113.77385 74.70302 92.19175
#
# Poissons Ratio (x) = 0.07584 0.33573
# Poissons Ratio (y) = 0.11551 0.10482
# Poissons Ratio (z) = 0.41432 0.08494
#
# Static dielectric constant tensor:
#      x y z
#    x 1.979140 0.000000 0.012560 
#    y 0.000000 1.946930 0.000000 
#    z 0.012560 0.000000 1.905970 
# 
# From -- ./inp_files/35292.got.cif
#   From: 2010.05.17/outbox.cif.g08.bks.cpg/sg15_18_cif.got.tgz:35292.got - 2010.06.03 18:47:42.
