data_PCOD9284339
_publ_section_title
;
Structure prediction by ZEFSAII (Michael W. Deem and Ramdas Pophale) SiO2 
 PCOD9284339
Probable space group: C 2/C
;
_chemical_formula_sum "Si O2"
_cell_formula_units_Z 44
_cell_length_a 20.642125
_cell_length_b 14.229634
_cell_length_c 11.373778
_cell_angle_alpha 90.000000
_cell_angle_beta 34.553643
_cell_angle_gamma 90.000000
_cell_volume 1894.837327
_symmetry_space_group_name_H-M "C 2/C"
_symmetry_group_IT_number 15
_symmetry_cell_setting 'monoclinic'
loop_
_space_group_symop_operation_xyz
x,y,z
-x,y,1/2-z
-x,-y,-z
x,-y,1/2+z
1/2+x,1/2+y,z
1/2-x,1/2+y,1/2-z
1/2-x,1/2-y,-z
1/2+x,1/2-y,1/2+z
loop_
_atom_site_type_symbol
_atom_site_label
_atom_site_fract_x
_atom_site_fract_y
_atom_site_fract_z
Si Si1 0.592336 0.724987 0.738144
Si Si2 0.514994 0.398449 0.918756
Si Si3 0.691069 0.633270 0.957488
Si Si4 0.748810 0.292659 0.803164
Si Si5 0.379452 0.012158 0.111993
Si Si6 0.000000 0.400881 0.750000
O O1 0.497199 0.672127 0.954626
O O2 0.635841 0.682466 0.549356
O O3 0.692694 0.726624 0.684605
O O4 0.551758 0.829927 0.768359
O O5 0.411335 0.388482 0.981039
O O6 0.500000 0.500000 0.000000
O O7 0.628771 0.372408 0.676398
O O8 0.747447 0.729181 0.820155
O O9 0.785714 0.552660 0.813633
O O10 0.828229 0.384143 0.672273
O O11 0.403440 0.965408 0.949682
O O12 0.500000 0.000000 0.000000
#
# Coordination Sequence:
#
# PCOD9284339 Si02
#       6
#     8   8   8   8   8   4
#     4  10  21  40  69  93 133 186 236 296 359 420
#     4  10  22  41  72 102 139 185 248 298 351 433
#     4  10  23  44  68 103 143 183 244 297 364 426
#     4  10  21  42  68  94 139 186 231 300 352 424
#     4  12  25  43  69 106 143 189 240 295 362 439
#     4  12  24  42  66 104 140 184 242 288 370 428
#
# _framework density 23.22099
#
# number of rings (size 3 to 8) (size 9 to 14) (size 15 to 20)
#    0.000    1.455    3.636    1.091    0.000    7.273 
#    0.000    0.909    0.000    0.000    0.000    0.000 
#    0.000    0.000    0.000    0.000    0.000    0.000 
#
# Total GULP energy -122810.474822 kJ/mol
# GULP energy per Si atom -5582.294310 kJ/mol
# Density = 2.316814 g / cm^3
# Si number density = 23.220990 Si / 1000 Ang^3
#
#
#
# Elastic Constant Matrix: (Units=GPa)
#
#
# Indices 1 2 3 4 5 6 
#
# 1 59.6920 9.7427 27.7263 0.0000 5.9259 0.0000
# 2 9.7427 102.0066 73.8828 0.0000 13.5907 0.0000
# 3 27.7263 73.8828 228.7927 0.0000 18.2750 0.0000
# 4 0.0000 0.0000 0.0000 47.7201 0.0000 -4.3910
# 5 5.9259 13.5907 18.2750 0.0000 32.9663 0.0000
# 6 0.0000 0.0000 0.0000 -4.3910 0.0000 23.3776
#
#
#
# Elastic Compliance Matrix: (Units=1/GPa)
#
#
# Indices 1 2 3 4 5 6 
#
# 1 0.017891 0.000027 -0.002008 0.000000 -0.002114 0.000000
# 2 0.000027 0.013111 -0.003981 0.000000 -0.003203 0.000000
# 3 -0.002008 -0.003981 0.006006 0.000000 -0.001327 0.000000
# 4 0.000000 0.000000 0.000000 0.021324 0.000000 0.004005
# 5 -0.002114 -0.003203 -0.001327 0.000000 0.032770 0.000000
# 6 0.000000 0.000000 0.000000 0.004005 0.000000 0.043528
#
#
# Mechanical properties :
#
#
# Convention : Reuss Voigt Hill
#
# Bulk Modulus (GPa) = 39.86686 68.13278 53.99982
# Shear Modulus (GPa) = 32.27566 39.42211 35.84888
#
# Velocity S-wave (km/s) = 3.73223 4.12478 3.93340
# Velocity P-wave (km/s) = 5.98151 7.21732 6.62828
#
# Compressibility (1/GPa) = 0.02508349
#
# Stress axis : x y z
#
# Youngs Moduli (GPa) = 55.89468 76.27122 166.50577
#
# Poissons Ratio (x) = -0.00208 0.33435
# Poissons Ratio (y) = -0.00153 0.66292
# Poissons Ratio (z) = 0.11224 0.30366
#
# Static dielectric constant tensor:
#      x y z
#    x 13.816310 0.000000 6.603300 
#    y 0.000000 1.995320 0.000000 
#    z 6.603300 0.000000 5.667980 
# 
# From -- ./inp_files/123271.got.cif
#   From: 2010.05.17/outbox.cif.g08.bks.cpg/sg15_62_cif.got.tgz:123271.got - 2010.06.03 18:47:42.
