data_PCOD9284981
_publ_section_title
;
Structure prediction by ZEFSAII (Michael W. Deem and Ramdas Pophale) SiO2 
 PCOD9284981
Probable space group: C 2/C
;
_chemical_formula_sum "Si O2"
_cell_formula_units_Z 48
_cell_length_a 10.409734
_cell_length_b 11.220755
_cell_length_c 20.758958
_cell_angle_alpha 90.000000
_cell_angle_beta 126.480325
_cell_angle_gamma 90.000000
_cell_volume 1949.648404
_symmetry_space_group_name_H-M "C 2/C"
_symmetry_group_IT_number 15
_symmetry_cell_setting 'monoclinic'
loop_
_space_group_symop_operation_xyz
x,y,z
-x,y,1/2-z
-x,-y,-z
x,-y,1/2+z
1/2+x,1/2+y,z
1/2-x,1/2+y,1/2-z
1/2-x,1/2-y,-z
1/2+x,1/2-y,1/2+z
loop_
_atom_site_type_symbol
_atom_site_label
_atom_site_fract_x
_atom_site_fract_y
_atom_site_fract_z
Si Si1 0.395850 0.334371 0.996917
Si Si2 0.554635 0.756049 0.663255
Si Si3 0.500000 0.041933 0.250000
Si Si4 0.000000 0.063029 0.750000
Si Si5 0.986291 0.643610 0.562921
Si Si6 0.287520 0.079227 0.379587
Si Si7 0.744033 0.068874 0.904800
O O1 0.405586 0.271974 0.070364
O O2 0.577595 0.385738 0.050677
O O3 0.403069 0.246026 0.936730
O O4 0.277102 0.445301 0.954238
O O5 0.520311 0.869664 0.696851
O O6 0.581638 0.648754 0.721051
O O7 0.696641 0.805906 0.661187
O O8 0.344186 0.965569 0.187375
O O9 0.883626 0.979109 0.674970
O O10 0.857543 0.613929 0.469200
O O11 0.875980 0.656802 0.592842
O O12 0.094908 0.528150 0.607204
#
# Coordination Sequence:
#
# PCOD9284981 Si02
#       7
#     8   8   4   4   8   8   8
#     4  10  24  41  68  94 128 176 224 264 328 396
#     4  10  23  42  61  96 129 168 217 263 334 388
#     4  11  24  40  63  92 132 163 212 272 331 378
#     4  11  24  40  67  98 132 175 216 270 337 394
#     4  10  21  41  66  90 126 171 223 266 322 390
#     4  10  22  41  65  93 126 169 218 273 319 394
#     4  11  23  43  64  98 132 170 217 278 323 399
#
# _framework density 24.619824999999999
#
# number of rings (size 3 to 8) (size 9 to 14) (size 15 to 20)
#    0.000    1.667    1.667    1.500    7.000    0.667 
#    0.000    6.667    0.000    0.000    0.000    0.000 
#    0.000    0.000    0.000    0.000    0.000    0.000 
#
# Total GULP energy -134147.305285 kJ/mol
# GULP energy per Si atom -5589.471054 kJ/mol
# Density = 2.456379 g / cm^3
# Si number density = 24.619825 Si / 1000 Ang^3
#
#
#
# Elastic Constant Matrix: (Units=GPa)
#
#
# Indices 1 2 3 4 5 6 
#
# 1 50.2593 10.8771 8.5671 0.0000 -10.3600 0.0000
# 2 10.8771 86.7765 9.9409 0.0000 -3.5188 0.0000
# 3 8.5671 9.9409 46.4666 0.0000 -9.2256 0.0000
# 4 0.0000 0.0000 0.0000 36.6149 0.0000 -5.9903
# 5 -10.3600 -3.5188 -9.2256 0.0000 25.5761 0.0000
# 6 0.0000 0.0000 0.0000 -5.9903 0.0000 38.7775
#
#
#
# Elastic Compliance Matrix: (Units=1/GPa)
#
#
# Indices 1 2 3 4 5 6 
#
# 1 0.022386 -0.002245 -0.002055 0.000000 0.008017 0.000000
# 2 -0.002245 0.012053 -0.002171 0.000000 -0.000035 0.000000
# 3 -0.002055 -0.002171 0.023848 0.000000 0.007471 0.000000
# 4 0.000000 0.000000 0.000000 0.028019 0.000000 0.004328
# 5 0.008017 -0.000035 0.007471 0.000000 0.045037 0.000000
# 6 0.000000 0.000000 0.000000 0.004328 0.000000 0.026457
#
#
# Mechanical properties :
#
#
# Convention : Reuss Voigt Hill
#
# Bulk Modulus (GPa) = 22.05454 26.91917 24.48686
# Shear Modulus (GPa) = 26.90246 30.46819 28.68533
#
# Velocity S-wave (km/s) = 3.30921 3.52170 3.41710
# Velocity P-wave (km/s) = 4.85579 5.24348 5.05335
#
# Compressibility (1/GPa) = 0.04534215
#
# Stress axis : x y z
#
# Youngs Moduli (GPa) = 44.67135 82.96923 41.93303
#
# Poissons Ratio (x) = 0.18630 0.08618
# Poissons Ratio (y) = 0.10031 0.09105
# Poissons Ratio (z) = 0.09180 0.18016
#
# Static dielectric constant tensor:
#      x y z
#    x 2.073820 0.000000 -0.062890 
#    y 0.000000 1.987770 0.000000 
#    z -0.062890 0.000000 1.942180 
# 
# From -- ./inp_files/196156.got.cif
#   From: 2010.05.17/outbox.cif.g08.bks.cpg/sg15_99_cif.got.tgz:196156.got - 2010.06.03 18:47:42.
