data_PCOD9284202
_publ_section_title
;
Structure prediction by ZEFSAII (Michael W. Deem and Ramdas Pophale) SiO2 
 PCOD9284202
Probable space group: C 2/C
;
_chemical_formula_sum "Si O2"
_cell_formula_units_Z 44
_cell_length_a 11.129011
_cell_length_b 9.364088
_cell_length_c 17.773555
_cell_angle_alpha 90.000000
_cell_angle_beta 90.729841
_cell_angle_gamma 90.000000
_cell_volume 1852.085899
_symmetry_space_group_name_H-M "C 2/C"
_symmetry_group_IT_number 15
_symmetry_cell_setting 'monoclinic'
loop_
_space_group_symop_operation_xyz
x,y,z
-x,y,1/2-z
-x,-y,-z
x,-y,1/2+z
1/2+x,1/2+y,z
1/2-x,1/2+y,1/2-z
1/2-x,1/2-y,-z
1/2+x,1/2-y,1/2+z
loop_
_atom_site_type_symbol
_atom_site_label
_atom_site_fract_x
_atom_site_fract_y
_atom_site_fract_z
Si Si1 0.500000 0.703572 0.250000
Si Si2 0.162580 0.666847 0.442267
Si Si3 0.737551 0.060451 0.048110
Si Si4 0.585879 0.662376 0.557935
Si Si5 0.119084 0.933000 0.219378
Si Si6 0.301063 0.821861 0.326923
O O1 0.606013 0.586801 0.260683
O O2 0.442441 0.795352 0.315841
O O3 0.250000 0.750000 0.500000
O O4 0.162811 0.508651 0.477060
O O5 0.227126 0.690308 0.362895
O O6 0.038011 0.751324 0.443879
O O7 0.685053 0.213082 0.068789
O O8 0.722911 0.952452 0.116712
O O9 0.872510 0.079795 0.016874
O O10 0.597263 0.561815 0.630606
O O11 0.000000 0.851566 0.250000
O O12 0.240075 0.861001 0.247417
#
# Coordination Sequence:
#
# PCOD9284202 Si02
#       6
#     4   8   8   8   8   8
#     4  10  24  44  64  94 140 174 228 288 330 408
#     4  10  21  40  67  96 132 176 229 274 341 409
#     4  10  25  41  69 103 133 181 229 286 345 411
#     4  11  22  46  67  99 144 177 227 291 341 412
#     4  10  23  44  70  95 136 185 228 279 343 409
#     4  11  23  44  67 102 131 185 231 281 349 406
#
# _framework density 23.756997999999999
#
# number of rings (size 3 to 8) (size 9 to 14) (size 15 to 20)
#    0.545    1.091    1.818    1.636    2.545    5.818 
#   14.727    0.000    0.000    0.000    0.000    0.000 
#    0.000    0.000    0.000    0.000    0.000    0.000 
#
# Total GULP energy -122724.038377 kJ/mol
# GULP energy per Si atom -5578.365381 kJ/mol
# Density = 2.370293 g / cm^3
# Si number density = 23.756998 Si / 1000 Ang^3
#
#
#
# Elastic Constant Matrix: (Units=GPa)
#
#
# Indices 1 2 3 4 5 6 
#
# 1 118.3928 22.6712 51.2378 0.0000 -33.8676 0.0000
# 2 22.6712 75.5999 20.0462 0.0000 -13.8681 0.0000
# 3 51.2378 20.0462 87.5677 0.0000 -19.9440 0.0000
# 4 0.0000 0.0000 0.0000 22.9020 0.0000 -1.9883
# 5 -33.8676 -13.8681 -19.9440 0.0000 39.2008 0.0000
# 6 0.0000 0.0000 0.0000 -1.9883 0.0000 40.4102
#
#
#
# Elastic Compliance Matrix: (Units=1/GPa)
#
#
# Indices 1 2 3 4 5 6 
#
# 1 0.013544 -0.000985 -0.005784 0.000000 0.008410 0.000000
# 2 -0.000985 0.014667 -0.002028 0.000000 0.003306 0.000000
# 3 -0.005784 -0.002028 0.015797 0.000000 0.002323 0.000000
# 4 0.000000 0.000000 0.000000 0.043852 0.000000 0.002158
# 5 0.008410 0.003306 0.002323 0.000000 0.035127 0.000000
# 6 0.000000 0.000000 0.000000 0.002158 0.000000 0.024852
#
#
# Mechanical properties :
#
#
# Convention : Reuss Voigt Hill
#
# Bulk Modulus (GPa) = 37.85902 52.16342 45.01122
# Shear Modulus (GPa) = 28.69619 33.00961 30.85290
#
# Velocity S-wave (km/s) = 3.47926 3.73160 3.60764
# Velocity P-wave (km/s) = 5.66665 6.36955 6.02835
#
# Compressibility (1/GPa) = 0.02641379
#
# Stress axis : x y z
#
# Youngs Moduli (GPa) = 73.83264 68.17933 63.30176
#
# Poissons Ratio (x) = 0.06717 0.36614
# Poissons Ratio (y) = 0.07274 0.12839
# Poissons Ratio (z) = 0.42705 0.13829
#
# Static dielectric constant tensor:
#      x y z
#    x 1.913000 0.000000 -0.084480 
#    y 0.000000 2.014300 0.000000 
#    z -0.084480 0.000000 1.951130 
# 
# From -- ./inp_files/195642.got.cif
#   From: 2010.05.17/outbox.cif.g08.bks.cpg/sg15_98_cif.got.tgz:195642.got - 2010.06.03 18:47:42.
