data_PCOD9284408
_publ_section_title
;
Structure prediction by ZEFSAII (Michael W. Deem and Ramdas Pophale) SiO2 
 PCOD9284408
Probable space group: C 2/C
;
_chemical_formula_sum "Si O2"
_cell_formula_units_Z 48
_cell_length_a 7.901783
_cell_length_b 21.024236
_cell_length_c 14.557484
_cell_angle_alpha 90.000000
_cell_angle_beta 78.731820
_cell_angle_gamma 90.000000
_cell_volume 2371.800462
_symmetry_space_group_name_H-M "C 2/C"
_symmetry_group_IT_number 15
_symmetry_cell_setting 'monoclinic'
loop_
_space_group_symop_operation_xyz
x,y,z
-x,y,1/2-z
-x,-y,-z
x,-y,1/2+z
1/2+x,1/2+y,z
1/2-x,1/2+y,1/2-z
1/2-x,1/2-y,-z
1/2+x,1/2-y,1/2+z
loop_
_atom_site_type_symbol
_atom_site_label
_atom_site_fract_x
_atom_site_fract_y
_atom_site_fract_z
Si Si1 0.389104 0.582648 0.587895
Si Si2 0.806754 0.256155 0.170462
Si Si3 0.938995 0.659072 0.363267
Si Si4 0.000000 0.149006 0.250000
Si Si5 0.000000 0.844929 0.250000
Si Si6 0.141600 0.061313 0.392695
Si Si7 0.634196 0.812990 0.027048
O O1 0.489378 0.614341 0.660446
O O2 0.530708 0.570152 0.495444
O O3 0.326466 0.513163 0.627074
O O4 0.243546 0.630970 0.564669
O O5 0.693253 0.217770 0.108317
O O6 0.855718 0.201650 0.239415
O O7 0.674168 0.304168 0.230150
O O8 0.029167 0.290292 0.393272
O O9 0.824501 0.596015 0.381836
O O10 0.000000 0.663308 0.250000
O O11 0.074108 0.663455 0.432080
O O12 0.973840 0.099927 0.169300
O O13 0.750000 0.750000 0.000000
#
# Coordination Sequence:
#
# PCOD9284408 Si02
#       7
#     8   8   8   4   4   8   8
#     4  11  25  43  68  95 134 180 228 273 341 391
#     4  11  23  39  67  98 136 171 219 274 335 407
#     4  11  24  42  66  99 134 177 224 275 336 400
#     4  10  21  40  70  98 129 172 230 272 330 398
#     4  12  23  44  64  98 139 178 212 284 346 392
#     4  10  24  45  66  94 129 184 226 281 320 403
#     4  12  25  42  68 104 135 177 217 283 342 402
#
# _framework density 20.23779
#
# number of rings (size 3 to 8) (size 9 to 14) (size 15 to 20)
#    0.000    1.000    0.833    6.000    9.333    0.667 
#    3.000    0.000    0.000    0.000    0.000    0.000 
#    0.000    0.000    0.000    0.000    0.000    0.000 
#
# Total GULP energy -133889.580250 kJ/mol
# GULP energy per Si atom -5578.732510 kJ/mol
# Density = 2.019173 g / cm^3
# Si number density = 20.237790 Si / 1000 Ang^3
#
#
#
# Elastic Constant Matrix: (Units=GPa)
#
#
# Indices 1 2 3 4 5 6 
#
# 1 89.3451 43.4474 49.8781 0.0000 -3.3453 0.0000
# 2 43.4474 146.0927 60.9013 0.0000 -0.5724 0.0000
# 3 49.8781 60.9013 103.8093 0.0000 24.5897 0.0000
# 4 0.0000 0.0000 0.0000 20.8101 0.0000 -11.4572
# 5 -3.3453 -0.5724 24.5897 0.0000 45.1602 0.0000
# 6 0.0000 0.0000 0.0000 -11.4572 0.0000 22.3489
#
#
#
# Elastic Compliance Matrix: (Units=1/GPa)
#
#
# Indices 1 2 3 4 5 6 
#
# 1 0.016989 -0.001365 -0.008790 0.000000 0.006027 0.000000
# 2 -0.001365 0.009666 -0.005763 0.000000 0.003160 0.000000
# 3 -0.008790 -0.005763 0.019987 0.000000 -0.011607 0.000000
# 4 0.000000 0.000000 0.000000 0.066950 0.000000 0.034322
# 5 0.006027 0.003160 -0.011607 0.000000 0.028950 0.000000
# 6 0.000000 0.000000 0.000000 0.034322 0.000000 0.062340
#
#
# Mechanical properties :
#
#
# Convention : Reuss Voigt Hill
#
# Bulk Modulus (GPa) = 67.54055 71.96675 69.75365
# Shear Modulus (GPa) = 20.69083 29.99851 25.34467
#
# Velocity S-wave (km/s) = 3.20095 3.85424 3.54269
# Velocity P-wave (km/s) = 6.86348 7.44612 7.16073
#
# Compressibility (1/GPa) = 0.01480592
#
# Stress axis : x y z
#
# Youngs Moduli (GPa) = 58.86190 103.45865 50.03262
#
# Poissons Ratio (x) = 0.14118 0.43978
# Poissons Ratio (y) = 0.08032 0.28835
# Poissons Ratio (z) = 0.51739 0.59626
#
# Static dielectric constant tensor:
#      x y z
#    x 1.828720 0.000000 0.085410 
#    y 0.000000 1.721860 0.000000 
#    z 0.085410 0.000000 1.846280 
# 
# From -- ./inp_files/134906.got.cif
#   From: 2010.05.17/outbox.cif.g08.bks.cpg/sg15_68_cif.got.tgz:134906.got - 2010.06.03 18:47:42.
