data_PCOD9284735
_publ_section_title
;
Structure prediction by ZEFSAII (Michael W. Deem and Ramdas Pophale) SiO2 
 PCOD9284735
Probable space group: C 2/C
;
_chemical_formula_sum "Si O2"
_cell_formula_units_Z 48
_cell_length_a 15.850819
_cell_length_b 28.800310
_cell_length_c 8.941152
_cell_angle_alpha 90.000000
_cell_angle_beta 147.072038
_cell_angle_gamma 90.000000
_cell_volume 2218.753867
_symmetry_space_group_name_H-M "C 2/C"
_symmetry_group_IT_number 15
_symmetry_cell_setting 'monoclinic'
loop_
_space_group_symop_operation_xyz
x,y,z
-x,y,1/2-z
-x,-y,-z
x,-y,1/2+z
1/2+x,1/2+y,z
1/2-x,1/2+y,1/2-z
1/2-x,1/2-y,-z
1/2+x,1/2-y,1/2+z
loop_
_atom_site_type_symbol
_atom_site_label
_atom_site_fract_x
_atom_site_fract_y
_atom_site_fract_z
Si Si1 0.155004 0.533581 0.062952
Si Si2 0.925977 0.633989 0.479470
Si Si3 0.382343 0.288635 0.316919
Si Si4 0.351419 0.867941 0.429229
Si Si5 0.692905 0.288946 0.641886
Si Si6 0.814424 0.047563 0.986708
O O1 0.240563 0.497513 0.296737
O O2 0.101976 0.578811 0.078388
O O3 0.263381 0.548718 0.084684
O O4 0.000000 0.514512 0.750000
O O5 0.766051 0.660482 0.234934
O O6 0.000000 0.638845 0.750000
O O7 0.048143 0.657214 0.549246
O O8 0.273591 0.333656 0.182976
O O9 0.568318 0.292195 0.588734
O O10 0.324722 0.250283 0.348951
O O11 0.362631 0.276858 0.110396
O O12 0.259236 0.909256 0.212395
O O13 0.500000 0.884039 0.750000
O O14 0.000000 0.047258 0.250000
#
# Coordination Sequence:
#
# PCOD9284735 Si02
#       6
#     8   8   8   8   8   8
#     4  11  24  46  70  96 131 180 223 275 333 404
#     4  11  23  43  66  96 138 173 220 278 334 398
#     4  10  22  38  69  96 134 169 224 274 321 394
#     4  12  24  42  68 100 132 181 227 270 333 402
#     4  10  21  41  64 101 131 173 219 274 328 388
#     4  12  27  45  67  99 136 172 223 282 335 399
#
# _framework density 21.633765
#
# number of rings (size 3 to 8) (size 9 to 14) (size 15 to 20)
#    0.000    1.000    5.000    2.500    7.000    0.000 
#    3.000    4.167    0.000    0.000    0.000    0.000 
#    0.000    0.000    0.000    0.000    0.000    0.000 
#
# Total GULP energy -133798.768291 kJ/mol
# GULP energy per Si atom -5574.948679 kJ/mol
# Density = 2.158453 g / cm^3
# Si number density = 21.633765 Si / 1000 Ang^3
#
#
#
# Elastic Constant Matrix: (Units=GPa)
#
#
# Indices 1 2 3 4 5 6 
#
# 1 157.5540 41.1694 29.0989 0.0000 47.2336 0.0000
# 2 41.1694 52.4163 24.6050 0.0000 6.9609 0.0000
# 3 29.0989 24.6050 54.7760 0.0000 31.0242 0.0000
# 4 0.0000 0.0000 0.0000 1.9493 0.0000 -45.3388
# 5 47.2336 6.9609 31.0242 0.0000 34.4585 0.0000
# 6 0.0000 0.0000 0.0000 -45.3388 0.0000 -233.5815
#
#
#
# Elastic Compliance Matrix: (Units=1/GPa)
#
#
# Indices 1 2 3 4 5 6 
#
# 1 0.023345 -0.024751 0.028585 0.000000 -0.052736 0.000000
# 2 -0.024751 0.052226 -0.048057 0.000000 0.066644 0.000000
# 3 0.028585 -0.048057 0.084380 0.000000 -0.105444 0.000000
# 4 0.000000 0.000000 0.000000 0.093026 0.000000 -0.018057
# 5 -0.052736 0.066644 -0.105444 0.000000 0.182779 0.000000
# 6 0.000000 0.000000 0.000000 -0.018057 0.000000 -0.000776
#
#
# Mechanical properties :
#
#
# Convention : Reuss Voigt Hill
#
# Bulk Modulus (GPa) = 13.98512 50.49922 32.24217
# Shear Modulus (GPa) = 9.13640 -28.10986 -9.48673
#
# Velocity S-wave (km/s) = 2.05728 -3.60856 -2.09635
# Velocity P-wave (km/s) = 3.48162 2.45584 3.01271
#
# Compressibility (1/GPa) = 0.07150456
#
# Stress axis : x y z
#
# Youngs Moduli (GPa) = 42.83600 19.14739 11.85117
#
# Poissons Ratio (x) = 0.47391 -0.33876
# Poissons Ratio (y) = 1.06022 0.56954
# Poissons Ratio (z) = -1.22446 0.92018
#
# Static dielectric constant tensor:
#      x y z
#    x 1.861140 0.000000 0.076110 
#    y 0.000000 1.807670 0.000000 
#    z 0.076110 0.000000 1.942720 
# 
# From -- ./inp_files/43933.got.cif
#   From: 2010.05.17/outbox.cif.g08.bks.cpg/sg15_22_cif.got.tgz:43933.got - 2010.06.03 18:47:42.
