data_PCOD9284378
_publ_section_title
;
Structure prediction by ZEFSAII (Michael W. Deem and Ramdas Pophale) SiO2 
 PCOD9284378
Probable space group: C 2/C
;
_chemical_formula_sum "Si O2"
_cell_formula_units_Z 48
_cell_length_a 11.772047
_cell_length_b 14.042005
_cell_length_c 19.205931
_cell_angle_alpha 90.000000
_cell_angle_beta 130.287455
_cell_angle_gamma 90.000000
_cell_volume 2421.769533
_symmetry_space_group_name_H-M "C 2/C"
_symmetry_group_IT_number 15
_symmetry_cell_setting 'monoclinic'
loop_
_space_group_symop_operation_xyz
x,y,z
-x,y,1/2-z
-x,-y,-z
x,-y,1/2+z
1/2+x,1/2+y,z
1/2-x,1/2+y,1/2-z
1/2-x,1/2-y,-z
1/2+x,1/2-y,1/2+z
loop_
_atom_site_type_symbol
_atom_site_label
_atom_site_fract_x
_atom_site_fract_y
_atom_site_fract_z
Si Si1 0.439862 0.472710 0.112086
Si Si2 0.236830 0.955638 0.315017
Si Si3 0.853191 0.651594 0.369388
Si Si4 0.143368 0.179918 0.415338
Si Si5 0.623285 0.710867 0.000997
Si Si6 0.818365 0.758932 0.819904
O O1 0.604966 0.486945 0.209725
O O2 0.338548 0.445199 0.138812
O O3 0.375712 0.573598 0.060649
O O4 0.435940 0.387777 0.055164
O O5 0.294573 0.853572 0.315659
O O6 0.361491 0.037583 0.366944
O O7 0.717066 0.667855 0.369036
O O8 0.808675 0.695473 0.277868
O O9 0.994908 0.708735 0.452964
O O10 0.250000 0.250000 0.500000
O O11 0.978156 0.221117 0.349301
O O12 0.750000 0.750000 0.000000
O O13 0.681537 0.698850 0.102292
#
# Coordination Sequence:
#
# PCOD9284378 Si02
#       6
#     8   8   8   8   8   8
#     4  10  21  41  66  95 131 172 216 257 335 396
#     4  10  21  40  70  90 128 184 209 256 331 397
#     4  11  24  44  67  95 133 170 222 266 320 396
#     4  11  23  43  69  99 126 171 219 274 324 386
#     4  12  25  41  68 100 131 170 218 276 322 386
#     4  12  23  41  69  95 131 169 220 267 325 380
#
# _framework density 19.820218000000001
#
# number of rings (size 3 to 8) (size 9 to 14) (size 15 to 20)
#    0.000    1.000    6.667    0.500    0.000    3.333 
#    3.000    0.000    3.667    0.000    0.000    0.000 
#    0.000    0.000    0.000    0.000    0.000    0.000 
#
# Total GULP energy -134145.985936 kJ/mol
# GULP energy per Si atom -5589.416081 kJ/mol
# Density = 1.977511 g / cm^3
# Si number density = 19.820218 Si / 1000 Ang^3
#
#
#
# Elastic Constant Matrix: (Units=GPa)
#
#
# Indices 1 2 3 4 5 6 
#
# 1 59.7082 9.9727 -9.8280 0.0000 -0.2224 0.0000
# 2 9.9727 127.9159 3.3979 0.0000 -6.7255 0.0000
# 3 -9.8280 3.3979 53.8278 0.0000 -24.2707 0.0000
# 4 0.0000 0.0000 0.0000 33.3806 0.0000 5.9747
# 5 -0.2224 -6.7255 -24.2707 0.0000 28.2794 0.0000
# 6 0.0000 0.0000 0.0000 5.9747 0.0000 31.6912
#
#
#
# Elastic Compliance Matrix: (Units=1/GPa)
#
#
# Indices 1 2 3 4 5 6 
#
# 1 0.017859 -0.001302 0.005329 0.000000 0.004404 0.000000
# 2 -0.001302 0.008022 0.000182 0.000000 0.002054 0.000000
# 3 0.005329 0.000182 0.031936 0.000000 0.027494 0.000000
# 4 0.000000 0.000000 0.000000 0.031004 0.000000 -0.005845
# 5 0.004404 0.002054 0.027494 0.000000 0.059481 0.000000
# 6 0.000000 0.000000 0.000000 -0.005845 0.000000 0.032656
#
#
# Mechanical properties :
#
#
# Convention : Reuss Voigt Hill
#
# Bulk Modulus (GPa) = 15.09792 27.61522 21.35657
# Shear Modulus (GPa) = 25.69095 34.53086 30.11090
#
# Velocity S-wave (km/s) = 3.60418 4.17850 3.90192
# Velocity P-wave (km/s) = 4.99541 6.10270 5.57661
#
# Compressibility (1/GPa) = 0.06623430
#
# Stress axis : x y z
#
# Youngs Moduli (GPa) = 55.99367 124.65221 31.31230
#
# Poissons Ratio (x) = 0.16234 -0.16686
# Poissons Ratio (y) = 0.07292 -0.00569
# Poissons Ratio (z) = -0.29838 -0.02266
#
# Static dielectric constant tensor:
#      x y z
#    x 1.680510 0.000000 -0.000380 
#    y 0.000000 1.709860 0.000000 
#    z -0.000380 0.000000 1.694050 
# 
# From -- ./inp_files/237405.got.cif
#   From: 2010.05.17/outbox.cif.g08.bks.cpg/sg15_119_cif.got.tgz:237405.got - 2010.06.03 18:47:42.
