data_PCOD9284521
_publ_section_title
;
Structure prediction by ZEFSAII (Michael W. Deem and Ramdas Pophale) SiO2 
 PCOD9284521
Probable space group: C 2/C
;
_chemical_formula_sum "Si O2"
_cell_formula_units_Z 48
_cell_length_a 9.551474
_cell_length_b 12.488883
_cell_length_c 17.876941
_cell_angle_alpha 90.000000
_cell_angle_beta 94.974245
_cell_angle_gamma 90.000000
_cell_volume 2124.459533
_symmetry_space_group_name_H-M "C 2/C"
_symmetry_group_IT_number 15
_symmetry_cell_setting 'monoclinic'
loop_
_space_group_symop_operation_xyz
x,y,z
-x,y,1/2-z
-x,-y,-z
x,-y,1/2+z
1/2+x,1/2+y,z
1/2-x,1/2+y,1/2-z
1/2-x,1/2-y,-z
1/2+x,1/2-y,1/2+z
loop_
_atom_site_type_symbol
_atom_site_label
_atom_site_fract_x
_atom_site_fract_y
_atom_site_fract_z
Si Si1 0.819646 0.104077 0.037459
Si Si2 0.598865 0.166778 0.917266
Si Si3 0.377359 0.786708 0.685230
Si Si4 0.129478 0.635408 0.700248
Si Si5 0.758979 0.004626 0.817834
Si Si6 0.021228 0.912401 0.401516
O O1 0.867678 0.207247 0.086859
O O2 0.663070 0.127846 0.999505
O O3 0.928114 0.102949 0.971807
O O4 0.847572 0.989552 0.075423
O O5 0.439751 0.142689 0.884998
O O6 0.691120 0.099056 0.863482
O O7 0.500000 0.809856 0.750000
O O8 0.249738 0.722283 0.716722
O O9 0.436490 0.702875 0.627715
O O10 0.306294 0.895586 0.654155
O O11 0.200580 0.525085 0.731647
O O12 0.000000 0.657547 0.750000
O O13 0.923388 0.022721 0.837885
#
# Coordination Sequence:
#
# PCOD9284521 Si02
#       6
#     8   8   8   8   8   8
#     4   9  19  39  65  90 133 173 222 269 329 403
#     4   9  18  38  61  87 126 178 213 264 333 393
#     4  12  23  41  67 100 132 173 226 275 346 404
#     4  10  21  41  60  94 131 168 219 280 336 395
#     4  10  21  41  63  91 136 168 219 288 331 396
#     4  10  21  41  64  96 129 176 219 279 331 401
#
# _framework density 22.593982
#
# number of rings (size 3 to 8) (size 9 to 14) (size 15 to 20)
#    0.000    2.000    1.667    2.500    0.000    0.000 
#    9.000   21.667    0.000    0.000    0.000    0.000 
#    0.000    0.000    0.000    0.000    0.000    0.000 
#
# Total GULP energy -133892.939082 kJ/mol
# GULP energy per Si atom -5578.872462 kJ/mol
# Density = 2.254256 g / cm^3
# Si number density = 22.593982 Si / 1000 Ang^3
#
#
#
# Elastic Constant Matrix: (Units=GPa)
#
#
# Indices 1 2 3 4 5 6 
#
# 1 77.4640 19.1453 21.3523 0.0000 12.6619 0.0000
# 2 19.1453 121.3474 48.2015 0.0000 12.6967 0.0000
# 3 21.3523 48.2015 45.4798 0.0000 9.1383 0.0000
# 4 0.0000 0.0000 0.0000 4.1444 0.0000 -60.9770
# 5 12.6619 12.6967 9.1383 0.0000 33.5280 0.0000
# 6 0.0000 0.0000 0.0000 -60.9770 0.0000 -85.3605
#
#
#
# Elastic Compliance Matrix: (Units=1/GPa)
#
#
# Indices 1 2 3 4 5 6 
#
# 1 0.015393 0.000942 -0.007390 0.000000 -0.004156 0.000000
# 2 0.000942 0.014348 -0.015325 0.000000 -0.001612 0.000000
# 3 -0.007390 -0.015325 0.042289 0.000000 -0.002932 0.000000
# 4 0.000000 0.000000 0.000000 0.020963 0.000000 -0.014975
# 5 -0.004156 -0.001612 -0.002932 0.000000 0.032805 0.000000
# 6 0.000000 0.000000 0.000000 -0.014975 0.000000 -0.001018
#
#
# Mechanical properties :
#
#
# Convention : Reuss Voigt Hill
#
# Bulk Modulus (GPa) = 35.10854 46.85437 40.98145
# Shear Modulus (GPa) = 28.11822 0.83518 14.47670
#
# Velocity S-wave (km/s) = 3.53158 0.60865 2.53402
# Velocity P-wave (km/s) = 5.67468 4.61265 5.17100
#
# Compressibility (1/GPa) = 0.02848310
#
# Stress axis : x y z
#
# Youngs Moduli (GPa) = 64.96606 69.69415 23.64703
#
# Poissons Ratio (x) = -0.06562 0.17474
# Poissons Ratio (y) = -0.06117 0.36240
# Poissons Ratio (z) = 0.48008 1.06808
#
# Static dielectric constant tensor:
#      x y z
#    x 2.149840 0.000000 0.228890 
#    y 0.000000 1.847760 0.000000 
#    z 0.228890 0.000000 2.063000 
# 
# From -- ./inp_files/196235.got.cif
#   From: 2010.05.17/outbox.cif.g08.bks.cpg/sg15_99_cif.got.tgz:196235.got - 2010.06.03 18:47:42.
