data_PCOD9284483
_publ_section_title
;
Structure prediction by ZEFSAII (Michael W. Deem and Ramdas Pophale) SiO2 
 PCOD9284483
Probable space group: C 2/C
;
_chemical_formula_sum "Si O2"
_cell_formula_units_Z 48
_cell_length_a 13.650604
_cell_length_b 20.814071
_cell_length_c 9.306329
_cell_angle_alpha 90.000000
_cell_angle_beta 48.057456
_cell_angle_gamma 90.000000
_cell_volume 1966.765124
_symmetry_space_group_name_H-M "C 2/C"
_symmetry_group_IT_number 15
_symmetry_cell_setting 'monoclinic'
loop_
_space_group_symop_operation_xyz
x,y,z
-x,y,1/2-z
-x,-y,-z
x,-y,1/2+z
1/2+x,1/2+y,z
1/2-x,1/2+y,1/2-z
1/2-x,1/2-y,-z
1/2+x,1/2-y,1/2+z
loop_
_atom_site_type_symbol
_atom_site_label
_atom_site_fract_x
_atom_site_fract_y
_atom_site_fract_z
Si Si1 0.920903 0.748507 0.686663
Si Si2 0.645650 0.635803 0.541210
Si Si3 0.234948 0.864629 0.264226
Si Si4 0.050199 0.890873 0.845050
Si Si5 0.976510 0.434834 0.105145
Si Si6 0.411627 0.817507 0.692919
O O1 0.806244 0.700518 0.748358
O O2 0.000000 0.724821 0.750000
O O3 0.880938 0.822069 0.760394
O O4 0.025290 0.742018 0.453868
O O5 0.500000 0.652254 0.750000
O O6 0.726116 0.616961 0.604464
O O7 0.622508 0.589496 0.424115
O O8 0.755334 0.687378 0.376942
O O9 0.090068 0.868862 0.461492
O O10 0.323527 0.918880 0.245443
O O11 0.000000 0.928021 0.750000
O O12 0.000000 0.438469 0.250000
O O13 0.000000 0.500000 0.000000
O O14 0.056042 0.378471 0.942294
O O15 0.500000 0.824699 0.750000
#
# Coordination Sequence:
#
# PCOD9284483 Si02
#       6
#     8   8   8   8   8   8
#     4  10  22  35  55  88 126 166 215 261 304 359
#     4  10  22  39  57  85 124 170 202 256 307 370
#     4  10  21  41  57  88 129 156 210 263 300 369
#     4  10  24  36  57  87 125 178 211 248 311 371
#     4  11  24  41  69 101 121 151 201 260 315 371
#     4  11  20  38  65  90 122 165 206 265 310 357
#
# _framework density 24.405557000000002
#
# number of rings (size 3 to 8) (size 9 to 14) (size 15 to 20)
#    0.000    1.667    3.333    2.500    7.000    4.000 
#    0.000    0.000    0.000    5.000    0.000    0.000 
#    0.000    0.000    0.000    0.000    0.000    0.000 
#
# Total GULP energy -133640.907547 kJ/mol
# GULP energy per Si atom -5568.371148 kJ/mol
# Density = 2.435001 g / cm^3
# Si number density = 24.405557 Si / 1000 Ang^3
#
#
#
# Elastic Constant Matrix: (Units=GPa)
#
#
# Indices 1 2 3 4 5 6 
#
# 1 192.4609 0.1054 38.9251 0.0000 53.1545 0.0000
# 2 0.1054 52.7536 -3.4183 0.0000 17.8304 0.0000
# 3 38.9251 -3.4183 82.3288 0.0000 29.8046 0.0000
# 4 0.0000 0.0000 0.0000 13.8415 0.0000 3.9106
# 5 53.1545 17.8304 29.8046 0.0000 84.4083 0.0000
# 6 0.0000 0.0000 0.0000 3.9106 0.0000 -10.6211
#
#
#
# Elastic Compliance Matrix: (Units=1/GPa)
#
#
# Indices 1 2 3 4 5 6 
#
# 1 0.006585 0.001160 -0.001692 0.000000 -0.003795 0.000000
# 2 0.001160 0.021181 0.002540 0.000000 -0.006101 0.000000
# 3 -0.001692 0.002540 0.014745 0.000000 -0.004678 0.000000
# 4 0.000000 0.000000 0.000000 0.065439 0.000000 0.024094
# 5 -0.003795 -0.006101 -0.004678 0.000000 0.017177 0.000000
# 6 0.000000 0.000000 0.000000 0.024094 0.000000 -0.085281
#
#
# Mechanical properties :
#
#
# Convention : Reuss Voigt Hill
#
# Bulk Modulus (GPa) = 21.49290 44.30754 32.90022
# Shear Modulus (GPa) = 97.39129 36.98783 67.18956
#
# Velocity S-wave (km/s) = 6.32392 3.89723 5.25264
# Velocity P-wave (km/s) = 7.88342 6.20043 7.09203
#
# Compressibility (1/GPa) = 0.04652698
#
# Stress axis : x y z
#
# Youngs Moduli (GPa) = 151.85116 47.21322 67.81910
#
# Poissons Ratio (x) = -0.05476 0.11473
# Poissons Ratio (y) = -0.17612 -0.17225
# Poissons Ratio (z) = 0.25688 -0.11991
#
# Static dielectric constant tensor:
#      x y z
#    x 2.054890 0.000000 -0.007320 
#    y 0.000000 1.679270 0.000000 
#    z -0.007320 0.000000 2.145130 
# 
# From -- ./inp_files/33367.got.cif
#   From: 2010.05.17/outbox.cif.g08.bks.cpg/sg15_17_cif.got.tgz:33367.got - 2010.06.03 18:47:42.
