data_PCOD9284357
_publ_section_title
;
Structure prediction by ZEFSAII (Michael W. Deem and Ramdas Pophale) SiO2 
 PCOD9284357
Probable space group: C 2/C
;
_chemical_formula_sum "Si O2"
_cell_formula_units_Z 32
_cell_length_a 7.636139
_cell_length_b 13.953138
_cell_length_c 11.896989
_cell_angle_alpha 90.000000
_cell_angle_beta 106.945257
_cell_angle_gamma 90.000000
_cell_volume 1212.566973
_symmetry_space_group_name_H-M "C 2/C"
_symmetry_group_IT_number 15
_symmetry_cell_setting 'monoclinic'
loop_
_space_group_symop_operation_xyz
x,y,z
-x,y,1/2-z
-x,-y,-z
x,-y,1/2+z
1/2+x,1/2+y,z
1/2-x,1/2+y,1/2-z
1/2-x,1/2-y,-z
1/2+x,1/2-y,1/2+z
loop_
_atom_site_type_symbol
_atom_site_label
_atom_site_fract_x
_atom_site_fract_y
_atom_site_fract_z
Si Si1 0.779864 0.878310 0.328677
Si Si2 0.000000 0.500000 0.000000
Si Si3 0.687794 0.346861 0.431305
Si Si4 0.186111 0.591078 0.241749
Si Si5 0.500000 0.269089 0.750000
O O1 0.799847 0.846914 0.202271
O O2 0.624681 0.805860 0.345640
O O3 0.977513 0.871346 0.420689
O O4 0.709467 0.987391 0.307300
O O5 0.163257 0.424180 0.006618
O O6 0.146042 0.564204 0.105401
O O7 0.750000 0.250000 0.500000
O O8 0.360435 0.658623 0.284361
O O9 0.000000 0.638930 0.250000
#
# Coordination Sequence:
#
# PCOD9284357 Si02
#       5
#     8   4   8   8   4
#     4  10  23  44  66  99 140 175 227 285 335 406
#     4  10  22  42  66 102 132 172 236 274 334 416
#     4  10  21  40  69  98 136 177 221 284 338 403
#     4  11  24  46  69  96 140 180 223 290 343 399
#     4  12  24  42  72 100 130 186 230 264 352 422
#
# _framework density 26.390293
#
# number of rings (size 3 to 8) (size 9 to 14) (size 15 to 20)
#    0.000    1.500    1.250    4.500    7.000    0.000 
#    4.500    6.250    0.000    0.000    0.000    0.000 
#    0.000    0.000    0.000    0.000    0.000    0.000 
#
# Total GULP energy -89153.396303 kJ/mol
# GULP energy per Si atom -5572.087269 kJ/mol
# Density = 2.633023 g / cm^3
# Si number density = 26.390293 Si / 1000 Ang^3
#
#
#
# Elastic Constant Matrix: (Units=GPa)
#
#
# Indices 1 2 3 4 5 6 
#
# 1 159.9230 117.5238 49.0374 0.0000 68.0095 0.0000
# 2 117.5238 191.3577 64.5779 0.0000 47.9967 0.0000
# 3 49.0374 64.5779 129.7862 0.0000 41.2153 0.0000
# 4 0.0000 0.0000 0.0000 34.2889 0.0000 23.1841
# 5 68.0095 47.9967 41.2153 0.0000 68.1960 0.0000
# 6 0.0000 0.0000 0.0000 23.1841 0.0000 69.3808
#
#
#
# Elastic Compliance Matrix: (Units=1/GPa)
#
#
# Indices 1 2 3 4 5 6 
#
# 1 0.016480 -0.007584 0.001325 0.000000 -0.011898 0.000000
# 2 -0.007584 0.010363 -0.002941 0.000000 0.002048 0.000000
# 3 0.001325 -0.002941 0.010432 0.000000 -0.005557 0.000000
# 4 0.000000 0.000000 0.000000 0.037676 0.000000 -0.012590
# 5 -0.011898 0.002048 -0.005557 0.000000 0.028446 0.000000
# 6 0.000000 0.000000 0.000000 -0.012590 0.000000 0.018620
#
#
# Mechanical properties :
#
#
# Convention : Reuss Voigt Hill
#
# Bulk Modulus (GPa) = 52.97904 104.81614 78.89759
# Shear Modulus (GPa) = 34.08114 51.03498 42.55806
#
# Velocity S-wave (km/s) = 3.59754 4.40233 4.02013
# Velocity P-wave (km/s) = 6.11352 8.10214 7.17704
#
# Compressibility (1/GPa) = 0.01887539
#
# Stress axis : x y z
#
# Youngs Moduli (GPa) = 60.68000 96.50075 95.85792
#
# Poissons Ratio (x) = 0.73189 -0.12706
# Poissons Ratio (y) = 0.46021 0.28190
# Poissons Ratio (z) = -0.08043 0.28379
#
# Static dielectric constant tensor:
#      x y z
#    x 2.490780 0.000000 -0.394370 
#    y 0.000000 2.012010 0.000000 
#    z -0.394370 0.000000 2.395890 
# 
# From -- ./inp_files/188604.got.cif
#   From: 2010.05.17/outbox.cif.g08.bks.cpg/sg15_95_cif.got.tgz:188604.got - 2010.06.03 18:47:42.
