data_PCOD9284860
_publ_section_title
;
Structure prediction by ZEFSAII (Michael W. Deem and Ramdas Pophale) SiO2 
 PCOD9284860
Probable space group: C 2/C
;
_chemical_formula_sum "Si O2"
_cell_formula_units_Z 52
_cell_length_a 12.055713
_cell_length_b 8.301933
_cell_length_c 22.972244
_cell_angle_alpha 90.000000
_cell_angle_beta 93.716725
_cell_angle_gamma 90.000000
_cell_volume 2294.357812
_symmetry_space_group_name_H-M "C 2/C"
_symmetry_group_IT_number 15
_symmetry_cell_setting 'monoclinic'
loop_
_space_group_symop_operation_xyz
x,y,z
-x,y,1/2-z
-x,-y,-z
x,-y,1/2+z
1/2+x,1/2+y,z
1/2-x,1/2+y,1/2-z
1/2-x,1/2-y,-z
1/2+x,1/2-y,1/2+z
loop_
_atom_site_type_symbol
_atom_site_label
_atom_site_fract_x
_atom_site_fract_y
_atom_site_fract_z
Si Si1 0.182212 0.888454 0.031432
Si Si2 0.765752 0.702900 0.068711
Si Si3 0.204444 0.684879 0.214949
Si Si4 0.500000 0.614618 0.750000
Si Si5 0.847587 0.679510 0.822309
Si Si6 0.542056 0.578889 0.929388
Si Si7 0.422938 0.334388 0.667538
O O1 0.078188 0.839078 0.067539
O O2 0.261798 0.010205 0.068532
O O3 0.250000 0.750000 0.000000
O O4 0.109664 0.008491 0.987331
O O5 0.678559 0.779728 0.111058
O O6 0.880010 0.781861 0.092857
O O7 0.750000 0.750000 0.000000
O O8 0.176909 0.502625 0.196646
O O9 0.268788 0.708667 0.278945
O O10 0.300242 0.737300 0.171791
O O11 0.089739 0.782844 0.216905
O O12 0.429137 0.492071 0.708577
O O13 0.976068 0.717679 0.814468
O O14 0.544509 0.417209 0.891767
#
# Coordination Sequence:
#
# PCOD9284860 Si02
#       7
#     8   8   8   4   8   8   8
#     4  10  22  40  64  95 127 173 228 263 331 395
#     4  10  21  42  68  95 135 175 221 276 338 398
#     4  12  25  43  68  99 134 176 228 272 350 406
#     4  12  26  42  64  98 134 168 224 282 326 416
#     4  12  23  45  70  99 136 186 224 283 343 415
#     4  10  21  41  65  88 133 172 210 281 330 389
#     4  12  23  44  66  95 140 175 220 281 346 403
#
# _framework density 22.664294999999999
#
# number of rings (size 3 to 8) (size 9 to 14) (size 15 to 20)
#    0.000    0.923    6.154    0.000    2.154    1.846 
#    2.769    1.538    0.000    0.000    0.000    0.000 
#    0.000    0.000    0.000    0.000    0.000    0.000 
#
# Total GULP energy -144963.433962 kJ/mol
# GULP energy per Si atom -5575.516691 kJ/mol
# Density = 2.261271 g / cm^3
# Si number density = 22.664295 Si / 1000 Ang^3
#
#
#
# Elastic Constant Matrix: (Units=GPa)
#
#
# Indices 1 2 3 4 5 6 
#
# 1 181.0658 63.3509 7.2297 0.0000 -41.0710 0.0000
# 2 63.3509 91.1734 18.5179 0.0000 -11.2743 0.0000
# 3 7.2297 18.5179 57.8651 0.0000 -16.7102 0.0000
# 4 0.0000 0.0000 0.0000 33.6468 0.0000 -1.5772
# 5 -41.0710 -11.2743 -16.7102 0.0000 34.6765 0.0000
# 6 0.0000 0.0000 0.0000 -1.5772 0.0000 43.1344
#
#
#
# Elastic Compliance Matrix: (Units=1/GPa)
#
#
# Indices 1 2 3 4 5 6 
#
# 1 0.010475 -0.006641 0.004386 0.000000 0.012361 0.000000
# 2 -0.006641 0.016105 -0.005905 0.000000 -0.005475 0.000000
# 3 0.004386 -0.005905 0.022732 0.000000 0.014229 0.000000
# 4 0.000000 0.000000 0.000000 0.029772 0.000000 0.001089
# 5 0.012361 -0.005475 0.014229 0.000000 0.048555 0.000000
# 6 0.000000 0.000000 0.000000 0.001089 0.000000 0.023223
#
#
# Mechanical properties :
#
#
# Convention : Reuss Voigt Hill
#
# Bulk Modulus (GPa) = 30.30986 56.47792 43.39389
# Shear Modulus (GPa) = 28.06157 38.35859 33.21008
#
# Velocity S-wave (km/s) = 3.52254 4.11842 3.83208
# Velocity P-wave (km/s) = 5.47237 6.89845 6.22637
#
# Compressibility (1/GPa) = 0.03299256
#
# Stress axis : x y z
#
# Youngs Moduli (GPa) = 95.46496 62.09357 43.98997
#
# Poissons Ratio (x) = 0.41235 -0.19294
# Poissons Ratio (y) = 0.63396 0.25977
# Poissons Ratio (z) = -0.41871 0.36667
#
# Static dielectric constant tensor:
#      x y z
#    x 1.970860 0.000000 -0.201760 
#    y 0.000000 1.846110 0.000000 
#    z -0.201760 0.000000 2.548080 
# 
# From -- ./inp_files/291158.got.cif
#   From: 2010.05.17/outbox.cif.g08.bks.cpg/sg15_146_cif.got.tgz:291158.got - 2010.06.03 18:47:42.
