data_PCOD9284433
_publ_section_title
;
Structure prediction by ZEFSAII (Michael W. Deem and Ramdas Pophale) SiO2 
 PCOD9284433
Probable space group: C 2/C
;
_chemical_formula_sum "Si O2"
_cell_formula_units_Z 56
_cell_length_a 15.912635
_cell_length_b 21.959809
_cell_length_c 14.395016
_cell_angle_alpha 90.000000
_cell_angle_beta 154.261070
_cell_angle_gamma 90.000000
_cell_volume 2184.458847
_symmetry_space_group_name_H-M "C 2/C"
_symmetry_group_IT_number 15
_symmetry_cell_setting 'monoclinic'
loop_
_space_group_symop_operation_xyz
x,y,z
-x,y,1/2-z
-x,-y,-z
x,-y,1/2+z
1/2+x,1/2+y,z
1/2-x,1/2+y,1/2-z
1/2-x,1/2-y,-z
1/2+x,1/2-y,1/2+z
loop_
_atom_site_type_symbol
_atom_site_label
_atom_site_fract_x
_atom_site_fract_y
_atom_site_fract_z
Si Si1 0.820533 0.486943 0.421955
Si Si2 0.973872 0.732674 0.426611
Si Si3 0.000000 0.212476 0.750000
Si Si4 0.500000 0.050820 0.750000
Si Si5 0.730704 0.099414 0.468849
Si Si6 0.355797 0.090751 0.322377
Si Si7 0.224495 0.157217 0.473922
Si Si8 0.264455 0.756701 0.174488
O O1 0.707102 0.451027 0.391522
O O2 0.753306 0.545410 0.295211
O O3 0.006639 0.511618 0.665142
O O4 0.924465 0.435931 0.463204
O O5 0.992479 0.750239 0.337668
O O6 0.893372 0.663604 0.367835
O O7 0.989956 0.760880 0.552733
O O8 0.229586 0.733680 0.702206
O O9 0.823819 0.164621 0.579468
O O10 0.320168 0.093099 0.555151
O O11 0.500000 0.105689 0.250000
O O12 0.762590 0.085947 0.391895
O O13 0.293139 0.183210 0.640792
O O14 0.268009 0.203765 0.434895
O O15 0.000000 0.149949 0.250000
#
# Coordination Sequence:
#
# PCOD9284433 Si02
#       8
#     8   8   4   4   8   8   8   8
#     4  10  21  42  69  99 132 183 243 289 362 426
#     4  12  26  42  71 105 144 189 239 297 368 430
#     4  12  30  45  72 108 147 196 250 300 366 436
#     4  12  22  41  68 100 137 188 228 296 352 418
#     4  10  23  49  71  99 140 187 243 305 364 435
#     4  10  21  40  71  98 131 182 236 296 356 429
#     4  11  23  42  70 103 146 185 234 288 365 440
#     4  11  23  43  64 103 145 184 229 288 357 445
#
# _framework density 25.635639000000001
#
# number of rings (size 3 to 8) (size 9 to 14) (size 15 to 20)
#    0.000    1.143    3.571    3.429    9.000    1.143 
#    1.286    0.714    0.000    0.000    0.000    0.000 
#    0.000    0.000    0.000    0.000    0.000    0.000 
#
# Total GULP energy -156072.309119 kJ/mol
# GULP energy per Si atom -5574.011040 kJ/mol
# Density = 2.557729 g / cm^3
# Si number density = 25.635639 Si / 1000 Ang^3
#
#
#
# Elastic Constant Matrix: (Units=GPa)
#
#
# Indices 1 2 3 4 5 6 
#
# 1 161.6881 57.5576 69.1203 0.0000 -36.6525 0.0000
# 2 57.5576 137.8264 27.5757 0.0000 -29.2819 0.0000
# 3 69.1203 27.5757 135.4210 -0.0001 -20.1374 0.0000
# 4 0.0000 0.0000 -0.0001 94.5077 0.0000 2.3452
# 5 -36.6525 -29.2819 -20.1374 0.0000 57.8605 0.0000
# 6 0.0000 0.0000 0.0000 2.3452 0.0000 26.2381
#
#
#
# Elastic Compliance Matrix: (Units=1/GPa)
#
#
# Indices 1 2 3 4 5 6 
#
# 1 0.009472 -0.002463 -0.003824 0.000000 0.003423 0.000000
# 2 -0.002463 0.008929 -0.000128 0.000000 0.002914 0.000000
# 3 -0.003824 -0.000128 0.009483 0.000000 0.000813 0.000000
# 4 0.000000 0.000000 0.000000 0.010605 0.000000 -0.000948
# 5 0.003423 0.002914 0.000813 0.000000 0.021209 0.000000
# 6 0.000000 0.000000 0.000000 -0.000948 0.000000 0.038197
#
#
# Mechanical properties :
#
#
# Convention : Reuss Voigt Hill
#
# Bulk Modulus (GPa) = 66.42709 82.60477 74.51593
# Shear Modulus (GPa) = 43.19893 54.43338 48.81616
#
# Velocity S-wave (km/s) = 4.10947 4.61298 4.36848
# Velocity P-wave (km/s) = 6.96313 7.78880 7.38751
#
# Compressibility (1/GPa) = 0.01505410
#
# Stress axis : x y z
#
# Youngs Moduli (GPa) = 105.56998 111.99686 105.44934
#
# Poissons Ratio (x) = 0.27590 0.40326
# Poissons Ratio (y) = 0.26007 0.01345
# Poissons Ratio (z) = 0.40372 0.01428
#
# Static dielectric constant tensor:
#      x y z
#    x 2.153510 0.000000 0.258720 
#    y 0.000000 2.012800 0.000000 
#    z 0.258720 0.000000 2.400600 
# 
# From -- ./inp_files/163862.got.cif
#   From: 2010.05.17/outbox.cif.g08.bks.cpg/sg15_82_cif.got.tgz:163862.got - 2010.06.03 18:47:42.
