data_PCOD9284072
_publ_section_title
;
Structure prediction by ZEFSAII (Michael W. Deem and Ramdas Pophale) SiO2 
 PCOD9284072
Probable space group: C 2/C
;
_chemical_formula_sum "Si O2"
_cell_formula_units_Z 24
_cell_length_a 20.134541
_cell_length_b 4.945049
_cell_length_c 14.193540
_cell_angle_alpha 90.000000
_cell_angle_beta 140.493680
_cell_angle_gamma 90.000000
_cell_volume 899.024839
_symmetry_space_group_name_H-M "C 2/C"
_symmetry_group_IT_number 15
_symmetry_cell_setting 'monoclinic'
loop_
_space_group_symop_operation_xyz
x,y,z
-x,y,1/2-z
-x,-y,-z
x,-y,1/2+z
1/2+x,1/2+y,z
1/2-x,1/2+y,1/2-z
1/2-x,1/2-y,-z
1/2+x,1/2-y,1/2+z
loop_
_atom_site_type_symbol
_atom_site_label
_atom_site_fract_x
_atom_site_fract_y
_atom_site_fract_z
Si Si1 0.511804 0.140411 0.663902
Si Si2 0.201257 0.001087 0.391089
Si Si3 0.100805 0.201390 0.618057
O O1 0.500000 0.993225 0.750000
O O2 0.579223 0.406467 0.762100
O O3 0.401956 0.201829 0.493096
O O4 0.573424 0.952629 0.656962
O O5 0.250000 0.250000 0.500000
O O6 0.250000 0.750000 0.500000
O O7 0.199352 0.935099 0.276152
O O8 0.000000 0.000000 0.500000
#
# Coordination Sequence:
#
# PCOD9284072 Si02
#       3
#     8   8   8
#     4  10  21  40  66  94 127 176 228 263 317 397
#     4  11  21  40  65  90 129 168 204 268 334 372
#     4   9  20  38  64  90 129 170 215 267 327 381
#
# _framework density 26.695588999999998
#
# number of rings (size 3 to 8) (size 9 to 14) (size 15 to 20)
#    0.000    2.000    3.333    0.000    0.000    5.333 
#    0.000    3.333    0.000    0.000    0.000    0.000 
#    0.000    0.000    0.000    0.000    0.000    0.000 
#
# Total GULP energy -66860.976315 kJ/mol
# GULP energy per Si atom -5571.748026 kJ/mol
# Density = 2.663483 g / cm^3
# Si number density = 26.695589 Si / 1000 Ang^3
#
#
#
# Elastic Constant Matrix: (Units=GPa)
#
#
# Indices 1 2 3 4 5 6 
#
# 1 42.9608 18.2752 59.6382 0.0007 -10.3479 0.0000
# 2 18.2752 192.2464 95.7344 0.0022 5.9372 0.0030
# 3 59.6382 95.7344 377.2858 0.0001 -26.8655 0.0005
# 4 0.0007 0.0022 0.0001 64.4221 0.0003 8.9536
# 5 -10.3479 5.9372 -26.8655 0.0003 54.4070 0.0001
# 6 0.0000 0.0030 0.0005 8.9536 0.0001 18.2184
#
#
#
# Elastic Compliance Matrix: (Units=1/GPa)
#
#
# Indices 1 2 3 4 5 6 
#
# 1 0.030586 -0.000858 -0.004349 0.000000 0.003763 0.000000
# 2 -0.000858 0.006090 -0.001522 0.000000 -0.001579 -0.000001
# 3 -0.004349 -0.001522 0.003811 0.000000 0.001221 0.000000
# 4 0.000000 0.000000 0.000000 0.016661 0.000000 -0.008188
# 5 0.003763 -0.001579 0.001221 0.000000 0.019871 0.000000
# 6 0.000000 -0.000001 0.000000 -0.008188 0.000000 0.058914
#
#
# Mechanical properties :
#
#
# Convention : Reuss Voigt Hill
#
# Bulk Modulus (GPa) = 36.99787 106.64316 71.82051
# Shear Modulus (GPa) = 31.56563 56.66586 44.11574
#
# Velocity S-wave (km/s) = 3.44238 4.61224 4.06956
# Velocity P-wave (km/s) = 5.44878 8.27032 7.00312
#
# Compressibility (1/GPa) = 0.02702859
#
# Stress axis : x y z
#
# Youngs Moduli (GPa) = 32.69480 164.20387 262.38851
#
# Poissons Ratio (x) = 0.14089 1.14114
# Poissons Ratio (y) = 0.02805 0.39939
# Poissons Ratio (z) = 0.14219 0.24994
#
# Static dielectric constant tensor:
#      x y z
#    x 2.452940 0.000010 -0.101940 
#    y 0.000010 2.395150 0.000090 
#    z -0.101940 0.000090 2.690470 
# 
# From -- ./inp_files/101977.got.cif
#   From: 2010.05.17/outbox.cif.g08.bks.cpg/sg15_51_cif.got.tgz:101977.got - 2010.06.03 18:47:42.
