data_PCOD9284907
_publ_section_title
;
Structure prediction by ZEFSAII (Michael W. Deem and Ramdas Pophale) SiO2 
 PCOD9284907
Probable space group: C 2/C
;
_chemical_formula_sum "Si O2"
_cell_formula_units_Z 40
_cell_length_a 10.517820
_cell_length_b 11.900525
_cell_length_c 20.123795
_cell_angle_alpha 90.000000
_cell_angle_beta 40.944138
_cell_angle_gamma 90.000000
_cell_volume 1650.657920
_symmetry_space_group_name_H-M "C 2/C"
_symmetry_group_IT_number 15
_symmetry_cell_setting 'monoclinic'
loop_
_space_group_symop_operation_xyz
x,y,z
-x,y,1/2-z
-x,-y,-z
x,-y,1/2+z
1/2+x,1/2+y,z
1/2-x,1/2+y,1/2-z
1/2-x,1/2-y,-z
1/2+x,1/2-y,1/2+z
loop_
_atom_site_type_symbol
_atom_site_label
_atom_site_fract_x
_atom_site_fract_y
_atom_site_fract_z
Si Si1 0.975417 0.200078 0.632244
Si Si2 0.005306 0.549751 0.922254
Si Si3 0.136793 0.792650 0.850485
Si Si4 0.754467 0.398362 0.935256
Si Si5 0.431686 0.519518 0.210338
O O1 0.767767 0.242863 0.738239
O O2 0.106883 0.308931 0.582550
O O3 0.031127 0.132183 0.543550
O O4 0.032691 0.102017 0.662165
O O5 0.024124 0.684588 0.921788
O O6 0.204614 0.506696 0.808523
O O7 0.839409 0.510775 0.934995
O O8 0.000000 0.500000 0.000000
O O9 0.266322 0.857683 0.854530
O O10 0.018580 0.894547 0.866523
O O11 0.500000 0.575439 0.250000
#
# Coordination Sequence:
#
# PCOD9284907 Si02
#       5
#     8   8   8   8   8
#     4  10  21  41  65  94 126 168 218 279 330 404
#     4  11  23  42  68  97 128 176 228 275 335 413
#     4  11  24  41  67  98 134 172 222 282 336 405
#     4  11  21  41  71  96 123 175 233 269 336 417
#     4  11  23  42  61  90 137 175 212 281 349 389
#
# _framework density 24.232761
#
# number of rings (size 3 to 8) (size 9 to 14) (size 15 to 20)
#    0.000    1.200    2.000    6.600    0.000    0.800 
#    7.200    4.000    0.000    0.000    0.000    0.000 
#    0.000    0.000    0.000    0.000    0.000    0.000 
#
# Total GULP energy -111413.125922 kJ/mol
# GULP energy per Si atom -5570.656296 kJ/mol
# Density = 2.417761 g / cm^3
# Si number density = 24.232761 Si / 1000 Ang^3
#
#
#
# Elastic Constant Matrix: (Units=GPa)
#
#
# Indices 1 2 3 4 5 6 
#
# 1 64.6407 45.9642 3.7079 0.0000 3.2751 0.0000
# 2 45.9642 132.0087 24.9001 0.0000 6.3586 0.0000
# 3 3.7079 24.9001 90.3951 0.0001 -10.8812 -0.0001
# 4 0.0000 0.0000 0.0001 37.0505 0.0000 8.5575
# 5 3.2751 6.3586 -10.8812 0.0000 18.5379 0.0000
# 6 0.0000 0.0000 -0.0001 8.5575 0.0000 16.1392
#
#
#
# Elastic Compliance Matrix: (Units=1/GPa)
#
#
# Indices 1 2 3 4 5 6 
#
# 1 0.020686 -0.007395 0.001134 0.000000 -0.000453 0.000000
# 2 -0.007395 0.010972 -0.003244 0.000000 -0.004361 0.000000
# 3 0.001134 -0.003244 0.012933 0.000000 0.008504 0.000000
# 4 0.000000 0.000000 0.000000 0.030757 0.000000 -0.016308
# 5 -0.000453 -0.004361 0.008504 0.000000 0.060511 0.000000
# 6 0.000000 0.000000 0.000000 -0.016308 0.000000 0.070608
#
#
# Mechanical properties :
#
#
# Convention : Reuss Voigt Hill
#
# Bulk Modulus (GPa) = 39.09022 48.46542 43.77782
# Shear Modulus (GPa) = 21.36708 28.51034 24.93871
#
# Velocity S-wave (km/s) = 2.97264 3.43377 3.21149
# Velocity P-wave (km/s) = 5.28661 5.98033 5.64414
#
# Compressibility (1/GPa) = 0.02558185
#
# Stress axis : x y z
#
# Youngs Moduli (GPa) = 48.34119 91.14072 77.32007
#
# Poissons Ratio (x) = 0.67397 -0.08768
# Poissons Ratio (y) = 0.35748 0.25083
# Poissons Ratio (z) = -0.05482 0.29566
#
# Static dielectric constant tensor:
#      x y z
#    x 1.991260 0.000000 0.017460 
#    y 0.000000 1.964160 0.000000 
#    z 0.017460 0.000000 2.083430 
# 
# From -- ./inp_files/141735.got.cif
#   From: 2010.05.17/outbox.cif.g08.bks.cpg/sg15_71_cif.got.tgz:141735.got - 2010.06.03 18:47:42.
