data_PCOD9284151
_publ_section_title
;
Structure prediction by ZEFSAII (Michael W. Deem and Ramdas Pophale) SiO2 
 PCOD9284151
Probable space group: C 2/C
;
_chemical_formula_sum "Si O2"
_cell_formula_units_Z 52
_cell_length_a 7.814791
_cell_length_b 20.872567
_cell_length_c 15.868846
_cell_angle_alpha 90.000000
_cell_angle_beta 62.403130
_cell_angle_gamma 90.000000
_cell_volume 2293.952807
_symmetry_space_group_name_H-M "C 2/C"
_symmetry_group_IT_number 15
_symmetry_cell_setting 'monoclinic'
loop_
_space_group_symop_operation_xyz
x,y,z
-x,y,1/2-z
-x,-y,-z
x,-y,1/2+z
1/2+x,1/2+y,z
1/2-x,1/2+y,1/2-z
1/2-x,1/2-y,-z
1/2+x,1/2-y,1/2+z
loop_
_atom_site_type_symbol
_atom_site_label
_atom_site_fract_x
_atom_site_fract_y
_atom_site_fract_z
Si Si1 0.706518 0.692526 0.385761
Si Si2 0.661177 0.051591 0.937538
Si Si3 0.221882 0.214667 0.195329
Si Si4 0.277128 0.866877 0.318767
Si Si5 0.000000 0.063012 0.750000
Si Si6 0.021876 0.075652 0.496525
Si Si7 0.029481 0.684082 0.003783
O O1 0.796694 0.702277 0.273112
O O2 0.594715 0.624647 0.409487
O O3 0.845003 0.692634 0.437182
O O4 0.569024 0.753540 0.437754
O O5 0.796507 0.076255 0.981714
O O6 0.824696 0.025703 0.835697
O O7 0.568984 0.121130 0.938272
O O8 0.500000 0.000000 0.000000
O O9 0.237781 0.290620 0.175162
O O10 0.322142 0.180373 0.094293
O O11 0.000000 0.196907 0.250000
O O12 0.500000 0.885430 0.250000
O O13 0.123890 0.892738 0.284556
O O14 0.179942 0.896964 0.423473
O O15 0.000000 0.000000 0.500000
#
# Coordination Sequence:
#
# PCOD9284151 Si02
#       7
#     8   8   8   8   4   8   8
#     4  10  21  40  67  91 124 171 220 272 331 401
#     4  10  23  42  65  97 128 170 224 268 339 406
#     4  11  23  38  60  99 134 165 216 278 340 397
#     4  10  22  40  63  97 129 167 227 270 329 411
#     4  10  22  42  68  94 122 182 220 266 334 396
#     4  10  22  42  64  91 131 172 216 276 336 400
#     4  10  21  41  66  94 127 168 218 278 330 399
#
# _framework density 22.668296000000002
#
# number of rings (size 3 to 8) (size 9 to 14) (size 15 to 20)
#    0.000    1.846    1.538    1.385    6.462    1.846 
#    6.923    0.000    0.000    0.000    0.000    0.000 
#    0.000    0.000    0.000    0.000    0.000    0.000 
#
# Total GULP energy -144833.634658 kJ/mol
# GULP energy per Si atom -5570.524410 kJ/mol
# Density = 2.261670 g / cm^3
# Si number density = 22.668296 Si / 1000 Ang^3
#
#
#
# Elastic Constant Matrix: (Units=GPa)
#
#
# Indices 1 2 3 4 5 6 
#
# 1 89.7323 8.4972 21.8441 0.0000 -19.5030 0.0000
# 2 8.4972 100.3811 49.5606 0.0000 -25.1915 0.0000
# 3 21.8441 49.5606 128.7186 0.0000 -38.6346 0.0000
# 4 0.0000 0.0000 0.0000 12.7554 0.0000 3.6184
# 5 -19.5030 -25.1915 -38.6346 0.0000 40.5488 0.0000
# 6 0.0000 0.0000 0.0000 3.6184 0.0000 -7.3439
#
#
#
# Elastic Compliance Matrix: (Units=1/GPa)
#
#
# Indices 1 2 3 4 5 6 
#
# 1 0.012504 0.000729 -0.000647 0.000000 0.005851 0.000000
# 2 0.000729 0.012925 -0.003620 0.000000 0.004931 0.000000
# 3 -0.000647 -0.003620 0.011910 0.000000 0.008788 0.000000
# 4 0.000000 0.000000 0.000000 0.068784 0.000000 0.033890
# 5 0.005851 0.004931 0.008788 0.000000 0.038913 0.000000
# 6 0.000000 0.000000 0.000000 0.033890 0.000000 -0.119469
#
#
# Mechanical properties :
#
#
# Convention : Reuss Voigt Hill
#
# Bulk Modulus (GPa) = 33.04195 53.18175 43.11185
# Shear Modulus (GPa) = 117.01138 25.12074 71.06606
#
# Velocity S-wave (km/s) = 7.19243 3.33256 5.60522
# Velocity P-wave (km/s) = 9.14235 6.19029 7.80712
#
# Compressibility (1/GPa) = 0.03026456
#
# Stress axis : x y z
#
# Youngs Moduli (GPa) = 79.97217 77.36775 83.96198
#
# Poissons Ratio (x) = -0.05641 0.05429
# Poissons Ratio (y) = -0.05831 0.30396
# Poissons Ratio (z) = 0.05171 0.28009
#
# Static dielectric constant tensor:
#      x y z
#    x 1.845360 0.000000 -0.024860 
#    y 0.000000 1.872400 0.000000 
#    z -0.024860 0.000000 1.912690 
# 
# From -- ./inp_files/192442.got.cif
#   From: 2010.05.17/outbox.cif.g08.bks.cpg/sg15_97_cif.got.tgz:192442.got - 2010.06.03 18:47:42.
