data_PCOD9284186
_publ_section_title
;
Structure prediction by ZEFSAII (Michael W. Deem and Ramdas Pophale) SiO2 
 PCOD9284186
Probable space group: C 2/C
;
_chemical_formula_sum "Si O2"
_cell_formula_units_Z 40
_cell_length_a 17.266081
_cell_length_b 9.299760
_cell_length_c 28.110759
_cell_angle_alpha 90.000000
_cell_angle_beta 158.194943
_cell_angle_gamma 90.000000
_cell_volume 1676.633719
_symmetry_space_group_name_H-M "C 2/C"
_symmetry_group_IT_number 15
_symmetry_cell_setting 'monoclinic'
loop_
_space_group_symop_operation_xyz
x,y,z
-x,y,1/2-z
-x,-y,-z
x,-y,1/2+z
1/2+x,1/2+y,z
1/2-x,1/2+y,1/2-z
1/2-x,1/2-y,-z
1/2+x,1/2-y,1/2+z
loop_
_atom_site_type_symbol
_atom_site_label
_atom_site_fract_x
_atom_site_fract_y
_atom_site_fract_z
Si Si1 0.792552 0.704733 0.970375
Si Si2 0.071732 0.708934 0.995776
Si Si3 0.659966 0.432543 0.928346
Si Si4 0.222518 0.489101 0.400073
Si Si5 0.303677 0.944405 0.836166
O O1 0.020265 0.636261 0.093864
O O2 0.074107 0.093930 0.188538
O O3 0.641929 0.567729 0.881406
O O4 0.766957 0.839881 0.921055
O O5 0.217010 0.681152 0.032679
O O6 0.100443 0.879873 0.018647
O O7 0.169566 0.623980 0.096304
O O8 0.860473 0.615255 0.867688
O O9 0.750000 0.750000 0.000000
O O10 0.787455 0.468758 0.048495
O O11 0.000000 0.454045 0.250000
#
# Coordination Sequence:
#
# PCOD9284186 Si02
#       5
#     8   8   8   8   8
#     4   9  22  42  62  90 127 167 210 267 326 383
#     4  10  22  39  63  96 129 168 217 268 319 385
#     4  10  21  42  68  90 125 171 216 268 320 387
#     4  11  23  39  62  93 130 168 208 266 329 380
#     4  10  21  40  67  95 124 171 224 260 319 392
#
# _framework density 23.857327000000002
#
# number of rings (size 3 to 8) (size 9 to 14) (size 15 to 20)
#    0.000    2.000    0.000    2.400    0.000    8.800 
#    0.000   14.000    0.000    0.000    0.000    0.000 
#    0.000    0.000    0.000    0.000    0.000    0.000 
#
# Total GULP energy -111556.384678 kJ/mol
# GULP energy per Si atom -5577.819234 kJ/mol
# Density = 2.380303 g / cm^3
# Si number density = 23.857327 Si / 1000 Ang^3
#
#
#
# Elastic Constant Matrix: (Units=GPa)
#
#
# Indices 1 2 3 4 5 6 
#
# 1 99.3762 12.6066 42.2400 0.0019 4.9422 0.0009
# 2 12.6066 141.1527 -4.1822 0.0108 0.6099 -0.0007
# 3 42.2400 -4.1822 105.7420 0.0433 2.4028 -0.0018
# 4 0.0019 0.0108 0.0433 13.6902 -0.0046 -1.4436
# 5 4.9422 0.6099 2.4028 -0.0046 31.2882 0.0007
# 6 0.0009 -0.0007 -0.0018 -1.4436 0.0007 39.4122
#
#
#
# Elastic Compliance Matrix: (Units=1/GPa)
#
#
# Indices 1 2 3 4 5 6 
#
# 1 0.012412 -0.001249 -0.004972 0.000015 -0.001554 0.000000
# 2 -0.001249 0.007219 0.000785 -0.000008 -0.000004 0.000000
# 3 -0.004972 0.000785 0.011477 -0.000036 -0.000111 -0.000001
# 4 0.000015 -0.000008 -0.000036 0.073328 0.000011 0.002686
# 5 -0.001554 -0.000004 -0.000111 0.000011 0.032215 0.000000
# 6 0.000000 0.000000 -0.000001 0.002686 0.000000 0.025471
#
#
# Mechanical properties :
#
#
# Convention : Reuss Voigt Hill
#
# Bulk Modulus (GPa) = 49.42032 49.73331 49.57682
# Shear Modulus (GPa) = 27.81777 36.58521 32.20149
#
# Velocity S-wave (km/s) = 3.41839 3.92024 3.67788
# Velocity P-wave (km/s) = 6.02830 6.43292 6.23389
#
# Compressibility (1/GPa) = 0.02023459
#
# Stress axis : x y z
#
# Youngs Moduli (GPa) = 80.56728 138.51658 87.13249
#
# Poissons Ratio (x) = 0.17303 0.43324
# Poissons Ratio (y) = 0.10064 -0.06836
# Poissons Ratio (z) = 0.40060 -0.10868
#
# Static dielectric constant tensor:
#      x y z
#    x 1.891860 0.000010 0.016360 
#    y 0.000010 2.365740 0.000030 
#    z 0.016360 0.000030 1.878660 
# 
# From -- ./inp_files/317631.got.cif
#   From: 2010.05.17/outbox.cif.g08.bks.cpg/sg15_159_cif.got.tgz:317631.got - 2010.06.03 18:47:42.
