data_PCOD9284257
_publ_section_title
;
Structure prediction by ZEFSAII (Michael W. Deem and Ramdas Pophale) SiO2 
 PCOD9284257
Probable space group: C 2/C
;
_chemical_formula_sum "Si O2"
_cell_formula_units_Z 56
_cell_length_a 29.862303
_cell_length_b 12.550083
_cell_length_c 15.484807
_cell_angle_alpha 90.000000
_cell_angle_beta 28.341772
_cell_angle_gamma 90.000000
_cell_volume 2755.004880
_symmetry_space_group_name_H-M "C 2/C"
_symmetry_group_IT_number 15
_symmetry_cell_setting 'monoclinic'
loop_
_space_group_symop_operation_xyz
x,y,z
-x,y,1/2-z
-x,-y,-z
x,-y,1/2+z
1/2+x,1/2+y,z
1/2-x,1/2+y,1/2-z
1/2-x,1/2-y,-z
1/2+x,1/2-y,1/2+z
loop_
_atom_site_type_symbol
_atom_site_label
_atom_site_fract_x
_atom_site_fract_y
_atom_site_fract_z
Si Si1 0.150688 0.769914 0.218233
Si Si2 0.974215 0.388555 0.003477
Si Si3 0.104141 0.993455 0.737657
Si Si4 0.283644 0.653082 0.718895
Si Si5 0.097377 0.949867 0.947857
Si Si6 0.411121 0.779942 0.954358
Si Si7 0.739200 0.836298 0.094330
O O1 0.121229 0.883165 0.228695
O O2 0.155554 0.782693 0.314406
O O3 0.065430 0.687456 0.351492
O O4 0.250000 0.750000 0.000000
O O5 0.873217 0.356134 0.215532
O O6 0.945788 0.379642 0.952168
O O7 0.000000 0.500000 0.000000
O O8 0.094704 0.940667 0.848322
O O9 0.193066 0.936621 0.542867
O O10 0.003867 0.994824 0.858373
O O11 0.321821 0.532258 0.659381
O O12 0.271396 0.688745 0.639472
O O13 0.180627 0.673828 0.934792
O O14 0.112263 0.831093 0.957457
O O15 0.500000 0.746274 0.750000
O O16 0.750000 0.750000 0.000000
#
# Coordination Sequence:
#
# PCOD9284257 Si02
#       7
#     8   8   8   8   8   8   8
#     4  11  22  42  70 101 127 175 234 285 341 407
#     4  11  24  44  64  92 133 174 216 274 344 414
#     4  10  21  40  68  91 129 177 227 278 339 409
#     4  10  25  38  63 102 132 165 228 280 328 411
#     4  10  22  40  67  96 128 169 233 284 330 405
#     4  11  23  42  66  97 131 171 219 283 339 398
#     4  11  25  43  64  94 141 185 216 271 356 404
#
# _framework density 20.326643000000001
#
# number of rings (size 3 to 8) (size 9 to 14) (size 15 to 20)
#    0.000    1.429    1.429    3.429    6.000    3.429 
#    0.000    1.429    0.000    0.000    0.000    0.000 
#    0.000    0.000    0.000    0.000    0.000    0.000 
#
# Total GULP energy -155900.337938 kJ/mol
# GULP energy per Si atom -5567.869212 kJ/mol
# Density = 2.028038 g / cm^3
# Si number density = 20.326643 Si / 1000 Ang^3
#
#
#
# Elastic Constant Matrix: (Units=GPa)
#
#
# Indices 1 2 3 4 5 6 
#
# 1 76.0214 28.9375 25.6669 0.0000 -6.9829 0.0000
# 2 28.9375 88.4341 53.2184 0.0000 -12.0389 0.0000
# 3 25.6669 53.2184 128.3084 0.0000 -16.8155 0.0000
# 4 0.0000 0.0000 0.0000 30.8612 0.0000 1.4672
# 5 -6.9829 -12.0389 -16.8155 0.0000 34.3023 0.0000
# 6 0.0000 0.0000 0.0000 1.4672 0.0000 17.6474
#
#
#
# Elastic Compliance Matrix: (Units=1/GPa)
#
#
# Indices 1 2 3 4 5 6 
#
# 1 0.015223 -0.004115 -0.001199 0.000000 0.001067 0.000000
# 2 -0.004115 0.016365 -0.005687 0.000000 0.002118 0.000000
# 3 -0.001199 -0.005687 0.010792 0.000000 0.003050 0.000000
# 4 0.000000 0.000000 0.000000 0.032532 0.000000 -0.002705
# 5 0.001067 0.002118 0.003050 0.000000 0.031609 0.000000
# 6 0.000000 0.000000 0.000000 -0.002705 0.000000 0.056890
#
#
# Mechanical properties :
#
#
# Convention : Reuss Voigt Hill
#
# Bulk Modulus (GPa) = 49.06915 56.48995 52.77955
# Shear Modulus (GPa) = 26.01390 28.89160 27.45275
#
# Velocity S-wave (km/s) = 3.58130 3.77419 3.67901
# Velocity P-wave (km/s) = 6.42602 6.84428 6.63844
#
# Compressibility (1/GPa) = 0.02037940
#
# Stress axis : x y z
#
# Youngs Moduli (GPa) = 65.68918 61.10610 92.66037
#
# Poissons Ratio (x) = 0.25143 0.11108
# Poissons Ratio (y) = 0.27029 0.52696
# Poissons Ratio (z) = 0.07874 0.34751
#
# Static dielectric constant tensor:
#      x y z
#    x 1.795240 0.000000 0.055890 
#    y 0.000000 1.693980 0.000000 
#    z 0.055890 0.000000 1.797760 
# 
# From -- ./inp_files/181919.got.cif
#   From: 2010.05.17/outbox.cif.g08.bks.cpg/sg15_91_cif.got.tgz:181919.got - 2010.06.03 18:47:42.
