data_PCOD9284207
_publ_section_title
;
Structure prediction by ZEFSAII (Michael W. Deem and Ramdas Pophale) SiO2 
 PCOD9284207
Probable space group: C 2/C
;
_chemical_formula_sum "Si O2"
_cell_formula_units_Z 48
_cell_length_a 8.929081
_cell_length_b 17.032267
_cell_length_c 12.699969
_cell_angle_alpha 90.000000
_cell_angle_beta 104.885983
_cell_angle_gamma 90.000000
_cell_volume 1866.621689
_symmetry_space_group_name_H-M "C 2/C"
_symmetry_group_IT_number 15
_symmetry_cell_setting 'monoclinic'
loop_
_space_group_symop_operation_xyz
x,y,z
-x,y,1/2-z
-x,-y,-z
x,-y,1/2+z
1/2+x,1/2+y,z
1/2-x,1/2+y,1/2-z
1/2-x,1/2-y,-z
1/2+x,1/2-y,1/2+z
loop_
_atom_site_type_symbol
_atom_site_label
_atom_site_fract_x
_atom_site_fract_y
_atom_site_fract_z
Si Si1 0.904814 0.814673 0.529967
Si Si2 0.463352 0.792638 0.852153
Si Si3 0.708716 0.912654 0.201701
Si Si4 0.261186 0.622136 0.475200
Si Si5 0.663013 0.466156 0.070843
Si Si6 0.000000 0.725210 0.750000
Si Si7 0.500000 0.950426 0.750000
O O1 0.877853 0.752385 0.430851
O O2 0.077708 0.846078 0.535823
O O3 0.796890 0.891235 0.493854
O O4 0.924938 0.778418 0.647266
O O5 0.500000 0.745375 0.750000
O O6 0.403586 0.876011 0.796169
O O7 0.627271 0.816236 0.933269
O O8 0.770571 0.904109 0.096462
O O9 0.837260 0.933996 0.311644
O O10 0.626054 0.831600 0.219490
O O11 0.581041 0.980975 0.189120
O O12 0.218704 0.540652 0.405527
O O13 0.500000 0.500000 0.000000
#
# Coordination Sequence:
#
# PCOD9284207 Si02
#       7
#     8   8   8   8   8   4   4
#     4  11  25  42  65  98 136 174 221 282 340 404
#     4  10  21  40  67  97 124 170 223 275 331 395
#     4  11  23  42  68  96 131 179 226 276 336 416
#     4  11  23  43  68  93 131 181 223 273 344 406
#     4  10  24  42  64  96 131 173 225 276 338 397
#     4  11  26  42  64  99 136 174 224 281 344 400
#     4   9  22  40  66  97 134 166 228 279 334 398
#
# _framework density 25.714905999999999
#
# number of rings (size 3 to 8) (size 9 to 14) (size 15 to 20)
#    0.500    1.000    3.333    0.500    2.333    7.333 
#    0.000    0.000    0.000    0.000    0.000    0.000 
#    0.000    0.000    0.000    0.000    0.000    0.000 
#
# Total GULP energy -133921.572244 kJ/mol
# GULP energy per Si atom -5580.065510 kJ/mol
# Density = 2.565638 g / cm^3
# Si number density = 25.714906 Si / 1000 Ang^3
#
#
#
# Elastic Constant Matrix: (Units=GPa)
#
#
# Indices 1 2 3 4 5 6 
#
# 1 71.7141 13.3983 11.7159 0.0000 14.7402 0.0000
# 2 13.3983 150.3455 49.2248 0.0000 -2.8527 0.0000
# 3 11.7159 49.2248 151.4611 0.0000 -0.1533 0.0000
# 4 0.0000 0.0000 0.0000 51.2183 0.0000 6.6615
# 5 14.7402 -2.8527 -0.1533 0.0000 29.9326 0.0000
# 6 0.0000 0.0000 0.0000 6.6615 0.0000 33.1259
#
#
#
# Elastic Compliance Matrix: (Units=1/GPa)
#
#
# Indices 1 2 3 4 5 6 
#
# 1 0.015964 -0.001306 -0.000818 0.000000 -0.007990 0.000000
# 2 -0.001306 0.007565 -0.002356 0.000000 0.001352 0.000000
# 3 -0.000818 -0.002356 0.007432 0.000000 0.000217 0.000000
# 4 0.000000 0.000000 0.000000 0.020049 0.000000 -0.004032
# 5 -0.007990 0.001352 0.000217 0.000000 0.037473 0.000000
# 6 0.000000 0.000000 0.000000 -0.004032 0.000000 0.030999
#
#
# Mechanical properties :
#
#
# Convention : Reuss Voigt Hill
#
# Bulk Modulus (GPa) = 45.45657 58.02207 51.73932
# Shear Modulus (GPa) = 36.82532 42.80080 39.81306
#
# Velocity S-wave (km/s) = 3.78836 4.08418 3.93905
# Velocity P-wave (km/s) = 6.07051 6.69726 6.39157
#
# Compressibility (1/GPa) = 0.02199902
#
# Stress axis : x y z
#
# Youngs Moduli (GPa) = 62.63951 132.19033 134.56002
#
# Poissons Ratio (x) = 0.17269 0.11013
# Poissons Ratio (y) = 0.08183 0.31704
# Poissons Ratio (z) = 0.05126 0.31146
#
# Static dielectric constant tensor:
#      x y z
#    x 1.908380 0.000000 -0.101370 
#    y 0.000000 2.104700 0.000000 
#    z -0.101370 0.000000 1.892360 
# 
# From -- ./inp_files/87516.got.cif
#   From: 2010.05.17/outbox.cif.g08.bks.cpg/sg15_44_cif.got.tgz:87516.got - 2010.06.03 18:47:42.
