data_PCOD9284271
_publ_section_title
;
Structure prediction by ZEFSAII (Michael W. Deem and Ramdas Pophale) SiO2 
 PCOD9284271
Probable space group: C 2/C
;
_chemical_formula_sum "Si O2"
_cell_formula_units_Z 36
_cell_length_a 8.488316
_cell_length_b 18.164210
_cell_length_c 17.633952
_cell_angle_alpha 90.000000
_cell_angle_beta 144.594186
_cell_angle_gamma 90.000000
_cell_volume 1575.212414
_symmetry_space_group_name_H-M "C 2/C"
_symmetry_group_IT_number 15
_symmetry_cell_setting 'monoclinic'
loop_
_space_group_symop_operation_xyz
x,y,z
-x,y,1/2-z
-x,-y,-z
x,-y,1/2+z
1/2+x,1/2+y,z
1/2-x,1/2+y,1/2-z
1/2-x,1/2-y,-z
1/2+x,1/2-y,1/2+z
loop_
_atom_site_type_symbol
_atom_site_label
_atom_site_fract_x
_atom_site_fract_y
_atom_site_fract_z
Si Si1 0.747784 0.093056 0.395749
Si Si2 0.500000 0.603485 0.750000
Si Si3 0.135160 0.993224 0.931259
Si Si4 0.271692 0.303437 0.399359
Si Si5 0.903782 0.347466 0.000916
O O1 0.500000 0.125176 0.250000
O O2 0.916569 0.045263 0.400567
O O3 0.953443 0.152944 0.511367
O O4 0.671500 0.038645 0.434842
O O5 0.493078 0.550225 0.819814
O O6 0.772777 0.650194 0.864568
O O7 0.292187 0.929918 0.946469
O O8 0.217455 0.323450 0.465611
O O9 0.314702 0.215895 0.408068
O O10 0.000000 0.327688 0.250000
#
# Coordination Sequence:
#
# PCOD9284271 Si02
#       5
#     8   4   8   8   8
#     4  10  21  40  68  94 120 165 218 256 302 381
#     4  12  22  38  62  96 124 158 210 266 302 378
#     4  10  22  39  62  93 130 163 201 263 323 366
#     4  10  22  43  63  84 125 171 204 253 317 377
#     4  10  23  39  59  91 125 163 203 258 319 373
#
# _framework density 22.85406
#
# number of rings (size 3 to 8) (size 9 to 14) (size 15 to 20)
#    0.000    1.778    0.000    3.333    3.111    6.222 
#    8.000    2.222    0.000    0.000    0.000    0.000 
#    0.000    0.000    0.000    0.000    0.000    0.000 
#
# Total GULP energy -100596.595294 kJ/mol
# GULP energy per Si atom -5588.699739 kJ/mol
# Density = 2.280204 g / cm^3
# Si number density = 22.854060 Si / 1000 Ang^3
#
#
#
# Elastic Constant Matrix: (Units=GPa)
#
#
# Indices 1 2 3 4 5 6 
#
# 1 36.7265 17.8269 -5.2510 0.0014 3.6552 0.0128
# 2 17.8269 91.9964 39.2249 0.0022 5.1043 0.0085
# 3 -5.2510 39.2249 125.4098 0.0057 9.4970 0.0496
# 4 0.0014 0.0022 0.0057 37.4890 0.0036 5.8363
# 5 3.6552 5.1043 9.4970 0.0036 31.5804 0.0232
# 6 0.0128 0.0085 0.0496 5.8363 0.0232 -58.7176
#
#
#
# Elastic Compliance Matrix: (Units=1/GPa)
#
#
# Indices 1 2 3 4 5 6 
#
# 1 0.031901 -0.007692 0.004019 -0.000002 -0.003658 0.000008
# 2 -0.007692 0.014421 -0.004833 0.000001 0.000013 -0.000004
# 3 0.004019 -0.004833 0.009854 -0.000002 -0.002647 0.000007
# 4 -0.000002 0.000001 -0.000002 0.026268 -0.000004 0.002611
# 5 -0.003658 0.000013 -0.002647 -0.000004 0.032883 0.000010
# 6 0.000008 -0.000004 0.000007 0.002611 0.000010 -0.016771
#
#
# Mechanical properties :
#
#
# Convention : Reuss Voigt Hill
#
# Bulk Modulus (GPa) = 25.53524 39.74826 32.64175
# Shear Modulus (GPa) = 38.87332 15.55917 27.21624
#
# Velocity S-wave (km/s) = 4.12872 2.61206 3.45464
# Velocity P-wave (km/s) = 5.82459 5.15044 5.49786
#
# Compressibility (1/GPa) = 0.03916157
#
# Stress axis : x y z
#
# Youngs Moduli (GPa) = 31.34743 69.34480 101.47772
#
# Poissons Ratio (x) = 0.53341 -0.40779
# Poissons Ratio (y) = 0.24113 0.49049
# Poissons Ratio (z) = -0.12597 0.33518
#
# Static dielectric constant tensor:
#      x y z
#    x 1.922570 0.000000 0.018550 
#    y 0.000000 1.906110 0.000000 
#    z 0.018550 0.000000 1.825810 
# 
# From -- ./inp_files/50548.got.cif
#   From: 2010.05.17/outbox.cif.g08.bks.cpg/sg15_26_cif.got.tgz:50548.got - 2010.06.03 18:47:42.
