data_PCOD9284681
_publ_section_title
;
Structure prediction by ZEFSAII (Michael W. Deem and Ramdas Pophale) SiO2 
 PCOD9284681
Probable space group: C 2/C
;
_chemical_formula_sum "Si O2"
_cell_formula_units_Z 64
_cell_length_a 14.543094
_cell_length_b 23.865752
_cell_length_c 8.646469
_cell_angle_alpha 90.000000
_cell_angle_beta 94.504998
_cell_angle_gamma 90.000000
_cell_volume 2991.760937
_symmetry_space_group_name_H-M "C 2/C"
_symmetry_group_IT_number 15
_symmetry_cell_setting 'monoclinic'
loop_
_space_group_symop_operation_xyz
x,y,z
-x,y,1/2-z
-x,-y,-z
x,-y,1/2+z
1/2+x,1/2+y,z
1/2-x,1/2+y,1/2-z
1/2-x,1/2-y,-z
1/2+x,1/2-y,1/2+z
loop_
_atom_site_type_symbol
_atom_site_label
_atom_site_fract_x
_atom_site_fract_y
_atom_site_fract_z
Si Si1 0.149267 0.419127 0.523370
Si Si2 0.834840 0.854399 0.555736
Si Si3 0.266794 0.085139 0.929777
Si Si4 0.485355 0.737417 0.062452
Si Si5 0.985954 0.062477 0.935084
Si Si6 0.472196 0.865869 0.428085
Si Si7 0.215131 0.500110 0.300974
Si Si8 0.368541 0.649280 0.428815
O O1 0.227638 0.370876 0.505334
O O2 0.048705 0.396735 0.538819
O O3 0.141258 0.462054 0.379316
O O4 0.182138 0.458008 0.666100
O O5 0.889101 0.796355 0.513276
O O6 0.894940 0.905379 0.490006
O O7 0.841657 0.851863 0.744418
O O8 0.373501 0.103943 0.932982
O O9 0.230319 0.049425 0.779296
O O10 0.215811 0.141665 0.967043
O O11 0.246661 0.041406 0.065370
O O12 0.500000 0.733820 0.250000
O O13 0.508569 0.801093 0.024214
O O14 0.569554 0.700952 0.011814
O O15 0.000000 0.065227 0.750000
O O16 0.066010 0.097176 0.029029
O O17 0.000000 0.000000 0.000000
O O18 0.500000 0.868657 0.250000
#
# Coordination Sequence:
#
# PCOD9284681 Si02
#       8
#     8   8   8   8   8   8   8   8
#     4  11  23  39  64  90 128 161 212 247 320 366
#     4  10  21  41  63  91 122 163 201 256 311 369
#     4  11  23  39  64  90 128 161 212 247 320 366
#     4   8  19  41  66  89 124 158 211 256 309 362
#     4  11  24  34  59  88 125 162 204 249 306 374
#     4  11  23  41  64  92 118 169 215 261 304 366
#     4  10  24  39  60  93 124 164 200 267 296 385
#     4  10  21  41  63  91 122 163 201 256 311 369
#
# _framework density 21.392085000000002
#
# number of rings (size 3 to 8) (size 9 to 14) (size 15 to 20)
#    0.000    1.750    2.500    1.875    5.250    4.500 
#    0.000    0.000   11.000    0.000    0.000    0.000 
#    0.000    0.000    0.000    0.000    0.000    0.000 
#
# Total GULP energy -178151.049932 kJ/mol
# GULP energy per Si atom -5567.220310 kJ/mol
# Density = 2.134340 g / cm^3
# Si number density = 21.392085 Si / 1000 Ang^3
#
#
#
# Elastic Constant Matrix: (Units=GPa)
#
#
# Indices 1 2 3 4 5 6 
#
# 1 102.4146 3.1410 -1.5287 0.0000 -3.3784 0.0000
# 2 3.1410 62.9580 11.9307 0.0000 1.8449 0.0000
# 3 -1.5287 11.9307 29.9495 0.0000 -15.7398 0.0000
# 4 0.0000 0.0000 0.0000 -4.2347 0.0000 -52.5662
# 5 -3.3784 1.8449 -15.7398 0.0000 14.3666 0.0000
# 6 0.0000 0.0000 0.0000 -52.5662 0.0000 -125.8780
#
#
#
# Elastic Compliance Matrix: (Units=1/GPa)
#
#
# Indices 1 2 3 4 5 6 
#
# 1 0.010242 -0.002013 0.006427 0.000000 0.009709 0.000000
# 2 -0.002013 0.021493 -0.024431 0.000000 -0.029999 0.000000
# 3 0.006427 -0.024431 0.108181 0.000000 0.123171 0.000000
# 4 0.000000 0.000000 0.000000 0.056444 0.000000 -0.023571
# 5 0.009709 -0.029999 0.123171 0.000000 0.210686 0.000000
# 6 0.000000 0.000000 0.000000 -0.023571 0.000000 0.001899
#
#
# Mechanical properties :
#
#
# Convention : Reuss Voigt Hill
#
# Bulk Modulus (GPa) = 10.01175 24.71203 17.36189
# Shear Modulus (GPa) = 10.36759 -11.03062 -0.33152
#
# Velocity S-wave (km/s) = 2.20386 -2.27323 -0.39409
# Velocity P-wave (km/s) = 3.34159 2.16493 2.81542
#
# Compressibility (1/GPa) = 0.09988261
#
# Stress axis : x y z
#
# Youngs Moduli (GPa) = 97.63550 46.52729 9.24373
#
# Poissons Ratio (x) = 0.09368 -0.05941
# Poissons Ratio (y) = 0.19658 0.22583
# Poissons Ratio (z) = -0.62751 1.13669
#
# Static dielectric constant tensor:
#      x y z
#    x 2.044330 0.000000 0.002790 
#    y 0.000000 2.063000 0.000000 
#    z 0.002790 0.000000 1.847020 
# 
# From -- ./inp_files/42646.got.cif
#   From: 2010.05.17/outbox.cif.g08.bks.cpg/sg15_22_cif.got.tgz:42646.got - 2010.06.03 18:47:42.
