data_PCOD9284350
_publ_section_title
;
Structure prediction by ZEFSAII (Michael W. Deem and Ramdas Pophale) SiO2 
 PCOD9284350
Probable space group: C 2/C
;
_chemical_formula_sum "Si O2"
_cell_formula_units_Z 48
_cell_length_a 31.075196
_cell_length_b 8.840777
_cell_length_c 16.112857
_cell_angle_alpha 90.000000
_cell_angle_beta 148.579209
_cell_angle_gamma 90.000000
_cell_volume 2307.707126
_symmetry_space_group_name_H-M "C 2/C"
_symmetry_group_IT_number 15
_symmetry_cell_setting 'monoclinic'
loop_
_space_group_symop_operation_xyz
x,y,z
-x,y,1/2-z
-x,-y,-z
x,-y,1/2+z
1/2+x,1/2+y,z
1/2-x,1/2+y,1/2-z
1/2-x,1/2-y,-z
1/2+x,1/2-y,1/2+z
loop_
_atom_site_type_symbol
_atom_site_label
_atom_site_fract_x
_atom_site_fract_y
_atom_site_fract_z
Si Si1 0.840003 0.810908 0.627085
Si Si2 0.903552 0.647826 0.569441
Si Si3 0.954190 0.703682 0.965856
Si Si4 0.107050 0.367956 0.629694
Si Si5 0.905623 0.295642 0.563295
Si Si6 0.784447 0.131289 0.490066
O O1 0.750000 0.750000 0.500000
O O2 0.861834 0.742190 0.573390
O O3 0.904874 0.754763 0.803024
O O4 0.831268 0.990851 0.607834
O O5 0.890367 0.712041 0.455280
O O6 0.876634 0.471400 0.522093
O O7 0.000000 0.647801 0.750000
O O8 0.942229 0.524702 0.963915
O O9 0.914000 0.769090 0.983424
O O10 0.051732 0.721971 0.106185
O O11 0.198166 0.416703 0.805644
O O12 0.844645 0.203595 0.521366
O O13 0.000000 0.292593 0.750000
O O14 0.750000 0.250000 0.500000
#
# Coordination Sequence:
#
# PCOD9284350 Si02
#       6
#     8   8   8   8   8   8
#     4  12  24  41  66  98 130 166 228 277 325 394
#     4  10  21  41  69  96 125 173 219 272 326 404
#     4  10  21  42  70  97 124 174 221 272 331 398
#     4  10  21  40  69  96 129 167 223 271 337 396
#     4  10  23  43  67  93 134 172 212 263 343 405
#     4  12  26  43  63  95 136 175 219 276 341 400
#
# _framework density 20.799868
#
# number of rings (size 3 to 8) (size 9 to 14) (size 15 to 20)
#    0.000    1.333    3.333    2.000    4.667    0.667 
#    3.000    1.667    0.000    0.000    0.000    0.000 
#    0.000    0.000    0.000    0.000    0.000    0.000 
#
# Total GULP energy -133952.695411 kJ/mol
# GULP energy per Si atom -5581.362309 kJ/mol
# Density = 2.075253 g / cm^3
# Si number density = 20.799868 Si / 1000 Ang^3
#
#
#
# Elastic Constant Matrix: (Units=GPa)
#
#
# Indices 1 2 3 4 5 6 
#
# 1 185.1455 56.9193 18.9172 0.0000 -2.4027 0.0000
# 2 56.9193 65.7501 -5.3646 0.0000 -0.5781 0.0000
# 3 18.9172 -5.3646 32.3228 0.0000 -0.8920 0.0000
# 4 0.0000 0.0000 0.0000 17.5409 0.0000 -4.5105
# 5 -2.4027 -0.5781 -0.8920 0.0000 42.0844 0.0000
# 6 0.0000 0.0000 0.0000 -4.5105 0.0000 28.4737
#
#
#
# Elastic Compliance Matrix: (Units=1/GPa)
#
#
# Indices 1 2 3 4 5 6 
#
# 1 0.008444 -0.007816 -0.006233 0.000000 0.000243 0.000000
# 2 -0.007816 0.022656 0.008336 0.000000 0.000042 0.000000
# 3 -0.006233 0.008336 0.035983 0.000000 0.000521 0.000000
# 4 0.000000 0.000000 0.000000 0.059431 0.000000 0.009414
# 5 0.000243 0.000042 0.000521 0.000000 0.023787 0.000000
# 6 0.000000 0.000000 0.000000 0.009414 0.000000 0.036611
#
#
# Mechanical properties :
#
#
# Convention : Reuss Voigt Hill
#
# Bulk Modulus (GPa) = 17.96691 47.12912 32.54801
# Shear Modulus (GPa) = 23.05300 31.80291 27.42795
#
# Velocity S-wave (km/s) = 3.33276 3.91448 3.63528
# Velocity P-wave (km/s) = 4.84422 6.56799 5.77083
#
# Compressibility (1/GPa) = 0.05565787
#
# Stress axis : x y z
#
# Youngs Moduli (GPa) = 118.42573 44.13800 27.79055
#
# Poissons Ratio (x) = 0.34500 0.17321
# Poissons Ratio (y) = 0.92566 -0.23166
# Poissons Ratio (z) = 0.73810 -0.36793
#
# Static dielectric constant tensor:
#      x y z
#    x 1.753850 0.000000 -0.028190 
#    y 0.000000 1.765320 0.000000 
#    z -0.028190 0.000000 1.761660 
# 
# From -- ./inp_files/177012.got.cif
#   From: 2010.05.17/outbox.cif.g08.bks.cpg/sg15_89_cif.got.tgz:177012.got - 2010.06.03 18:47:42.
