data_PCOD9284319
_publ_section_title
;
Structure prediction by ZEFSAII (Michael W. Deem and Ramdas Pophale) SiO2 
 PCOD9284319
Probable space group: C 2/C
;
_chemical_formula_sum "Si O2"
_cell_formula_units_Z 40
_cell_length_a 11.117310
_cell_length_b 14.399153
_cell_length_c 14.112520
_cell_angle_alpha 90.000000
_cell_angle_beta 131.004890
_cell_angle_gamma 90.000000
_cell_volume 1704.860592
_symmetry_space_group_name_H-M "C 2/C"
_symmetry_group_IT_number 15
_symmetry_cell_setting 'monoclinic'
loop_
_space_group_symop_operation_xyz
x,y,z
-x,y,1/2-z
-x,-y,-z
x,-y,1/2+z
1/2+x,1/2+y,z
1/2-x,1/2+y,1/2-z
1/2-x,1/2-y,-z
1/2+x,1/2-y,1/2+z
loop_
_atom_site_type_symbol
_atom_site_label
_atom_site_fract_x
_atom_site_fract_y
_atom_site_fract_z
Si Si1 0.567894 0.671320 0.999598
Si Si2 0.662613 0.862758 0.991013
Si Si3 0.559032 0.244636 0.887362
Si Si4 0.629431 0.554265 0.747680
Si Si5 0.962410 0.467589 0.341955
O O1 0.549411 0.775338 0.947443
O O2 0.458681 0.600233 0.886608
O O3 0.747406 0.647009 0.062544
O O4 0.521969 0.681439 0.084374
O O5 0.578522 0.960812 0.952146
O O6 0.797008 0.867492 0.142825
O O7 0.500000 0.259485 0.750000
O O8 0.500493 0.140221 0.883692
O O9 0.750000 0.250000 0.000000
O O10 0.500000 0.504900 0.750000
O O11 0.783493 0.507177 0.780988
O O12 0.000000 0.476521 0.250000
#
# Coordination Sequence:
#
# PCOD9284319 Si02
#       5
#     8   8   8   8   8
#     4  10  21  40  69 101 136 173 237 280 345 419
#     4  10  22  40  70  99 131 180 231 283 349 412
#     4  11  24  44  70 101 143 189 232 290 357 425
#     4  10  21  41  68  98 139 178 221 296 345 413
#     4  11  23  43  67  96 140 184 232 290 355 416
#
# _framework density 23.462327999999999
#
# number of rings (size 3 to 8) (size 9 to 14) (size 15 to 20)
#    0.000    1.600    2.000    3.000    0.000    4.000 
#    0.000   12.000    0.000    0.000    0.000    0.000 
#    0.000    0.000    0.000    0.000    0.000    0.000 
#
# Total GULP energy -111781.486335 kJ/mol
# GULP energy per Si atom -5589.074317 kJ/mol
# Density = 2.340893 g / cm^3
# Si number density = 23.462328 Si / 1000 Ang^3
#
#
#
# Elastic Constant Matrix: (Units=GPa)
#
#
# Indices 1 2 3 4 5 6 
#
# 1 198.7691 28.3774 60.9051 0.0000 -18.5908 0.0000
# 2 28.3774 40.4594 27.9923 0.0000 -13.2863 0.0000
# 3 60.9051 27.9923 86.8231 0.0000 -8.9787 0.0000
# 4 0.0000 0.0000 0.0000 19.6750 0.0000 1.3735
# 5 -18.5908 -13.2863 -8.9787 0.0000 25.4269 0.0000
# 6 0.0000 0.0000 0.0000 1.3735 0.0000 17.6799
#
#
#
# Elastic Compliance Matrix: (Units=1/GPa)
#
#
# Indices 1 2 3 4 5 6 
#
# 1 0.006693 -0.000873 -0.004104 0.000000 0.002988 0.000000
# 2 -0.000873 0.037114 -0.009771 0.000000 0.015305 0.000000
# 3 -0.004104 -0.009771 0.017342 0.000000 -0.001982 0.000000
# 4 0.000000 0.000000 0.000000 0.051103 0.000000 -0.003970
# 5 0.002988 0.015305 -0.001982 0.000000 0.048810 0.000000
# 6 0.000000 0.000000 0.000000 -0.003970 0.000000 0.056870
#
#
# Mechanical properties :
#
#
# Convention : Reuss Voigt Hill
#
# Bulk Modulus (GPa) = 31.59310 62.28904 46.94107
# Shear Modulus (GPa) = 19.38143 26.47481 22.92812
#
# Velocity S-wave (km/s) = 2.87725 3.36281 3.12946
# Velocity P-wave (km/s) = 4.95306 6.45632 5.75400
#
# Compressibility (1/GPa) = 0.03165248
#
# Stress axis : x y z
#
# Youngs Moduli (GPa) = 149.41698 26.94374 57.66412
#
# Poissons Ratio (x) = 0.02353 0.23667
# Poissons Ratio (y) = 0.13051 0.56341
# Poissons Ratio (z) = 0.61324 0.26325
#
# Static dielectric constant tensor:
#      x y z
#    x 1.937940 0.000000 -0.028010 
#    y 0.000000 1.855310 0.000000 
#    z -0.028010 0.000000 1.905240 
# 
# From -- ./inp_files/143923.got.cif
#   From: 2010.05.17/outbox.cif.g08.bks.cpg/sg15_72_cif.got.tgz:143923.got - 2010.06.03 18:47:42.
