data_PCOD9284838
_publ_section_title
;
Structure prediction by ZEFSAII (Michael W. Deem and Ramdas Pophale) SiO2 
 PCOD9284838
Probable space group: C 2/C
;
_chemical_formula_sum "Si O2"
_cell_formula_units_Z 36
_cell_length_a 20.739994
_cell_length_b 13.206769
_cell_length_c 7.725574
_cell_angle_alpha 90.000000
_cell_angle_beta 42.436352
_cell_angle_gamma 90.000000
_cell_volume 1427.881703
_symmetry_space_group_name_H-M "C 2/C"
_symmetry_group_IT_number 15
_symmetry_cell_setting 'monoclinic'
loop_
_space_group_symop_operation_xyz
x,y,z
-x,y,1/2-z
-x,-y,-z
x,-y,1/2+z
1/2+x,1/2+y,z
1/2-x,1/2+y,1/2-z
1/2-x,1/2-y,-z
1/2+x,1/2-y,1/2+z
loop_
_atom_site_type_symbol
_atom_site_label
_atom_site_fract_x
_atom_site_fract_y
_atom_site_fract_z
Si Si1 0.279107 0.236129 0.140429
Si Si2 0.500000 0.427832 0.250000
Si Si3 0.604674 0.849250 0.595831
Si Si4 0.623892 0.404346 0.325300
Si Si5 0.678219 0.956068 0.758637
O O1 0.182267 0.260100 0.439996
O O2 0.352601 0.314884 0.084344
O O3 0.312666 0.122065 0.101304
O O4 0.250000 0.250000 0.000000
O O5 0.545033 0.378491 0.334204
O O6 0.417563 0.501372 0.485932
O O7 0.500000 0.818024 0.750000
O O8 0.600959 0.905500 0.785882
O O9 0.648609 0.934171 0.380235
O O10 0.722024 0.443354 0.042299
#
# Coordination Sequence:
#
# PCOD9284838 Si02
#       5
#     8   4   8   8   8
#     4  11  25  46  66  98 141 189 233 283 361 416
#     4  10  22  40  68 104 136 174 240 282 350 428
#     4  11  23  44  74 100 133 183 238 290 339 417
#     4  10  21  41  64  99 138 182 223 289 352 419
#     4  11  23  44  69  96 139 181 230 280 361 408
#
# _framework density 25.212173
#
# number of rings (size 3 to 8) (size 9 to 14) (size 15 to 20)
#    0.000    1.333    0.000    7.333    0.000    5.333 
#   18.000    0.000    0.000    0.000    0.000    0.000 
#    0.000    0.000    0.000    0.000    0.000    0.000 
#
# Total GULP energy -100847.033408 kJ/mol
# GULP energy per Si atom -5602.612967 kJ/mol
# Density = 2.515479 g / cm^3
# Si number density = 25.212173 Si / 1000 Ang^3
#
#
#
# Elastic Constant Matrix: (Units=GPa)
#
#
# Indices 1 2 3 4 5 6 
#
# 1 185.7202 36.4242 28.4345 0.0000 6.4129 0.0000
# 2 36.4242 90.6523 24.3418 0.0000 -4.5344 0.0000
# 3 28.4345 24.3418 34.7654 0.0000 1.2754 0.0000
# 4 0.0000 0.0000 0.0000 38.4746 0.0000 4.7285
# 5 6.4129 -4.5344 1.2754 0.0000 47.5661 0.0000
# 6 0.0000 0.0000 0.0000 4.7285 0.0000 45.3040
#
#
#
# Elastic Compliance Matrix: (Units=1/GPa)
#
#
# Indices 1 2 3 4 5 6 
#
# 1 0.006336 -0.001487 -0.004108 0.000000 -0.000886 0.000000
# 2 -0.001487 0.014050 -0.008686 0.000000 0.001773 0.000000
# 3 -0.004108 -0.008686 0.038254 0.000000 -0.001300 0.000000
# 4 0.000000 0.000000 0.000000 0.026329 0.000000 -0.002748
# 5 -0.000886 0.001773 -0.001300 0.000000 0.021347 0.000000
# 6 0.000000 0.000000 0.000000 -0.002748 0.000000 0.022360
#
#
# Mechanical properties :
#
#
# Convention : Reuss Voigt Hill
#
# Bulk Modulus (GPa) = 33.24852 54.39322 43.82087
# Shear Modulus (GPa) = 29.89306 41.06477 35.47892
#
# Velocity S-wave (km/s) = 3.44708 4.04018 3.75535
# Velocity P-wave (km/s) = 5.39066 6.58673 6.01848
#
# Compressibility (1/GPa) = 0.03007652
#
# Stress axis : x y z
#
# Youngs Moduli (GPa) = 157.83737 71.17628 26.14108
#
# Poissons Ratio (x) = 0.10582 0.10740
# Poissons Ratio (y) = 0.23467 0.22707
# Poissons Ratio (z) = 0.64846 0.61825
#
# Static dielectric constant tensor:
#      x y z
#    x 2.034950 0.000000 0.029800 
#    y 0.000000 1.986790 0.000000 
#    z 0.029800 0.000000 1.987340 
# 
# From -- ./inp_files/55591.got.cif
#   From: 2010.05.17/outbox.cif.g08.bks.cpg/sg15_28_cif.got.tgz:55591.got - 2010.06.03 18:47:42.
