data_PCOD9284174
_publ_section_title
;
Structure prediction by ZEFSAII (Michael W. Deem and Ramdas Pophale) SiO2 
 PCOD9284174
Probable space group: C 2/C
;
_chemical_formula_sum "Si O2"
_cell_formula_units_Z 44
_cell_length_a 8.729789
_cell_length_b 31.984543
_cell_length_c 9.923780
_cell_angle_alpha 90.000000
_cell_angle_beta 49.737985
_cell_angle_gamma 90.000000
_cell_volume 2114.466203
_symmetry_space_group_name_H-M "C 2/C"
_symmetry_group_IT_number 15
_symmetry_cell_setting 'monoclinic'
loop_
_space_group_symop_operation_xyz
x,y,z
-x,y,1/2-z
-x,-y,-z
x,-y,1/2+z
1/2+x,1/2+y,z
1/2-x,1/2+y,1/2-z
1/2-x,1/2-y,-z
1/2+x,1/2-y,1/2+z
loop_
_atom_site_type_symbol
_atom_site_label
_atom_site_fract_x
_atom_site_fract_y
_atom_site_fract_z
Si Si1 0.643299 0.116711 0.462231
Si Si2 0.339616 0.190213 0.233144
Si Si3 0.556325 0.960759 0.561430
Si Si4 0.531558 0.722109 0.892833
Si Si5 0.000000 0.921542 0.250000
Si Si6 0.786579 0.135416 0.663011
O O1 0.730960 0.152840 0.318954
O O2 0.591636 0.075899 0.406795
O O3 0.770608 0.114190 0.525920
O O4 0.423862 0.130666 0.640137
O O5 0.500000 0.173419 0.250000
O O6 0.419765 0.229788 0.103416
O O7 0.172262 0.210782 0.419165
O O8 0.500000 0.968664 0.750000
O O9 0.792464 0.947146 0.401942
O O10 0.500000 0.000000 0.500000
O O11 0.500000 0.718851 0.750000
O O12 0.675037 0.685022 0.861099
O O13 0.050213 0.890204 0.344555
#
# Coordination Sequence:
#
# PCOD9284174 Si02
#       6
#     8   8   8   8   4   8
#     4  10  23  42  65  94 133 173 222 277 334 398
#     4  11  22  36  60  89 131 175 225 271 330 389
#     4  11  27  48  75 105 140 177 225 282 347 415
#     4  11  21  36  59  92 128 176 225 270 325 390
#     4  10  24  46  74 102 140 180 222 276 350 404
#     4  10  21  40  67  93 133 173 221 273 333 392
#
# _framework density 20.809034
#
# number of rings (size 3 to 8) (size 9 to 14) (size 15 to 20)
#    0.000    1.455    0.909    4.909   10.182    2.182 
#    0.000    0.000    0.000    0.000    0.000    0.000 
#    0.000    0.000    0.000    0.000    0.000    0.000 
#
# Total GULP energy -122850.763574 kJ/mol
# GULP energy per Si atom -5584.125617 kJ/mol
# Density = 2.076167 g / cm^3
# Si number density = 20.809034 Si / 1000 Ang^3
#
#
#
# Elastic Constant Matrix: (Units=GPa)
#
#
# Indices 1 2 3 4 5 6 
#
# 1 91.3790 36.9288 16.8413 0.0000 16.1204 0.0000
# 2 36.9288 93.4920 25.8740 0.0000 12.7277 0.0000
# 3 16.8413 25.8740 71.1836 0.0000 8.9352 0.0000
# 4 0.0000 0.0000 0.0000 34.8521 0.0000 3.4768
# 5 16.1204 12.7277 8.9352 0.0000 21.0992 0.0000
# 6 0.0000 0.0000 0.0000 3.4768 0.0000 30.0541
#
#
#
# Elastic Compliance Matrix: (Units=1/GPa)
#
#
# Indices 1 2 3 4 5 6 
#
# 1 0.014237 -0.004322 -0.000802 0.000000 -0.007931 0.000000
# 2 -0.004322 0.013877 -0.003575 0.000000 -0.003555 0.000000
# 3 -0.000802 -0.003575 0.016043 0.000000 -0.004024 0.000000
# 4 0.000000 0.000000 0.000000 0.029028 0.000000 -0.003358
# 5 -0.007931 -0.003555 -0.004024 0.000000 0.057303 0.000000
# 6 0.000000 0.000000 0.000000 -0.003358 0.000000 0.033662
#
#
# Mechanical properties :
#
#
# Convention : Reuss Voigt Hill
#
# Bulk Modulus (GPa) = 37.37181 46.14920 41.76050
# Shear Modulus (GPa) = 26.25142 28.96179 27.60661
#
# Velocity S-wave (km/s) = 3.55567 3.73472 3.64629
# Velocity P-wave (km/s) = 5.90385 6.38930 6.15136
#
# Compressibility (1/GPa) = 0.02675814
#
# Stress axis : x y z
#
# Youngs Moduli (GPa) = 70.23992 72.06380 62.33414
#
# Poissons Ratio (x) = 0.31145 0.04998
# Poissons Ratio (y) = 0.30357 0.22286
# Poissons Ratio (z) = 0.05632 0.25764
#
# Static dielectric constant tensor:
#      x y z
#    x 1.777550 0.000000 -0.023950 
#    y 0.000000 1.765560 0.000000 
#    z -0.023950 0.000000 1.775260 
# 
# From -- ./inp_files/25967.got.cif
#   From: 2010.05.17/outbox.cif.g08.bks.cpg/sg15_13_cif.got.tgz:25967.got - 2010.06.03 18:47:42.
