data_PCOD9284225
_publ_section_title
;
Structure prediction by ZEFSAII (Michael W. Deem and Ramdas Pophale) SiO2 
 PCOD9284225
Probable space group: C 2/C
;
_chemical_formula_sum "Si O2"
_cell_formula_units_Z 48
_cell_length_a 16.581653
_cell_length_b 9.815436
_cell_length_c 28.005812
_cell_angle_alpha 90.000000
_cell_angle_beta 150.106388
_cell_angle_gamma 90.000000
_cell_volume 2271.725497
_symmetry_space_group_name_H-M "C 2/C"
_symmetry_group_IT_number 15
_symmetry_cell_setting 'monoclinic'
loop_
_space_group_symop_operation_xyz
x,y,z
-x,y,1/2-z
-x,-y,-z
x,-y,1/2+z
1/2+x,1/2+y,z
1/2-x,1/2+y,1/2-z
1/2-x,1/2-y,-z
1/2+x,1/2-y,1/2+z
loop_
_atom_site_type_symbol
_atom_site_label
_atom_site_fract_x
_atom_site_fract_y
_atom_site_fract_z
Si Si1 0.282134 0.922503 0.400507
Si Si2 0.357694 0.218382 0.761737
Si Si3 0.716172 0.148155 0.939610
Si Si4 0.179441 0.965392 0.239573
Si Si5 0.330493 0.609378 0.552640
Si Si6 0.404139 0.229010 0.453307
O O1 0.203123 0.928718 0.307554
O O2 0.176853 0.913025 0.394026
O O3 0.410693 0.797359 0.466567
O O4 0.358649 0.073757 0.444757
O O5 0.534172 0.187370 0.829836
O O6 0.324728 0.102033 0.784307
O O7 0.346909 0.371706 0.777755
O O8 0.214677 0.222510 0.649580
O O9 0.854710 0.174708 0.971591
O O10 0.750000 0.250000 0.000000
O O11 0.733795 0.001707 0.972419
O O12 0.018149 0.897482 0.136485
O O13 0.250000 0.750000 0.500000
#
# Coordination Sequence:
#
# PCOD9284225 Si02
#       6
#     8   8   8   8   8   8
#     4  10  21  40  69  92 132 172 221 270 338 403
#     4  11  24  41  67  97 135 172 225 277 335 407
#     4  12  22  42  68  93 130 175 227 271 336 404
#     4  11  24  42  67  97 131 176 224 274 338 406
#     4  12  26  43  65  99 136 174 224 283 338 404
#     4  10  21  40  67  99 126 173 223 274 329 406
#
# _framework density 21.129313
#
# number of rings (size 3 to 8) (size 9 to 14) (size 15 to 20)
#    0.000    1.000    3.333    3.000    7.000    2.667 
#    3.000    3.333    0.000    0.000    0.000    0.000 
#    0.000    0.000    0.000    0.000    0.000    0.000 
#
# Total GULP energy -133988.044146 kJ/mol
# GULP energy per Si atom -5582.835173 kJ/mol
# Density = 2.108122 g / cm^3
# Si number density = 21.129313 Si / 1000 Ang^3
#
#
#
# Elastic Constant Matrix: (Units=GPa)
#
#
# Indices 1 2 3 4 5 6 
#
# 1 80.2066 12.9645 4.1901 0.0000 3.8400 0.0000
# 2 12.9645 102.1830 20.0930 -0.0001 -4.7786 0.0000
# 3 4.1901 20.0930 67.9538 0.0000 12.5930 0.0000
# 4 0.0000 -0.0001 0.0000 25.4940 0.0000 -2.4167
# 5 3.8400 -4.7786 12.5930 0.0000 27.6300 0.0000
# 6 0.0000 0.0000 0.0000 -2.4167 0.0000 26.8091
#
#
#
# Elastic Compliance Matrix: (Units=1/GPa)
#
#
# Indices 1 2 3 4 5 6 
#
# 1 0.012848 -0.001755 0.000124 0.000000 -0.002146 0.000000
# 2 -0.001755 0.010948 -0.003850 0.000000 0.003892 0.000000
# 3 0.000124 -0.003850 0.017447 0.000000 -0.008635 0.000000
# 4 0.000000 0.000000 0.000000 0.039563 0.000000 0.003566
# 5 -0.002146 0.003892 -0.008635 0.000000 0.041099 0.000000
# 6 0.000000 0.000000 0.000000 0.003566 0.000000 0.037622
#
#
# Mechanical properties :
#
#
# Convention : Reuss Voigt Hill
#
# Bulk Modulus (GPa) = 33.02392 36.09317 34.55854
# Shear Modulus (GPa) = 27.68814 30.19302 28.94058
#
# Velocity S-wave (km/s) = 3.62389 3.78426 3.70495
# Velocity P-wave (km/s) = 5.75964 6.01775 5.89011
#
# Compressibility (1/GPa) = 0.03028109
#
# Stress axis : x y z
#
# Youngs Moduli (GPa) = 77.83506 91.33969 57.31676
#
# Poissons Ratio (x) = 0.16029 -0.00713
# Poissons Ratio (y) = 0.13659 0.22069
# Poissons Ratio (z) = -0.00968 0.35169
#
# Static dielectric constant tensor:
#      x y z
#    x 1.768700 0.000000 0.045110 
#    y 0.000000 1.717800 0.000000 
#    z 0.045110 0.000000 1.747340 
# 
# From -- ./inp_files/315775.got.cif
#   From: 2010.05.17/outbox.cif.g08.bks.cpg/sg15_158_cif.got.tgz:315775.got - 2010.06.03 18:47:42.
