data_PCOD9284020
_publ_section_title
;
Structure prediction by ZEFSAII (Michael W. Deem and Ramdas Pophale) SiO2 
 PCOD9284020
Probable space group: C 2/C
;
_chemical_formula_sum "Si O2"
_cell_formula_units_Z 44
_cell_length_a 28.889515
_cell_length_b 8.739197
_cell_length_c 9.145648
_cell_angle_alpha 90.000000
_cell_angle_beta 102.704803
_cell_angle_gamma 90.000000
_cell_volume 2252.478783
_symmetry_space_group_name_H-M "C 2/C"
_symmetry_group_IT_number 15
_symmetry_cell_setting 'monoclinic'
loop_
_space_group_symop_operation_xyz
x,y,z
-x,y,1/2-z
-x,-y,-z
x,-y,1/2+z
1/2+x,1/2+y,z
1/2-x,1/2+y,1/2-z
1/2-x,1/2-y,-z
1/2+x,1/2-y,1/2+z
loop_
_atom_site_type_symbol
_atom_site_label
_atom_site_fract_x
_atom_site_fract_y
_atom_site_fract_z
Si Si1 0.400463 0.321881 0.132874
Si Si2 0.196315 0.697121 0.460451
Si Si3 0.652691 0.964092 0.211124
Si Si4 0.500000 0.794161 0.250000
Si Si5 0.550438 0.539180 0.106167
Si Si6 0.586171 0.039937 0.916340
O O1 0.343656 0.321092 0.111479
O O2 0.428697 0.402058 0.283075
O O3 0.414361 0.143337 0.116634
O O4 0.414199 0.412820 0.996710
O O5 0.250000 0.750000 0.500000
O O6 0.188120 0.564971 0.333381
O O7 0.179920 0.636677 0.609717
O O8 0.618678 0.888565 0.309515
O O9 0.615353 0.060472 0.085918
O O10 0.536899 0.684367 0.194842
O O11 0.466767 0.896097 0.122880
O O12 0.500000 0.500000 0.000000
#
# Coordination Sequence:
#
# PCOD9284020 Si02
#       6
#     8   8   8   4   8   8
#     4  10  24  42  58  83 131 158 204 259 309 363
#     4  10  21  40  66  90 117 161 207 266 318 371
#     4   8  19  40  58  84 126 144 205 262 311 344
#     4  12  24  32  66  86 118 160 226 230 314 366
#     4  12  24  40  55  88 127 168 195 251 317 385
#     4  10  22  39  61  89 115 169 206 259 290 366
#
# _framework density 19.534034999999999
#
# number of rings (size 3 to 8) (size 9 to 14) (size 15 to 20)
#    0.000    2.182    1.818    2.182    7.636    2.909 
#    0.000    3.636    0.000    0.000    0.000    0.000 
#    0.000    0.000    0.000    0.000    0.000    0.000 
#
# Total GULP energy -122679.979495 kJ/mol
# GULP energy per Si atom -5576.362704 kJ/mol
# Density = 1.948957 g / cm^3
# Si number density = 19.534035 Si / 1000 Ang^3
#
#
#
# Elastic Constant Matrix: (Units=GPa)
#
#
# Indices 1 2 3 4 5 6 
#
# 1 94.1797 34.8859 30.1000 0.0000 30.9710 0.0000
# 2 34.8859 66.6103 27.6808 0.0000 17.8980 0.0000
# 3 30.1000 27.6808 93.8707 0.0000 5.2071 0.0000
# 4 0.0000 0.0000 0.0000 12.4006 0.0000 8.3264
# 5 30.9710 17.8980 5.2071 0.0000 40.7439 0.0000
# 6 0.0000 0.0000 0.0000 8.3264 0.0000 36.1716
#
#
#
# Elastic Compliance Matrix: (Units=1/GPa)
#
#
# Indices 1 2 3 4 5 6 
#
# 1 0.016824 -0.004596 -0.003467 0.000000 -0.010327 0.000000
# 2 -0.004596 0.020549 -0.004310 0.000000 -0.004983 0.000000
# 3 -0.003467 -0.004310 0.012875 0.000000 0.002883 0.000000
# 4 0.000000 0.000000 0.000000 0.095384 0.000000 -0.021957
# 5 -0.010327 -0.004983 0.002883 0.000000 0.034214 0.000000
# 6 0.000000 0.000000 0.000000 -0.021957 0.000000 0.032700
#
#
# Mechanical properties :
#
#
# Convention : Reuss Voigt Hill
#
# Bulk Modulus (GPa) = 39.20830 48.88825 44.04828
# Shear Modulus (GPa) = 20.34226 28.66282 24.50254
#
# Velocity S-wave (km/s) = 3.23054 3.83473 3.54552
# Velocity P-wave (km/s) = 5.83357 6.68494 6.27371
#
# Compressibility (1/GPa) = 0.02550480
#
# Stress axis : x y z
#
# Youngs Moduli (GPa) = 59.43750 48.66301 77.66719
#
# Poissons Ratio (x) = 0.22366 0.26925
# Poissons Ratio (y) = 0.27318 0.33471
# Poissons Ratio (z) = 0.20605 0.20972
#
# Static dielectric constant tensor:
#      x y z
#    x 1.682770 0.000000 -0.019230 
#    y 0.000000 1.728880 0.000000 
#    z -0.019230 0.000000 1.752430 
# 
# From -- ./inp_files/68315.got.cif
#   From: 2010.05.17/outbox.cif.g08.bks.cpg/sg15_35_cif.got.tgz:68315.got - 2010.06.03 18:47:42.
