data_PCOD9284089
_publ_section_title
;
Structure prediction by ZEFSAII (Michael W. Deem and Ramdas Pophale) SiO2 
 PCOD9284089
Probable space group: C 2/C
;
_chemical_formula_sum "Si O2"
_cell_formula_units_Z 56
_cell_length_a 14.357863
_cell_length_b 8.090600
_cell_length_c 27.273495
_cell_angle_alpha 90.000000
_cell_angle_beta 130.417319
_cell_angle_gamma 90.000000
_cell_volume 2412.077879
_symmetry_space_group_name_H-M "C 2/C"
_symmetry_group_IT_number 15
_symmetry_cell_setting 'monoclinic'
loop_
_space_group_symop_operation_xyz
x,y,z
-x,y,1/2-z
-x,-y,-z
x,-y,1/2+z
1/2+x,1/2+y,z
1/2-x,1/2+y,1/2-z
1/2-x,1/2-y,-z
1/2+x,1/2-y,1/2+z
loop_
_atom_site_type_symbol
_atom_site_label
_atom_site_fract_x
_atom_site_fract_y
_atom_site_fract_z
Si Si1 0.084463 0.398523 0.065169
Si Si2 0.828852 0.407796 0.810442
Si Si3 0.778887 0.103240 0.383338
Si Si4 0.973746 0.423301 0.187570
Si Si5 0.858663 0.179349 0.980371
Si Si6 0.638452 0.624824 0.410009
Si Si7 0.383794 0.476197 0.319080
O O1 0.118302 0.506910 0.123194
O O2 0.201153 0.288745 0.089721
O O3 0.000000 0.500000 0.000000
O O4 0.988806 0.248057 0.040591
O O5 0.688726 0.459457 0.753298
O O6 0.846608 0.211981 0.817216
O O7 0.909089 0.483125 0.793473
O O8 0.638813 0.047981 0.341875
O O9 0.853315 0.964611 0.439208
O O10 0.826699 0.086223 0.343857
O O11 0.931935 0.290874 0.132631
O O12 0.000000 0.345950 0.250000
O O13 0.770676 0.329289 0.931468
O O14 0.816990 0.105289 0.018451
O O15 0.530530 0.493316 0.364896
#
# Coordination Sequence:
#
# PCOD9284089 Si02
#       7
#     8   8   8   8   8   8   8
#     4  12  25  43  66  99 138 173 227 279 335 408
#     4  12  26  43  67 100 133 181 219 288 343 401
#     4  11  23  40  70  98 131 179 223 277 339 402
#     4  11  22  42  68  96 134 176 224 277 344 399
#     4  10  21  40  66  95 133 171 222 265 340 397
#     4  10  22  41  66  95 128 177 217 277 329 408
#     4  12  24  44  70  96 135 172 232 279 343 403
#
# _framework density 23.216495999999999
#
# number of rings (size 3 to 8) (size 9 to 14) (size 15 to 20)
#    0.000    0.857    4.286    3.000    2.000    1.143 
#    0.000    2.143    0.000    0.000    0.000    0.000 
#    0.000    0.000    0.000    0.000    0.000    0.000 
#
# Total GULP energy -156228.918944 kJ/mol
# GULP energy per Si atom -5579.604248 kJ/mol
# Density = 2.316365 g / cm^3
# Si number density = 23.216496 Si / 1000 Ang^3
#
#
#
# Elastic Constant Matrix: (Units=GPa)
#
#
# Indices 1 2 3 4 5 6 
#
# 1 52.1939 7.7819 29.9196 0.0000 6.0508 0.0000
# 2 7.7819 90.5323 46.9362 0.0000 4.3191 0.0000
# 3 29.9196 46.9362 166.6424 0.0000 9.7736 0.0000
# 4 0.0000 0.0000 0.0000 39.8300 0.0000 6.9781
# 5 6.0508 4.3191 9.7736 0.0000 42.7592 0.0000
# 6 0.0000 0.0000 0.0000 6.9781 0.0000 21.7147
#
#
#
# Elastic Compliance Matrix: (Units=1/GPa)
#
#
# Indices 1 2 3 4 5 6 
#
# 1 0.021563 0.000225 -0.003805 0.000000 -0.002204 0.000000
# 2 0.000225 0.012947 -0.003657 0.000000 -0.000504 0.000000
# 3 -0.003805 -0.003657 0.007765 0.000000 -0.000867 0.000000
# 4 0.000000 0.000000 0.000000 0.026605 0.000000 -0.008549
# 5 -0.002204 -0.000504 -0.000867 0.000000 0.023948 0.000000
# 6 0.000000 0.000000 0.000000 -0.008549 0.000000 0.048799
#
#
# Mechanical properties :
#
#
# Convention : Reuss Voigt Hill
#
# Bulk Modulus (GPa) = 35.97356 53.18265 44.57810
# Shear Modulus (GPa) = 30.23554 35.84285 33.03919
#
# Velocity S-wave (km/s) = 3.61270 3.93345 3.77648
# Velocity P-wave (km/s) = 5.73852 6.60200 6.18534
#
# Compressibility (1/GPa) = 0.02779820
#
# Stress axis : x y z
#
# Youngs Moduli (GPa) = 46.37613 77.24026 128.78170
#
# Poissons Ratio (x) = -0.01735 0.49007
# Poissons Ratio (y) = -0.01042 0.47099
# Poissons Ratio (z) = 0.17648 0.28249
#
# Static dielectric constant tensor:
#      x y z
#    x 1.971670 0.000000 0.019290 
#    y 0.000000 1.925080 0.000000 
#    z 0.019290 0.000000 1.844780 
# 
# From -- ./inp_files/315546.got.cif
#   From: 2010.05.17/outbox.cif.g08.bks.cpg/sg15_158_cif.got.tgz:315546.got - 2010.06.03 18:47:42.
