data_PCOD9284451
_publ_section_title
;
Structure prediction by ZEFSAII (Michael W. Deem and Ramdas Pophale) SiO2 
 PCOD9284451
Probable space group: C 2/C
;
_chemical_formula_sum "Si O2"
_cell_formula_units_Z 36
_cell_length_a 15.633306
_cell_length_b 11.568292
_cell_length_c 11.287825
_cell_angle_alpha 90.000000
_cell_angle_beta 63.428506
_cell_angle_gamma 90.000000
_cell_volume 1825.790365
_symmetry_space_group_name_H-M "C 2/C"
_symmetry_group_IT_number 15
_symmetry_cell_setting 'monoclinic'
loop_
_space_group_symop_operation_xyz
x,y,z
-x,y,1/2-z
-x,-y,-z
x,-y,1/2+z
1/2+x,1/2+y,z
1/2-x,1/2+y,1/2-z
1/2-x,1/2-y,-z
1/2+x,1/2-y,1/2+z
loop_
_atom_site_type_symbol
_atom_site_label
_atom_site_fract_x
_atom_site_fract_y
_atom_site_fract_z
Si Si1 0.860346 0.727188 0.953450
Si Si2 0.139283 0.219163 0.578315
Si Si3 0.500000 0.942383 0.250000
Si Si4 0.046715 0.337182 0.867665
Si Si5 0.054838 0.017288 0.091455
O O1 0.911052 0.641391 0.829933
O O2 0.908454 0.852742 0.926963
O O3 0.750000 0.750000 0.000000
O O4 0.885028 0.669194 0.063263
O O5 0.250000 0.250000 0.500000
O O6 0.098595 0.262033 0.731541
O O7 0.132690 0.083928 0.552792
O O8 0.058485 0.280852 0.545470
O O9 0.472276 0.032755 0.164066
O O10 0.000000 0.999155 0.250000
O O11 0.000000 0.000000 0.000000
#
# Coordination Sequence:
#
# PCOD9284451 Si02
#       5
#     8   8   4   8   8
#     4  12  26  43  65 103 133 173 228 278 336 397
#     4  10  21  40  72  96 124 183 221 268 337 399
#     4  10  24  46  66  90 136 184 216 276 338 398
#     4  10  23  46  64  94 138 173 226 272 333 411
#     4  12  23  45  68  98 141 174 224 289 335 394
#
# _framework density 19.717489
#
# number of rings (size 3 to 8) (size 9 to 14) (size 15 to 20)
#    0.000    1.333    5.556    0.667    6.222    3.556 
#    4.000    0.000    0.000    0.000    0.000    0.000 
#    0.000    0.000    0.000    0.000    0.000    0.000 
#
# Total GULP energy -100368.880596 kJ/mol
# GULP energy per Si atom -5576.048922 kJ/mol
# Density = 1.967261 g / cm^3
# Si number density = 19.717489 Si / 1000 Ang^3
#
#
#
# Elastic Constant Matrix: (Units=GPa)
#
#
# Indices 1 2 3 4 5 6 
#
# 1 149.2785 51.3983 55.3929 0.0000 -10.3569 0.0000
# 2 51.3983 172.7794 28.8772 0.0000 -9.4119 0.0000
# 3 55.3929 28.8772 61.3729 0.0000 -3.6662 0.0000
# 4 0.0000 0.0000 0.0000 20.6752 0.0000 -3.7659
# 5 -10.3569 -9.4119 -3.6662 0.0000 29.2732 0.0000
# 6 0.0000 0.0000 0.0000 -3.7659 0.0000 34.9939
#
#
#
# Elastic Compliance Matrix: (Units=1/GPa)
#
#
# Indices 1 2 3 4 5 6 
#
# 1 0.010631 -0.001588 -0.008719 0.000000 0.002159 0.000000
# 2 -0.001588 0.006600 -0.001591 0.000000 0.001361 0.000000
# 3 -0.008719 -0.001591 0.024883 0.000000 -0.000480 0.000000
# 4 0.000000 0.000000 0.000000 0.049334 0.000000 0.005309
# 5 0.002159 0.001361 -0.000480 0.000000 0.035302 0.000000
# 6 0.000000 0.000000 0.000000 0.005309 0.000000 0.029148
#
#
# Mechanical properties :
#
#
# Convention : Reuss Voigt Hill
#
# Bulk Modulus (GPa) = 54.58969 72.75196 63.67083
# Shear Modulus (GPa) = 26.91076 33.50597 30.20837
#
# Velocity S-wave (km/s) = 3.69835 4.12673 3.91840
# Velocity P-wave (km/s) = 6.78108 7.72553 7.26866
#
# Compressibility (1/GPa) = 0.01831848
#
# Stress axis : x y z
#
# Youngs Moduli (GPa) = 94.06833 151.51283 40.18784
#
# Poissons Ratio (x) = 0.24054 0.35039
# Poissons Ratio (y) = 0.14934 0.06395
# Poissons Ratio (z) = 0.82016 0.24110
#
# Static dielectric constant tensor:
#      x y z
#    x 1.626480 0.000000 -0.016000 
#    y 0.000000 1.716070 0.000000 
#    z -0.016000 0.000000 1.767810 
# 
# From -- ./inp_files/94434.got.cif
#   From: 2010.05.17/outbox.cif.g08.bks.cpg/sg15_48_cif.got.tgz:94434.got - 2010.06.03 18:47:42.
