data_PCOD9284097
_publ_section_title
;
Structure prediction by ZEFSAII (Michael W. Deem and Ramdas Pophale) SiO2 
 PCOD9284097
Probable space group: C 2/C
;
_chemical_formula_sum "Si O2"
_cell_formula_units_Z 64
_cell_length_a 20.854879
_cell_length_b 34.351000
_cell_length_c 14.113045
_cell_angle_alpha 90.000000
_cell_angle_beta 20.006429
_cell_angle_gamma 90.000000
_cell_volume 3459.022075
_symmetry_space_group_name_H-M "C 2/C"
_symmetry_group_IT_number 15
_symmetry_cell_setting 'monoclinic'
loop_
_space_group_symop_operation_xyz
x,y,z
-x,y,1/2-z
-x,-y,-z
x,-y,1/2+z
1/2+x,1/2+y,z
1/2-x,1/2+y,1/2-z
1/2-x,1/2-y,-z
1/2+x,1/2-y,1/2+z
loop_
_atom_site_type_symbol
_atom_site_label
_atom_site_fract_x
_atom_site_fract_y
_atom_site_fract_z
Si Si1 0.178083 0.611684 0.186449
Si Si2 0.322665 0.478564 0.293124
Si Si3 0.460314 0.735208 0.699299
Si Si4 0.991338 0.897304 0.407757
Si Si5 0.998622 0.171321 0.023947
Si Si6 0.529687 0.975776 0.860396
Si Si7 0.806841 0.791438 0.960074
Si Si8 0.612075 0.182961 0.912872
O O1 0.073984 0.570376 0.313635
O O2 0.040399 0.648613 0.375648
O O3 0.334555 0.621445 0.890526
O O4 0.306765 0.603257 0.099606
O O5 0.421721 0.438378 0.185408
O O6 0.205643 0.491300 0.551043
O O7 0.158784 0.477111 0.441481
O O8 0.500000 0.500000 0.000000
O O9 0.500000 0.719751 0.750000
O O10 0.495507 0.703145 0.569292
O O11 0.565819 0.775359 0.525483
O O12 0.250000 0.750000 0.000000
O O13 0.949908 0.870717 0.553645
O O14 0.201432 0.169549 0.791778
O O15 0.849628 0.183046 0.309578
O O16 0.500000 0.000000 0.000000
O O17 0.000000 0.787816 0.750000
O O18 0.750000 0.750000 0.000000
O O19 0.657284 0.807987 0.240808
#
# Coordination Sequence:
#
# PCOD9284097 Si02
#       8
#     8   8   8   8   8   8   8   8
#     4  10  22  38  62  90 122 155 198 245 301 360
#     4  10  21  40  66  96 129 163 202 248 302 364
#     4  12  24  35  56  87 114 149 195 249 303 356
#     4  10  22  38  61  91 120 156 197 248 300 354
#     4  11  23  39  59  82 117 153 199 247 300 358
#     4  10  21  40  66  96 128 164 202 246 304 364
#     4  10  22  40  59  79 109 154 199 242 293 355
#     4  11  23  40  58  82 116 156 197 246 302 356
#
# _framework density 18.50234
#
# number of rings (size 3 to 8) (size 9 to 14) (size 15 to 20)
#    0.000    1.500    2.500    2.250    3.500    3.500 
#    2.250    0.000    0.000    0.000    0.000    0.000 
#    0.000    0.000    0.000    0.000    0.000    0.000 
#
# Total GULP energy -178365.808408 kJ/mol
# GULP energy per Si atom -5573.931513 kJ/mol
# Density = 1.846023 g / cm^3
# Si number density = 18.502340 Si / 1000 Ang^3
#
#
#
# Elastic Constant Matrix: (Units=GPa)
#
#
# Indices 1 2 3 4 5 6 
#
# 1 108.4777 32.6820 42.3284 0.0047 24.5923 -0.0034
# 2 32.6820 62.3152 40.3826 0.0020 11.7747 0.0009
# 3 42.3284 40.3826 90.2634 -0.0117 13.5649 -0.0079
# 4 0.0047 0.0020 -0.0117 32.6772 0.0017 0.9557
# 5 24.5923 11.7747 13.5649 0.0017 24.1989 0.0019
# 6 -0.0034 0.0009 -0.0079 0.9557 0.0019 33.4668
#
#
#
# Elastic Compliance Matrix: (Units=1/GPa)
#
#
# Indices 1 2 3 4 5 6 
#
# 1 0.013944 -0.002950 -0.003609 -0.000003 -0.010712 0.000001
# 2 -0.002950 0.024000 -0.008790 -0.000004 -0.003753 -0.000003
# 3 -0.003609 -0.008790 0.016936 0.000007 -0.001549 0.000004
# 4 -0.000003 -0.000004 0.000007 0.030628 -0.000002 -0.000875
# 5 -0.010712 -0.003753 -0.001549 -0.000002 0.054905 -0.000004
# 6 0.000001 -0.000003 0.000004 -0.000875 -0.000004 0.029905
#
#
# Mechanical properties :
#
#
# Convention : Reuss Voigt Hill
#
# Bulk Modulus (GPa) = 41.35311 54.64913 48.00112
# Shear Modulus (GPa) = 23.91454 27.77945 25.84700
#
# Velocity S-wave (km/s) = 3.59906 3.87900 3.74165
# Velocity P-wave (km/s) = 6.29839 7.04717 6.68327
#
# Compressibility (1/GPa) = 0.02418198
#
# Stress axis : x y z
#
# Youngs Moduli (GPa) = 71.71469 41.66685 59.04414
#
# Poissons Ratio (x) = 0.12292 0.21311
# Poissons Ratio (y) = 0.21156 0.51899
# Poissons Ratio (z) = 0.25884 0.36624
#
# Static dielectric constant tensor:
#      x y z
#    x 1.651940 0.000000 0.009680 
#    y 0.000000 1.633280 0.000010 
#    z 0.009680 0.000010 1.630470 
# 
# From -- ./inp_files/170086.got.cif
#   From: 2010.05.17/outbox.cif.g08.bks.cpg/sg15_86_cif.got.tgz:170086.got - 2010.06.03 18:47:42.
