data_PCOD9284866
_publ_section_title
;
Structure prediction by ZEFSAII (Michael W. Deem and Ramdas Pophale) SiO2 
 PCOD9284866
Probable space group: C 2/C
;
_chemical_formula_sum "Si O2"
_cell_formula_units_Z 52
_cell_length_a 10.887890
_cell_length_b 8.221641
_cell_length_c 23.290215
_cell_angle_alpha 90.000000
_cell_angle_beta 85.429265
_cell_angle_gamma 90.000000
_cell_volume 2078.223967
_symmetry_space_group_name_H-M "C 2/C"
_symmetry_group_IT_number 15
_symmetry_cell_setting 'monoclinic'
loop_
_space_group_symop_operation_xyz
x,y,z
-x,y,1/2-z
-x,-y,-z
x,-y,1/2+z
1/2+x,1/2+y,z
1/2-x,1/2+y,1/2-z
1/2-x,1/2-y,-z
1/2+x,1/2-y,1/2+z
loop_
_atom_site_type_symbol
_atom_site_label
_atom_site_fract_x
_atom_site_fract_y
_atom_site_fract_z
Si Si1 0.000000 0.566387 0.250000
Si Si2 0.572096 0.640949 0.157566
Si Si3 0.392960 0.728253 0.842413
Si Si4 0.619778 0.938759 0.462117
Si Si5 0.336044 0.771350 0.232339
Si Si6 0.211333 0.108414 0.436435
Si Si7 0.230715 0.245868 0.931744
O O1 0.000281 0.674427 0.306914
O O2 0.884171 0.445012 0.253239
O O3 0.571939 0.452401 0.140781
O O4 0.439995 0.704276 0.184301
O O5 0.656298 0.660098 0.211701
O O6 0.640396 0.744134 0.106312
O O7 0.290613 0.717487 0.795824
O O8 0.326781 0.828955 0.894772
O O9 0.734192 0.918250 0.501939
O O10 0.613328 0.755133 0.438639
O O11 0.500000 0.000000 0.500000
O O12 0.657234 0.088430 0.419736
O O13 0.170682 0.928071 0.419375
O O14 0.250000 0.250000 0.000000
#
# Coordination Sequence:
#
# PCOD9284866 Si02
#       7
#     4   8   8   8   8   8   8
#     4  10  22  38  60  94 126 168 218 262 318 398
#     4  10  21  42  63  95 132 170 218 277 321 391
#     4  12  22  40  65  95 131 169 218 268 328 394
#     4  10  22  42  63  93 124 167 219 264 325 394
#     4  10  23  41  65  91 132 173 216 268 333 389
#     4  10  22  40  64  89 128 167 212 271 323 384
#     4  10  21  41  65  89 133 168 209 280 320 380
#
# _framework density 25.021364999999999
#
# number of rings (size 3 to 8) (size 9 to 14) (size 15 to 20)
#    0.000    1.846    1.538    3.692    0.000    4.308 
#    5.538    0.000    0.000    0.000    0.000    0.000 
#    0.000    0.000    0.000    0.000    0.000    0.000 
#
# Total GULP energy -145456.796547 kJ/mol
# GULP energy per Si atom -5594.492175 kJ/mol
# Density = 2.496441 g / cm^3
# Si number density = 25.021365 Si / 1000 Ang^3
#
#
#
# Elastic Constant Matrix: (Units=GPa)
#
#
# Indices 1 2 3 4 5 6 
#
# 1 73.1072 18.8086 7.1205 0.0000 4.6241 0.0000
# 2 18.8086 237.4255 35.9310 0.0000 -22.1450 0.0000
# 3 7.1205 35.9310 123.9408 0.0000 -14.6445 0.0000
# 4 0.0000 0.0000 0.0000 45.4172 0.0000 -15.1276
# 5 4.6241 -22.1450 -14.6445 0.0000 39.7579 0.0000
# 6 0.0000 0.0000 0.0000 -15.1276 0.0000 9.1129
#
#
#
# Elastic Compliance Matrix: (Units=1/GPa)
#
#
# Indices 1 2 3 4 5 6 
#
# 1 0.014244 -0.001259 -0.000765 0.000000 -0.002640 0.000000
# 2 -0.001259 0.004686 -0.001004 0.000000 0.002387 0.000000
# 3 -0.000765 -0.001004 0.008728 0.000000 0.002744 0.000000
# 4 0.000000 0.000000 0.000000 0.049249 0.000000 0.081754
# 5 -0.002640 0.002387 0.002744 0.000000 0.027800 0.000000
# 6 0.000000 0.000000 0.000000 0.081754 0.000000 0.245448
#
#
# Mechanical properties :
#
#
# Convention : Reuss Voigt Hill
#
# Bulk Modulus (GPa) = 46.29369 62.02151 54.15760
# Shear Modulus (GPa) = 13.75853 43.69849 28.72851
#
# Velocity S-wave (km/s) = 2.34748 4.18359 3.39213
# Velocity P-wave (km/s) = 5.08816 6.94102 6.08552
#
# Compressibility (1/GPa) = 0.02160122
#
# Stress axis : x y z
#
# Youngs Moduli (GPa) = 70.20552 213.39488 114.57719
#
# Poissons Ratio (x) = 0.26862 0.08769
# Poissons Ratio (y) = 0.08837 0.11506
# Poissons Ratio (z) = 0.05373 0.21429
#
# Static dielectric constant tensor:
#      x y z
#    x 2.113380 0.000000 0.148230 
#    y 0.000000 2.036510 0.000000 
#    z 0.148230 0.000000 2.078460 
# 
# From -- ./inp_files/291463.got.cif
#   From: 2010.05.17/outbox.cif.g08.bks.cpg/sg15_146_cif.got.tgz:291463.got - 2010.06.03 18:47:42.
