data_PCOD9284175
_publ_section_title
;
Structure prediction by ZEFSAII (Michael W. Deem and Ramdas Pophale) SiO2 
 PCOD9284175
Probable space group: C 2/C
;
_chemical_formula_sum "Si O2"
_cell_formula_units_Z 44
_cell_length_a 10.455020
_cell_length_b 8.690318
_cell_length_c 18.162456
_cell_angle_alpha 90.000000
_cell_angle_beta 74.527739
_cell_angle_gamma 90.000000
_cell_volume 1590.390903
_symmetry_space_group_name_H-M "C 2/C"
_symmetry_group_IT_number 15
_symmetry_cell_setting 'monoclinic'
loop_
_space_group_symop_operation_xyz
x,y,z
-x,y,1/2-z
-x,-y,-z
x,-y,1/2+z
1/2+x,1/2+y,z
1/2-x,1/2+y,1/2-z
1/2-x,1/2-y,-z
1/2+x,1/2-y,1/2+z
loop_
_atom_site_type_symbol
_atom_site_label
_atom_site_fract_x
_atom_site_fract_y
_atom_site_fract_z
Si Si1 0.300736 0.565300 0.963572
Si Si2 0.262172 0.850143 0.641565
Si Si3 0.698358 0.552660 0.793270
Si Si4 0.611294 0.287907 0.915399
Si Si5 0.539628 0.982998 0.601621
Si Si6 0.000000 0.703169 0.250000
O O1 0.329118 0.419025 0.908999
O O2 0.247210 0.692168 0.914090
O O3 0.172674 0.529513 0.033847
O O4 0.410350 0.632695 0.001321
O O5 0.223002 0.677293 0.668909
O O6 0.414621 0.877098 0.591982
O O7 0.255070 0.959589 0.715012
O O8 0.634509 0.422683 0.853948
O O9 0.597445 0.677579 0.774622
O O10 0.517591 0.154247 0.899554
O O11 0.559523 0.911373 0.679648
#
# Coordination Sequence:
#
# PCOD9284175 Si02
#       6
#     8   8   8   8   8   4
#     4  10  22  41  68 101 136 183 236 290 357 426
#     4  10  21  40  67  93 138 178 231 294 349 421
#     4  11  24  44  67 102 135 185 236 290 352 425
#     4  10  22  40  68  95 136 175 232 286 354 414
#     4  10  22  41  67 100 133 183 232 291 353 421
#     4  10  26  42  66  96 146 178 244 294 350 426
#
# _framework density 27.666156999999998
#
# number of rings (size 3 to 8) (size 9 to 14) (size 15 to 20)
#    0.000    1.818    0.000    4.364   12.727    1.455 
#    3.273    8.182    0.000    0.000    0.000    0.000 
#    0.000    0.000    0.000    0.000    0.000    0.000 
#
# Total GULP energy -123235.768559 kJ/mol
# GULP energy per Si atom -5601.625844 kJ/mol
# Density = 2.760319 g / cm^3
# Si number density = 27.666157 Si / 1000 Ang^3
#
#
#
# Elastic Constant Matrix: (Units=GPa)
#
#
# Indices 1 2 3 4 5 6 
#
# 1 75.3716 78.1518 54.8667 0.0000 1.4290 0.0000
# 2 78.1518 281.8165 123.5831 0.0000 -13.8628 0.0000
# 3 54.8667 123.5831 200.0566 0.0000 5.9001 0.0000
# 4 0.0000 0.0000 0.0000 49.4862 0.0000 -7.8660
# 5 1.4290 -13.8628 5.9001 0.0000 29.2125 0.0000
# 6 0.0000 0.0000 0.0000 -7.8660 0.0000 59.0610
#
#
#
# Elastic Compliance Matrix: (Units=1/GPa)
#
#
# Indices 1 2 3 4 5 6 
#
# 1 0.019871 -0.004500 -0.002593 0.000000 -0.002584 0.000000
# 2 -0.004500 0.006150 -0.002673 0.000000 0.003678 0.000000
# 3 -0.002593 -0.002673 0.007439 0.000000 -0.002644 0.000000
# 4 0.000000 0.000000 0.000000 0.020645 0.000000 0.002750
# 5 -0.002584 0.003678 -0.002644 0.000000 0.036638 0.000000
# 6 0.000000 0.000000 0.000000 0.002750 0.000000 0.017298
#
#
# Mechanical properties :
#
#
# Convention : Reuss Voigt Hill
#
# Bulk Modulus (GPa) = 71.80925 118.93868 95.37396
# Shear Modulus (GPa) = 37.81706 47.59480 42.70593
#
# Velocity S-wave (km/s) = 3.70118 4.15218 3.93315
# Velocity P-wave (km/s) = 6.65409 8.12844 7.42794
#
# Compressibility (1/GPa) = 0.01392578
#
# Stress axis : x y z
#
# Youngs Moduli (GPa) = 50.32524 162.61371 134.42458
#
# Poissons Ratio (x) = 0.73180 0.34863
# Poissons Ratio (y) = 0.22648 0.35933
# Poissons Ratio (z) = 0.13052 0.43468
#
# Static dielectric constant tensor:
#      x y z
#    x 2.333380 0.000000 0.089970 
#    y 0.000000 2.129800 0.000000 
#    z 0.089970 0.000000 2.241500 
# 
# From -- ./inp_files/159257.got.cif
#   From: 2010.05.17/outbox.cif.g08.bks.cpg/sg15_80_cif.got.tgz:159257.got - 2010.06.03 18:47:42.
