data_PCOD9284203
_publ_section_title
;
Structure prediction by ZEFSAII (Michael W. Deem and Ramdas Pophale) SiO2 
 PCOD9284203
Probable space group: C 2/C
;
_chemical_formula_sum "Si O2"
_cell_formula_units_Z 64
_cell_length_a 16.042301
_cell_length_b 9.142361
_cell_length_c 19.205426
_cell_angle_alpha 90.000000
_cell_angle_beta 99.499735
_cell_angle_gamma 90.000000
_cell_volume 2778.126395
_symmetry_space_group_name_H-M "C 2/C"
_symmetry_group_IT_number 15
_symmetry_cell_setting 'monoclinic'
loop_
_space_group_symop_operation_xyz
x,y,z
-x,y,1/2-z
-x,-y,-z
x,-y,1/2+z
1/2+x,1/2+y,z
1/2-x,1/2+y,1/2-z
1/2-x,1/2-y,-z
1/2+x,1/2-y,1/2+z
loop_
_atom_site_type_symbol
_atom_site_label
_atom_site_fract_x
_atom_site_fract_y
_atom_site_fract_z
Si Si1 0.958079 0.914471 0.818009
Si Si2 0.558864 0.088981 0.455250
Si Si3 0.772709 0.287888 0.917304
Si Si4 0.701680 0.018812 0.696591
Si Si5 0.765790 0.494870 0.042752
Si Si6 0.270718 0.342856 0.825751
Si Si7 0.458837 0.624794 0.944446
Si Si8 0.990741 0.398163 0.331307
O O1 0.860705 0.865134 0.799872
O O2 0.003971 0.770281 0.855979
O O3 0.000000 0.947213 0.750000
O O4 0.955694 0.049526 0.869025
O O5 0.527968 0.250987 0.453148
O O6 0.500000 0.000000 0.500000
O O7 0.657223 0.078266 0.482044
O O8 0.546803 0.014037 0.378949
O O9 0.773601 0.383932 0.848907
O O10 0.713263 0.146571 0.906379
O O11 0.867488 0.211134 0.942084
O O12 0.736929 0.398885 0.971458
O O13 0.750943 0.171107 0.687520
O O14 0.605114 0.056165 0.665110
O O15 0.710741 0.953943 0.775360
O O16 0.721910 0.604556 0.092125
O O17 0.500000 0.500000 0.000000
O O18 0.000000 0.400105 0.250000
#
# Coordination Sequence:
#
# PCOD9284203 Si02
#       8
#     8   8   8   8   8   8   8   8
#     4  10  24  44  66  99 137 180 228 291 344 414
#     4  12  23  42  68  97 131 177 230 282 339 417
#     4  11  24  47  69  97 143 188 230 293 354 418
#     4  11  23  43  69  98 140 183 229 290 349 420
#     4  11  24  45  69 100 136 185 229 288 350 416
#     4  11  24  42  69 102 138 182 235 286 352 425
#     4  12  25  46  72 104 141 183 231 292 348 419
#     4  10  21  40  67  96 132 177 225 279 347 409
#
# _framework density 23.037108
#
# number of rings (size 3 to 8) (size 9 to 14) (size 15 to 20)
#    0.000    1.000    3.750    2.250    0.000    5.000 
#    6.750    0.000    0.000    0.000    0.000    0.000 
#    0.000    0.000    0.000    0.000    0.000    0.000 
#
# Total GULP energy -178443.443641 kJ/mol
# GULP energy per Si atom -5576.357614 kJ/mol
# Density = 2.298467 g / cm^3
# Si number density = 23.037108 Si / 1000 Ang^3
#
#
#
# Elastic Constant Matrix: (Units=GPa)
#
#
# Indices 1 2 3 4 5 6 
#
# 1 57.8937 19.7158 19.7422 0.0000 -18.1039 0.0000
# 2 19.7158 136.5084 37.1078 0.0000 5.2332 0.0000
# 3 19.7422 37.1078 88.7914 0.0000 -21.0572 0.0000
# 4 0.0000 0.0000 0.0000 34.6491 0.0000 -0.9838
# 5 -18.1039 5.2332 -21.0572 0.0000 31.5694 0.0000
# 6 0.0000 0.0000 0.0000 -0.9838 0.0000 32.9676
#
#
#
# Elastic Compliance Matrix: (Units=1/GPa)
#
#
# Indices 1 2 3 4 5 6 
#
# 1 0.022886 -0.003738 -0.000317 0.000000 0.013532 0.000000
# 2 -0.003738 0.009414 -0.004730 0.000000 -0.006859 0.000000
# 3 -0.000317 -0.004730 0.015980 0.000000 0.011261 0.000000
# 4 0.000000 0.000000 0.000000 0.028885 0.000000 0.000862
# 5 0.013532 -0.006859 0.011261 0.000000 0.048085 0.000000
# 6 0.000000 0.000000 0.000000 0.000862 0.000000 0.030359
#
#
# Mechanical properties :
#
#
# Convention : Reuss Voigt Hill
#
# Bulk Modulus (GPa) = 32.56245 48.48056 40.52150
# Shear Modulus (GPa) = 27.26050 33.61238 30.43644
#
# Velocity S-wave (km/s) = 3.44369 3.82390 3.63876
# Velocity P-wave (km/s) = 5.47517 6.37075 5.93986
#
# Compressibility (1/GPa) = 0.03071022
#
# Stress axis : x y z
#
# Youngs Moduli (GPa) = 43.69523 106.22334 62.57735
#
# Poissons Ratio (x) = 0.39706 0.01984
# Poissons Ratio (y) = 0.16333 0.29598
# Poissons Ratio (z) = 0.01386 0.50243
#
# Static dielectric constant tensor:
#      x y z
#    x 1.925960 0.000000 0.023680 
#    y 0.000000 1.958950 0.000000 
#    z 0.023680 0.000000 1.885340 
# 
# From -- ./inp_files/247452.got.cif
#   From: 2010.05.17/outbox.cif.g08.bks.cpg/sg15_124_cif.got.tgz:247452.got - 2010.06.03 18:47:42.
