data_PCOD9284650
_publ_section_title
;
Structure prediction by ZEFSAII (Michael W. Deem and Ramdas Pophale) SiO2 
 PCOD9284650
Probable space group: C 2/C
;
_chemical_formula_sum "Si O2"
_cell_formula_units_Z 56
_cell_length_a 23.428287
_cell_length_b 9.276038
_cell_length_c 13.516623
_cell_angle_alpha 90.000000
_cell_angle_beta 80.610820
_cell_angle_gamma 90.000000
_cell_volume 2898.102100
_symmetry_space_group_name_H-M "C 2/C"
_symmetry_group_IT_number 15
_symmetry_cell_setting 'monoclinic'
loop_
_space_group_symop_operation_xyz
x,y,z
-x,y,1/2-z
-x,-y,-z
x,-y,1/2+z
1/2+x,1/2+y,z
1/2-x,1/2+y,1/2-z
1/2-x,1/2-y,-z
1/2+x,1/2-y,1/2+z
loop_
_atom_site_type_symbol
_atom_site_label
_atom_site_fract_x
_atom_site_fract_y
_atom_site_fract_z
Si Si1 0.525221 0.845697 0.020171
Si Si2 0.801373 0.146999 0.791918
Si Si3 0.231271 0.465366 0.655600
Si Si4 0.448643 0.329192 0.685533
Si Si5 0.594495 0.627583 0.881328
Si Si6 0.824185 0.054195 0.466710
Si Si7 0.131370 0.329850 0.144115
O O1 0.474182 0.752853 0.084117
O O2 0.578415 0.858367 0.083565
O O3 0.551248 0.754985 0.921810
O O4 0.500000 0.000000 0.000000
O O5 0.770259 0.293875 0.832328
O O6 0.852384 0.182808 0.700017
O O7 0.758746 0.039958 0.744781
O O8 0.826672 0.062724 0.879099
O O9 0.270409 0.514825 0.551762
O O10 0.167333 0.528317 0.657944
O O11 0.500000 0.328076 0.750000
O O12 0.433098 0.492491 0.665831
O O13 0.395483 0.245266 0.751079
O O14 0.620662 0.562542 0.976064
O O15 0.825111 0.212274 0.416670
#
# Coordination Sequence:
#
# PCOD9284650 Si02
#       7
#     8   8   8   8   8   8   8
#     4  10  23  40  61  93 124 157 208 255 305 358
#     4  11  23  40  62  94 126 157 207 248 304 375
#     4  11  24  38  63  93 125 163 198 251 310 364
#     4  10  21  41  64  86 119 167 205 249 306 359
#     4  10  22  41  66  90 122 164 202 251 306 362
#     4  10  21  41  63  91 121 160 206 248 303 371
#     4  10  21  41  63  86 126 164 199 253 307 359
#
# _framework density 19.322990000000001
#
# number of rings (size 3 to 8) (size 9 to 14) (size 15 to 20)
#    0.000    1.714    1.429    2.143    4.000    3.429 
#    2.571    0.000    0.000    0.000    0.000    0.000 
#    0.000    0.000    0.000    0.000    0.000    0.000 
#
# Total GULP energy -156387.723423 kJ/mol
# GULP energy per Si atom -5585.275837 kJ/mol
# Density = 1.927901 g / cm^3
# Si number density = 19.322990 Si / 1000 Ang^3
#
#
#
# Elastic Constant Matrix: (Units=GPa)
#
#
# Indices 1 2 3 4 5 6 
#
# 1 35.5487 34.8306 28.4741 0.0000 -13.9648 0.0000
# 2 34.8306 97.0269 23.8819 0.0000 -6.3777 0.0000
# 3 28.4741 23.8819 70.8740 0.0000 -5.2704 0.0000
# 4 0.0000 0.0000 0.0000 11.2517 0.0000 -0.6455
# 5 -13.9648 -6.3777 -5.2704 0.0000 10.2497 0.0000
# 6 0.0000 0.0000 0.0000 -0.6455 0.0000 36.7371
#
#
#
# Elastic Compliance Matrix: (Units=1/GPa)
#
#
# Indices 1 2 3 4 5 6 
#
# 1 0.185235 -0.042037 -0.045159 0.000000 0.202998 0.000000
# 2 -0.042037 0.021056 0.006767 0.000000 -0.040692 0.000000
# 3 -0.045159 0.006767 0.026732 0.000000 -0.043571 0.000000
# 4 0.000000 0.000000 0.000000 0.088965 0.000000 0.001563
# 5 0.202998 -0.040692 -0.043571 0.000000 0.326417 0.000000
# 6 0.000000 0.000000 0.000000 0.001563 0.000000 0.027248
#
#
# Mechanical properties :
#
#
# Convention : Reuss Voigt Hill
#
# Bulk Modulus (GPa) = 13.85688 41.98031 27.91860
# Shear Modulus (GPa) = 5.81014 19.39856 12.60435
#
# Velocity S-wave (km/s) = 1.73591 3.17189 2.55678
# Velocity P-wave (km/s) = 3.34733 5.93189 4.81622
#
# Compressibility (1/GPa) = 0.07216629
#
# Stress axis : x y z
#
# Youngs Moduli (GPa) = 5.39856 47.49164 37.40833
#
# Poissons Ratio (x) = 1.99640 1.68932
# Poissons Ratio (y) = 0.22694 -0.25316
# Poissons Ratio (z) = 0.24379 -0.32140
#
# Static dielectric constant tensor:
#      x y z
#    x 1.671610 0.000000 -0.003770 
#    y 0.000000 1.640630 0.000000 
#    z -0.003770 0.000000 1.690820 
# 
# From -- ./inp_files/171814.got.cif
#   From: 2010.05.17/outbox.cif.g08.bks.cpg/sg15_86_cif.got.tgz:171814.got - 2010.06.03 18:47:42.
