data_PCOD9284733
_publ_section_title
;
Structure prediction by ZEFSAII (Michael W. Deem and Ramdas Pophale) SiO2 
 PCOD9284733
Probable space group: C 2/C
;
_chemical_formula_sum "Si O2"
_cell_formula_units_Z 60
_cell_length_a 20.511017
_cell_length_b 8.785940
_cell_length_c 18.908249
_cell_angle_alpha 90.000000
_cell_angle_beta 54.212148
_cell_angle_gamma 90.000000
_cell_volume 2764.064443
_symmetry_space_group_name_H-M "C 2/C"
_symmetry_group_IT_number 15
_symmetry_cell_setting 'monoclinic'
loop_
_space_group_symop_operation_xyz
x,y,z
-x,y,1/2-z
-x,-y,-z
x,-y,1/2+z
1/2+x,1/2+y,z
1/2-x,1/2+y,1/2-z
1/2-x,1/2-y,-z
1/2+x,1/2-y,1/2+z
loop_
_atom_site_type_symbol
_atom_site_label
_atom_site_fract_x
_atom_site_fract_y
_atom_site_fract_z
Si Si1 0.162282 0.061189 0.370713
Si Si2 0.085207 0.578187 0.773745
Si Si3 0.588994 0.927462 0.627790
Si Si4 0.718227 0.102201 0.800753
Si Si5 0.218863 0.440365 0.946980
Si Si6 0.462043 0.405066 0.668394
Si Si7 0.500000 0.653984 0.750000
Si Si8 0.648783 0.608235 0.022375
O O1 0.206922 0.222466 0.330336
O O2 0.078144 0.074579 0.382494
O O3 0.211198 0.929193 0.299366
O O4 0.154164 0.015429 0.456788
O O5 0.121047 0.507029 0.679478
O O6 0.138102 0.550596 0.809327
O O7 0.995507 0.510495 0.837197
O O8 0.078953 0.759143 0.769868
O O9 0.561779 0.759856 0.667737
O O10 0.652957 0.950442 0.526206
O O11 0.732904 0.998742 0.859538
O O12 0.183166 0.269753 0.973190
O O13 0.298072 0.439969 0.944604
O O14 0.453691 0.550455 0.723350
O O15 0.556254 0.372913 0.601622
#
# Coordination Sequence:
#
# PCOD9284733 Si02
#       8
#     8   8   8   8   8   8   4   8
#     4  11  26  46  68  93 134 169 221 268 332 381
#     4   9  20  42  67  90 129 172 218 255 322 388
#     4  10  21  41  64 100 128 175 211 269 315 388
#     4  11  25  43  66  98 125 178 214 273 323 388
#     4  11  25  43  68  96 133 171 222 265 328 381
#     4  11  23  42  68  97 129 174 214 270 323 389
#     4  10  24  36  66 100 130 164 216 268 324 378
#     4  11  25  44  67  97 131 174 215 275 320 392
#
# _framework density 21.707163999999999
#
# number of rings (size 3 to 8) (size 9 to 14) (size 15 to 20)
#    0.000    1.600    1.333    2.800    3.733    8.533 
#    0.000    0.000    0.000    0.000    0.000    0.000 
#    0.000    0.000    0.000    0.000    0.000    0.000 
#
# Total GULP energy -167951.190635 kJ/mol
# GULP energy per Si atom -5598.373021 kJ/mol
# Density = 2.165776 g / cm^3
# Si number density = 21.707164 Si / 1000 Ang^3
#
#
#
# Elastic Constant Matrix: (Units=GPa)
#
#
# Indices 1 2 3 4 5 6 
#
# 1 107.1169 35.9523 16.7571 -0.0002 17.0637 0.0005
# 2 35.9523 77.3435 3.8954 -0.0002 19.5320 0.0014
# 3 16.7571 3.8954 51.3790 0.0000 15.2663 0.0003
# 4 -0.0002 -0.0002 0.0000 23.4392 0.0000 -4.7671
# 5 17.0637 19.5320 15.2663 0.0000 31.3678 0.0000
# 6 0.0005 0.0014 0.0003 -4.7671 0.0000 -37.3049
#
#
#
# Elastic Compliance Matrix: (Units=1/GPa)
#
#
# Indices 1 2 3 4 5 6 
#
# 1 0.011711 -0.004797 -0.002865 0.000000 -0.001989 0.000000
# 2 -0.004797 0.017477 0.003154 0.000000 -0.009808 0.000001
# 3 -0.002865 0.003154 0.023707 0.000000 -0.011943 0.000000
# 4 0.000000 0.000000 0.000000 0.041583 0.000000 -0.005314
# 5 -0.001989 -0.009808 -0.011943 0.000000 0.044882 -0.000001
# 6 0.000000 0.000001 0.000000 -0.005314 -0.000001 -0.026127
#
#
# Mechanical properties :
#
#
# Convention : Reuss Voigt Hill
#
# Bulk Modulus (GPa) = 22.78974 38.78323 30.78649
# Shear Modulus (GPa) = 36.52971 15.44939 25.98955
#
# Velocity S-wave (km/s) = 4.10670 2.67070 3.46393
# Velocity P-wave (km/s) = 5.74527 5.23598 5.49653
#
# Compressibility (1/GPa) = 0.04387940
#
# Stress axis : x y z
#
# Youngs Moduli (GPa) = 85.39240 57.21745 42.18135
#
# Poissons Ratio (x) = 0.27447 0.12083
# Poissons Ratio (y) = 0.40962 -0.13303
# Poissons Ratio (z) = 0.24461 -0.18045
#
# Static dielectric constant tensor:
#      x y z
#    x 1.781720 0.000000 -0.013020 
#    y 0.000000 1.794190 0.000000 
#    z -0.013020 0.000000 1.750760 
# 
# From -- ./inp_files/214267.got.cif
#   From: 2010.05.17/outbox.cif.g08.bks.cpg/sg15_108_cif.got.tgz:214267.got - 2010.06.03 18:47:42.
