data_PCOD9284948
_publ_section_title
;
Structure prediction by ZEFSAII (Michael W. Deem and Ramdas Pophale) SiO2 
 PCOD9284948
Probable space group: C 2/C
;
_chemical_formula_sum "Si O2"
_cell_formula_units_Z 32
_cell_length_a 18.064765
_cell_length_b 10.424433
_cell_length_c 8.191954
_cell_angle_alpha 90.000000
_cell_angle_beta 120.832627
_cell_angle_gamma 90.000000
_cell_volume 1324.639285
_symmetry_space_group_name_H-M "C 2/C"
_symmetry_group_IT_number 15
_symmetry_cell_setting 'monoclinic'
loop_
_space_group_symop_operation_xyz
x,y,z
-x,y,1/2-z
-x,-y,-z
x,-y,1/2+z
1/2+x,1/2+y,z
1/2-x,1/2+y,1/2-z
1/2-x,1/2-y,-z
1/2+x,1/2-y,1/2+z
loop_
_atom_site_type_symbol
_atom_site_label
_atom_site_fract_x
_atom_site_fract_y
_atom_site_fract_z
Si Si1 0.657971 0.188691 0.357468
Si Si2 0.962972 0.142701 0.962256
Si Si3 0.698292 0.068451 0.058912
Si Si4 0.631857 0.695053 0.307021
O O1 0.750000 0.250000 0.500000
O O2 0.661514 0.122979 0.184123
O O3 0.656105 0.068168 0.476406
O O4 0.587340 0.299799 0.249725
O O5 0.902672 0.150068 0.055142
O O6 0.049748 0.220792 0.101200
O O7 0.000000 0.000000 0.000000
O O8 0.802303 0.087184 0.186176
O O9 0.677031 0.168564 0.889653
#
# Coordination Sequence:
#
# PCOD9284948 Si02
#       4
#     8   8   8   8
#     4  11  25  42  68 101 135 184 228 286 345 410
#     4  10  21  41  65  98 137 176 232 279 345 412
#     4  10  23  41  69  95 137 174 234 279 345 409
#     4   9  21  40  65  94 134 182 216 292 340 408
#
# _framework density 24.157520000000002
#
# number of rings (size 3 to 8) (size 9 to 14) (size 15 to 20)
#    0.000    2.000    0.000    1.500   14.000    1.000 
#    0.000    0.000    0.000    0.000    0.000    0.000 
#    0.000    0.000    0.000    0.000    0.000    0.000 
#
# Total GULP energy -89413.959487 kJ/mol
# GULP energy per Si atom -5588.372468 kJ/mol
# Density = 2.410254 g / cm^3
# Si number density = 24.157520 Si / 1000 Ang^3
#
#
#
# Elastic Constant Matrix: (Units=GPa)
#
#
# Indices 1 2 3 4 5 6 
#
# 1 56.1209 16.5759 6.3788 0.0000 10.9862 0.0000
# 2 16.5759 141.1205 50.8244 0.0000 11.9336 0.0000
# 3 6.3788 50.8244 106.5938 0.0000 18.4462 0.0000
# 4 0.0000 0.0000 0.0000 49.2846 0.0000 2.8201
# 5 10.9862 11.9336 18.4462 0.0000 41.7864 0.0000
# 6 0.0000 0.0000 0.0000 2.8201 0.0000 32.0130
#
#
#
# Elastic Compliance Matrix: (Units=1/GPa)
#
#
# Indices 1 2 3 4 5 6 
#
# 1 0.019298 -0.002106 0.000675 0.000000 -0.004770 0.000000
# 2 -0.002106 0.008804 -0.004041 0.000000 -0.000177 0.000000
# 3 0.000675 -0.004041 0.012017 0.000000 -0.004328 0.000000
# 4 0.000000 0.000000 0.000000 0.020393 0.000000 -0.001796
# 5 -0.004770 -0.000177 -0.004328 0.000000 0.027146 0.000000
# 6 0.000000 0.000000 0.000000 -0.001796 0.000000 0.031396
#
#
# Mechanical properties :
#
#
# Convention : Reuss Voigt Hill
#
# Bulk Modulus (GPa) = 34.27772 50.15482 42.21627
# Shear Modulus (GPa) = 35.78502 39.95388 37.86945
#
# Velocity S-wave (km/s) = 3.85297 4.07122 3.96359
# Velocity P-wave (km/s) = 5.83214 6.55030 6.20162
#
# Compressibility (1/GPa) = 0.02917347
#
# Stress axis : x y z
#
# Youngs Moduli (GPa) = 51.81910 113.58596 83.21664
#
# Poissons Ratio (x) = 0.23926 -0.05617
# Poissons Ratio (y) = 0.10915 0.33629
# Poissons Ratio (z) = -0.03498 0.45902
#
# Static dielectric constant tensor:
#      x y z
#    x 1.999150 0.000000 0.033140 
#    y 0.000000 1.986460 0.000000 
#    z 0.033140 0.000000 2.001740 
# 
# From -- ./inp_files/45964.got.cif
#   From: 2010.05.17/outbox.cif.g08.bks.cpg/sg15_23_cif.got.tgz:45964.got - 2010.06.03 18:47:42.
