data_PCOD9284210
_publ_section_title
;
Structure prediction by ZEFSAII (Michael W. Deem and Ramdas Pophale) SiO2 
 PCOD9284210
Probable space group: C 2/C
;
_chemical_formula_sum "Si O2"
_cell_formula_units_Z 40
_cell_length_a 28.186518
_cell_length_b 13.137931
_cell_length_c 9.265412
_cell_angle_alpha 90.000000
_cell_angle_beta 152.000014
_cell_angle_gamma 90.000000
_cell_volume 1610.802269
_symmetry_space_group_name_H-M "C 2/C"
_symmetry_group_IT_number 15
_symmetry_cell_setting 'monoclinic'
loop_
_space_group_symop_operation_xyz
x,y,z
-x,y,1/2-z
-x,-y,-z
x,-y,1/2+z
1/2+x,1/2+y,z
1/2-x,1/2+y,1/2-z
1/2-x,1/2-y,-z
1/2+x,1/2-y,1/2+z
loop_
_atom_site_type_symbol
_atom_site_label
_atom_site_fract_x
_atom_site_fract_y
_atom_site_fract_z
Si Si1 0.366247 0.504803 0.560375
Si Si2 0.000000 0.854182 0.750000
Si Si3 0.123897 0.860218 0.667261
Si Si4 0.000000 0.552547 0.750000
Si Si5 0.483867 0.206289 0.456324
Si Si6 0.825713 0.584599 0.843270
O O1 0.408504 0.415416 0.573558
O O2 0.408608 0.463180 0.828001
O O3 0.389468 0.608090 0.535523
O O4 0.246196 0.490980 0.257287
O O5 0.047050 0.788473 0.005987
O O6 0.064862 0.763190 0.570882
O O7 0.241725 0.856923 0.024740
O O8 0.024488 0.618219 0.673447
O O9 0.904212 0.481232 0.462876
O O10 0.392589 0.158167 0.121551
#
# Coordination Sequence:
#
# PCOD9284210 Si02
#       6
#     8   4   8   4   8   8
#     4   9  20  40  68 100 137 175 224 273 343 409
#     4   9  20  40  67 100 134 174 227 276 350 395
#     4   9  21  42  67 107 131 176 227 277 341 402
#     4  11  22  42  63  92 138 186 221 270 342 409
#     4  10  21  40  67  97 135 175 229 280 331 406
#     4  10  22  41  67  95 133 185 222 272 338 403
#
# _framework density 24.832345
#
# number of rings (size 3 to 8) (size 9 to 14) (size 15 to 20)
#    1.200    1.200    0.000    1.800    0.000    4.000 
#    3.600    7.000    0.000    2.400    0.000    0.000 
#    0.000    0.000    0.000    0.000    0.000    0.000 
#
# Total GULP energy -111715.223076 kJ/mol
# GULP energy per Si atom -5585.761154 kJ/mol
# Density = 2.477583 g / cm^3
# Si number density = 24.832345 Si / 1000 Ang^3
#
#
#
# Elastic Constant Matrix: (Units=GPa)
#
#
# Indices 1 2 3 4 5 6 
#
# 1 132.8063 59.0371 54.7835 0.0000 -5.3054 0.0000
# 2 59.0371 100.1599 46.1610 0.0000 1.2062 0.0000
# 3 54.7835 46.1610 149.7528 0.0000 -5.6865 0.0000
# 4 0.0000 0.0000 0.0000 19.9212 0.0000 -1.3457
# 5 -5.3054 1.2062 -5.6865 0.0000 54.2403 0.0000
# 6 0.0000 0.0000 0.0000 -1.3457 0.0000 40.8782
#
#
#
# Elastic Compliance Matrix: (Units=1/GPa)
#
#
# Indices 1 2 3 4 5 6 
#
# 1 0.010907 -0.005383 -0.002295 0.000000 0.000946 0.000000
# 2 -0.005383 0.014316 -0.002486 0.000000 -0.001105 0.000000
# 3 -0.002295 -0.002486 0.008310 0.000000 0.000702 0.000000
# 4 0.000000 0.000000 0.000000 0.050310 0.000000 0.001656
# 5 0.000946 -0.001105 0.000702 0.000000 0.018627 0.000000
# 6 0.000000 0.000000 0.000000 0.001656 0.000000 0.024517
#
#
# Mechanical properties :
#
#
# Convention : Reuss Voigt Hill
#
# Bulk Modulus (GPa) = 75.72172 78.07582 76.89877
# Shear Modulus (GPa) = 32.95647 37.85711 35.40679
#
# Velocity S-wave (km/s) = 3.64697 3.90873 3.78012
# Velocity P-wave (km/s) = 6.94933 7.20280 7.07720
#
# Compressibility (1/GPa) = 0.01320625
#
# Stress axis : x y z
#
# Youngs Moduli (GPa) = 91.68424 69.85406 120.33576
#
# Poissons Ratio (x) = 0.37600 0.27617
# Poissons Ratio (y) = 0.49350 0.29911
# Poissons Ratio (z) = 0.21041 0.17363
#
# Static dielectric constant tensor:
#      x y z
#    x 1.996450 0.000000 -0.022160 
#    y 0.000000 2.038960 0.000000 
#    z -0.022160 0.000000 1.987120 
# 
# From -- ./inp_files/117785.got.cif
#   From: 2010.05.17/outbox.cif.g08.bks.cpg/sg15_59_cif.got.tgz:117785.got - 2010.06.03 18:47:42.
