data_PCOD9284714
_publ_section_title
;
Structure prediction by ZEFSAII (Michael W. Deem and Ramdas Pophale) SiO2 
 PCOD9284714
Probable space group: C 2/C
;
_chemical_formula_sum "Si O2"
_cell_formula_units_Z 48
_cell_length_a 9.424136
_cell_length_b 10.777406
_cell_length_c 22.324914
_cell_angle_alpha 90.000000
_cell_angle_beta 82.524031
_cell_angle_gamma 90.000000
_cell_volume 2248.216294
_symmetry_space_group_name_H-M "C 2/C"
_symmetry_group_IT_number 15
_symmetry_cell_setting 'monoclinic'
loop_
_space_group_symop_operation_xyz
x,y,z
-x,y,1/2-z
-x,-y,-z
x,-y,1/2+z
1/2+x,1/2+y,z
1/2-x,1/2+y,1/2-z
1/2-x,1/2-y,-z
1/2+x,1/2-y,1/2+z
loop_
_atom_site_type_symbol
_atom_site_label
_atom_site_fract_x
_atom_site_fract_y
_atom_site_fract_z
Si Si1 0.343637 0.938860 0.230792
Si Si2 0.325008 0.923206 0.990810
Si Si3 0.094833 0.805605 0.928843
Si Si4 0.457214 0.884650 0.629709
Si Si5 0.766207 0.167502 0.441016
Si Si6 0.705034 0.192716 0.198143
O O1 0.500000 0.906713 0.250000
O O2 0.381111 0.996587 0.163644
O O3 0.280809 0.059719 0.269080
O O4 0.244154 0.817173 0.232866
O O5 0.169531 0.902540 0.969600
O O6 0.429715 0.925419 0.927687
O O7 0.384871 0.816912 0.031451
O O8 0.301895 0.039376 0.033855
O O9 0.187496 0.800273 0.863899
O O10 0.933612 0.834757 0.919393
O O11 0.335851 0.796315 0.608220
O O12 0.547519 0.815520 0.676645
O O13 0.750000 0.250000 0.500000
#
# Coordination Sequence:
#
# PCOD9284714 Si02
#       6
#     8   8   8   8   8   8
#     4  10  23  46  71  96 130 175 235 285 343 397
#     4  10  21  41  63  94 137 175 217 269 330 400
#     4  10  22  41  65  93 133 177 220 274 330 397
#     4  10  22  43  67  98 136 180 216 279 336 401
#     4  12  23  36  63 102 136 171 216 258 328 410
#     4  10  23  46  72  97 133 182 226 288 340 395
#
# _framework density 21.350259000000001
#
# number of rings (size 3 to 8) (size 9 to 14) (size 15 to 20)
#    0.000    1.667    1.667    2.000    2.333    1.333 
#    9.000    9.167    0.000    0.000    0.000    0.000 
#    0.000    0.000    0.000    0.000    0.000    0.000 
#
# Total GULP energy -133921.100744 kJ/mol
# GULP energy per Si atom -5580.045864 kJ/mol
# Density = 2.130166 g / cm^3
# Si number density = 21.350259 Si / 1000 Ang^3
#
#
#
# Elastic Constant Matrix: (Units=GPa)
#
#
# Indices 1 2 3 4 5 6 
#
# 1 135.0026 46.3909 28.7672 0.0000 32.9917 0.0000
# 2 46.3909 87.5127 37.9229 0.0000 19.4993 0.0000
# 3 28.7672 37.9229 93.9840 0.0000 8.7502 0.0000
# 4 0.0000 0.0000 0.0000 25.1211 0.0000 2.2097
# 5 32.9917 19.4993 8.7502 0.0000 35.2677 0.0000
# 6 0.0000 0.0000 0.0000 2.2097 0.0000 23.2122
#
#
#
# Elastic Compliance Matrix: (Units=1/GPa)
#
#
# Indices 1 2 3 4 5 6 
#
# 1 0.010765 -0.003444 -0.001172 0.000000 -0.007875 0.000000
# 2 -0.003444 0.016532 -0.005185 0.000000 -0.004632 0.000000
# 3 -0.001172 -0.005185 0.013023 0.000000 0.000732 0.000000
# 4 0.000000 0.000000 0.000000 0.040143 0.000000 -0.003821
# 5 -0.007875 -0.004632 0.000732 0.000000 0.038101 0.000000
# 6 0.000000 0.000000 0.000000 -0.003821 0.000000 0.043445
#
#
# Mechanical properties :
#
#
# Convention : Reuss Voigt Hill
#
# Bulk Modulus (GPa) = 48.26926 60.29568 54.28247
# Shear Modulus (GPa) = 26.52283 30.28141 28.40212
#
# Velocity S-wave (km/s) = 3.52841 3.77014 3.65128
# Velocity P-wave (km/s) = 6.26554 6.87419 6.57691
#
# Compressibility (1/GPa) = 0.02071712
#
# Stress axis : x y z
#
# Youngs Moduli (GPa) = 92.89330 60.49030 76.78744
#
# Poissons Ratio (x) = 0.20832 0.09001
# Poissons Ratio (y) = 0.31991 0.39816
# Poissons Ratio (z) = 0.10889 0.31365
#
# Static dielectric constant tensor:
#      x y z
#    x 1.814170 0.000000 0.022240 
#    y 0.000000 1.831480 0.000000 
#    z 0.022240 0.000000 1.790370 
# 
# From -- ./inp_files/263164.got.cif
#   From: 2010.05.17/outbox.cif.g08.bks.cpg/sg15_132_cif.got.tgz:263164.got - 2010.06.03 18:47:42.
