data_PCOD9284251
_publ_section_title
;
Structure prediction by ZEFSAII (Michael W. Deem and Ramdas Pophale) SiO2 
 PCOD9284251
Probable space group: C 2/C
;
_chemical_formula_sum "Si O2"
_cell_formula_units_Z 48
_cell_length_a 11.488948
_cell_length_b 16.589066
_cell_length_c 12.597757
_cell_angle_alpha 90.000000
_cell_angle_beta 107.267283
_cell_angle_gamma 90.000000
_cell_volume 2292.805253
_symmetry_space_group_name_H-M "C 2/C"
_symmetry_group_IT_number 15
_symmetry_cell_setting 'monoclinic'
loop_
_space_group_symop_operation_xyz
x,y,z
-x,y,1/2-z
-x,-y,-z
x,-y,1/2+z
1/2+x,1/2+y,z
1/2-x,1/2+y,1/2-z
1/2-x,1/2-y,-z
1/2+x,1/2-y,1/2+z
loop_
_atom_site_type_symbol
_atom_site_label
_atom_site_fract_x
_atom_site_fract_y
_atom_site_fract_z
Si Si1 0.325405 0.116230 0.573673
Si Si2 0.793808 0.338240 0.484178
Si Si3 0.926067 0.355203 0.869421
Si Si4 0.500000 0.001753 0.250000
Si Si5 0.874456 0.012966 0.527191
Si Si6 0.802635 0.192691 0.772610
Si Si7 0.500000 0.425702 0.250000
O O1 0.368594 0.145124 0.470882
O O2 0.282392 0.181922 0.647705
O O3 0.424236 0.056628 0.652909
O O4 0.209358 0.061070 0.521498
O O5 0.750000 0.250000 0.500000
O O6 0.704070 0.405309 0.510181
O O7 0.775644 0.336580 0.350994
O O8 0.929639 0.348046 0.565441
O O9 0.863084 0.281594 0.788658
O O10 0.917625 0.438139 0.800069
O O11 0.910101 0.019269 0.659605
O O12 0.000000 0.000000 0.500000
O O13 0.919559 0.132606 0.802821
#
# Coordination Sequence:
#
# PCOD9284251 Si02
#       7
#     8   8   8   4   8   8   4
#     4  12  26  42  69 100 143 174 226 293 351 400
#     4  11  24  44  71  97 132 180 233 278 335 424
#     4  12  25  45  68 103 137 181 232 284 348 417
#     4  12  25  44  72 103 136 184 234 284 349 422
#     4  11  23  42  66  99 132 174 221 283 337 406
#     4  11  24  44  67  97 136 183 225 282 343 412
#     4  10  21  40  68  89 132 174 228 262 333 406
#
# _framework density 20.935054999999998
#
# number of rings (size 3 to 8) (size 9 to 14) (size 15 to 20)
#    0.000    0.667    3.333    5.500    4.667    0.000 
#    0.000    0.000    0.000    0.000    0.000    0.000 
#    0.000    0.000    0.000    0.000    0.000    0.000 
#
# Total GULP energy -134041.036865 kJ/mol
# GULP energy per Si atom -5585.043203 kJ/mol
# Density = 2.088741 g / cm^3
# Si number density = 20.935055 Si / 1000 Ang^3
#
#
#
# Elastic Constant Matrix: (Units=GPa)
#
#
# Indices 1 2 3 4 5 6 
#
# 1 83.2214 24.4408 10.4042 0.0000 -20.5378 0.0000
# 2 24.4408 64.7935 16.0164 0.0000 2.1454 0.0000
# 3 10.4042 16.0164 64.5675 0.0000 -12.4375 0.0000
# 4 0.0000 0.0000 0.0000 39.8157 0.0000 0.4575
# 5 -20.5378 2.1454 -12.4375 0.0000 39.4313 0.0000
# 6 0.0000 0.0000 0.0000 0.4575 0.0000 14.6333
#
#
#
# Elastic Compliance Matrix: (Units=1/GPa)
#
#
# Indices 1 2 3 4 5 6 
#
# 1 0.016052 -0.006540 0.000761 0.000000 0.008956 0.000000
# 2 -0.006540 0.019308 -0.004891 0.000000 -0.006000 0.000000
# 3 0.000761 -0.004891 0.017787 0.000000 0.006273 0.000000
# 4 0.000000 0.000000 0.000000 0.025125 0.000000 -0.000785
# 5 0.008956 -0.006000 0.006273 0.000000 0.032331 0.000000
# 6 0.000000 0.000000 0.000000 -0.000785 0.000000 0.068362
#
#
# Mechanical properties :
#
#
# Convention : Reuss Voigt Hill
#
# Bulk Modulus (GPa) = 31.44006 34.92280 33.18143
# Shear Modulus (GPa) = 23.70716 29.55745 26.63230
#
# Velocity S-wave (km/s) = 3.36879 3.76155 3.57058
# Velocity P-wave (km/s) = 5.49383 5.96518 5.73435
#
# Compressibility (1/GPa) = 0.03180656
#
# Stress axis : x y z
#
# Youngs Moduli (GPa) = 62.29789 51.79131 56.22167
#
# Poissons Ratio (x) = 0.33870 -0.04278
# Poissons Ratio (y) = 0.40740 0.27501
# Poissons Ratio (z) = -0.04740 0.25334
#
# Static dielectric constant tensor:
#      x y z
#    x 1.770510 0.000000 -0.015620 
#    y 0.000000 1.680110 0.000000 
#    z -0.015620 0.000000 1.813010 
# 
# From -- ./inp_files/87916.got.cif
#   From: 2010.05.17/outbox.cif.g08.bks.cpg/sg15_44_cif.got.tgz:87916.got - 2010.06.03 18:47:42.
