data_PCOD9284649
_publ_section_title
;
Structure prediction by ZEFSAII (Michael W. Deem and Ramdas Pophale) SiO2 
 PCOD9284649
Probable space group: C 2/C
;
_chemical_formula_sum "Si O2"
_cell_formula_units_Z 56
_cell_length_a 10.850964
_cell_length_b 13.526491
_cell_length_c 22.348318
_cell_angle_alpha 90.000000
_cell_angle_beta 60.952185
_cell_angle_gamma 90.000000
_cell_volume 2867.586155
_symmetry_space_group_name_H-M "C 2/C"
_symmetry_group_IT_number 15
_symmetry_cell_setting 'monoclinic'
loop_
_space_group_symop_operation_xyz
x,y,z
-x,y,1/2-z
-x,-y,-z
x,-y,1/2+z
1/2+x,1/2+y,z
1/2-x,1/2+y,1/2-z
1/2-x,1/2-y,-z
1/2+x,1/2-y,1/2+z
loop_
_atom_site_type_symbol
_atom_site_label
_atom_site_fract_x
_atom_site_fract_y
_atom_site_fract_z
Si Si1 0.612102 0.894921 0.137898
Si Si2 0.000000 0.567169 0.250000
Si Si3 0.378899 0.638838 0.011861
Si Si4 0.597379 0.861162 0.511861
Si Si5 0.500000 0.275905 0.750000
Si Si6 0.897833 0.976486 0.104402
Si Si7 0.606638 0.976485 0.395598
Si Si8 0.274339 0.571653 0.250000
O O1 0.565370 0.797543 0.184632
O O2 0.522678 0.909005 0.098894
O O3 0.563828 0.992352 0.186172
O O4 0.779533 0.909006 0.098893
O O5 0.865589 0.617317 0.250000
O O6 0.212966 0.641636 0.037034
O O7 0.457391 0.580271 0.940291
O O8 0.433288 0.750000 1.000000
O O9 0.405354 0.578597 0.065910
O O10 0.662029 0.919728 0.440290
O O11 0.462827 0.921404 0.565910
O O12 0.620422 0.345594 0.750001
O O13 0.851140 0.003054 0.182363
O O14 0.715866 0.003055 0.317637
#
# Coordination Sequence:
#
# PCOD9284649 Si02
#       8
#     8   4   8   8   4   8   8   8
#     4   9  18  38  59  82 121 164 191 237 309 381
#     4   7  16  38  60  75 120 164 185 234 312 369
#     4  10  22  40  62  88 119 161 209 253 302 368
#     4  10  22  40  62  88 119 161 209 253 302 368
#     4  11  24  34  62  99 126 148 213 260 306 361
#     4  10  21  41  63  86 126 162 200 249 318 364
#     4  10  21  41  63  86 126 162 200 249 318 364
#     4  10  22  38  64  95 123 159 204 258 313 360
#
# _framework density 19.52862
#
# number of rings (size 3 to 8) (size 9 to 14) (size 15 to 20)
#    0.000    2.286    1.429    0.857    6.000    0.000 
#    0.000    0.714    0.000    5.143    0.000    0.000 
#    0.000    0.000    0.000    0.000    0.000    0.000 
#
# Total GULP energy -156114.968734 kJ/mol
# GULP energy per Si atom -5575.534598 kJ/mol
# Density = 1.948417 g / cm^3
# Si number density = 19.528620 Si / 1000 Ang^3
#
#
#
# Elastic Constant Matrix: (Units=GPa)
#
#
# Indices 1 2 3 4 5 6 
#
# 1 79.9385 31.7132 0.0197 0.0000 0.0005 0.0000
# 2 31.7132 106.0683 42.3354 0.0000 0.0013 0.0000
# 3 0.0197 42.3354 112.5297 0.0000 0.0007 0.0000
# 4 0.0000 0.0000 0.0000 19.8290 0.0000 -0.0007
# 5 0.0005 0.0013 0.0007 0.0000 17.4438 0.0000
# 6 0.0000 0.0000 0.0000 -0.0007 0.0000 -4.8001
#
#
#
# Elastic Compliance Matrix: (Units=1/GPa)
#
#
# Indices 1 2 3 4 5 6 
#
# 1 0.014538 -0.005113 0.001921 0.000000 0.000000 0.000000
# 2 -0.005113 0.012892 -0.004849 0.000000 -0.000001 0.000000
# 3 0.001921 -0.004849 0.010711 0.000000 0.000000 0.000000
# 4 0.000000 0.000000 0.000000 0.050431 0.000000 -0.000008
# 5 0.000000 -0.000001 0.000000 0.000000 0.057327 0.000000
# 6 0.000000 0.000000 0.000000 -0.000008 0.000000 -0.208330
#
#
# Mechanical properties :
#
#
# Convention : Reuss Voigt Hill
#
# Bulk Modulus (GPa) = 45.33620 49.63035 47.48328
# Shear Modulus (GPa) = -128.22120 21.45909 -53.38106
#
# Velocity S-wave (km/s) = -8.11176 3.31849 -5.23394
# Velocity P-wave (km/s) = 8.02923 6.33660 3.48683
#
# Compressibility (1/GPa) = 0.02205743
#
# Stress axis : x y z
#
# Youngs Moduli (GPa) = 68.78651 77.56569 93.36525
#
# Poissons Ratio (x) = 0.39663 -0.17937
# Poissons Ratio (y) = 0.35173 0.45276
# Poissons Ratio (z) = -0.13215 0.37615
#
# Static dielectric constant tensor:
#      x y z
#    x 1.728170 0.000000 0.000000 
#    y 0.000000 1.645840 0.000000 
#    z 0.000000 0.000000 1.707470 
# 
# From -- ./inp_files/268754.got.cif
#   From: 2010.05.17/outbox.cif.g08.bks.cpg/sg15_135_cif.got.tgz:268754.got - 2010.06.03 18:47:42.
