data_PCOD9284323
_publ_section_title
;
Structure prediction by ZEFSAII (Michael W. Deem and Ramdas Pophale) SiO2 
 PCOD9284323
Probable space group: C 2/C
;
_chemical_formula_sum "Si O2"
_cell_formula_units_Z 40
_cell_length_a 8.687957
_cell_length_b 20.013189
_cell_length_c 13.016533
_cell_angle_alpha 90.000000
_cell_angle_beta 124.343004
_cell_angle_gamma 90.000000
_cell_volume 1868.695206
_symmetry_space_group_name_H-M "C 2/C"
_symmetry_group_IT_number 15
_symmetry_cell_setting 'monoclinic'
loop_
_space_group_symop_operation_xyz
x,y,z
-x,y,1/2-z
-x,-y,-z
x,-y,1/2+z
1/2+x,1/2+y,z
1/2-x,1/2+y,1/2-z
1/2-x,1/2-y,-z
1/2+x,1/2-y,1/2+z
loop_
_atom_site_type_symbol
_atom_site_label
_atom_site_fract_x
_atom_site_fract_y
_atom_site_fract_z
Si Si1 0.252760 0.683627 0.426909
Si Si2 0.227014 0.967479 0.313741
Si Si3 0.089702 0.844449 0.168756
Si Si4 0.213543 0.209966 0.301302
Si Si5 0.539974 0.905369 0.585150
O O1 0.250000 0.750000 0.500000
O O2 0.419163 0.638526 0.532030
O O3 0.281184 0.698481 0.319585
O O4 0.070227 0.641263 0.378229
O O5 0.223685 0.907203 0.231535
O O6 0.373939 0.938399 0.454622
O O7 0.000000 0.976609 0.250000
O O8 0.324727 0.036864 0.321548
O O9 0.183639 0.780709 0.152848
O O10 0.000000 0.830112 0.250000
O O11 0.318207 0.151485 0.404961
O O12 0.000000 0.213903 0.250000
#
# Coordination Sequence:
#
# PCOD9284323 Si02
#       5
#     8   8   8   8   8
#     4  12  21  42  72  99 129 180 231 272 337 410
#     4  10  21  40  69 102 137 173 221 280 338 403
#     4  11  20  41  69  97 135 178 223 273 339 406
#     4  12  26  41  66 103 140 175 229 287 333 395
#     4  11  21  40  72  97 133 182 221 272 342 409
#
# _framework density 21.40531
#
# number of rings (size 3 to 8) (size 9 to 14) (size 15 to 20)
#    0.000    0.800    8.000    1.200    0.000    0.800 
#    0.000    3.000    4.400    0.000    0.000    0.000 
#    0.000    0.000    0.000    0.000    0.000    0.000 
#
# Total GULP energy -111376.394890 kJ/mol
# GULP energy per Si atom -5568.819745 kJ/mol
# Density = 2.135659 g / cm^3
# Si number density = 21.405310 Si / 1000 Ang^3
#
#
#
# Elastic Constant Matrix: (Units=GPa)
#
#
# Indices 1 2 3 4 5 6 
#
# 1 92.0816 46.0039 24.9506 0.0000 33.9125 0.0000
# 2 46.0039 148.4006 25.5511 0.0000 22.6491 0.0000
# 3 24.9506 25.5511 98.2253 0.0000 30.2459 0.0000
# 4 0.0000 0.0000 0.0000 38.1394 0.0000 25.0084
# 5 33.9125 22.6491 30.2459 0.0000 34.0567 0.0000
# 6 0.0000 0.0000 0.0000 25.0084 0.0000 36.8669
#
#
#
# Elastic Compliance Matrix: (Units=1/GPa)
#
#
# Indices 1 2 3 4 5 6 
#
# 1 0.018635 -0.003343 0.001604 0.000000 -0.017758 0.000000
# 2 -0.003343 0.008123 -0.000861 0.000000 -0.001309 0.000000
# 3 0.001604 -0.000861 0.014194 0.000000 -0.013631 0.000000
# 4 0.000000 0.000000 0.000000 0.047225 0.000000 -0.032035
# 5 -0.017758 -0.001309 -0.013631 0.000000 0.060021 0.000000
# 6 0.000000 0.000000 0.000000 -0.032035 0.000000 0.048855
#
#
# Mechanical properties :
#
#
# Convention : Reuss Voigt Hill
#
# Bulk Modulus (GPa) = 27.96957 59.07985 43.52471
# Shear Modulus (GPa) = 23.34575 37.95939 30.65257
#
# Velocity S-wave (km/s) = 3.30609 4.21570 3.78829
# Velocity P-wave (km/s) = 5.26010 7.16636 6.28591
#
# Compressibility (1/GPa) = 0.03575314
#
# Stress axis : x y z
#
# Youngs Moduli (GPa) = 53.66125 123.11091 70.45030
#
# Poissons Ratio (x) = 0.41154 -0.11300
# Poissons Ratio (y) = 0.17938 0.06065
# Poissons Ratio (z) = -0.08607 0.10598
#
# Static dielectric constant tensor:
#      x y z
#    x 2.607280 0.000000 0.486180 
#    y 0.000000 1.839280 0.000000 
#    z 0.486180 0.000000 2.105740 
# 
# From -- ./inp_files/135775.got.cif
#   From: 2010.05.17/outbox.cif.g08.bks.cpg/sg15_68_cif.got.tgz:135775.got - 2010.06.03 18:47:42.
