data_PCOD9284786
_publ_section_title
;
Structure prediction by ZEFSAII (Michael W. Deem and Ramdas Pophale) SiO2 
 PCOD9284786
Probable space group: C 2/C
;
_chemical_formula_sum "Si O2"
_cell_formula_units_Z 48
_cell_length_a 8.380728
_cell_length_b 26.943203
_cell_length_c 16.459500
_cell_angle_alpha 90.000000
_cell_angle_beta 34.274091
_cell_angle_gamma 90.000000
_cell_volume 2093.020929
_symmetry_space_group_name_H-M "C 2/C"
_symmetry_group_IT_number 15
_symmetry_cell_setting 'monoclinic'
loop_
_space_group_symop_operation_xyz
x,y,z
-x,y,1/2-z
-x,-y,-z
x,-y,1/2+z
1/2+x,1/2+y,z
1/2-x,1/2+y,1/2-z
1/2-x,1/2-y,-z
1/2+x,1/2-y,1/2+z
loop_
_atom_site_type_symbol
_atom_site_label
_atom_site_fract_x
_atom_site_fract_y
_atom_site_fract_z
Si Si1 0.352054 0.935267 0.921380
Si Si2 0.760444 0.014190 0.694727
Si Si3 0.166577 0.858791 0.605681
Si Si4 0.696383 0.916107 0.371874
Si Si5 0.698368 0.332408 0.898107
Si Si6 0.281090 0.249114 0.085027
O O1 0.390389 0.931202 0.001317
O O2 0.076353 0.971965 0.030207
O O3 0.258175 0.882108 0.925015
O O4 0.640455 0.958390 0.761655
O O5 0.500000 0.035931 0.750000
O O6 0.748702 0.039370 0.788096
O O7 0.428451 0.886012 0.454288
O O8 0.303597 0.809771 0.590773
O O9 0.000000 0.884605 0.750000
O O10 0.952731 0.846700 0.623061
O O11 0.000000 0.888790 0.250000
O O12 0.000000 0.310063 0.750000
O O13 0.515342 0.288310 0.013100
O O14 0.000000 0.264982 0.250000
O O15 0.250000 0.250000 0.000000
#
# Coordination Sequence:
#
# PCOD9284786 Si02
#       6
#     8   8   8   8   8   8
#     4  11  24  41  61  90 124 166 217 271 328 390
#     4  11  23  40  60  86 121 165 215 268 324 389
#     4  10  21  41  64  92 130 169 209 266 330 393
#     4  10  23  40  61  91 126 167 216 268 328 391
#     4  11  23  41  65  97 130 170 221 274 330 397
#     4   9  21  41  65  94 130 173 217 267 332 398
#
# _framework density 22.93336
#
# number of rings (size 3 to 8) (size 9 to 14) (size 15 to 20)
#    0.000    1.667    0.000    3.500    0.000    9.333 
#    0.000   11.667    0.000    0.000    0.000    0.000 
#    0.000    0.000    0.000    0.000    0.000    0.000 
#
# Total GULP energy -133896.008070 kJ/mol
# GULP energy per Si atom -5579.000336 kJ/mol
# Density = 2.288116 g / cm^3
# Si number density = 22.933360 Si / 1000 Ang^3
#
#
#
# Elastic Constant Matrix: (Units=GPa)
#
#
# Indices 1 2 3 4 5 6 
#
# 1 58.3108 0.1759 -19.8694 0.0000 -4.8603 0.0000
# 2 0.1759 84.9210 37.9001 0.0000 -12.5071 0.0000
# 3 -19.8694 37.9001 99.7178 0.0000 -24.7402 0.0000
# 4 0.0000 0.0000 0.0000 -139.7174 0.0000 210.2373
# 5 -4.8603 -12.5071 -24.7402 0.0000 41.5475 0.0000
# 6 0.0000 0.0000 0.0000 210.2373 0.0000 -244.1492
#
#
#
# Elastic Compliance Matrix: (Units=1/GPa)
#
#
# Indices 1 2 3 4 5 6 
#
# 1 0.019618 -0.001919 0.005942 0.000000 0.005256 0.000000
# 2 -0.001919 0.014424 -0.005682 0.000000 0.000734 0.000000
# 3 0.005942 -0.005682 0.015394 0.000000 0.008151 0.000000
# 4 0.000000 0.000000 0.000000 0.024202 0.000000 0.020841
# 5 0.005256 0.000734 0.008151 0.000000 0.029759 0.000000
# 6 0.000000 0.000000 0.000000 0.020841 0.000000 0.013850
#
#
# Mechanical properties :
#
#
# Convention : Reuss Voigt Hill
#
# Bulk Modulus (GPa) = 21.68302 31.04031 26.36166
# Shear Modulus (GPa) = 36.78163 -53.48095 -8.34966
#
# Velocity S-wave (km/s) = 4.00915 -4.83433 -1.91017
# Velocity P-wave (km/s) = 5.55935 4.19484 2.57970
#
# Compressibility (1/GPa) = 0.04611905
#
# Stress axis : x y z
#
# Youngs Moduli (GPa) = 50.97319 69.33028 64.95874
#
# Poissons Ratio (x) = 0.13301 -0.38600
# Poissons Ratio (y) = 0.09779 0.36911
# Poissons Ratio (z) = -0.30289 0.39395
#
# Static dielectric constant tensor:
#      x y z
#    x 1.902340 0.000000 -0.012040 
#    y 0.000000 1.915240 0.000000 
#    z -0.012040 0.000000 1.859100 
# 
# From -- ./inp_files/194142.got.cif
#   From: 2010.05.17/outbox.cif.g08.bks.cpg/sg15_98_cif.got.tgz:194142.got - 2010.06.03 18:47:42.
