data_PCOD9284241
_publ_section_title
;
Structure prediction by ZEFSAII (Michael W. Deem and Ramdas Pophale) SiO2 
 PCOD9284241
Probable space group: C 2/C
;
_chemical_formula_sum "Si O2"
_cell_formula_units_Z 36
_cell_length_a 11.595197
_cell_length_b 19.263316
_cell_length_c 14.326518
_cell_angle_alpha 90.000000
_cell_angle_beta 149.589464
_cell_angle_gamma 90.000000
_cell_volume 1619.815005
_symmetry_space_group_name_H-M "C 2/C"
_symmetry_group_IT_number 15
_symmetry_cell_setting 'monoclinic'
loop_
_space_group_symop_operation_xyz
x,y,z
-x,y,1/2-z
-x,-y,-z
x,-y,1/2+z
1/2+x,1/2+y,z
1/2-x,1/2+y,1/2-z
1/2-x,1/2-y,-z
1/2+x,1/2-y,1/2+z
loop_
_atom_site_type_symbol
_atom_site_label
_atom_site_fract_x
_atom_site_fract_y
_atom_site_fract_z
Si Si1 0.000000 0.081366 0.750000
Si Si2 0.333864 0.328528 0.437672
Si Si3 0.147809 0.666035 0.000185
Si Si4 0.863194 0.062318 0.450870
Si Si5 0.003933 0.426500 0.949220
O O1 0.900154 0.048704 0.585897
O O2 0.754373 0.109071 0.616919
O O3 0.321572 0.351896 0.537823
O O4 0.341062 0.245470 0.457058
O O5 0.522283 0.365694 0.505645
O O6 0.096701 0.344670 0.220240
O O7 0.154699 0.620076 0.096274
O O8 0.612787 0.063479 0.232238
O O9 0.000000 0.000000 0.500000
O O10 0.000000 0.500000 0.000000
#
# Coordination Sequence:
#
# PCOD9284241 Si02
#       5
#     4   8   8   8   8
#     4  12  26  48  64  98 140 176 230 264 346 400
#     4  10  21  40  68 102 135 173 223 281 334 389
#     4  10  21  40  68 102 135 173 223 281 334 389
#     4  12  25  44  70 100 136 178 222 278 334 402
#     4  12  25  44  70 100 136 178 222 278 334 402
#
# _framework density 22.224758999999999
#
# number of rings (size 3 to 8) (size 9 to 14) (size 15 to 20)
#    0.000    0.889    4.444    2.000    3.111    2.667 
#    0.000    1.111    0.000    0.000    0.000    0.000 
#    0.000    0.000    0.000    0.000    0.000    0.000 
#
# Total GULP energy -100341.574190 kJ/mol
# GULP energy per Si atom -5574.531899 kJ/mol
# Density = 2.217417 g / cm^3
# Si number density = 22.224759 Si / 1000 Ang^3
#
#
#
# Elastic Constant Matrix: (Units=GPa)
#
#
# Indices 1 2 3 4 5 6 
#
# 1 120.1212 33.4980 35.5206 -0.0006 -29.7865 -0.0004
# 2 33.4980 46.5752 2.5230 -0.0011 -7.2843 -0.0007
# 3 35.5206 2.5230 146.6846 -0.0032 -13.9955 -0.0024
# 4 -0.0006 -0.0011 -0.0032 16.5557 -0.0018 -7.6586
# 5 -29.7865 -7.2843 -13.9955 -0.0018 60.7247 -0.0013
# 6 -0.0004 -0.0007 -0.0024 -7.6586 -0.0013 14.5881
#
#
#
# Elastic Compliance Matrix: (Units=1/GPa)
#
#
# Indices 1 2 3 4 5 6 
#
# 1 0.012436 -0.008098 -0.002436 0.000000 0.004567 0.000000
# 2 -0.008098 0.027157 0.001458 0.000003 -0.000379 0.000003
# 3 -0.002436 0.001458 0.007449 0.000003 0.000696 0.000003
# 4 0.000000 0.000003 0.000003 0.079776 0.000004 0.041882
# 5 0.004567 -0.000379 0.000696 0.000004 0.018823 0.000004
# 6 0.000000 0.000003 0.000003 0.041882 0.000004 0.090536
#
#
# Mechanical properties :
#
#
# Convention : Reuss Voigt Hill
#
# Bulk Modulus (GPa) = 34.61625 50.71825 42.66725
# Shear Modulus (GPa) = 18.94223 34.49634 26.71928
#
# Velocity S-wave (km/s) = 2.92259 3.94402 3.47108
# Velocity P-wave (km/s) = 5.19597 6.60383 5.94174
#
# Compressibility (1/GPa) = 0.02888817
#
# Stress axis : x y z
#
# Youngs Moduli (GPa) = 80.41000 36.82313 134.25112
#
# Poissons Ratio (x) = 0.29820 0.32710
# Poissons Ratio (y) = 0.65117 -0.19571
# Poissons Ratio (z) = 0.19592 -0.05368
#
# Static dielectric constant tensor:
#      x y z
#    x 1.824350 0.000000 -0.032320 
#    y 0.000000 1.851500 0.000000 
#    z -0.032320 0.000000 1.741370 
# 
# From -- ./inp_files/147327.got.cif
#   From: 2010.05.17/outbox.cif.g08.bks.cpg/sg15_74_cif.got.tgz:147327.got - 2010.06.03 18:47:42.
