data_PCOD9284029
_publ_section_title
;
Structure prediction by ZEFSAII (Michael W. Deem and Ramdas Pophale) SiO2 
 PCOD9284029
Probable space group: C 2/C
;
_chemical_formula_sum "Si O2"
_cell_formula_units_Z 40
_cell_length_a 16.298343
_cell_length_b 7.917921
_cell_length_c 18.515296
_cell_angle_alpha 90.000000
_cell_angle_beta 135.833052
_cell_angle_gamma 90.000000
_cell_volume 1664.804124
_symmetry_space_group_name_H-M "C 2/C"
_symmetry_group_IT_number 15
_symmetry_cell_setting 'monoclinic'
loop_
_space_group_symop_operation_xyz
x,y,z
-x,y,1/2-z
-x,-y,-z
x,-y,1/2+z
1/2+x,1/2+y,z
1/2-x,1/2+y,1/2-z
1/2-x,1/2-y,-z
1/2+x,1/2-y,1/2+z
loop_
_atom_site_type_symbol
_atom_site_label
_atom_site_fract_x
_atom_site_fract_y
_atom_site_fract_z
Si Si1 0.034733 0.274559 0.199074
Si Si2 0.818098 0.406310 0.005419
Si Si3 0.528289 0.297196 0.994502
Si Si4 0.241973 0.982930 0.193645
Si Si5 0.781913 0.346583 0.375746
O O1 0.064398 0.423335 0.371815
O O2 0.015627 0.165733 0.115232
O O3 0.162963 0.352141 0.277942
O O4 0.000000 0.181966 0.250000
O O5 0.875536 0.344911 0.966308
O O6 0.750000 0.250000 0.000000
O O7 0.749517 0.568430 0.932212
O O8 0.420828 0.207425 0.966918
O O9 0.610852 0.435680 0.083364
O O10 0.253902 0.959478 0.287138
O O11 0.273589 0.166144 0.182144
#
# Coordination Sequence:
#
# PCOD9284029 Si02
#       5
#     8   8   8   8   8
#     4   9  21  38  65  90 130 184 226 272 349 411
#     4  10  21  40  66  90 131 177 223 277 347 407
#     4   9  21  39  67  95 133 173 231 281 344 406
#     4  11  22  38  68  99 134 179 227 289 343 407
#     4  11  23  39  66 102 135 172 233 288 341 412
#
# _framework density 24.02685
#
# number of rings (size 3 to 8) (size 9 to 14) (size 15 to 20)
#    1.200    0.800    0.000    3.600    2.800    1.600 
#    0.000    4.000    0.000    0.000    0.000    0.000 
#    0.000    0.000    0.000    0.000    0.000    0.000 
#
# Total GULP energy -111364.590983 kJ/mol
# GULP energy per Si atom -5568.229549 kJ/mol
# Density = 2.397216 g / cm^3
# Si number density = 24.026850 Si / 1000 Ang^3
#
#
#
# Elastic Constant Matrix: (Units=GPa)
#
#
# Indices 1 2 3 4 5 6 
#
# 1 75.3535 32.7480 59.8252 0.0000 3.6373 0.0000
# 2 32.7480 95.4648 61.8553 0.0000 -6.3602 0.0000
# 3 59.8252 61.8553 150.9525 0.0000 7.7530 0.0000
# 4 0.0000 0.0000 0.0000 43.1008 0.0000 -7.9364
# 5 3.6373 -6.3602 7.7530 0.0000 34.9543 0.0000
# 6 0.0000 0.0000 0.0000 -7.9364 0.0000 19.8503
#
#
#
# Elastic Compliance Matrix: (Units=1/GPa)
#
#
# Indices 1 2 3 4 5 6 
#
# 1 0.019766 -0.002457 -0.006775 0.000000 -0.001001 0.000000
# 2 -0.002457 0.015123 -0.005440 0.000000 0.004214 0.000000
# 3 -0.006775 -0.005440 0.011687 0.000000 -0.002877 0.000000
# 4 0.000000 0.000000 0.000000 0.025045 0.000000 0.010013
# 5 -0.001001 0.004214 -0.002877 0.000000 0.030118 0.000000
# 6 0.000000 0.000000 0.000000 0.010013 0.000000 0.054380
#
#
# Mechanical properties :
#
#
# Convention : Reuss Voigt Hill
#
# Bulk Modulus (GPa) = 58.03308 70.06976 64.05142
# Shear Modulus (GPa) = 26.14957 30.73723 28.44340
#
# Velocity S-wave (km/s) = 3.30259 3.58059 3.44440
# Velocity P-wave (km/s) = 6.22484 6.80592 6.52186
#
# Compressibility (1/GPa) = 0.01723155
#
# Stress axis : x y z
#
# Youngs Moduli (GPa) = 50.59155 66.12335 85.56861
#
# Poissons Ratio (x) = 0.16248 0.57976
# Poissons Ratio (y) = 0.12431 0.46546
# Poissons Ratio (z) = 0.34278 0.35968
#
# Static dielectric constant tensor:
#      x y z
#    x 1.971330 0.000000 0.049940 
#    y 0.000000 2.155440 0.000000 
#    z 0.049940 0.000000 1.961140 
# 
# From -- ./inp_files/251717.got.cif
#   From: 2010.05.17/outbox.cif.g08.bks.cpg/sg15_126_cif.got.tgz:251717.got - 2010.06.03 18:47:42.
