data_PCOD9284214
_publ_section_title
;
Structure prediction by ZEFSAII (Michael W. Deem and Ramdas Pophale) SiO2 
 PCOD9284214
Probable space group: C 2/C
;
_chemical_formula_sum "Si O2"
_cell_formula_units_Z 56
_cell_length_a 19.151144
_cell_length_b 15.784248
_cell_length_c 8.866150
_cell_angle_alpha 90.000000
_cell_angle_beta 106.974503
_cell_angle_gamma 90.000000
_cell_volume 2563.356721
_symmetry_space_group_name_H-M "C 2/C"
_symmetry_group_IT_number 15
_symmetry_cell_setting 'monoclinic'
loop_
_space_group_symop_operation_xyz
x,y,z
-x,y,1/2-z
-x,-y,-z
x,-y,1/2+z
1/2+x,1/2+y,z
1/2-x,1/2+y,1/2-z
1/2-x,1/2-y,-z
1/2+x,1/2-y,1/2+z
loop_
_atom_site_type_symbol
_atom_site_label
_atom_site_fract_x
_atom_site_fract_y
_atom_site_fract_z
Si Si1 0.058804 0.387721 0.200043
Si Si2 0.327430 0.251888 0.731037
Si Si3 0.148295 0.916654 0.609575
Si Si4 0.601456 0.034690 0.454600
Si Si5 0.178854 0.407587 0.723801
Si Si6 0.084325 0.075883 0.744422
Si Si7 0.337367 0.725332 0.887293
O O1 0.132451 0.336468 0.241199
O O2 0.069117 0.464999 0.322521
O O3 0.043148 0.415198 0.019082
O O4 0.000000 0.330925 0.250000
O O5 0.370481 0.320092 0.857926
O O6 0.328260 0.289232 0.560944
O O7 0.245335 0.229436 0.729552
O O8 0.233603 0.917545 0.713133
O O9 0.135199 0.927340 0.424601
O O10 0.101765 0.989510 0.663448
O O11 0.649978 0.985998 0.607881
O O12 0.649498 0.091877 0.375626
O O13 0.144178 0.324161 0.625220
O O14 0.111352 0.156303 0.660383
O O15 0.000000 0.081360 0.750000
#
# Coordination Sequence:
#
# PCOD9284214 Si02
#       7
#     8   8   8   8   8   8   8
#     4  11  23  39  61  92 132 169 207 258 324 388
#     4  10  23  42  67  96 129 167 222 270 322 380
#     4  11  25  42  69  96 125 172 216 276 322 385
#     4  10  22  38  63  95 127 168 211 260 319 386
#     4  10  21  40  67  98 128 164 217 272 321 372
#     4  12  27  45  67  97 136 175 218 268 336 400
#     4  10  23  43  64  97 131 167 215 277 321 377
#
# _framework density 21.846354000000002
#
# number of rings (size 3 to 8) (size 9 to 14) (size 15 to 20)
#    0.000    1.429    1.429    2.571    8.000    2.857 
#    0.000    0.714    0.000    0.000    0.000    0.000 
#    0.000    0.000    0.000    0.000    0.000    0.000 
#
# Total GULP energy -156208.957647 kJ/mol
# GULP energy per Si atom -5578.891345 kJ/mol
# Density = 2.179663 g / cm^3
# Si number density = 21.846354 Si / 1000 Ang^3
#
#
#
# Elastic Constant Matrix: (Units=GPa)
#
#
# Indices 1 2 3 4 5 6 
#
# 1 70.3166 28.3517 -0.4619 0.0000 -23.2399 0.0000
# 2 28.3517 75.1129 6.1785 0.0000 -15.4228 0.0000
# 3 -0.4619 6.1785 77.3839 0.0000 -17.5905 0.0000
# 4 0.0000 0.0000 0.0000 26.8640 0.0000 -11.9305
# 5 -23.2399 -15.4228 -17.5905 0.0000 37.1460 0.0000
# 6 0.0000 0.0000 0.0000 -11.9305 0.0000 10.8742
#
#
#
# Elastic Compliance Matrix: (Units=1/GPa)
#
#
# Indices 1 2 3 4 5 6 
#
# 1 0.020458 -0.005514 0.003307 0.000000 0.012076 0.000000
# 2 -0.005514 0.016044 -0.000654 0.000000 0.002902 0.000000
# 3 0.003307 -0.000654 0.015020 0.000000 0.008910 0.000000
# 4 0.000000 0.000000 0.000000 0.072598 0.000000 0.079650
# 5 0.012076 0.002902 0.008910 0.000000 0.039900 0.000000
# 6 0.000000 0.000000 0.000000 0.079650 0.000000 0.179348
#
#
# Mechanical properties :
#
#
# Convention : Reuss Voigt Hill
#
# Bulk Modulus (GPa) = 21.83442 32.32778 27.08110
# Shear Modulus (GPa) = 13.72280 27.55986 20.64133
#
# Velocity S-wave (km/s) = 2.50901 3.55566 3.07716
# Velocity P-wave (km/s) = 4.29066 5.62911 5.00483
#
# Compressibility (1/GPa) = 0.04579925
#
# Stress axis : x y z
#
# Youngs Moduli (GPa) = 48.88168 62.32731 66.57790
#
# Poissons Ratio (x) = 0.34370 -0.22020
# Poissons Ratio (y) = 0.26955 0.04356
# Poissons Ratio (z) = -0.16167 0.04078
#
# Static dielectric constant tensor:
#      x y z
#    x 1.928020 0.000000 -0.060700 
#    y 0.000000 1.863520 0.000000 
#    z -0.060700 0.000000 1.819300 
# 
# From -- ./inp_files/55638.got.cif
#   From: 2010.05.17/outbox.cif.g08.bks.cpg/sg15_28_cif.got.tgz:55638.got - 2010.06.03 18:47:42.
