data_PCOD9284240
_publ_section_title
;
Structure prediction by ZEFSAII (Michael W. Deem and Ramdas Pophale) SiO2 
 PCOD9284240
Probable space group: C 2/C
;
_chemical_formula_sum "Si O2"
_cell_formula_units_Z 56
_cell_length_a 18.544074
_cell_length_b 17.397659
_cell_length_c 20.849358
_cell_angle_alpha 90.000000
_cell_angle_beta 19.381149
_cell_angle_gamma 90.000000
_cell_volume 2232.191748
_symmetry_space_group_name_H-M "C 2/C"
_symmetry_group_IT_number 15
_symmetry_cell_setting 'monoclinic'
loop_
_space_group_symop_operation_xyz
x,y,z
-x,y,1/2-z
-x,-y,-z
x,-y,1/2+z
1/2+x,1/2+y,z
1/2-x,1/2+y,1/2-z
1/2-x,1/2-y,-z
1/2+x,1/2-y,1/2+z
loop_
_atom_site_type_symbol
_atom_site_label
_atom_site_fract_x
_atom_site_fract_y
_atom_site_fract_z
Si Si1 0.251736 0.601165 0.458223
Si Si2 0.474045 0.413265 0.391297
Si Si3 0.418601 0.143410 0.486565
Si Si4 0.834976 0.708861 0.335836
Si Si5 0.725176 0.062382 0.611677
Si Si6 0.409181 0.642668 0.568265
Si Si7 0.424924 0.818926 0.516145
O O1 0.500000 0.570572 0.250000
O O2 0.234916 0.627074 0.547488
O O3 0.226519 0.656032 0.416643
O O4 0.019508 0.554812 0.654814
O O5 0.723150 0.417782 0.158041
O O6 0.347697 0.338656 0.473124
O O7 0.317837 0.483411 0.506742
O O8 0.479826 0.392941 0.462547
O O9 0.286707 0.224706 0.601735
O O10 0.536470 0.152332 0.320174
O O11 0.596650 0.143338 0.394507
O O12 0.000000 0.737587 0.250000
O O13 0.900181 0.083983 0.517969
O O14 0.450673 0.727789 0.505671
O O15 0.160241 0.651092 0.799232
#
# Coordination Sequence:
#
# PCOD9284240 Si02
#       7
#     8   8   8   8   8   8   8
#     4  10  24  44  68  97 137 185 238 295 350 414
#     4  11  24  41  68  96 138 191 228 287 355 421
#     4  11  22  42  66 103 137 177 230 290 346 418
#     4  12  24  38  65 101 138 179 233 285 354 418
#     4  10  24  45  62 100 140 181 243 281 352 433
#     4  10  21  40  69  98 138 182 231 300 346 416
#     4  10  21  40  68 102 133 179 237 292 356 409
#
# _framework density 25.087448999999999
#
# number of rings (size 3 to 8) (size 9 to 14) (size 15 to 20)
#    0.000    1.429    2.857    1.714    4.000    1.714 
#    2.571    0.000    0.000    6.857    0.000    0.000 
#    0.000    0.000    0.000    0.000    0.000    0.000 
#
# Total GULP energy -156054.296469 kJ/mol
# GULP energy per Si atom -5573.367731 kJ/mol
# Density = 2.503035 g / cm^3
# Si number density = 25.087449 Si / 1000 Ang^3
#
#
#
# Elastic Constant Matrix: (Units=GPa)
#
#
# Indices 1 2 3 4 5 6 
#
# 1 151.2885 37.3419 49.1335 0.0158 -13.9402 0.0115
# 2 37.3419 33.9152 26.7464 0.3586 -5.7866 0.0143
# 3 49.1335 26.7464 133.6635 0.3978 -6.6334 -0.0357
# 4 0.0158 0.3586 0.3978 21.7557 0.0223 2.8427
# 5 -13.9402 -5.7866 -6.6334 0.0223 43.6937 -0.0116
# 6 0.0115 0.0143 -0.0357 2.8427 -0.0116 31.9625
#
#
#
# Elastic Compliance Matrix: (Units=1/GPa)
#
#
# Indices 1 2 3 4 5 6 
#
# 1 0.009478 -0.008880 -0.001628 0.000170 0.001601 -0.000016
# 2 -0.008880 0.043906 -0.005412 -0.000625 0.002160 0.000034
# 3 -0.001628 -0.005412 0.009171 -0.000080 0.000156 0.000020
# 4 0.000170 -0.000625 -0.000080 0.046517 -0.000066 -0.004137
# 5 0.001601 0.002160 0.000156 -0.000066 0.023707 0.000013
# 6 -0.000016 0.000034 0.000020 -0.004137 0.000013 0.031655
#
#
# Mechanical properties :
#
#
# Convention : Reuss Voigt Hill
#
# Bulk Modulus (GPa) = 32.55878 60.59010 46.57444
# Shear Modulus (GPa) = 24.21144 33.19207 28.70175
#
# Velocity S-wave (km/s) = 3.10995 3.64133 3.38608
# Velocity P-wave (km/s) = 5.08940 6.47171 5.82173
#
# Compressibility (1/GPa) = 0.03071368
#
# Stress axis : x y z
#
# Youngs Moduli (GPa) = 105.50731 22.77572 109.03963
#
# Poissons Ratio (x) = 0.20226 0.17753
# Poissons Ratio (y) = 0.93694 0.59016
# Poissons Ratio (z) = 0.17178 0.12327
#
# Static dielectric constant tensor:
#      x y z
#    x 2.111700 -0.000050 0.033270 
#    y -0.000050 2.070070 0.000080 
#    z 0.033270 0.000080 2.028780 
# 
# From -- ./inp_files/250023.got.cif
#   From: 2010.05.17/outbox.cif.g08.bks.cpg/sg15_126_cif.got.tgz:250023.got - 2010.06.03 18:47:42.
