data_PCOD9284738
_publ_section_title
;
Structure prediction by ZEFSAII (Michael W. Deem and Ramdas Pophale) SiO2 
 PCOD9284738
Probable space group: C 2/C
;
_chemical_formula_sum "Si O2"
_cell_formula_units_Z 64
_cell_length_a 20.417868
_cell_length_b 20.354876
_cell_length_c 15.776741
_cell_angle_alpha 90.000000
_cell_angle_beta 154.320142
_cell_angle_gamma 90.000000
_cell_volume 2841.366280
_symmetry_space_group_name_H-M "C 2/C"
_symmetry_group_IT_number 15
_symmetry_cell_setting 'monoclinic'
loop_
_space_group_symop_operation_xyz
x,y,z
-x,y,1/2-z
-x,-y,-z
x,-y,1/2+z
1/2+x,1/2+y,z
1/2-x,1/2+y,1/2-z
1/2-x,1/2-y,-z
1/2+x,1/2-y,1/2+z
loop_
_atom_site_type_symbol
_atom_site_label
_atom_site_fract_x
_atom_site_fract_y
_atom_site_fract_z
Si Si1 0.621749 0.352906 0.950037
Si Si2 0.711345 0.143464 0.593431
Si Si3 0.761869 0.524700 0.517919
Si Si4 0.915194 0.500445 0.024638
Si Si5 0.095073 0.704191 0.622139
Si Si6 0.181906 0.606386 0.202696
Si Si7 0.518941 0.645992 0.042561
Si Si8 0.172883 0.879947 0.444414
O O1 0.500000 0.314846 0.750000
O O2 0.534629 0.381286 0.930101
O O3 0.681845 0.412585 0.963657
O O4 0.761535 0.312382 0.151407
O O5 0.649657 0.197481 0.587402
O O6 0.724689 0.155110 0.508585
O O7 0.617450 0.077790 0.505306
O O8 0.884747 0.129740 0.821494
O O9 0.817666 0.532252 0.486757
O O10 0.668631 0.456990 0.413047
O O11 0.912984 0.512781 0.749472
O O12 0.864819 0.467278 0.878390
O O13 0.030604 0.775549 0.564790
O O14 0.963246 0.651530 0.483780
O O15 0.322109 0.623386 0.306456
O O16 0.242072 0.620444 0.366866
O O17 0.000000 0.855177 0.250000
#
# Coordination Sequence:
#
# PCOD9284738 Si02
#       8
#     8   8   8   8   8   8   8   8
#     4  11  23  43  69 100 140 185 225 283 353 422
#     4  10  23  46  66  96 141 179 233 288 354 411
#     4  10  21  41  64 101 147 176 218 275 351 437
#     4  10  22  39  69 105 136 183 225 284 352 430
#     4  11  25  45  69  96 134 188 242 285 338 414
#     4  12  23  40  70  97 136 176 233 292 346 408
#     4  11  25  45  66  97 139 184 242 285 342 406
#     4  11  23  40  64 100 138 173 226 285 352 415
#
# _framework density 22.524376
#
# number of rings (size 3 to 8) (size 9 to 14) (size 15 to 20)
#    0.000    1.250    2.500    3.375    3.500    4.500 
#    0.000    5.000    0.000    0.000    0.000    0.000 
#    0.000    0.000    0.000    0.000    0.000    0.000 
#
# Total GULP energy -179012.026808 kJ/mol
# GULP energy per Si atom -5594.125838 kJ/mol
# Density = 2.247311 g / cm^3
# Si number density = 22.524376 Si / 1000 Ang^3
#
#
#
# Elastic Constant Matrix: (Units=GPa)
#
#
# Indices 1 2 3 4 5 6 
#
# 1 56.2779 6.5446 40.5155 0.0000 -1.3749 0.0000
# 2 6.5446 34.2418 7.1617 0.0000 7.5141 0.0000
# 3 40.5155 7.1617 132.1181 0.0000 -1.3396 0.0000
# 4 0.0000 0.0000 0.0000 16.6189 0.0000 15.3694
# 5 -1.3749 7.5141 -1.3396 0.0000 42.3466 0.0000
# 6 0.0000 0.0000 0.0000 15.3694 0.0000 1.8841
#
#
#
# Elastic Compliance Matrix: (Units=1/GPa)
#
#
# Indices 1 2 3 4 5 6 
#
# 1 0.023147 -0.003221 -0.006912 0.000000 0.001104 0.000000
# 2 -0.003221 0.031223 -0.000762 0.000000 -0.005669 0.000000
# 3 -0.006912 -0.000762 0.009732 0.000000 0.000219 0.000000
# 4 0.000000 0.000000 0.000000 -0.009195 0.000000 0.075007
# 5 0.001104 -0.005669 0.000219 0.000000 0.024663 0.000000
# 6 0.000000 0.000000 0.000000 0.075007 0.000000 -0.081105
#
#
# Mechanical properties :
#
#
# Convention : Reuss Voigt Hill
#
# Bulk Modulus (GPa) = 23.63430 36.78683 30.21057
# Shear Modulus (GPa) = 145.51394 23.39766 84.45580
#
# Velocity S-wave (km/s) = 8.04631 3.22649 6.12998
# Velocity P-wave (km/s) = 9.84072 5.49980 7.97143
#
# Compressibility (1/GPa) = 0.04231138
#
# Stress axis : x y z
#
# Youngs Moduli (GPa) = 43.20238 32.02758 102.75049
#
# Poissons Ratio (x) = 0.10315 0.71026
# Poissons Ratio (y) = 0.13914 0.07833
# Poissons Ratio (z) = 0.29864 0.02442
#
# Static dielectric constant tensor:
#      x y z
#    x 1.872830 0.000000 -0.009950 
#    y 0.000000 1.806880 0.000000 
#    z -0.009950 0.000000 1.855170 
# 
# From -- ./inp_files/164266.got.cif
#   From: 2010.05.17/outbox.cif.g08.bks.cpg/sg15_83_cif.got.tgz:164266.got - 2010.06.03 18:47:42.
