data_PCOD9284102
_publ_section_title
;
Structure prediction by ZEFSAII (Michael W. Deem and Ramdas Pophale) SiO2 
 PCOD9284102
Probable space group: C 2/C
;
_chemical_formula_sum "Si O2"
_cell_formula_units_Z 60
_cell_length_a 6.151026
_cell_length_b 20.946604
_cell_length_c 25.784990
_cell_angle_alpha 90.000000
_cell_angle_beta 125.047254
_cell_angle_gamma 90.000000
_cell_volume 2719.829325
_symmetry_space_group_name_H-M "C 2/C"
_symmetry_group_IT_number 15
_symmetry_cell_setting 'monoclinic'
loop_
_space_group_symop_operation_xyz
x,y,z
-x,y,1/2-z
-x,-y,-z
x,-y,1/2+z
1/2+x,1/2+y,z
1/2-x,1/2+y,1/2-z
1/2-x,1/2-y,-z
1/2+x,1/2-y,1/2+z
loop_
_atom_site_type_symbol
_atom_site_label
_atom_site_fract_x
_atom_site_fract_y
_atom_site_fract_z
Si Si1 0.004737 0.216732 0.653356
Si Si2 0.708545 0.548083 0.097841
Si Si3 0.591877 0.310582 0.586720
Si Si4 0.811096 0.472936 0.305754
Si Si5 0.915789 0.383666 0.409410
Si Si6 0.264363 0.952763 0.483017
Si Si7 0.364077 0.290850 0.449046
Si Si8 0.000000 0.634053 0.750000
O O1 0.054614 0.211142 0.598883
O O2 0.258279 0.183162 0.711917
O O3 0.876322 0.285510 0.646598
O O4 0.767775 0.170905 0.638555
O O5 0.572790 0.614517 0.095755
O O6 0.507415 0.487872 0.071625
O O7 0.975529 0.530501 0.165997
O O8 0.764917 0.557778 0.044283
O O9 0.583895 0.292858 0.524070
O O10 0.339668 0.268666 0.570973
O O11 0.500000 0.485086 0.250000
O O12 0.841818 0.447235 0.368710
O O13 0.926323 0.415060 0.286271
O O14 0.835050 0.391940 0.457951
O O15 0.208376 0.357473 0.440182
O O16 0.500000 0.000000 0.500000
#
# Coordination Sequence:
#
# PCOD9284102 Si02
#       8
#     8   8   8   8   8   8   8   4
#     4  11  22  39  65  92 126 168 215 272 312 382
#     4  11  25  41  63  98 141 171 221 260 337 401
#     4  10  23  40  61  97 130 169 204 261 332 402
#     4  12  25  43  65  94 131 176 220 279 315 386
#     4  11  21  38  66  99 126 161 222 265 332 382
#     4  11  22  38  66 100 132 174 204 273 332 400
#     4  10  21  40  66  96 131 165 207 271 330 385
#     4  12  24  42  70  92 122 170 236 276 322 368
#
# _framework density 22.060207999999999
#
# number of rings (size 3 to 8) (size 9 to 14) (size 15 to 20)
#    0.000    1.067    4.000    2.800    1.867    3.200 
#    1.200    0.000    0.000    0.000    0.000    0.000 
#    0.000    0.000    0.000    0.000    0.000    0.000 
#
# Total GULP energy -167433.098702 kJ/mol
# GULP energy per Si atom -5581.103290 kJ/mol
# Density = 2.201000 g / cm^3
# Si number density = 22.060208 Si / 1000 Ang^3
#
#
#
# Elastic Constant Matrix: (Units=GPa)
#
#
# Indices 1 2 3 4 5 6 
#
# 1 48.2702 16.1293 18.5869 0.0000 9.6212 0.0000
# 2 16.1293 92.5357 27.8928 0.0000 19.7555 0.0000
# 3 18.5869 27.8928 65.3618 0.0000 26.5646 0.0000
# 4 0.0000 0.0000 0.0000 28.0068 0.0000 5.2495
# 5 9.6212 19.7555 26.5646 0.0000 41.3287 0.0000
# 6 0.0000 0.0000 0.0000 5.2495 0.0000 40.4398
#
#
#
# Elastic Compliance Matrix: (Units=1/GPa)
#
#
# Indices 1 2 3 4 5 6 
#
# 1 0.023752 -0.002313 -0.005373 0.000000 -0.000970 0.000000
# 2 -0.002313 0.012995 -0.003495 0.000000 -0.003427 0.000000
# 3 -0.005373 -0.003495 0.023189 0.000000 -0.011984 0.000000
# 4 0.000000 0.000000 0.000000 0.036596 0.000000 -0.004751
# 5 -0.000970 -0.003427 -0.011984 0.000000 0.033763 0.000000
# 6 0.000000 0.000000 0.000000 -0.004751 0.000000 0.025345
#
#
# Mechanical properties :
#
#
# Convention : Reuss Voigt Hill
#
# Bulk Modulus (GPa) = 26.61433 36.82063 31.71748
# Shear Modulus (GPa) = 26.24300 31.52563 28.88432
#
# Velocity S-wave (km/s) = 3.45281 3.78441 3.62241
# Velocity P-wave (km/s) = 5.29022 5.98522 5.64842
#
# Compressibility (1/GPa) = 0.03757375
#
# Stress axis : x y z
#
# Youngs Moduli (GPa) = 42.10179 76.95311 43.12334
#
# Poissons Ratio (x) = 0.17803 0.23170
# Poissons Ratio (y) = 0.09740 0.15071
# Poissons Ratio (z) = 0.22621 0.26895
#
# Static dielectric constant tensor:
#      x y z
#    x 1.872950 0.000000 0.051960 
#    y 0.000000 1.930720 0.000000 
#    z 0.051960 0.000000 1.893040 
# 
# From -- ./inp_files/286507.got.cif
#   From: 2010.05.17/outbox.cif.g08.bks.cpg/sg15_144_cif.got.tgz:286507.got - 2010.06.03 18:47:42.
