data_PCOD9284657
_publ_section_title
;
Structure prediction by ZEFSAII (Michael W. Deem and Ramdas Pophale) SiO2 
 PCOD9284657
Probable space group: C 2/C
;
_chemical_formula_sum "Si O2"
_cell_formula_units_Z 48
_cell_length_a 22.016382
_cell_length_b 19.687802
_cell_length_c 9.695477
_cell_angle_alpha 90.000000
_cell_angle_beta 142.624003
_cell_angle_gamma 90.000000
_cell_volume 2551.125404
_symmetry_space_group_name_H-M "C 2/C"
_symmetry_group_IT_number 15
_symmetry_cell_setting 'monoclinic'
loop_
_space_group_symop_operation_xyz
x,y,z
-x,y,1/2-z
-x,-y,-z
x,-y,1/2+z
1/2+x,1/2+y,z
1/2-x,1/2+y,1/2-z
1/2-x,1/2-y,-z
1/2+x,1/2-y,1/2+z
loop_
_atom_site_type_symbol
_atom_site_label
_atom_site_fract_x
_atom_site_fract_y
_atom_site_fract_z
Si Si1 0.599039 0.474232 0.258166
Si Si2 0.605955 0.284568 0.689898
Si Si3 0.500000 0.357719 0.250000
Si Si4 0.209829 0.641927 0.849196
Si Si5 0.000000 0.714669 0.750000
Si Si6 0.610929 0.916941 0.435167
Si Si7 0.229889 0.969889 0.226500
O O1 0.572969 0.406037 0.293448
O O2 0.683492 0.467631 0.294182
O O3 0.641256 0.521998 0.454833
O O4 0.500000 0.500000 0.000000
O O5 0.554808 0.314140 0.463533
O O6 0.661804 0.215651 0.747273
O O7 0.533229 0.260712 0.682401
O O8 0.683656 0.340178 0.888467
O O9 0.145395 0.597419 0.840768
O O10 0.218047 0.599766 0.724448
O O11 0.910825 0.660637 0.550559
O O12 0.500000 0.948882 0.250000
O O13 0.694642 0.965913 0.649631
#
# Coordination Sequence:
#
# PCOD9284657 Si02
#       7
#     8   8   4   8   4   8   8
#     4  12  24  41  64  94 128 159 204 263 330 372
#     4  10  22  42  64  86 129 166 212 249 307 377
#     4  12  24  40  60  98 128 152 204 274 302 362
#     4  10  21  41  63  88 123 173 206 246 314 384
#     4   8  20  42  66  90 118 184 206 244 312 386
#     4   9  20  41  63  93 126 165 211 257 312 374
#     4  12  22  41  66  97 121 166 206 263 322 374
#
# _framework density 18.815224000000001
#
# number of rings (size 3 to 8) (size 9 to 14) (size 15 to 20)
#    0.500    1.000    3.333    2.000    2.333    0.667 
#    4.500    0.833    0.000    0.000    0.000    0.000 
#    0.000    0.000    0.000    0.000    0.000    0.000 
#
# Total GULP energy -133774.465440 kJ/mol
# GULP energy per Si atom -5573.936060 kJ/mol
# Density = 1.877240 g / cm^3
# Si number density = 18.815224 Si / 1000 Ang^3
#
#
#
# Elastic Constant Matrix: (Units=GPa)
#
#
# Indices 1 2 3 4 5 6 
#
# 1 119.4497 40.6089 52.0707 0.0000 -6.2363 0.0000
# 2 40.6089 82.2509 51.3841 0.0000 -7.7436 0.0000
# 3 52.0707 51.3841 68.4549 0.0000 -3.5457 0.0000
# 4 0.0000 0.0000 0.0000 58.6211 0.0000 -18.3690
# 5 -6.2363 -7.7436 -3.5457 0.0000 23.4724 0.0000
# 6 0.0000 0.0000 0.0000 -18.3690 0.0000 16.2033
#
#
#
# Elastic Compliance Matrix: (Units=1/GPa)
#
#
# Indices 1 2 3 4 5 6 
#
# 1 0.012612 -0.000222 -0.009330 0.000000 0.001868 0.000000
# 2 -0.000222 0.023494 -0.017202 0.000000 0.005093 0.000000
# 3 -0.009330 -0.017202 0.034464 0.000000 -0.002948 0.000000
# 4 0.000000 0.000000 0.000000 0.026457 0.000000 0.029993
# 5 0.001868 0.005093 -0.002948 0.000000 0.044334 0.000000
# 6 0.000000 0.000000 0.000000 0.029993 0.000000 0.095718
#
#
# Mechanical properties :
#
#
# Convention : Reuss Voigt Hill
#
# Bulk Modulus (GPa) = 58.61007 62.03141 60.32074
# Shear Modulus (GPa) = 16.87623 28.06550 22.47086
#
# Velocity S-wave (km/s) = 2.99815 3.86636 3.45960
# Velocity P-wave (km/s) = 6.57291 7.27819 6.93452
#
# Compressibility (1/GPa) = 0.01706191
#
# Stress axis : x y z
#
# Youngs Moduli (GPa) = 79.29062 42.56444 29.01542
#
# Poissons Ratio (x) = 0.00947 0.27070
# Poissons Ratio (y) = 0.01764 0.49913
# Poissons Ratio (z) = 0.73975 0.73220
#
# Static dielectric constant tensor:
#      x y z
#    x 1.619150 0.000000 0.030020 
#    y 0.000000 1.689090 0.000000 
#    z 0.030020 0.000000 1.637580 
# 
# From -- ./inp_files/40315.got.cif
#   From: 2010.05.17/outbox.cif.g08.bks.cpg/sg15_21_cif.got.tgz:40315.got - 2010.06.03 18:47:42.
