data_PCOD9284591
_publ_section_title
;
Structure prediction by ZEFSAII (Michael W. Deem and Ramdas Pophale) SiO2 
 PCOD9284591
Probable space group: C 2/C
;
_chemical_formula_sum "Si O2"
_cell_formula_units_Z 40
_cell_length_a 8.420498
_cell_length_b 27.076301
_cell_length_c 9.016767
_cell_angle_alpha 90.000000
_cell_angle_beta 93.930500
_cell_angle_gamma 90.000000
_cell_volume 2050.950903
_symmetry_space_group_name_H-M "C 2/C"
_symmetry_group_IT_number 15
_symmetry_cell_setting 'monoclinic'
loop_
_space_group_symop_operation_xyz
x,y,z
-x,y,1/2-z
-x,-y,-z
x,-y,1/2+z
1/2+x,1/2+y,z
1/2-x,1/2+y,1/2-z
1/2-x,1/2-y,-z
1/2+x,1/2-y,1/2+z
loop_
_atom_site_type_symbol
_atom_site_label
_atom_site_fract_x
_atom_site_fract_y
_atom_site_fract_z
Si Si1 0.437650 0.143243 0.080458
Si Si2 0.938571 0.751885 0.071169
Si Si3 0.061660 0.547970 0.918601
Si Si4 0.443786 0.352196 0.916156
Si Si5 0.560876 0.450854 0.084815
O O1 0.500000 0.135624 0.250000
O O2 0.496956 0.197131 0.029511
O O3 0.247151 0.145652 0.081210
O O4 0.495779 0.097910 0.987098
O O5 0.000000 0.755647 0.250000
O O6 0.750000 0.750000 0.000000
O O7 0.001237 0.801052 0.995222
O O8 0.250502 0.548600 0.920420
O O9 0.000000 0.544639 0.750000
O O10 0.000000 0.500000 0.000000
O O11 0.500000 0.353110 0.750000
O O12 0.503763 0.400734 0.003378
O O13 0.500000 0.451300 0.250000
O O14 0.500000 0.500000 0.000000
#
# Coordination Sequence:
#
# PCOD9284591 Si02
#       5
#     8   8   8   8   8
#     4  10  21  41  62  89 126 164 206 254 307 369
#     4   9  20  39  63  90 127 170 213 262 316 376
#     4  12  25  42  64  90 120 160 203 252 309 372
#     4  11  22  39  63  94 127 167 210 259 313 374
#     4  12  25  43  64  91 123 161 206 259 315 377
#
# _framework density 19.503149000000001
#
# number of rings (size 3 to 8) (size 9 to 14) (size 15 to 20)
#    0.000    1.200    0.000    6.600    0.000    2.400 
#    0.000   16.000    0.000    0.000    0.000    0.000 
#    0.000    0.000    0.000    0.000    0.000    0.000 
#
# Total GULP energy -111596.424597 kJ/mol
# GULP energy per Si atom -5579.821230 kJ/mol
# Density = 1.945876 g / cm^3
# Si number density = 19.503149 Si / 1000 Ang^3
#
#
#
# Elastic Constant Matrix: (Units=GPa)
#
#
# Indices 1 2 3 4 5 6 
#
# 1 127.1748 71.2462 56.2486 0.0000 -1.5030 0.0000
# 2 71.2462 252.1046 135.9524 0.0000 -16.3723 0.0000
# 3 56.2486 135.9524 166.1385 0.0000 -3.9817 0.0000
# 4 0.0000 0.0000 0.0000 49.0855 0.0000 1.2470
# 5 -1.5030 -16.3723 -3.9817 0.0000 37.3978 0.0000
# 6 0.0000 0.0000 0.0000 1.2470 0.0000 28.6205
#
#
#
# Elastic Compliance Matrix: (Units=1/GPa)
#
#
# Indices 1 2 3 4 5 6 
#
# 1 0.009663 -0.001785 -0.001825 0.000000 -0.000587 0.000000
# 2 -0.001785 0.007669 -0.005607 0.000000 0.002689 0.000000
# 3 -0.001825 -0.005607 0.011193 0.000000 -0.001336 0.000000
# 4 0.000000 0.000000 0.000000 0.020395 0.000000 -0.000889
# 5 -0.000587 0.002689 -0.001336 0.000000 0.027751 0.000000
# 6 0.000000 0.000000 0.000000 -0.000889 0.000000 0.034979
#
#
# Mechanical properties :
#
#
# Convention : Reuss Voigt Hill
#
# Bulk Modulus (GPa) = 99.09093 119.14578 109.11836
# Shear Modulus (GPa) = 37.46733 41.81881 39.64307
#
# Velocity S-wave (km/s) = 4.38778 4.63558 4.51338
# Velocity P-wave (km/s) = 8.75146 9.48023 9.12312
#
# Compressibility (1/GPa) = 0.01009174
#
# Stress axis : x y z
#
# Youngs Moduli (GPa) = 103.48297 130.38775 89.33768
#
# Poissons Ratio (x) = 0.23271 0.16307
# Poissons Ratio (y) = 0.18469 0.50094
# Poissons Ratio (z) = 0.18889 0.73112
#
# Static dielectric constant tensor:
#      x y z
#    x 1.659160 0.000000 0.022930 
#    y 0.000000 1.685280 0.000000 
#    z 0.022930 0.000000 1.656760 
# 
# From -- ./inp_files/23456.got.cif
#   From: 2010.05.17/outbox.cif.g08.bks.cpg/sg15_12_cif.got.tgz:23456.got - 2010.06.03 18:47:42.
