data_PCOD9284003
_publ_section_title
;
Structure prediction by ZEFSAII (Michael W. Deem and Ramdas Pophale) SiO2 
 PCOD9284003
Probable space group: C 2/C
;
_chemical_formula_sum "Si O2"
_cell_formula_units_Z 52
_cell_length_a 28.142512
_cell_length_b 7.646125
_cell_length_c 9.582714
_cell_angle_alpha 90.000000
_cell_angle_beta 103.490043
_cell_angle_gamma 90.000000
_cell_volume 2005.129417
_symmetry_space_group_name_H-M "C 2/C"
_symmetry_group_IT_number 15
_symmetry_cell_setting 'monoclinic'
loop_
_space_group_symop_operation_xyz
x,y,z
-x,y,1/2-z
-x,-y,-z
x,-y,1/2+z
1/2+x,1/2+y,z
1/2-x,1/2+y,1/2-z
1/2-x,1/2-y,-z
1/2+x,1/2-y,1/2+z
loop_
_atom_site_type_symbol
_atom_site_label
_atom_site_fract_x
_atom_site_fract_y
_atom_site_fract_z
Si Si1 0.716636 0.188593 0.349387
Si Si2 0.603066 0.410706 0.470363
Si Si3 0.311126 0.557707 0.274524
Si Si4 0.863036 0.389572 0.174665
Si Si5 0.042995 0.960718 0.183476
Si Si6 0.500000 0.109450 0.250000
Si Si7 0.420554 0.983963 0.488063
O O1 0.750000 0.250000 0.500000
O O2 0.689740 0.362936 0.283300
O O3 0.755174 0.112476 0.264449
O O4 0.677914 0.039370 0.357267
O O5 0.655603 0.454176 0.564360
O O6 0.590054 0.483856 0.311881
O O7 0.558830 0.467919 0.545635
O O8 0.597643 0.202420 0.462370
O O9 0.335614 0.718189 0.209172
O O10 0.905728 0.450237 0.315793
O O11 0.886617 0.371228 0.037554
O O12 0.030070 0.753868 0.176625
O O13 0.000000 0.043021 0.250000
O O14 0.528418 0.002325 0.389645
#
# Coordination Sequence:
#
# PCOD9284003 Si02
#       7
#     8   8   8   8   8   4   8
#     4  12  26  45  73 104 143 189 239 303 362 430
#     4  10  21  40  66 104 145 183 240 289 354 422
#     4  11  26  45  70 107 139 188 239 295 361 431
#     4  11  25  48  73 104 150 186 241 299 363 427
#     4   9  19  36  67 103 144 186 233 296 342 422
#     4   8  20  38  72 102 148 182 240 292 356 414
#     4  10  23  45  70 102 145 192 236 299 355 431
#
# _framework density 25.933487
#
# number of rings (size 3 to 8) (size 9 to 14) (size 15 to 20)
#    0.462    1.231    1.538    2.308    6.462    2.462 
#    2.769    0.000    6.769    0.000    0.000    0.000 
#    0.000    0.000    0.000    0.000    0.000    0.000 
#
# Total GULP energy -145393.710484 kJ/mol
# GULP energy per Si atom -5592.065788 kJ/mol
# Density = 2.587446 g / cm^3
# Si number density = 25.933487 Si / 1000 Ang^3
#
#
#
# Elastic Constant Matrix: (Units=GPa)
#
#
# Indices 1 2 3 4 5 6 
#
# 1 99.0569 22.7191 3.3097 0.0000 -3.6321 0.0000
# 2 22.7191 84.8732 -1.4685 0.0000 7.1898 0.0000
# 3 3.3097 -1.4685 94.2526 0.0000 16.6753 0.0000
# 4 0.0000 0.0000 0.0000 33.6476 0.0000 5.0335
# 5 -3.6321 7.1898 16.6753 0.0000 52.3102 0.0000
# 6 0.0000 0.0000 0.0000 5.0335 0.0000 48.4133
#
#
#
# Elastic Compliance Matrix: (Units=1/GPa)
#
#
# Indices 1 2 3 4 5 6 
#
# 1 0.010865 -0.003038 -0.000674 0.000000 0.001387 0.000000
# 2 -0.003038 0.012793 0.000694 0.000000 -0.002190 0.000000
# 3 -0.000674 0.000694 0.011307 0.000000 -0.003747 0.000000
# 4 0.000000 0.000000 0.000000 0.030189 0.000000 -0.003139
# 5 0.001387 -0.002190 -0.003747 0.000000 0.020708 0.000000
# 6 0.000000 0.000000 0.000000 -0.003139 0.000000 0.020982
#
#
# Mechanical properties :
#
#
# Convention : Reuss Voigt Hill
#
# Bulk Modulus (GPa) = 34.56776 36.36703 35.46739
# Shear Modulus (GPa) = 40.80820 43.78240 42.29530
#
# Velocity S-wave (km/s) = 3.97113 4.11330 4.04284
# Velocity P-wave (km/s) = 5.86386 6.05083 5.95808
#
# Compressibility (1/GPa) = 0.02892869
#
# Stress axis : x y z
#
# Youngs Moduli (GPa) = 92.03638 78.16815 88.43980
#
# Poissons Ratio (x) = 0.23744 0.05963
# Poissons Ratio (y) = 0.27957 -0.06133
# Poissons Ratio (z) = 0.06205 -0.05421
#
# Static dielectric constant tensor:
#      x y z
#    x 2.176070 0.000000 -0.090210 
#    y 0.000000 1.972400 0.000000 
#    z -0.090210 0.000000 2.107880 
# 
# From -- ./inp_files/121597.got.cif
#   From: 2010.05.17/outbox.cif.g08.bks.cpg/sg15_61_cif.got.tgz:121597.got - 2010.06.03 18:47:42.
