data_PCOD9284047
_publ_section_title
;
Structure prediction by ZEFSAII (Michael W. Deem and Ramdas Pophale) SiO2 
 PCOD9284047
Probable space group: C 2/C
;
_chemical_formula_sum "Si O2"
_cell_formula_units_Z 48
_cell_length_a 15.502963
_cell_length_b 17.391789
_cell_length_c 20.426239
_cell_angle_alpha 90.000000
_cell_angle_beta 155.813813
_cell_angle_gamma 90.000000
_cell_volume 2256.402930
_symmetry_space_group_name_H-M "C 2/C"
_symmetry_group_IT_number 15
_symmetry_cell_setting 'monoclinic'
loop_
_space_group_symop_operation_xyz
x,y,z
-x,y,1/2-z
-x,-y,-z
x,-y,1/2+z
1/2+x,1/2+y,z
1/2-x,1/2+y,1/2-z
1/2-x,1/2-y,-z
1/2+x,1/2-y,1/2+z
loop_
_atom_site_type_symbol
_atom_site_label
_atom_site_fract_x
_atom_site_fract_y
_atom_site_fract_z
Si Si1 0.021498 0.165579 0.429434
Si Si2 0.220613 0.185133 0.367546
Si Si3 0.847287 0.837693 0.957454
Si Si4 0.877489 0.811066 0.225499
Si Si5 0.909822 0.578031 0.909061
Si Si6 0.534138 0.492085 0.447226
O O1 0.197141 0.232327 0.549551
O O2 0.840257 0.188197 0.251875
O O3 0.949826 0.162833 0.455722
O O4 0.079099 0.076978 0.451195
O O5 0.409578 0.122732 0.507135
O O6 0.000000 0.165017 0.250000
O O7 0.670482 0.775196 0.827511
O O8 0.997278 0.809395 0.119884
O O9 0.794144 0.924944 0.941579
O O10 0.663364 0.857743 0.089675
O O11 0.000000 0.849264 0.250000
O O12 0.686472 0.547271 0.726863
O O13 0.000000 0.500000 0.000000
O O14 0.500000 0.500000 0.500000
#
# Coordination Sequence:
#
# PCOD9284047 Si02
#       6
#     8   8   8   8   8   8
#     4  11  22  44  67  93 134 180 223 280 333 403
#     4  12  26  42  70 100 133 178 236 279 336 403
#     4  10  21  40  66  92 131 174 210 268 336 399
#     4  11  23  39  66  98 128 164 219 270 330 401
#     4  11  23  43  67  94 129 178 216 273 339 393
#     4   9  21  39  67  95 129 171 221 268 335 399
#
# _framework density 21.272797000000001
#
# number of rings (size 3 to 8) (size 9 to 14) (size 15 to 20)
#    0.000    1.333    3.333    2.000    4.667    0.667 
#    0.000    0.833    0.000    0.000    0.000    0.000 
#    0.000    0.000    0.000    0.000    0.000    0.000 
#
# Total GULP energy -133645.139436 kJ/mol
# GULP energy per Si atom -5568.547477 kJ/mol
# Density = 2.122438 g / cm^3
# Si number density = 21.272797 Si / 1000 Ang^3
#
#
#
# Elastic Constant Matrix: (Units=GPa)
#
#
# Indices 1 2 3 4 5 6 
#
# 1 73.6345 31.6065 67.0798 -0.0116 18.2615 -0.0047
# 2 31.6065 159.3969 -24.5417 0.0429 -22.5118 0.0184
# 3 67.0798 -24.5417 -165.3715 0.0815 -94.6641 0.0341
# 4 -0.0116 0.0429 0.0815 32.4653 0.0285 -6.4464
# 5 18.2615 -22.5118 -94.6641 0.0285 14.1859 0.0059
# 6 -0.0047 0.0184 0.0341 -6.4464 0.0059 1.4854
#
#
#
# Elastic Compliance Matrix: (Units=1/GPa)
#
#
# Indices 1 2 3 4 5 6 
#
# 1 0.010794 -0.001277 0.002838 -0.000069 0.003021 -0.000328
# 2 -0.001277 0.006324 -0.001689 -0.000101 0.000407 -0.000482
# 3 0.002838 -0.001689 -0.000211 0.000170 -0.007745 0.000805
# 4 -0.000069 -0.000101 0.000170 0.222785 0.000219 0.966862
# 5 0.003021 0.000407 -0.007745 0.000219 0.015566 0.001071
# 6 -0.000328 -0.000482 0.000805 0.966862 0.001071 4.869300
#
#
# Mechanical properties :
#
#
# Convention : Reuss Voigt Hill
#
# Bulk Modulus (GPa) = 60.05413 23.99432 42.02422
# Shear Modulus (GPa) = 0.97459 9.19501 5.08480
#
# Velocity S-wave (km/s) = 0.67759 2.08130 1.54773
# Velocity P-wave (km/s) = 5.37624 4.13274 4.79497
#
# Compressibility (1/GPa) = 0.01665164
#
# Stress axis : x y z
#
# Youngs Moduli (GPa) = 92.64726 158.12281 -4733.91063
#
# Poissons Ratio (x) = 0.20185 13.43667
# Poissons Ratio (y) = 0.11827 -7.99704
# Poissons Ratio (z) = -0.26297 0.26712
#
# Static dielectric constant tensor:
#      x y z
#    x 1.756910 0.000000 0.062400 
#    y 0.000000 1.831380 0.000000 
#    z 0.062400 0.000000 1.679010 
# 
# From -- ./inp_files/277882.got.cif
#   From: 2010.05.17/outbox.cif.g08.bks.cpg/sg15_139_cif.got.tgz:277882.got - 2010.06.03 18:47:42.
