data_PCOD9284756
_publ_section_title
;
Structure prediction by ZEFSAII (Michael W. Deem and Ramdas Pophale) SiO2 
 PCOD9284756
Probable space group: C 2/C
;
_chemical_formula_sum "Si O2"
_cell_formula_units_Z 56
_cell_length_a 11.607592
_cell_length_b 7.498843
_cell_length_c 29.608316
_cell_angle_alpha 90.000000
_cell_angle_beta 112.608310
_cell_angle_gamma 90.000000
_cell_volume 2379.164549
_symmetry_space_group_name_H-M "C 2/C"
_symmetry_group_IT_number 15
_symmetry_cell_setting 'monoclinic'
loop_
_space_group_symop_operation_xyz
x,y,z
-x,y,1/2-z
-x,-y,-z
x,-y,1/2+z
1/2+x,1/2+y,z
1/2-x,1/2+y,1/2-z
1/2-x,1/2-y,-z
1/2+x,1/2-y,1/2+z
loop_
_atom_site_type_symbol
_atom_site_label
_atom_site_fract_x
_atom_site_fract_y
_atom_site_fract_z
Si Si1 0.876697 0.181797 0.814635
Si Si2 0.363713 0.691939 0.667749
Si Si3 0.653074 0.557984 0.423235
Si Si4 0.401934 0.648299 0.501184
Si Si5 0.393691 0.162639 0.413356
Si Si6 0.629435 0.388702 0.754927
Si Si7 0.887995 0.249256 0.399145
O O1 0.879929 0.205891 0.868932
O O2 0.749350 0.267242 0.777630
O O3 0.886152 0.984190 0.795455
O O4 0.000223 0.280817 0.813152
O O5 0.364318 0.575465 0.621556
O O6 0.356151 0.553653 0.707777
O O7 0.237491 0.804956 0.646469
O O8 0.680833 0.450981 0.473817
O O9 0.772133 0.675658 0.427018
O O10 0.521905 0.661439 0.409467
O O11 0.500000 0.500000 0.500000
O O12 0.482864 0.794416 0.539987
O O13 0.352988 0.717840 0.446459
O O14 0.400739 0.962483 0.395185
O O15 0.500000 0.296562 0.750000
#
# Coordination Sequence:
#
# PCOD9284756 Si02
#       7
#     8   8   8   8   8   8   8
#     4  11  22  45  67  94 127 164 210 266 324 384
#     4  10  21  42  67  90 130 164 210 265 316 375
#     4  10  21  41  64  89 132 170 211 265 314 372
#     4  10  22  41  63  98 132 174 219 260 316 375
#     4  11  22  43  64  95 132 170 214 265 318 377
#     4  10  23  44  66  90 127 163 207 266 327 381
#     4  10  22  40  66  97 129 173 216 255 322 376
#
# _framework density 23.537673000000002
#
# number of rings (size 3 to 8) (size 9 to 14) (size 15 to 20)
#    0.000    1.714    4.286    0.429    0.000    6.857 
#    7.714    6.429    0.000    0.000    0.000    0.000 
#    0.000    0.000    0.000    0.000    0.000    0.000 
#
# Total GULP energy -156504.116971 kJ/mol
# GULP energy per Si atom -5589.432749 kJ/mol
# Density = 2.348410 g / cm^3
# Si number density = 23.537673 Si / 1000 Ang^3
#
#
#
# Elastic Constant Matrix: (Units=GPa)
#
#
# Indices 1 2 3 4 5 6 
#
# 1 167.8063 38.2913 18.1520 0.0000 7.3431 0.0000
# 2 38.2913 29.3096 -0.5061 0.0000 -1.1315 0.0000
# 3 18.1520 -0.5061 68.2918 0.0000 -6.2077 0.0000
# 4 0.0000 0.0000 0.0000 30.2175 0.0000 -2.5947
# 5 7.3431 -1.1315 -6.2077 0.0000 54.0055 0.0000
# 6 0.0000 0.0000 0.0000 -2.5947 0.0000 41.3897
#
#
#
# Elastic Compliance Matrix: (Units=1/GPa)
#
#
# Indices 1 2 3 4 5 6 
#
# 1 0.009048 -0.011936 -0.002656 0.000000 -0.001786 0.000000
# 2 -0.011936 0.049898 0.003825 0.000000 0.003108 0.000000
# 3 -0.002656 0.003825 0.015580 0.000000 0.002232 0.000000
# 4 0.000000 0.000000 0.000000 0.033273 0.000000 0.002086
# 5 -0.001786 0.003108 0.002232 0.000000 0.019081 0.000000
# 6 0.000000 0.000000 0.000000 0.002086 0.000000 0.024291
#
#
# Mechanical properties :
#
#
# Convention : Reuss Voigt Hill
#
# Bulk Modulus (GPa) = 18.87048 41.92025 30.39536
# Shear Modulus (GPa) = 26.26474 39.08724 32.67599
#
# Velocity S-wave (km/s) = 3.34407 4.07950 3.72995
# Velocity P-wave (km/s) = 4.79009 6.32758 5.61174
#
# Compressibility (1/GPa) = 0.05299282
#
# Stress axis : x y z
#
# Youngs Moduli (GPa) = 110.51832 20.04090 64.18404
#
# Poissons Ratio (x) = 0.23920 0.17046
# Poissons Ratio (y) = 1.31913 -0.24549
# Poissons Ratio (z) = 0.29351 -0.07665
#
# Static dielectric constant tensor:
#      x y z
#    x 2.063800 0.000000 0.225400 
#    y 0.000000 1.919960 0.000000 
#    z 0.225400 0.000000 2.262050 
# 
# From -- ./inp_files/310032.got.cif
#   From: 2010.05.17/outbox.cif.g08.bks.cpg/sg15_156_cif.got.tgz:310032.got - 2010.06.03 18:47:42.
