data_PCOD9284601
_publ_section_title
;
Structure prediction by ZEFSAII (Michael W. Deem and Ramdas Pophale) SiO2 
 PCOD9284601
Probable space group: C 2/C
;
_chemical_formula_sum "Si O2"
_cell_formula_units_Z 40
_cell_length_a 12.168325
_cell_length_b 12.216672
_cell_length_c 14.568815
_cell_angle_alpha 90.000000
_cell_angle_beta 109.345516
_cell_angle_gamma 90.000000
_cell_volume 2043.465834
_symmetry_space_group_name_H-M "C 2/C"
_symmetry_group_IT_number 15
_symmetry_cell_setting 'monoclinic'
loop_
_space_group_symop_operation_xyz
x,y,z
-x,y,1/2-z
-x,-y,-z
x,-y,1/2+z
1/2+x,1/2+y,z
1/2-x,1/2+y,1/2-z
1/2-x,1/2-y,-z
1/2+x,1/2-y,1/2+z
loop_
_atom_site_type_symbol
_atom_site_label
_atom_site_fract_x
_atom_site_fract_y
_atom_site_fract_z
Si Si1 0.489997 0.346431 0.013721
Si Si2 0.638229 0.501881 0.658801
Si Si3 0.417184 0.104310 0.986089
Si Si4 0.128847 0.618207 0.315400
Si Si5 0.836134 0.130034 0.656809
O O1 0.611414 0.396185 0.082976
O O2 0.401929 0.370946 0.076092
O O3 0.443284 0.409421 0.910867
O O4 0.487648 0.217661 0.995316
O O5 0.767728 0.454280 0.694335
O O6 0.617506 0.545091 0.755350
O O7 0.301415 0.108526 0.892741
O O8 0.366705 0.107153 0.074486
O O9 0.500000 0.000000 0.000000
O O10 0.145905 0.746991 0.299388
O O11 0.000000 0.584629 0.250000
#
# Coordination Sequence:
#
# PCOD9284601 Si02
#       5
#     8   8   8   8   8
#     4  10  21  41  62  91 123 161 210 246 309 369
#     4  11  21  36  67  89 122 159 204 256 300 365
#     4  11  21  39  64  91 124 159 204 261 304 366
#     4  11  21  39  62  92 120 158 211 251 303 369
#     4  11  20  38  63  90 118 164 211 243 304 367
#
# _framework density 19.574587000000001
#
# number of rings (size 3 to 8) (size 9 to 14) (size 15 to 20)
#    0.000    1.200    4.000    5.400    0.000    0.000 
#    0.000    1.000   13.200    0.000    0.000    0.000 
#    0.000    0.000    0.000    0.000    0.000    0.000 
#
# Total GULP energy -111599.214032 kJ/mol
# GULP energy per Si atom -5579.960702 kJ/mol
# Density = 1.953003 g / cm^3
# Si number density = 19.574587 Si / 1000 Ang^3
#
#
#
# Elastic Constant Matrix: (Units=GPa)
#
#
# Indices 1 2 3 4 5 6 
#
# 1 90.0729 59.6490 29.2262 0.0000 26.9737 0.0000
# 2 59.6490 148.8824 47.8539 0.0000 -1.0986 0.0000
# 3 29.2262 47.8539 87.6368 0.0000 14.0310 0.0000
# 4 0.0000 0.0000 0.0000 25.6491 0.0000 -4.1821
# 5 26.9737 -1.0986 14.0310 0.0000 34.9209 0.0000
# 6 0.0000 0.0000 0.0000 -4.1821 0.0000 25.6501
#
#
#
# Elastic Compliance Matrix: (Units=1/GPa)
#
#
# Indices 1 2 3 4 5 6 
#
# 1 0.022408 -0.009244 0.000419 0.000000 -0.017768 0.000000
# 2 -0.009244 0.012119 -0.005065 0.000000 0.009556 0.000000
# 3 0.000419 -0.005065 0.015084 0.000000 -0.006544 0.000000
# 4 0.000000 0.000000 0.000000 0.040053 0.000000 0.006530
# 5 -0.017768 0.009556 -0.006544 0.000000 0.045290 0.000000
# 6 0.000000 0.000000 0.000000 0.006530 0.000000 0.040051
#
#
# Mechanical properties :
#
#
# Convention : Reuss Voigt Hill
#
# Bulk Modulus (GPa) = 45.80234 66.67226 56.23730
# Shear Modulus (GPa) = 23.80264 29.90155 26.85210
#
# Velocity S-wave (km/s) = 3.49090 3.91265 3.70778
# Velocity P-wave (km/s) = 6.30065 7.38555 6.86457
#
# Compressibility (1/GPa) = 0.02183295
#
# Stress axis : x y z
#
# Youngs Moduli (GPa) = 44.62608 82.51829 66.29474
#
# Poissons Ratio (x) = 0.76277 -0.02779
# Poissons Ratio (y) = 0.41251 0.33576
# Poissons Ratio (z) = -0.01871 0.41792
#
# Static dielectric constant tensor:
#      x y z
#    x 1.752120 0.000000 0.082190 
#    y 0.000000 1.725970 0.000000 
#    z 0.082190 0.000000 1.777790 
# 
# From -- ./inp_files/142381.got.cif
#   From: 2010.05.17/outbox.cif.g08.bks.cpg/sg15_72_cif.got.tgz:142381.got - 2010.06.03 18:47:42.
