data_PCOD9284268
_publ_section_title
;
Structure prediction by ZEFSAII (Michael W. Deem and Ramdas Pophale) SiO2 
 PCOD9284268
Probable space group: C 2/C
;
_chemical_formula_sum "Si O2"
_cell_formula_units_Z 48
_cell_length_a 21.315168
_cell_length_b 9.830432
_cell_length_c 9.684078
_cell_angle_alpha 90.000000
_cell_angle_beta 66.534509
_cell_angle_gamma 90.000000
_cell_volume 1861.362972
_symmetry_space_group_name_H-M "C 2/C"
_symmetry_group_IT_number 15
_symmetry_cell_setting 'monoclinic'
loop_
_space_group_symop_operation_xyz
x,y,z
-x,y,1/2-z
-x,-y,-z
x,-y,1/2+z
1/2+x,1/2+y,z
1/2-x,1/2+y,1/2-z
1/2-x,1/2-y,-z
1/2+x,1/2-y,1/2+z
loop_
_atom_site_type_symbol
_atom_site_label
_atom_site_fract_x
_atom_site_fract_y
_atom_site_fract_z
Si Si1 0.185596 0.951942 0.045842
Si Si2 0.337604 0.269826 0.822727
Si Si3 0.530828 0.097170 0.098781
Si Si4 0.213741 0.272446 0.721004
Si Si5 0.945652 0.117606 0.022064
Si Si6 0.389083 0.000938 0.198147
O O1 0.187671 0.874184 0.191460
O O2 0.187368 0.114626 0.049858
O O3 0.249862 0.875333 0.921075
O O4 0.115835 0.917600 0.027966
O O5 0.274229 0.259919 0.775163
O O6 0.406282 0.337560 0.696426
O O7 0.358427 0.114180 0.827842
O O8 0.515563 0.253963 0.077022
O O9 0.605452 0.084210 0.951089
O O10 0.552343 0.062804 0.244092
O O11 0.500000 0.000000 0.000000
O O12 0.149374 0.364093 0.815833
O O13 0.000000 0.000000 0.000000
#
# Coordination Sequence:
#
# PCOD9284268 Si02
#       6
#     8   8   8   8   8   8
#     4  10  22  41  66  96 131 177 219 267 339 395
#     4  10  22  40  59  97 130 162 222 278 324 382
#     4  10  22  42  64  88 124 177 217 255 331 401
#     4  10  21  40  68  93 131 179 217 265 332 409
#     4  10  23  39  63  94 127 171 225 271 324 392
#     4  10  22  41  61  93 127 165 215 269 318 391
#
# _framework density 25.787555999999999
#
# number of rings (size 3 to 8) (size 9 to 14) (size 15 to 20)
#    0.000    2.000    0.000    2.000    4.667    4.667 
#    9.000    0.000    0.000    0.000    0.000    0.000 
#    0.000    0.000    0.000    0.000    0.000    0.000 
#
# Total GULP energy -133903.648455 kJ/mol
# GULP energy per Si atom -5579.318686 kJ/mol
# Density = 2.572886 g / cm^3
# Si number density = 25.787556 Si / 1000 Ang^3
#
#
#
# Elastic Constant Matrix: (Units=GPa)
#
#
# Indices 1 2 3 4 5 6 
#
# 1 100.6021 44.0213 8.9025 0.0000 2.9958 0.0000
# 2 44.0213 170.4339 42.4911 0.0000 1.4137 0.0000
# 3 8.9025 42.4911 117.9493 0.0000 -8.1628 0.0000
# 4 0.0000 0.0000 0.0000 38.9777 0.0000 -9.7971
# 5 2.9958 1.4137 -8.1628 0.0000 19.6896 0.0000
# 6 0.0000 0.0000 0.0000 -9.7971 0.0000 47.8897
#
#
#
# Elastic Compliance Matrix: (Units=1/GPa)
#
#
# Indices 1 2 3 4 5 6 
#
# 1 0.011252 -0.002919 0.000101 0.000000 -0.001460 0.000000
# 2 -0.002919 0.007245 -0.002466 0.000000 -0.001098 0.000000
# 3 0.000101 -0.002466 0.009647 0.000000 0.004161 0.000000
# 4 0.000000 0.000000 0.000000 0.027046 0.000000 0.005533
# 5 -0.001460 -0.001098 0.004161 0.000000 0.052814 0.000000
# 6 0.000000 0.000000 0.000000 0.005533 0.000000 0.022013
#
#
# Mechanical properties :
#
#
# Convention : Reuss Voigt Hill
#
# Bulk Modulus (GPa) = 56.89389 64.42390 60.65889
# Shear Modulus (GPa) = 34.14249 40.88273 37.51261
#
# Velocity S-wave (km/s) = 3.64262 3.98599 3.81816
# Velocity P-wave (km/s) = 6.30888 6.79860 6.55831
#
# Compressibility (1/GPa) = 0.01757658
#
# Stress axis : x y z
#
# Youngs Moduli (GPa) = 88.87171 138.02042 103.66104
#
# Poissons Ratio (x) = 0.40295 -0.01051
# Poissons Ratio (y) = 0.25946 0.25560
# Poissons Ratio (z) = -0.00901 0.34033
#
# Static dielectric constant tensor:
#      x y z
#    x 1.669000 0.000000 0.179230 
#    y 0.000000 1.941850 0.000000 
#    z 0.179230 0.000000 1.988920 
# 
# From -- ./inp_files/116270.got.cif
#   From: 2010.05.17/outbox.cif.g08.bks.cpg/sg15_59_cif.got.tgz:116270.got - 2010.06.03 18:47:42.
