data_PCOD9284927
_publ_section_title
;
Structure prediction by ZEFSAII (Michael W. Deem and Ramdas Pophale) SiO2 
 PCOD9284927
Probable space group: C 2/C
;
_chemical_formula_sum "Si O2"
_cell_formula_units_Z 60
_cell_length_a 11.830239
_cell_length_b 14.741519
_cell_length_c 18.723128
_cell_angle_alpha 90.000000
_cell_angle_beta 72.213891
_cell_angle_gamma 90.000000
_cell_volume 3109.166109
_symmetry_space_group_name_H-M "C 2/C"
_symmetry_group_IT_number 15
_symmetry_cell_setting 'monoclinic'
loop_
_space_group_symop_operation_xyz
x,y,z
-x,y,1/2-z
-x,-y,-z
x,-y,1/2+z
1/2+x,1/2+y,z
1/2-x,1/2+y,1/2-z
1/2-x,1/2-y,-z
1/2+x,1/2-y,1/2+z
loop_
_atom_site_type_symbol
_atom_site_label
_atom_site_fract_x
_atom_site_fract_y
_atom_site_fract_z
Si Si1 0.620403 0.644705 0.566006
Si Si2 0.248096 0.007772 0.129335
Si Si3 0.729424 0.702183 0.398511
Si Si4 0.500000 0.072928 0.750000
Si Si5 0.548696 0.860991 0.395547
Si Si6 0.286752 0.146425 0.004225
Si Si7 0.403673 0.440080 0.062045
Si Si8 0.255302 0.962592 0.794318
O O1 0.653096 0.556822 0.607311
O O2 0.693158 0.646189 0.476892
O O3 0.662378 0.733212 0.600024
O O4 0.482549 0.644017 0.573444
O O5 0.226237 0.027192 0.216560
O O6 0.368095 0.946976 0.101606
O O7 0.260871 0.102120 0.085664
O O8 0.621864 0.770630 0.400865
O O9 0.759146 0.637810 0.326839
O O10 0.478340 0.131914 0.683462
O O11 0.382154 0.011619 0.782651
O O12 0.424794 0.864311 0.459995
O O13 0.204740 0.089142 0.966205
O O14 0.250000 0.250000 0.000000
O O15 0.347933 0.490066 0.140124
O O16 0.500000 0.500000 0.000000
#
# Coordination Sequence:
#
# PCOD9284927 Si02
#       8
#     8   8   8   4   8   8   8   8
#     4  10  21  41  65  96 126 169 215 258 323 381
#     4  10  23  43  64  95 129 174 218 257 336 385
#     4  10  21  41  69  95 125 166 219 273 314 371
#     4  10  22  44  62  94 128 178 212 258 332 388
#     4  10  22  41  67  92 130 172 215 268 328 380
#     4  12  24  40  64  98 129 170 219 274 312 389
#     4  12  22  42  69  91 130 172 215 259 326 384
#     4  11  23  43  68  94 129 173 213 270 322 390
#
# _framework density 19.297778000000001
#
# number of rings (size 3 to 8) (size 9 to 14) (size 15 to 20)
#    0.000    1.333    4.000    1.200    0.000    1.600 
#   14.400    0.000    0.000    0.000    0.000    0.000 
#    0.000    0.000    0.000    0.000    0.000    0.000 
#
# Total GULP energy -167547.578124 kJ/mol
# GULP energy per Si atom -5584.919271 kJ/mol
# Density = 1.925386 g / cm^3
# Si number density = 19.297778 Si / 1000 Ang^3
#
#
#
# Elastic Constant Matrix: (Units=GPa)
#
#
# Indices 1 2 3 4 5 6 
#
# 1 82.9208 17.3032 45.6067 0.0000 2.2584 0.0000
# 2 17.3032 86.2684 65.1210 0.0000 5.4237 0.0000
# 3 45.6067 65.1210 139.0690 0.0000 8.2047 0.0000
# 4 0.0000 0.0000 0.0000 29.0128 0.0000 5.3120
# 5 2.2584 5.4237 8.2047 0.0000 35.8429 0.0000
# 6 0.0000 0.0000 0.0000 5.3120 0.0000 21.3092
#
#
#
# Elastic Compliance Matrix: (Units=1/GPa)
#
#
# Indices 1 2 3 4 5 6 
#
# 1 0.014778 0.001070 -0.005355 0.000000 0.000133 0.000000
# 2 0.001070 0.018030 -0.008747 0.000000 -0.000793 0.000000
# 3 -0.005355 -0.008747 0.013122 0.000000 -0.001343 0.000000
# 4 0.000000 0.000000 0.000000 0.036116 0.000000 -0.009003
# 5 0.000133 -0.000793 -0.001343 0.000000 0.028319 0.000000
# 6 0.000000 0.000000 0.000000 -0.009003 0.000000 0.049172
#
#
# Mechanical properties :
#
#
# Convention : Reuss Voigt Hill
#
# Bulk Modulus (GPa) = 50.33783 62.70223 56.52003
# Shear Modulus (GPa) = 26.01153 29.24814 27.62984
#
# Velocity S-wave (km/s) = 3.67536 3.89732 3.78797
# Velocity P-wave (km/s) = 6.64473 7.26737 6.96301
#
# Compressibility (1/GPa) = 0.01986577
#
# Stress axis : x y z
#
# Youngs Moduli (GPa) = 67.66710 55.46444 76.20844
#
# Poissons Ratio (x) = -0.05935 0.40812
# Poissons Ratio (y) = -0.07241 0.66657
# Poissons Ratio (z) = 0.36238 0.48513
#
# Static dielectric constant tensor:
#      x y z
#    x 1.677970 0.000000 0.018860 
#    y 0.000000 1.695860 0.000000 
#    z 0.018860 0.000000 1.652410 
# 
# From -- ./inp_files/198276.got.cif
#   From: 2010.05.17/outbox.cif.g08.bks.cpg/sg15_100_cif.got.tgz:198276.got - 2010.06.03 18:47:42.
