data_PCOD9284623
_publ_section_title
;
Structure prediction by ZEFSAII (Michael W. Deem and Ramdas Pophale) SiO2 
 PCOD9284623
Probable space group: C 2/C
;
_chemical_formula_sum "Si O2"
_cell_formula_units_Z 32
_cell_length_a 30.695247
_cell_length_b 7.211628
_cell_length_c 14.191298
_cell_angle_alpha 90.000000
_cell_angle_beta 154.711907
_cell_angle_gamma 90.000000
_cell_volume 1341.922033
_symmetry_space_group_name_H-M "C 2/C"
_symmetry_group_IT_number 15
_symmetry_cell_setting 'monoclinic'
loop_
_space_group_symop_operation_xyz
x,y,z
-x,y,1/2-z
-x,-y,-z
x,-y,1/2+z
1/2+x,1/2+y,z
1/2-x,1/2+y,1/2-z
1/2-x,1/2-y,-z
1/2+x,1/2-y,1/2+z
loop_
_atom_site_type_symbol
_atom_site_label
_atom_site_fract_x
_atom_site_fract_y
_atom_site_fract_z
Si Si1 0.844249 0.489950 0.998783
Si Si2 0.941230 0.491387 0.494944
Si Si3 0.864013 0.217601 0.186799
Si Si4 0.165215 0.854090 0.271684
O O1 0.859289 0.534764 0.919206
O O2 0.948355 0.569784 0.249727
O O3 0.860927 0.279258 0.071386
O O4 0.736641 0.559097 0.828986
O O5 0.917843 0.709089 0.428311
O O6 0.080881 0.630999 0.639266
O O7 0.885189 0.010014 0.260857
O O8 0.750000 0.250000 0.000000
O O9 0.250000 0.750000 0.500000
#
# Coordination Sequence:
#
# PCOD9284623 Si02
#       4
#     8   8   8   8
#     4  10  24  42  64  92 130 164 208 265 309 377
#     4  11  23  44  62  94 129 163 210 263 313 370
#     4  10  21  41  62  95 122 164 212 253 313 379
#     4  11  23  39  66  90 123 171 204 256 322 364
#
# _framework density 23.846392000000002
#
# number of rings (size 3 to 8) (size 9 to 14) (size 15 to 20)
#    0.000    1.500    5.000    0.750    7.000    1.000 
#    0.000    2.500    0.000    0.000    0.000    0.000 
#    0.000    0.000    0.000    0.000    0.000    0.000 
#
# Total GULP energy -89196.992409 kJ/mol
# GULP energy per Si atom -5574.812026 kJ/mol
# Density = 2.379212 g / cm^3
# Si number density = 23.846392 Si / 1000 Ang^3
#
#
#
# Elastic Constant Matrix: (Units=GPa)
#
#
# Indices 1 2 3 4 5 6 
#
# 1 130.6919 17.3455 4.5507 0.0000 6.2652 0.0000
# 2 17.3455 109.1136 24.3867 0.0000 -1.3628 0.0000
# 3 4.5507 24.3867 74.5001 0.0000 17.8108 0.0000
# 4 0.0000 0.0000 0.0000 32.5969 0.0000 7.4853
# 5 6.2652 -1.3628 17.8108 0.0000 31.7884 0.0000
# 6 0.0000 0.0000 0.0000 7.4853 0.0000 27.9286
#
#
#
# Elastic Compliance Matrix: (Units=1/GPa)
#
#
# Indices 1 2 3 4 5 6 
#
# 1 0.007908 -0.001371 0.000407 0.000000 -0.001845 0.000000
# 2 -0.001371 0.010313 -0.003998 0.000000 0.002952 0.000000
# 3 0.000407 -0.003998 0.017051 0.000000 -0.009805 0.000000
# 4 0.000000 0.000000 0.000000 0.032690 0.000000 -0.008761
# 5 -0.001845 0.002952 -0.009805 0.000000 0.037442 0.000000
# 6 0.000000 0.000000 0.000000 -0.008761 0.000000 0.038154
#
#
# Mechanical properties :
#
#
# Convention : Reuss Voigt Hill
#
# Bulk Modulus (GPa) = 39.45166 45.20793 42.32979
# Shear Modulus (GPa) = 30.87745 36.33095 33.60420
#
# Velocity S-wave (km/s) = 3.60230 3.90749 3.75800
# Velocity P-wave (km/s) = 5.82083 6.27352 6.05141
#
# Compressibility (1/GPa) = 0.02534748
#
# Stress axis : x y z
#
# Youngs Moduli (GPa) = 126.45665 96.96378 58.64859
#
# Poissons Ratio (x) = 0.13295 -0.02387
# Poissons Ratio (y) = 0.17338 0.23447
# Poissons Ratio (z) = -0.05146 0.38766
#
# Static dielectric constant tensor:
#      x y z
#    x 2.043300 0.000000 0.099910 
#    y 0.000000 2.225910 0.000000 
#    z 0.099910 0.000000 1.952770 
# 
# From -- ./inp_files/180630.got.cif
#   From: 2010.05.17/outbox.cif.g08.bks.cpg/sg15_91_cif.got.tgz:180630.got - 2010.06.03 18:47:42.
