data_PCOD9284168
_publ_section_title
;
Structure prediction by ZEFSAII (Michael W. Deem and Ramdas Pophale) SiO2 
 PCOD9284168
Probable space group: C 2/C
;
_chemical_formula_sum "Si O2"
_cell_formula_units_Z 52
_cell_length_a 16.135047
_cell_length_b 5.539591
_cell_length_c 21.675441
_cell_angle_alpha 90.000000
_cell_angle_beta 95.011815
_cell_angle_gamma 90.000000
_cell_volume 1929.977561
_symmetry_space_group_name_H-M "C 2/C"
_symmetry_group_IT_number 15
_symmetry_cell_setting 'monoclinic'
loop_
_space_group_symop_operation_xyz
x,y,z
-x,y,1/2-z
-x,-y,-z
x,-y,1/2+z
1/2+x,1/2+y,z
1/2-x,1/2+y,1/2-z
1/2-x,1/2-y,-z
1/2+x,1/2-y,1/2+z
loop_
_atom_site_type_symbol
_atom_site_label
_atom_site_fract_x
_atom_site_fract_y
_atom_site_fract_z
Si Si1 0.500000 0.031096 0.750000
Si Si2 0.691031 0.756076 0.317072
Si Si3 0.680726 0.246116 0.050456
Si Si4 0.511293 0.250197 0.448551
Si Si5 0.323939 0.255292 0.955390
Si Si6 0.851251 0.243091 0.753404
Si Si7 0.451991 0.252136 0.618427
O O1 0.440154 0.835544 0.779453
O O2 0.479234 0.206210 0.691171
O O3 0.786041 0.742648 0.303696
O O4 0.655762 0.518694 0.277997
O O5 0.648794 0.733237 0.381248
O O6 0.667686 0.029563 0.293800
O O7 0.581093 0.249057 0.026727
O O8 0.688061 0.503027 0.083543
O O9 0.686036 0.988114 0.082880
O O10 0.750000 0.250000 0.000000
O O11 0.589730 0.259321 0.500783
O O12 0.517452 0.493731 0.407392
O O13 0.522352 0.996975 0.413322
O O14 0.250000 0.250000 0.000000
#
# Coordination Sequence:
#
# PCOD9284168 Si02
#       7
#     4   8   8   8   8   8   8
#     4  10  22  42  62  88 126 180 216 262 314 356
#     4   9  18  36  55  81 112 156 200 260 310 355
#     4  10  21  40  67  95 130 169 206 252 325 403
#     4  12  23  40  64  97 129 168 216 266 315 382
#     4  10  21  40  67  93 123 161 202 255 329 398
#     4   9  18  33  60  80 105 153 220 253 301 366
#     4  11  24  38  62  93 132 170 218 263 310 370
#
# _framework density 26.943321999999998
#
# number of rings (size 3 to 8) (size 9 to 14) (size 15 to 20)
#    0.000    1.846    0.000    4.615    0.000    5.538 
#    0.000    9.231    0.000   11.077    0.000    0.000 
#    0.000    0.000    0.000    0.000    0.000    0.000 
#
# Total GULP energy -145037.558058 kJ/mol
# GULP energy per Si atom -5578.367618 kJ/mol
# Density = 2.688200 g / cm^3
# Si number density = 26.943322 Si / 1000 Ang^3
#
#
#
# Elastic Constant Matrix: (Units=GPa)
#
#
# Indices 1 2 3 4 5 6 
#
# 1 145.5883 42.3063 38.7543 0.0000 -55.7001 0.0000
# 2 42.3063 307.7862 78.1333 0.0000 -8.9619 0.0000
# 3 38.7543 78.1333 113.8269 0.0000 0.6751 0.0000
# 4 0.0000 0.0000 0.0000 54.7862 0.0000 -13.6424
# 5 -55.7001 -8.9619 0.6751 0.0000 42.4004 0.0000
# 6 0.0000 0.0000 0.0000 -13.6424 0.0000 43.7883
#
#
#
# Elastic Compliance Matrix: (Units=1/GPa)
#
#
# Indices 1 2 3 4 5 6 
#
# 1 0.017074 -0.000222 -0.005794 0.000000 0.022475 0.000000
# 2 -0.000222 0.003970 -0.002653 0.000000 0.000590 0.000000
# 3 -0.005794 -0.002653 0.012629 0.000000 -0.008374 0.000000
# 4 0.000000 0.000000 0.000000 0.019788 0.000000 0.006165
# 5 0.022475 0.000590 -0.008374 0.000000 0.053368 0.000000
# 6 0.000000 0.000000 0.000000 0.006165 0.000000 0.024758
#
#
# Mechanical properties :
#
#
# Convention : Reuss Voigt Hill
#
# Bulk Modulus (GPa) = 61.21857 98.39882 79.80869
# Shear Modulus (GPa) = 32.38951 55.39546 43.89249
#
# Velocity S-wave (km/s) = 3.47094 4.53923 4.04055
# Velocity P-wave (km/s) = 6.23168 8.00455 7.17310
#
# Compressibility (1/GPa) = 0.01633491
#
# Stress axis : x y z
#
# Youngs Moduli (GPa) = 58.56766 251.87589 79.18258
#
# Poissons Ratio (x) = 0.05580 0.45882
# Poissons Ratio (y) = 0.01298 0.21010
# Poissons Ratio (z) = 0.33937 0.66831
#
# Static dielectric constant tensor:
#      x y z
#    x 2.469600 0.000000 0.195030 
#    y 0.000000 2.050930 0.000000 
#    z 0.195030 0.000000 2.140310 
# 
# From -- ./inp_files/297504.got.cif
#   From: 2010.05.17/outbox.cif.g08.bks.cpg/sg15_149_cif.got.tgz:297504.got - 2010.06.03 18:47:42.
