data_PCOD9284081
_publ_section_title
;
Structure prediction by ZEFSAII (Michael W. Deem and Ramdas Pophale) SiO2 
 PCOD9284081
Probable space group: C 2/C
;
_chemical_formula_sum "Si O2"
_cell_formula_units_Z 56
_cell_length_a 17.217652
_cell_length_b 9.417762
_cell_length_c 23.615854
_cell_angle_alpha 90.000000
_cell_angle_beta 127.544671
_cell_angle_gamma 90.000000
_cell_volume 3036.210792
_symmetry_space_group_name_H-M "C 2/C"
_symmetry_group_IT_number 15
_symmetry_cell_setting 'monoclinic'
loop_
_space_group_symop_operation_xyz
x,y,z
-x,y,1/2-z
-x,-y,-z
x,-y,1/2+z
1/2+x,1/2+y,z
1/2-x,1/2+y,1/2-z
1/2-x,1/2-y,-z
1/2+x,1/2-y,1/2+z
loop_
_atom_site_type_symbol
_atom_site_label
_atom_site_fract_x
_atom_site_fract_y
_atom_site_fract_z
Si Si1 0.756457 0.843727 0.324955
Si Si2 0.225205 0.326402 0.929713
Si Si3 0.459542 0.649104 0.123502
Si Si4 0.105712 0.953384 0.025014
Si Si5 0.392018 0.414202 0.185645
Si Si6 0.181415 0.928926 0.735499
Si Si7 0.084057 0.566781 0.830403
O O1 0.847910 0.849118 0.407882
O O2 0.745031 0.704815 0.282424
O O3 0.663092 0.861490 0.323662
O O4 0.765990 0.977277 0.287860
O O5 0.320534 0.412146 0.949614
O O6 0.180960 0.203626 0.870561
O O7 0.139373 0.445730 0.890729
O O8 0.250000 0.250000 0.000000
O O9 0.415879 0.537595 0.150119
O O10 0.574426 0.617315 0.165792
O O11 0.451910 0.806818 0.145167
O O12 0.404357 0.621984 0.040210
O O13 0.000000 0.000000 0.000000
O O14 0.500000 0.355909 0.250000
O O15 0.343407 0.482595 0.219183
O O16 0.000000 0.514017 0.750000
#
# Coordination Sequence:
#
# PCOD9284081 Si02
#       7
#     8   8   8   8   8   8   8
#     4  11  24  40  66  97 127 171 219 267 323 391
#     4  11  24  40  63  96 129 163 216 266 322 385
#     4  11  20  43  70  88 130 175 212 263 328 394
#     4  11  24  42  63  92 133 172 213 266 330 387
#     4  10  21  40  66  95 125 171 215 262 325 391
#     4  11  23  40  65  95 131 168 217 265 325 392
#     4  11  22  42  67  98 126 164 224 268 316 387
#
# _framework density 18.444042
#
# number of rings (size 3 to 8) (size 9 to 14) (size 15 to 20)
#    0.000    1.143    5.714    0.857    4.000    3.429 
#    2.571    0.000    0.000    2.571    0.000    0.000 
#    0.000    0.000    0.000    0.000    0.000    0.000 
#
# Total GULP energy -156338.950998 kJ/mol
# GULP energy per Si atom -5583.533964 kJ/mol
# Density = 1.840206 g / cm^3
# Si number density = 18.444042 Si / 1000 Ang^3
#
#
#
# Elastic Constant Matrix: (Units=GPa)
#
#
# Indices 1 2 3 4 5 6 
#
# 1 35.7572 13.7693 16.5897 0.0000 6.1162 0.0000
# 2 13.7693 101.6287 59.0552 0.0000 4.2793 0.0000
# 3 16.5897 59.0552 143.1765 0.0000 2.0972 0.0000
# 4 0.0000 0.0000 0.0000 34.2453 0.0000 2.1593
# 5 6.1162 4.2793 2.0972 0.0000 31.6269 0.0000
# 6 0.0000 0.0000 0.0000 2.1593 0.0000 17.1387
#
#
#
# Elastic Compliance Matrix: (Units=1/GPa)
#
#
# Indices 1 2 3 4 5 6 
#
# 1 0.031028 -0.002539 -0.002468 0.000000 -0.005493 0.000000
# 2 -0.002539 0.013211 -0.005141 0.000000 -0.000956 0.000000
# 3 -0.002468 -0.005141 0.009383 0.000000 0.000551 0.000000
# 4 0.000000 0.000000 0.000000 0.029435 0.000000 -0.003708
# 5 -0.005493 -0.000956 0.000551 0.000000 0.032774 0.000000
# 6 0.000000 0.000000 0.000000 -0.003708 0.000000 0.058815
#
#
# Mechanical properties :
#
#
# Convention : Reuss Voigt Hill
#
# Bulk Modulus (GPa) = 30.00504 51.04343 40.52423
# Shear Modulus (GPa) = 24.26597 29.34540 26.80568
#
# Velocity S-wave (km/s) = 3.63113 3.99312 3.81642
# Velocity P-wave (km/s) = 5.82096 6.99963 6.43733
#
# Compressibility (1/GPa) = 0.03332773
#
# Stress axis : x y z
#
# Youngs Moduli (GPa) = 32.22849 75.69243 106.57857
#
# Poissons Ratio (x) = 0.19216 0.26300
# Poissons Ratio (y) = 0.08182 0.54793
# Poissons Ratio (z) = 0.07953 0.38914
#
# Static dielectric constant tensor:
#      x y z
#    x 1.608220 0.000000 0.015330 
#    y 0.000000 1.625330 0.000000 
#    z 0.015330 0.000000 1.654520 
# 
# From -- ./inp_files/276636.got.cif
#   From: 2010.05.17/outbox.cif.g08.bks.cpg/sg15_139_cif.got.tgz:276636.got - 2010.06.03 18:47:42.
