data_PCOD9284459
_publ_section_title
;
Structure prediction by ZEFSAII (Michael W. Deem and Ramdas Pophale) SiO2 
 PCOD9284459
Probable space group: C 2/C
;
_chemical_formula_sum "Si O2"
_cell_formula_units_Z 36
_cell_length_a 20.971480
_cell_length_b 8.025849
_cell_length_c 8.431135
_cell_angle_alpha 90.000000
_cell_angle_beta 75.759350
_cell_angle_gamma 90.000000
_cell_volume 1375.470743
_symmetry_space_group_name_H-M "C 2/C"
_symmetry_group_IT_number 15
_symmetry_cell_setting 'monoclinic'
loop_
_space_group_symop_operation_xyz
x,y,z
-x,y,1/2-z
-x,-y,-z
x,-y,1/2+z
1/2+x,1/2+y,z
1/2-x,1/2+y,1/2-z
1/2-x,1/2-y,-z
1/2+x,1/2-y,1/2+z
loop_
_atom_site_type_symbol
_atom_site_label
_atom_site_fract_x
_atom_site_fract_y
_atom_site_fract_z
Si Si1 0.301329 0.147734 0.073420
Si Si2 0.000000 0.948925 0.250000
Si Si3 0.673784 0.804145 0.585062
Si Si4 0.922032 0.578252 0.806942
Si Si5 0.587800 0.658276 0.424486
O O1 0.295151 0.201660 0.259404
O O2 0.250000 0.250000 0.000000
O O3 0.377459 0.171545 0.966499
O O4 0.290544 0.951652 0.036347
O O5 0.972605 0.854449 0.418250
O O6 0.938603 0.052963 0.210418
O O7 0.653354 0.643517 0.492858
O O8 0.603705 0.891445 0.671357
O O9 0.900213 0.661137 0.656999
O O10 0.000000 0.591566 0.750000
#
# Coordination Sequence:
#
# PCOD9284459 Si02
#       5
#     8   4   8   8   8
#     4  10  23  44  68 106 140 182 238 295 364 423
#     4  10  26  38  62  94 164 194 218 290 364 422
#     4  10  22  41  73 101 136 184 238 293 353 431
#     4  10  21  40  73 110 138 174 234 300 361 424
#     4  11  22  43  62 102 149 183 237 278 360 429
#
# _framework density 26.17286
#
# number of rings (size 3 to 8) (size 9 to 14) (size 15 to 20)
#    1.333    0.444    3.333    0.000    4.667    1.778 
#    0.000   11.111    0.000    0.000    0.000    0.000 
#    0.000    0.000    0.000    0.000    0.000    0.000 
#
# Total GULP energy -100258.256458 kJ/mol
# GULP energy per Si atom -5569.903137 kJ/mol
# Density = 2.611329 g / cm^3
# Si number density = 26.172860 Si / 1000 Ang^3
#
#
#
# Elastic Constant Matrix: (Units=GPa)
#
#
# Indices 1 2 3 4 5 6 
#
# 1 151.8450 32.4452 53.5186 0.0000 4.5825 0.0000
# 2 32.4452 39.9072 41.2310 0.0000 5.4549 0.0000
# 3 53.5186 41.2310 134.1002 0.0000 23.4325 0.0000
# 4 0.0000 0.0000 0.0000 23.3652 0.0000 -8.5710
# 5 4.5825 5.4549 23.4325 0.0000 65.2318 0.0000
# 6 0.0000 0.0000 0.0000 -8.5710 0.0000 41.3012
#
#
#
# Elastic Compliance Matrix: (Units=1/GPa)
#
#
# Indices 1 2 3 4 5 6 
#
# 1 0.008274 -0.004826 -0.001907 0.000000 0.000507 0.000000
# 2 -0.004826 0.039607 -0.010384 0.000000 0.000757 0.000000
# 3 -0.001907 -0.010384 0.011988 0.000000 -0.003304 0.000000
# 4 0.000000 0.000000 0.000000 0.046325 0.000000 0.009614
# 5 0.000507 0.000757 -0.003304 0.000000 0.016418 0.000000
# 6 0.000000 0.000000 0.000000 0.009614 0.000000 0.026207
#
#
# Mechanical properties :
#
#
# Convention : Reuss Voigt Hill
#
# Bulk Modulus (GPa) = 39.00898 64.47135 51.74016
# Shear Modulus (GPa) = 26.09646 39.22348 32.65997
#
# Velocity S-wave (km/s) = 3.16108 3.87542 3.53633
# Velocity P-wave (km/s) = 5.31601 6.68667 6.04034
#
# Compressibility (1/GPa) = 0.02563512
#
# Stress axis : x y z
#
# Youngs Moduli (GPa) = 120.86683 25.24837 83.41578
#
# Poissons Ratio (x) = 0.12184 0.15906
# Poissons Ratio (y) = 0.58328 0.86618
# Poissons Ratio (z) = 0.23047 0.26218
#
# Static dielectric constant tensor:
#      x y z
#    x 2.180490 0.000000 0.044960 
#    y 0.000000 2.195390 0.000000 
#    z 0.044960 0.000000 2.043900 
# 
# From -- ./inp_files/59753.got.cif
#   From: 2010.05.17/outbox.cif.g08.bks.cpg/sg15_30_cif.got.tgz:59753.got - 2010.06.03 18:47:42.
