data_PCOD9284464
_publ_section_title
;
Structure prediction by ZEFSAII (Michael W. Deem and Ramdas Pophale) SiO2 
 PCOD9284464
Probable space group: C 2/C
;
_chemical_formula_sum "Si O2"
_cell_formula_units_Z 52
_cell_length_a 12.003899
_cell_length_b 23.657026
_cell_length_c 12.028252
_cell_angle_alpha 90.000000
_cell_angle_beta 42.253298
_cell_angle_gamma 90.000000
_cell_volume 2296.776750
_symmetry_space_group_name_H-M "C 2/C"
_symmetry_group_IT_number 15
_symmetry_cell_setting 'monoclinic'
loop_
_space_group_symop_operation_xyz
x,y,z
-x,y,1/2-z
-x,-y,-z
x,-y,1/2+z
1/2+x,1/2+y,z
1/2-x,1/2+y,1/2-z
1/2-x,1/2-y,-z
1/2+x,1/2-y,1/2+z
loop_
_atom_site_type_symbol
_atom_site_label
_atom_site_fract_x
_atom_site_fract_y
_atom_site_fract_z
Si Si1 0.811211 0.580149 0.405511
Si Si2 0.313120 0.172651 0.904224
Si Si3 0.500000 0.646609 0.750000
Si Si4 0.240341 0.043485 0.997799
Si Si5 0.402638 0.430010 0.659629
Si Si6 0.919982 0.226767 0.601790
Si Si7 0.675026 0.304106 0.744790
O O1 0.668356 0.610737 0.590138
O O2 0.836111 0.515032 0.423033
O O3 0.714881 0.572591 0.359585
O O4 0.000000 0.604360 0.250000
O O5 0.500000 0.192708 0.750000
O O6 0.318983 0.104867 0.918477
O O7 0.217441 0.191547 0.865211
O O8 0.220305 0.198141 0.081276
O O9 0.468055 0.688439 0.669854
O O10 0.177189 0.044517 0.171181
O O11 0.085857 0.043463 0.024049
O O12 0.415831 0.363680 0.677407
O O13 0.850288 0.289752 0.674426
O O14 0.062255 0.234107 0.406306
#
# Coordination Sequence:
#
# PCOD9284464 Si02
#       7
#     8   8   4   8   8   8   8
#     4  12  26  45  72 109 144 189 239 289 351 433
#     4  11  22  40  69 105 141 174 229 304 356 422
#     4  12  28  50  70 100 150 200 238 290 356 422
#     4  10  21  40  74 102 139 185 228 287 367 414
#     4  10  21  44  68  99 144 183 226 298 349 425
#     4  12  25  45  69 100 136 189 240 291 354 431
#     4  11  23  43  68  98 133 182 240 293 356 410
#
# _framework density 22.640425
#
# number of rings (size 3 to 8) (size 9 to 14) (size 15 to 20)
#    0.000    0.923    3.077    3.692    0.000    6.154 
#    1.385    0.000    0.000    0.000    0.000    0.000 
#    0.000    0.000    0.000    0.000    0.000    0.000 
#
# Total GULP energy -144764.113286 kJ/mol
# GULP energy per Si atom -5567.850511 kJ/mol
# Density = 2.258889 g / cm^3
# Si number density = 22.640425 Si / 1000 Ang^3
#
#
#
# Elastic Constant Matrix: (Units=GPa)
#
#
# Indices 1 2 3 4 5 6 
#
# 1 94.4057 21.5518 70.4824 0.0000 11.5939 0.0000
# 2 21.5518 72.4359 33.8105 0.0000 6.5492 0.0000
# 3 70.4824 33.8105 142.3198 0.0000 -15.4605 0.0000
# 4 0.0000 0.0000 0.0000 17.8624 0.0000 -4.8851
# 5 11.5939 6.5492 -15.4605 0.0000 23.5464 0.0000
# 6 0.0000 0.0000 0.0000 -4.8851 0.0000 28.0763
#
#
#
# Elastic Compliance Matrix: (Units=1/GPa)
#
#
# Indices 1 2 3 4 5 6 
#
# 1 0.023664 0.001664 -0.014462 0.000000 -0.021610 0.000000
# 2 0.001664 0.016888 -0.005853 0.000000 -0.009359 0.000000
# 3 -0.014462 -0.005853 0.017799 0.000000 0.020436 0.000000
# 4 0.000000 0.000000 0.000000 0.058781 0.000000 0.010227
# 5 -0.021610 -0.009359 0.020436 0.000000 0.069131 0.000000
# 6 0.000000 0.000000 0.000000 0.010227 0.000000 0.037397
#
#
# Mechanical properties :
#
#
# Convention : Reuss Voigt Hill
#
# Bulk Modulus (GPa) = 47.50847 62.31677 54.91262
# Shear Modulus (GPa) = 18.65814 26.11813 22.38813
#
# Velocity S-wave (km/s) = 2.87384 3.40016 3.14802
# Velocity P-wave (km/s) = 5.66051 6.55737 6.12538
#
# Compressibility (1/GPa) = 0.02104888
#
# Stress axis : x y z
#
# Youngs Moduli (GPa) = 42.25805 59.21219 56.18255
#
# Poissons Ratio (x) = -0.09851 0.81253
# Poissons Ratio (y) = -0.07030 0.32882
# Poissons Ratio (z) = 0.61115 0.34655
#
# Static dielectric constant tensor:
#      x y z
#    x 1.881400 0.000000 -0.070210 
#    y 0.000000 1.945110 0.000000 
#    z -0.070210 0.000000 1.931980 
# 
# From -- ./inp_files/92559.got.cif
#   From: 2010.05.17/outbox.cif.g08.bks.cpg/sg15_47_cif.got.tgz:92559.got - 2010.06.03 18:47:42.
