data_PCOD9284155
_publ_section_title
;
Structure prediction by ZEFSAII (Michael W. Deem and Ramdas Pophale) SiO2 
 PCOD9284155
Probable space group: C 2/C
;
_chemical_formula_sum "Si O2"
_cell_formula_units_Z 48
_cell_length_a 13.583804
_cell_length_b 17.176857
_cell_length_c 18.396157
_cell_angle_alpha 90.000000
_cell_angle_beta 31.109576
_cell_angle_gamma 90.000000
_cell_volume 2217.741206
_symmetry_space_group_name_H-M "C 2/C"
_symmetry_group_IT_number 15
_symmetry_cell_setting 'monoclinic'
loop_
_space_group_symop_operation_xyz
x,y,z
-x,y,1/2-z
-x,-y,-z
x,-y,1/2+z
1/2+x,1/2+y,z
1/2-x,1/2+y,1/2-z
1/2-x,1/2-y,-z
1/2+x,1/2-y,1/2+z
loop_
_atom_site_type_symbol
_atom_site_label
_atom_site_fract_x
_atom_site_fract_y
_atom_site_fract_z
Si Si1 0.521858 0.222067 0.502292
Si Si2 0.215060 0.523728 0.086495
Si Si3 0.364737 0.172862 0.453760
Si Si4 0.044423 0.272189 0.298792
Si Si5 0.209285 0.877294 0.831040
Si Si6 0.528086 0.400464 0.649708
O O1 0.399787 0.178321 0.518056
O O2 0.738904 0.239211 0.341874
O O3 0.494558 0.186241 0.600087
O O4 0.436428 0.308334 0.562443
O O5 0.227361 0.594697 0.020348
O O6 0.317166 0.555656 0.093804
O O7 0.000000 0.510816 0.250000
O O8 0.310484 0.448822 0.992138
O O9 0.250000 0.250000 0.500000
O O10 0.583961 0.162520 0.288206
O O11 0.000000 0.311990 0.250000
O O12 0.924160 0.191496 0.376588
O O13 0.160807 0.908482 0.781265
O O14 0.500000 0.426860 0.750000
#
# Coordination Sequence:
#
# PCOD9284155 Si02
#       6
#     8   8   8   8   8   8
#     4  11  19  38  64  98 122 164 202 263 331 367
#     4  10  22  40  64  90 124 176 215 258 314 385
#     4  11  21  38  65  99 130 155 208 276 325 374
#     4  10  22  39  65  90 133 166 208 265 317 381
#     4  10  21  40  67  91 129 166 210 268 317 383
#     4  10  21  42  61  88 127 173 214 259 316 374
#
# _framework density 21.643643999999998
#
# number of rings (size 3 to 8) (size 9 to 14) (size 15 to 20)
#    0.000    1.667    5.000    1.000    0.000    0.000 
#    6.000   13.333    0.000    0.000    0.000    0.000 
#    0.000    0.000    0.000    0.000    0.000    0.000 
#
# Total GULP energy -133909.963312 kJ/mol
# GULP energy per Si atom -5579.581805 kJ/mol
# Density = 2.159438 g / cm^3
# Si number density = 21.643644 Si / 1000 Ang^3
#
#
#
# Elastic Constant Matrix: (Units=GPa)
#
#
# Indices 1 2 3 4 5 6 
#
# 1 160.2278 23.5090 50.0298 -0.0033 24.6161 0.0007
# 2 23.5090 70.1773 41.6743 -0.0045 -5.1104 0.0012
# 3 50.0298 41.6743 93.7867 -0.0026 14.3939 -0.0006
# 4 -0.0033 -0.0045 -0.0026 40.1383 0.0000 -0.8297
# 5 24.6161 -5.1104 14.3939 0.0000 40.4369 0.0006
# 6 0.0007 0.0012 -0.0006 -0.8297 0.0006 15.6502
#
#
#
# Elastic Compliance Matrix: (Units=1/GPa)
#
#
# Indices 1 2 3 4 5 6 
#
# 1 0.007988 -0.001057 -0.003199 0.000000 -0.003857 0.000000
# 2 -0.001057 0.020888 -0.009755 0.000002 0.006756 -0.000002
# 3 -0.003199 -0.009755 0.017553 0.000000 -0.005533 0.000002
# 4 0.000000 0.000002 0.000000 0.024941 0.000000 0.001322
# 5 -0.003857 0.006756 -0.005533 0.000000 0.029901 -0.000002
# 6 0.000000 -0.000002 0.000002 0.001322 -0.000002 0.063967
#
#
# Mechanical properties :
#
#
# Convention : Reuss Voigt Hill
#
# Bulk Modulus (GPa) = 54.32707 61.62423 57.97565
# Shear Modulus (GPa) = 25.07565 33.17701 29.12633
#
# Velocity S-wave (km/s) = 3.40747 3.91944 3.67239
# Velocity P-wave (km/s) = 6.37466 7.00119 6.69526
#
# Compressibility (1/GPa) = 0.01840703
#
# Stress axis : x y z
#
# Youngs Moduli (GPa) = 125.19149 47.87335 56.97022
#
# Poissons Ratio (x) = 0.05059 0.18227
# Poissons Ratio (y) = 0.13230 0.55574
# Poissons Ratio (z) = 0.40054 0.46700
#
# Static dielectric constant tensor:
#      x y z
#    x 1.899090 0.000000 0.039410 
#    y 0.000000 1.758860 0.000000 
#    z 0.039410 0.000000 1.852450 
# 
# From -- ./inp_files/67555.got.cif
#   From: 2010.05.17/outbox.cif.g08.bks.cpg/sg15_34_cif.got.tgz:67555.got - 2010.06.03 18:47:42.
