data_PCOD9284875
_publ_section_title
;
Structure prediction by ZEFSAII (Michael W. Deem and Ramdas Pophale) SiO2 
 PCOD9284875
Probable space group: C 2/C
;
_chemical_formula_sum "Si O2"
_cell_formula_units_Z 60
_cell_length_a 22.127187
_cell_length_b 7.425186
_cell_length_c 21.964189
_cell_angle_alpha 90.000000
_cell_angle_beta 47.015621
_cell_angle_gamma 90.000000
_cell_volume 2639.894454
_symmetry_space_group_name_H-M "C 2/C"
_symmetry_group_IT_number 15
_symmetry_cell_setting 'monoclinic'
loop_
_space_group_symop_operation_xyz
x,y,z
-x,y,1/2-z
-x,-y,-z
x,-y,1/2+z
1/2+x,1/2+y,z
1/2-x,1/2+y,1/2-z
1/2-x,1/2-y,-z
1/2+x,1/2-y,1/2+z
loop_
_atom_site_type_symbol
_atom_site_label
_atom_site_fract_x
_atom_site_fract_y
_atom_site_fract_z
Si Si1 0.136416 0.397852 0.598809
Si Si2 0.695093 0.555229 0.486114
Si Si3 0.147434 0.051491 0.824849
Si Si4 0.106523 0.615541 0.412798
Si Si5 0.221449 0.274897 0.344933
Si Si6 0.500000 0.709018 0.750000
Si Si7 0.495956 0.931656 0.399395
Si Si8 0.512864 0.551287 0.124969
O O1 0.215880 0.523705 0.555382
O O2 0.170364 0.206566 0.552310
O O3 0.078616 0.342932 0.694934
O O4 0.075326 0.469467 0.588875
O O5 0.717228 0.661458 0.409319
O O6 0.609970 0.444307 0.540442
O O7 0.157637 0.202720 0.869614
O O8 0.193085 0.135056 0.734881
O O9 0.049768 0.025039 0.882467
O O10 0.189156 0.864736 0.815856
O O11 0.159613 0.442279 0.393578
O O12 0.038842 0.639864 0.511771
O O13 0.066733 0.565338 0.374272
O O14 0.497711 0.577732 0.809679
O O15 0.518447 0.755945 0.344998
#
# Coordination Sequence:
#
# PCOD9284875 Si02
#       8
#     8   8   8   8   8   4   8   8
#     4  10  21  41  65  91 125 175 220 269 333 397
#     4  10  22  40  65  90 127 172 223 270 329 395
#     4  12  25  42  66  98 140 172 223 273 347 395
#     4  11  23  41  66 101 134 175 216 278 337 405
#     4  12  23  42  64 100 132 180 220 278 335 403
#     4  10  22  42  64  94 126 178 222 276 338 386
#     4  11  23  40  68  98 132 172 224 277 335 404
#     4  11  24  42  66  99 131 174 227 282 330 404
#
# _framework density 22.728179000000001
#
# number of rings (size 3 to 8) (size 9 to 14) (size 15 to 20)
#    0.000    1.067    4.000    3.200    1.867    2.133 
#    0.000    1.333    0.000    0.000    0.000    0.000 
#    0.000    0.000    0.000    0.000    0.000    0.000 
#
# Total GULP energy -167448.072954 kJ/mol
# GULP energy per Si atom -5581.602432 kJ/mol
# Density = 2.267645 g / cm^3
# Si number density = 22.728179 Si / 1000 Ang^3
#
#
#
# Elastic Constant Matrix: (Units=GPa)
#
#
# Indices 1 2 3 4 5 6 
#
# 1 75.0207 -1.8722 -0.2569 0.0000 -0.7547 0.0000
# 2 -1.8722 67.8745 -7.7818 0.0010 -4.9518 -0.0030
# 3 -0.2569 -7.7818 69.8993 -0.0004 1.4448 0.0006
# 4 0.0000 0.0010 -0.0004 27.5074 0.0002 2.4016
# 5 -0.7547 -4.9518 1.4448 0.0002 8.6650 -0.0007
# 6 0.0000 -0.0030 0.0006 2.4016 -0.0007 8.6956
#
#
#
# Elastic Compliance Matrix: (Units=1/GPa)
#
#
# Indices 1 2 3 4 5 6 
#
# 1 0.013356 0.000481 0.000073 0.000000 0.001426 0.000000
# 2 0.000481 0.015557 0.001554 -0.000001 0.008673 0.000006
# 3 0.000073 0.001554 0.014511 0.000000 -0.001525 -0.000001
# 4 0.000000 -0.000001 0.000000 0.037252 -0.000002 -0.010288
# 5 0.001426 0.008673 -0.001525 -0.000002 0.120742 0.000014
# 6 0.000000 0.000006 -0.000001 -0.010288 0.000014 0.117841
#
#
# Mechanical properties :
#
#
# Convention : Reuss Voigt Hill
#
# Bulk Modulus (GPa) = 20.99009 21.44143 21.21576
# Shear Modulus (GPa) = 15.10921 23.82062 19.46491
#
# Velocity S-wave (km/s) = 2.58113 3.24090 2.92964
# Velocity P-wave (km/s) = 4.25891 4.84344 4.56055
#
# Compressibility (1/GPa) = 0.04764153
#
# Stress axis : x y z
#
# Youngs Moduli (GPa) = 74.87137 64.27849 68.91255
#
# Poissons Ratio (x) = -0.03091 -0.00504
# Poissons Ratio (y) = -0.03600 -0.10712
# Poissons Ratio (z) = -0.00548 -0.09992
#
# Static dielectric constant tensor:
#      x y z
#    x 1.919440 0.000000 -0.029020 
#    y 0.000000 1.844360 0.000000 
#    z -0.029020 0.000000 1.882340 
# 
# From -- ./inp_files/252114.got.cif
#   From: 2010.05.17/outbox.cif.g08.bks.cpg/sg15_127_cif.got.tgz:252114.got - 2010.06.03 18:47:42.
