data_PCOD9284374
_publ_section_title
;
Structure prediction by ZEFSAII (Michael W. Deem and Ramdas Pophale) SiO2 
 PCOD9284374
Probable space group: C 2/C
;
_chemical_formula_sum "Si O2"
_cell_formula_units_Z 28
_cell_length_a 9.822327
_cell_length_b 23.787697
_cell_length_c 6.933843
_cell_angle_alpha 90.000000
_cell_angle_beta 134.490123
_cell_angle_gamma 90.000000
_cell_volume 1155.730042
_symmetry_space_group_name_H-M "C 2/C"
_symmetry_group_IT_number 15
_symmetry_cell_setting 'monoclinic'
loop_
_space_group_symop_operation_xyz
x,y,z
-x,y,1/2-z
-x,-y,-z
x,-y,1/2+z
1/2+x,1/2+y,z
1/2-x,1/2+y,1/2-z
1/2-x,1/2-y,-z
1/2+x,1/2-y,1/2+z
loop_
_atom_site_type_symbol
_atom_site_label
_atom_site_fract_x
_atom_site_fract_y
_atom_site_fract_z
Si Si1 0.500000 0.265519 0.250000
Si Si2 0.500000 0.925688 0.750000
Si Si3 0.812359 0.324045 0.772832
Si Si4 0.881902 0.054026 0.813578
Si Si5 0.500000 0.640318 0.250000
O O1 0.678801 0.305369 0.461321
O O2 0.532853 0.225557 0.095665
O O3 0.406708 0.883587 0.815960
O O4 0.330105 0.958662 0.475268
O O5 0.670097 0.327179 0.810669
O O6 0.000000 0.076648 0.750000
O O7 0.893862 0.100090 0.991253
O O8 0.000000 0.000000 0.000000
#
# Coordination Sequence:
#
# PCOD9284374 Si02
#       5
#     4   4   8   8   4
#     4   9  20  42  69 102 156 186 239 306 358 423
#     4  11  24  46  78 102 150 198 236 300 378 427
#     4  10  21  40  70 106 142 197 235 296 363 430
#     4  12  26  49  72 108 148 188 246 311 362 437
#     4  12  24  44  75 106 148 192 249 300 358 434
#
# _framework density 24.227112999999999
#
# number of rings (size 3 to 8) (size 9 to 14) (size 15 to 20)
#    0.000    1.143    4.286    1.714    0.000    3.429 
#    0.000    0.000    0.000    0.000    0.000    0.000 
#    0.000    0.000    0.000    0.000    0.000    0.000 
#
# Total GULP energy -78264.042449 kJ/mol
# GULP energy per Si atom -5590.288746 kJ/mol
# Density = 2.417197 g / cm^3
# Si number density = 24.227113 Si / 1000 Ang^3
#
#
#
# Elastic Constant Matrix: (Units=GPa)
#
#
# Indices 1 2 3 4 5 6 
#
# 1 181.6517 44.5263 32.4793 0.0000 6.3370 0.0000
# 2 44.5263 95.7714 46.5388 0.0000 5.9261 0.0000
# 3 32.4793 46.5388 151.9024 0.0000 25.4391 0.0000
# 4 0.0000 0.0000 0.0000 37.4522 0.0000 -1.8787
# 5 6.3370 5.9261 25.4391 0.0000 42.1639 0.0000
# 6 0.0000 0.0000 0.0000 -1.8787 0.0000 26.5565
#
#
#
# Elastic Compliance Matrix: (Units=1/GPa)
#
#
# Indices 1 2 3 4 5 6 
#
# 1 0.006251 -0.002658 -0.000476 0.000000 -0.000279 0.000000
# 2 -0.002658 0.013412 -0.003662 0.000000 0.000724 0.000000
# 3 -0.000476 -0.003662 0.008575 0.000000 -0.004587 0.000000
# 4 0.000000 0.000000 0.000000 0.026796 0.000000 0.001896
# 5 -0.000279 0.000724 -0.004587 0.000000 0.026425 0.000000
# 6 0.000000 0.000000 0.000000 0.001896 0.000000 0.037790
#
#
# Mechanical properties :
#
#
# Convention : Reuss Voigt Hill
#
# Bulk Modulus (GPa) = 68.27210 75.15714 71.71462
# Shear Modulus (GPa) = 36.30493 41.61993 38.96243
#
# Velocity S-wave (km/s) = 3.87528 4.14926 4.01461
# Velocity P-wave (km/s) = 6.94730 7.35149 7.15225
#
# Compressibility (1/GPa) = 0.01464727
#
# Stress axis : x y z
#
# Youngs Moduli (GPa) = 159.96564 74.56014 116.61739
#
# Poissons Ratio (x) = 0.19818 0.05546
# Poissons Ratio (y) = 0.42519 0.42705
# Poissons Ratio (z) = 0.07607 0.27304
#
# Static dielectric constant tensor:
#      x y z
#    x 1.973350 0.000000 0.053890 
#    y 0.000000 1.979450 0.000000 
#    z 0.053890 0.000000 2.041390 
# 
# From -- ./inp_files/31589.got.cif
#   From: 2010.05.17/outbox.cif.g08.bks.cpg/sg15_16_cif.got.tgz:31589.got - 2010.06.03 18:47:42.
