data_PCOD9284823
_publ_section_title
;
Structure prediction by ZEFSAII (Michael W. Deem and Ramdas Pophale) SiO2 
 PCOD9284823
Probable space group: C 2/C
;
_chemical_formula_sum "Si O2"
_cell_formula_units_Z 64
_cell_length_a 11.681582
_cell_length_b 12.711023
_cell_length_c 21.705255
_cell_angle_alpha 90.000000
_cell_angle_beta 103.739828
_cell_angle_gamma 90.000000
_cell_volume 3130.675953
_symmetry_space_group_name_H-M "C 2/C"
_symmetry_group_IT_number 15
_symmetry_cell_setting 'monoclinic'
loop_
_space_group_symop_operation_xyz
x,y,z
-x,y,1/2-z
-x,-y,-z
x,-y,1/2+z
1/2+x,1/2+y,z
1/2-x,1/2+y,1/2-z
1/2-x,1/2-y,-z
1/2+x,1/2-y,1/2+z
loop_
_atom_site_type_symbol
_atom_site_label
_atom_site_fract_x
_atom_site_fract_y
_atom_site_fract_z
Si Si1 0.982910 0.471368 0.817124
Si Si2 0.214668 0.457520 0.621450
Si Si3 0.641273 0.181385 0.558921
Si Si4 0.964755 0.291281 0.139677
Si Si5 0.186238 0.631320 0.425002
Si Si6 0.402410 0.524700 0.935437
Si Si7 0.490763 0.437565 0.677722
Si Si8 0.206989 0.755892 0.064149
O O1 0.850220 0.449231 0.821691
O O2 0.000000 0.438580 0.750000
O O3 0.003333 0.596741 0.827331
O O4 0.078053 0.411102 0.871252
O O5 0.178007 0.567739 0.588221
O O6 0.354283 0.451199 0.642156
O O7 0.165557 0.359860 0.576530
O O8 0.520309 0.210479 0.577813
O O9 0.738616 0.268758 0.589359
O O10 0.639225 0.168914 0.485414
O O11 0.016293 0.187856 0.179076
O O12 0.824468 0.280767 0.118740
O O13 0.283261 0.537305 0.440139
O O14 0.437825 0.489600 0.870313
O O15 0.381121 0.649234 0.935313
O O16 0.500000 0.500000 0.000000
O O17 0.500000 0.475557 0.750000
O O18 0.250000 0.750000 0.000000
#
# Coordination Sequence:
#
# PCOD9284823 Si02
#       8
#     8   8   8   8   8   8   8   8
#     4  11  25  42  65  93 135 178 229 271 335 405
#     4  10  25  42  62  97 130 174 217 279 325 404
#     4  10  22  41  66  97 133 167 222 275 346 397
#     4  10  21  41  64  97 128 180 220 277 325 408
#     4  11  23  40  68  98 131 174 219 283 341 400
#     4  12  24  43  69 100 136 174 228 282 339 403
#     4  11  24  43  68  96 136 180 228 274 339 403
#     4  11  23  39  67  97 134 168 225 272 342 391
#
# _framework density 20.442869999999999
#
# number of rings (size 3 to 8) (size 9 to 14) (size 15 to 20)
#    0.000    1.250    2.500    3.375    3.500    3.000 
#    0.000    2.500    0.000    0.000    0.000    0.000 
#    0.000    0.000    0.000    0.000    0.000    0.000 
#
# Total GULP energy -178766.011981 kJ/mol
# GULP energy per Si atom -5586.437874 kJ/mol
# Density = 2.039634 g / cm^3
# Si number density = 20.442870 Si / 1000 Ang^3
#
#
#
# Elastic Constant Matrix: (Units=GPa)
#
#
# Indices 1 2 3 4 5 6 
#
# 1 52.2183 -4.6856 6.8026 0.0000 -0.4109 0.0000
# 2 -4.6856 103.2538 8.8842 0.0000 1.1841 0.0000
# 3 6.8026 8.8842 65.6048 0.0000 -21.1246 0.0000
# 4 0.0000 0.0000 0.0000 13.9257 0.0000 -10.0487
# 5 -0.4109 1.1841 -21.1246 0.0000 24.2746 0.0000
# 6 0.0000 0.0000 0.0000 -10.0487 0.0000 25.7611
#
#
#
# Elastic Compliance Matrix: (Units=1/GPa)
#
#
# Indices 1 2 3 4 5 6 
#
# 1 0.019618 0.001168 -0.002923 0.000000 -0.002268 0.000000
# 2 0.001168 0.009959 -0.002250 0.000000 -0.002424 0.000000
# 3 -0.002923 -0.002250 0.022048 0.000000 0.019247 0.000000
# 4 0.000000 0.000000 0.000000 0.099940 0.000000 0.038984
# 5 -0.002268 -0.002424 0.019247 0.000000 0.058025 0.000000
# 6 0.000000 0.000000 0.000000 0.038984 0.000000 0.054025
#
#
# Mechanical properties :
#
#
# Convention : Reuss Voigt Hill
#
# Bulk Modulus (GPa) = 22.92811 27.00884 24.96847
# Shear Modulus (GPa) = 17.47249 26.79735 22.13492
#
# Velocity S-wave (km/s) = 2.92669 3.62448 3.29412
# Velocity P-wave (km/s) = 4.76033 5.54584 5.16803
#
# Compressibility (1/GPa) = 0.04361459
#
# Stress axis : x y z
#
# Youngs Moduli (GPa) = 50.97346 100.40869 45.35521
#
# Poissons Ratio (x) = -0.11725 0.13256
# Poissons Ratio (y) = -0.05952 0.10207
# Poissons Ratio (z) = 0.14898 0.22596
#
# Static dielectric constant tensor:
#      x y z
#    x 1.887720 0.000000 -0.115630 
#    y 0.000000 1.729740 0.000000 
#    z -0.115630 0.000000 1.791710 
# 
# From -- ./inp_files/269271.got.cif
#   From: 2010.05.17/outbox.cif.g08.bks.cpg/sg15_135_cif.got.tgz:269271.got - 2010.06.03 18:47:42.
