data_PCOD9284328
_publ_section_title
;
Structure prediction by ZEFSAII (Michael W. Deem and Ramdas Pophale) SiO2 
 PCOD9284328
Probable space group: C 2/C
;
_chemical_formula_sum "Si O2"
_cell_formula_units_Z 20
_cell_length_a 12.613661
_cell_length_b 13.869645
_cell_length_c 5.005512
_cell_angle_alpha 90.000000
_cell_angle_beta 53.396579
_cell_angle_gamma 90.000000
_cell_volume 702.995533
_symmetry_space_group_name_H-M "C 2/C"
_symmetry_group_IT_number 15
_symmetry_cell_setting 'monoclinic'
loop_
_space_group_symop_operation_xyz
x,y,z
-x,y,1/2-z
-x,-y,-z
x,-y,1/2+z
1/2+x,1/2+y,z
1/2-x,1/2+y,1/2-z
1/2-x,1/2-y,-z
1/2+x,1/2-y,1/2+z
loop_
_atom_site_type_symbol
_atom_site_label
_atom_site_fract_x
_atom_site_fract_y
_atom_site_fract_z
Si Si1 0.000000 0.571284 0.250000
Si Si2 0.158776 0.059689 0.040223
Si Si3 0.360043 0.738010 0.063802
O O1 0.000000 0.500000 0.500000
O O2 0.906578 0.652946 0.531850
O O3 0.179284 0.165584 0.139410
O O4 0.000000 0.053975 0.250000
O O5 0.207456 0.980051 0.181733
O O6 0.500000 0.691470 0.750000
O O7 0.250000 0.750000 0.000000
#
# Coordination Sequence:
#
# PCOD9284328 Si02
#       3
#     4   8   8
#     4  10  26  48  70 102 152 202 238 298 382 450
#     4  10  21  40  69 106 143 180 240 314 370 425
#     4  10  24  45  74 107 148 196 250 307 370 451
#
# _framework density 28.449683
#
# number of rings (size 3 to 8) (size 9 to 14) (size 15 to 20)
#    1.200    0.800    0.000    3.600    2.800    3.200 
#    0.000   14.000    0.000    0.000    0.000    0.000 
#    0.000    0.000    0.000    0.000    0.000    0.000 
#
# Total GULP energy -55833.040369 kJ/mol
# GULP energy per Si atom -5583.304037 kJ/mol
# Density = 2.838493 g / cm^3
# Si number density = 28.449683 Si / 1000 Ang^3
#
#
#
# Elastic Constant Matrix: (Units=GPa)
#
#
# Indices 1 2 3 4 5 6 
#
# 1 82.6278 61.6991 51.3573 0.0000 12.2250 0.0000
# 2 61.6991 308.7932 76.5414 0.0000 30.0898 0.0000
# 3 51.3573 76.5414 214.9108 0.0000 17.6183 0.0000
# 4 0.0000 0.0000 0.0000 40.0030 0.0000 32.4667
# 5 12.2250 30.0898 17.6183 0.0000 59.8210 0.0000
# 6 0.0000 0.0000 0.0000 32.4667 0.0000 73.4728
#
#
#
# Elastic Compliance Matrix: (Units=1/GPa)
#
#
# Indices 1 2 3 4 5 6 
#
# 1 0.015791 -0.002332 -0.002843 0.000000 -0.001217 0.000000
# 2 -0.002332 0.004023 -0.000767 0.000000 -0.001321 0.000000
# 3 -0.002843 -0.000767 0.005663 0.000000 -0.000701 0.000000
# 4 0.000000 0.000000 0.000000 0.038977 0.000000 -0.017223
# 5 -0.001217 -0.001321 -0.000701 0.000000 0.017836 0.000000
# 6 0.000000 0.000000 0.000000 -0.017223 0.000000 0.021221
#
#
# Mechanical properties :
#
#
# Convention : Reuss Voigt Hill
#
# Bulk Modulus (GPa) = 73.56982 109.50306 91.53644
# Shear Modulus (GPa) = 41.69184 62.44161 52.06672
#
# Velocity S-wave (km/s) = 3.83228 4.68996 4.28265
# Velocity P-wave (km/s) = 6.74519 8.24022 7.52990
#
# Compressibility (1/GPa) = 0.01359253
#
# Stress axis : x y z
#
# Youngs Moduli (GPa) = 63.32746 248.55403 176.57466
#
# Poissons Ratio (x) = 0.57958 0.50206
# Poissons Ratio (y) = 0.14767 0.13550
# Poissons Ratio (z) = 0.18006 0.19073
#
# Static dielectric constant tensor:
#      x y z
#    x 2.326860 0.000000 -0.198320 
#    y 0.000000 2.180790 0.000000 
#    z -0.198320 0.000000 2.393250 
# 
# From -- ./inp_files/2958.got.cif
#   From: 2010.05.17/outbox.cif.g08.bks.cpg/sg15_2_cif.got.tgz:2958.got - 2010.06.03 18:47:42.
