data_PCOD9284338
_publ_section_title
;
Structure prediction by ZEFSAII (Michael W. Deem and Ramdas Pophale) SiO2 
 PCOD9284338
Probable space group: C 2/C
;
_chemical_formula_sum "Si O2"
_cell_formula_units_Z 60
_cell_length_a 17.654395
_cell_length_b 5.735273
_cell_length_c 25.991315
_cell_angle_alpha 90.000000
_cell_angle_beta 86.909645
_cell_angle_gamma 90.000000
_cell_volume 2627.865655
_symmetry_space_group_name_H-M "C 2/C"
_symmetry_group_IT_number 15
_symmetry_cell_setting 'monoclinic'
loop_
_space_group_symop_operation_xyz
x,y,z
-x,y,1/2-z
-x,-y,-z
x,-y,1/2+z
1/2+x,1/2+y,z
1/2-x,1/2+y,1/2-z
1/2-x,1/2-y,-z
1/2+x,1/2-y,1/2+z
loop_
_atom_site_type_symbol
_atom_site_label
_atom_site_fract_x
_atom_site_fract_y
_atom_site_fract_z
Si Si1 0.330115 0.134852 0.489193
Si Si2 0.158520 0.852725 0.778465
Si Si3 0.211339 0.651822 0.314434
Si Si4 0.055108 0.037839 0.580419
Si Si5 0.000000 0.685408 0.750000
Si Si6 0.960925 0.637968 0.548967
Si Si7 0.178997 0.673211 0.605789
Si Si8 0.540002 0.075015 0.146556
O O1 0.250000 0.250000 0.500000
O O2 0.393542 0.292715 0.457179
O O3 0.372690 0.094643 0.541570
O O4 0.311490 0.921888 0.452178
O O5 0.173786 0.608480 0.810485
O O6 0.221707 0.850422 0.731011
O O7 0.075748 0.829868 0.757054
O O8 0.164663 0.108663 0.804568
O O9 0.251153 0.715399 0.367188
O O10 0.115911 0.865282 0.601112
O O11 0.989667 0.904057 0.552010
O O12 0.023828 0.160984 0.632445
O O13 0.013209 0.522291 0.700585
O O14 0.000000 0.500000 0.500000
O O15 0.993855 0.542228 0.601046
O O16 0.131347 0.473676 0.638466
#
# Coordination Sequence:
#
# PCOD9284338 Si02
#       8
#     8   8   8   8   4   8   8   8
#     4  11  24  39  64 102 133 166 219 291 342 407
#     4  10  24  41  70  94 137 177 231 289 342 410
#     4  10  22  44  66  98 129 188 225 276 352 423
#     4  10  21  40  69  93 128 189 215 276 343 427
#     4  12  24  48  64 106 134 174 242 298 342 408
#     4  11  20  43  67  97 130 177 233 262 350 429
#     4  10  21  41  66  96 130 182 224 268 350 429
#     4  10  23  40  67  96 132 181 227 290 343 416
#
# _framework density 22.832215000000001
#
# number of rings (size 3 to 8) (size 9 to 14) (size 15 to 20)
#    0.000    1.600    5.333    0.400    3.733    3.200 
#    7.200    0.000    0.000    0.000    0.000    0.000 
#    0.000    0.000    0.000    0.000    0.000    0.000 
#
# Total GULP energy -167312.257931 kJ/mol
# GULP energy per Si atom -5577.075264 kJ/mol
# Density = 2.278025 g / cm^3
# Si number density = 22.832215 Si / 1000 Ang^3
#
#
#
# Elastic Constant Matrix: (Units=GPa)
#
#
# Indices 1 2 3 4 5 6 
#
# 1 97.6207 3.4463 16.2562 0.0000 21.2331 0.0000
# 2 3.4463 55.9961 -9.1246 0.0000 5.1972 0.0000
# 3 16.2562 -9.1246 57.0782 0.0000 15.6750 0.0000
# 4 0.0000 0.0000 0.0000 -3.3069 0.0000 2.4674
# 5 21.2331 5.1972 15.6750 0.0000 30.8181 0.0000
# 6 0.0000 0.0000 0.0000 2.4674 0.0000 10.8733
#
#
#
# Elastic Compliance Matrix: (Units=1/GPa)
#
#
# Indices 1 2 3 4 5 6 
#
# 1 0.012142 -0.000272 -0.001414 0.000000 -0.007600 0.000000
# 2 -0.000272 0.019127 0.004614 0.000000 -0.005385 0.000000
# 3 -0.001414 0.004614 0.021627 0.000000 -0.010804 0.000000
# 4 0.000000 0.000000 0.000000 -0.258610 0.000000 0.058685
# 5 -0.007600 -0.005385 -0.010804 0.000000 0.044088 0.000000
# 6 0.000000 0.000000 0.000000 0.058685 0.000000 0.078651
#
#
# Mechanical properties :
#
#
# Convention : Reuss Voigt Hill
#
# Bulk Modulus (GPa) = 17.02118 25.76121 21.39120
# Shear Modulus (GPa) = -72.20733 21.01803 -25.59465
#
# Velocity S-wave (km/s) = -5.62973 3.03734 -3.35175
# Velocity P-wave (km/s) = 5.89808 4.85879 2.36427
#
# Compressibility (1/GPa) = 0.05875034
#
# Stress axis : x y z
#
# Youngs Moduli (GPa) = 82.35898 52.28270 46.23799
#
# Poissons Ratio (x) = 0.01424 0.06540
# Poissons Ratio (y) = 0.02243 -0.21334
# Poissons Ratio (z) = 0.11649 -0.24123
#
# Static dielectric constant tensor:
#      x y z
#    x 1.836030 0.000000 -0.014170 
#    y 0.000000 1.852500 0.000000 
#    z -0.014170 0.000000 1.696650 
# 
# From -- ./inp_files/297761.got.cif
#   From: 2010.05.17/outbox.cif.g08.bks.cpg/sg15_149_cif.got.tgz:297761.got - 2010.06.03 18:47:42.
