data_PCOD9284367
_publ_section_title
;
Structure prediction by ZEFSAII (Michael W. Deem and Ramdas Pophale) SiO2 
 PCOD9284367
Probable space group: C 2/C
;
_chemical_formula_sum "Si O2"
_cell_formula_units_Z 36
_cell_length_a 11.927572
_cell_length_b 15.995618
_cell_length_c 7.914233
_cell_angle_alpha 90.000000
_cell_angle_beta 97.200608
_cell_angle_gamma 90.000000
_cell_volume 1498.039296
_symmetry_space_group_name_H-M "C 2/C"
_symmetry_group_IT_number 15
_symmetry_cell_setting 'monoclinic'
loop_
_space_group_symop_operation_xyz
x,y,z
-x,y,1/2-z
-x,-y,-z
x,-y,1/2+z
1/2+x,1/2+y,z
1/2-x,1/2+y,1/2-z
1/2-x,1/2-y,-z
1/2+x,1/2-y,1/2+z
loop_
_atom_site_type_symbol
_atom_site_label
_atom_site_fract_x
_atom_site_fract_y
_atom_site_fract_z
Si Si1 0.626435 0.254870 0.404560
Si Si2 0.556590 0.412449 0.579057
Si Si3 0.661943 0.606429 0.649305
Si Si4 0.000000 0.399736 0.750000
Si Si5 0.766557 0.458601 0.827777
O O1 0.750000 0.250000 0.500000
O O2 0.560398 0.316943 0.513849
O O3 0.638595 0.303057 0.225045
O O4 0.566929 0.165717 0.380998
O O5 0.500000 0.414416 0.750000
O O6 0.456232 0.440576 0.423754
O O7 0.688381 0.427675 0.656438
O O8 0.722110 0.554233 0.810714
O O9 0.733880 0.593130 0.490801
O O10 0.100586 0.451539 0.682132
#
# Coordination Sequence:
#
# PCOD9284367 Si02
#       5
#     8   8   8   4   8
#     4  12  24  44  70 102 142 185 229 290 352 417
#     4  10  21  40  70 102 135 180 235 289 340 409
#     4  11  24  44  70 101 140 184 238 284 348 415
#     4  12  26  44  72 100 148 178 236 286 358 412
#     4  11  25  43  69 105 141 184 233 289 351 413
#
# _framework density 24.031412
#
# number of rings (size 3 to 8) (size 9 to 14) (size 15 to 20)
#    0.000    0.889    4.444    2.000    0.000    7.111 
#    0.000    0.000    0.000    0.000    0.000    0.000 
#    0.000    0.000    0.000    0.000    0.000    0.000 
#
# Total GULP energy -100305.316702 kJ/mol
# GULP energy per Si atom -5572.517595 kJ/mol
# Density = 2.397672 g / cm^3
# Si number density = 24.031412 Si / 1000 Ang^3
#
#
#
# Elastic Constant Matrix: (Units=GPa)
#
#
# Indices 1 2 3 4 5 6 
#
# 1 194.9177 -16.9642 77.4727 0.0000 9.3294 0.0000
# 2 -16.9642 62.1656 0.1109 0.0000 14.4018 0.0000
# 3 77.4727 0.1109 165.3133 0.0000 -9.5591 0.0000
# 4 0.0000 0.0000 0.0000 47.8932 0.0000 1.6366
# 5 9.3294 14.4018 -9.5591 0.0000 51.3693 0.0000
# 6 0.0000 0.0000 0.0000 1.6366 0.0000 38.2769
#
#
#
# Elastic Compliance Matrix: (Units=1/GPa)
#
#
# Indices 1 2 3 4 5 6 
#
# 1 0.006788 0.002446 -0.003330 0.000000 -0.002538 0.000000
# 2 0.002446 0.018099 -0.001494 0.000000 -0.005797 0.000000
# 3 -0.003330 -0.001494 0.007753 0.000000 0.002466 0.000000
# 4 0.000000 0.000000 0.000000 0.020910 0.000000 -0.000894
# 5 -0.002538 -0.005797 0.002466 0.000000 0.022012 0.000000
# 6 0.000000 0.000000 0.000000 -0.000894 0.000000 0.026164
#
#
# Mechanical properties :
#
#
# Convention : Reuss Voigt Hill
#
# Bulk Modulus (GPa) = 35.85972 60.40392 48.13182
# Shear Modulus (GPa) = 43.18684 51.62637 47.40660
#
# Velocity S-wave (km/s) = 4.24382 4.63999 4.44632
# Velocity P-wave (km/s) = 6.24242 7.34139 6.81409
#
# Compressibility (1/GPa) = 0.02788644
#
# Stress axis : x y z
#
# Youngs Moduli (GPa) = 147.31468 55.25105 128.97999
#
# Poissons Ratio (x) = -0.13517 0.42946
# Poissons Ratio (y) = -0.36039 0.19267
# Poissons Ratio (z) = 0.49051 0.08253
#
# Static dielectric constant tensor:
#      x y z
#    x 1.991150 0.000000 0.042230 
#    y 0.000000 2.128810 0.000000 
#    z 0.042230 0.000000 1.907190 
# 
# From -- ./inp_files/28697.got.cif
#   From: 2010.05.17/outbox.cif.g08.bks.cpg/sg15_15_cif.got.tgz:28697.got - 2010.06.03 18:47:42.
