data_PCOD9284393
_publ_section_title
;
Structure prediction by ZEFSAII (Michael W. Deem and Ramdas Pophale) SiO2 
 PCOD9284393
Probable space group: C 2/C
;
_chemical_formula_sum "Si O2"
_cell_formula_units_Z 64
_cell_length_a 25.773366
_cell_length_b 11.301626
_cell_length_c 17.184984
_cell_angle_alpha 90.000000
_cell_angle_beta 32.087257
_cell_angle_gamma 90.000000
_cell_volume 2659.056574
_symmetry_space_group_name_H-M "C 2/C"
_symmetry_group_IT_number 15
_symmetry_cell_setting 'monoclinic'
loop_
_space_group_symop_operation_xyz
x,y,z
-x,y,1/2-z
-x,-y,-z
x,-y,1/2+z
1/2+x,1/2+y,z
1/2-x,1/2+y,1/2-z
1/2-x,1/2-y,-z
1/2+x,1/2-y,1/2+z
loop_
_atom_site_type_symbol
_atom_site_label
_atom_site_fract_x
_atom_site_fract_y
_atom_site_fract_z
Si Si1 0.364830 0.052394 0.892888
Si Si2 0.673147 0.681782 0.543472
Si Si3 0.145108 0.187495 0.848673
Si Si4 0.637886 0.516713 0.714124
Si Si5 0.562022 0.863794 0.599089
Si Si6 0.157117 0.578596 0.234258
Si Si7 0.551356 0.730423 0.311037
Si Si8 0.642234 0.845299 0.343679
O O1 0.407060 0.177448 0.807736
O O2 0.413965 0.998952 0.908099
O O3 0.389161 0.958781 0.790669
O O4 0.249745 0.031513 0.056830
O O5 0.750000 0.750000 0.500000
O O6 0.607623 0.620122 0.691795
O O7 0.652872 0.779313 0.505185
O O8 0.727012 0.574713 0.431255
O O9 0.128895 0.070811 0.813337
O O10 0.143408 0.294945 0.789306
O O11 0.248863 0.174767 0.761616
O O12 0.061369 0.226397 0.017356
O O13 0.573965 0.406095 0.769699
O O14 0.500000 0.816726 0.750000
O O15 0.556148 0.837655 0.516795
O O16 0.132703 0.478317 0.325475
O O17 0.616380 0.764083 0.304043
#
# Coordination Sequence:
#
# PCOD9284393 Si02
#       8
#     8   8   8   8   8   8   8   8
#     4  10  21  45  69  91 132 180 227 280 347 409
#     4  11  18  42  69  90 121 175 227 271 336 406
#     4  12  23  43  68  98 143 178 225 286 344 412
#     4  11  21  43  71  91 133 185 228 275 347 425
#     4  12  24  39  66 100 128 170 235 292 336 406
#     4  10  21  40  70  94 126 174 227 274 343 394
#     4  11  28  42  69 104 139 184 229 283 354 418
#     4  11  26  43  67 103 139 179 224 293 344 410
#
# _framework density 24.068688000000002
#
# number of rings (size 3 to 8) (size 9 to 14) (size 15 to 20)
#    0.000    1.000    6.250    0.750    7.000    1.000 
#    2.250    0.000    0.000    0.000    0.000    0.000 
#    0.000    0.000    0.000    0.000    0.000    0.000 
#
# Total GULP energy -178264.734937 kJ/mol
# GULP energy per Si atom -5570.772967 kJ/mol
# Density = 2.401391 g / cm^3
# Si number density = 24.068688 Si / 1000 Ang^3
#
#
#
# Elastic Constant Matrix: (Units=GPa)
#
#
# Indices 1 2 3 4 5 6 
#
# 1 70.6343 14.1460 12.0308 0.0000 6.1477 0.0000
# 2 14.1460 114.2623 7.6791 0.0000 9.8087 0.0000
# 3 12.0308 7.6791 77.7801 0.0000 -1.1571 0.0000
# 4 0.0000 0.0000 0.0000 35.0331 0.0000 10.8560
# 5 6.1477 9.8087 -1.1571 0.0000 24.2572 0.0000
# 6 0.0000 0.0000 0.0000 10.8560 0.0000 -10.9350
#
#
#
# Elastic Compliance Matrix: (Units=1/GPa)
#
#
# Indices 1 2 3 4 5 6 
#
# 1 0.015119 -0.001432 -0.002247 0.000000 -0.003360 0.000000
# 2 -0.001432 0.009273 -0.000745 0.000000 -0.003422 0.000000
# 3 -0.002247 -0.000745 0.013300 0.000000 0.001505 0.000000
# 4 0.000000 0.000000 0.000000 0.021829 0.000000 0.021671
# 5 -0.003360 -0.003422 0.001505 0.000000 0.043532 0.000000
# 6 0.000000 0.000000 0.000000 0.021671 0.000000 -0.069935
#
#
# Mechanical properties :
#
#
# Convention : Reuss Voigt Hill
#
# Bulk Modulus (GPa) = 34.66948 36.70983 35.68965
# Shear Modulus (GPa) = 96.93294 24.92580 60.92937
#
# Velocity S-wave (km/s) = 6.35302 3.22158 5.03684
# Velocity P-wave (km/s) = 8.26137 5.39661 6.97759
#
# Compressibility (1/GPa) = 0.02884382
#
# Stress axis : x y z
#
# Youngs Moduli (GPa) = 66.13993 107.84050 75.18644
#
# Poissons Ratio (x) = 0.15447 0.16896
# Poissons Ratio (y) = 0.09474 0.05600
# Poissons Ratio (z) = 0.14863 0.08033
#
# Static dielectric constant tensor:
#      x y z
#    x 2.287650 0.000000 -0.351450 
#    y 0.000000 2.037730 0.000000 
#    z -0.351450 0.000000 2.255450 
# 
# From -- ./inp_files/225153.got.cif
#   From: 2010.05.17/outbox.cif.g08.bks.cpg/sg15_113_cif.got.tgz:225153.got - 2010.06.03 18:47:42.
