data_PCOD9284905
_publ_section_title
;
Structure prediction by ZEFSAII (Michael W. Deem and Ramdas Pophale) SiO2 
 PCOD9284905
Probable space group: C 2/C
;
_chemical_formula_sum "Si O2"
_cell_formula_units_Z 40
_cell_length_a 9.908784
_cell_length_b 28.555334
_cell_length_c 16.233964
_cell_angle_alpha 90.000000
_cell_angle_beta 27.134335
_cell_angle_gamma 90.000000
_cell_volume 2094.939990
_symmetry_space_group_name_H-M "C 2/C"
_symmetry_group_IT_number 15
_symmetry_cell_setting 'monoclinic'
loop_
_space_group_symop_operation_xyz
x,y,z
-x,y,1/2-z
-x,-y,-z
x,-y,1/2+z
1/2+x,1/2+y,z
1/2-x,1/2+y,1/2-z
1/2-x,1/2-y,-z
1/2+x,1/2-y,1/2+z
loop_
_atom_site_type_symbol
_atom_site_label
_atom_site_fract_x
_atom_site_fract_y
_atom_site_fract_z
Si Si1 0.000000 0.642780 0.750000
Si Si2 0.012950 0.811988 0.407662
Si Si3 0.850383 0.054114 0.509064
Si Si4 0.000000 0.753487 0.250000
Si Si5 0.477953 0.982264 0.604474
Si Si6 0.793761 0.083416 0.033951
O O1 0.190089 0.676107 0.704866
O O2 0.211905 0.606853 0.582764
O O3 0.782718 0.779669 0.582138
O O4 0.877183 0.863619 0.472342
O O5 0.054589 0.785994 0.299069
O O6 0.151886 0.039524 0.297841
O O7 0.966632 0.055125 0.541342
O O8 0.600366 0.020286 0.605475
O O9 0.714010 0.941307 0.492767
O O10 0.500000 0.000000 0.500000
O O11 0.500000 0.082414 0.250000
#
# Coordination Sequence:
#
# PCOD9284905 Si02
#       6
#     4   8   8   4   8   8
#     4  10  24  40  65  88 124 162 209 250 304 376
#     4  10  21  41  65  94 122 157 203 257 316 376
#     4  10  23  38  58  86 118 167 209 244 296 358
#     4  10  22  40  69  94 120 154 201 258 326 378
#     4  11  23  37  57  86 124 165 208 255 295 348
#     4   9  19  37  62  82 118 164 206 246 299 368
#
# _framework density 19.093627000000001
#
# number of rings (size 3 to 8) (size 9 to 14) (size 15 to 20)
#    0.000    2.000    1.000    1.200    9.800    2.400 
#    0.000    0.000    0.000    0.000    0.000    0.000 
#    0.000    0.000    0.000    0.000    0.000    0.000 
#
# Total GULP energy -111446.116047 kJ/mol
# GULP energy per Si atom -5572.305802 kJ/mol
# Density = 1.905017 g / cm^3
# Si number density = 19.093627 Si / 1000 Ang^3
#
#
#
# Elastic Constant Matrix: (Units=GPa)
#
#
# Indices 1 2 3 4 5 6 
#
# 1 154.7803 95.6502 85.4824 0.0000 -14.8015 0.0001
# 2 95.6502 124.0499 60.3510 0.0000 -3.1979 0.0000
# 3 85.4824 60.3510 116.2753 -0.0001 -11.9480 0.0001
# 4 0.0000 0.0000 -0.0001 43.3387 0.0001 -38.3113
# 5 -14.8015 -3.1979 -11.9480 0.0001 31.0928 -0.0001
# 6 0.0001 0.0000 0.0001 -38.3113 -0.0001 68.5583
#
#
#
# Elastic Compliance Matrix: (Units=1/GPa)
#
#
# Indices 1 2 3 4 5 6 
#
# 1 0.016235 -0.009115 -0.006775 0.000000 0.004188 0.000000
# 2 -0.009115 0.015937 -0.001924 0.000000 -0.003439 0.000000
# 3 -0.006775 -0.001924 0.014813 0.000000 0.002269 0.000000
# 4 0.000000 0.000000 0.000000 0.045600 0.000000 0.025482
# 5 0.004188 -0.003439 0.002269 0.000000 0.034674 0.000000
# 6 0.000000 0.000000 0.000000 0.025482 0.000000 0.028826
#
#
# Mechanical properties :
#
#
# Convention : Reuss Voigt Hill
#
# Bulk Modulus (GPa) = 88.04597 97.56364 92.80481
# Shear Modulus (GPa) = 25.57575 38.83940 32.20758
#
# Velocity S-wave (km/s) = 3.66388 4.51505 4.11155
# Velocity P-wave (km/s) = 8.00697 8.85378 8.44100
#
# Compressibility (1/GPa) = 0.01135770
#
# Stress axis : x y z
#
# Youngs Moduli (GPa) = 61.59387 62.74813 67.50926
#
# Poissons Ratio (x) = 0.57192 0.45735
# Poissons Ratio (y) = 0.56140 0.12991
# Poissons Ratio (z) = 0.41728 0.12075
#
# Static dielectric constant tensor:
#      x y z
#    x 1.658730 0.000000 -0.034240 
#    y 0.000000 1.656830 0.000000 
#    z -0.034240 0.000000 1.722040 
# 
# From -- ./inp_files/139715.got.cif
#   From: 2010.05.17/outbox.cif.g08.bks.cpg/sg15_70_cif.got.tgz:139715.got - 2010.06.03 18:47:42.
