data_PCOD9284877
_publ_section_title
;
Structure prediction by ZEFSAII (Michael W. Deem and Ramdas Pophale) SiO2 
 PCOD9284877
Probable space group: C 2/C
;
_chemical_formula_sum "Si O2"
_cell_formula_units_Z 56
_cell_length_a 16.181885
_cell_length_b 27.846073
_cell_length_c 8.928105
_cell_angle_alpha 90.000000
_cell_angle_beta 42.420522
_cell_angle_gamma 90.000000
_cell_volume 2713.796928
_symmetry_space_group_name_H-M "C 2/C"
_symmetry_group_IT_number 15
_symmetry_cell_setting 'monoclinic'
loop_
_space_group_symop_operation_xyz
x,y,z
-x,y,1/2-z
-x,-y,-z
x,-y,1/2+z
1/2+x,1/2+y,z
1/2-x,1/2+y,1/2-z
1/2-x,1/2-y,-z
1/2+x,1/2-y,1/2+z
loop_
_atom_site_type_symbol
_atom_site_label
_atom_site_fract_x
_atom_site_fract_y
_atom_site_fract_z
Si Si1 0.080411 0.471159 0.274334
Si Si2 0.706864 0.932498 0.600374
Si Si3 0.025313 0.343686 0.888509
Si Si4 0.214020 0.082516 0.837131
Si Si5 0.409221 0.516259 0.989822
Si Si6 0.368956 0.224164 0.012203
Si Si7 0.743058 0.821401 0.118731
O O1 0.159601 0.515541 0.102835
O O2 0.156879 0.432655 0.261911
O O3 0.000000 0.449268 0.250000
O O4 0.000000 0.500000 0.500000
O O5 0.600227 0.894741 0.787602
O O6 0.773937 0.913118 0.359694
O O7 0.790860 0.948549 0.631338
O O8 0.000000 0.332698 0.750000
O O9 0.106806 0.305326 0.869728
O O10 0.890419 0.336602 0.140289
O O11 0.174264 0.132203 0.962803
O O12 0.137511 0.036558 0.990903
O O13 0.500000 0.539316 0.750000
O O14 0.500000 0.500000 0.000000
O O15 0.500000 0.230494 0.750000
O O16 0.281622 0.193327 0.019157
O O17 0.303020 0.275301 0.117479
#
# Coordination Sequence:
#
# PCOD9284877 Si02
#       7
#     8   8   8   8   8   8   8
#     4  11  21  33  54  86 128 159 196 248 305 375
#     4  11  22  39  59  90 129 160 209 268 317 377
#     4  11  21  38  67  93 127 166 205 268 332 388
#     4  11  22  37  62  90 118 170 212 256 320 377
#     4  11  24  42  63  85 127 172 216 267 318 378
#     4   9  22  42  64  92 127 167 212 270 324 384
#     4  10  21  41  65  91 130 163 212 270 326 380
#
# _framework density 20.635294999999999
#
# number of rings (size 3 to 8) (size 9 to 14) (size 15 to 20)
#    0.000    1.429    4.286    1.286    0.000    5.143 
#    0.000    2.857    0.000    0.000    0.000    0.000 
#    0.000    0.000    0.000    0.000    0.000    0.000 
#
# Total GULP energy -155904.754547 kJ/mol
# GULP energy per Si atom -5568.026948 kJ/mol
# Density = 2.058833 g / cm^3
# Si number density = 20.635295 Si / 1000 Ang^3
#
#
#
# Elastic Constant Matrix: (Units=GPa)
#
#
# Indices 1 2 3 4 5 6 
#
# 1 146.3151 62.7401 18.7090 0.0000 17.8967 0.0000
# 2 62.7401 153.9432 25.6241 0.0000 4.3524 0.0000
# 3 18.7090 25.6241 30.9048 0.0000 -2.2325 0.0000
# 4 0.0000 0.0000 0.0000 23.3469 0.0000 -8.5132
# 5 17.8967 4.3524 -2.2325 0.0000 24.1765 0.0000
# 6 0.0000 0.0000 0.0000 -8.5132 0.0000 27.4474
#
#
#
# Elastic Compliance Matrix: (Units=1/GPa)
#
#
# Indices 1 2 3 4 5 6 
#
# 1 0.009439 -0.003043 -0.003681 0.000000 -0.006780 0.000000
# 2 -0.003043 0.008609 -0.005280 0.000000 0.000215 0.000000
# 3 -0.003681 -0.005280 0.039493 0.000000 0.007322 0.000000
# 4 0.000000 0.000000 0.000000 0.048294 0.000000 0.014979
# 5 -0.006780 0.000215 0.007322 0.000000 0.047018 0.000000
# 6 0.000000 0.000000 0.000000 0.014979 0.000000 0.041079
#
#
# Mechanical properties :
#
#
# Convention : Reuss Voigt Hill
#
# Bulk Modulus (GPa) = 29.82178 60.58992 45.20585
# Shear Modulus (GPa) = 21.82272 29.93349 25.87811
#
# Velocity S-wave (km/s) = 3.25552 3.81280 3.54513
# Velocity P-wave (km/s) = 5.34924 6.98636 6.22188
#
# Compressibility (1/GPa) = 0.03353254
#
# Stress axis : x y z
#
# Youngs Moduli (GPa) = 105.94148 116.16089 25.32092
#
# Poissons Ratio (x) = 0.35342 0.09321
# Poissons Ratio (y) = 0.32233 0.13370
# Poissons Ratio (z) = 0.39000 0.61337
#
# Static dielectric constant tensor:
#      x y z
#    x 1.850760 0.000000 -0.053720 
#    y 0.000000 1.784590 0.000000 
#    z -0.053720 0.000000 1.841680 
# 
# From -- ./inp_files/43460.got.cif
#   From: 2010.05.17/outbox.cif.g08.bks.cpg/sg15_22_cif.got.tgz:43460.got - 2010.06.03 18:47:42.
