data_PCOD9284349
_publ_section_title
;
Structure prediction by ZEFSAII (Michael W. Deem and Ramdas Pophale) SiO2 
 PCOD9284349
Probable space group: C 2/C
;
_chemical_formula_sum "Si O2"
_cell_formula_units_Z 60
_cell_length_a 11.103592
_cell_length_b 8.958109
_cell_length_c 28.912789
_cell_angle_alpha 90.000000
_cell_angle_beta 68.414578
_cell_angle_gamma 90.000000
_cell_volume 2674.189116
_symmetry_space_group_name_H-M "C 2/C"
_symmetry_group_IT_number 15
_symmetry_cell_setting 'monoclinic'
loop_
_space_group_symop_operation_xyz
x,y,z
-x,y,1/2-z
-x,-y,-z
x,-y,1/2+z
1/2+x,1/2+y,z
1/2-x,1/2+y,1/2-z
1/2-x,1/2-y,-z
1/2+x,1/2-y,1/2+z
loop_
_atom_site_type_symbol
_atom_site_label
_atom_site_fract_x
_atom_site_fract_y
_atom_site_fract_z
Si Si1 0.951394 0.895681 0.169140
Si Si2 0.626267 0.296718 0.480968
Si Si3 0.443063 0.446784 0.581227
Si Si4 0.346471 0.994712 0.573877
Si Si5 0.310523 0.769829 0.900316
Si Si6 0.892735 0.425603 0.418001
Si Si7 0.500000 0.578447 0.250000
Si Si8 0.700690 0.252390 0.657585
O O1 0.991269 0.019967 0.125472
O O2 0.936079 0.971269 0.220620
O O3 0.071881 0.780578 0.149291
O O4 0.818776 0.827504 0.167948
O O5 0.541904 0.359542 0.534736
O O6 0.581117 0.397617 0.442672
O O7 0.603530 0.125436 0.470188
O O8 0.777800 0.342289 0.461728
O O9 0.309067 0.357990 0.605433
O O10 0.460966 0.078042 0.585116
O O11 0.265867 0.889662 0.620359
O O12 0.252619 0.123617 0.567745
O O13 0.364404 0.897500 0.925797
O O14 0.870264 0.357628 0.369528
O O15 0.398565 0.680275 0.291675
#
# Coordination Sequence:
#
# PCOD9284349 Si02
#       8
#     8   8   8   8   8   8   4   8
#     4  12  24  47  67  97 134 169 221 283 332 396
#     4   9  20  40  63 106 137 181 225 265 324 398
#     4  10  21  40  69  95 142 181 222 269 330 392
#     4  11  21  39  70  98 138 171 222 267 327 398
#     4  11  22  38  69  97 131 179 212 271 330 386
#     4  10  21  41  70  96 135 182 217 265 331 391
#     4  12  30  44  72 102 126 168 226 286 346 390
#     4  11  24  47  68  97 127 173 217 277 338 400
#
# _framework density 22.436709
#
# number of rings (size 3 to 8) (size 9 to 14) (size 15 to 20)
#    0.000    1.333    6.667    0.000    1.867    3.733 
#    0.000    5.333    0.000    0.000    0.000    0.000 
#    0.000    0.000    0.000    0.000    0.000    0.000 
#
# Total GULP energy -167774.965044 kJ/mol
# GULP energy per Si atom -5592.498835 kJ/mol
# Density = 2.238564 g / cm^3
# Si number density = 22.436709 Si / 1000 Ang^3
#
#
#
# Elastic Constant Matrix: (Units=GPa)
#
#
# Indices 1 2 3 4 5 6 
#
# 1 106.1523 32.6934 36.7254 0.0000 -1.4721 0.0000
# 2 32.6934 134.3390 39.0020 0.0000 -1.6469 0.0000
# 3 36.7254 39.0020 125.5767 0.0000 1.1522 0.0000
# 4 0.0000 0.0000 0.0000 37.8447 0.0000 -6.8107
# 5 -1.4721 -1.6469 1.1522 0.0000 31.8075 0.0000
# 6 0.0000 0.0000 0.0000 -6.8107 0.0000 44.7303
#
#
#
# Elastic Compliance Matrix: (Units=1/GPa)
#
#
# Indices 1 2 3 4 5 6 
#
# 1 0.010913 -0.001892 -0.002608 0.000000 0.000502 0.000000
# 2 -0.001892 0.008518 -0.002096 0.000000 0.000429 0.000000
# 3 -0.002608 -0.002096 0.009382 0.000000 -0.000569 0.000000
# 4 0.000000 0.000000 0.000000 0.027168 0.000000 0.004137
# 5 0.000502 0.000429 -0.000569 0.000000 0.031505 0.000000
# 6 0.000000 0.000000 0.000000 0.004137 0.000000 0.022986
#
#
# Mechanical properties :
#
#
# Convention : Reuss Voigt Hill
#
# Bulk Modulus (GPa) = 64.02225 64.76773 64.39499
# Shear Modulus (GPa) = 38.79798 40.05297 39.42548
#
# Velocity S-wave (km/s) = 4.16290 4.22969 4.19643
# Velocity P-wave (km/s) = 7.19047 7.26521 7.22794
#
# Compressibility (1/GPa) = 0.01561957
#
# Stress axis : x y z
#
# Youngs Moduli (GPa) = 91.63731 117.39559 106.58357
#
# Poissons Ratio (x) = 0.22215 0.27800
# Poissons Ratio (y) = 0.17341 0.22341
# Poissons Ratio (z) = 0.23902 0.24608
#
# Static dielectric constant tensor:
#      x y z
#    x 1.888480 0.000000 0.025360 
#    y 0.000000 1.892980 0.000000 
#    z 0.025360 0.000000 1.818200 
# 
# From -- ./inp_files/309999.got.cif
#   From: 2010.05.17/outbox.cif.g08.bks.cpg/sg15_155_cif.got.tgz:309999.got - 2010.06.03 18:47:42.
