data_PCOD9284138
_publ_section_title
;
Structure prediction by ZEFSAII (Michael W. Deem and Ramdas Pophale) SiO2 
 PCOD9284138
Probable space group: C 2/C
;
_chemical_formula_sum "Si O2"
_cell_formula_units_Z 40
_cell_length_a 13.634650
_cell_length_b 10.602601
_cell_length_c 13.489842
_cell_angle_alpha 90.000000
_cell_angle_beta 114.617287
_cell_angle_gamma 90.000000
_cell_volume 1772.882424
_symmetry_space_group_name_H-M "C 2/C"
_symmetry_group_IT_number 15
_symmetry_cell_setting 'monoclinic'
loop_
_space_group_symop_operation_xyz
x,y,z
-x,y,1/2-z
-x,-y,-z
x,-y,1/2+z
1/2+x,1/2+y,z
1/2-x,1/2+y,1/2-z
1/2-x,1/2-y,-z
1/2+x,1/2-y,1/2+z
loop_
_atom_site_type_symbol
_atom_site_label
_atom_site_fract_x
_atom_site_fract_y
_atom_site_fract_z
Si Si1 0.561200 0.724696 0.404189
Si Si2 0.298554 0.069486 0.072595
Si Si3 0.776879 0.182362 0.884410
Si Si4 0.500000 0.498175 0.250000
Si Si5 0.500000 0.063088 0.750000
Si Si6 0.776842 0.844572 0.153523
O O1 0.673896 0.744432 0.388206
O O2 0.607717 0.738826 0.534341
O O3 0.505049 0.595837 0.345501
O O4 0.487568 0.839954 0.336874
O O5 0.271915 0.203920 0.107483
O O6 0.217332 0.956969 0.065070
O O7 0.404376 0.023546 0.173442
O O8 0.300479 0.078976 0.954242
O O9 0.756862 0.166168 0.760995
O O10 0.394271 0.411560 0.197064
#
# Coordination Sequence:
#
# PCOD9284138 Si02
#       6
#     8   8   8   4   4   8
#     4   9  20  39  62  94 121 161 215 264 306 382
#     4  10  22  42  58  91 127 166 208 267 318 389
#     4  10  21  40  67  88 125 174 211 261 320 383
#     4  11  21  40  60  94 133 157 206 274 308 381
#     4   9  19  40  66  82 125 165 206 266 318 359
#     4  11  24  38  64  91 131 170 207 266 329 378
#
# _framework density 22.562127
#
# number of rings (size 3 to 8) (size 9 to 14) (size 15 to 20)
#    0.000    2.000    2.000    0.600    2.800    0.800 
#    0.000   15.000    0.000    0.000    0.000    0.000 
#    0.000    0.000    0.000    0.000    0.000    0.000 
#
# Total GULP energy -111506.352656 kJ/mol
# GULP energy per Si atom -5575.317633 kJ/mol
# Density = 2.251077 g / cm^3
# Si number density = 22.562127 Si / 1000 Ang^3
#
#
#
# Elastic Constant Matrix: (Units=GPa)
#
#
# Indices 1 2 3 4 5 6 
#
# 1 19.2044 1.8241 26.9617 0.0000 14.9167 0.0000
# 2 1.8241 94.5625 23.3657 0.0000 -2.0415 0.0000
# 3 26.9617 23.3657 197.6934 0.0000 10.4702 0.0000
# 4 0.0000 0.0000 0.0000 261.9256 0.0000 -154.2205
# 5 14.9167 -2.0415 10.4702 0.0000 42.4108 0.0000
# 6 0.0000 0.0000 0.0000 -154.2205 0.0000 138.9549
#
#
#
# Elastic Compliance Matrix: (Units=1/GPa)
#
#
# Indices 1 2 3 4 5 6 
#
# 1 0.089451 0.000299 -0.010709 0.000000 -0.028803 0.000000
# 2 0.000299 0.010925 -0.001372 0.000000 0.000760 0.000000
# 3 -0.010709 -0.001372 0.006571 0.000000 0.002078 0.000000
# 4 0.000000 0.000000 0.000000 0.011018 0.000000 0.012228
# 5 -0.028803 0.000760 0.002078 0.000000 0.033233 0.000000
# 6 0.000000 0.000000 0.000000 0.012228 0.000000 0.020768
#
#
# Mechanical properties :
#
#
# Convention : Reuss Voigt Hill
#
# Bulk Modulus (GPa) = 11.99308 46.19592 29.09450
# Shear Modulus (GPa) = 22.38892 105.94551 64.16721
#
# Velocity S-wave (km/s) = 3.15353 6.85997 5.33872
# Velocity P-wave (km/s) = 4.31124 9.12497 7.13624
#
# Compressibility (1/GPa) = 0.08338140
#
# Stress axis : x y z
#
# Youngs Moduli (GPa) = 11.17931 91.53569 152.18399
#
# Poissons Ratio (x) = -0.02736 1.62978
# Poissons Ratio (y) = -0.00334 0.20883
# Poissons Ratio (z) = 0.11972 0.12560
#
# Static dielectric constant tensor:
#      x y z
#    x 1.912500 0.000000 0.032970 
#    y 0.000000 1.837550 0.000000 
#    z 0.032970 0.000000 1.904540 
# 
# From -- ./inp_files/95176.got.cif
#   From: 2010.05.17/outbox.cif.g08.bks.cpg/sg15_48_cif.got.tgz:95176.got - 2010.06.03 18:47:42.
