data_PCOD9284085
_publ_section_title
;
Structure prediction by ZEFSAII (Michael W. Deem and Ramdas Pophale) SiO2 
 PCOD9284085
Probable space group: C 2/C
;
_chemical_formula_sum "Si O2"
_cell_formula_units_Z 56
_cell_length_a 31.837229
_cell_length_b 13.262133
_cell_length_c 12.291546
_cell_angle_alpha 90.000000
_cell_angle_beta 24.845410
_cell_angle_gamma 90.000000
_cell_volume 2180.628343
_symmetry_space_group_name_H-M "C 2/C"
_symmetry_group_IT_number 15
_symmetry_cell_setting 'monoclinic'
loop_
_space_group_symop_operation_xyz
x,y,z
-x,y,1/2-z
-x,-y,-z
x,-y,1/2+z
1/2+x,1/2+y,z
1/2-x,1/2+y,1/2-z
1/2-x,1/2-y,-z
1/2+x,1/2-y,1/2+z
loop_
_atom_site_type_symbol
_atom_site_label
_atom_site_fract_x
_atom_site_fract_y
_atom_site_fract_z
Si Si1 0.884725 0.634906 0.983961
Si Si2 0.908563 0.785163 0.733001
Si Si3 0.414947 0.434744 0.121262
Si Si4 0.637769 0.625567 0.362681
Si Si5 0.767891 0.175003 0.808629
Si Si6 0.939753 0.305276 0.799045
Si Si7 0.716691 0.501767 0.868678
O O1 0.883204 0.691004 0.869988
O O2 0.000000 0.636801 0.750000
O O3 0.809213 0.712640 0.221767
O O4 0.830115 0.528136 0.131053
O O5 0.827801 0.834006 0.836898
O O6 0.990597 0.861425 0.594517
O O7 0.979027 0.736578 0.473697
O O8 0.439310 0.538579 0.999342
O O9 0.325913 0.381368 0.266120
O O10 0.363432 0.462428 0.356806
O O11 0.606466 0.714147 0.518788
O O12 0.706649 0.558411 0.278634
O O13 0.802520 0.119151 0.614495
O O14 0.650295 0.161334 0.068459
O O15 0.000000 0.367739 0.750000
#
# Coordination Sequence:
#
# PCOD9284085 Si02
#       7
#     8   8   8   8   8   8   8
#     4  12  25  43  67 101 137 176 220 283 335 404
#     4  11  22  39  65  98 131 176 217 277 337 398
#     4  11  22  40  67  97 128 175 221 276 341 396
#     4  10  21  40  66  95 128 172 221 275 335 393
#     4  11  24  45  68  95 133 180 225 275 337 398
#     4  10  22  44  68  94 130 178 221 275 333 404
#     4  11  25  44  66  95 136 177 225 278 332 403
#
# _framework density 25.680672000000001
#
# number of rings (size 3 to 8) (size 9 to 14) (size 15 to 20)
#    0.000    1.143    4.286    1.286    2.000    2.286 
#   15.429    0.714    0.000    0.000    0.000    0.000 
#    0.000    0.000    0.000    0.000    0.000    0.000 
#
# Total GULP energy -156118.135193 kJ/mol
# GULP energy per Si atom -5575.647685 kJ/mol
# Density = 2.562222 g / cm^3
# Si number density = 25.680672 Si / 1000 Ang^3
#
#
#
# Elastic Constant Matrix: (Units=GPa)
#
#
# Indices 1 2 3 4 5 6 
#
# 1 93.3077 19.3950 8.0574 0.0000 -14.4459 0.0000
# 2 19.3950 64.3780 24.6553 0.0000 -11.0315 0.0000
# 3 8.0574 24.6553 41.5673 0.0000 -19.4163 0.0000
# 4 0.0000 0.0000 0.0000 0.4610 0.0000 6.5636
# 5 -14.4459 -11.0315 -19.4163 0.0000 48.8954 0.0000
# 6 0.0000 0.0000 0.0000 6.5636 0.0000 19.7116
#
#
#
# Elastic Compliance Matrix: (Units=1/GPa)
#
#
# Indices 1 2 3 4 5 6 
#
# 1 0.011833 -0.003507 0.001289 0.000000 0.003217 0.000000
# 2 -0.003507 0.021141 -0.012419 0.000000 -0.001198 0.000000
# 3 0.001289 -0.012419 0.036885 0.000000 0.012226 0.000000
# 4 0.000000 0.000000 0.000000 -0.579880 0.000000 0.193088
# 5 0.003217 -0.001198 0.012226 0.000000 0.025987 0.000000
# 6 0.000000 0.000000 0.000000 0.193088 0.000000 -0.013563
#
#
# Mechanical properties :
#
#
# Convention : Reuss Voigt Hill
#
# Bulk Modulus (GPa) = 24.64075 33.71872 29.17973
# Shear Modulus (GPa) = -10.99399 23.62330 6.31466
#
# Velocity S-wave (km/s) = -2.07131 3.03625 1.56979
# Velocity P-wave (km/s) = 1.97369 5.04483 3.83052
#
# Compressibility (1/GPa) = 0.04058319
#
# Stress axis : x y z
#
# Youngs Moduli (GPa) = 84.50972 47.30154 27.11158
#
# Poissons Ratio (x) = 0.16591 -0.03495
# Poissons Ratio (y) = 0.29641 0.33671
# Poissons Ratio (z) = -0.10895 0.58746
#
# Static dielectric constant tensor:
#      x y z
#    x 2.099520 0.000000 -0.024480 
#    y 0.000000 2.184350 0.000000 
#    z -0.024480 0.000000 2.182700 
# 
# From -- ./inp_files/126983.got.cif
#   From: 2010.05.17/outbox.cif.g08.bks.cpg/sg15_64_cif.got.tgz:126983.got - 2010.06.03 18:47:42.
