data_PCOD9284462
_publ_section_title
;
Structure prediction by ZEFSAII (Michael W. Deem and Ramdas Pophale) SiO2 
 PCOD9284462
Probable space group: C 2/C
;
_chemical_formula_sum "Si O2"
_cell_formula_units_Z 44
_cell_length_a 20.435176
_cell_length_b 5.709226
_cell_length_c 17.101626
_cell_angle_alpha 90.000000
_cell_angle_beta 89.441909
_cell_angle_gamma 90.000000
_cell_volume 1995.135605
_symmetry_space_group_name_H-M "C 2/C"
_symmetry_group_IT_number 15
_symmetry_cell_setting 'monoclinic'
loop_
_space_group_symop_operation_xyz
x,y,z
-x,y,1/2-z
-x,-y,-z
x,-y,1/2+z
1/2+x,1/2+y,z
1/2-x,1/2+y,1/2-z
1/2-x,1/2-y,-z
1/2+x,1/2-y,1/2+z
loop_
_atom_site_type_symbol
_atom_site_label
_atom_site_fract_x
_atom_site_fract_y
_atom_site_fract_z
Si Si1 0.775480 0.942781 0.059309
Si Si2 0.000000 0.793306 0.250000
Si Si3 0.268912 0.146760 0.782094
Si Si4 0.527268 0.011427 0.089628
Si Si5 0.101834 0.858659 0.681596
Si Si6 0.843112 0.803943 0.439090
O O1 0.776120 0.817341 0.140797
O O2 0.719986 0.141706 0.066497
O O3 0.750000 0.750000 0.000000
O O4 0.838863 0.062886 0.021890
O O5 0.004330 0.642343 0.332055
O O6 0.937283 0.965849 0.261636
O O7 0.249044 0.378914 0.735873
O O8 0.348638 0.164512 0.784865
O O9 0.593867 0.150094 0.073257
O O10 0.548715 0.759976 0.124566
O O11 0.500000 0.000000 0.000000
O O12 0.152605 0.005766 0.628713
#
# Coordination Sequence:
#
# PCOD9284462 Si02
#       6
#     8   4   8   8   8   8
#     4  11  21  42  68 100 138 194 234 294 375 441
#     4  10  26  46  76 100 150 200 248 318 386 442
#     4  12  27  46  72 111 151 195 244 307 386 454
#     4  11  24  48  73 104 145 197 261 312 381 452
#     4  11  23  50  67 101 148 191 249 318 374 457
#     4  10  21  40  73  95 142 185 243 307 366 442
#
# _framework density 22.053640999999999
#
# number of rings (size 3 to 8) (size 9 to 14) (size 15 to 20)
#    0.000    1.091    3.636    1.636    5.091    2.909 
#   13.091    0.000    0.000    0.000    0.000    0.000 
#    0.000    0.000    0.000    0.000    0.000    0.000 
#
# Total GULP energy -122504.983073 kJ/mol
# GULP energy per Si atom -5568.408321 kJ/mol
# Density = 2.200345 g / cm^3
# Si number density = 22.053641 Si / 1000 Ang^3
#
#
#
# Elastic Constant Matrix: (Units=GPa)
#
#
# Indices 1 2 3 4 5 6 
#
# 1 54.1674 20.6487 37.3723 0.0000 -13.4529 0.0000
# 2 20.6487 83.5565 47.1805 0.0000 -3.7904 0.0000
# 3 37.3723 47.1805 150.1475 0.0000 -18.4838 0.0000
# 4 0.0000 0.0000 0.0000 48.0357 0.0000 -9.9256
# 5 -13.4529 -3.7904 -18.4838 0.0000 43.0102 0.0000
# 6 0.0000 0.0000 0.0000 -9.9256 0.0000 38.5535
#
#
#
# Elastic Compliance Matrix: (Units=1/GPa)
#
#
# Indices 1 2 3 4 5 6 
#
# 1 0.023998 -0.003267 -0.004285 0.000000 0.005377 0.000000
# 2 -0.003267 0.015015 -0.004084 0.000000 -0.001454 0.000000
# 3 -0.004285 -0.004084 0.009292 0.000000 0.002293 0.000000
# 4 0.000000 0.000000 0.000000 0.021987 0.000000 0.005661
# 5 0.005377 -0.001454 0.002293 0.000000 0.025790 0.000000
# 6 0.000000 0.000000 0.000000 0.005661 0.000000 0.027395
#
#
# Mechanical properties :
#
#
# Convention : Reuss Voigt Hill
#
# Bulk Modulus (GPa) = 39.94546 55.36384 47.65465
# Shear Modulus (GPa) = 32.23826 38.09786 35.16806
#
# Velocity S-wave (km/s) = 3.82751 4.16084 3.99765
# Velocity P-wave (km/s) = 6.13884 6.94566 6.55467
#
# Compressibility (1/GPa) = 0.02503413
#
# Stress axis : x y z
#
# Youngs Moduli (GPa) = 41.66943 66.59797 107.61687
#
# Poissons Ratio (x) = 0.21759 0.46111
# Poissons Ratio (y) = 0.13615 0.43951
# Poissons Ratio (z) = 0.17854 0.27199
#
# Static dielectric constant tensor:
#      x y z
#    x 1.980880 0.000000 -0.031390 
#    y 0.000000 1.886140 0.000000 
#    z -0.031390 0.000000 1.994670 
# 
# From -- ./inp_files/212887.got.cif
#   From: 2010.05.17/outbox.cif.g08.bks.cpg/sg15_107_cif.got.tgz:212887.got - 2010.06.03 18:47:42.
