data_PCOD9284499
_publ_section_title
;
Structure prediction by ZEFSAII (Michael W. Deem and Ramdas Pophale) SiO2 
 PCOD9284499
Probable space group: C 2/C
;
_chemical_formula_sum "Si O2"
_cell_formula_units_Z 48
_cell_length_a 13.714185
_cell_length_b 28.616501
_cell_length_c 7.897377
_cell_angle_alpha 90.000000
_cell_angle_beta 137.142441
_cell_angle_gamma 90.000000
_cell_volume 2108.103965
_symmetry_space_group_name_H-M "C 2/C"
_symmetry_group_IT_number 15
_symmetry_cell_setting 'monoclinic'
loop_
_space_group_symop_operation_xyz
x,y,z
-x,y,1/2-z
-x,-y,-z
x,-y,1/2+z
1/2+x,1/2+y,z
1/2-x,1/2+y,1/2-z
1/2-x,1/2-y,-z
1/2+x,1/2-y,1/2+z
loop_
_atom_site_type_symbol
_atom_site_label
_atom_site_fract_x
_atom_site_fract_y
_atom_site_fract_z
Si Si1 0.836611 0.315555 0.237884
Si Si2 0.827911 0.790579 0.817014
Si Si3 0.000000 0.522010 0.750000
Si Si4 0.393930 0.844015 0.768371
Si Si5 0.937871 0.136781 0.982903
Si Si6 0.312705 0.948663 0.720597
Si Si7 0.000000 0.067568 0.750000
O O1 0.846684 0.264621 0.338137
O O2 0.992059 0.338332 0.434313
O O3 0.765962 0.304811 0.966965
O O4 0.726041 0.349062 0.195318
O O5 0.740273 0.810713 0.864302
O O6 0.976211 0.817556 0.973844
O O7 0.096954 0.487515 0.761546
O O8 0.884546 0.551272 0.496986
O O9 0.500000 0.832473 0.750000
O O10 0.338858 0.896726 0.684132
O O11 0.000000 0.124182 0.250000
O O12 0.963523 0.098587 0.870310
O O13 0.144548 0.959281 0.487109
#
# Coordination Sequence:
#
# PCOD9284499 Si02
#       7
#     8   8   4   8   8   8   4
#     4  10  22  38  63  90 133 184 243 281 336 401
#     4  10  21  41  59  91 133 187 237 290 332 398
#     4  10  26  50  74 105 136 170 227 298 356 436
#     4  12  23  38  63  99 132 182 225 278 342 414
#     4  10  22  39  61  97 136 186 237 288 342 400
#     4  11  25  47  74 105 139 178 227 288 362 428
#     4  12  24  46  72 103 144 178 223 288 342 446
#
# _framework density 22.769275
#
# number of rings (size 3 to 8) (size 9 to 14) (size 15 to 20)
#    0.000    1.333    2.500    2.500    2.333    4.000 
#    6.000    0.000    0.000    0.000    0.000    0.000 
#    0.000    0.000    0.000    0.000    0.000    0.000 
#
# Total GULP energy -134186.548121 kJ/mol
# GULP energy per Si atom -5591.106172 kJ/mol
# Density = 2.271745 g / cm^3
# Si number density = 22.769275 Si / 1000 Ang^3
#
#
#
# Elastic Constant Matrix: (Units=GPa)
#
#
# Indices 1 2 3 4 5 6 
#
# 1 101.9057 19.2124 34.0857 0.0000 6.4346 0.0000
# 2 19.2124 39.7369 21.8418 0.0000 -0.8939 0.0000
# 3 34.0857 21.8418 135.3956 0.0000 20.3587 0.0000
# 4 0.0000 0.0000 0.0000 26.3565 0.0000 -0.6450
# 5 6.4346 -0.8939 20.3587 0.0000 47.5749 0.0000
# 6 0.0000 0.0000 0.0000 -0.6450 0.0000 -4.4981
#
#
#
# Elastic Compliance Matrix: (Units=1/GPa)
#
#
# Indices 1 2 3 4 5 6 
#
# 1 0.011371 -0.004392 -0.002042 0.000000 -0.000747 0.000000
# 2 -0.004392 0.029613 -0.004109 0.000000 0.002909 0.000000
# 3 -0.002042 -0.004109 0.009119 0.000000 -0.003704 0.000000
# 4 0.000000 0.000000 0.000000 0.037809 0.000000 -0.005422
# 5 -0.000747 0.002909 -0.003704 0.000000 0.022760 0.000000
# 6 0.000000 0.000000 0.000000 -0.005422 0.000000 -0.221540
#
#
# Mechanical properties :
#
#
# Convention : Reuss Voigt Hill
#
# Bulk Modulus (GPa) = 34.46152 47.47979 40.97066
# Shear Modulus (GPa) = -62.41437 27.34655 -17.53391
#
# Velocity S-wave (km/s) = -5.24129 3.46935 -2.77802
# Velocity P-wave (km/s) = 4.63252 6.07835 2.78263
#
# Compressibility (1/GPa) = 0.02901787
#
# Stress axis : x y z
#
# Youngs Moduli (GPa) = 87.94148 33.76896 109.65521
#
# Poissons Ratio (x) = 0.14832 0.22390
# Poissons Ratio (y) = 0.38627 0.45054
# Poissons Ratio (z) = 0.17956 0.13875
#
# Static dielectric constant tensor:
#      x y z
#    x 1.857490 0.000000 -0.086720 
#    y 0.000000 1.767710 0.000000 
#    z -0.086720 0.000000 1.963460 
# 
# From -- ./inp_files/44447.got.cif
#   From: 2010.05.17/outbox.cif.g08.bks.cpg/sg15_23_cif.got.tgz:44447.got - 2010.06.03 18:47:42.
