data_PCOD9284028
_publ_section_title
;
Structure prediction by ZEFSAII (Michael W. Deem and Ramdas Pophale) SiO2 
 PCOD9284028
Probable space group: C 2/C
;
_chemical_formula_sum "Si O2"
_cell_formula_units_Z 44
_cell_length_a 13.694064
_cell_length_b 26.494067
_cell_length_c 5.002402
_cell_angle_alpha 90.000000
_cell_angle_beta 97.073331
_cell_angle_gamma 90.000000
_cell_volume 1801.115954
_symmetry_space_group_name_H-M "C 2/C"
_symmetry_group_IT_number 15
_symmetry_cell_setting 'monoclinic'
loop_
_space_group_symop_operation_xyz
x,y,z
-x,y,1/2-z
-x,-y,-z
x,-y,1/2+z
1/2+x,1/2+y,z
1/2-x,1/2+y,1/2-z
1/2-x,1/2-y,-z
1/2+x,1/2-y,1/2+z
loop_
_atom_site_type_symbol
_atom_site_label
_atom_site_fract_x
_atom_site_fract_y
_atom_site_fract_z
Si Si1 0.807293 0.186647 0.778734
Si Si2 0.612449 0.523274 0.885463
Si Si3 0.500000 0.037231 0.750000
Si Si4 0.602208 0.218661 0.931340
Si Si5 0.099448 0.606519 0.125892
Si Si6 0.685502 0.382367 0.706557
O O1 0.696418 0.208109 0.772980
O O2 0.824100 0.165559 0.491436
O O3 0.875625 0.232995 0.882254
O O4 0.823493 0.140779 0.998702
O O5 0.500000 0.514536 0.750000
O O6 0.659482 0.517644 0.606483
O O7 0.616528 0.574711 0.056362
O O8 0.411230 0.076089 0.655807
O O9 0.500000 0.000000 0.500000
O O10 0.500000 0.225528 0.750000
O O11 0.597251 0.166389 0.088759
O O12 0.204413 0.595172 0.287558
O O13 0.000000 0.594145 0.250000
#
# Coordination Sequence:
#
# PCOD9284028 Si02
#       6
#     8   8   4   8   8   8
#     4  10  24  40  60  99 127 165 214 271 309 383
#     4  10  22  42  66  91 120 163 212 258 317 391
#     4  12  26  44  62  94 130 164 218 274 306 368
#     4  10  21  40  66  90 130 173 218 255 323 395
#     4  11  24  42  69  92 131 176 216 257 327 392
#     4  11  24  41  66  92 133 163 212 269 327 374
#
# _framework density 24.429300999999999
#
# number of rings (size 3 to 8) (size 9 to 14) (size 15 to 20)
#    0.000    1.455    1.818    2.182    2.545   10.909 
#    0.000    0.000    0.000    0.000    0.000    0.000 
#    0.000    0.000    0.000    0.000    0.000    0.000 
#
# Total GULP energy -122938.510932 kJ/mol
# GULP energy per Si atom -5588.114133 kJ/mol
# Density = 2.437370 g / cm^3
# Si number density = 24.429301 Si / 1000 Ang^3
#
#
#
# Elastic Constant Matrix: (Units=GPa)
#
#
# Indices 1 2 3 4 5 6 
#
# 1 38.8672 16.9630 26.9414 0.0000 15.8507 0.0000
# 2 16.9630 116.0733 28.8558 0.0000 20.0971 0.0000
# 3 26.9414 28.8558 128.0630 0.0000 13.0717 0.0000
# 4 0.0000 0.0000 0.0000 45.4948 0.0000 39.2227
# 5 15.8507 20.0971 13.0717 0.0000 32.0845 0.0000
# 6 0.0000 0.0000 0.0000 39.2227 0.0000 180.5504
#
#
#
# Elastic Compliance Matrix: (Units=1/GPa)
#
#
# Indices 1 2 3 4 5 6 
#
# 1 0.036378 -0.001304 -0.005851 0.000000 -0.014771 0.000000
# 2 -0.001304 0.010046 -0.001474 0.000000 -0.005048 0.000000
# 3 -0.005851 -0.001474 0.009372 0.000000 -0.000004 0.000000
# 4 0.000000 0.000000 0.000000 0.027046 0.000000 -0.005875
# 5 -0.014771 -0.005048 -0.000004 0.000000 0.041629 0.000000
# 6 0.000000 0.000000 0.000000 -0.005875 0.000000 0.006815
#
#
# Mechanical properties :
#
#
# Convention : Reuss Voigt Hill
#
# Bulk Modulus (GPa) = 25.94921 47.61379 36.78150
# Shear Modulus (GPa) = 30.98072 65.64213 48.31142
#
# Velocity S-wave (km/s) = 3.56501 5.18928 4.45185
# Velocity P-wave (km/s) = 5.25271 7.44564 6.44316
#
# Compressibility (1/GPa) = 0.03853683
#
# Stress axis : x y z
#
# Youngs Moduli (GPa) = 27.48943 99.53913 106.69803
#
# Poissons Ratio (x) = 0.12981 0.62434
# Poissons Ratio (y) = 0.03585 0.15728
# Poissons Ratio (z) = 0.16085 0.14673
#
# Static dielectric constant tensor:
#      x y z
#    x 2.060310 0.000000 -0.111700 
#    y 0.000000 1.948630 0.000000 
#    z -0.111700 0.000000 2.004350 
# 
# From -- ./inp_files/10950.got.cif
#   From: 2010.05.17/outbox.cif.g08.bks.cpg/sg15_6_cif.got.tgz:10950.got - 2010.06.03 18:47:42.
