data_PCOD9284617
_publ_section_title
;
Structure prediction by ZEFSAII (Michael W. Deem and Ramdas Pophale) SiO2 
 PCOD9284617
Probable space group: C 2/C
;
_chemical_formula_sum "Si O2"
_cell_formula_units_Z 56
_cell_length_a 15.787900
_cell_length_b 21.611350
_cell_length_c 12.813624
_cell_angle_alpha 90.000000
_cell_angle_beta 142.988493
_cell_angle_gamma 90.000000
_cell_volume 2631.824875
_symmetry_space_group_name_H-M "C 2/C"
_symmetry_group_IT_number 15
_symmetry_cell_setting 'monoclinic'
loop_
_space_group_symop_operation_xyz
x,y,z
-x,y,1/2-z
-x,-y,-z
x,-y,1/2+z
1/2+x,1/2+y,z
1/2-x,1/2+y,1/2-z
1/2-x,1/2-y,-z
1/2+x,1/2-y,1/2+z
loop_
_atom_site_type_symbol
_atom_site_label
_atom_site_fract_x
_atom_site_fract_y
_atom_site_fract_z
Si Si1 0.553183 0.768484 0.684958
Si Si2 0.338037 0.808572 0.125435
Si Si3 0.786102 0.600805 0.399695
Si Si4 0.081742 0.631753 0.591462
Si Si5 0.576205 0.550070 0.931170
Si Si6 0.658637 0.675544 0.084589
Si Si7 0.802638 0.026803 0.780834
O O1 0.500000 0.760216 0.750000
O O2 0.481875 0.829365 0.565722
O O3 0.488788 0.710866 0.558671
O O4 0.719089 0.778341 0.834146
O O5 0.500000 0.798901 0.250000
O O6 0.340234 0.822503 0.250426
O O7 0.250000 0.750000 0.000000
O O8 0.281586 0.869332 0.009201
O O9 0.703761 0.646678 0.239575
O O10 0.728937 0.532250 0.323966
O O11 0.948309 0.603386 0.521926
O O12 0.183291 0.577514 0.656367
O O13 0.500000 0.532417 0.750000
O O14 0.450738 0.555750 0.892341
O O15 0.648712 0.616936 0.996785
O O16 0.681055 0.500907 0.086388
#
# Coordination Sequence:
#
# PCOD9284617 Si02
#       7
#     8   8   8   8   8   8   8
#     4  11  23  37  60  90 119 161 199 247 309 362
#     4  10  21  41  62  94 124 164 206 257 312 369
#     4   9  20  41  62  89 124 155 203 261 307 364
#     4  10  22  38  62  90 124 155 211 253 304 374
#     4  10  23  40  60  86 125 158 205 255 302 364
#     4  10  22  39  60  86 123 153 202 252 297 369
#     4  10  22  40  61  90 119 166 207 250 316 367
#
# _framework density 21.278012
#
# number of rings (size 3 to 8) (size 9 to 14) (size 15 to 20)
#    0.000    2.000    0.000    2.143    6.000    0.000 
#    7.714    2.143    0.000    0.000    0.000    0.000 
#    0.000    0.000    0.000    0.000    0.000    0.000 
#
# Total GULP energy -156485.670468 kJ/mol
# GULP energy per Si atom -5588.773945 kJ/mol
# Density = 2.122958 g / cm^3
# Si number density = 21.278012 Si / 1000 Ang^3
#
#
#
# Elastic Constant Matrix: (Units=GPa)
#
#
# Indices 1 2 3 4 5 6 
#
# 1 22.6697 7.7398 9.3318 0.0000 1.8789 0.0000
# 2 7.7398 68.9906 28.4725 0.0000 13.1415 0.0000
# 3 9.3318 28.4725 83.0400 0.0000 -6.8985 0.0000
# 4 0.0000 0.0000 0.0000 36.6110 0.0000 11.0359
# 5 1.8789 13.1415 -6.8985 0.0000 21.6972 0.0000
# 6 0.0000 0.0000 0.0000 11.0359 0.0000 14.5813
#
#
#
# Elastic Compliance Matrix: (Units=1/GPa)
#
#
# Indices 1 2 3 4 5 6 
#
# 1 0.047288 -0.002562 -0.004773 0.000000 -0.004061 0.000000
# 2 -0.002562 0.021040 -0.008183 0.000000 -0.015123 0.000000
# 3 -0.004773 -0.008183 0.016260 0.000000 0.010539 0.000000
# 4 0.000000 0.000000 0.000000 0.035388 0.000000 -0.026783
# 5 -0.004061 -0.015123 0.010539 0.000000 0.058951 0.000000
# 6 0.000000 0.000000 0.000000 -0.026783 0.000000 0.088852
#
#
# Mechanical properties :
#
#
# Convention : Reuss Voigt Hill
#
# Bulk Modulus (GPa) = 18.67313 29.53207 24.10260
# Shear Modulus (GPa) = 15.78962 23.18830 19.48896
#
# Velocity S-wave (km/s) = 2.72704 3.30476 3.02970
# Velocity P-wave (km/s) = 4.32556 5.33584 4.85704
#
# Compressibility (1/GPa) = 0.05355289
#
# Stress axis : x y z
#
# Youngs Moduli (GPa) = 21.14712 47.52914 61.50095
#
# Poissons Ratio (x) = 0.12175 0.29355
# Poissons Ratio (y) = 0.05417 0.50323
# Poissons Ratio (z) = 0.10094 0.38891
#
# Static dielectric constant tensor:
#      x y z
#    x 1.752510 0.000000 -0.011470 
#    y 0.000000 1.768470 0.000000 
#    z -0.011470 0.000000 1.780910 
# 
# From -- ./inp_files/163843.got.cif
#   From: 2010.05.17/outbox.cif.g08.bks.cpg/sg15_82_cif.got.tgz:163843.got - 2010.06.03 18:47:42.
