data_PCOD9284397
_publ_section_title
;
Structure prediction by ZEFSAII (Michael W. Deem and Ramdas Pophale) SiO2 
 PCOD9284397
Probable space group: C 2/C
;
_chemical_formula_sum "Si O2"
_cell_formula_units_Z 64
_cell_length_a 15.407497
_cell_length_b 14.084016
_cell_length_c 16.596270
_cell_angle_alpha 90.000000
_cell_angle_beta 50.362387
_cell_angle_gamma 90.000000
_cell_volume 2773.404311
_symmetry_space_group_name_H-M "C 2/C"
_symmetry_group_IT_number 15
_symmetry_cell_setting 'monoclinic'
loop_
_space_group_symop_operation_xyz
x,y,z
-x,y,1/2-z
-x,-y,-z
x,-y,1/2+z
1/2+x,1/2+y,z
1/2-x,1/2+y,1/2-z
1/2-x,1/2-y,-z
1/2+x,1/2-y,1/2+z
loop_
_atom_site_type_symbol
_atom_site_label
_atom_site_fract_x
_atom_site_fract_y
_atom_site_fract_z
Si Si1 0.825198 0.490445 0.162820
Si Si2 0.029356 0.744783 0.507184
Si Si3 0.049678 0.583577 0.065186
Si Si4 0.053913 0.978045 0.635392
Si Si5 0.268639 0.962478 0.924825
Si Si6 0.268867 0.846350 0.330852
Si Si7 0.376554 0.256816 0.892059
Si Si8 0.138891 0.094097 0.344031
O O1 0.782457 0.397417 0.236558
O O2 0.728749 0.571798 0.219755
O O3 0.934904 0.526148 0.146102
O O4 0.870820 0.469293 0.047269
O O5 0.143020 0.802124 0.413531
O O6 0.060293 0.697073 0.575190
O O7 0.990397 0.677297 0.458542
O O8 0.926736 0.811634 0.594185
O O9 0.124157 0.588621 0.100934
O O10 0.082891 0.865841 0.627614
O O11 0.000000 0.011735 0.750000
O O12 0.961823 0.979615 0.617961
O O13 0.164829 0.035019 0.548181
O O14 0.217708 0.921297 0.873702
O O15 0.287245 0.071162 0.886867
O O16 0.364371 0.773374 0.306065
O O17 0.250000 0.250000 0.000000
#
# Coordination Sequence:
#
# PCOD9284397 Si02
#       8
#     8   8   8   8   8   8   8   8
#     4  10  25  42  67  93 136 174 220 274 333 406
#     4  10  22  41  69  96 135 172 215 286 339 394
#     4  11  26  43  59  99 141 175 215 280 347 391
#     4  11  21  35  62  98 127 162 213 282 336 387
#     4  11  22  41  65  89 132 173 224 272 326 402
#     4  10  21  40  70  95 129 174 226 272 343 402
#     4   9  18  35  60  94 128 159 205 274 340 394
#     4  10  22  42  69  93 124 177 230 264 329 404
#
# _framework density 23.076332000000001
#
# number of rings (size 3 to 8) (size 9 to 14) (size 15 to 20)
#    0.000    1.750    3.750    1.125    5.250    7.500 
#    0.000    0.000    0.000    3.000    0.000    0.000 
#    0.000    0.000    0.000    0.000    0.000    0.000 
#
# Total GULP energy -178596.384442 kJ/mol
# GULP energy per Si atom -5581.137014 kJ/mol
# Density = 2.302381 g / cm^3
# Si number density = 23.076332 Si / 1000 Ang^3
#
#
#
# Elastic Constant Matrix: (Units=GPa)
#
#
# Indices 1 2 3 4 5 6 
#
# 1 171.5879 41.3160 9.7130 0.0000 -12.4250 0.0000
# 2 41.3160 57.6549 19.8102 0.0000 -8.6772 0.0000
# 3 9.7130 19.8102 88.6521 0.0000 -11.5226 0.0000
# 4 0.0000 0.0000 0.0000 25.8628 0.0000 0.0073
# 5 -12.4250 -8.6772 -11.5226 0.0000 26.1557 0.0000
# 6 0.0000 0.0000 0.0000 0.0073 0.0000 31.3001
#
#
#
# Elastic Compliance Matrix: (Units=1/GPa)
#
#
# Indices 1 2 3 4 5 6 
#
# 1 0.007149 -0.005029 0.000599 0.000000 0.001992 0.000000
# 2 -0.005029 0.022874 -0.004120 0.000000 0.003384 0.000000
# 3 0.000599 -0.004120 0.012723 0.000000 0.004523 0.000000
# 4 0.000000 0.000000 0.000000 0.038666 0.000000 -0.000009
# 5 0.001992 0.003384 0.004523 0.000000 0.042294 0.000000
# 6 0.000000 0.000000 0.000000 -0.000009 0.000000 0.031949
#
#
# Mechanical properties :
#
#
# Convention : Reuss Voigt Hill
#
# Bulk Modulus (GPa) = 38.99382 51.06370 45.02876
# Shear Modulus (GPa) = 27.57808 33.13411 30.35609
#
# Velocity S-wave (km/s) = 3.46074 3.79337 3.63087
# Velocity P-wave (km/s) = 5.73615 6.43136 6.09368
#
# Compressibility (1/GPa) = 0.02564509
#
# Stress axis : x y z
#
# Youngs Moduli (GPa) = 139.87541 43.71818 78.59796
#
# Poissons Ratio (x) = 0.21988 -0.04712
# Poissons Ratio (y) = 0.70349 0.32386
# Poissons Ratio (z) = -0.08385 0.18014
#
# Static dielectric constant tensor:
#      x y z
#    x 1.904300 0.000000 0.015270 
#    y 0.000000 1.964830 0.000000 
#    z 0.015270 0.000000 1.913160 
# 
# From -- ./inp_files/205717.got.cif
#   From: 2010.05.17/outbox.cif.g08.bks.cpg/sg15_103_cif.got.tgz:205717.got - 2010.06.03 18:47:42.
