data_PCOD9284983
_publ_section_title
;
Structure prediction by ZEFSAII (Michael W. Deem and Ramdas Pophale) SiO2 
 PCOD9284983
Probable space group: C 2/C
;
_chemical_formula_sum "Si O2"
_cell_formula_units_Z 64
_cell_length_a 31.197497
_cell_length_b 8.624022
_cell_length_c 11.077430
_cell_angle_alpha 90.000000
_cell_angle_beta 92.686883
_cell_angle_gamma 90.000000
_cell_volume 2977.082776
_symmetry_space_group_name_H-M "C 2/C"
_symmetry_group_IT_number 15
_symmetry_cell_setting 'monoclinic'
loop_
_space_group_symop_operation_xyz
x,y,z
-x,y,1/2-z
-x,-y,-z
x,-y,1/2+z
1/2+x,1/2+y,z
1/2-x,1/2+y,1/2-z
1/2-x,1/2-y,-z
1/2+x,1/2-y,1/2+z
loop_
_atom_site_type_symbol
_atom_site_label
_atom_site_fract_x
_atom_site_fract_y
_atom_site_fract_z
Si Si1 0.408290 0.670209 0.491544
Si Si2 0.396221 0.880088 0.704695
Si Si3 0.177782 0.752088 0.160106
Si Si4 0.677593 0.924748 0.437806
Si Si5 0.883819 0.133800 0.116189
Si Si6 0.741424 0.828757 0.868638
Si Si7 0.450309 0.824528 0.272905
Si Si8 0.832347 0.912501 0.837983
O O1 0.417579 0.759526 0.616241
O O2 0.402045 0.489231 0.522949
O O3 0.441072 0.731491 0.395592
O O4 0.361166 0.699714 0.424910
O O5 0.370029 0.793256 0.805085
O O6 0.360353 0.962670 0.614289
O O7 0.427283 0.007659 0.766693
O O8 0.191183 0.607592 0.078012
O O9 0.207661 0.762076 0.281842
O O10 0.178803 0.922987 0.103335
O O11 0.653459 0.761015 0.412073
O O12 0.719406 0.001724 0.383218
O O13 0.924730 0.228364 0.168483
O O14 0.861815 0.047225 0.227080
O O15 0.786827 0.836138 0.807206
O O16 0.750000 0.750000 0.000000
O O17 0.500000 0.837821 0.250000
#
# Coordination Sequence:
#
# PCOD9284983 Si02
#       8
#     8   8   8   8   8   8   8   8
#     4  11  21  42  67  93 127 172 214 265 326 396
#     4  10  21  41  66  91 127 168 215 260 323 392
#     4  11  22  38  62  88 119 172 217 264 319 377
#     4  10  22  39  61  88 122 170 214 264 321 374
#     4  10  22  41  67  92 127 169 213 266 327 387
#     4  11  27  38  57  91 135 170 220 278 324 376
#     4  10  24  43  66 101 133 163 210 268 330 407
#     4  11  23  38  62  89 127 166 219 268 320 381
#
# _framework density 21.497555999999999
#
# number of rings (size 3 to 8) (size 9 to 14) (size 15 to 20)
#    0.000    1.500    2.500    2.250    3.500    4.500 
#    0.000    0.625    0.000    0.000    0.000    0.000 
#    0.000    0.000    0.000    0.000    0.000    0.000 
#
# Total GULP energy -178309.380997 kJ/mol
# GULP energy per Si atom -5572.168156 kJ/mol
# Density = 2.144863 g / cm^3
# Si number density = 21.497556 Si / 1000 Ang^3
#
#
#
# Elastic Constant Matrix: (Units=GPa)
#
#
# Indices 1 2 3 4 5 6 
#
# 1 123.9994 22.6843 5.7658 0.0000 -8.1824 0.0000
# 2 22.6843 76.5329 4.0302 0.0000 -6.3793 0.0000
# 3 5.7658 4.0302 31.1626 0.0000 -2.8108 0.0000
# 4 0.0000 0.0000 0.0000 33.0919 0.0000 -1.9111
# 5 -8.1824 -6.3793 -2.8108 0.0000 16.5516 0.0000
# 6 0.0000 0.0000 0.0000 -1.9111 0.0000 15.7532
#
#
#
# Elastic Compliance Matrix: (Units=1/GPa)
#
#
# Indices 1 2 3 4 5 6 
#
# 1 0.008743 -0.002264 -0.001029 0.000000 0.003275 0.000000
# 2 -0.002264 0.014138 -0.001035 0.000000 0.004154 0.000000
# 3 -0.001029 -0.001035 0.032835 0.000000 0.004668 0.000000
# 4 0.000000 0.000000 0.000000 0.030432 0.000000 0.003692
# 5 0.003275 0.004154 0.004668 0.000000 0.064430 0.000000
# 6 0.000000 0.000000 0.000000 0.003692 0.000000 0.063927
#
#
# Mechanical properties :
#
#
# Convention : Reuss Voigt Hill
#
# Bulk Modulus (GPa) = 21.24988 32.96172 27.10580
# Shear Modulus (GPa) = 20.93380 26.36031 23.64706
#
# Velocity S-wave (km/s) = 3.12392 3.50551 3.32021
# Velocity P-wave (km/s) = 4.78729 5.63479 5.22824
#
# Compressibility (1/GPa) = 0.04705908
#
# Stress axis : x y z
#
# Youngs Moduli (GPa) = 114.38111 70.73075 30.45522
#
# Poissons Ratio (x) = 0.16015 0.03135
# Poissons Ratio (y) = 0.25898 0.03152
# Poissons Ratio (z) = 0.11775 0.07319
#
# Static dielectric constant tensor:
#      x y z
#    x 1.740700 0.000000 0.043480 
#    y 0.000000 1.807280 0.000000 
#    z 0.043480 0.000000 1.935450 
# 
# From -- ./inp_files/125918.got.cif
#   From: 2010.05.17/outbox.cif.g08.bks.cpg/sg15_63_cif.got.tgz:125918.got - 2010.06.03 18:47:42.
