data_PCOD9284000
_publ_section_title
;
Structure prediction by ZEFSAII (Michael W. Deem and Ramdas Pophale) SiO2 
 PCOD9284000
Probable space group: C 2/C
;
_chemical_formula_sum "Si O2"
_cell_formula_units_Z 64
_cell_length_a 16.002618
_cell_length_b 14.076548
_cell_length_c 18.279675
_cell_angle_alpha 90.000000
_cell_angle_beta 136.585516
_cell_angle_gamma 90.000000
_cell_volume 2829.982795
_symmetry_space_group_name_H-M "C 2/C"
_symmetry_group_IT_number 15
_symmetry_cell_setting 'monoclinic'
loop_
_space_group_symop_operation_xyz
x,y,z
-x,y,1/2-z
-x,-y,-z
x,-y,1/2+z
1/2+x,1/2+y,z
1/2-x,1/2+y,1/2-z
1/2-x,1/2-y,-z
1/2+x,1/2-y,1/2+z
loop_
_atom_site_type_symbol
_atom_site_label
_atom_site_fract_x
_atom_site_fract_y
_atom_site_fract_z
Si Si1 0.343449 0.361866 0.987005
Si Si2 0.097576 0.202918 0.260700
Si Si3 0.404805 0.762925 0.401998
Si Si4 0.483491 0.492308 0.323705
Si Si5 0.712518 0.953262 0.185426
Si Si6 0.513304 0.016542 0.671570
Si Si7 0.853685 0.631263 0.459177
Si Si8 0.924674 0.683746 0.131670
O O1 0.406599 0.456109 0.056875
O O2 0.406350 0.272938 0.068351
O O3 0.364888 0.333020 0.916902
O O4 0.203968 0.355836 0.921185
O O5 0.125131 0.253501 0.202582
O O6 0.221145 0.177623 0.381578
O O7 0.000000 0.254219 0.250000
O O8 0.031445 0.105246 0.193353
O O9 0.330515 0.855793 0.380774
O O10 0.546138 0.791041 0.500885
O O11 0.500000 0.457972 0.250000
O O12 0.357320 0.455386 0.277064
O O13 0.643779 0.958991 0.219325
O O14 0.666036 0.044457 0.110093
O O15 0.500000 0.022853 0.750000
O O16 0.413372 0.081567 0.567741
O O17 0.489820 0.906166 0.637236
O O18 0.000000 0.714794 0.250000
#
# Coordination Sequence:
#
# PCOD9284000 Si02
#       8
#     8   8   8   8   8   8   8   8
#     4  11  24  37  64  99 133 173 212 273 343 396
#     4  10  25  45  64  91 128 177 225 270 329 399
#     4  11  24  39  65  99 126 166 224 279 327 391
#     4  10  24  43  68  92 130 180 218 266 332 411
#     4  10  22  42  70  95 129 175 224 264 330 406
#     4  10  21  40  66 103 127 168 221 278 325 388
#     4  10  22  44  71  89 130 178 216 272 332 401
#     4  10  23  38  62  99 141 168 211 272 334 405
#
# _framework density 22.614979000000002
#
# number of rings (size 3 to 8) (size 9 to 14) (size 15 to 20)
#    0.000    1.750    0.000    3.375   12.250    7.000 
#    2.250    0.000    0.000    0.000    0.000    0.000 
#    0.000    0.000    0.000    0.000    0.000    0.000 
#
# Total GULP energy -178964.588485 kJ/mol
# GULP energy per Si atom -5592.643390 kJ/mol
# Density = 2.256351 g / cm^3
# Si number density = 22.614979 Si / 1000 Ang^3
#
#
#
# Elastic Constant Matrix: (Units=GPa)
#
#
# Indices 1 2 3 4 5 6 
#
# 1 71.1775 -3.1382 28.3861 0.0000 -6.0253 0.0000
# 2 -3.1382 46.7530 -11.5298 0.0000 8.4389 0.0000
# 3 28.3861 -11.5298 49.5409 0.0000 -0.2984 0.0000
# 4 0.0000 0.0000 0.0000 20.5374 0.0000 -2.1689
# 5 -6.0253 8.4389 -0.2984 0.0000 27.3068 0.0000
# 6 0.0000 0.0000 0.0000 -2.1689 0.0000 -0.6656
#
#
#
# Elastic Compliance Matrix: (Units=1/GPa)
#
#
# Indices 1 2 3 4 5 6 
#
# 1 0.018871 -0.002393 -0.011341 0.000000 0.004780 0.000000
# 2 -0.002393 0.024397 0.007001 0.000000 -0.007991 0.000000
# 3 -0.011341 0.007001 0.028287 0.000000 -0.004357 0.000000
# 4 0.000000 0.000000 0.000000 0.036226 0.000000 -0.118039
# 5 0.004780 -0.007991 -0.004357 0.000000 0.040098 0.000000
# 6 0.000000 0.000000 0.000000 -0.118039 0.000000 -1.117717
#
#
# Mechanical properties :
#
#
# Convention : Reuss Voigt Hill
#
# Bulk Modulus (GPa) = 17.21479 21.65641 19.43560
# Shear Modulus (GPa) = -5.33613 19.68593 7.17490
#
# Velocity S-wave (km/s) = -1.53775 2.95359 1.78312
# Velocity P-wave (km/s) = 2.11559 4.60744 3.58499
#
# Compressibility (1/GPa) = 0.05808959
#
# Stress axis : x y z
#
# Youngs Moduli (GPa) = 52.99018 40.98802 35.35220
#
# Poissons Ratio (x) = 0.09808 0.40093
# Poissons Ratio (y) = 0.12680 -0.24750
# Poissons Ratio (z) = 0.60097 -0.28696
#
# Static dielectric constant tensor:
#      x y z
#    x 1.860310 0.000000 -0.031820 
#    y 0.000000 1.844140 0.000000 
#    z -0.031820 0.000000 1.826720 
# 
# From -- ./inp_files/205749.got.cif
#   From: 2010.05.17/outbox.cif.g08.bks.cpg/sg15_103_cif.got.tgz:205749.got - 2010.06.03 18:47:42.
