data_PCOD9284990
_publ_section_title
;
Structure prediction by ZEFSAII (Michael W. Deem and Ramdas Pophale) SiO2 
 PCOD9284990
Probable space group: C 2/C
;
_chemical_formula_sum "Si O2"
_cell_formula_units_Z 48
_cell_length_a 9.867838
_cell_length_b 17.724261
_cell_length_c 13.317358
_cell_angle_alpha 90.000000
_cell_angle_beta 76.512215
_cell_angle_gamma 90.000000
_cell_volume 2264.967403
_symmetry_space_group_name_H-M "C 2/C"
_symmetry_group_IT_number 15
_symmetry_cell_setting 'monoclinic'
loop_
_space_group_symop_operation_xyz
x,y,z
-x,y,1/2-z
-x,-y,-z
x,-y,1/2+z
1/2+x,1/2+y,z
1/2-x,1/2+y,1/2-z
1/2-x,1/2-y,-z
1/2+x,1/2-y,1/2+z
loop_
_atom_site_type_symbol
_atom_site_label
_atom_site_fract_x
_atom_site_fract_y
_atom_site_fract_z
Si Si1 0.537492 0.284805 0.989760
Si Si2 0.822306 0.713781 0.149486
Si Si3 0.073567 0.099432 0.134707
Si Si4 0.735041 0.686582 0.645424
Si Si5 0.493208 0.930720 0.864767
Si Si6 0.777233 0.471422 0.060164
O O1 0.531213 0.359102 0.922800
O O2 0.615932 0.219527 0.915257
O O3 0.381831 0.262157 0.047272
O O4 0.624197 0.295761 0.076815
O O5 0.686951 0.663357 0.148744
O O6 0.800944 0.769739 0.246640
O O7 0.946387 0.653798 0.148019
O O8 0.000000 0.074278 0.250000
O O9 0.150037 0.028972 0.069863
O O10 0.742507 0.596449 0.642160
O O11 0.500000 0.959262 0.750000
O O12 0.602810 0.978434 0.909895
O O13 0.344908 0.937642 0.946426
#
# Coordination Sequence:
#
# PCOD9284990 Si02
#       6
#     8   8   8   8   8   8
#     4  11  23  40  65  97 127 170 222 267 326 387
#     4  11  22  42  70  92 130 174 220 264 325 395
#     4  11  24  43  65  97 134 174 211 275 339 385
#     4  11  23  40  66  97 128 166 222 274 313 399
#     4  10  21  41  66  92 125 175 216 261 329 396
#     4  10  24  41  63  96 133 164 218 275 323 389
#
# _framework density 21.192357000000001
#
# number of rings (size 3 to 8) (size 9 to 14) (size 15 to 20)
#    0.000    1.333    3.333    2.000    2.333    3.333 
#    3.000    0.000    0.000    0.000    0.000    0.000 
#    0.000    0.000    0.000    0.000    0.000    0.000 
#
# Total GULP energy -134093.111623 kJ/mol
# GULP energy per Si atom -5587.212984 kJ/mol
# Density = 2.114412 g / cm^3
# Si number density = 21.192357 Si / 1000 Ang^3
#
#
#
# Elastic Constant Matrix: (Units=GPa)
#
#
# Indices 1 2 3 4 5 6 
#
# 1 45.6325 8.9721 25.2709 0.0000 -3.5205 0.0000
# 2 8.9721 101.1500 21.8928 0.0000 -0.8744 0.0000
# 3 25.2709 21.8928 108.5474 0.0000 -13.6979 0.0000
# 4 0.0000 0.0000 0.0000 20.0636 0.0000 -2.1403
# 5 -3.5205 -0.8744 -13.6979 0.0000 21.3003 0.0000
# 6 0.0000 0.0000 0.0000 -2.1403 0.0000 10.9039
#
#
#
# Elastic Compliance Matrix: (Units=1/GPa)
#
#
# Indices 1 2 3 4 5 6 
#
# 1 0.025262 -0.001022 -0.005609 0.000000 0.000526 0.000000
# 2 -0.001022 0.010398 -0.001988 0.000000 -0.001021 0.000000
# 3 -0.005609 -0.001988 0.011745 0.000000 0.006545 0.000000
# 4 0.000000 0.000000 0.000000 0.050907 0.000000 0.009993
# 5 0.000526 -0.001021 0.006545 0.000000 0.051202 0.000000
# 6 0.000000 0.000000 0.000000 0.009993 0.000000 0.093672
#
#
# Mechanical properties :
#
#
# Convention : Reuss Voigt Hill
#
# Bulk Modulus (GPa) = 33.14813 40.84459 36.99636
# Shear Modulus (GPa) = 18.48568 23.73317 21.10943
#
# Velocity S-wave (km/s) = 2.95664 3.35011 3.15951
# Velocity P-wave (km/s) = 5.22792 5.85486 5.55025
#
# Compressibility (1/GPa) = 0.03016762
#
# Stress axis : x y z
#
# Youngs Moduli (GPa) = 39.58544 96.16817 85.14168
#
# Poissons Ratio (x) = 0.09831 0.47752
# Poissons Ratio (y) = 0.04047 0.16927
# Poissons Ratio (z) = 0.22202 0.19119
#
# Static dielectric constant tensor:
#      x y z
#    x 1.782250 0.000000 -0.021000 
#    y 0.000000 1.775110 0.000000 
#    z -0.021000 0.000000 1.769640 
# 
# From -- ./inp_files/87791.got.cif
#   From: 2010.05.17/outbox.cif.g08.bks.cpg/sg15_44_cif.got.tgz:87791.got - 2010.06.03 18:47:42.
