data_PCOD9284853
_publ_section_title
;
Structure prediction by ZEFSAII (Michael W. Deem and Ramdas Pophale) SiO2 
 PCOD9284853
Probable space group: C 2/C
;
_chemical_formula_sum "Si O2"
_cell_formula_units_Z 52
_cell_length_a 25.646138
_cell_length_b 8.874522
_cell_length_c 12.377652
_cell_angle_alpha 90.000000
_cell_angle_beta 113.556231
_cell_angle_gamma 90.000000
_cell_volume 2582.363791
_symmetry_space_group_name_H-M "C 2/C"
_symmetry_group_IT_number 15
_symmetry_cell_setting 'monoclinic'
loop_
_space_group_symop_operation_xyz
x,y,z
-x,y,1/2-z
-x,-y,-z
x,-y,1/2+z
1/2+x,1/2+y,z
1/2-x,1/2+y,1/2-z
1/2-x,1/2-y,-z
1/2+x,1/2-y,1/2+z
loop_
_atom_site_type_symbol
_atom_site_label
_atom_site_fract_x
_atom_site_fract_y
_atom_site_fract_z
Si Si1 0.838737 0.526310 0.030625
Si Si2 0.941471 0.960966 0.013564
Si Si3 0.413052 0.100856 0.285536
Si Si4 0.266022 0.143447 0.612564
Si Si5 0.851466 0.782480 0.408179
Si Si6 0.869175 0.695442 0.852827
Si Si7 0.500000 0.294899 0.250000
O O1 0.892523 0.564824 0.148226
O O2 0.787062 0.509520 0.072466
O O3 0.847616 0.364150 0.981771
O O4 0.835278 0.644245 0.931886
O O5 0.956463 0.896578 0.144909
O O6 0.906793 0.838194 0.914255
O O7 0.900662 0.105493 0.987136
O O8 0.000000 0.000000 0.000000
O O9 0.369649 0.215061 0.308074
O O10 0.471326 0.189079 0.317119
O O11 0.409244 0.945087 0.348811
O O12 0.250000 0.250000 0.500000
O O13 0.209891 0.136798 0.639117
O O14 0.320678 0.208314 0.721234
#
# Coordination Sequence:
#
# PCOD9284853 Si02
#       7
#     8   8   8   8   8   8   4
#     4   9  19  40  64  92 120 169 222 263 316 385
#     4  12  26  42  62  98 137 171 211 266 342 389
#     4  10  21  41  65  87 121 168 227 263 304 388
#     4   9  20  40  65  95 128 167 215 272 327 385
#     4  10  22  41  64  93 136 165 211 279 331 384
#     4  10  22  40  68  94 126 170 223 267 325 395
#     4  12  24  42  64  88 126 174 220 266 318 392
#
# _framework density 20.136589000000001
#
# number of rings (size 3 to 8) (size 9 to 14) (size 15 to 20)
#    0.000    1.846    3.077    0.000    0.000   10.462 
#    2.769    1.538    0.000    0.000    0.000    0.000 
#    0.000    0.000    0.000    0.000    0.000    0.000 
#
# Total GULP energy -144958.219365 kJ/mol
# GULP energy per Si atom -5575.316129 kJ/mol
# Density = 2.009076 g / cm^3
# Si number density = 20.136589 Si / 1000 Ang^3
#
#
#
# Elastic Constant Matrix: (Units=GPa)
#
#
# Indices 1 2 3 4 5 6 
#
# 1 117.1005 43.9570 16.6240 0.0000 4.5685 0.0000
# 2 43.9570 56.0494 16.7085 0.0000 8.5593 0.0000
# 3 16.6240 16.7085 85.9751 0.0000 1.4519 0.0000
# 4 0.0000 0.0000 0.0000 27.8565 0.0000 8.6328
# 5 4.5685 8.5593 1.4519 0.0000 24.2502 0.0000
# 6 0.0000 0.0000 0.0000 8.6328 0.0000 15.2854
#
#
#
# Elastic Compliance Matrix: (Units=1/GPa)
#
#
# Indices 1 2 3 4 5 6 
#
# 1 0.012153 -0.009548 -0.000513 0.000000 0.001111 0.000000
# 2 -0.009548 0.027512 -0.003370 0.000000 -0.007710 0.000000
# 3 -0.000513 -0.003370 0.012376 0.000000 0.000545 0.000000
# 4 0.000000 0.000000 0.000000 0.043514 0.000000 -0.024576
# 5 0.001111 -0.007710 0.000545 0.000000 0.043716 0.000000
# 6 0.000000 0.000000 0.000000 -0.024576 0.000000 0.079302
#
#
# Mechanical properties :
#
#
# Convention : Reuss Voigt Hill
#
# Bulk Modulus (GPa) = 39.71671 45.96712 42.84191
# Shear Modulus (GPa) = 19.69834 25.60078 22.64956
#
# Velocity S-wave (km/s) = 3.13107 3.56948 3.35744
# Velocity P-wave (km/s) = 5.73044 6.31391 6.02924
#
# Compressibility (1/GPa) = 0.02517832
#
# Stress axis : x y z
#
# Youngs Moduli (GPa) = 82.28226 36.34839 80.79981
#
# Poissons Ratio (x) = 0.34705 0.04146
# Poissons Ratio (y) = 0.78563 0.27232
# Poissons Ratio (z) = 0.04222 0.12250
#
# Static dielectric constant tensor:
#      x y z
#    x 1.789840 0.000000 0.004880 
#    y 0.000000 1.743660 0.000000 
#    z 0.004880 0.000000 1.713100 
# 
# From -- ./inp_files/122050.got.cif
#   From: 2010.05.17/outbox.cif.g08.bks.cpg/sg15_62_cif.got.tgz:122050.got - 2010.06.03 18:47:42.
