data_PCOD9284167
_publ_section_title
;
Structure prediction by ZEFSAII (Michael W. Deem and Ramdas Pophale) SiO2 
 PCOD9284167
Probable space group: C 2/C
;
_chemical_formula_sum "Si O2"
_cell_formula_units_Z 40
_cell_length_a 9.542582
_cell_length_b 14.304785
_cell_length_c 12.225787
_cell_angle_alpha 90.000000
_cell_angle_beta 57.357796
_cell_angle_gamma 90.000000
_cell_volume 1405.285871
_symmetry_space_group_name_H-M "C 2/C"
_symmetry_group_IT_number 15
_symmetry_cell_setting 'monoclinic'
loop_
_space_group_symop_operation_xyz
x,y,z
-x,y,1/2-z
-x,-y,-z
x,-y,1/2+z
1/2+x,1/2+y,z
1/2-x,1/2+y,1/2-z
1/2-x,1/2-y,-z
1/2+x,1/2-y,1/2+z
loop_
_atom_site_type_symbol
_atom_site_label
_atom_site_fract_x
_atom_site_fract_y
_atom_site_fract_z
Si Si1 0.112469 0.380972 0.054909
Si Si2 0.919066 0.960685 0.682201
Si Si3 0.758853 0.074231 0.036857
Si Si4 0.249853 0.849233 0.280282
Si Si5 0.477372 0.821592 0.636086
O O1 0.121250 0.491453 0.078776
O O2 0.246420 0.345886 0.087648
O O3 0.938329 0.334074 0.162625
O O4 0.130360 0.365746 0.917781
O O5 0.790378 0.046864 0.747231
O O6 0.000000 0.908053 0.750000
O O7 0.080241 0.021723 0.578173
O O8 0.833859 0.899855 0.624358
O O9 0.668865 0.160858 0.018135
O O10 0.105012 0.778440 0.310821
O O11 0.500000 0.861567 0.750000
#
# Coordination Sequence:
#
# PCOD9284167 Si02
#       5
#     8   8   8   8   8
#     4  10  23  46  70  90 143 184 225 270 354 407
#     4  10  21  40  67  92 134 178 223 273 343 406
#     4  10  24  40  65 103 132 179 224 283 334 405
#     4  10  23  43  70  93 132 192 222 278 343 405
#     4  12  26  39  67 104 136 174 233 286 330 401
#
# _framework density 28.463958000000002
#
# number of rings (size 3 to 8) (size 9 to 14) (size 15 to 20)
#    0.000    1.600    0.000    3.000    8.400    3.200 
#    0.000    6.000    0.000    0.000    0.000    0.000 
#    0.000    0.000    0.000    0.000    0.000    0.000 
#
# Total GULP energy -111697.451322 kJ/mol
# GULP energy per Si atom -5584.872566 kJ/mol
# Density = 2.839917 g / cm^3
# Si number density = 28.463958 Si / 1000 Ang^3
#
#
#
# Elastic Constant Matrix: (Units=GPa)
#
#
# Indices 1 2 3 4 5 6 
#
# 1 217.7871 45.2721 44.6985 0.0000 30.8579 0.0000
# 2 45.2721 92.5658 -1.6692 0.0000 -5.0842 0.0000
# 3 44.6985 -1.6692 74.1678 0.0000 39.9092 0.0000
# 4 0.0000 0.0000 0.0000 24.1337 0.0000 -9.1787
# 5 30.8579 -5.0842 39.9092 0.0000 82.9633 0.0000
# 6 0.0000 0.0000 0.0000 -9.1787 0.0000 69.1509
#
#
#
# Elastic Compliance Matrix: (Units=1/GPa)
#
#
# Indices 1 2 3 4 5 6 
#
# 1 0.006009 -0.003045 -0.003221 0.000000 -0.000872 0.000000
# 2 -0.003045 0.012384 0.001479 0.000000 0.001180 0.000000
# 3 -0.003221 0.001479 0.019920 0.000000 -0.008294 0.000000
# 4 0.000000 0.000000 0.000000 0.043639 0.000000 0.005792
# 5 -0.000872 0.001180 -0.008294 0.000000 0.016440 0.000000
# 6 0.000000 0.000000 0.000000 0.005792 0.000000 0.015230
#
#
# Mechanical properties :
#
#
# Convention : Reuss Voigt Hill
#
# Bulk Modulus (GPa) = 34.79518 62.34702 48.57110
# Shear Modulus (GPa) = 37.65752 54.99755 46.32754
#
# Velocity S-wave (km/s) = 3.64124 4.40043 4.03871
# Velocity P-wave (km/s) = 5.47074 6.91157 6.23293
#
# Compressibility (1/GPa) = 0.02873961
#
# Stress axis : x y z
#
# Youngs Moduli (GPa) = 166.41070 80.75026 50.20045
#
# Poissons Ratio (x) = 0.24588 0.16168
# Poissons Ratio (y) = 0.50672 -0.07424
# Poissons Ratio (z) = 0.53595 -0.11942
#
# Static dielectric constant tensor:
#      x y z
#    x 2.148780 0.000000 -0.038710 
#    y 0.000000 2.184980 0.000000 
#    z -0.038710 0.000000 2.705280 
# 
# From -- ./inp_files/133089.got.cif
#   From: 2010.05.17/outbox.cif.g08.bks.cpg/sg15_67_cif.got.tgz:133089.got - 2010.06.03 18:47:42.
