data_PCOD9284101
_publ_section_title
;
Structure prediction by ZEFSAII (Michael W. Deem and Ramdas Pophale) SiO2 
 PCOD9284101
Probable space group: C 2/C
;
_chemical_formula_sum "Si O2"
_cell_formula_units_Z 56
_cell_length_a 15.077211
_cell_length_b 26.616644
_cell_length_c 11.011577
_cell_angle_alpha 90.000000
_cell_angle_beta 31.680647
_cell_angle_gamma 90.000000
_cell_volume 2320.788230
_symmetry_space_group_name_H-M "C 2/C"
_symmetry_group_IT_number 15
_symmetry_cell_setting 'monoclinic'
loop_
_space_group_symop_operation_xyz
x,y,z
-x,y,1/2-z
-x,-y,-z
x,-y,1/2+z
1/2+x,1/2+y,z
1/2-x,1/2+y,1/2-z
1/2-x,1/2-y,-z
1/2+x,1/2-y,1/2+z
loop_
_atom_site_type_symbol
_atom_site_label
_atom_site_fract_x
_atom_site_fract_y
_atom_site_fract_z
Si Si1 0.500000 0.055996 0.250000
Si Si2 0.500000 0.822240 0.250000
Si Si3 0.853259 0.794550 0.316782
Si Si4 0.369749 0.852014 0.776906
Si Si5 0.117314 0.910356 0.494423
Si Si6 0.818620 0.499431 0.644267
Si Si7 0.281845 0.384342 0.774405
Si Si8 0.176995 0.311699 0.284737
O O1 0.549459 0.093409 0.300148
O O2 0.350055 0.021866 0.473267
O O3 0.355032 0.857707 0.479002
O O4 0.598414 0.792650 0.245770
O O5 0.750000 0.750000 0.500000
O O6 0.734333 0.842874 0.480634
O O7 0.824751 0.788565 0.201454
O O8 0.000000 0.798954 0.250000
O O9 0.237903 0.853600 0.824236
O O10 0.513503 0.814182 0.563782
O O11 0.192861 0.962761 0.359860
O O12 0.263301 0.868017 0.324899
O O13 0.000000 0.918331 0.750000
O O14 0.977355 0.884262 0.574788
O O15 0.760778 0.442670 0.695348
O O16 0.000000 0.500000 0.500000
#
# Coordination Sequence:
#
# PCOD9284101 Si02
#       8
#     4   4   8   8   8   8   8   8
#     4  12  21  38  66  86 132 174 238 280 350 417
#     4  10  21  40  66  96 130 198 232 280 344 433
#     4  12  25  44  76 112 140 173 223 292 363 430
#     4  11  21  41  66  95 130 179 219 281 352 420
#     4  12  24  40  61  97 137 181 244 298 350 421
#     4  12  24  40  58  91 129 188 239 303 355 410
#     4  11  23  38  60  90 134 181 242 283 352 410
#     4  11  21  43  67  99 142 178 235 279 355 428
#
# _framework density 24.129732000000001
#
# number of rings (size 3 to 8) (size 9 to 14) (size 15 to 20)
#    0.000    0.571    5.714    3.429    2.000    0.000 
#    0.000    0.714    0.000    7.714    7.429    0.000 
#    0.000    0.000    0.000    0.000    0.000    0.000 
#
# Total GULP energy -155883.024140 kJ/mol
# GULP energy per Si atom -5567.250862 kJ/mol
# Density = 2.407481 g / cm^3
# Si number density = 24.129732 Si / 1000 Ang^3
#
#
#
# Elastic Constant Matrix: (Units=GPa)
#
#
# Indices 1 2 3 4 5 6 
#
# 1 195.7943 4.1844 27.5987 0.0003 -14.3273 -0.0001
# 2 4.1844 41.0927 18.1339 -0.0001 0.6349 -0.0001
# 3 27.5987 18.1339 102.2069 0.0028 2.4063 -0.0001
# 4 0.0003 -0.0001 0.0028 73.6545 -0.0009 -8.2388
# 5 -14.3273 0.6349 2.4063 -0.0009 34.3476 0.0000
# 6 -0.0001 -0.0001 -0.0001 -8.2388 0.0000 13.5679
#
#
#
# Elastic Compliance Matrix: (Units=1/GPa)
#
#
# Indices 1 2 3 4 5 6 
#
# 1 0.005501 0.000090 -0.001558 0.000000 0.002402 0.000000
# 2 0.000090 0.026405 -0.004706 0.000000 -0.000121 0.000000
# 3 -0.001558 -0.004706 0.011071 0.000000 -0.001338 0.000000
# 4 0.000000 0.000000 0.000000 0.014566 0.000000 0.008845
# 5 0.002402 -0.000121 -0.001338 0.000000 0.030212 0.000000
# 6 0.000000 0.000000 0.000000 0.008845 0.000000 0.079074
#
#
# Mechanical properties :
#
#
# Convention : Reuss Voigt Hill
#
# Bulk Modulus (GPa) = 32.64898 48.76979 40.70939
# Shear Modulus (GPa) = 26.40092 43.59247 34.99669
#
# Velocity S-wave (km/s) = 3.31134 4.25501 3.81249
# Velocity P-wave (km/s) = 5.30848 6.66299 6.02393
#
# Compressibility (1/GPa) = 0.03062883
#
# Stress axis : x y z
#
# Youngs Moduli (GPa) = 181.79028 37.87189 90.32363
#
# Poissons Ratio (x) = -0.00342 0.14072
# Poissons Ratio (y) = -0.01641 0.42510
# Poissons Ratio (z) = 0.28322 0.17824
#
# Static dielectric constant tensor:
#      x y z
#    x 1.947060 0.000000 0.025770 
#    y 0.000000 1.993170 0.000000 
#    z 0.025770 0.000000 1.921540 
# 
# From -- ./inp_files/101786.got.cif
#   From: 2010.05.17/outbox.cif.g08.bks.cpg/sg15_51_cif.got.tgz:101786.got - 2010.06.03 18:47:42.
