data_PCOD9284259
_publ_section_title
;
Structure prediction by ZEFSAII (Michael W. Deem and Ramdas Pophale) SiO2 
 PCOD9284259
Probable space group: C 2/C
;
_chemical_formula_sum "Si O2"
_cell_formula_units_Z 48
_cell_length_a 12.413827
_cell_length_b 7.164427
_cell_length_c 26.867386
_cell_angle_alpha 90.000000
_cell_angle_beta 124.506753
_cell_angle_gamma 90.000000
_cell_volume 1969.115072
_symmetry_space_group_name_H-M "C 2/C"
_symmetry_group_IT_number 15
_symmetry_cell_setting 'monoclinic'
loop_
_space_group_symop_operation_xyz
x,y,z
-x,y,1/2-z
-x,-y,-z
x,-y,1/2+z
1/2+x,1/2+y,z
1/2-x,1/2+y,1/2-z
1/2-x,1/2-y,-z
1/2+x,1/2-y,1/2+z
loop_
_atom_site_type_symbol
_atom_site_label
_atom_site_fract_x
_atom_site_fract_y
_atom_site_fract_z
Si Si1 0.232083 0.764571 0.580899
Si Si2 0.444608 0.289216 0.059768
Si Si3 0.738327 0.845919 0.628985
Si Si4 0.125175 0.217217 0.432080
Si Si5 0.371475 0.532149 0.747161
Si Si6 0.851949 0.185545 0.340093
O O1 0.356147 0.811494 0.578726
O O2 0.113936 0.758727 0.510650
O O3 0.242873 0.557356 0.607184
O O4 0.207999 0.887720 0.623568
O O5 0.592550 0.224555 0.098030
O O6 0.417156 0.505823 0.064449
O O7 0.818144 0.743442 0.607300
O O8 0.815743 0.858725 0.700623
O O9 0.250000 0.250000 0.500000
O O10 0.979335 0.302912 0.391895
O O11 0.500000 0.594379 0.750000
O O12 0.259526 0.688091 0.714364
O O13 0.394547 0.463399 0.809279
#
# Coordination Sequence:
#
# PCOD9284259 Si02
#       6
#     8   8   8   8   8   8
#     4   9  21  40  64 104 137 175 229 284 347 422
#     4  10  21  40  69  99 141 183 220 285 360 416
#     4  10  21  40  68  91 138 181 224 281 353 413
#     4  11  24  42  66 103 142 181 232 295 349 420
#     4  11  25  48  69  98 140 187 230 295 346 416
#     4  11  25  45  74 100 139 187 239 286 353 413
#
# _framework density 24.376434
#
# number of rings (size 3 to 8) (size 9 to 14) (size 15 to 20)
#    0.000    1.667    1.667    1.500    2.333    9.333 
#    0.000    5.833    0.000    0.000    0.000    0.000 
#    0.000    0.000    0.000    0.000    0.000    0.000 
#
# Total GULP energy -134106.343234 kJ/mol
# GULP energy per Si atom -5587.764301 kJ/mol
# Density = 2.432095 g / cm^3
# Si number density = 24.376434 Si / 1000 Ang^3
#
#
#
# Elastic Constant Matrix: (Units=GPa)
#
#
# Indices 1 2 3 4 5 6 
#
# 1 149.3265 25.5247 69.6792 0.0000 0.7665 0.0000
# 2 25.5247 50.8139 19.7332 0.0000 -1.9631 0.0000
# 3 69.6792 19.7332 147.4130 0.0000 -13.8730 0.0000
# 4 0.0000 0.0000 0.0000 14.4495 0.0000 3.2451
# 5 0.7665 -1.9631 -13.8730 0.0000 64.3100 0.0000
# 6 0.0000 0.0000 0.0000 3.2451 0.0000 38.2914
#
#
#
# Elastic Compliance Matrix: (Units=1/GPa)
#
#
# Indices 1 2 3 4 5 6 
#
# 1 0.009084 -0.003057 -0.003984 0.000000 -0.001061 0.000000
# 2 -0.003057 0.021787 -0.001435 0.000000 0.000392 0.000000
# 3 -0.003984 -0.001435 0.009043 0.000000 0.001954 0.000000
# 4 0.000000 0.000000 0.000000 0.070549 0.000000 -0.005979
# 5 -0.001061 0.000392 0.001954 0.000000 0.015996 0.000000
# 6 0.000000 0.000000 0.000000 -0.005979 0.000000 0.026622
#
#
# Mechanical properties :
#
#
# Convention : Reuss Voigt Hill
#
# Bulk Modulus (GPa) = 43.54935 64.15865 53.85400
# Shear Modulus (GPa) = 28.13926 38.91794 33.52860
#
# Velocity S-wave (km/s) = 3.40128 4.00001 3.71273
# Velocity P-wave (km/s) = 5.77313 6.90728 6.36551
#
# Compressibility (1/GPa) = 0.02296246
#
# Stress axis : x y z
#
# Youngs Moduli (GPa) = 110.08467 45.89803 110.58219
#
# Poissons Ratio (x) = 0.14030 0.44061
# Poissons Ratio (y) = 0.33649 0.15867
# Poissons Ratio (z) = 0.43863 0.06586
#
# Static dielectric constant tensor:
#      x y z
#    x 1.993560 0.000000 0.012040 
#    y 0.000000 2.112060 0.000000 
#    z 0.012040 0.000000 1.979050 
# 
# From -- ./inp_files/268079.got.cif
#   From: 2010.05.17/outbox.cif.g08.bks.cpg/sg15_135_cif.got.tgz:268079.got - 2010.06.03 18:47:42.
