data_PCOD9284767
_publ_section_title
;
Structure prediction by ZEFSAII (Michael W. Deem and Ramdas Pophale) SiO2 
 PCOD9284767
Probable space group: C 2/C
;
_chemical_formula_sum "Si O2"
_cell_formula_units_Z 44
_cell_length_a 14.803403
_cell_length_b 11.499370
_cell_length_c 20.212660
_cell_angle_alpha 90.000000
_cell_angle_beta 37.035067
_cell_angle_gamma 90.000000
_cell_volume 2072.404918
_symmetry_space_group_name_H-M "C 2/C"
_symmetry_group_IT_number 15
_symmetry_cell_setting 'monoclinic'
loop_
_space_group_symop_operation_xyz
x,y,z
-x,y,1/2-z
-x,-y,-z
x,-y,1/2+z
1/2+x,1/2+y,z
1/2-x,1/2+y,1/2-z
1/2-x,1/2-y,-z
1/2+x,1/2-y,1/2+z
loop_
_atom_site_type_symbol
_atom_site_label
_atom_site_fract_x
_atom_site_fract_y
_atom_site_fract_z
Si Si1 0.047709 0.908771 0.144270
Si Si2 0.445158 0.837753 0.654265
Si Si3 0.847063 0.118527 0.248146
Si Si4 0.403163 0.189365 0.889653
Si Si5 0.000000 0.497664 0.750000
Si Si6 0.346501 0.991475 0.520383
O O1 0.217930 0.953795 0.047646
O O2 0.000000 0.898476 0.250000
O O3 0.018136 0.785974 0.127618
O O4 0.945988 0.007441 0.169688
O O5 0.272279 0.832590 0.733976
O O6 0.538382 0.902029 0.541026
O O7 0.456994 0.916832 0.713608
O O8 0.966849 0.216989 0.197989
O O9 0.748377 0.067642 0.366292
O O10 0.379507 0.093506 0.845933
O O11 0.250000 0.250000 0.000000
O O12 0.442315 0.109260 0.929578
#
# Coordination Sequence:
#
# PCOD9284767 Si02
#       6
#     8   8   8   8   4   8
#     4  10  21  41  64  90 131 172 214 259 328 392
#     4  11  23  42  65  94 134 170 217 275 323 384
#     4  11  24  41  66 102 128 171 221 275 319 387
#     4  11  21  41  66  91 131 171 217 265 326 390
#     4  10  24  40  64  92 128 172 216 262 330 382
#     4  10  22  41  67  92 126 179 220 259 328 396
#
# _framework density 21.231372
#
# number of rings (size 3 to 8) (size 9 to 14) (size 15 to 20)
#    0.000    1.455    2.727    2.182    6.364    0.000 
#    0.000    0.909    0.000    0.000    0.000    0.000 
#    0.000    0.000    0.000    0.000    0.000    0.000 
#
# Total GULP energy -122650.518226 kJ/mol
# GULP energy per Si atom -5575.023556 kJ/mol
# Density = 2.118305 g / cm^3
# Si number density = 21.231372 Si / 1000 Ang^3
#
#
#
# Elastic Constant Matrix: (Units=GPa)
#
#
# Indices 1 2 3 4 5 6 
#
# 1 87.3457 50.5336 33.1255 0.0000 -22.5099 0.0000
# 2 50.5336 153.0547 43.1858 0.0000 -8.9318 0.0000
# 3 33.1255 43.1858 76.8102 0.0000 -18.2575 0.0000
# 4 0.0000 0.0000 0.0000 32.4974 0.0000 -2.5340
# 5 -22.5099 -8.9318 -18.2575 0.0000 27.2097 0.0000
# 6 0.0000 0.0000 0.0000 -2.5340 0.0000 -33.5720
#
#
#
# Elastic Compliance Matrix: (Units=1/GPa)
#
#
# Indices 1 2 3 4 5 6 
#
# 1 0.018066 -0.004599 -0.002393 0.000000 0.011830 0.000000
# 2 -0.004599 0.008941 -0.003867 0.000000 -0.003465 0.000000
# 3 -0.002393 -0.003867 0.018386 0.000000 0.009087 0.000000
# 4 0.000000 0.000000 0.000000 0.030592 0.000000 -0.002309
# 5 0.011830 -0.003465 0.009087 0.000000 0.051498 0.000000
# 6 0.000000 0.000000 0.000000 -0.002309 0.000000 -0.029612
#
#
# Mechanical properties :
#
#
# Convention : Reuss Voigt Hill
#
# Bulk Modulus (GPa) = 42.24194 63.43335 52.83764
# Shear Modulus (GPa) = 39.22175 17.91807 28.56991
#
# Velocity S-wave (km/s) = 4.30274 2.90822 3.67228
# Velocity P-wave (km/s) = 6.68012 6.42021 6.55145
#
# Compressibility (1/GPa) = 0.02367316
#
# Stress axis : x y z
#
# Youngs Moduli (GPa) = 55.35275 111.84391 54.39063
#
# Poissons Ratio (x) = 0.51438 0.13018
# Poissons Ratio (y) = 0.25457 0.21033
# Poissons Ratio (z) = 0.13249 0.43251
#
# Static dielectric constant tensor:
#      x y z
#    x 1.798710 0.000000 0.044480 
#    y 0.000000 1.781120 0.000000 
#    z 0.044480 0.000000 1.839010 
# 
# From -- ./inp_files/243597.got.cif
#   From: 2010.05.17/outbox.cif.g08.bks.cpg/sg15_122_cif.got.tgz:243597.got - 2010.06.03 18:47:42.
