data_PCOD9284169
_publ_section_title
;
Structure prediction by ZEFSAII (Michael W. Deem and Ramdas Pophale) SiO2 
 PCOD9284169
Probable space group: C 2/C
;
_chemical_formula_sum "Si O2"
_cell_formula_units_Z 48
_cell_length_a 21.888632
_cell_length_b 8.187366
_cell_length_c 12.073858
_cell_angle_alpha 90.000000
_cell_angle_beta 119.517162
_cell_angle_gamma 90.000000
_cell_volume 1882.920743
_symmetry_space_group_name_H-M "C 2/C"
_symmetry_group_IT_number 15
_symmetry_cell_setting 'monoclinic'
loop_
_space_group_symop_operation_xyz
x,y,z
-x,y,1/2-z
-x,-y,-z
x,-y,1/2+z
1/2+x,1/2+y,z
1/2-x,1/2+y,1/2-z
1/2-x,1/2-y,-z
1/2+x,1/2-y,1/2+z
loop_
_atom_site_type_symbol
_atom_site_label
_atom_site_fract_x
_atom_site_fract_y
_atom_site_fract_z
Si Si1 0.155654 0.674223 0.851498
Si Si2 0.370162 0.690052 0.734567
Si Si3 0.540777 0.380024 0.677509
Si Si4 0.663036 0.859337 0.985643
Si Si5 0.787561 0.673787 0.367719
Si Si6 0.507774 0.825830 0.947910
O O1 0.077742 0.712731 0.748060
O O2 0.164892 0.484193 0.882486
O O3 0.210602 0.754910 0.817792
O O4 0.170198 0.743946 0.987720
O O5 0.396692 0.507947 0.784340
O O6 0.328313 0.694559 0.579186
O O7 0.323091 0.762228 0.790009
O O8 0.444790 0.788847 0.806591
O O9 0.500000 0.440978 0.750000
O O10 0.501530 0.321739 0.532461
O O11 0.586484 0.830802 0.970292
O O12 0.705298 0.976434 0.109226
O O13 0.500000 0.000000 0.000000
#
# Coordination Sequence:
#
# PCOD9284169 Si02
#       6
#     8   8   8   8   8   8
#     4   9  21  43  67  91 127 172 215 272 326 386
#     4  12  24  40  64  99 135 171 218 273 330 392
#     4  12  25  41  64  97 137 170 215 275 336 387
#     4  10  21  40  67  93 124 170 227 263 316 399
#     4   9  21  43  67  90 133 167 220 273 325 386
#     4  12  22  40  65  94 127 172 217 269 324 390
#
# _framework density 25.492308999999999
#
# number of rings (size 3 to 8) (size 9 to 14) (size 15 to 20)
#    1.000    0.333    1.667    5.000    0.000    2.667 
#    0.000    0.833    0.000    0.000    0.000    0.000 
#    0.000    0.000    0.000    0.000    0.000    0.000 
#
# Total GULP energy -133895.432522 kJ/mol
# GULP energy per Si atom -5578.976355 kJ/mol
# Density = 2.543429 g / cm^3
# Si number density = 25.492309 Si / 1000 Ang^3
#
#
#
# Elastic Constant Matrix: (Units=GPa)
#
#
# Indices 1 2 3 4 5 6 
#
# 1 96.5426 9.8949 50.8165 0.0000 -33.6320 0.0000
# 2 9.8949 91.5207 44.7371 0.0000 -7.1537 0.0000
# 3 50.8165 44.7371 71.6192 0.0000 -22.0942 0.0000
# 4 0.0000 0.0000 0.0000 25.9062 0.0000 15.4643
# 5 -33.6320 -7.1537 -22.0942 0.0000 50.1406 0.0000
# 6 0.0000 0.0000 0.0000 15.4643 0.0000 20.7752
#
#
#
# Elastic Compliance Matrix: (Units=1/GPa)
#
#
# Indices 1 2 3 4 5 6 
#
# 1 0.021179 0.006464 -0.016663 0.000000 0.007785 0.000000
# 2 0.006464 0.017959 -0.015828 0.000000 -0.000077 0.000000
# 3 -0.016663 -0.015828 0.036488 0.000000 0.002643 0.000000
# 4 0.000000 0.000000 0.000000 0.069468 0.000000 -0.051709
# 5 0.007785 -0.000077 0.002643 0.000000 0.026320 0.000000
# 6 0.000000 0.000000 0.000000 -0.051709 0.000000 0.086625
#
#
# Mechanical properties :
#
#
# Convention : Reuss Voigt Hill
#
# Bulk Modulus (GPa) = 42.42418 52.28662 47.35540
# Shear Modulus (GPa) = 15.72578 29.64665 22.68622
#
# Velocity S-wave (km/s) = 2.48641 3.41393 2.98640
# Velocity P-wave (km/s) = 4.99210 6.00792 5.52341
#
# Compressibility (1/GPa) = 0.02357146
#
# Stress axis : x y z
#
# Youngs Moduli (GPa) = 47.21760 55.68337 27.40609
#
# Poissons Ratio (x) = -0.35994 0.45667
# Poissons Ratio (y) = -0.30521 0.43378
# Poissons Ratio (z) = 0.78679 0.88136
#
# Static dielectric constant tensor:
#      x y z
#    x 1.978990 0.000000 0.006010 
#    y 0.000000 2.048140 0.000000 
#    z 0.006010 0.000000 2.063550 
# 
# From -- ./inp_files/116450.got.cif
#   From: 2010.05.17/outbox.cif.g08.bks.cpg/sg15_59_cif.got.tgz:116450.got - 2010.06.03 18:47:42.
