data_PCOD9284420
_publ_section_title
;
Structure prediction by ZEFSAII (Michael W. Deem and Ramdas Pophale) SiO2 
 PCOD9284420
Probable space group: C 2/C
;
_chemical_formula_sum "Si O2"
_cell_formula_units_Z 52
_cell_length_a 9.574586
_cell_length_b 15.428281
_cell_length_c 27.704760
_cell_angle_alpha 90.000000
_cell_angle_beta 29.196405
_cell_angle_gamma 90.000000
_cell_volume 1996.356434
_symmetry_space_group_name_H-M "C 2/C"
_symmetry_group_IT_number 15
_symmetry_cell_setting 'monoclinic'
loop_
_space_group_symop_operation_xyz
x,y,z
-x,y,1/2-z
-x,-y,-z
x,-y,1/2+z
1/2+x,1/2+y,z
1/2-x,1/2+y,1/2-z
1/2-x,1/2-y,-z
1/2+x,1/2-y,1/2+z
loop_
_atom_site_type_symbol
_atom_site_label
_atom_site_fract_x
_atom_site_fract_y
_atom_site_fract_z
Si Si1 0.537834 0.938995 0.036948
Si Si2 0.000000 0.444243 0.250000
Si Si3 0.799155 0.291955 0.248243
Si Si4 0.232246 0.145493 0.116074
Si Si5 0.000000 0.989091 0.750000
Si Si6 0.158492 0.673354 0.062842
Si Si7 0.000000 0.734759 0.250000
Si Si8 0.125327 0.914161 0.913269
O O1 0.616476 0.853249 0.981487
O O2 0.529950 0.882719 0.916682
O O3 0.818878 0.942390 0.985374
O O4 0.500000 0.000000 0.000000
O O5 0.195808 0.379925 0.223121
O O6 0.167804 0.505918 0.162453
O O7 0.761739 0.451916 0.152931
O O8 0.695083 0.294732 0.225183
O O9 0.098213 0.240446 0.164274
O O10 0.435586 0.224061 0.162914
O O11 0.982943 0.076406 0.207494
O O12 0.365334 0.617530 0.033973
O O13 0.250000 0.750000 0.000000
O O14 0.763553 0.667848 0.343305
#
# Coordination Sequence:
#
# PCOD9284420 Si02
#       8
#     8   4   8   8   4   8   4   8
#     4  10  23  43  77 112 161 213 271 341 422 497
#     4  11  23  42  78 128 168 204 266 345 417 486
#     4  11  20  43  77 113 156 211 264 328 402 499
#     4  11  20  45  79 108 153 212 269 332 413 493
#     4  10  21  40  71 110 158 218 262 342 426 488
#     4  11  24  45  78 108 155 219 266 328 407 495
#     4   9  20  40  83 110 154 218 270 321 407 492
#     4  10  23  45  75 117 162 205 268 346 408 484
#
# _framework density 26.047454999999999
#
# number of rings (size 3 to 8) (size 9 to 14) (size 15 to 20)
#    0.000    1.538    4.615    0.000    0.000    2.462 
#    0.000   12.308    6.769    1.846    0.000    0.000 
#    0.000    0.000    0.000    0.000    0.000    0.000 
#
# Total GULP energy -145080.477487 kJ/mol
# GULP energy per Si atom -5580.018365 kJ/mol
# Density = 2.598817 g / cm^3
# Si number density = 26.047455 Si / 1000 Ang^3
#
#
#
# Elastic Constant Matrix: (Units=GPa)
#
#
# Indices 1 2 3 4 5 6 
#
# 1 179.4361 79.2729 48.5090 0.1012 -17.1112 -0.0212
# 2 79.2729 121.9560 54.2753 -0.0057 12.0301 -0.0031
# 3 48.5090 54.2753 145.8524 0.4112 5.2730 -0.1904
# 4 0.1012 -0.0057 0.4112 11.1334 -0.1496 18.2179
# 5 -17.1112 12.0301 5.2730 -0.1496 31.9524 0.0409
# 6 -0.0212 -0.0031 -0.1904 18.2179 0.0409 33.7938
#
#
#
# Elastic Compliance Matrix: (Units=1/GPa)
#
#
# Indices 1 2 3 4 5 6 
#
# 1 0.009409 -0.006414 -0.001020 0.000569 0.007625 -0.000317
# 2 -0.006414 0.014519 -0.002968 0.000658 -0.008408 -0.000364
# 3 -0.001020 -0.002968 0.008341 -0.003295 -0.000823 0.001824
# 4 0.000569 0.000658 -0.003295 0.763881 0.004705 -0.411825
# 5 0.007625 -0.008408 -0.000823 0.004705 0.038707 -0.002584
# 6 -0.000317 -0.000364 0.001824 -0.411825 -0.002584 0.251616
#
#
# Mechanical properties :
#
#
# Convention : Reuss Voigt Hill
#
# Bulk Modulus (GPa) = 87.22152 90.15100 88.68626
# Shear Modulus (GPa) = 4.50004 33.05508 18.77756
#
# Velocity S-wave (km/s) = 1.31582 3.56621 2.68787
# Velocity P-wave (km/s) = 5.98889 7.18628 6.61473
#
# Compressibility (1/GPa) = 0.01146506
#
# Stress axis : x y z
#
# Youngs Moduli (GPa) = 106.27622 68.87314 119.88284
#
# Poissons Ratio (x) = 0.44178 0.12231
# Poissons Ratio (y) = 0.68170 0.35582
# Poissons Ratio (z) = 0.10843 0.20442
#
# Static dielectric constant tensor:
#      x y z
#    x 2.434070 0.041420 0.092400 
#    y 0.041420 -1.252940 0.026960 
#    z 0.092400 0.026960 2.210150 
# 
# From -- ./inp_files/308214.got.cif
#   From: 2010.05.17/outbox.cif.g08.bks.cpg/sg15_155_cif.got.tgz:308214.got - 2010.06.03 18:47:42.
