data_PCOD9284836
_publ_section_title
;
Structure prediction by ZEFSAII (Michael W. Deem and Ramdas Pophale) SiO2 
 PCOD9284836
Probable space group: C 2/C
;
_chemical_formula_sum "Si O2"
_cell_formula_units_Z 44
_cell_length_a 12.292116
_cell_length_b 13.545561
_cell_length_c 11.832891
_cell_angle_alpha 90.000000
_cell_angle_beta 96.219495
_cell_angle_gamma 90.000000
_cell_volume 1958.622639
_symmetry_space_group_name_H-M "C 2/C"
_symmetry_group_IT_number 15
_symmetry_cell_setting 'monoclinic'
loop_
_space_group_symop_operation_xyz
x,y,z
-x,y,1/2-z
-x,-y,-z
x,-y,1/2+z
1/2+x,1/2+y,z
1/2-x,1/2+y,1/2-z
1/2-x,1/2-y,-z
1/2+x,1/2-y,1/2+z
loop_
_atom_site_type_symbol
_atom_site_label
_atom_site_fract_x
_atom_site_fract_y
_atom_site_fract_z
Si Si1 0.141271 0.289081 0.632182
Si Si2 0.530852 0.958206 0.877590
Si Si3 0.856625 0.116052 0.046140
Si Si4 0.793972 0.277438 0.341313
Si Si5 0.500000 0.706073 0.250000
Si Si6 0.732764 0.585088 0.022559
O O1 0.125780 0.195871 0.549599
O O2 0.238435 0.356916 0.589438
O O3 0.188869 0.248907 0.754861
O O4 0.033129 0.353857 0.629346
O O5 0.500000 0.002825 0.750000
O O6 0.661889 0.949180 0.894663
O O7 0.500000 0.000000 0.000000
O O8 0.948962 0.136658 0.148552
O O9 0.848832 0.005207 0.000774
O O10 0.776975 0.377649 0.406607
O O11 0.813015 0.184639 0.427042
O O12 0.900618 0.275323 0.276613
#
# Coordination Sequence:
#
# PCOD9284836 Si02
#       6
#     8   8   8   8   4   8
#     4  10  21  41  64  99 135 184 223 288 354 424
#     4  12  24  43  71 108 145 184 237 297 358 431
#     4  10  22  40  66  94 137 175 232 282 351 415
#     4  10  23  42  69  93 134 180 234 287 355 424
#     4  10  22  44  64  94 134 182 232 282 344 440
#     4  11  23  43  66 100 135 179 230 297 351 419
#
# _framework density 22.464763999999999
#
# number of rings (size 3 to 8) (size 9 to 14) (size 15 to 20)
#    0.000    1.455    3.636    1.091    0.000    5.091 
#    6.545    3.636    2.000    0.000    0.000    0.000 
#    0.000    0.000    0.000    0.000    0.000    0.000 
#
# Total GULP energy -122996.697445 kJ/mol
# GULP energy per Si atom -5590.758975 kJ/mol
# Density = 2.241363 g / cm^3
# Si number density = 22.464764 Si / 1000 Ang^3
#
#
#
# Elastic Constant Matrix: (Units=GPa)
#
#
# Indices 1 2 3 4 5 6 
#
# 1 57.6273 19.8396 22.3161 0.0000 12.6773 0.0000
# 2 19.8396 103.5748 51.7980 0.0000 21.5614 0.0000
# 3 22.3161 51.7980 128.4949 0.0000 23.3222 0.0000
# 4 0.0000 0.0000 0.0000 4.9807 0.0000 -12.2569
# 5 12.6773 21.5614 23.3222 0.0000 31.3402 0.0000
# 6 0.0000 0.0000 0.0000 -12.2569 0.0000 18.4949
#
#
#
# Elastic Compliance Matrix: (Units=1/GPa)
#
#
# Indices 1 2 3 4 5 6 
#
# 1 0.019851 -0.001792 -0.001724 0.000000 -0.005513 0.000000
# 2 -0.001792 0.013109 -0.004009 0.000000 -0.005310 0.000000
# 3 -0.001724 -0.004009 0.010487 0.000000 -0.004349 0.000000
# 4 0.000000 0.000000 0.000000 -0.318254 0.000000 -0.210912
# 5 -0.005513 -0.005310 -0.004349 0.000000 0.041027 0.000000
# 6 0.000000 0.000000 0.000000 -0.210912 0.000000 -0.085706
#
#
# Mechanical properties :
#
#
# Convention : Reuss Voigt Hill
#
# Bulk Modulus (GPa) = 35.21763 53.06716 44.14240
# Shear Modulus (GPa) = -16.95091 24.01271 3.53090
#
# Velocity S-wave (km/s) = -2.74990 3.27296 1.25506
# Velocity P-wave (km/s) = 2.37240 6.16090 4.66824
#
# Compressibility (1/GPa) = 0.02839487
#
# Stress axis : x y z
#
# Youngs Moduli (GPa) = 50.37641 76.28608 95.35344
#
# Poissons Ratio (x) = 0.13672 0.16442
# Poissons Ratio (y) = 0.09029 0.38229
# Poissons Ratio (z) = 0.08687 0.30585
#
# Static dielectric constant tensor:
#      x y z
#    x 1.834250 0.000000 -0.062150 
#    y 0.000000 1.791720 0.000000 
#    z -0.062150 0.000000 1.892940 
# 
# From -- ./inp_files/86177.got.cif
#   From: 2010.05.17/outbox.cif.g08.bks.cpg/sg15_44_cif.got.tgz:86177.got - 2010.06.03 18:47:42.
