data_PCOD9284307
_publ_section_title
;
Structure prediction by ZEFSAII (Michael W. Deem and Ramdas Pophale) SiO2 
 PCOD9284307
Probable space group: C 2/C
;
_chemical_formula_sum "Si O2"
_cell_formula_units_Z 60
_cell_length_a 19.194438
_cell_length_b 19.025618
_cell_length_c 11.005547
_cell_angle_alpha 90.000000
_cell_angle_beta 136.334951
_cell_angle_gamma 90.000000
_cell_volume 2774.933284
_symmetry_space_group_name_H-M "C 2/C"
_symmetry_group_IT_number 15
_symmetry_cell_setting 'monoclinic'
loop_
_space_group_symop_operation_xyz
x,y,z
-x,y,1/2-z
-x,-y,-z
x,-y,1/2+z
1/2+x,1/2+y,z
1/2-x,1/2+y,1/2-z
1/2-x,1/2-y,-z
1/2+x,1/2-y,1/2+z
loop_
_atom_site_type_symbol
_atom_site_label
_atom_site_fract_x
_atom_site_fract_y
_atom_site_fract_z
Si Si1 0.294373 0.175238 0.599305
Si Si2 0.085664 0.750315 0.105212
Si Si3 0.236626 0.139048 0.895634
Si Si4 0.614700 0.228996 0.539737
Si Si5 0.265071 0.360145 0.825925
Si Si6 0.500000 0.207306 0.750000
Si Si7 0.387211 0.437247 0.621051
Si Si8 0.315426 0.499902 0.777074
O O1 0.250000 0.250000 0.500000
O O2 0.331732 0.187205 0.783424
O O3 0.399082 0.163633 0.657816
O O4 0.204355 0.118974 0.483152
O O5 0.139635 0.821317 0.216372
O O6 0.171335 0.692073 0.196074
O O7 0.028074 0.753203 0.903750
O O8 0.003793 0.723737 0.098352
O O9 0.327328 0.195531 0.000439
O O10 0.252381 0.066488 0.845212
O O11 0.221888 0.121546 0.017119
O O12 0.640485 0.311006 0.589265
O O13 0.256713 0.428672 0.734780
O O14 0.500000 0.407429 0.750000
O O15 0.380600 0.482641 0.738076
O O16 0.369160 0.479754 0.472045
#
# Coordination Sequence:
#
# PCOD9284307 Si02
#       8
#     8   8   8   8   8   4   8   8
#     4  11  22  39  66  99 137 175 226 282 342 410
#     4  10  22  41  69 101 132 173 232 282 345 405
#     4  11  23  43  68  97 137 177 226 283 343 414
#     4  10  21  40  68  99 129 171 224 283 336 404
#     4  11  24  45  67  98 138 180 223 288 344 410
#     4  10  22  38  66 102 140 174 222 286 350 404
#     4  12  27  45  72 100 141 183 230 284 350 420
#     4  12  25  48  67  98 141 183 229 279 350 415
#
# _framework density 21.622140000000002
#
# number of rings (size 3 to 8) (size 9 to 14) (size 15 to 20)
#    0.000    1.067    2.667    5.200    0.933    5.333 
#    0.000    0.667    2.933    0.000    0.000    0.000 
#    0.000    0.000    0.000    0.000    0.000    0.000 
#
# Total GULP energy -167610.313422 kJ/mol
# GULP energy per Si atom -5587.010447 kJ/mol
# Density = 2.157293 g / cm^3
# Si number density = 21.622140 Si / 1000 Ang^3
#
#
#
# Elastic Constant Matrix: (Units=GPa)
#
#
# Indices 1 2 3 4 5 6 
#
# 1 111.6169 28.7421 50.3083 0.0000 0.3097 0.0000
# 2 28.7421 105.2448 34.2452 0.0000 -3.0388 0.0000
# 3 50.3083 34.2452 100.1733 0.0000 -8.8505 0.0000
# 4 0.0000 0.0000 0.0000 23.2347 0.0000 -11.5566
# 5 0.3097 -3.0388 -8.8505 0.0000 47.8143 0.0000
# 6 0.0000 0.0000 0.0000 -11.5566 0.0000 28.1835
#
#
#
# Elastic Compliance Matrix: (Units=1/GPa)
#
#
# Indices 1 2 3 4 5 6 
#
# 1 0.011842 -0.001462 -0.005553 0.000000 -0.001198 0.000000
# 2 -0.001462 0.010871 -0.002969 0.000000 0.000151 0.000000
# 3 -0.005553 -0.002969 0.014002 0.000000 0.002439 0.000000
# 4 0.000000 0.000000 0.000000 0.054066 0.000000 0.022170
# 5 -0.001198 0.000151 0.002439 0.000000 0.021383 0.000000
# 6 0.000000 0.000000 0.000000 0.022170 0.000000 0.044572
#
#
# Mechanical properties :
#
#
# Convention : Reuss Voigt Hill
#
# Bulk Modulus (GPa) = 59.71097 60.40292 60.05695
# Shear Modulus (GPa) = 27.42922 33.42912 30.42917
#
# Velocity S-wave (km/s) = 3.56556 3.93626 3.75549
# Velocity P-wave (km/s) = 6.68032 6.97533 6.82942
#
# Compressibility (1/GPa) = 0.01674734
#
# Stress axis : x y z
#
# Youngs Moduli (GPa) = 84.44588 91.98557 71.41766
#
# Poissons Ratio (x) = 0.13445 0.39660
# Poissons Ratio (y) = 0.12343 0.21205
# Poissons Ratio (z) = 0.46895 0.27311
#
# Static dielectric constant tensor:
#      x y z
#    x 1.868780 0.000000 -0.045190 
#    y 0.000000 1.762860 0.000000 
#    z -0.045190 0.000000 1.800450 
# 
# From -- ./inp_files/113835.got.cif
#   From: 2010.05.17/outbox.cif.g08.bks.cpg/sg15_57_cif.got.tgz:113835.got - 2010.06.03 18:47:42.
