data_PCOD9284444
_publ_section_title
;
Structure prediction by ZEFSAII (Michael W. Deem and Ramdas Pophale) SiO2 
 PCOD9284444
Probable space group: C 2/C
;
_chemical_formula_sum "Si O2"
_cell_formula_units_Z 32
_cell_length_a 7.844898
_cell_length_b 18.978956
_cell_length_c 17.622532
_cell_angle_alpha 90.000000
_cell_angle_beta 26.176875
_cell_angle_gamma 90.000000
_cell_volume 1157.465317
_symmetry_space_group_name_H-M "C 2/C"
_symmetry_group_IT_number 15
_symmetry_cell_setting 'monoclinic'
loop_
_space_group_symop_operation_xyz
x,y,z
-x,y,1/2-z
-x,-y,-z
x,-y,1/2+z
1/2+x,1/2+y,z
1/2-x,1/2+y,1/2-z
1/2-x,1/2-y,-z
1/2+x,1/2-y,1/2+z
loop_
_atom_site_type_symbol
_atom_site_label
_atom_site_fract_x
_atom_site_fract_y
_atom_site_fract_z
Si Si1 0.334836 0.362307 0.440122
Si Si2 0.315030 0.266931 0.739655
Si Si3 0.480530 0.977463 0.668297
Si Si4 0.783411 0.607404 0.019037
O O1 0.689696 0.312911 0.273516
O O2 0.082761 0.310741 0.595076
O O3 0.335540 0.432935 0.489513
O O4 0.087046 0.380958 0.465004
O O5 0.500000 0.267254 0.750000
O O6 0.582429 0.317105 0.580906
O O7 0.500000 0.970362 0.750000
O O8 0.528251 0.056066 0.618082
O O9 0.083135 0.938752 0.803341
#
# Coordination Sequence:
#
# PCOD9284444 Si02
#       4
#     8   8   8   8
#     4   9  18  36  68 104 142 189 240 296 361 436
#     4   8  16  35  68 104 142 184 239 299 358 430
#     4  11  22  39  67 109 152 188 234 301 374 440
#     4  10  21  40  72 107 143 190 241 301 368 438
#
# _framework density 27.646616000000002
#
# number of rings (size 3 to 8) (size 9 to 14) (size 15 to 20)
#    0.000    2.500    0.000    3.750    0.000    0.000 
#    0.000    3.750    0.000  108.000    0.000    7.000 
#    0.000    0.000    0.000    0.000    0.000    0.000 
#
# Total GULP energy -89657.760131 kJ/mol
# GULP energy per Si atom -5603.610008 kJ/mol
# Density = 2.758369 g / cm^3
# Si number density = 27.646616 Si / 1000 Ang^3
#
#
#
# Elastic Constant Matrix: (Units=GPa)
#
#
# Indices 1 2 3 4 5 6 
#
# 1 110.3218 62.8632 42.7015 -0.0658 13.0531 0.0831
# 2 62.8632 286.9489 79.9394 -0.0596 11.9865 0.0704
# 3 42.7015 79.9394 188.1370 -0.0402 10.5496 0.0818
# 4 -0.0658 -0.0596 -0.0402 65.3751 0.0793 -11.3205
# 5 13.0531 11.9865 10.5496 0.0793 36.8202 -0.0764
# 6 0.0831 0.0704 0.0818 -11.3205 -0.0764 41.7037
#
#
#
# Elastic Compliance Matrix: (Units=1/GPa)
#
#
# Indices 1 2 3 4 5 6 
#
# 1 0.011073 -0.001872 -0.001557 0.000009 -0.002870 -0.000019
# 2 -0.001872 0.004294 -0.001381 0.000001 -0.000339 -0.000001
# 3 -0.001557 -0.001381 0.006300 0.000001 -0.000804 -0.000008
# 4 0.000009 0.000001 0.000001 0.016051 -0.000029 0.004357
# 5 -0.002870 -0.000339 -0.000804 -0.000029 0.028517 0.000052
# 6 -0.000019 -0.000001 -0.000008 0.004357 0.000052 0.025162
#
#
# Mechanical properties :
#
#
# Convention : Reuss Voigt Hill
#
# Bulk Modulus (GPa) = 82.99953 106.26843 94.63398
# Shear Modulus (GPa) = 47.60426 55.44003 51.52215
#
# Velocity S-wave (km/s) = 4.15406 4.48293 4.32162
# Velocity P-wave (km/s) = 7.28664 8.08190 7.69455
#
# Compressibility (1/GPa) = 0.01204826
#
# Stress axis : x y z
#
# Youngs Moduli (GPa) = 90.30596 232.89140 158.72275
#
# Poissons Ratio (x) = 0.43604 0.24711
# Poissons Ratio (y) = 0.16908 0.21912
# Poissons Ratio (z) = 0.14059 0.32151
#
# Static dielectric constant tensor:
#      x y z
#    x 2.009140 -0.000060 -0.050060 
#    y -0.000060 2.163610 0.000090 
#    z -0.050060 0.000090 2.301100 
# 
# From -- ./inp_files/232421.got.cif
#   From: 2010.05.17/outbox.cif.g08.bks.cpg/sg15_117_cif.got.tgz:232421.got - 2010.06.03 18:47:42.
