data_PCOD9284943
_publ_section_title
;
Structure prediction by ZEFSAII (Michael W. Deem and Ramdas Pophale) SiO2 
 PCOD9284943
Probable space group: C 2/C
;
_chemical_formula_sum "Si O2"
_cell_formula_units_Z 44
_cell_length_a 5.160206
_cell_length_b 16.318928
_cell_length_c 24.409858
_cell_angle_alpha 90.000000
_cell_angle_beta 113.375193
_cell_angle_gamma 90.000000
_cell_volume 1886.825869
_symmetry_space_group_name_H-M "C 2/C"
_symmetry_group_IT_number 15
_symmetry_cell_setting 'monoclinic'
loop_
_space_group_symop_operation_xyz
x,y,z
-x,y,1/2-z
-x,-y,-z
x,-y,1/2+z
1/2+x,1/2+y,z
1/2-x,1/2+y,1/2-z
1/2-x,1/2-y,-z
1/2+x,1/2-y,1/2+z
loop_
_atom_site_type_symbol
_atom_site_label
_atom_site_fract_x
_atom_site_fract_y
_atom_site_fract_z
Si Si1 0.325967 0.527749 0.138390
Si Si2 0.100809 0.441184 0.318990
Si Si3 0.085892 0.204886 0.701481
Si Si4 0.321764 0.239089 0.925665
Si Si5 0.615695 0.157298 0.040250
Si Si6 0.500000 0.350069 0.750000
O O1 0.606058 0.484274 0.140420
O O2 0.155520 0.573801 0.076432
O O3 0.438228 0.594870 0.191807
O O4 0.129297 0.465978 0.155946
O O5 0.194031 0.347568 0.315996
O O6 0.000000 0.471153 0.250000
O O7 0.234587 0.289024 0.730969
O O8 0.000000 0.158692 0.750000
O O9 0.807367 0.219445 0.643396
O O10 0.576001 0.303842 0.943249
O O11 0.064835 0.280148 0.937455
O O12 0.447057 0.161206 0.968858
#
# Coordination Sequence:
#
# PCOD9284943 Si02
#       6
#     8   8   8   8   8   4
#     4  12  24  41  65  95 128 172 218 269 322 390
#     4  12  25  43  59  91 141 174 205 262 343 389
#     4  12  26  42  65 100 133 176 213 277 329 401
#     4  10  22  40  67  95 133 164 220 273 335 371
#     4  10  21  41  65  98 127 170 216 281 320 383
#     4  12  24  36  70  96 128 158 234 270 314 390
#
# _framework density 23.319586000000001
#
# number of rings (size 3 to 8) (size 9 to 14) (size 15 to 20)
#    0.000    0.727    4.545    3.273    2.545    0.000 
#    0.000    1.818    0.000    0.000    0.000    0.000 
#    0.000    0.000    0.000    0.000    0.000    0.000 
#
# Total GULP energy -123200.396856 kJ/mol
# GULP energy per Si atom -5600.018039 kJ/mol
# Density = 2.326651 g / cm^3
# Si number density = 23.319586 Si / 1000 Ang^3
#
#
#
# Elastic Constant Matrix: (Units=GPa)
#
#
# Indices 1 2 3 4 5 6 
#
# 1 69.5875 18.9433 22.4969 0.0000 11.9436 0.0000
# 2 18.9433 58.7204 -1.6014 0.0000 3.2038 0.0000
# 3 22.4969 -1.6014 110.4904 0.0000 13.9441 0.0000
# 4 0.0000 0.0000 0.0000 21.1182 0.0000 -1.9550
# 5 11.9436 3.2038 13.9441 0.0000 29.4744 0.0000
# 6 0.0000 0.0000 0.0000 -1.9550 0.0000 27.2239
#
#
#
# Elastic Compliance Matrix: (Units=1/GPa)
#
#
# Indices 1 2 3 4 5 6 
#
# 1 0.017742 -0.005526 -0.003043 0.000000 -0.005149 0.000000
# 2 -0.005526 0.018880 0.001462 0.000000 -0.000505 0.000000
# 3 -0.003043 0.001462 0.010162 0.000000 -0.003734 0.000000
# 4 0.000000 0.000000 0.000000 0.047669 0.000000 0.003423
# 5 -0.005149 -0.000505 -0.003734 0.000000 0.037836 0.000000
# 6 0.000000 0.000000 0.000000 0.003423 0.000000 0.036978
#
#
# Mechanical properties :
#
#
# Convention : Reuss Voigt Hill
#
# Bulk Modulus (GPa) = 30.70061 35.38621 33.04341
# Shear Modulus (GPa) = 25.72849 28.82728 27.27789
#
# Velocity S-wave (km/s) = 3.32520 3.51975 3.42386
# Velocity P-wave (km/s) = 5.28548 5.63255 5.46177
#
# Compressibility (1/GPa) = 0.03257264
#
# Stress axis : x y z
#
# Youngs Moduli (GPa) = 56.36314 52.96644 98.40103
#
# Poissons Ratio (x) = 0.29268 0.29940
# Poissons Ratio (y) = 0.31144 -0.14391
# Poissons Ratio (z) = 0.17150 -0.07746
#
# Static dielectric constant tensor:
#      x y z
#    x 1.864200 0.000000 -0.002950 
#    y 0.000000 1.881830 0.000000 
#    z -0.002950 0.000000 1.881150 
# 
# From -- ./inp_files/285631.got.cif
#   From: 2010.05.17/outbox.cif.g08.bks.cpg/sg15_143_cif.got.tgz:285631.got - 2010.06.03 18:47:42.
