data_PCOD9284061
_publ_section_title
;
Structure prediction by ZEFSAII (Michael W. Deem and Ramdas Pophale) SiO2 
 PCOD9284061
Probable space group: C 2/C
;
_chemical_formula_sum "Si O2"
_cell_formula_units_Z 52
_cell_length_a 15.870946
_cell_length_b 25.516070
_cell_length_c 8.222476
_cell_angle_alpha 90.000000
_cell_angle_beta 131.259197
_cell_angle_gamma 90.000000
_cell_volume 2503.129878
_symmetry_space_group_name_H-M "C 2/C"
_symmetry_group_IT_number 15
_symmetry_cell_setting 'monoclinic'
loop_
_space_group_symop_operation_xyz
x,y,z
-x,y,1/2-z
-x,-y,-z
x,-y,1/2+z
1/2+x,1/2+y,z
1/2-x,1/2+y,1/2-z
1/2-x,1/2-y,-z
1/2+x,1/2-y,1/2+z
loop_
_atom_site_type_symbol
_atom_site_label
_atom_site_fract_x
_atom_site_fract_y
_atom_site_fract_z
Si Si1 0.211479 0.954293 0.807010
Si Si2 0.388993 0.451998 0.505392
Si Si3 0.000000 0.633551 0.250000
Si Si4 0.566484 0.330239 0.995741
Si Si5 0.737376 0.192123 0.553868
Si Si6 0.594983 0.365429 0.472535
Si Si7 0.539687 0.943152 0.488894
O O1 0.216932 0.953252 0.007207
O O2 0.142814 0.903088 0.669080
O O3 0.143949 0.006145 0.670578
O O4 0.327155 0.948807 0.862221
O O5 0.500000 0.466474 0.750000
O O6 0.409134 0.392671 0.477301
O O7 0.989783 0.597991 0.402812
O O8 0.112640 0.668995 0.408331
O O9 0.500000 0.314929 0.750000
O O10 0.687935 0.306857 0.186564
O O11 0.479416 0.320966 0.033367
O O12 0.750000 0.250000 0.500000
O O13 0.807706 0.154930 0.519550
O O14 0.500000 0.395882 0.250000
O O15 0.500000 0.931560 0.250000
O O16 0.500000 0.000000 0.500000
#
# Coordination Sequence:
#
# PCOD9284061 Si02
#       7
#     8   8   4   8   8   8   8
#     4  12  23  38  59  92 140 177 231 276 341 410
#     4  11  23  34  60  97 136 179 221 277 341 418
#     4  12  28  48  76 110 146 198 250 300 370 442
#     4  10  22  42  69 101 137 173 226 289 359 420
#     4  11  27  48  76  98 135 182 239 303 367 427
#     4  10  21  40  66  93 130 170 222 282 348 412
#     4  12  27  45  68 101 148 202 245 290 355 442
#
# _framework density 20.773992
#
# number of rings (size 3 to 8) (size 9 to 14) (size 15 to 20)
#    0.000    0.923    5.385    1.846   11.846    0.000 
#    0.000    1.538    0.000    0.000    0.000    0.000 
#    0.000    0.000    0.000    0.000    0.000    0.000 
#
# Total GULP energy -145035.671715 kJ/mol
# GULP energy per Si atom -5578.295066 kJ/mol
# Density = 2.072671 g / cm^3
# Si number density = 20.773992 Si / 1000 Ang^3
#
#
#
# Elastic Constant Matrix: (Units=GPa)
#
#
# Indices 1 2 3 4 5 6 
#
# 1 144.3951 35.1053 46.1136 0.0000 13.1663 0.0000
# 2 35.1053 80.5766 49.6678 0.0000 11.1274 0.0000
# 3 46.1136 49.6678 132.1464 0.0000 7.5752 0.0000
# 4 0.0000 0.0000 0.0000 10.2022 0.0000 -0.2117
# 5 13.1663 11.1274 7.5752 0.0000 45.5971 0.0000
# 6 0.0000 0.0000 0.0000 -0.2117 0.0000 15.0392
#
#
#
# Elastic Compliance Matrix: (Units=1/GPa)
#
#
# Indices 1 2 3 4 5 6 
#
# 1 0.008217 -0.002156 -0.001970 0.000000 -0.001519 0.000000
# 2 -0.002156 0.017124 -0.005533 0.000000 -0.002637 0.000000
# 3 -0.001970 -0.005533 0.010323 0.000000 0.000204 0.000000
# 4 0.000000 0.000000 0.000000 0.098047 0.000000 0.001380
# 5 -0.001519 -0.002637 0.000204 0.000000 0.022980 0.000000
# 6 0.000000 0.000000 0.000000 0.001380 0.000000 0.066512
#
#
# Mechanical properties :
#
#
# Convention : Reuss Voigt Hill
#
# Bulk Modulus (GPa) = 61.17385 68.76570 64.96978
# Shear Modulus (GPa) = 20.16373 29.24978 24.70676
#
# Velocity S-wave (km/s) = 3.11886 3.75640 3.45238
# Velocity P-wave (km/s) = 6.51774 7.21025 6.87273
#
# Compressibility (1/GPa) = 0.01634685
#
# Stress axis : x y z
#
# Youngs Moduli (GPa) = 121.69470 58.39600 96.87412
#
# Poissons Ratio (x) = 0.12589 0.19085
# Poissons Ratio (y) = 0.26236 0.53599
# Poissons Ratio (z) = 0.23975 0.32309
#
# Static dielectric constant tensor:
#      x y z
#    x 1.787800 0.000000 0.011500 
#    y 0.000000 1.720960 0.000000 
#    z 0.011500 0.000000 1.798790 
# 
# From -- ./inp_files/43668.got.cif
#   From: 2010.05.17/outbox.cif.g08.bks.cpg/sg15_22_cif.got.tgz:43668.got - 2010.06.03 18:47:42.
