data_PCOD9284551
_publ_section_title
;
Structure prediction by ZEFSAII (Michael W. Deem and Ramdas Pophale) SiO2 
 PCOD9284551
Probable space group: C 2/C
;
_chemical_formula_sum "Si O2"
_cell_formula_units_Z 48
_cell_length_a 13.133129
_cell_length_b 11.947226
_cell_length_c 17.756137
_cell_angle_alpha 90.000000
_cell_angle_beta 54.874964
_cell_angle_gamma 90.000000
_cell_volume 2278.678879
_symmetry_space_group_name_H-M "C 2/C"
_symmetry_group_IT_number 15
_symmetry_cell_setting 'monoclinic'
loop_
_space_group_symop_operation_xyz
x,y,z
-x,y,1/2-z
-x,-y,-z
x,-y,1/2+z
1/2+x,1/2+y,z
1/2-x,1/2+y,1/2-z
1/2-x,1/2-y,-z
1/2+x,1/2-y,1/2+z
loop_
_atom_site_type_symbol
_atom_site_label
_atom_site_fract_x
_atom_site_fract_y
_atom_site_fract_z
Si Si1 0.630363 0.591623 0.544531
Si Si2 0.670866 0.279903 0.872080
Si Si3 0.290282 0.793511 0.599741
Si Si4 0.209132 0.457334 0.381093
Si Si5 0.373306 0.327967 0.208971
Si Si6 0.431317 0.660851 0.410449
O O1 0.658694 0.653368 0.454653
O O2 0.740914 0.574600 0.557052
O O3 0.518309 0.658489 0.632847
O O4 0.588556 0.464272 0.549855
O O5 0.626063 0.150201 0.898080
O O6 0.815085 0.268511 0.787063
O O7 0.579335 0.325926 0.847385
O O8 0.307658 0.702858 0.658059
O O9 0.370170 0.744965 0.496818
O O10 0.149967 0.817783 0.629650
O O11 0.338284 0.917014 0.602650
O O12 0.321315 0.438445 0.273010
#
# Coordination Sequence:
#
# PCOD9284551 Si02
#       6
#     8   8   8   8   8   8
#     4  11  20  42  63  88 126 160 211 249 293 379
#     4  10  22  36  61  93 118 163 204 247 311 348
#     4  10  21  41  61  91 122 159 206 252 305 372
#     4   9  23  38  61  89 124 162 201 252 312 351
#     4  10  23  35  60  91 121 161 205 252 298 358
#     4  10  22  38  67  89 119 166 202 251 310 359
#
# _framework density 21.064838000000002
#
# number of rings (size 3 to 8) (size 9 to 14) (size 15 to 20)
#    1.000    1.000    1.667    1.500    2.333    1.333 
#    0.000    0.000    0.000    2.000    0.000    0.000 
#    0.000    0.000    0.000    0.000    0.000    0.000 
#
# Total GULP energy -133621.210677 kJ/mol
# GULP energy per Si atom -5567.550445 kJ/mol
# Density = 2.101689 g / cm^3
# Si number density = 21.064838 Si / 1000 Ang^3
#
#
#
# Elastic Constant Matrix: (Units=GPa)
#
#
# Indices 1 2 3 4 5 6 
#
# 1 33.1826 11.4967 14.4285 0.0000 4.6932 0.0000
# 2 11.4967 58.3532 1.8067 0.0000 5.6246 0.0000
# 3 14.4285 1.8067 45.7066 0.0000 -1.2062 0.0000
# 4 0.0000 0.0000 0.0000 23.6200 0.0000 -9.8668
# 5 4.6932 5.6246 -1.2062 0.0000 25.0020 0.0000
# 6 0.0000 0.0000 0.0000 -9.8668 0.0000 20.0305
#
#
#
# Elastic Compliance Matrix: (Units=1/GPa)
#
#
# Indices 1 2 3 4 5 6 
#
# 1 0.038579 -0.006616 -0.012084 0.000000 -0.006336 0.000000
# 2 -0.006616 0.018680 0.001274 0.000000 -0.002899 0.000000
# 3 -0.012084 0.001274 0.025728 0.000000 0.003223 0.000000
# 4 0.000000 0.000000 0.000000 0.053306 0.000000 0.026258
# 5 -0.006336 -0.002899 0.003223 0.000000 0.041994 0.000000
# 6 0.000000 0.000000 0.000000 0.026258 0.000000 0.062858
#
#
# Mechanical properties :
#
#
# Convention : Reuss Voigt Hill
#
# Bulk Modulus (GPa) = 20.77509 21.41181 21.09345
# Shear Modulus (GPa) = 17.12073 21.03120 19.07596
#
# Velocity S-wave (km/s) = 2.85399 3.16318 3.01256
# Velocity P-wave (km/s) = 4.55458 4.85054 4.70489
#
# Compressibility (1/GPa) = 0.04813457
#
# Stress axis : x y z
#
# Youngs Moduli (GPa) = 25.92072 53.53179 38.86793
#
# Poissons Ratio (x) = 0.35416 0.46969
# Poissons Ratio (y) = 0.17149 -0.04950
# Poissons Ratio (z) = 0.31323 -0.06818
#
# Static dielectric constant tensor:
#      x y z
#    x 1.785480 0.000000 -0.012680 
#    y 0.000000 1.772390 0.000000 
#    z -0.012680 0.000000 1.797220 
# 
# From -- ./inp_files/243277.got.cif
#   From: 2010.05.17/outbox.cif.g08.bks.cpg/sg15_122_cif.got.tgz:243277.got - 2010.06.03 18:47:42.
