data_PCOD9284594
_publ_section_title
;
Structure prediction by ZEFSAII (Michael W. Deem and Ramdas Pophale) SiO2 
 PCOD9284594
Probable space group: C 2/C
;
_chemical_formula_sum "Si O2"
_cell_formula_units_Z 60
_cell_length_a 26.670738
_cell_length_b 9.490083
_cell_length_c 11.215588
_cell_angle_alpha 90.000000
_cell_angle_beta 95.614478
_cell_angle_gamma 90.000000
_cell_volume 2825.131329
_symmetry_space_group_name_H-M "C 2/C"
_symmetry_group_IT_number 15
_symmetry_cell_setting 'monoclinic'
loop_
_space_group_symop_operation_xyz
x,y,z
-x,y,1/2-z
-x,-y,-z
x,-y,1/2+z
1/2+x,1/2+y,z
1/2-x,1/2+y,1/2-z
1/2-x,1/2-y,-z
1/2+x,1/2-y,1/2+z
loop_
_atom_site_type_symbol
_atom_site_label
_atom_site_fract_x
_atom_site_fract_y
_atom_site_fract_z
Si Si1 0.000000 0.412298 0.750000
Si Si2 0.632851 0.548346 0.740636
Si Si3 0.200116 0.784391 0.831139
Si Si4 0.475494 0.457648 0.867773
Si Si5 0.901103 0.702520 0.119933
Si Si6 0.645694 0.025972 0.742554
Si Si7 0.316296 0.791515 0.900501
Si Si8 0.049490 0.356185 0.122780
O O1 0.049874 0.323043 0.785291
O O2 0.012329 0.513565 0.640252
O O3 0.666430 0.413017 0.777796
O O4 0.582745 0.501569 0.658655
O O5 0.618014 0.640250 0.855134
O O6 0.662984 0.658176 0.666380
O O7 0.189668 0.639780 0.757993
O O8 0.258935 0.820934 0.847297
O O9 0.183681 0.744542 0.961195
O O10 0.500000 0.511954 0.750000
O O11 0.478983 0.288920 0.865354
O O12 0.500000 0.500000 0.000000
O O13 0.859619 0.587956 0.152505
O O14 0.921227 0.666996 0.994247
O O15 0.594178 0.114809 0.727662
O O16 0.650768 0.926291 0.628605
#
# Coordination Sequence:
#
# PCOD9284594 Si02
#       8
#     4   8   8   8   8   8   8   8
#     4  10  22  40  60  88 128 170 238 274 328 398
#     4  11  25  43  66  99 139 177 223 293 347 416
#     4  11  22  42  70  95 135 172 227 285 365 415
#     4  12  27  43  66 100 139 186 235 282 347 418
#     4  10  23  38  60  90 125 174 222 276 335 397
#     4  10  21  41  62  90 128 165 224 274 344 412
#     4  10  24  42  67 101 127 177 224 292 351 431
#     4  11  21  40  61  89 123 175 225 271 330 399
#
# _framework density 21.237950000000001
#
# number of rings (size 3 to 8) (size 9 to 14) (size 15 to 20)
#    0.000    1.333    2.000    2.800    6.533    0.000 
#    2.400    0.000    0.000    8.800    0.000    0.000 
#    0.000    0.000    0.000    0.000    0.000    0.000 
#
# Total GULP energy -167558.461035 kJ/mol
# GULP energy per Si atom -5585.282035 kJ/mol
# Density = 2.118961 g / cm^3
# Si number density = 21.237950 Si / 1000 Ang^3
#
#
#
# Elastic Constant Matrix: (Units=GPa)
#
#
# Indices 1 2 3 4 5 6 
#
# 1 59.2750 22.6472 22.9827 0.0000 7.5531 0.0000
# 2 22.6472 100.8468 9.8183 0.0000 14.3404 0.0000
# 3 22.9827 9.8183 65.3363 0.0000 0.9558 0.0000
# 4 0.0000 0.0000 0.0000 13.6153 0.0000 -1.4335
# 5 7.5531 14.3404 0.9558 0.0000 32.0633 0.0000
# 6 0.0000 0.0000 0.0000 -1.4335 0.0000 32.5978
#
#
#
# Elastic Compliance Matrix: (Units=1/GPa)
#
#
# Indices 1 2 3 4 5 6 
#
# 1 0.021360 -0.003671 -0.006915 0.000000 -0.003184 0.000000
# 2 -0.003671 0.011374 -0.000356 0.000000 -0.004212 0.000000
# 3 -0.006915 -0.000356 0.017773 0.000000 0.001259 0.000000
# 4 0.000000 0.000000 0.000000 0.073789 0.000000 0.003245
# 5 -0.003184 -0.004212 0.001259 0.000000 0.033785 0.000000
# 6 0.000000 0.000000 0.000000 0.003245 0.000000 0.030820
#
#
# Mechanical properties :
#
#
# Convention : Reuss Voigt Hill
#
# Bulk Modulus (GPa) = 34.93815 37.37272 36.15543
# Shear Modulus (GPa) = 22.69368 26.98927 24.84147
#
# Velocity S-wave (km/s) = 3.27241 3.56870 3.42376
# Velocity P-wave (km/s) = 5.54659 5.88355 5.71756
#
# Compressibility (1/GPa) = 0.02862201
#
# Stress axis : x y z
#
# Youngs Moduli (GPa) = 46.81644 87.91997 56.26476
#
# Poissons Ratio (x) = 0.32274 0.38909
# Poissons Ratio (y) = 0.17185 0.02005
# Poissons Ratio (z) = 0.32375 0.03133
#
# Static dielectric constant tensor:
#      x y z
#    x 1.807480 0.000000 -0.038790 
#    y 0.000000 1.768860 0.000000 
#    z -0.038790 0.000000 1.805240 
# 
# From -- ./inp_files/125588.got.cif
#   From: 2010.05.17/outbox.cif.g08.bks.cpg/sg15_63_cif.got.tgz:125588.got - 2010.06.03 18:47:42.
