data_PCOD9284856
_publ_section_title
;
Structure prediction by ZEFSAII (Michael W. Deem and Ramdas Pophale) SiO2 
 PCOD9284856
Probable space group: C 2/C
;
_chemical_formula_sum "Si O2"
_cell_formula_units_Z 64
_cell_length_a 14.889688
_cell_length_b 27.324643
_cell_length_c 9.074346
_cell_angle_alpha 90.000000
_cell_angle_beta 59.806637
_cell_angle_gamma 90.000000
_cell_volume 3191.071652
_symmetry_space_group_name_H-M "C 2/C"
_symmetry_group_IT_number 15
_symmetry_cell_setting 'monoclinic'
loop_
_space_group_symop_operation_xyz
x,y,z
-x,y,1/2-z
-x,-y,-z
x,-y,1/2+z
1/2+x,1/2+y,z
1/2-x,1/2+y,1/2-z
1/2-x,1/2-y,-z
1/2+x,1/2-y,1/2+z
loop_
_atom_site_type_symbol
_atom_site_label
_atom_site_fract_x
_atom_site_fract_y
_atom_site_fract_z
Si Si1 0.412251 0.397596 0.935470
Si Si2 0.796242 0.585673 0.441422
Si Si3 0.072846 0.493447 0.077724
Si Si4 0.724654 0.438132 0.686736
Si Si5 0.762266 0.239201 0.237741
Si Si6 0.393000 0.288360 0.896925
Si Si7 0.398479 0.536658 0.730784
Si Si8 0.378235 0.806731 0.904033
O O1 0.500000 0.412988 0.750000
O O2 0.309222 0.407322 0.926695
O O3 0.423933 0.339898 0.945286
O O4 0.420939 0.430611 0.070284
O O5 0.883415 0.543190 0.384042
O O6 0.750966 0.590442 0.313598
O O7 0.697515 0.564921 0.612618
O O8 0.845823 0.636508 0.453920
O O9 0.000000 0.464962 0.250000
O O10 0.171271 0.464425 0.946196
O O11 0.000000 0.500000 0.000000
O O12 0.643682 0.482972 0.779530
O O13 0.679532 0.263847 0.419443
O O14 0.828956 0.206501 0.296733
O O15 0.694273 0.212123 0.170368
O O16 0.840064 0.275401 0.079913
O O17 0.500000 0.263623 0.750000
O O18 0.500000 0.533549 0.750000
O O19 0.500000 0.802245 0.750000
#
# Coordination Sequence:
#
# PCOD9284856 Si02
#       8
#     8   8   8   8   8   8   8   8
#     4  11  23  38  59  88 117 154 201 247 305 362
#     4  11  23  39  60  89 121 158 207 255 300 367
#     4  11  22  39  59  83 117 165 205 246 302 354
#     4  11  23  38  59  83 121 161 204 250 298 358
#     4  10  22  41  64  92 120 158 203 249 323 380
#     4  10  21  41  65  88 122 157 199 256 310 378
#     4  11  23  39  60  87 125 163 205 251 305 362
#     4  11  23  40  64  92 125 159 203 259 314 374
#
# _framework density 20.055958
#
# number of rings (size 3 to 8) (size 9 to 14) (size 15 to 20)
#    0.000    1.250    1.250    5.250    1.750    2.500 
#    0.000    3.125    0.000    0.000    0.000    0.000 
#    0.000    0.000    0.000    0.000    0.000    0.000 
#
# Total GULP energy -178440.308118 kJ/mol
# GULP energy per Si atom -5576.259629 kJ/mol
# Density = 2.001031 g / cm^3
# Si number density = 20.055958 Si / 1000 Ang^3
#
#
#
# Elastic Constant Matrix: (Units=GPa)
#
#
# Indices 1 2 3 4 5 6 
#
# 1 100.9433 3.8097 31.7354 0.0000 -11.7228 0.0000
# 2 3.8097 51.9673 18.1310 0.0000 -12.3851 0.0000
# 3 31.7354 18.1310 100.4381 0.0000 -10.3354 0.0000
# 4 0.0000 0.0000 0.0000 66.0238 0.0000 1.4481
# 5 -11.7228 -12.3851 -10.3354 0.0000 42.9768 0.0000
# 6 0.0000 0.0000 0.0000 1.4481 0.0000 19.4529
#
#
#
# Elastic Compliance Matrix: (Units=1/GPa)
#
#
# Indices 1 2 3 4 5 6 
#
# 1 0.011254 0.000988 -0.003475 0.000000 0.002519 0.000000
# 2 0.000988 0.021800 -0.003664 0.000000 0.005671 0.000000
# 3 -0.003475 -0.003664 0.011802 0.000000 0.000834 0.000000
# 4 0.000000 0.000000 0.000000 0.015171 0.000000 -0.001129
# 5 0.002519 0.005671 0.000834 0.000000 0.025790 0.000000
# 6 0.000000 0.000000 0.000000 -0.001129 0.000000 0.051490
#
#
# Mechanical properties :
#
#
# Convention : Reuss Voigt Hill
#
# Bulk Modulus (GPa) = 30.71866 40.07789 35.39827
# Shear Modulus (GPa) = 31.16014 39.00220 35.08117
#
# Velocity S-wave (km/s) = 3.94593 4.41462 4.18684
# Velocity P-wave (km/s) = 6.00917 6.78319 6.40788
#
# Compressibility (1/GPa) = 0.03255350
#
# Stress axis : x y z
#
# Youngs Moduli (GPa) = 88.85471 45.87109 84.73365
#
# Poissons Ratio (x) = -0.04531 0.29446
# Poissons Ratio (y) = -0.08776 0.31046
# Poissons Ratio (z) = 0.30878 0.16807
#
# Static dielectric constant tensor:
#      x y z
#    x 1.694830 0.000000 -0.030570 
#    y 0.000000 1.699860 0.000000 
#    z -0.030570 0.000000 1.705120 
# 
# From -- ./inp_files/44555.got.cif
#   From: 2010.05.17/outbox.cif.g08.bks.cpg/sg15_23_cif.got.tgz:44555.got - 2010.06.03 18:47:42.
