data_PCOD9284764
_publ_section_title
;
Structure prediction by ZEFSAII (Michael W. Deem and Ramdas Pophale) SiO2 
 PCOD9284764
Probable space group: C 2/C
;
_chemical_formula_sum "Si O2"
_cell_formula_units_Z 40
_cell_length_a 9.590768
_cell_length_b 9.893161
_cell_length_c 18.600216
_cell_angle_alpha 90.000000
_cell_angle_beta 76.854570
_cell_angle_gamma 90.000000
_cell_volume 1718.598440
_symmetry_space_group_name_H-M "C 2/C"
_symmetry_group_IT_number 15
_symmetry_cell_setting 'monoclinic'
loop_
_space_group_symop_operation_xyz
x,y,z
-x,y,1/2-z
-x,-y,-z
x,-y,1/2+z
1/2+x,1/2+y,z
1/2-x,1/2+y,1/2-z
1/2-x,1/2-y,-z
1/2+x,1/2-y,1/2+z
loop_
_atom_site_type_symbol
_atom_site_label
_atom_site_fract_x
_atom_site_fract_y
_atom_site_fract_z
Si Si1 0.084533 0.879619 0.951989
Si Si2 0.381744 0.229959 0.412631
Si Si3 0.961886 0.724256 0.838847
Si Si4 0.236852 0.578502 0.826524
Si Si5 0.810144 0.724700 0.188370
O O1 0.256704 0.881546 0.919182
O O2 0.010748 0.844405 0.885195
O O3 0.075934 0.755633 0.009942
O O4 0.000000 0.000000 0.000000
O O5 0.311670 0.369714 0.390112
O O6 0.526559 0.209247 0.352474
O O7 0.791763 0.704879 0.859312
O O8 0.000000 0.744596 0.750000
O O9 0.066261 0.604137 0.850916
O O10 0.255965 0.425811 0.799519
O O11 0.295051 0.684522 0.760674
#
# Coordination Sequence:
#
# PCOD9284764 Si02
#       5
#     8   8   8   8   8
#     4  10  21  41  64  90 128 172 214 263 324 383
#     4  10  23  40  63  93 126 170 219 266 320 384
#     4   9  21  40  62  90 127 164 209 265 318 376
#     4  10  23  41  62  96 132 167 215 266 321 385
#     4  11  23  40  66  96 130 171 216 267 322 383
#
# _framework density 23.274778000000001
#
# number of rings (size 3 to 8) (size 9 to 14) (size 15 to 20)
#    0.000    2.000    0.000    1.800    0.000   16.800 
#    0.000   14.000    0.000    0.000    0.000    0.000 
#    0.000    0.000    0.000    0.000    0.000    0.000 
#
# Total GULP energy -111621.390675 kJ/mol
# GULP energy per Si atom -5581.069534 kJ/mol
# Density = 2.322180 g / cm^3
# Si number density = 23.274778 Si / 1000 Ang^3
#
#
#
# Elastic Constant Matrix: (Units=GPa)
#
#
# Indices 1 2 3 4 5 6 
#
# 1 124.4121 4.3270 9.6532 0.0000 -3.5794 0.0000
# 2 4.3270 86.2171 6.8035 0.0000 -1.9773 0.0000
# 3 9.6532 6.8035 56.4010 0.0000 24.5226 0.0000
# 4 0.0000 0.0000 0.0000 17.1333 0.0000 -8.8852
# 5 -3.5794 -1.9773 24.5226 0.0000 43.7535 0.0000
# 6 0.0000 0.0000 0.0000 -8.8852 0.0000 24.0574
#
#
#
# Elastic Compliance Matrix: (Units=1/GPa)
#
#
# Indices 1 2 3 4 5 6 
#
# 1 0.008272 -0.000196 -0.002225 0.000000 0.001915 0.000000
# 2 -0.000196 0.011817 -0.002138 0.000000 0.001716 0.000000
# 3 -0.002225 -0.002138 0.024448 0.000000 -0.013981 0.000000
# 4 0.000000 0.000000 0.000000 0.072193 0.000000 0.026663
# 5 0.001915 0.001716 -0.013981 0.000000 0.030925 0.000000
# 6 0.000000 0.000000 0.000000 0.026663 0.000000 0.051415
#
#
# Mechanical properties :
#
#
# Convention : Reuss Voigt Hill
#
# Bulk Modulus (GPa) = 28.23327 34.28862 31.26094
# Shear Modulus (GPa) = 22.72795 33.40527 28.06661
#
# Velocity S-wave (km/s) = 3.12830 3.79259 3.47635
# Velocity P-wave (km/s) = 5.02047 5.82601 5.43817
#
# Compressibility (1/GPa) = 0.03541921
#
# Stress axis : x y z
#
# Youngs Moduli (GPa) = 120.88505 84.62716 40.90373
#
# Poissons Ratio (x) = 0.01656 0.09100
# Poissons Ratio (y) = 0.02366 0.08746
# Poissons Ratio (z) = 0.26894 0.18095
#
# Static dielectric constant tensor:
#      x y z
#    x 1.946310 0.000000 -0.030900 
#    y 0.000000 1.893260 0.000000 
#    z -0.030900 0.000000 1.878190 
# 
# From -- ./inp_files/229844.got.cif
#   From: 2010.05.17/outbox.cif.g08.bks.cpg/sg15_115_cif.got.tgz:229844.got - 2010.06.03 18:47:42.
