data_PCOD9284356
_publ_section_title
;
Structure prediction by ZEFSAII (Michael W. Deem and Ramdas Pophale) SiO2 
 PCOD9284356
Probable space group: C 2/C
;
_chemical_formula_sum "Si O2"
_cell_formula_units_Z 44
_cell_length_a 9.820067
_cell_length_b 16.093569
_cell_length_c 13.414649
_cell_angle_alpha 90.000000
_cell_angle_beta 71.720593
_cell_angle_gamma 90.000000
_cell_volume 2013.068736
_symmetry_space_group_name_H-M "C 2/C"
_symmetry_group_IT_number 15
_symmetry_cell_setting 'monoclinic'
loop_
_space_group_symop_operation_xyz
x,y,z
-x,y,1/2-z
-x,-y,-z
x,-y,1/2+z
1/2+x,1/2+y,z
1/2-x,1/2+y,1/2-z
1/2-x,1/2-y,-z
1/2+x,1/2-y,1/2+z
loop_
_atom_site_type_symbol
_atom_site_label
_atom_site_fract_x
_atom_site_fract_y
_atom_site_fract_z
Si Si1 0.114918 0.062561 0.426382
Si Si2 0.499420 0.858005 0.145370
Si Si3 0.500000 0.318133 0.250000
Si Si4 0.341459 0.983169 0.493007
Si Si5 0.722419 0.467178 0.213242
Si Si6 0.582003 0.739717 0.516901
O O1 0.059275 0.153895 0.461896
O O2 0.269652 0.056116 0.446362
O O3 0.149798 0.025570 0.310850
O O4 0.000000 0.000000 0.500000
O O5 0.500000 0.809034 0.250000
O O6 0.646443 0.904060 0.081254
O O7 0.381421 0.930099 0.195672
O O8 0.460778 0.809450 0.053568
O O9 0.632372 0.382837 0.217992
O O10 0.493473 0.267284 0.356132
O O11 0.500000 0.000000 0.500000
O O12 0.238207 0.977560 0.610833
O O13 0.750000 0.750000 0.500000
#
# Coordination Sequence:
#
# PCOD9284356 Si02
#       6
#     8   8   4   8   8   8
#     4  12  23  42  70 101 133 185 234 276 348 423
#     4  11  23  44  67 100 143 175 225 299 347 403
#     4  12  22  44  70  96 142 180 226 294 348 408
#     4  10  21  40  69  98 128 180 228 280 344 410
#     4  11  21  42  70  97 135 178 229 286 340 415
#     4  12  25  44  70 104 140 185 234 285 356 422
#
# _framework density 21.857178000000001
#
# number of rings (size 3 to 8) (size 9 to 14) (size 15 to 20)
#    0.000    0.727    7.273    1.091    0.000    1.455 
#    4.909    1.818    0.000    0.000    0.000    0.000 
#    0.000    0.000    0.000    0.000    0.000    0.000 
#
# Total GULP energy -122659.176874 kJ/mol
# GULP energy per Si atom -5575.417131 kJ/mol
# Density = 2.180743 g / cm^3
# Si number density = 21.857178 Si / 1000 Ang^3
#
#
#
# Elastic Constant Matrix: (Units=GPa)
#
#
# Indices 1 2 3 4 5 6 
#
# 1 41.0435 -4.3156 16.0259 0.0000 -1.4310 0.0000
# 2 -4.3156 78.1640 58.2775 0.0000 1.6994 0.0000
# 3 16.0259 58.2775 249.3775 0.0000 9.4603 0.0000
# 4 0.0000 0.0000 0.0000 17.6342 0.0000 6.1425
# 5 -1.4310 1.6994 9.4603 0.0000 30.8156 0.0000
# 6 0.0000 0.0000 0.0000 6.1425 0.0000 29.5974
#
#
#
# Elastic Compliance Matrix: (Units=1/GPa)
#
#
# Indices 1 2 3 4 5 6 
#
# 1 0.025732 0.003228 -0.002475 0.000000 0.001777 0.000000
# 2 0.003228 0.015900 -0.003941 0.000000 0.000483 0.000000
# 3 -0.002475 -0.003941 0.005146 0.000000 -0.001477 0.000000
# 4 0.000000 0.000000 0.000000 0.061127 0.000000 -0.012686
# 5 0.001777 0.000483 -0.001477 0.000000 0.032961 0.000000
# 6 0.000000 0.000000 0.000000 -0.012686 0.000000 0.036420
#
#
# Mechanical properties :
#
#
# Convention : Reuss Voigt Hill
#
# Bulk Modulus (GPa) = 24.75234 56.50673 40.62954
# Shear Modulus (GPa) = 25.36393 35.51592 30.43992
#
# Velocity S-wave (km/s) = 3.41022 4.03539 3.73590
# Velocity P-wave (km/s) = 5.18221 6.90082 6.10232
#
# Compressibility (1/GPa) = 0.04040021
#
# Stress axis : x y z
#
# Youngs Moduli (GPa) = 38.86170 62.89321 194.31858
#
# Poissons Ratio (x) = -0.20300 0.48100
# Poissons Ratio (y) = -0.12543 0.76589
# Poissons Ratio (z) = 0.09620 0.24789
#
# Static dielectric constant tensor:
#      x y z
#    x 1.913170 0.000000 0.061560 
#    y 0.000000 1.861600 0.000000 
#    z 0.061560 0.000000 1.934370 
# 
# From -- ./inp_files/87692.got.cif
#   From: 2010.05.17/outbox.cif.g08.bks.cpg/sg15_44_cif.got.tgz:87692.got - 2010.06.03 18:47:42.
