data_PCOD9284474
_publ_section_title
;
Structure prediction by ZEFSAII (Michael W. Deem and Ramdas Pophale) SiO2 
 PCOD9284474
Probable space group: C 2/C
;
_chemical_formula_sum "Si O2"
_cell_formula_units_Z 52
_cell_length_a 11.715023
_cell_length_b 9.216129
_cell_length_c 20.437305
_cell_angle_alpha 90.000000
_cell_angle_beta 66.269975
_cell_angle_gamma 90.000000
_cell_volume 2019.997423
_symmetry_space_group_name_H-M "C 2/C"
_symmetry_group_IT_number 15
_symmetry_cell_setting 'monoclinic'
loop_
_space_group_symop_operation_xyz
x,y,z
-x,y,1/2-z
-x,-y,-z
x,-y,1/2+z
1/2+x,1/2+y,z
1/2-x,1/2+y,1/2-z
1/2-x,1/2-y,-z
1/2+x,1/2-y,1/2+z
loop_
_atom_site_type_symbol
_atom_site_label
_atom_site_fract_x
_atom_site_fract_y
_atom_site_fract_z
Si Si1 0.500000 0.494527 0.250000
Si Si2 0.101831 0.262324 0.384448
Si Si3 0.204225 0.465599 0.645426
Si Si4 0.980925 0.770852 0.356292
Si Si5 0.348104 0.716808 0.365514
Si Si6 0.618337 0.588030 0.501097
Si Si7 0.109295 0.437452 0.927277
O O1 0.547863 0.383759 0.294225
O O2 0.395982 0.598615 0.303038
O O3 0.190841 0.129465 0.341017
O O4 0.109156 0.233896 0.460651
O O5 0.143312 0.427805 0.371160
O O6 0.000000 0.000000 0.500000
O O7 0.176710 0.631609 0.667103
O O8 0.090151 0.354998 0.666356
O O9 0.937865 0.310716 0.609534
O O10 0.888758 0.870366 0.422182
O O11 0.964814 0.243906 0.386914
O O12 0.230452 0.642805 0.428842
O O13 0.742036 0.519779 0.441892
O O14 0.000000 0.500000 0.000000
#
# Coordination Sequence:
#
# PCOD9284474 Si02
#       7
#     4   8   8   8   8   8   8
#     4  12  32  52  74 108 164 230 268 320 370 502
#     4  10  24  45  75 122 152 193 261 327 413 453
#     4  10  24  45  81 115 152 204 255 347 394 453
#     4  12  24  51  75 115 160 212 271 315 406 479
#     4  12  27  53  77 115 160 208 268 310 397 483
#     4  10  21  40  76 116 156 190 249 337 398 460
#     4  12  25  48  84 124 158 201 257 346 416 463
#
# _framework density 25.742608000000001
#
# number of rings (size 3 to 8) (size 9 to 14) (size 15 to 20)
#    0.923    0.000    3.077    3.231    2.154    3.692 
#    5.538    0.000    0.000    0.000    0.000    0.000 
#    0.000    0.000    0.000    0.000    0.000    0.000 
#
# Total GULP energy -145223.323481 kJ/mol
# GULP energy per Si atom -5585.512442 kJ/mol
# Density = 2.568402 g / cm^3
# Si number density = 25.742608 Si / 1000 Ang^3
#
#
#
# Elastic Constant Matrix: (Units=GPa)
#
#
# Indices 1 2 3 4 5 6 
#
# 1 120.0093 59.6504 6.4334 0.0000 -12.9270 0.0000
# 2 59.6504 186.8578 46.1199 0.0000 -6.2050 0.0000
# 3 6.4334 46.1199 66.8994 0.0000 1.8684 0.0000
# 4 0.0000 0.0000 0.0000 31.3305 0.0000 -1.8056
# 5 -12.9270 -6.2050 1.8684 0.0000 17.6524 0.0000
# 6 0.0000 0.0000 0.0000 -1.8056 0.0000 53.0886
#
#
#
# Elastic Compliance Matrix: (Units=1/GPa)
#
#
# Indices 1 2 3 4 5 6 
#
# 1 0.010706 -0.003499 0.001202 0.000000 0.006483 0.000000
# 2 -0.003499 0.007728 -0.005010 0.000000 0.000684 0.000000
# 3 0.001202 -0.005010 0.018365 0.000000 -0.002825 0.000000
# 4 0.000000 0.000000 0.000000 0.031980 0.000000 0.001088
# 5 0.006483 0.000684 -0.002825 0.000000 0.061937 0.000000
# 6 0.000000 0.000000 0.000000 0.001088 0.000000 0.018873
#
#
# Mechanical properties :
#
#
# Convention : Reuss Voigt Hill
#
# Bulk Modulus (GPa) = 45.07819 66.46378 55.77098
# Shear Modulus (GPa) = 29.13770 37.85181 33.49475
#
# Velocity S-wave (km/s) = 3.36800 3.83873 3.61105
# Velocity P-wave (km/s) = 5.71609 6.74703 6.25285
#
# Compressibility (1/GPa) = 0.02218368
#
# Stress axis : x y z
#
# Youngs Moduli (GPa) = 93.40837 129.40057 54.45083
#
# Poissons Ratio (x) = 0.45275 -0.06542
# Poissons Ratio (y) = 0.32682 0.27281
# Poissons Ratio (z) = -0.11223 0.64833
#
# Static dielectric constant tensor:
#      x y z
#    x -9.852120 0.000000 22.861470 
#    y 0.000000 2.146280 0.000000 
#    z 22.861470 0.000000 -41.829590 
# 
# From -- ./inp_files/291484.got.cif
#   From: 2010.05.17/outbox.cif.g08.bks.cpg/sg15_146_cif.got.tgz:291484.got - 2010.06.03 18:47:42.
