data_PCOD9284743
_publ_section_title
;
Structure prediction by ZEFSAII (Michael W. Deem and Ramdas Pophale) SiO2 
 PCOD9284743
Probable space group: C 2/C
;
_chemical_formula_sum "Si O2"
_cell_formula_units_Z 52
_cell_length_a 27.064674
_cell_length_b 13.526406
_cell_length_c 18.795893
_cell_angle_alpha 90.000000
_cell_angle_beta 21.646193
_cell_angle_gamma 90.000000
_cell_volume 2538.202527
_symmetry_space_group_name_H-M "C 2/C"
_symmetry_group_IT_number 15
_symmetry_cell_setting 'monoclinic'
loop_
_space_group_symop_operation_xyz
x,y,z
-x,y,1/2-z
-x,-y,-z
x,-y,1/2+z
1/2+x,1/2+y,z
1/2-x,1/2+y,1/2-z
1/2-x,1/2-y,-z
1/2+x,1/2-y,1/2+z
loop_
_atom_site_type_symbol
_atom_site_label
_atom_site_fract_x
_atom_site_fract_y
_atom_site_fract_z
Si Si1 0.500000 0.943717 0.750000
Si Si2 0.027768 0.143969 0.475415
Si Si3 0.900374 0.635042 0.607340
Si Si4 0.362919 0.463124 0.092370
Si Si5 0.354911 0.399903 0.468271
Si Si6 0.747539 0.296824 0.083826
Si Si7 0.108001 0.505285 0.248737
O O1 0.630486 0.873118 0.569354
O O2 0.467643 0.007749 0.723754
O O3 0.971360 0.116222 0.473224
O O4 0.894245 0.155102 0.704293
O O5 0.099507 0.248223 0.385801
O O6 0.121544 0.053238 0.373034
O O7 0.777699 0.591691 0.726251
O O8 0.897482 0.584987 0.689121
O O9 0.031199 0.594393 0.392126
O O10 0.379462 0.520096 0.996375
O O11 0.500000 0.366503 0.250000
O O12 0.279627 0.298886 0.590273
O O13 0.260664 0.456714 0.537769
O O14 0.750000 0.250000 0.000000
#
# Coordination Sequence:
#
# PCOD9284743 Si02
#       7
#     4   8   8   8   8   8   8
#     4  12  22  34  58 100 136 158 206 260 322 388
#     4  11  23  41  62  92 130 162 216 260 316 382
#     4  10  21  41  64  85 129 167 212 257 313 380
#     4  10  25  38  61  98 120 173 207 267 317 376
#     4  11  21  38  61  88 133 164 205 254 326 389
#     4  12  22  34  60  96 128 168 195 259 336 387
#     4  10  22  37  58  96 122 168 209 254 318 376
#
# _framework density 20.486939
#
# number of rings (size 3 to 8) (size 9 to 14) (size 15 to 20)
#    0.000    1.231    3.846    1.846    4.308    0.000 
#    0.000    0.000    1.692    1.846    0.000    0.000 
#    0.000    0.000    0.000    0.000    0.000    0.000 
#
# Total GULP energy -145131.930875 kJ/mol
# GULP energy per Si atom -5581.997341 kJ/mol
# Density = 2.044031 g / cm^3
# Si number density = 20.486939 Si / 1000 Ang^3
#
#
#
# Elastic Constant Matrix: (Units=GPa)
#
#
# Indices 1 2 3 4 5 6 
#
# 1 121.8221 31.4166 32.6626 0.0000 -31.4037 0.0000
# 2 31.4166 107.4197 43.1545 0.0000 -20.5183 0.0000
# 3 32.6626 43.1545 76.2478 0.0000 -31.2701 0.0000
# 4 0.0000 0.0000 0.0000 30.1318 0.0000 -15.1856
# 5 -31.4037 -20.5183 -31.2701 0.0000 27.7542 0.0000
# 6 0.0000 0.0000 0.0000 -15.1856 0.0000 19.2204
#
#
#
# Elastic Compliance Matrix: (Units=1/GPa)
#
#
# Indices 1 2 3 4 5 6 
#
# 1 0.011764 -0.001359 0.001444 0.000000 0.013932 0.000000
# 2 -0.001359 0.012284 -0.006091 0.000000 0.000681 0.000000
# 3 0.001444 -0.006091 0.027452 0.000000 0.028060 0.000000
# 4 0.000000 0.000000 0.000000 0.055145 0.000000 0.043569
# 5 0.013932 0.000681 0.028060 0.000000 0.083913 0.000000
# 6 0.000000 0.000000 0.000000 0.043569 0.000000 0.086451
#
#
# Mechanical properties :
#
#
# Convention : Reuss Voigt Hill
#
# Bulk Modulus (GPa) = 25.32505 57.77298 41.54901
# Shear Modulus (GPa) = 16.54631 28.63835 22.59233
#
# Velocity S-wave (km/s) = 2.84500 3.74288 3.32440
# Velocity P-wave (km/s) = 4.81461 6.85128 5.92117
#
# Compressibility (1/GPa) = 0.03948660
#
# Stress axis : x y z
#
# Youngs Moduli (GPa) = 85.00760 81.40810 36.42775
#
# Poissons Ratio (x) = 0.11066 -0.05260
# Poissons Ratio (y) = 0.11555 0.22188
# Poissons Ratio (z) = -0.12275 0.49585
#
# Static dielectric constant tensor:
#      x y z
#    x 1.800010 0.000000 -0.012140 
#    y 0.000000 1.707630 0.000000 
#    z -0.012140 0.000000 1.749870 
# 
# From -- ./inp_files/118804.got.cif
#   From: 2010.05.17/outbox.cif.g08.bks.cpg/sg15_60_cif.got.tgz:118804.got - 2010.06.03 18:47:42.
