data_PCOD9284849
_publ_section_title
;
Structure prediction by ZEFSAII (Michael W. Deem and Ramdas Pophale) SiO2 
 PCOD9284849
Probable space group: C 2/C
;
_chemical_formula_sum "Si O2"
_cell_formula_units_Z 60
_cell_length_a 21.925056
_cell_length_b 15.311714
_cell_length_c 9.369933
_cell_angle_alpha 90.000000
_cell_angle_beta 85.190584
_cell_angle_gamma 90.000000
_cell_volume 3134.506661
_symmetry_space_group_name_H-M "C 2/C"
_symmetry_group_IT_number 15
_symmetry_cell_setting 'monoclinic'
loop_
_space_group_symop_operation_xyz
x,y,z
-x,y,1/2-z
-x,-y,-z
x,-y,1/2+z
1/2+x,1/2+y,z
1/2-x,1/2+y,1/2-z
1/2-x,1/2-y,-z
1/2+x,1/2-y,1/2+z
loop_
_atom_site_type_symbol
_atom_site_label
_atom_site_fract_x
_atom_site_fract_y
_atom_site_fract_z
Si Si1 0.500000 0.777066 0.750000
Si Si2 0.457117 0.488890 0.140620
Si Si3 0.895019 0.834817 0.737028
Si Si4 0.402373 0.678525 0.564550
Si Si5 0.199552 0.241156 0.727687
Si Si6 0.780026 0.412899 0.098244
Si Si7 0.262224 0.579191 0.211280
Si Si8 0.107730 0.304740 0.513259
O O1 0.455004 0.724770 0.649614
O O2 0.548758 0.822371 0.628165
O O3 0.500000 0.445723 0.250000
O O4 0.437457 0.583393 0.193072
O O5 0.404253 0.423898 0.104524
O O6 0.500000 0.500000 0.000000
O O7 0.828378 0.881537 0.739318
O O8 0.904731 0.756612 0.621948
O O9 0.909072 0.806444 0.895685
O O10 0.336722 0.709373 0.628835
O O11 0.253519 0.176234 0.672753
O O12 0.218801 0.339334 0.752909
O O13 0.152964 0.246363 0.603419
O O14 0.762629 0.493208 0.204450
O O15 0.744159 0.431842 0.957901
O O16 0.850677 0.388133 0.044016
#
# Coordination Sequence:
#
# PCOD9284849 Si02
#       8
#     4   8   8   8   8   8   8   8
#     4  10  22  40  64  86 114 174 208 252 308 370
#     4  12  24  37  52  83 127 164 204 247 299 373
#     4  12  24  36  57  92 124 165 200 260 303 379
#     4  11  24  37  60  87 125 164 210 248 312 372
#     4  10  21  43  62  90 126 169 207 254 315 384
#     4  11  22  42  63  91 126 172 207 261 314 376
#     4  11  24  39  64  93 128 166 208 255 320 371
#     4  10  21  41  65  84 125 164 214 254 318 365
#
# _framework density 19.141767999999999
#
# number of rings (size 3 to 8) (size 9 to 14) (size 15 to 20)
#    0.000    1.067    4.667    2.400    5.600    1.600 
#    0.000    0.000    0.000    7.200    0.000    0.000 
#    0.000    0.000    0.000    0.000    0.000    0.000 
#
# Total GULP energy -167242.168734 kJ/mol
# GULP energy per Si atom -5574.738958 kJ/mol
# Density = 1.909820 g / cm^3
# Si number density = 19.141768 Si / 1000 Ang^3
#
#
#
# Elastic Constant Matrix: (Units=GPa)
#
#
# Indices 1 2 3 4 5 6 
#
# 1 63.3263 8.0178 31.0141 0.0000 -11.7802 0.0000
# 2 8.0178 64.0121 29.1324 0.0000 -6.9142 0.0000
# 3 31.0141 29.1324 97.5100 0.0000 -15.5754 0.0000
# 4 0.0000 0.0000 0.0000 31.0626 0.0000 -8.2933
# 5 -11.7802 -6.9142 -15.5754 0.0000 29.5188 0.0000
# 6 0.0000 0.0000 0.0000 -8.2933 0.0000 22.2199
#
#
#
# Elastic Compliance Matrix: (Units=1/GPa)
#
#
# Indices 1 2 3 4 5 6 
#
# 1 0.019351 0.000639 -0.005556 0.000000 0.004940 0.000000
# 2 0.000639 0.018164 -0.005361 0.000000 0.001680 0.000000
# 3 -0.005556 -0.005361 0.014272 0.000000 0.004058 0.000000
# 4 0.000000 0.000000 0.000000 0.035756 0.000000 0.013346
# 5 0.004940 0.001680 0.004058 0.000000 0.038383 0.000000
# 6 0.000000 0.000000 0.000000 0.013346 0.000000 0.049986
#
#
# Mechanical properties :
#
#
# Convention : Reuss Voigt Hill
#
# Bulk Modulus (GPa) = 32.02200 40.13076 36.07638
# Shear Modulus (GPa) = 24.16871 27.00585 25.58728
#
# Velocity S-wave (km/s) = 3.55719 3.76018 3.66009
# Velocity P-wave (km/s) = 5.79971 6.31367 6.06214
#
# Compressibility (1/GPa) = 0.03122853
#
# Stress axis : x y z
#
# Youngs Moduli (GPa) = 51.67802 55.05534 70.06481
#
# Poissons Ratio (x) = -0.03516 0.38931
# Poissons Ratio (y) = -0.03300 0.37564
# Poissons Ratio (z) = 0.28714 0.29517
#
# Static dielectric constant tensor:
#      x y z
#    x 1.155940 0.000000 -0.117350 
#    y 0.000000 1.638370 0.000000 
#    z -0.117350 0.000000 1.659820 
# 
# From -- ./inp_files/61536.got.cif
#   From: 2010.05.17/outbox.cif.g08.bks.cpg/sg15_31_cif.got.tgz:61536.got - 2010.06.03 18:47:42.
