data_PCOD9284129
_publ_section_title
;
Structure prediction by ZEFSAII (Michael W. Deem and Ramdas Pophale) SiO2 
 PCOD9284129
Probable space group: C 2/C
;
_chemical_formula_sum "Si O2"
_cell_formula_units_Z 40
_cell_length_a 12.223617
_cell_length_b 7.126783
_cell_length_c 26.190028
_cell_angle_alpha 90.000000
_cell_angle_beta 45.270219
_cell_angle_gamma 90.000000
_cell_volume 1620.887335
_symmetry_space_group_name_H-M "C 2/C"
_symmetry_group_IT_number 15
_symmetry_cell_setting 'monoclinic'
loop_
_space_group_symop_operation_xyz
x,y,z
-x,y,1/2-z
-x,-y,-z
x,-y,1/2+z
1/2+x,1/2+y,z
1/2-x,1/2+y,1/2-z
1/2-x,1/2-y,-z
1/2+x,1/2-y,1/2+z
loop_
_atom_site_type_symbol
_atom_site_label
_atom_site_fract_x
_atom_site_fract_y
_atom_site_fract_z
Si Si1 0.519917 0.777834 0.495470
Si Si2 0.335721 0.453318 0.797317
Si Si3 0.350759 0.689710 0.892160
Si Si4 0.097240 0.988976 0.386654
Si Si5 0.863538 0.652936 0.230285
O O1 0.687322 0.742669 0.466047
O O2 0.537650 0.677598 0.434825
O O3 0.395681 0.666250 0.570465
O O4 0.500000 0.000000 0.500000
O O5 0.500000 0.349636 0.750000
O O6 0.303717 0.543837 0.862671
O O7 0.212668 0.355095 0.801066
O O8 0.363115 0.641214 0.754936
O O9 0.463770 0.578827 0.892394
O O10 0.452959 0.867120 0.838231
O O11 0.253702 0.037210 0.304487
#
# Coordination Sequence:
#
# PCOD9284129 Si02
#       5
#     8   8   8   8   8
#     4  11  27  48  76 102 154 203 248 310 366 451
#     4  10  21  40  67 101 141 185 234 305 371 425
#     4  11  24  44  75 105 148 194 243 316 367 433
#     4  11  24  46  74 111 144 194 256 294 384 442
#     4  11  21  41  73 104 143 183 247 306 362 446
#
# _framework density 24.677841000000001
#
# number of rings (size 3 to 8) (size 9 to 14) (size 15 to 20)
#    0.000    1.200    6.000    0.600    2.800    0.800 
#    0.000    9.000    8.800    0.000    0.000    0.000 
#    0.000    0.000    0.000    0.000    0.000    0.000 
#
# Total GULP energy -111582.904636 kJ/mol
# GULP energy per Si atom -5579.145232 kJ/mol
# Density = 2.462167 g / cm^3
# Si number density = 24.677841 Si / 1000 Ang^3
#
#
#
# Elastic Constant Matrix: (Units=GPa)
#
#
# Indices 1 2 3 4 5 6 
#
# 1 147.7833 26.9001 45.0270 0.0001 -3.9163 0.0002
# 2 26.9001 106.4862 58.7672 0.0003 0.5060 0.0005
# 3 45.0270 58.7672 159.9039 0.0000 -20.0634 0.0001
# 4 0.0001 0.0003 0.0000 39.0119 0.0000 2.3815
# 5 -3.9163 0.5060 -20.0634 0.0000 44.8557 0.0001
# 6 0.0002 0.0005 0.0001 2.3815 0.0001 53.6356
#
#
#
# Elastic Compliance Matrix: (Units=1/GPa)
#
#
# Indices 1 2 3 4 5 6 
#
# 1 0.007472 -0.000898 -0.001791 0.000000 -0.000139 0.000000
# 2 -0.000898 0.012095 -0.004470 0.000000 -0.002214 0.000000
# 3 -0.001791 -0.004470 0.008886 0.000000 0.003869 0.000000
# 4 0.000000 0.000000 0.000000 0.025703 0.000000 -0.001141
# 5 -0.000139 -0.002214 0.003869 0.000000 0.024037 0.000000
# 6 0.000000 0.000000 0.000000 -0.001141 0.000000 0.018695
#
#
# Mechanical properties :
#
#
# Convention : Reuss Voigt Hill
#
# Bulk Modulus (GPa) = 70.74914 75.06243 72.90578
# Shear Modulus (GPa) = 43.13322 46.39926 44.76624
#
# Velocity S-wave (km/s) = 4.18527 4.34083 4.26376
# Velocity P-wave (km/s) = 7.21711 7.45699 7.33803
#
# Compressibility (1/GPa) = 0.01413445
#
# Stress axis : x y z
#
# Youngs Moduli (GPa) = 133.82748 82.67693 112.53123
#
# Poissons Ratio (x) = 0.07427 0.20158
# Poissons Ratio (y) = 0.12023 0.50302
# Poissons Ratio (z) = 0.23973 0.36957
#
# Static dielectric constant tensor:
#      x y z
#    x 1.958030 0.000000 0.000760 
#    y 0.000000 1.992290 0.000000 
#    z 0.000760 0.000000 2.120400 
# 
# From -- ./inp_files/291016.got.cif
#   From: 2010.05.17/outbox.cif.g08.bks.cpg/sg15_146_cif.got.tgz:291016.got - 2010.06.03 18:47:42.
