data_PCOD9284103
_publ_section_title
;
Structure prediction by ZEFSAII (Michael W. Deem and Ramdas Pophale) SiO2 
 PCOD9284103
Probable space group: C 2/C
;
_chemical_formula_sum "Si O2"
_cell_formula_units_Z 48
_cell_length_a 8.028513
_cell_length_b 14.270017
_cell_length_c 18.669429
_cell_angle_alpha 90.000000
_cell_angle_beta 99.489985
_cell_angle_gamma 90.000000
_cell_volume 2109.628726
_symmetry_space_group_name_H-M "C 2/C"
_symmetry_group_IT_number 15
_symmetry_cell_setting 'monoclinic'
loop_
_space_group_symop_operation_xyz
x,y,z
-x,y,1/2-z
-x,-y,-z
x,-y,1/2+z
1/2+x,1/2+y,z
1/2-x,1/2+y,1/2-z
1/2-x,1/2-y,-z
1/2+x,1/2-y,1/2+z
loop_
_atom_site_type_symbol
_atom_site_label
_atom_site_fract_x
_atom_site_fract_y
_atom_site_fract_z
Si Si1 0.342396 0.249319 0.278014
Si Si2 0.650350 0.059020 0.974830
Si Si3 0.377748 0.400401 0.808713
Si Si4 0.990162 0.285493 0.941833
Si Si5 0.637622 0.384814 0.530296
Si Si6 0.153123 0.426545 0.307396
O O1 0.500000 0.297122 0.250000
O O2 0.275958 0.168576 0.221466
O O3 0.406455 0.211766 0.358365
O O4 0.197796 0.324071 0.282770
O O5 0.613924 0.073759 0.888518
O O6 0.814403 0.991004 0.990260
O O7 0.632869 0.157648 0.013713
O O8 0.500000 0.000000 0.000000
O O9 0.500000 0.388727 0.750000
O O10 0.435103 0.379322 0.893972
O O11 0.311068 0.505879 0.807159
O O12 0.175363 0.335048 0.953220
O O13 0.025594 0.178858 0.969800
O O14 0.000000 0.465049 0.250000
#
# Coordination Sequence:
#
# PCOD9284103 Si02
#       6
#     8   8   8   8   8   8
#     4  12  25  43  68 101 140 178 229 281 346 410
#     4   9  21  40  65  96 129 178 228 279 344 409
#     4  11  24  45  67  99 136 180 225 285 340 409
#     4  10  21  40  66  96 133 179 224 284 344 408
#     4   9  20  41  66  95 134 175 230 276 347 406
#     4  11  26  44  69  99 135 182 231 280 345 414
#
# _framework density 22.75282
#
# number of rings (size 3 to 8) (size 9 to 14) (size 15 to 20)
#    0.000    1.667    1.667    1.500    9.333    2.000 
#    3.000    1.667    0.000    0.000    0.000    0.000 
#    0.000    0.000    0.000    0.000    0.000    0.000 
#
# Total GULP energy -134211.868184 kJ/mol
# GULP energy per Si atom -5592.161174 kJ/mol
# Density = 2.270103 g / cm^3
# Si number density = 22.752820 Si / 1000 Ang^3
#
#
#
# Elastic Constant Matrix: (Units=GPa)
#
#
# Indices 1 2 3 4 5 6 
#
# 1 63.9446 3.6910 28.8517 0.0000 -23.1559 0.0000
# 2 3.6910 88.3691 32.4851 0.0000 -10.1664 0.0000
# 3 28.8517 32.4851 122.7548 0.0000 -22.6782 0.0000
# 4 0.0000 0.0000 0.0000 27.4978 0.0000 -2.8466
# 5 -23.1559 -10.1664 -22.6782 0.0000 40.0464 0.0000
# 6 0.0000 0.0000 0.0000 -2.8466 0.0000 21.7265
#
#
#
# Elastic Compliance Matrix: (Units=1/GPa)
#
#
# Indices 1 2 3 4 5 6 
#
# 1 0.020901 0.001586 -0.003378 0.000000 0.010575 0.000000
# 2 0.001586 0.012732 -0.003323 0.000000 0.002267 0.000000
# 3 -0.003378 -0.003323 0.010390 0.000000 0.003087 0.000000
# 4 0.000000 0.000000 0.000000 0.036867 0.000000 0.004830
# 5 0.010575 0.002267 0.003087 0.000000 0.033409 0.000000
# 6 0.000000 0.000000 0.000000 0.004830 0.000000 0.046660
#
#
# Mechanical properties :
#
#
# Convention : Reuss Voigt Hill
#
# Bulk Modulus (GPa) = 29.59372 45.01380 37.30376
# Shear Modulus (GPa) = 27.40412 31.85686 29.63049
#
# Velocity S-wave (km/s) = 3.47425 3.74589 3.61262
# Velocity P-wave (km/s) = 5.39711 6.20771 5.81655
#
# Compressibility (1/GPa) = 0.03379095
#
# Stress axis : x y z
#
# Youngs Moduli (GPa) = 47.84536 78.53966 96.24587
#
# Poissons Ratio (x) = -0.12452 0.32515
# Poissons Ratio (y) = -0.07586 0.31985
# Poissons Ratio (z) = 0.16164 0.26101
#
# Static dielectric constant tensor:
#      x y z
#    x 1.876660 0.000000 -0.039530 
#    y 0.000000 1.414190 0.000000 
#    z -0.039530 0.000000 1.714390 
# 
# From -- ./inp_files/189265.got.cif
#   From: 2010.05.17/outbox.cif.g08.bks.cpg/sg15_95_cif.got.tgz:189265.got - 2010.06.03 18:47:42.
