data_PCOD9284434
_publ_section_title
;
Structure prediction by ZEFSAII (Michael W. Deem and Ramdas Pophale) SiO2 
 PCOD9284434
Probable space group: C 2/C
;
_chemical_formula_sum "Si O2"
_cell_formula_units_Z 56
_cell_length_a 17.809104
_cell_length_b 8.458359
_cell_length_c 18.417100
_cell_angle_alpha 90.000000
_cell_angle_beta 71.343026
_cell_angle_gamma 90.000000
_cell_volume 2628.488523
_symmetry_space_group_name_H-M "C 2/C"
_symmetry_group_IT_number 15
_symmetry_cell_setting 'monoclinic'
loop_
_space_group_symop_operation_xyz
x,y,z
-x,y,1/2-z
-x,-y,-z
x,-y,1/2+z
1/2+x,1/2+y,z
1/2-x,1/2+y,1/2-z
1/2-x,1/2-y,-z
1/2+x,1/2-y,1/2+z
loop_
_atom_site_type_symbol
_atom_site_label
_atom_site_fract_x
_atom_site_fract_y
_atom_site_fract_z
Si Si1 0.735370 0.311020 0.086172
Si Si2 0.791046 0.345869 0.552617
Si Si3 0.999884 0.078950 0.161711
Si Si4 0.084498 0.408514 0.097237
Si Si5 0.717288 0.127994 0.680720
Si Si6 0.944174 0.740822 0.338753
Si Si7 0.672805 0.351575 0.820993
O O1 0.739473 0.499922 0.085818
O O2 0.650974 0.253648 0.143652
O O3 0.806007 0.242214 0.112828
O O4 0.750000 0.250000 0.000000
O O5 0.750000 0.250000 0.500000
O O6 0.874072 0.401944 0.494152
O O7 0.787381 0.229307 0.621436
O O8 0.912313 0.070661 0.156266
O O9 0.000000 0.085680 0.250000
O O10 0.038420 0.243962 0.123540
O O11 0.039414 0.911085 0.129316
O O12 0.153947 0.409419 0.137398
O O13 0.041229 0.576400 0.122917
O O14 0.675273 0.233015 0.753306
O O15 0.757757 0.979852 0.705911
O O16 0.000000 0.733986 0.250000
#
# Coordination Sequence:
#
# PCOD9284434 Si02
#       7
#     8   8   8   8   8   8   8
#     4  12  23  47  72 104 139 186 243 296 352 424
#     4  10  21  40  71  99 136 184 237 292 351 421
#     4  11  25  44  66 103 151 184 230 300 367 421
#     4  11  21  46  72  98 141 194 230 295 359 430
#     4  11  23  41  67 105 137 176 249 289 355 419
#     4  11  24  40  73 106 140 188 240 287 367 427
#     4  12  26  42  72 107 140 187 236 301 350 432
#
# _framework density 21.305019999999999
#
# number of rings (size 3 to 8) (size 9 to 14) (size 15 to 20)
#    0.000    0.857    4.286    3.857    6.000    0.000 
#    2.571    3.571    0.000    0.000    0.000    0.000 
#    0.000    0.000    0.000    0.000    0.000    0.000 
#
# Total GULP energy -156359.796257 kJ/mol
# GULP energy per Si atom -5584.278438 kJ/mol
# Density = 2.125653 g / cm^3
# Si number density = 21.305020 Si / 1000 Ang^3
#
#
#
# Elastic Constant Matrix: (Units=GPa)
#
#
# Indices 1 2 3 4 5 6 
#
# 1 80.0211 5.0758 1.3864 0.0000 2.8912 0.0000
# 2 5.0758 132.8809 -0.6924 0.0000 -4.1986 0.0000
# 3 1.3864 -0.6924 60.9466 0.0000 -4.7712 0.0000
# 4 0.0000 0.0000 0.0000 35.5761 0.0000 -27.6483
# 5 2.8912 -4.1986 -4.7712 0.0000 24.6930 0.0000
# 6 0.0000 0.0000 0.0000 -27.6483 0.0000 42.6599
#
#
#
# Elastic Compliance Matrix: (Units=1/GPa)
#
#
# Indices 1 2 3 4 5 6 
#
# 1 0.012597 -0.000535 -0.000422 0.000000 -0.001648 0.000000
# 2 -0.000535 0.007591 0.000208 0.000000 0.001394 0.000000
# 3 -0.000422 0.000208 0.016679 0.000000 0.003307 0.000000
# 4 0.000000 0.000000 0.000000 0.056635 0.000000 0.036706
# 5 -0.001648 0.001394 0.003307 0.000000 0.041566 0.000000
# 6 0.000000 0.000000 0.000000 0.036706 0.000000 0.047231
#
#
# Mechanical properties :
#
#
# Convention : Reuss Voigt Hill
#
# Bulk Modulus (GPa) = 28.27401 31.70977 29.99189
# Shear Modulus (GPa) = 25.56399 38.45773 32.01086
#
# Velocity S-wave (km/s) = 3.46772 4.25326 3.88042
# Velocity P-wave (km/s) = 5.41602 6.24790 5.84678
#
# Compressibility (1/GPa) = 0.03536818
#
# Stress axis : x y z
#
# Youngs Moduli (GPa) = 79.38085 131.73321 59.95680
#
# Poissons Ratio (x) = 0.07054 0.02528
# Poissons Ratio (y) = 0.04250 -0.01244
# Poissons Ratio (z) = 0.03347 -0.02734
#
# Static dielectric constant tensor:
#      x y z
#    x 1.781140 0.000000 -0.049140 
#    y 0.000000 1.443210 0.000000 
#    z -0.049140 0.000000 1.771910 
# 
# From -- ./inp_files/209530.got.cif
#   From: 2010.05.17/outbox.cif.g08.bks.cpg/sg15_105_cif.got.tgz:209530.got - 2010.06.03 18:47:42.
