data_PCOD9284316
_publ_section_title
;
Structure prediction by ZEFSAII (Michael W. Deem and Ramdas Pophale) SiO2 
 PCOD9284316
Probable space group: C 2/C
;
_chemical_formula_sum "Si O2"
_cell_formula_units_Z 52
_cell_length_a 23.834572
_cell_length_b 19.619482
_cell_length_c 7.194835
_cell_angle_alpha 90.000000
_cell_angle_beta 134.905218
_cell_angle_gamma 90.000000
_cell_volume 2382.966754
_symmetry_space_group_name_H-M "C 2/C"
_symmetry_group_IT_number 15
_symmetry_cell_setting 'monoclinic'
loop_
_space_group_symop_operation_xyz
x,y,z
-x,y,1/2-z
-x,-y,-z
x,-y,1/2+z
1/2+x,1/2+y,z
1/2-x,1/2+y,1/2-z
1/2-x,1/2-y,-z
1/2+x,1/2-y,1/2+z
loop_
_atom_site_type_symbol
_atom_site_label
_atom_site_fract_x
_atom_site_fract_y
_atom_site_fract_z
Si Si1 0.826587 0.416427 0.036243
Si Si2 0.912458 0.449250 0.596263
Si Si3 0.654337 0.153154 0.299527
Si Si4 0.500000 0.367510 0.250000
Si Si5 0.824414 0.101686 0.785417
Si Si6 0.562114 0.714985 0.539928
Si Si7 0.655858 0.448598 0.589861
O O1 0.879637 0.408730 0.341530
O O2 0.855469 0.487433 0.009226
O O3 0.835301 0.360883 0.895649
O O4 0.735355 0.425666 0.881528
O O5 0.909742 0.399019 0.765031
O O6 0.000000 0.473573 0.750000
O O7 0.736358 0.132728 0.593678
O O8 0.624587 0.229316 0.257280
O O9 0.477718 0.321199 0.375478
O O10 0.574650 0.416275 0.471241
O O11 0.890589 0.158434 0.968625
O O12 0.831779 0.081520 0.585853
O O13 0.842700 0.030097 0.924487
O O14 0.500000 0.747171 0.250000
#
# Coordination Sequence:
#
# PCOD9284316 Si02
#       7
#     8   8   8   4   8   8   8
#     4  11  22  41  64 101 128 174 214 276 341 392
#     4  12  24  36  64  96 129 172 225 279 331 382
#     4  11  25  42  64  91 138 177 219 272 326 410
#     4  10  26  44  68 104 134 168 228 286 326 392
#     4  10  22  42  68  97 131 173 221 275 338 395
#     4  11  27  43  65  94 134 184 221 267 334 404
#     4  10  21  40  69 101 133 162 220 283 335 392
#
# _framework density 21.821539000000001
#
# number of rings (size 3 to 8) (size 9 to 14) (size 15 to 20)
#    0.000    1.231    3.077    1.846    6.462    1.231 
#    0.000    0.000    0.000    7.385    0.000    0.000 
#    0.000    0.000    0.000    0.000    0.000    0.000 
#
# Total GULP energy -145352.278324 kJ/mol
# GULP energy per Si atom -5590.472243 kJ/mol
# Density = 2.177187 g / cm^3
# Si number density = 21.821539 Si / 1000 Ang^3
#
#
#
# Elastic Constant Matrix: (Units=GPa)
#
#
# Indices 1 2 3 4 5 6 
#
# 1 95.2845 42.2184 46.5529 0.0000 24.2802 0.0000
# 2 42.2184 85.2271 24.8789 0.0000 21.9657 0.0000
# 3 46.5529 24.8789 74.0328 0.0000 14.7253 0.0000
# 4 0.0000 0.0000 0.0000 27.6857 0.0000 12.6434
# 5 24.2802 21.9657 14.7253 0.0000 38.5722 0.0000
# 6 0.0000 0.0000 0.0000 12.6434 0.0000 26.9410
#
#
#
# Elastic Compliance Matrix: (Units=1/GPa)
#
#
# Indices 1 2 3 4 5 6 
#
# 1 0.018449 -0.005207 -0.008799 0.000000 -0.005288 0.000000
# 2 -0.005207 0.016017 -0.001024 0.000000 -0.005453 0.000000
# 3 -0.008799 -0.001024 0.019660 0.000000 -0.001384 0.000000
# 4 0.000000 0.000000 0.000000 0.045973 0.000000 -0.021575
# 5 -0.005288 -0.005453 -0.001384 0.000000 0.032888 0.000000
# 6 0.000000 0.000000 0.000000 -0.021575 0.000000 0.047243
#
#
# Mechanical properties :
#
#
# Convention : Reuss Voigt Hill
#
# Bulk Modulus (GPa) = 41.55314 53.53829 47.54572
# Shear Modulus (GPa) = 22.90322 28.03271 25.46796
#
# Velocity S-wave (km/s) = 3.24322 3.58807 3.41999
# Velocity P-wave (km/s) = 5.75398 6.46170 6.11808
#
# Compressibility (1/GPa) = 0.02406557
#
# Stress axis : x y z
#
# Youngs Moduli (GPa) = 54.20481 62.43393 50.86570
#
# Poissons Ratio (x) = 0.32511 0.44756
# Poissons Ratio (y) = 0.28226 0.05207
# Poissons Ratio (z) = 0.47694 0.06391
#
# Static dielectric constant tensor:
#      x y z
#    x 1.810070 0.000000 0.010670 
#    y 0.000000 1.769450 0.000000 
#    z 0.010670 0.000000 1.829090 
# 
# From -- ./inp_files/63445.got.cif
#   From: 2010.05.17/outbox.cif.g08.bks.cpg/sg15_32_cif.got.tgz:63445.got - 2010.06.03 18:47:42.
