data_PCOD9284402
_publ_section_title
;
Structure prediction by ZEFSAII (Michael W. Deem and Ramdas Pophale) SiO2 
 PCOD9284402
Probable space group: C 2/C
;
_chemical_formula_sum "Si O2"
_cell_formula_units_Z 56
_cell_length_a 18.614999
_cell_length_b 5.135583
_cell_length_c 25.325976
_cell_angle_alpha 90.000000
_cell_angle_beta 91.134841
_cell_angle_gamma 90.000000
_cell_volume 2420.659851
_symmetry_space_group_name_H-M "C 2/C"
_symmetry_group_IT_number 15
_symmetry_cell_setting 'monoclinic'
loop_
_space_group_symop_operation_xyz
x,y,z
-x,y,1/2-z
-x,-y,-z
x,-y,1/2+z
1/2+x,1/2+y,z
1/2-x,1/2+y,1/2-z
1/2-x,1/2-y,-z
1/2+x,1/2-y,1/2+z
loop_
_atom_site_type_symbol
_atom_site_label
_atom_site_fract_x
_atom_site_fract_y
_atom_site_fract_z
Si Si1 0.793061 0.877951 0.244499
Si Si2 0.515813 0.085240 0.813598
Si Si3 0.613301 0.251086 0.610201
Si Si4 0.896256 0.086909 0.654398
Si Si5 0.804305 0.774011 0.581423
Si Si6 0.315010 0.054723 0.987223
Si Si7 0.818268 0.253573 0.854506
O O1 0.727832 0.677114 0.249278
O O2 0.841053 0.801219 0.295038
O O3 0.832022 0.827852 0.191094
O O4 0.500000 0.052891 0.750000
O O5 0.546876 0.819136 0.839490
O O6 0.452768 0.176887 0.853108
O O7 0.571651 0.322564 0.820325
O O8 0.622058 0.169318 0.548690
O O9 0.631143 0.555320 0.613092
O O10 0.674138 0.061230 0.636212
O O11 0.859692 0.998133 0.598792
O O12 0.840614 0.573652 0.542012
O O13 0.764199 0.673570 0.633606
O O14 0.731279 0.853476 0.549091
O O15 0.250000 0.250000 0.000000
#
# Coordination Sequence:
#
# PCOD9284402 Si02
#       7
#     8   8   8   8   8   8   8
#     4  12  23  36  59  97 132 165 206 267 344 402
#     4  12  26  47  67  93 136 190 230 270 322 408
#     4  11  23  41  67  93 126 178 232 264 333 395
#     4  12  26  43  68  96 140 175 224 281 332 409
#     4  10  23  40  63 105 131 169 215 280 361 390
#     4  10  21  40  70  96 134 169 217 291 345 411
#     4  11  21  38  64  94 132 162 214 283 330 412
#
# _framework density 23.134187000000001
#
# number of rings (size 3 to 8) (size 9 to 14) (size 15 to 20)
#    0.000    0.857    2.857    4.714    4.000    0.000 
#    0.000    1.429    0.000    0.000    0.000    0.000 
#    0.000    0.000    0.000    0.000    0.000    0.000 
#
# Total GULP energy -156125.817515 kJ/mol
# GULP energy per Si atom -5575.922054 kJ/mol
# Density = 2.308153 g / cm^3
# Si number density = 23.134187 Si / 1000 Ang^3
#
#
#
# Elastic Constant Matrix: (Units=GPa)
#
#
# Indices 1 2 3 4 5 6 
#
# 1 68.3364 17.8659 23.2014 0.0000 -18.2343 0.0000
# 2 17.8659 93.1043 23.4982 0.0000 9.4022 0.0000
# 3 23.2014 23.4982 67.6005 0.0000 -18.8986 0.0000
# 4 0.0000 0.0000 0.0000 30.6743 0.0000 -0.3443
# 5 -18.2343 9.4022 -18.8986 0.0000 32.8826 0.0000
# 6 0.0000 0.0000 0.0000 -0.3443 0.0000 40.8733
#
#
#
# Elastic Compliance Matrix: (Units=1/GPa)
#
#
# Indices 1 2 3 4 5 6 
#
# 1 0.019330 -0.004239 -0.002175 0.000000 0.010681 0.000000
# 2 -0.004239 0.014141 -0.006253 0.000000 -0.009988 0.000000
# 3 -0.002175 -0.006253 0.021297 0.000000 0.012822 0.000000
# 4 0.000000 0.000000 0.000000 0.032604 0.000000 0.000275
# 5 0.010681 -0.009988 0.012822 0.000000 0.046559 0.000000
# 6 0.000000 0.000000 0.000000 0.000275 0.000000 0.024468
#
#
# Mechanical properties :
#
#
# Convention : Reuss Voigt Hill
#
# Bulk Modulus (GPa) = 33.97287 39.79692 36.88490
# Shear Modulus (GPa) = 25.83387 31.85106 28.84247
#
# Velocity S-wave (km/s) = 3.34533 3.71455 3.53476
# Velocity P-wave (km/s) = 5.44414 5.96968 5.71296
#
# Compressibility (1/GPa) = 0.02943525
#
# Stress axis : x y z
#
# Youngs Moduli (GPa) = 51.73232 70.71742 46.95446
#
# Poissons Ratio (x) = 0.29978 0.10211
# Poissons Ratio (y) = 0.21930 0.29359
# Poissons Ratio (z) = 0.11251 0.44217
#
# Static dielectric constant tensor:
#      x y z
#    x 1.954620 0.000000 -0.018280 
#    y 0.000000 1.899510 0.000000 
#    z -0.018280 0.000000 2.126580 
# 
# From -- ./inp_files/278659.got.cif
#   From: 2010.05.17/outbox.cif.g08.bks.cpg/sg15_140_cif.got.tgz:278659.got - 2010.06.03 18:47:42.
