data_PCOD9284936
_publ_section_title
;
Structure prediction by ZEFSAII (Michael W. Deem and Ramdas Pophale) SiO2 
 PCOD9284936
Probable space group: C 2/C
;
_chemical_formula_sum "Si O2"
_cell_formula_units_Z 56
_cell_length_a 23.688378
_cell_length_b 11.501800
_cell_length_c 28.876237
_cell_angle_alpha 90.000000
_cell_angle_beta 162.529088
_cell_angle_gamma 90.000000
_cell_volume 2362.020349
_symmetry_space_group_name_H-M "C 2/C"
_symmetry_group_IT_number 15
_symmetry_cell_setting 'monoclinic'
loop_
_space_group_symop_operation_xyz
x,y,z
-x,y,1/2-z
-x,-y,-z
x,-y,1/2+z
1/2+x,1/2+y,z
1/2-x,1/2+y,1/2-z
1/2-x,1/2-y,-z
1/2+x,1/2-y,1/2+z
loop_
_atom_site_type_symbol
_atom_site_label
_atom_site_fract_x
_atom_site_fract_y
_atom_site_fract_z
Si Si1 0.737332 0.076300 0.330262
Si Si2 0.640466 0.352653 0.130700
Si Si3 0.224069 0.855423 0.535179
Si Si4 0.185788 0.406015 0.994864
Si Si5 0.755412 0.109271 0.111404
Si Si6 0.955740 0.800484 0.845535
Si Si7 0.148235 0.043516 0.734202
O O1 0.727612 0.090214 0.377855
O O2 0.914404 0.156754 0.454108
O O3 0.793782 0.952378 0.353206
O O4 0.524636 0.099186 0.148592
O O5 0.707198 0.392279 0.234021
O O6 0.750821 0.239531 0.202375
O O7 0.273177 0.719331 0.574183
O O8 0.314008 0.912793 0.560593
O O9 0.997953 0.873695 0.353406
O O10 0.283320 0.519631 0.091758
O O11 0.712206 0.018498 0.120423
O O12 0.932087 0.179075 0.271692
O O13 0.602026 0.204740 0.976755
O O14 0.975290 0.931095 0.879206
#
# Coordination Sequence:
#
# PCOD9284936 Si02
#       7
#     8   8   8   8   8   8   8
#     4  10  22  39  65 100 131 184 234 286 351 431
#     4  10  21  41  65  96 142 186 225 291 348 413
#     4  10  24  43  71  98 140 177 235 306 354 415
#     4  11  23  45  69 101 135 185 234 299 359 422
#     4  10  24  44  71 101 144 187 242 288 358 432
#     4  10  23  44  67 100 151 189 232 297 349 425
#     4   9  24  42  66 101 136 185 235 293 348 420
#
# _framework density 23.708518000000002
#
# number of rings (size 3 to 8) (size 9 to 14) (size 15 to 20)
#    0.857    1.143    1.429    0.429    8.000    3.429 
#    0.000    0.714    3.143    0.000    0.000    0.000 
#    0.000    0.000    0.000    0.000    0.000    0.000 
#
# Total GULP energy -156177.215922 kJ/mol
# GULP energy per Si atom -5577.757712 kJ/mol
# Density = 2.365456 g / cm^3
# Si number density = 23.708518 Si / 1000 Ang^3
#
#
#
# Elastic Constant Matrix: (Units=GPa)
#
#
# Indices 1 2 3 4 5 6 
#
# 1 84.2235 40.1020 36.4025 -0.0746 -1.2513 0.0008
# 2 40.1020 92.8151 33.6831 -0.0518 -3.4948 -0.0034
# 3 36.4025 33.6831 82.3629 -0.0431 -10.8575 -0.0206
# 4 -0.0746 -0.0518 -0.0431 -3.8131 0.0099 -0.4260
# 5 -1.2513 -3.4948 -10.8575 0.0099 23.2520 -0.0023
# 6 0.0008 -0.0034 -0.0206 -0.4260 -0.0023 43.2056
#
#
#
# Elastic Compliance Matrix: (Units=1/GPa)
#
#
# Indices 1 2 3 4 5 6 
#
# 1 0.016776 -0.005322 -0.005567 -0.000199 -0.002497 -0.000005
# 2 -0.005322 0.014347 -0.003483 -0.000050 0.000244 -0.000001
# 3 -0.005567 -0.003483 0.016962 -0.000018 0.007097 0.000008
# 4 -0.000199 -0.000050 -0.000018 -0.261960 0.000085 -0.002583
# 5 -0.002497 0.000244 0.007097 0.000085 0.046223 0.000007
# 6 -0.000005 -0.000001 0.000008 -0.002583 0.000007 0.023120
#
#
# Mechanical properties :
#
#
# Convention : Reuss Voigt Hill
#
# Bulk Modulus (GPa) = 51.70589 53.30852 52.50721
# Shear Modulus (GPa) = -45.72889 22.47649 -11.62620
#
# Velocity S-wave (km/s) = -4.39657 3.08236 -2.21686
# Velocity P-wave (km/s) = 1.97908 5.93310 3.95505
#
# Compressibility (1/GPa) = 0.01934016
#
# Stress axis : x y z
#
# Youngs Moduli (GPa) = 59.60799 69.70248 58.95522
#
# Poissons Ratio (x) = 0.37096 0.32823
# Poissons Ratio (y) = 0.31724 0.20533
# Poissons Ratio (z) = 0.33186 0.24277
#
# Static dielectric constant tensor:
#      x y z
#    x 1.816320 -0.000280 0.165880 
#    y -0.000280 1.868220 0.000620 
#    z 0.165880 0.000620 1.506110 
# 
# From -- ./inp_files/318804.got.cif
#   From: 2010.05.17/outbox.cif.g08.bks.cpg/sg15_160_cif.got.tgz:318804.got - 2010.06.03 18:47:42.
