data_PCOD9284773
_publ_section_title
;
Structure prediction by ZEFSAII (Michael W. Deem and Ramdas Pophale) SiO2 
 PCOD9284773
Probable space group: C 2/C
;
_chemical_formula_sum "Si O2"
_cell_formula_units_Z 48
_cell_length_a 9.283033
_cell_length_b 30.158791
_cell_length_c 16.138063
_cell_angle_alpha 90.000000
_cell_angle_beta 147.887901
_cell_angle_gamma 90.000000
_cell_volume 2401.716710
_symmetry_space_group_name_H-M "C 2/C"
_symmetry_group_IT_number 15
_symmetry_cell_setting 'monoclinic'
loop_
_space_group_symop_operation_xyz
x,y,z
-x,y,1/2-z
-x,-y,-z
x,-y,1/2+z
1/2+x,1/2+y,z
1/2-x,1/2+y,1/2-z
1/2-x,1/2-y,-z
1/2+x,1/2-y,1/2+z
loop_
_atom_site_type_symbol
_atom_site_label
_atom_site_fract_x
_atom_site_fract_y
_atom_site_fract_z
Si Si1 0.662088 0.466643 0.242466
Si Si2 0.994475 0.721714 0.845392
Si Si3 0.887041 0.470966 0.600716
Si Si4 0.691846 0.872857 0.263021
Si Si5 0.669377 0.871709 0.917291
Si Si6 0.007907 0.719701 0.352906
O O1 0.500000 0.466478 0.250000
O O2 0.775895 0.417852 0.274226
O O3 0.914275 0.499755 0.357982
O O4 0.430344 0.482516 0.063836
O O5 0.000000 0.715794 0.750000
O O6 0.929226 0.670977 0.841930
O O7 0.754099 0.754731 0.747958
O O8 0.250000 0.750000 0.000000
O O9 0.881345 0.419616 0.568644
O O10 0.000000 0.474127 0.750000
O O11 0.500000 0.881559 0.250000
O O12 0.009009 0.863468 0.441675
O O13 0.500000 0.874084 0.750000
O O14 0.553088 0.829644 0.909051
O O15 0.250000 0.750000 0.500000
O O16 0.000000 0.716525 0.250000
#
# Coordination Sequence:
#
# PCOD9284773 Si02
#       6
#     8   8   8   8   8   8
#     4  11  23  41  64  95 127 159 200 260 314 358
#     4  11  24  42  60  91 126 161 207 256 305 367
#     4  10  21  41  64  91 124 162 211 244 300 376
#     4  10  22  40  63  87 124 166 209 247 303 373
#     4   9  20  37  61  91 119 160 207 251 295 363
#     4  11  21  38  63  88 122 162 205 251 306 357
#
# _framework density 19.985703999999998
#
# number of rings (size 3 to 8) (size 9 to 14) (size 15 to 20)
#    0.000    1.667    1.667    2.500    7.000    3.333 
#    6.000    0.833    0.000    0.000    0.000    0.000 
#    0.000    0.000    0.000    0.000    0.000    0.000 
#
# Total GULP energy -133765.531082 kJ/mol
# GULP energy per Si atom -5573.563795 kJ/mol
# Density = 1.994022 g / cm^3
# Si number density = 19.985704 Si / 1000 Ang^3
#
#
#
# Elastic Constant Matrix: (Units=GPa)
#
#
# Indices 1 2 3 4 5 6 
#
# 1 78.4854 57.9210 16.9301 0.0000 19.1844 0.0000
# 2 57.9210 159.3778 67.9393 0.0000 35.8905 0.0000
# 3 16.9301 67.9393 130.4674 0.0000 22.4134 0.0000
# 4 0.0000 0.0000 0.0000 35.7844 0.0000 8.2063
# 5 19.1844 35.8905 22.4134 0.0000 39.2302 0.0000
# 6 0.0000 0.0000 0.0000 8.2063 0.0000 32.9631
#
#
#
# Elastic Compliance Matrix: (Units=1/GPa)
#
#
# Indices 1 2 3 4 5 6 
#
# 1 0.018056 -0.006381 0.001656 0.000000 -0.003938 0.000000
# 2 -0.006381 0.011564 -0.004338 0.000000 -0.004981 0.000000
# 3 0.001656 -0.004338 0.010164 0.000000 -0.002648 0.000000
# 4 0.000000 0.000000 0.000000 0.029637 0.000000 -0.007378
# 5 -0.003938 -0.004981 -0.002648 0.000000 0.033486 0.000000
# 6 0.000000 0.000000 0.000000 -0.007378 0.000000 0.032174
#
#
# Mechanical properties :
#
#
# Convention : Reuss Voigt Hill
#
# Bulk Modulus (GPa) = 46.17239 72.65680 59.41460
# Shear Modulus (GPa) = 31.16703 36.63155 33.89929
#
# Velocity S-wave (km/s) = 3.95329 4.28587 4.12293
# Velocity P-wave (km/s) = 6.63256 7.80544 7.24278
#
# Compressibility (1/GPa) = 0.02165796
#
# Stress axis : x y z
#
# Youngs Moduli (GPa) = 55.38443 86.47282 98.38826
#
# Poissons Ratio (x) = 0.55178 -0.16297
# Poissons Ratio (y) = 0.35341 0.42684
# Poissons Ratio (z) = -0.09174 0.37514
#
# Static dielectric constant tensor:
#      x y z
#    x 1.687120 0.000000 -0.040490 
#    y 0.000000 1.782350 0.000000 
#    z -0.040490 0.000000 1.736500 
# 
# From -- ./inp_files/194318.got.cif
#   From: 2010.05.17/outbox.cif.g08.bks.cpg/sg15_98_cif.got.tgz:194318.got - 2010.06.03 18:47:42.
