data_PCOD9284063
_publ_section_title
;
Structure prediction by ZEFSAII (Michael W. Deem and Ramdas Pophale) SiO2 
 PCOD9284063
Probable space group: C 2/C
;
_chemical_formula_sum "Si O2"
_cell_formula_units_Z 40
_cell_length_a 8.666892
_cell_length_b 19.725621
_cell_length_c 10.161858
_cell_angle_alpha 90.000000
_cell_angle_beta 85.538262
_cell_angle_gamma 90.000000
_cell_volume 1732.004700
_symmetry_space_group_name_H-M "C 2/C"
_symmetry_group_IT_number 15
_symmetry_cell_setting 'monoclinic'
loop_
_space_group_symop_operation_xyz
x,y,z
-x,y,1/2-z
-x,-y,-z
x,-y,1/2+z
1/2+x,1/2+y,z
1/2-x,1/2+y,1/2-z
1/2-x,1/2-y,-z
1/2+x,1/2-y,1/2+z
loop_
_atom_site_type_symbol
_atom_site_label
_atom_site_fract_x
_atom_site_fract_y
_atom_site_fract_z
Si Si1 0.701104 0.131462 0.473170
Si Si2 0.607840 0.089602 0.116597
Si Si3 0.311573 0.781612 0.766829
Si Si4 0.815666 0.864770 0.263784
Si Si5 0.170943 0.994048 0.050679
O O1 0.518487 0.114510 0.481100
O O2 0.734166 0.196206 0.378362
O O3 0.758913 0.132640 0.617654
O O4 0.786607 0.067657 0.399040
O O5 0.500000 0.075722 0.250000
O O6 0.720182 0.153269 0.140018
O O7 0.705677 0.025125 0.070029
O O8 0.500000 0.780282 0.750000
O O9 0.253317 0.708622 0.816898
O O10 0.797113 0.933028 0.349288
O O11 0.000000 0.857953 0.250000
O O12 0.000000 0.000000 0.000000
#
# Coordination Sequence:
#
# PCOD9284063 Si02
#       5
#     8   8   8   8   8
#     4  10  21  40  66  93 132 176 227 279 338 398
#     4   9  22  44  68  91 133 177 231 280 339 400
#     4   8  19  40  66  92 128 182 220 279 335 404
#     4  11  22  38  64  98 139 174 226 280 338 403
#     4  12  25  40  65 103 135 178 220 282 351 402
#
# _framework density 23.094624
#
# number of rings (size 3 to 8) (size 9 to 14) (size 15 to 20)
#    0.000    2.400    2.000    1.200    5.600    1.600 
#    0.000    0.000    4.400    0.000    0.000    0.000 
#    0.000    0.000    0.000    0.000    0.000    0.000 
#
# Total GULP energy -111560.611078 kJ/mol
# GULP energy per Si atom -5578.030554 kJ/mol
# Density = 2.304206 g / cm^3
# Si number density = 23.094624 Si / 1000 Ang^3
#
#
#
# Elastic Constant Matrix: (Units=GPa)
#
#
# Indices 1 2 3 4 5 6 
#
# 1 57.7435 10.3230 40.4202 0.0000 20.4498 0.0000
# 2 10.3230 139.1031 48.8884 0.0000 3.4331 0.0000
# 3 40.4202 48.8884 121.8377 0.0000 37.9930 0.0000
# 4 0.0000 0.0000 0.0000 50.2752 0.0000 6.8594
# 5 20.4498 3.4331 37.9930 0.0000 37.1697 0.0000
# 6 0.0000 0.0000 0.0000 6.8594 0.0000 42.1731
#
#
#
# Elastic Compliance Matrix: (Units=1/GPa)
#
#
# Indices 1 2 3 4 5 6 
#
# 1 0.023890 0.000469 -0.005874 0.000000 -0.007183 0.000000
# 2 0.000469 0.008783 -0.004912 0.000000 0.003952 0.000000
# 3 -0.005874 -0.004912 0.016114 0.000000 -0.012786 0.000000
# 4 0.000000 0.000000 0.000000 0.020342 0.000000 -0.003309
# 5 -0.007183 0.003952 -0.012786 0.000000 0.043560 0.000000
# 6 0.000000 0.000000 0.000000 -0.003309 0.000000 0.024250
#
#
# Mechanical properties :
#
#
# Convention : Reuss Voigt Hill
#
# Bulk Modulus (GPa) = 35.52026 57.54973 46.53500
# Shear Modulus (GPa) = 29.94784 40.52710 35.23747
#
# Velocity S-wave (km/s) = 3.60494 4.19361 3.91037
# Velocity P-wave (km/s) = 5.72199 6.95857 6.37036
#
# Compressibility (1/GPa) = 0.02815295
#
# Stress axis : x y z
#
# Youngs Moduli (GPa) = 41.85929 113.85692 62.05625
#
# Poissons Ratio (x) = -0.05337 0.36450
# Poissons Ratio (y) = -0.01962 0.30482
# Poissons Ratio (z) = 0.24587 0.55927
#
# Static dielectric constant tensor:
#      x y z
#    x 1.853260 0.000000 0.022020 
#    y 0.000000 1.960990 0.000000 
#    z 0.022020 0.000000 1.998760 
# 
# From -- ./inp_files/76941.got.cif
#   From: 2010.05.17/outbox.cif.g08.bks.cpg/sg15_39_cif.got.tgz:76941.got - 2010.06.03 18:47:42.
