data_PCOD9284558
_publ_section_title
;
Structure prediction by ZEFSAII (Michael W. Deem and Ramdas Pophale) SiO2 
 PCOD9284558
Probable space group: C 2/C
;
_chemical_formula_sum "Si O2"
_cell_formula_units_Z 40
_cell_length_a 12.282735
_cell_length_b 9.735243
_cell_length_c 17.340938
_cell_angle_alpha 90.000000
_cell_angle_beta 104.685723
_cell_angle_gamma 90.000000
_cell_volume 2005.808878
_symmetry_space_group_name_H-M "C 2/C"
_symmetry_group_IT_number 15
_symmetry_cell_setting 'monoclinic'
loop_
_space_group_symop_operation_xyz
x,y,z
-x,y,1/2-z
-x,-y,-z
x,-y,1/2+z
1/2+x,1/2+y,z
1/2-x,1/2+y,1/2-z
1/2-x,1/2-y,-z
1/2+x,1/2-y,1/2+z
loop_
_atom_site_type_symbol
_atom_site_label
_atom_site_fract_x
_atom_site_fract_y
_atom_site_fract_z
Si Si1 0.895226 0.697115 0.782237
Si Si2 0.315809 0.505010 0.999638
Si Si3 0.043164 0.954560 0.616271
Si Si4 0.884216 0.488164 0.432020
Si Si5 0.313570 0.292596 0.368731
O O1 0.891555 0.610144 0.859818
O O2 0.781515 0.693384 0.712718
O O3 0.000000 0.647308 0.750000
O O4 0.918583 0.853995 0.810596
O O5 0.387230 0.417057 0.949833
O O6 0.271582 0.630381 0.938932
O O7 0.411667 0.557564 0.075319
O O8 0.214107 0.440111 0.027386
O O9 0.080232 0.111867 0.636261
O O10 0.848407 0.638997 0.394931
O O11 0.000000 0.500000 0.500000
#
# Coordination Sequence:
#
# PCOD9284558 Si02
#       5
#     8   8   8   8   8
#     4  12  24  40  61  91 132 167 204 257 321 365
#     4   9  20  42  68  86 121 166 215 240 306 382
#     4   9  21  41  67  84 119 169 211 246 296 387
#     4  12  24  39  67  97 127 160 207 265 317 357
#     4  10  21  41  61  93 123 162 207 255 310 367
#
# _framework density 19.942080000000001
#
# number of rings (size 3 to 8) (size 9 to 14) (size 15 to 20)
#    1.200    0.400    0.000    5.400    0.000    0.800 
#    0.000    1.000    0.000    0.000    0.000    0.000 
#    0.000    0.000    0.000    0.000    0.000    0.000 
#
# Total GULP energy -111588.602058 kJ/mol
# GULP energy per Si atom -5579.430103 kJ/mol
# Density = 1.989669 g / cm^3
# Si number density = 19.942080 Si / 1000 Ang^3
#
#
#
# Elastic Constant Matrix: (Units=GPa)
#
#
# Indices 1 2 3 4 5 6 
#
# 1 119.3373 7.1780 44.5817 0.0000 7.3728 0.0000
# 2 7.1780 37.7143 20.1776 0.0000 -3.7289 0.0000
# 3 44.5817 20.1776 111.2922 0.0000 41.2228 0.0000
# 4 0.0000 0.0000 0.0000 42.9945 0.0000 -2.6075
# 5 7.3728 -3.7289 41.2228 0.0000 36.4038 0.0000
# 6 0.0000 0.0000 0.0000 -2.6075 0.0000 11.7102
#
#
#
# Elastic Compliance Matrix: (Units=1/GPa)
#
#
# Indices 1 2 3 4 5 6 
#
# 1 0.010379 0.002122 -0.006622 0.000000 0.005614 0.000000
# 2 0.002122 0.035998 -0.014784 0.000000 0.019999 0.000000
# 3 -0.006622 -0.014784 0.024773 0.000000 -0.028226 0.000000
# 4 0.000000 0.000000 0.000000 0.023577 0.000000 0.005250
# 5 0.005614 0.019999 -0.028226 0.000000 0.060344 0.000000
# 6 0.000000 0.000000 0.000000 0.005250 0.000000 0.086565
#
#
# Mechanical properties :
#
#
# Convention : Reuss Voigt Hill
#
# Bulk Modulus (GPa) = 30.69092 45.80203 38.24647
# Shear Modulus (GPa) = 17.17830 31.31547 24.24688
#
# Velocity S-wave (km/s) = 2.93816 3.96703 3.49071
# Velocity P-wave (km/s) = 5.18978 6.63328 5.95543
#
# Compressibility (1/GPa) = 0.03258293
#
# Stress axis : x y z
#
# Youngs Moduli (GPa) = 96.34998 27.77903 40.36607
#
# Poissons Ratio (x) = -0.05896 0.26729
# Poissons Ratio (y) = -0.20448 0.59679
# Poissons Ratio (z) = 0.63799 0.41070
#
# Static dielectric constant tensor:
#      x y z
#    x 1.703390 0.000000 -0.028090 
#    y 0.000000 1.691010 0.000000 
#    z -0.028090 0.000000 1.705200 
# 
# From -- ./inp_files/235937.got.cif
#   From: 2010.05.17/outbox.cif.g08.bks.cpg/sg15_118_cif.got.tgz:235937.got - 2010.06.03 18:47:42.
