data_PCOD9284892
_publ_section_title
;
Structure prediction by ZEFSAII (Michael W. Deem and Ramdas Pophale) SiO2 
 PCOD9284892
Probable space group: C 2/C
;
_chemical_formula_sum "Si O2"
_cell_formula_units_Z 64
_cell_length_a 27.467364
_cell_length_b 15.725211
_cell_length_c 11.731787
_cell_angle_alpha 90.000000
_cell_angle_beta 32.352973
_cell_angle_gamma 90.000000
_cell_volume 2711.688895
_symmetry_space_group_name_H-M "C 2/C"
_symmetry_group_IT_number 15
_symmetry_cell_setting 'monoclinic'
loop_
_space_group_symop_operation_xyz
x,y,z
-x,y,1/2-z
-x,-y,-z
x,-y,1/2+z
1/2+x,1/2+y,z
1/2-x,1/2+y,1/2-z
1/2-x,1/2-y,-z
1/2+x,1/2-y,1/2+z
loop_
_atom_site_type_symbol
_atom_site_label
_atom_site_fract_x
_atom_site_fract_y
_atom_site_fract_z
Si Si1 0.615536 0.846015 0.941320
Si Si2 0.096108 0.206742 0.510804
Si Si3 0.289876 0.443057 0.119655
Si Si4 0.415299 0.123603 0.750682
Si Si5 0.698175 0.626636 0.503767
Si Si6 0.912237 0.590056 0.499047
Si Si7 0.887141 0.176667 0.273060
Si Si8 0.089307 0.848229 0.447071
O O1 0.694290 0.863883 0.695117
O O2 0.604497 0.743961 0.975256
O O3 0.633551 0.888320 0.029512
O O4 0.521060 0.877956 0.077023
O O5 0.173105 0.188485 0.449755
O O6 0.086456 0.307369 0.512022
O O7 0.115661 0.159006 0.355136
O O8 0.000000 0.175267 0.750000
O O9 0.317946 0.530548 0.004612
O O10 0.183865 0.440903 0.360907
O O11 0.358092 0.419699 0.086382
O O12 0.304394 0.367163 0.000099
O O13 0.408066 0.073130 0.645105
O O14 0.389570 0.221787 0.776669
O O15 0.637795 0.653103 0.729036
O O16 0.000000 0.561021 0.250000
O O17 0.981650 0.142005 0.140187
#
# Coordination Sequence:
#
# PCOD9284892 Si02
#       8
#     8   8   8   8   8   8   8   8
#     4  10  21  41  68  95 123 162 225 271 311 375
#     4  10  21  41  65  95 122 162 218 268 316 371
#     4  12  27  41  62  95 133 176 208 255 332 396
#     4   9  20  40  69  96 116 162 221 275 315 362
#     4  12  27  39  63  97 131 170 214 263 320 392
#     4  10  24  43  67  93 129 171 218 273 321 373
#     4  10  21  41  65  93 127 161 211 261 323 386
#     4  11  23  44  67  92 129 173 211 266 321 380
#
# _framework density 23.601528999999999
#
# number of rings (size 3 to 8) (size 9 to 14) (size 15 to 20)
#    0.000    1.500    2.500    1.500    7.000    2.500 
#    2.250    0.625    0.000    0.000    0.000    0.000 
#    0.000    0.000    0.000    0.000    0.000    0.000 
#
# Total GULP energy -178969.234089 kJ/mol
# GULP energy per Si atom -5592.788565 kJ/mol
# Density = 2.354781 g / cm^3
# Si number density = 23.601529 Si / 1000 Ang^3
#
#
#
# Elastic Constant Matrix: (Units=GPa)
#
#
# Indices 1 2 3 4 5 6 
#
# 1 40.9771 18.6352 20.5945 0.0000 17.8081 0.0000
# 2 18.6352 59.8992 24.0854 0.0000 0.3975 0.0000
# 3 20.5945 24.0854 123.7025 0.0000 -7.8163 0.0000
# 4 0.0000 0.0000 0.0000 9.2357 0.0000 8.0084
# 5 17.8081 0.3975 -7.8163 0.0000 25.7403 0.0000
# 6 0.0000 0.0000 0.0000 8.0084 0.0000 -46.7588
#
#
#
# Elastic Compliance Matrix: (Units=1/GPa)
#
#
# Indices 1 2 3 4 5 6 
#
# 1 0.050168 -0.012001 -0.008357 0.000000 -0.037061 0.000000
# 2 -0.012001 0.021032 -0.001624 0.000000 0.007485 0.000000
# 3 -0.008357 -0.001624 0.010357 0.000000 0.008952 0.000000
# 4 0.000000 0.000000 0.000000 0.094274 0.000000 0.016146
# 5 -0.037061 0.007485 0.008952 0.000000 0.067092 0.000000
# 6 0.000000 0.000000 0.000000 0.016146 0.000000 -0.018621
#
#
# Mechanical properties :
#
#
# Convention : Reuss Voigt Hill
#
# Bulk Modulus (GPa) = 26.60162 39.02323 32.81242
# Shear Modulus (GPa) = 17.80639 8.39437 13.10038
#
# Velocity S-wave (km/s) = 2.74972 1.88797 2.35854
# Velocity P-wave (km/s) = 4.62352 4.61765 4.62058
#
# Compressibility (1/GPa) = 0.03759170
#
# Stress axis : x y z
#
# Youngs Moduli (GPa) = 19.93303 47.54702 96.55225
#
# Poissons Ratio (x) = 0.57063 0.80690
# Poissons Ratio (y) = 0.23923 0.15680
# Poissons Ratio (z) = 0.16658 0.07721
#
# Static dielectric constant tensor:
#      x y z
#    x 1.915060 0.000000 0.013030 
#    y 0.000000 1.868910 0.000000 
#    z 0.013030 0.000000 1.879900 
# 
# From -- ./inp_files/127299.got.cif
#   From: 2010.05.17/outbox.cif.g08.bks.cpg/sg15_64_cif.got.tgz:127299.got - 2010.06.03 18:47:42.
