data_PCOD9284260
_publ_section_title
;
Structure prediction by ZEFSAII (Michael W. Deem and Ramdas Pophale) SiO2 
 PCOD9284260
Probable space group: C 2/C
;
_chemical_formula_sum "Si O2"
_cell_formula_units_Z 36
_cell_length_a 11.023703
_cell_length_b 30.071912
_cell_length_c 5.213758
_cell_angle_alpha 90.000000
_cell_angle_beta 67.176119
_cell_angle_gamma 90.000000
_cell_volume 1593.051203
_symmetry_space_group_name_H-M "C 2/C"
_symmetry_group_IT_number 15
_symmetry_cell_setting 'monoclinic'
loop_
_space_group_symop_operation_xyz
x,y,z
-x,y,1/2-z
-x,-y,-z
x,-y,1/2+z
1/2+x,1/2+y,z
1/2-x,1/2+y,1/2-z
1/2-x,1/2-y,-z
1/2+x,1/2-y,1/2+z
loop_
_atom_site_type_symbol
_atom_site_label
_atom_site_fract_x
_atom_site_fract_y
_atom_site_fract_z
Si Si1 0.754234 0.970104 0.337550
Si Si2 0.000000 0.911275 0.250000
Si Si3 0.500000 0.258527 0.250000
Si Si4 0.500000 0.967367 0.750000
Si Si5 0.076148 0.328720 0.940407
Si Si6 0.618088 0.668602 0.345660
O O1 0.632220 0.941801 0.559625
O O2 0.886298 0.942301 0.236491
O O3 0.750865 0.990071 0.052954
O O4 0.931467 0.878249 0.505263
O O5 0.445301 0.224567 0.081786
O O6 0.387732 0.292050 0.439386
O O7 0.500000 0.000000 0.500000
O O8 0.230703 0.336658 0.854344
O O9 0.000000 0.346339 0.750000
O O10 0.000000 0.345165 0.250000
O O11 0.500000 0.681589 0.250000
#
# Coordination Sequence:
#
# PCOD9284260 Si02
#       6
#     8   4   4   4   8   8
#     4  10  21  40  68  92 122 163 215 264 315 383
#     4  11  26  40  60  96 133 170 214 264 333 386
#     4   9  22  40  73  94 126 170 230 268 326 378
#     4   8  16  34  59  90 117 146 196 258 309 364
#     4  10  24  43  68  94 128 170 229 265 322 384
#     4  11  25  42  64  95 140 172 215 274 331 387
#
# _framework density 22.598143
#
# number of rings (size 3 to 8) (size 9 to 14) (size 15 to 20)
#    0.667    1.333    0.000    2.000    9.333    1.778 
#    2.000    0.000    2.444    0.000    0.000    0.000 
#    0.000    0.000    0.000    0.000    0.000    0.000 
#
# Total GULP energy -100230.086862 kJ/mol
# GULP energy per Si atom -5568.338159 kJ/mol
# Density = 2.254671 g / cm^3
# Si number density = 22.598143 Si / 1000 Ang^3
#
#
#
# Elastic Constant Matrix: (Units=GPa)
#
#
# Indices 1 2 3 4 5 6 
#
# 1 143.4015 25.9410 73.2256 0.0000 -29.4775 0.0000
# 2 25.9410 41.2961 7.8133 0.0000 -4.7485 0.0000
# 3 73.2256 7.8133 129.6737 0.0000 -13.8863 0.0000
# 4 0.0000 0.0000 0.0000 -58.5440 0.0000 -29.5794
# 5 -29.4775 -4.7485 -13.8863 0.0000 59.2917 0.0000
# 6 0.0000 0.0000 0.0000 -29.5794 0.0000 -10.7341
#
#
#
# Elastic Compliance Matrix: (Units=1/GPa)
#
#
# Indices 1 2 3 4 5 6 
#
# 1 0.011901 -0.005887 -0.005931 0.000000 0.004056 0.000000
# 2 -0.005887 0.027567 0.001627 0.000000 -0.000338 0.000000
# 3 -0.005931 0.001627 0.010935 0.000000 -0.000257 0.000000
# 4 0.000000 0.000000 0.000000 0.043542 0.000000 -0.119986
# 5 0.004056 -0.000338 -0.000257 0.000000 0.018795 0.000000
# 6 0.000000 0.000000 0.000000 -0.119986 0.000000 0.237477
#
#
# Mechanical properties :
#
#
# Convention : Reuss Voigt Hill
#
# Bulk Modulus (GPa) = 33.31041 58.70345 46.00693
# Shear Modulus (GPa) = 13.13693 11.82882 12.48288
#
# Velocity S-wave (km/s) = 2.41369 2.29037 2.35284
# Velocity P-wave (km/s) = 4.74765 5.74699 5.27106
#
# Compressibility (1/GPa) = 0.03002064
#
# Stress axis : x y z
#
# Youngs Moduli (GPa) = 84.02764 36.27560 91.44630
#
# Poissons Ratio (x) = 0.21356 0.54239
# Poissons Ratio (y) = 0.49468 -0.14880
# Poissons Ratio (z) = 0.49839 -0.05903
#
# Static dielectric constant tensor:
#      x y z
#    x 2.375070 0.000000 0.414600 
#    y 0.000000 1.877190 0.000000 
#    z 0.414600 0.000000 2.430560 
# 
# From -- ./inp_files/5445.got.cif
#   From: 2010.05.17/outbox.cif.g08.bks.cpg/sg15_3_cif.got.tgz:5445.got - 2010.06.03 18:47:42.
