data_PCOD9284793
_publ_section_title
;
Structure prediction by ZEFSAII (Michael W. Deem and Ramdas Pophale) SiO2 
 PCOD9284793
Probable space group: C 2/C
;
_chemical_formula_sum "Si O2"
_cell_formula_units_Z 32
_cell_length_a 8.441272
_cell_length_b 12.323254
_cell_length_c 25.915391
_cell_angle_alpha 90.000000
_cell_angle_beta 30.198612
_cell_angle_gamma 90.000000
_cell_volume 1355.995318
_symmetry_space_group_name_H-M "C 2/C"
_symmetry_group_IT_number 15
_symmetry_cell_setting 'monoclinic'
loop_
_space_group_symop_operation_xyz
x,y,z
-x,y,1/2-z
-x,-y,-z
x,-y,1/2+z
1/2+x,1/2+y,z
1/2-x,1/2+y,1/2-z
1/2-x,1/2-y,-z
1/2+x,1/2-y,1/2+z
loop_
_atom_site_type_symbol
_atom_site_label
_atom_site_fract_x
_atom_site_fract_y
_atom_site_fract_z
Si Si1 0.716371 0.418699 0.070992
Si Si2 0.357013 0.572257 0.234762
Si Si3 0.808712 0.548244 0.856623
Si Si4 0.734828 0.758558 0.943094
O O1 0.488179 0.452064 0.182383
O O2 0.542265 0.453866 0.067672
O O3 0.000000 0.500000 0.000000
O O4 0.888025 0.303283 0.023947
O O5 0.500000 0.600735 0.250000
O O6 0.505080 0.657730 0.153060
O O7 0.983850 0.556494 0.331191
O O8 0.808372 0.643781 0.897379
O O9 0.000000 0.576076 0.750000
O O10 0.750000 0.750000 0.000000
#
# Coordination Sequence:
#
# PCOD9284793 Si02
#       4
#     8   8   8   8
#     4   9  20  40  61  91 128 166 208 257 314 377
#     4  10  21  41  64  93 128 165 211 266 318 378
#     4  10  21  41  65  93 127 169 212 259 317 380
#     4  11  22  40  66  95 127 168 213 264 318 379
#
# _framework density 23.598901000000001
#
# number of rings (size 3 to 8) (size 9 to 14) (size 15 to 20)
#    0.000    2.000    0.000    3.000    0.000    0.000 
#    0.000   77.500    0.000    0.000    0.000    0.000 
#    0.000    0.000    0.000    0.000    0.000    0.000 
#
# Total GULP energy -89295.227589 kJ/mol
# GULP energy per Si atom -5580.951724 kJ/mol
# Density = 2.354519 g / cm^3
# Si number density = 23.598901 Si / 1000 Ang^3
#
#
#
# Elastic Constant Matrix: (Units=GPa)
#
#
# Indices 1 2 3 4 5 6 
#
# 1 219.7855 66.5495 74.4672 0.0119 -3.6257 0.0050
# 2 66.5495 74.7128 37.9954 -0.0235 5.9855 -0.0090
# 3 74.4672 37.9954 68.3134 -0.0594 1.9641 -0.0346
# 4 0.0119 -0.0235 -0.0594 49.5290 0.0036 7.2054
# 5 -3.6257 5.9855 1.9641 0.0036 49.8861 0.0070
# 6 0.0050 -0.0090 -0.0346 7.2054 0.0070 19.8733
#
#
#
# Elastic Compliance Matrix: (Units=1/GPa)
#
#
# Indices 1 2 3 4 5 6 
#
# 1 0.007968 -0.003856 -0.006578 -0.000010 0.001301 -0.000012
# 2 -0.003856 0.020699 -0.007238 0.000003 -0.002479 -0.000002
# 3 -0.006578 -0.007238 0.025853 0.000024 -0.000628 0.000035
# 4 -0.000010 0.000003 0.000024 0.021314 -0.000002 -0.007728
# 5 0.001301 -0.002479 -0.000628 -0.000002 0.020462 -0.000009
# 6 -0.000012 -0.000002 0.000035 -0.007728 -0.000009 0.053121
#
#
# Mechanical properties :
#
#
# Convention : Reuss Voigt Hill
#
# Bulk Modulus (GPa) = 52.15057 80.09289 66.12173
# Shear Modulus (GPa) = 26.15713 36.11100 31.13406
#
# Velocity S-wave (km/s) = 3.33288 3.91602 3.63616
# Velocity P-wave (km/s) = 6.07927 7.37969 6.76082
#
# Compressibility (1/GPa) = 0.01917525
#
# Stress axis : x y z
#
# Youngs Moduli (GPa) = 125.50609 48.31230 38.68037
#
# Poissons Ratio (x) = 0.18629 0.25445
# Poissons Ratio (y) = 0.48395 0.27996
# Poissons Ratio (z) = 0.82561 0.34967
#
# Static dielectric constant tensor:
#      x y z
#    x 1.937340 0.000030 -0.131340 
#    y 0.000030 1.918250 -0.000080 
#    z -0.131340 -0.000080 2.113820 
# 
# From -- ./inp_files/132065.got.cif
#   From: 2010.05.17/outbox.cif.g08.bks.cpg/sg15_67_cif.got.tgz:132065.got - 2010.06.03 18:47:42.
