data_PCOD9284800
_publ_section_title
;
Structure prediction by ZEFSAII (Michael W. Deem and Ramdas Pophale) SiO2 
 PCOD9284800
Probable space group: C 2/C
;
_chemical_formula_sum "Si O2"
_cell_formula_units_Z 36
_cell_length_a 18.676375
_cell_length_b 9.615092
_cell_length_c 8.094968
_cell_angle_alpha 90.000000
_cell_angle_beta 109.157131
_cell_angle_gamma 90.000000
_cell_volume 1373.154163
_symmetry_space_group_name_H-M "C 2/C"
_symmetry_group_IT_number 15
_symmetry_cell_setting 'monoclinic'
loop_
_space_group_symop_operation_xyz
x,y,z
-x,y,1/2-z
-x,-y,-z
x,-y,1/2+z
1/2+x,1/2+y,z
1/2-x,1/2+y,1/2-z
1/2-x,1/2-y,-z
1/2+x,1/2-y,1/2+z
loop_
_atom_site_type_symbol
_atom_site_label
_atom_site_fract_x
_atom_site_fract_y
_atom_site_fract_z
Si Si1 0.450218 0.796444 0.879384
Si Si2 0.161064 0.243396 0.933222
Si Si3 0.000000 0.838501 0.750000
Si Si4 0.670010 0.936198 0.495671
Si Si5 0.159523 0.854309 0.788720
O O1 0.500000 0.818781 0.750000
O O2 0.384183 0.692782 0.761298
O O3 0.396263 0.910674 0.921246
O O4 0.497335 0.745654 0.073989
O O5 0.250000 0.250000 0.000000
O O6 0.148145 0.409432 0.927982
O O7 0.144403 0.158195 0.083742
O O8 0.082098 0.910350 0.811739
O O9 0.758587 0.926871 0.620767
O O10 0.665497 0.805709 0.364781
#
# Coordination Sequence:
#
# PCOD9284800 Si02
#       5
#     8   8   4   8   8
#     4  11  22  41  64  99 137 175 219 276 339 397
#     4  12  23  41  67  97 130 180 229 273 327 404
#     4  10  22  42  66  98 138 174 220 282 338 392
#     4  10  23  41  64  96 135 177 222 274 333 397
#     4  10  21  41  64  93 134 176 220 274 335 395
#
# _framework density 26.217013999999999
#
# number of rings (size 3 to 8) (size 9 to 14) (size 15 to 20)
#    0.000    1.333    4.444    1.333    0.000    0.889 
#   10.000    0.000    2.444    2.667    0.000    0.000 
#    0.000    0.000    0.000    0.000    0.000    0.000 
#
# Total GULP energy -100324.724060 kJ/mol
# GULP energy per Si atom -5573.595781 kJ/mol
# Density = 2.615734 g / cm^3
# Si number density = 26.217014 Si / 1000 Ang^3
#
#
#
# Elastic Constant Matrix: (Units=GPa)
#
#
# Indices 1 2 3 4 5 6 
#
# 1 188.2950 12.5795 35.3854 0.0000 14.1946 0.0000
# 2 12.5795 81.0863 28.0310 0.0000 4.3692 0.0000
# 3 35.3854 28.0310 184.5728 0.0000 10.4323 0.0000
# 4 0.0000 0.0000 0.0000 10.2785 0.0000 -33.4887
# 5 14.1946 4.3692 10.4323 0.0000 56.1335 0.0000
# 6 0.0000 0.0000 0.0000 -33.4887 0.0000 -85.6509
#
#
#
# Elastic Compliance Matrix: (Units=1/GPa)
#
#
# Indices 1 2 3 4 5 6 
#
# 1 0.005610 -0.000482 -0.000934 0.000000 -0.001207 0.000000
# 2 -0.000482 0.013081 -0.001863 0.000000 -0.000550 0.000000
# 3 -0.000934 -0.001863 0.005921 0.000000 -0.000719 0.000000
# 4 0.000000 0.000000 0.000000 0.042786 0.000000 -0.016729
# 5 -0.001207 -0.000550 -0.000719 0.000000 0.018296 0.000000
# 6 0.000000 0.000000 0.000000 -0.016729 0.000000 -0.005134
#
#
# Mechanical properties :
#
#
# Convention : Reuss Voigt Hill
#
# Bulk Modulus (GPa) = 55.39398 67.32731 61.36064
# Shear Modulus (GPa) = 53.68541 21.34943 37.51742
#
# Velocity S-wave (km/s) = 4.53010 2.85675 3.78700
# Velocity P-wave (km/s) = 6.96687 6.05127 6.52515
#
# Compressibility (1/GPa) = 0.01805250
#
# Stress axis : x y z
#
# Youngs Moduli (GPa) = 178.26681 76.44649 168.90305
#
# Poissons Ratio (x) = 0.03687 0.15775
# Poissons Ratio (y) = 0.08598 0.31468
# Poissons Ratio (z) = 0.16649 0.14242
#
# Static dielectric constant tensor:
#      x y z
#    x 2.169190 0.000000 -0.059690 
#    y 0.000000 1.751530 0.000000 
#    z -0.059690 0.000000 2.048300 
# 
# From -- ./inp_files/46315.got.cif
#   From: 2010.05.17/outbox.cif.g08.bks.cpg/sg15_24_cif.got.tgz:46315.got - 2010.06.03 18:47:42.
