data_PCOD9284247
_publ_section_title
;
Structure prediction by ZEFSAII (Michael W. Deem and Ramdas Pophale) SiO2 
 PCOD9284247
Probable space group: C 2/C
;
_chemical_formula_sum "Si O2"
_cell_formula_units_Z 56
_cell_length_a 32.331047
_cell_length_b 12.306049
_cell_length_c 14.824048
_cell_angle_alpha 90.000000
_cell_angle_beta 159.143025
_cell_angle_gamma 90.000000
_cell_volume 2099.904753
_symmetry_space_group_name_H-M "C 2/C"
_symmetry_group_IT_number 15
_symmetry_cell_setting 'monoclinic'
loop_
_space_group_symop_operation_xyz
x,y,z
-x,y,1/2-z
-x,-y,-z
x,-y,1/2+z
1/2+x,1/2+y,z
1/2-x,1/2+y,1/2-z
1/2-x,1/2-y,-z
1/2+x,1/2-y,1/2+z
loop_
_atom_site_type_symbol
_atom_site_label
_atom_site_fract_x
_atom_site_fract_y
_atom_site_fract_z
Si Si1 0.472432 0.622777 0.427275
Si Si2 0.208644 0.354886 0.796765
Si Si3 0.479552 0.778985 0.588698
Si Si4 0.241285 0.408174 0.387462
Si Si5 0.226311 0.114708 0.280218
Si Si6 0.776192 0.371495 0.364889
Si Si7 0.971027 0.291587 0.295534
O O1 0.500000 0.500000 0.500000
O O2 0.534009 0.704579 0.620901
O O3 0.740563 0.623082 0.684322
O O4 0.491955 0.667574 0.367387
O O5 0.259218 0.463784 0.942123
O O6 0.242004 0.379642 0.760958
O O7 0.232839 0.225743 0.841862
O O8 0.072884 0.362891 0.545571
O O9 0.388630 0.865849 0.365182
O O10 0.393569 0.683955 0.455943
O O11 0.415601 0.844251 0.649332
O O12 0.332645 0.360341 0.645385
O O13 0.157017 0.331325 0.441718
O O14 0.232592 0.986717 0.314328
O O15 0.000000 0.300772 0.250000
#
# Coordination Sequence:
#
# PCOD9284247 Si02
#       7
#     8   8   8   8   8   8   8
#     4  12  27  46  67 108 153 193 242 320 388 452
#     4  10  21  40  68 105 141 187 253 306 359 445
#     4  12  24  45  71 108 148 191 253 305 389 447
#     4  11  22  44  70 101 150 193 249 306 370 452
#     4  10  22  41  72 106 145 192 247 311 379 433
#     4  11  23  43  74 113 145 196 257 312 365 453
#     4  10  21  45  69  97 141 197 248 300 374 456
#
# _framework density 26.667874999999999
#
# number of rings (size 3 to 8) (size 9 to 14) (size 15 to 20)
#    0.000    1.143    2.857    3.429    2.000    2.286 
#    2.571    2.857    0.000    0.000    0.000    0.000 
#    0.000    0.000    0.000    0.000    0.000    0.000 
#
# Total GULP energy -156057.090158 kJ/mol
# GULP energy per Si atom -5573.467506 kJ/mol
# Density = 2.660718 g / cm^3
# Si number density = 26.667875 Si / 1000 Ang^3
#
#
#
# Elastic Constant Matrix: (Units=GPa)
#
#
# Indices 1 2 3 4 5 6 
#
# 1 45.1072 5.0864 12.0582 0.0000 7.1547 0.0000
# 2 5.0864 197.4643 36.8293 0.0000 -2.5252 0.0000
# 3 12.0582 36.8293 132.6622 0.0000 8.1968 0.0000
# 4 0.0000 0.0000 0.0000 43.3571 0.0000 -3.2725
# 5 7.1547 -2.5252 8.1968 0.0000 31.6392 0.0000
# 6 0.0000 0.0000 0.0000 -3.2725 0.0000 26.5796
#
#
#
# Elastic Compliance Matrix: (Units=1/GPa)
#
#
# Indices 1 2 3 4 5 6 
#
# 1 0.023446 -0.000343 -0.001734 0.000000 -0.004880 0.000000
# 2 -0.000343 0.005367 -0.001514 0.000000 0.000898 0.000000
# 3 -0.001734 -0.001514 0.008231 0.000000 -0.001861 0.000000
# 4 0.000000 0.000000 0.000000 0.023281 0.000000 0.002866
# 5 -0.004880 0.000898 -0.001861 0.000000 0.033264 0.000000
# 6 0.000000 0.000000 0.000000 0.002866 0.000000 0.037976
#
#
# Mechanical properties :
#
#
# Convention : Reuss Voigt Hill
#
# Bulk Modulus (GPa) = 33.48896 53.68683 43.58789
# Shear Modulus (GPa) = 33.62469 41.73251 37.67860
#
# Velocity S-wave (km/s) = 3.55472 3.96017 3.76291
# Velocity P-wave (km/s) = 5.42523 6.40983 5.93797
#
# Compressibility (1/GPa) = 0.02986059
#
# Stress axis : x y z
#
# Youngs Moduli (GPa) = 42.65171 186.32538 121.49235
#
# Poissons Ratio (x) = 0.06388 0.21072
# Poissons Ratio (y) = 0.01462 0.18397
# Poissons Ratio (z) = 0.07397 0.28215
#
# Static dielectric constant tensor:
#      x y z
#    x 2.237260 0.000000 0.031850 
#    y 0.000000 2.150860 0.000000 
#    z 0.031850 0.000000 2.142200 
# 
# From -- ./inp_files/177593.got.cif
#   From: 2010.05.17/outbox.cif.g08.bks.cpg/sg15_89_cif.got.tgz:177593.got - 2010.06.03 18:47:42.
