data_PCOD9284559
_publ_section_title
;
Structure prediction by ZEFSAII (Michael W. Deem and Ramdas Pophale) SiO2 
 PCOD9284559
Probable space group: C 2/C
;
_chemical_formula_sum "Si O2"
_cell_formula_units_Z 48
_cell_length_a 23.614483
_cell_length_b 9.181922
_cell_length_c 24.241940
_cell_angle_alpha 90.000000
_cell_angle_beta 25.516764
_cell_angle_gamma 90.000000
_cell_volume 2264.279677
_symmetry_space_group_name_H-M "C 2/C"
_symmetry_group_IT_number 15
_symmetry_cell_setting 'monoclinic'
loop_
_space_group_symop_operation_xyz
x,y,z
-x,y,1/2-z
-x,-y,-z
x,-y,1/2+z
1/2+x,1/2+y,z
1/2-x,1/2+y,1/2-z
1/2-x,1/2-y,-z
1/2+x,1/2-y,1/2+z
loop_
_atom_site_type_symbol
_atom_site_label
_atom_site_fract_x
_atom_site_fract_y
_atom_site_fract_z
Si Si1 0.996768 0.833980 0.482880
Si Si2 0.186044 0.920286 0.103032
Si Si3 0.223824 0.162374 0.694116
Si Si4 0.969284 0.457595 0.354558
Si Si5 0.000000 0.811820 0.750000
Si Si6 0.000000 0.685979 0.250000
Si Si7 0.082989 0.419698 0.973472
O O1 0.096223 0.810145 0.343760
O O2 0.065087 0.746187 0.473073
O O3 0.850279 0.767294 0.597685
O O4 0.000000 0.000000 0.500000
O O5 0.189962 0.843718 0.159377
O O6 0.107574 0.805335 0.134532
O O7 0.113473 0.075962 0.166586
O O8 0.331123 0.968372 0.961001
O O9 0.275907 0.995530 0.656633
O O10 0.058927 0.574990 0.244301
O O11 0.974276 0.450607 0.415724
O O12 0.976510 0.298894 0.321246
O O13 0.000000 0.500000 0.000000
#
# Coordination Sequence:
#
# PCOD9284559 Si02
#       7
#     8   8   8   8   4   4   8
#     4  11  23  42  66 100 127 173 218 264 331 392
#     4  10  22  39  64  92 128 164 217 269 321 390
#     4  10  23  41  67  94 133 167 215 271 326 390
#     4  10  21  41  61  93 124 168 211 267 327 385
#     4  10  22  40  64  88 128 168 218 266 332 388
#     4  10  22  38  66  90 126 170 214 262 328 386
#     4   9  21  40  62  90 133 164 208 270 316 388
#
# _framework density 21.198795
#
# number of rings (size 3 to 8) (size 9 to 14) (size 15 to 20)
#    0.000    2.000    0.000    2.000    9.333    0.000 
#    3.000    3.333    0.000    0.000    0.000    0.000 
#    0.000    0.000    0.000    0.000    0.000    0.000 
#
# Total GULP energy -133656.360629 kJ/mol
# GULP energy per Si atom -5569.015026 kJ/mol
# Density = 2.115055 g / cm^3
# Si number density = 21.198795 Si / 1000 Ang^3
#
#
#
# Elastic Constant Matrix: (Units=GPa)
#
#
# Indices 1 2 3 4 5 6 
#
# 1 64.3606 47.5690 38.8850 0.0001 7.4556 -0.0003
# 2 47.5690 192.0712 38.5943 -0.0003 3.5230 -0.0003
# 3 38.8850 38.5943 93.5140 -0.0003 22.2540 0.0000
# 4 0.0001 -0.0003 -0.0003 26.2387 0.0001 -3.0717
# 5 7.4556 3.5230 22.2540 0.0001 27.4116 0.0000
# 6 -0.0003 -0.0003 0.0000 -3.0717 0.0000 36.9385
#
#
#
# Elastic Compliance Matrix: (Units=1/GPa)
#
#
# Indices 1 2 3 4 5 6 
#
# 1 0.023517 -0.004181 -0.008253 0.000000 0.000842 0.000000
# 2 -0.004181 0.006468 -0.001244 0.000000 0.001316 0.000000
# 3 -0.008253 -0.001244 0.017435 0.000000 -0.011750 0.000000
# 4 0.000000 0.000000 0.000000 0.038486 0.000000 0.003200
# 5 0.000842 0.001316 -0.011750 0.000000 0.045622 0.000000
# 6 0.000000 0.000000 0.000000 0.003200 0.000000 0.027338
#
#
# Mechanical properties :
#
#
# Convention : Reuss Voigt Hill
#
# Bulk Modulus (GPa) = 49.84370 66.67137 58.25754
# Shear Modulus (GPa) = 25.91875 33.11092 29.51483
#
# Velocity S-wave (km/s) = 3.50044 3.95641 3.73539
# Velocity P-wave (km/s) = 6.31672 7.23807 6.79304
#
# Compressibility (1/GPa) = 0.02006272
#
# Stress axis : x y z
#
# Youngs Moduli (GPa) = 42.52271 154.61347 57.35590
#
# Poissons Ratio (x) = 0.64648 0.47338
# Poissons Ratio (y) = 0.17780 0.07134
# Poissons Ratio (z) = 0.35096 0.19230
#
# Static dielectric constant tensor:
#      x y z
#    x 1.832280 0.000000 -0.057850 
#    y 0.000000 1.040630 0.000010 
#    z -0.057850 0.000010 1.949050 
# 
# From -- ./inp_files/121166.got.cif
#   From: 2010.05.17/outbox.cif.g08.bks.cpg/sg15_61_cif.got.tgz:121166.got - 2010.06.03 18:47:42.
