data_PCOD9284587
_publ_section_title
;
Structure prediction by ZEFSAII (Michael W. Deem and Ramdas Pophale) SiO2 
 PCOD9284587
Probable space group: C 2/C
;
_chemical_formula_sum "Si O2"
_cell_formula_units_Z 56
_cell_length_a 10.336724
_cell_length_b 9.157331
_cell_length_c 29.071182
_cell_angle_alpha 90.000000
_cell_angle_beta 62.799733
_cell_angle_gamma 90.000000
_cell_volume 2447.476908
_symmetry_space_group_name_H-M "C 2/C"
_symmetry_group_IT_number 15
_symmetry_cell_setting 'monoclinic'
loop_
_space_group_symop_operation_xyz
x,y,z
-x,y,1/2-z
-x,-y,-z
x,-y,1/2+z
1/2+x,1/2+y,z
1/2-x,1/2+y,1/2-z
1/2-x,1/2-y,-z
1/2+x,1/2-y,1/2+z
loop_
_atom_site_type_symbol
_atom_site_label
_atom_site_fract_x
_atom_site_fract_y
_atom_site_fract_z
Si Si1 0.349980 0.821849 0.631626
Si Si2 0.186537 0.321826 0.598306
Si Si3 0.586402 0.698786 0.030815
Si Si4 0.410558 0.560222 0.563630
Si Si5 0.831101 0.312536 0.263483
Si Si6 0.615078 0.935531 0.443790
Si Si7 0.327146 0.846682 0.789345
O O1 0.519513 0.842895 0.614188
O O2 0.339749 0.660937 0.612525
O O3 0.253783 0.808276 0.692057
O O4 0.314725 0.939298 0.598486
O O5 0.283161 0.456596 0.565556
O O6 0.256688 0.177155 0.564207
O O7 0.197135 0.322220 0.652206
O O8 0.537612 0.546286 0.060793
O O9 0.490901 0.826991 0.067482
O O10 0.750000 0.750000 0.000000
O O11 0.539371 0.665704 0.985513
O O12 0.777542 0.264467 0.221531
O O13 0.795597 0.483709 0.279989
O O14 0.000000 0.298368 0.250000
O O15 0.500000 0.000000 0.500000
O O16 0.500000 0.820694 0.750000
#
# Coordination Sequence:
#
# PCOD9284587 Si02
#       7
#     8   8   8   8   8   8   8
#     4  12  24  44  70  98 137 182 226 285 346 413
#     4  11  25  43  69  99 137 184 227 284 349 417
#     4  10  21  41  62  88 132 180 219 281 325 386
#     4  10  22  41  62  94 130 173 229 267 336 395
#     4  11  27  46  73 102 137 177 227 295 352 423
#     4  11  25  41  62 104 138 178 236 281 331 406
#     4  11  24  48  71 100 137 175 229 288 358 416
#
# _framework density 22.880706
#
# number of rings (size 3 to 8) (size 9 to 14) (size 15 to 20)
#    0.000    1.143    4.286    0.857    4.000    2.286 
#    5.143    0.000    0.000    0.000    0.000    0.000 
#    0.000    0.000    0.000    0.000    0.000    0.000 
#
# Total GULP energy -156259.580271 kJ/mol
# GULP energy per Si atom -5580.699295 kJ/mol
# Density = 2.282863 g / cm^3
# Si number density = 22.880706 Si / 1000 Ang^3
#
#
#
# Elastic Constant Matrix: (Units=GPa)
#
#
# Indices 1 2 3 4 5 6 
#
# 1 83.6861 33.1079 -16.8771 0.0000 -13.7381 0.0000
# 2 33.1079 114.6254 6.5134 0.0000 -0.0593 0.0000
# 3 -16.8771 6.5134 34.7119 0.0000 -6.4791 0.0000
# 4 0.0000 0.0000 0.0000 27.7641 0.0000 0.1584
# 5 -13.7381 -0.0593 -6.4791 0.0000 31.9762 0.0000
# 6 0.0000 0.0000 0.0000 0.1584 0.0000 21.0766
#
#
#
# Elastic Compliance Matrix: (Units=1/GPa)
#
#
# Indices 1 2 3 4 5 6 
#
# 1 0.018453 -0.006008 0.012032 0.000000 0.010355 0.000000
# 2 -0.006008 0.010778 -0.005635 0.000000 -0.003703 0.000000
# 3 0.012032 -0.005635 0.038120 0.000000 0.012883 0.000000
# 4 0.000000 0.000000 0.000000 0.036019 0.000000 -0.000271
# 5 0.010355 -0.003703 0.012883 0.000000 0.038326 0.000000
# 6 0.000000 0.000000 0.000000 -0.000271 0.000000 0.047448
#
#
# Mechanical properties :
#
#
# Convention : Reuss Voigt Hill
#
# Bulk Modulus (GPa) = 14.67804 30.94575 22.81189
# Shear Modulus (GPa) = 23.68825 30.18200 26.93513
#
# Velocity S-wave (km/s) = 3.22109 3.63589 3.43475
# Velocity P-wave (km/s) = 4.50143 5.58394 5.07165
#
# Compressibility (1/GPa) = 0.06812899
#
# Stress axis : x y z
#
# Youngs Moduli (GPa) = 54.19266 92.78426 26.23264
#
# Poissons Ratio (x) = 0.55746 -0.31563
# Poissons Ratio (y) = 0.32560 0.14781
# Poissons Ratio (z) = -0.65204 0.52281
#
# Static dielectric constant tensor:
#      x y z
#    x 1.858920 0.000000 0.004850 
#    y 0.000000 1.901810 0.000000 
#    z 0.004850 0.000000 1.844130 
# 
# From -- ./inp_files/310199.got.cif
#   From: 2010.05.17/outbox.cif.g08.bks.cpg/sg15_156_cif.got.tgz:310199.got - 2010.06.03 18:47:42.
