data_PCOD9284094
_publ_section_title
;
Structure prediction by ZEFSAII (Michael W. Deem and Ramdas Pophale) SiO2 
 PCOD9284094
Probable space group: C 2/C
;
_chemical_formula_sum "Si O2"
_cell_formula_units_Z 60
_cell_length_a 19.329227
_cell_length_b 26.215093
_cell_length_c 11.163399
_cell_angle_alpha 90.000000
_cell_angle_beta 148.594913
_cell_angle_gamma 90.000000
_cell_volume 2947.618353
_symmetry_space_group_name_H-M "C 2/C"
_symmetry_group_IT_number 15
_symmetry_cell_setting 'monoclinic'
loop_
_space_group_symop_operation_xyz
x,y,z
-x,y,1/2-z
-x,-y,-z
x,-y,1/2+z
1/2+x,1/2+y,z
1/2-x,1/2+y,1/2-z
1/2-x,1/2-y,-z
1/2+x,1/2-y,1/2+z
loop_
_atom_site_type_symbol
_atom_site_label
_atom_site_fract_x
_atom_site_fract_y
_atom_site_fract_z
Si Si1 0.259411 0.552355 0.751039
Si Si2 0.000000 0.594299 0.250000
Si Si3 0.711839 0.566780 0.216493
Si Si4 0.566279 0.623626 0.660611
Si Si5 0.223212 0.612656 0.936222
Si Si6 0.062818 0.199266 0.210661
Si Si7 0.492088 0.189153 0.881963
Si Si8 0.685478 0.860780 0.821748
O O1 0.298395 0.493461 0.813350
O O2 0.352280 0.581550 0.794050
O O3 0.276024 0.579375 0.904401
O O4 0.108274 0.560741 0.482010
O O5 0.913793 0.628416 0.214738
O O6 0.774233 0.580501 0.438114
O O7 0.802378 0.589984 0.245998
O O8 0.569488 0.595719 0.000327
O O9 0.530800 0.669511 0.519270
O O10 0.666461 0.645191 0.907735
O O11 0.084836 0.637963 0.695193
O O12 0.310330 0.662976 0.092234
O O13 0.079410 0.257558 0.193972
O O14 0.000000 0.201017 0.250000
O O15 0.500000 0.186599 0.750000
O O16 0.631404 0.184407 0.157065
#
# Coordination Sequence:
#
# PCOD9284094 Si02
#       8
#     8   4   8   8   8   8   8   8
#     4  11  23  40  64  93 129 173 220 262 322 386
#     4  10  24  40  62  88 130 166 210 270 320 380
#     4  11  25  40  65  93 126 175 215 268 320 380
#     4  10  23  44  62  92 133 168 217 264 319 388
#     4  11  22  41  64  96 129 166 215 271 320 383
#     4  10  21  40  66  96 125 169 213 268 324 381
#     4  11  22  41  68  94 128 167 213 273 328 377
#     4  11  23  43  63  92 132 167 211 269 319 390
#
# _framework density 20.355416000000002
#
# number of rings (size 3 to 8) (size 9 to 14) (size 15 to 20)
#    0.000    1.333    4.000    1.200    3.733    2.133 
#    4.800    0.000    5.867    0.000    0.000    0.000 
#    0.000    0.000    0.000    0.000    0.000    0.000 
#
# Total GULP energy -167509.540543 kJ/mol
# GULP energy per Si atom -5583.651351 kJ/mol
# Density = 2.030909 g / cm^3
# Si number density = 20.355416 Si / 1000 Ang^3
#
#
#
# Elastic Constant Matrix: (Units=GPa)
#
#
# Indices 1 2 3 4 5 6 
#
# 1 60.2576 31.6050 21.8578 0.0000 -3.3361 0.0000
# 2 31.6050 121.3676 42.7440 0.0000 -7.8085 0.0000
# 3 21.8578 42.7440 117.9856 0.0000 -18.9740 0.0000
# 4 0.0000 0.0000 0.0000 7.9739 0.0000 19.7756
# 5 -3.3361 -7.8085 -18.9740 0.0000 28.1025 0.0000
# 6 0.0000 0.0000 0.0000 19.7756 0.0000 34.3914
#
#
#
# Elastic Compliance Matrix: (Units=1/GPa)
#
#
# Indices 1 2 3 4 5 6 
#
# 1 0.019645 -0.004397 -0.002095 0.000000 -0.000304 0.000000
# 2 -0.004397 0.010432 -0.002897 0.000000 0.000421 0.000000
# 3 -0.002095 -0.002897 0.010931 0.000000 0.006326 0.000000
# 4 0.000000 0.000000 0.000000 -0.294343 0.000000 0.169252
# 5 -0.000304 0.000421 0.006326 0.000000 0.039936 0.000000
# 6 0.000000 0.000000 0.000000 0.169252 0.000000 -0.068245
#
#
# Mechanical properties :
#
#
# Convention : Reuss Voigt Hill
#
# Bulk Modulus (GPa) = 44.98761 54.66935 49.82848
# Shear Modulus (GPa) = -19.57283 27.65383 4.04050
#
# Velocity S-wave (km/s) = -3.10426 3.68985 1.41042
# Velocity P-wave (km/s) = 3.04967 6.71335 5.21390
#
# Compressibility (1/GPa) = 0.02222834
#
# Stress axis : x y z
#
# Youngs Moduli (GPa) = 50.90350 95.86008 91.48556
#
# Poissons Ratio (x) = 0.42153 0.19169
# Poissons Ratio (y) = 0.22384 0.26503
# Poissons Ratio (z) = 0.10666 0.27771
#
# Static dielectric constant tensor:
#      x y z
#    x 1.729790 0.000000 0.021690 
#    y 0.000000 1.686360 0.000000 
#    z 0.021690 0.000000 1.790730 
# 
# From -- ./inp_files/114835.got.cif
#   From: 2010.05.17/outbox.cif.g08.bks.cpg/sg15_58_cif.got.tgz:114835.got - 2010.06.03 18:47:42.
