data_PCOD9284070
_publ_section_title
;
Structure prediction by ZEFSAII (Michael W. Deem and Ramdas Pophale) SiO2 
 PCOD9284070
Probable space group: C 2/C
;
_chemical_formula_sum "Si O2"
_cell_formula_units_Z 36
_cell_length_a 7.565978
_cell_length_b 17.863261
_cell_length_c 16.650149
_cell_angle_alpha 90.000000
_cell_angle_beta 125.970440
_cell_angle_gamma 90.000000
_cell_volume 1821.227873
_symmetry_space_group_name_H-M "C 2/C"
_symmetry_group_IT_number 15
_symmetry_cell_setting 'monoclinic'
loop_
_space_group_symop_operation_xyz
x,y,z
-x,y,1/2-z
-x,-y,-z
x,-y,1/2+z
1/2+x,1/2+y,z
1/2-x,1/2+y,1/2-z
1/2-x,1/2-y,-z
1/2+x,1/2-y,1/2+z
loop_
_atom_site_type_symbol
_atom_site_label
_atom_site_fract_x
_atom_site_fract_y
_atom_site_fract_z
Si Si1 0.395932 0.513110 0.384841
Si Si2 0.000000 0.374095 0.750000
Si Si3 0.765440 0.699827 0.334875
Si Si4 0.789003 0.363807 0.140810
Si Si5 0.343067 0.071021 0.475011
O O1 0.500000 0.500000 0.500000
O O2 0.334487 0.429519 0.344676
O O3 0.595572 0.545741 0.388930
O O4 0.190622 0.569122 0.332046
O O5 0.116158 0.320865 0.716458
O O6 0.500000 0.692323 0.250000
O O7 0.816665 0.781942 0.385263
O O8 0.872370 0.640193 0.424000
O O9 0.000000 0.352340 0.250000
O O10 0.844913 0.396753 0.067097
O O11 0.500000 0.000000 0.500000
#
# Coordination Sequence:
#
# PCOD9284070 Si02
#       5
#     8   4   8   8   8
#     4  10  21  40  66  94 127 171 222 271 324 393
#     4  12  22  44  68  96 136 176 226 272 332 400
#     4  11  23  42  65  97 137 174 217 273 337 393
#     4  10  22  42  65  94 135 170 217 277 331 395
#     4  11  23  42  67  98 131 177 223 272 329 395
#
# _framework density 19.766883
#
# number of rings (size 3 to 8) (size 9 to 14) (size 15 to 20)
#    0.000    1.333    3.333    3.333    0.000    0.000 
#    8.000    5.556    0.000    0.000    0.000    0.000 
#    0.000    0.000    0.000    0.000    0.000    0.000 
#
# Total GULP energy -100219.660315 kJ/mol
# GULP energy per Si atom -5567.758906 kJ/mol
# Density = 1.972189 g / cm^3
# Si number density = 19.766883 Si / 1000 Ang^3
#
#
#
# Elastic Constant Matrix: (Units=GPa)
#
#
# Indices 1 2 3 4 5 6 
#
# 1 120.6070 70.7198 37.7736 0.0000 -2.6777 0.0000
# 2 70.7198 181.9251 33.0885 0.0000 -14.2827 0.0000
# 3 37.7736 33.0885 51.3645 0.0000 -9.9505 0.0000
# 4 0.0000 0.0000 0.0000 41.0083 0.0000 -2.1367
# 5 -2.6777 -14.2827 -9.9505 0.0000 30.3517 0.0000
# 6 0.0000 0.0000 0.0000 -2.1367 0.0000 31.5166
#
#
#
# Elastic Compliance Matrix: (Units=1/GPa)
#
#
# Indices 1 2 3 4 5 6 
#
# 1 0.012866 -0.003871 -0.007582 0.000000 -0.003172 0.000000
# 2 -0.003871 0.007477 -0.001446 0.000000 0.002703 0.000000
# 3 -0.007582 -0.001446 0.027459 0.000000 0.007653 0.000000
# 4 0.000000 0.000000 0.000000 0.024472 0.000000 0.001659
# 5 -0.003172 0.002703 0.007653 0.000000 0.036448 0.000000
# 6 0.000000 0.000000 0.000000 0.001659 0.000000 0.031842
#
#
# Mechanical properties :
#
#
# Convention : Reuss Voigt Hill
#
# Bulk Modulus (GPa) = 45.44980 70.78449 58.11714
# Shear Modulus (GPa) = 28.78601 34.72962 31.75781
#
# Velocity S-wave (km/s) = 3.82026 4.19616 4.01261
# Velocity P-wave (km/s) = 6.51935 7.70483 7.13675
#
# Compressibility (1/GPa) = 0.02200230
#
# Stress axis : x y z
#
# Youngs Moduli (GPa) = 77.72634 133.74637 36.41848
#
# Poissons Ratio (x) = 0.51777 0.27613
# Poissons Ratio (y) = 0.30090 0.05266
# Poissons Ratio (z) = 0.58933 0.19339
#
# Static dielectric constant tensor:
#      x y z
#    x 1.809730 0.000000 -0.008510 
#    y 0.000000 1.922650 0.000000 
#    z -0.008510 0.000000 1.661280 
# 
# From -- ./inp_files/189097.got.cif
#   From: 2010.05.17/outbox.cif.g08.bks.cpg/sg15_95_cif.got.tgz:189097.got - 2010.06.03 18:47:42.
