data_PCOD9284126
_publ_section_title
;
Structure prediction by ZEFSAII (Michael W. Deem and Ramdas Pophale) SiO2 
 PCOD9284126
Probable space group: C 2/C
;
_chemical_formula_sum "Si O2"
_cell_formula_units_Z 40
_cell_length_a 11.638948
_cell_length_b 7.437301
_cell_length_c 28.862382
_cell_angle_alpha 90.000000
_cell_angle_beta 41.207084
_cell_angle_gamma 90.000000
_cell_volume 1645.899448
_symmetry_space_group_name_H-M "C 2/C"
_symmetry_group_IT_number 15
_symmetry_cell_setting 'monoclinic'
loop_
_space_group_symop_operation_xyz
x,y,z
-x,y,1/2-z
-x,-y,-z
x,-y,1/2+z
1/2+x,1/2+y,z
1/2-x,1/2+y,1/2-z
1/2-x,1/2-y,-z
1/2+x,1/2-y,1/2+z
loop_
_atom_site_type_symbol
_atom_site_label
_atom_site_fract_x
_atom_site_fract_y
_atom_site_fract_z
Si Si1 0.797384 0.588839 0.877682
Si Si2 0.074163 0.558752 0.428446
Si Si3 0.338907 0.988837 0.689987
Si Si4 0.784950 0.036014 0.498132
Si Si5 0.124684 0.065291 0.838910
O O1 0.711216 0.785163 0.898205
O O2 0.763416 0.510346 0.836918
O O3 0.998156 0.577407 0.832401
O O4 0.693620 0.506536 0.953176
O O5 0.884270 0.581864 0.462346
O O6 0.000000 0.500000 0.500000
O O7 0.167325 0.434559 0.360758
O O8 0.371325 0.778928 0.670467
O O9 0.174191 0.992623 0.773633
O O10 0.750000 0.250000 0.500000
O O11 0.943524 0.988734 0.416881
#
# Coordination Sequence:
#
# PCOD9284126 Si02
#       5
#     8   8   8   8   8
#     4  10  22  43  69  97 135 181 232 287 356 420
#     4  10  21  40  67 101 133 179 232 284 350 418
#     4  10  25  42  68  99 137 187 234 295 355 428
#     4  11  23  40  70 103 137 180 237 293 350 432
#     4  11  25  44  68  99 140 183 238 290 367 422
#
# _framework density 24.302820000000001
#
# number of rings (size 3 to 8) (size 9 to 14) (size 15 to 20)
#    0.000    1.600    2.000    1.200    5.600    8.800 
#    0.000    3.000    0.000    0.000    0.000    0.000 
#    0.000    0.000    0.000    0.000    0.000    0.000 
#
# Total GULP energy -111528.823615 kJ/mol
# GULP energy per Si atom -5576.441181 kJ/mol
# Density = 2.424751 g / cm^3
# Si number density = 24.302820 Si / 1000 Ang^3
#
#
#
# Elastic Constant Matrix: (Units=GPa)
#
#
# Indices 1 2 3 4 5 6 
#
# 1 105.0487 19.7472 33.1555 0.0001 27.9989 0.0003
# 2 19.7472 83.9138 27.8374 0.0005 -1.9032 0.0012
# 3 33.1555 27.8374 202.6570 -0.0001 51.4528 -0.0002
# 4 0.0001 0.0005 -0.0001 44.9242 0.0000 -3.0757
# 5 27.9989 -1.9032 51.4528 0.0000 51.0335 0.0001
# 6 0.0003 0.0012 -0.0002 -3.0757 0.0001 28.5087
#
#
#
# Elastic Compliance Matrix: (Units=1/GPa)
#
#
# Indices 1 2 3 4 5 6 
#
# 1 0.011836 -0.003009 0.000207 0.000000 -0.006815 0.000000
# 2 -0.003009 0.013590 -0.002584 0.000000 0.004762 -0.000001
# 3 0.000207 -0.002584 0.007135 0.000000 -0.007404 0.000000
# 4 0.000000 0.000000 0.000000 0.022425 0.000000 0.002419
# 5 -0.006815 0.004762 -0.007404 0.000000 0.030976 0.000000
# 6 0.000000 -0.000001 0.000000 0.002419 0.000000 0.035338
#
#
# Mechanical properties :
#
#
# Convention : Reuss Voigt Hill
#
# Bulk Modulus (GPa) = 45.89086 61.45552 53.67319
# Shear Modulus (GPa) = 35.88487 45.61858 40.75172
#
# Velocity S-wave (km/s) = 3.84679 4.33724 4.09936
# Velocity P-wave (km/s) = 6.21726 7.10102 6.67378
#
# Compressibility (1/GPa) = 0.02179083
#
# Stress axis : x y z
#
# Youngs Moduli (GPa) = 84.48871 73.58301 140.14961
#
# Poissons Ratio (x) = 0.22138 -0.02901
# Poissons Ratio (y) = 0.25419 0.36210
# Poissons Ratio (z) = -0.01749 0.19011
#
# Static dielectric constant tensor:
#      x y z
#    x 2.075310 0.000000 0.132880 
#    y 0.000000 2.043990 0.000000 
#    z 0.132880 0.000000 2.056100 
# 
# From -- ./inp_files/309824.got.cif
#   From: 2010.05.17/outbox.cif.g08.bks.cpg/sg15_155_cif.got.tgz:309824.got - 2010.06.03 18:47:42.
