data_PCOD9284487
_publ_section_title
;
Structure prediction by ZEFSAII (Michael W. Deem and Ramdas Pophale) SiO2 
 PCOD9284487
Probable space group: C 2/C
;
_chemical_formula_sum "Si O2"
_cell_formula_units_Z 56
_cell_length_a 14.927345
_cell_length_b 26.845009
_cell_length_c 14.441768
_cell_angle_alpha 90.000000
_cell_angle_beta 150.550670
_cell_angle_gamma 90.000000
_cell_volume 2845.284945
_symmetry_space_group_name_H-M "C 2/C"
_symmetry_group_IT_number 15
_symmetry_cell_setting 'monoclinic'
loop_
_space_group_symop_operation_xyz
x,y,z
-x,y,1/2-z
-x,-y,-z
x,-y,1/2+z
1/2+x,1/2+y,z
1/2-x,1/2+y,1/2-z
1/2-x,1/2-y,-z
1/2+x,1/2-y,1/2+z
loop_
_atom_site_type_symbol
_atom_site_label
_atom_site_fract_x
_atom_site_fract_y
_atom_site_fract_z
Si Si1 0.744076 0.407893 0.332734
Si Si2 0.518559 0.598359 0.454042
Si Si3 0.793733 0.815602 0.473416
Si Si4 0.362952 0.864598 0.834592
Si Si5 0.583898 0.210174 0.963506
Si Si6 0.706304 0.093862 0.416627
Si Si7 0.009590 0.993429 0.364464
O O1 0.612571 0.386116 0.135759
O O2 0.721142 0.388789 0.417833
O O3 0.679779 0.465337 0.283180
O O4 0.950148 0.395942 0.489835
O O5 0.611947 0.632390 0.461090
O O6 0.304696 0.608291 0.266657
O O7 0.550587 0.540235 0.464793
O O8 0.604196 0.811024 0.246709
O O9 0.741029 0.806872 0.532769
O O10 0.914270 0.769749 0.543808
O O11 0.313991 0.864936 0.681520
O O12 0.387326 0.812461 0.909331
O O13 0.500000 0.074881 0.250000
O O14 0.836081 0.049757 0.496220
O O15 0.000000 0.011486 0.250000
#
# Coordination Sequence:
#
# PCOD9284487 Si02
#       7
#     8   8   8   8   8   8   8
#     4  10  21  41  58  84 123 160 207 254 303 366
#     4  12  23  37  61  90 122 163 206 255 303 372
#     4  10  22  40  62  89 130 163 196 257 315 370
#     4  11  22  36  65  92 112 162 212 250 304 371
#     4  10  21  41  62  91 124 163 206 250 314 376
#     4   9  20  40  60  85 118 165 203 253 310 358
#     4  10  22  40  57  85 129 166 206 255 308 362
#
# _framework density 19.681684000000001
#
# number of rings (size 3 to 8) (size 9 to 14) (size 15 to 20)
#    0.000    1.714    2.857    1.286    2.000    1.714 
#    7.714    0.000    0.000    0.857    3.714    0.000 
#    0.000    0.000    0.000    0.000    0.000    0.000 
#
# Total GULP energy -156217.740295 kJ/mol
# GULP energy per Si atom -5579.205011 kJ/mol
# Density = 1.963689 g / cm^3
# Si number density = 19.681684 Si / 1000 Ang^3
#
#
#
# Elastic Constant Matrix: (Units=GPa)
#
#
# Indices 1 2 3 4 5 6 
#
# 1 63.4065 41.3785 42.3262 0.0001 -0.0291 0.0001
# 2 41.3785 67.9485 25.5599 0.0000 -2.3493 0.0000
# 3 42.3262 25.5599 88.0592 0.0002 -1.6514 0.0002
# 4 0.0001 0.0000 0.0002 23.3935 0.0002 -2.4548
# 5 -0.0291 -2.3493 -1.6514 0.0002 42.8122 0.0001
# 6 0.0001 0.0000 0.0002 -2.4548 0.0001 23.4995
#
#
#
# Elastic Compliance Matrix: (Units=1/GPa)
#
#
# Indices 1 2 3 4 5 6 
#
# 1 0.034466 -0.016607 -0.011771 0.000000 -0.001342 0.000000
# 2 -0.016607 0.024545 0.000884 0.000000 0.001370 0.000000
# 3 -0.011771 0.000884 0.016770 0.000000 0.000687 0.000000
# 4 0.000000 0.000000 0.000000 0.043221 0.000000 0.004515
# 5 -0.001342 0.001370 0.000687 0.000000 0.023459 0.000000
# 6 0.000000 0.000000 0.000000 0.004515 0.000000 0.043026
#
#
# Mechanical properties :
#
#
# Convention : Reuss Voigt Hill
#
# Bulk Modulus (GPa) = 48.09518 48.66037 48.37778
# Shear Modulus (GPa) = 20.20966 25.28435 22.74701
#
# Velocity S-wave (km/s) = 3.20789 3.58811 3.40331
# Velocity P-wave (km/s) = 6.18145 6.47637 6.33063
#
# Compressibility (1/GPa) = 0.02079211
#
# Stress axis : x y z
#
# Youngs Moduli (GPa) = 29.01419 40.74103 59.62942
#
# Poissons Ratio (x) = 0.67659 0.70190
# Poissons Ratio (y) = 0.48184 -0.05269
# Poissons Ratio (z) = 0.34153 -0.03600
#
# Static dielectric constant tensor:
#      x y z
#    x 1.730360 0.000000 -0.015960 
#    y 0.000000 1.642810 0.000000 
#    z -0.015960 0.000000 1.741500 
# 
# From -- ./inp_files/157239.got.cif
#   From: 2010.05.17/outbox.cif.g08.bks.cpg/sg15_79_cif.got.tgz:157239.got - 2010.06.03 18:47:42.
