data_PCOD9284815
_publ_section_title
;
Structure prediction by ZEFSAII (Michael W. Deem and Ramdas Pophale) SiO2 
 PCOD9284815
Probable space group: C 2/C
;
_chemical_formula_sum "Si O2"
_cell_formula_units_Z 56
_cell_length_a 28.072342
_cell_length_b 13.145372
_cell_length_c 7.509042
_cell_angle_alpha 90.000000
_cell_angle_beta 109.084965
_cell_angle_gamma 90.000000
_cell_volume 2618.688472
_symmetry_space_group_name_H-M "C 2/C"
_symmetry_group_IT_number 15
_symmetry_cell_setting 'monoclinic'
loop_
_space_group_symop_operation_xyz
x,y,z
-x,y,1/2-z
-x,-y,-z
x,-y,1/2+z
1/2+x,1/2+y,z
1/2-x,1/2+y,1/2-z
1/2-x,1/2-y,-z
1/2+x,1/2-y,1/2+z
loop_
_atom_site_type_symbol
_atom_site_label
_atom_site_fract_x
_atom_site_fract_y
_atom_site_fract_z
Si Si1 0.849408 0.638808 0.182953
Si Si2 0.554515 0.752318 0.734087
Si Si3 0.712007 0.020891 0.645026
Si Si4 0.554041 0.396933 0.898050
Si Si5 0.396243 0.605154 0.410639
Si Si6 0.785165 0.202641 0.786769
Si Si7 0.787027 0.858394 0.674235
O O1 0.909204 0.651935 0.261900
O O2 0.820172 0.552910 0.263856
O O3 0.828160 0.748488 0.219531
O O4 0.829808 0.601330 0.969305
O O5 0.500000 0.776635 0.750000
O O6 0.548308 0.686172 0.546194
O O7 0.583784 0.683458 0.917125
O O8 0.761207 0.093711 0.723948
O O9 0.741320 0.934336 0.565307
O O10 0.500000 0.426496 0.750000
O O11 0.585384 0.362445 0.763554
O O12 0.580308 0.495762 0.014087
O O13 0.336003 0.595433 0.324935
O O14 0.739249 0.282263 0.720782
O O15 0.802225 0.200295 0.013711
#
# Coordination Sequence:
#
# PCOD9284815 Si02
#       7
#     8   8   8   8   8   8   8
#     4  11  25  43  70  98 132 181 226 285 347 403
#     4  12  26  47  68  98 138 182 243 289 337 403
#     4  11  22  43  66  98 138 176 224 278 340 411
#     4  12  24  42  65  98 136 184 227 287 348 416
#     4  12  24  38  67 100 141 182 226 274 355 415
#     4  10  21  41  64  95 140 176 230 269 335 411
#     4  10  23  37  63 102 136 183 218 270 336 423
#
# _framework density 21.38475
#
# number of rings (size 3 to 8) (size 9 to 14) (size 15 to 20)
#    0.000    0.857    4.286    3.000    4.000    1.143 
#    2.571    0.714    0.000    0.000    0.000    0.000 
#    0.000    0.000    0.000    0.000    0.000    0.000 
#
# Total GULP energy -156126.614635 kJ/mol
# GULP energy per Si atom -5575.950523 kJ/mol
# Density = 2.133608 g / cm^3
# Si number density = 21.384750 Si / 1000 Ang^3
#
#
#
# Elastic Constant Matrix: (Units=GPa)
#
#
# Indices 1 2 3 4 5 6 
#
# 1 124.4456 59.3348 54.8925 0.0000 20.4599 0.0000
# 2 59.3348 66.9391 11.5610 0.0000 0.7718 0.0000
# 3 54.8925 11.5610 53.9185 0.0000 5.3245 0.0000
# 4 0.0000 0.0000 0.0000 4.9077 0.0000 13.0484
# 5 20.4599 0.7718 5.3245 0.0000 42.5783 0.0000
# 6 0.0000 0.0000 0.0000 13.0484 0.0000 25.9040
#
#
#
# Elastic Compliance Matrix: (Units=1/GPa)
#
#
# Indices 1 2 3 4 5 6 
#
# 1 0.035858 -0.026534 -0.029527 0.000000 -0.013057 0.000000
# 2 -0.026534 0.035149 0.018510 0.000000 0.009799 0.000000
# 3 -0.029527 0.018510 0.043811 0.000000 0.008374 0.000000
# 4 0.000000 0.000000 0.000000 -0.600564 0.000000 0.302518
# 5 -0.013057 0.009799 0.008374 0.000000 0.028536 0.000000
# 6 0.000000 0.000000 0.000000 0.302518 0.000000 -0.113781
#
#
# Mechanical properties :
#
#
# Convention : Reuss Voigt Hill
#
# Bulk Modulus (GPa) = 25.17948 55.20887 40.19418
# Shear Modulus (GPa) = -10.35950 22.64565 6.14307
#
# Velocity S-wave (km/s) = -2.20337 3.25770 1.69673
# Velocity P-wave (km/s) = 2.30801 6.32638 4.76183
#
# Compressibility (1/GPa) = 0.03971488
#
# Stress axis : x y z
#
# Youngs Moduli (GPa) = 27.88770 28.45006 22.82516
#
# Poissons Ratio (x) = 0.75491 0.67396
# Poissons Ratio (y) = 0.73998 -0.42248
# Poissons Ratio (z) = 0.82344 -0.52660
#
# Static dielectric constant tensor:
#      x y z
#    x 1.792120 0.000000 -0.021330 
#    y 0.000000 1.766760 0.000000 
#    z -0.021330 0.000000 1.876140 
# 
# From -- ./inp_files/65541.got.cif
#   From: 2010.05.17/outbox.cif.g08.bks.cpg/sg15_33_cif.got.tgz:65541.got - 2010.06.03 18:47:42.
