data_PCOD9284473
_publ_section_title
;
Structure prediction by ZEFSAII (Michael W. Deem and Ramdas Pophale) SiO2 
 PCOD9284473
Probable space group: C 2/C
;
_chemical_formula_sum "Si O2"
_cell_formula_units_Z 56
_cell_length_a 12.020696
_cell_length_b 8.964023
_cell_length_c 25.610542
_cell_angle_alpha 90.000000
_cell_angle_beta 112.704470
_cell_angle_gamma 90.000000
_cell_volume 2545.783559
_symmetry_space_group_name_H-M "C 2/C"
_symmetry_group_IT_number 15
_symmetry_cell_setting 'monoclinic'
loop_
_space_group_symop_operation_xyz
x,y,z
-x,y,1/2-z
-x,-y,-z
x,-y,1/2+z
1/2+x,1/2+y,z
1/2-x,1/2+y,1/2-z
1/2-x,1/2-y,-z
1/2+x,1/2-y,1/2+z
loop_
_atom_site_type_symbol
_atom_site_label
_atom_site_fract_x
_atom_site_fract_y
_atom_site_fract_z
Si Si1 0.291448 0.719210 0.833781
Si Si2 0.500635 0.544758 0.688353
Si Si3 0.406012 0.065285 0.024293
Si Si4 0.149362 0.772809 0.709471
Si Si5 0.302787 0.918234 0.648756
Si Si6 0.682455 0.674312 0.926478
Si Si7 0.458918 0.981201 0.855576
O O1 0.385845 0.635805 0.813082
O O2 0.185685 0.771708 0.776363
O O3 0.243897 0.588455 0.862389
O O4 0.366668 0.863314 0.864864
O O5 0.500000 0.568294 0.750000
O O6 0.531645 0.373547 0.682024
O O7 0.388778 0.592853 0.632568
O O8 0.403445 0.236567 0.047831
O O9 0.444608 0.972716 0.082615
O O10 0.275401 0.068690 0.973219
O O11 0.500000 0.000000 0.000000
O O12 0.254151 0.847565 0.693572
O O13 0.119863 0.609919 0.683412
O O14 0.254364 0.812289 0.593255
O O15 0.448242 0.915483 0.670587
#
# Coordination Sequence:
#
# PCOD9284473 Si02
#       7
#     8   8   8   8   8   8   8
#     4  11  23  40  65  97 130 183 224 268 343 407
#     4  11  23  41  64  99 136 183 223 278 342 409
#     4  10  21  40  75  96 125 179 228 284 343 402
#     4  11  25  38  62 100 135 178 230 271 334 416
#     4  10  22  42  65  91 134 174 220 275 336 400
#     4  10  21  44  69  95 135 177 222 283 351 396
#     4  11  23  45  65  94 136 174 225 287 340 393
#
# _framework density 21.997157000000001
#
# number of rings (size 3 to 8) (size 9 to 14) (size 15 to 20)
#    0.000    1.429    2.857    3.429    2.000    2.286 
#    0.000    1.429    9.429    0.000    0.000    0.000 
#    0.000    0.000    0.000    0.000    0.000    0.000 
#
# Total GULP energy -156119.610902 kJ/mol
# GULP energy per Si atom -5575.700389 kJ/mol
# Density = 2.194709 g / cm^3
# Si number density = 21.997157 Si / 1000 Ang^3
#
#
#
# Elastic Constant Matrix: (Units=GPa)
#
#
# Indices 1 2 3 4 5 6 
#
# 1 85.9126 40.4795 40.1187 0.0000 -0.8324 0.0000
# 2 40.4795 64.2498 28.7322 0.0000 9.5385 0.0000
# 3 40.1187 28.7322 118.8588 0.0000 18.1852 0.0000
# 4 0.0000 0.0000 0.0000 -3.3872 0.0000 -0.2376
# 5 -0.8324 9.5385 18.1852 0.0000 33.1370 0.0000
# 6 0.0000 0.0000 0.0000 -0.2376 0.0000 37.9626
#
#
#
# Elastic Compliance Matrix: (Units=1/GPa)
#
#
# Indices 1 2 3 4 5 6 
#
# 1 0.018987 -0.010754 -0.004755 0.000000 0.006182 0.000000
# 2 -0.010754 0.023811 -0.001131 0.000000 -0.006503 0.000000
# 3 -0.004755 -0.001131 0.011201 0.000000 -0.005941 0.000000
# 4 0.000000 0.000000 0.000000 -0.295099 0.000000 -0.001847
# 5 0.006182 -0.006503 -0.005941 0.000000 0.035465 0.000000
# 6 0.000000 0.000000 0.000000 -0.001847 0.000000 0.026330
#
#
# Mechanical properties :
#
#
# Convention : Reuss Voigt Hill
#
# Bulk Modulus (GPa) = 48.26572 54.18687 51.22629
# Shear Modulus (GPa) = -35.94035 24.18853 -5.87591
#
# Velocity S-wave (km/s) = -4.04649 3.31965 -1.63616
# Velocity P-wave (km/s) = 0.39660 6.27539 4.44622
#
# Compressibility (1/GPa) = 0.02071864
#
# Stress axis : x y z
#
# Youngs Moduli (GPa) = 52.66780 41.99772 89.28058
#
# Poissons Ratio (x) = 0.45163 0.42453
# Poissons Ratio (y) = 0.56638 0.10099
# Poissons Ratio (z) = 0.25043 0.04751
#
# Static dielectric constant tensor:
#      x y z
#    x 1.867840 0.000000 -0.009520 
#    y 0.000000 1.871080 0.000000 
#    z -0.009520 0.000000 1.829080 
# 
# From -- ./inp_files/295238.got.cif
#   From: 2010.05.17/outbox.cif.g08.bks.cpg/sg15_148_cif.got.tgz:295238.got - 2010.06.03 18:47:42.
