data_PCOD9284048
_publ_section_title
;
Structure prediction by ZEFSAII (Michael W. Deem and Ramdas Pophale) SiO2 
 PCOD9284048
Probable space group: C 2/C
;
_chemical_formula_sum "Si O2"
_cell_formula_units_Z 44
_cell_length_a 6.777578
_cell_length_b 25.499852
_cell_length_c 15.299113
_cell_angle_alpha 90.000000
_cell_angle_beta 125.399889
_cell_angle_gamma 90.000000
_cell_volume 2155.285153
_symmetry_space_group_name_H-M "C 2/C"
_symmetry_group_IT_number 15
_symmetry_cell_setting 'monoclinic'
loop_
_space_group_symop_operation_xyz
x,y,z
-x,y,1/2-z
-x,-y,-z
x,-y,1/2+z
1/2+x,1/2+y,z
1/2-x,1/2+y,1/2-z
1/2-x,1/2-y,-z
1/2+x,1/2-y,1/2+z
loop_
_atom_site_type_symbol
_atom_site_label
_atom_site_fract_x
_atom_site_fract_y
_atom_site_fract_z
Si Si1 0.000000 0.047625 0.750000
Si Si2 0.395299 0.769204 0.630665
Si Si3 0.087718 0.709043 0.011866
Si Si4 0.933020 0.971669 0.572466
Si Si5 0.457931 0.091580 0.966315
Si Si6 0.296647 0.886016 0.623529
O O1 0.766409 0.081414 0.657991
O O2 0.971024 0.008481 0.825024
O O3 0.500000 0.754963 0.750000
O O4 0.621036 0.781036 0.624029
O O5 0.254335 0.824298 0.602533
O O6 0.196623 0.725230 0.561139
O O7 0.086430 0.648300 0.984640
O O8 0.250000 0.750000 0.000000
O O9 0.073623 0.917190 0.604509
O O10 0.653516 0.954829 0.507160
O O11 0.000000 0.000000 0.500000
O O12 0.368102 0.093493 0.044759
O O13 0.500000 0.892296 0.750000
#
# Coordination Sequence:
#
# PCOD9284048 Si02
#       6
#     4   8   8   8   8   8
#     4  12  26  44  66  96 134 170 220 278 326 386
#     4   9  20  38  63  93 125 164 209 259 316 376
#     4  10  21  40  66  92 132 163 210 261 321 386
#     4  12  25  41  65  89 133 171 223 262 326 382
#     4  11  25  44  64 100 130 170 222 268 328 394
#     4  10  21  41  68  94 129 173 217 267 321 390
#
# _framework density 20.414932
#
# number of rings (size 3 to 8) (size 9 to 14) (size 15 to 20)
#    0.000    1.455    1.818    2.727    3.818    0.727 
#    0.000    7.273    0.000    0.000    0.000    0.000 
#    0.000    0.000    0.000    0.000    0.000    0.000 
#
# Total GULP energy -122601.714525 kJ/mol
# GULP energy per Si atom -5572.805206 kJ/mol
# Density = 2.036847 g / cm^3
# Si number density = 20.414932 Si / 1000 Ang^3
#
#
#
# Elastic Constant Matrix: (Units=GPa)
#
#
# Indices 1 2 3 4 5 6 
#
# 1 57.6033 52.4112 37.2841 0.0000 2.6894 0.0000
# 2 52.4112 71.2941 29.6949 0.0000 10.5306 0.0000
# 3 37.2841 29.6949 128.6192 0.0000 -4.8241 0.0000
# 4 0.0000 0.0000 0.0000 23.7898 0.0000 -1.5212
# 5 2.6894 10.5306 -4.8241 0.0000 25.9630 0.0000
# 6 0.0000 0.0000 0.0000 -1.5212 0.0000 51.6571
#
#
#
# Elastic Compliance Matrix: (Units=1/GPa)
#
#
# Indices 1 2 3 4 5 6 
#
# 1 0.060974 -0.043229 -0.007325 0.000000 0.009857 0.000000
# 2 -0.043229 0.047546 0.001006 0.000000 -0.014620 0.000000
# 3 -0.007325 0.001006 0.009747 0.000000 0.002162 0.000000
# 4 0.000000 0.000000 0.000000 0.042114 0.000000 0.001240
# 5 0.009857 -0.014620 0.002162 0.000000 0.043827 0.000000
# 6 0.000000 0.000000 0.000000 0.001240 0.000000 0.019395
#
#
# Mechanical properties :
#
#
# Convention : Reuss Voigt Hill
#
# Bulk Modulus (GPa) = 52.16336 55.14412 53.65374
# Shear Modulus (GPa) = 15.19342 29.49043 22.34192
#
# Velocity S-wave (km/s) = 2.73102 3.80485 3.31175
# Velocity P-wave (km/s) = 5.96252 6.80976 6.40017
#
# Compressibility (1/GPa) = 0.01917054
#
# Stress axis : x y z
#
# Youngs Moduli (GPa) = 16.40054 21.03205 102.59438
#
# Poissons Ratio (x) = 0.90920 0.75149
# Poissons Ratio (y) = 0.70898 -0.10317
# Poissons Ratio (z) = 0.12013 -0.02115
#
# Static dielectric constant tensor:
#      x y z
#    x 1.795090 0.000000 -0.099080 
#    y 0.000000 1.739880 0.000000 
#    z -0.099080 0.000000 2.026040 
# 
# From -- ./inp_files/129874.got.cif
#   From: 2010.05.17/outbox.cif.g08.bks.cpg/sg15_65_cif.got.tgz:129874.got - 2010.06.03 18:47:42.
