data_PCOD9284782
_publ_section_title
;
Structure prediction by ZEFSAII (Michael W. Deem and Ramdas Pophale) SiO2 
 PCOD9284782
Probable space group: C 2/C
;
_chemical_formula_sum "Si O2"
_cell_formula_units_Z 40
_cell_length_a 15.413451
_cell_length_b 10.150701
_cell_length_c 14.904669
_cell_angle_alpha 90.000000
_cell_angle_beta 122.311518
_cell_angle_gamma 90.000000
_cell_volume 1970.853361
_symmetry_space_group_name_H-M "C 2/C"
_symmetry_group_IT_number 15
_symmetry_cell_setting 'monoclinic'
loop_
_space_group_symop_operation_xyz
x,y,z
-x,y,1/2-z
-x,-y,-z
x,-y,1/2+z
1/2+x,1/2+y,z
1/2-x,1/2+y,1/2-z
1/2-x,1/2-y,-z
1/2+x,1/2-y,1/2+z
loop_
_atom_site_type_symbol
_atom_site_label
_atom_site_fract_x
_atom_site_fract_y
_atom_site_fract_z
Si Si1 0.096237 0.031308 0.489945
Si Si2 0.824924 0.521852 0.156192
Si Si3 0.918833 0.775678 0.126927
Si Si4 0.934091 0.406909 0.899972
Si Si5 0.358734 0.805654 0.032758
O O1 0.073427 0.173530 0.432948
O O2 0.207087 0.025791 0.601738
O O3 0.114800 0.916597 0.427357
O O4 0.000000 0.000000 0.500000
O O5 0.837338 0.668603 0.119437
O O6 0.882387 0.530267 0.283508
O O7 0.879637 0.422196 0.115406
O O8 0.000000 0.798749 0.250000
O O9 0.986554 0.704355 0.088215
O O10 0.852599 0.353083 0.926487
O O11 0.000000 0.500000 0.000000
O O12 0.250000 0.750000 0.000000
#
# Coordination Sequence:
#
# PCOD9284782 Si02
#       5
#     8   8   8   8   8
#     4  11  22  43  61  97 134 165 210 273 333 373
#     4  10  23  43  68  92 127 178 217 258 323 392
#     4  10  21  41  64  92 127 171 218 264 319 393
#     4  11  21  42  68  95 127 169 224 262 313 392
#     4  10  22  43  64  97 134 161 219 270 315 390
#
# _framework density 20.295777000000001
#
# number of rings (size 3 to 8) (size 9 to 14) (size 15 to 20)
#    0.000    1.600    4.000    0.600    0.000    0.000 
#   18.000    0.000    0.000    0.000    0.000    0.000 
#    0.000    0.000    0.000    0.000    0.000    0.000 
#
# Total GULP energy -111436.788889 kJ/mol
# GULP energy per Si atom -5571.839444 kJ/mol
# Density = 2.024958 g / cm^3
# Si number density = 20.295777 Si / 1000 Ang^3
#
#
#
# Elastic Constant Matrix: (Units=GPa)
#
#
# Indices 1 2 3 4 5 6 
#
# 1 93.1228 2.5894 22.8578 0.0000 -12.9391 0.0000
# 2 2.5894 111.5220 61.1336 0.0000 -10.9054 0.0000
# 3 22.8578 61.1336 96.2048 0.0000 -24.5798 0.0000
# 4 0.0000 0.0000 0.0000 23.5192 0.0000 -5.0190
# 5 -12.9391 -10.9054 -24.5798 0.0000 33.2699 0.0000
# 6 0.0000 0.0000 0.0000 -5.0190 0.0000 34.3379
#
#
#
# Elastic Compliance Matrix: (Units=1/GPa)
#
#
# Indices 1 2 3 4 5 6 
#
# 1 0.011872 0.001767 -0.003225 0.000000 0.002814 0.000000
# 2 0.001767 0.014181 -0.009945 0.000000 -0.002012 0.000000
# 3 -0.003225 -0.009945 0.020126 0.000000 0.010355 0.000000
# 4 0.000000 0.000000 0.000000 0.043887 0.000000 0.006415
# 5 0.002814 -0.002012 0.010355 0.000000 0.038142 0.000000
# 6 0.000000 0.000000 0.000000 0.006415 0.000000 0.030060
#
#
# Mechanical properties :
#
#
# Convention : Reuss Voigt Hill
#
# Bulk Modulus (GPa) = 42.78369 52.66792 47.72580
# Shear Modulus (GPa) = 26.47394 32.50996 29.49195
#
# Velocity S-wave (km/s) = 3.61557 4.00660 3.81610
# Velocity P-wave (km/s) = 6.20932 6.88552 6.55614
#
# Compressibility (1/GPa) = 0.02337339
#
# Stress axis : x y z
#
# Youngs Moduli (GPa) = 84.23244 70.51817 49.68692
#
# Poissons Ratio (x) = -0.12462 0.16023
# Poissons Ratio (y) = -0.14886 0.49414
# Poissons Ratio (z) = 0.27163 0.70131
#
# Static dielectric constant tensor:
#      x y z
#    x 1.758410 0.000000 0.012040 
#    y 0.000000 2.159090 0.000000 
#    z 0.012040 0.000000 1.682960 
# 
# From -- ./inp_files/159510.got.cif
#   From: 2010.05.17/outbox.cif.g08.bks.cpg/sg15_80_cif.got.tgz:159510.got - 2010.06.03 18:47:42.
