data_PCOD9284633
_publ_section_title
;
Structure prediction by ZEFSAII (Michael W. Deem and Ramdas Pophale) SiO2 
 PCOD9284633
Probable space group: C 2/C
;
_chemical_formula_sum "Si O2"
_cell_formula_units_Z 60
_cell_length_a 16.096017
_cell_length_b 25.570722
_cell_length_c 8.613818
_cell_angle_alpha 90.000000
_cell_angle_beta 42.797117
_cell_angle_gamma 90.000000
_cell_volume 2408.715176
_symmetry_space_group_name_H-M "C 2/C"
_symmetry_group_IT_number 15
_symmetry_cell_setting 'monoclinic'
loop_
_space_group_symop_operation_xyz
x,y,z
-x,y,1/2-z
-x,-y,-z
x,-y,1/2+z
1/2+x,1/2+y,z
1/2-x,1/2+y,1/2-z
1/2-x,1/2-y,-z
1/2+x,1/2-y,1/2+z
loop_
_atom_site_type_symbol
_atom_site_label
_atom_site_fract_x
_atom_site_fract_y
_atom_site_fract_z
Si Si1 0.526659 0.926852 0.390123
Si Si2 0.123136 0.018253 0.249100
Si Si3 0.763587 0.809046 0.425963
Si Si4 0.660097 0.721072 0.004838
Si Si5 0.357403 0.628725 0.251660
Si Si6 0.611626 0.830115 0.918358
Si Si7 0.000000 0.860438 0.250000
Si Si8 0.702820 0.014466 0.213057
O O1 0.500000 0.944753 0.250000
O O2 0.510792 0.864602 0.407510
O O3 0.648065 0.955875 0.276944
O O4 0.414381 0.949074 0.647190
O O5 0.119846 0.076141 0.181643
O O6 0.239697 0.022996 0.200069
O O7 0.177549 0.976593 0.055386
O O8 0.000000 0.000000 0.500000
O O9 0.750000 0.750000 0.500000
O O10 0.771020 0.809924 0.229473
O O11 0.658193 0.834564 0.676064
O O12 0.891602 0.828015 0.319313
O O13 0.596954 0.770234 0.998740
O O14 0.750000 0.750000 0.000000
O O15 0.601565 0.678700 0.203755
O O16 0.220795 0.643139 0.373319
O O17 0.435268 0.615581 0.990026
#
# Coordination Sequence:
#
# PCOD9284633 Si02
#       8
#     8   8   8   8   8   8   4   8
#     4  11  21  42  75 101 145 194 237 302 376 463
#     4  12  26  46  72 103 144 192 250 312 376 450
#     4   9  19  39  64  95 136 180 238 296 361 443
#     4   9  19  39  70 100 138 187 235 302 362 442
#     4  10  21  41  63 100 136 180 240 299 362 440
#     4   9  18  39  71  98 133 186 235 289 370 439
#     4  10  22  38  68  90 134 186 230 296 374 424
#     4  11  24  45  71 104 140 189 244 301 377 444
#
# _framework density 24.909545999999999
#
# number of rings (size 3 to 8) (size 9 to 14) (size 15 to 20)
#    0.000    1.867    2.667    1.200    1.867    0.533 
#   12.000    0.000   17.600    0.000    0.000    0.933 
#    0.000    0.000    0.000    0.000    0.000    0.000 
#
# Total GULP energy -167322.413543 kJ/mol
# GULP energy per Si atom -5577.413785 kJ/mol
# Density = 2.485285 g / cm^3
# Si number density = 24.909546 Si / 1000 Ang^3
#
#
#
# Elastic Constant Matrix: (Units=GPa)
#
#
# Indices 1 2 3 4 5 6 
#
# 1 70.7988 20.5362 18.9372 0.0000 -1.1095 0.0000
# 2 20.5362 126.3316 40.2833 0.0000 -13.9999 0.0000
# 3 18.9372 40.2833 161.3524 0.0000 -5.1317 0.0000
# 4 0.0000 0.0000 0.0000 22.2863 0.0000 1.1488
# 5 -1.1095 -13.9999 -5.1317 0.0000 35.4329 0.0000
# 6 0.0000 0.0000 0.0000 1.1488 0.0000 31.0379
#
#
#
# Elastic Compliance Matrix: (Units=1/GPa)
#
#
# Indices 1 2 3 4 5 6 
#
# 1 0.015064 -0.002108 -0.001259 0.000000 -0.000543 0.000000
# 2 -0.002108 0.009248 -0.001956 0.000000 0.003305 0.000000
# 3 -0.001259 -0.001956 0.006840 0.000000 0.000178 0.000000
# 4 0.000000 0.000000 0.000000 0.044956 0.000000 -0.001664
# 5 -0.000543 0.003305 0.000178 0.000000 0.029537 0.000000
# 6 0.000000 0.000000 0.000000 -0.001664 0.000000 0.032280
#
#
# Mechanical properties :
#
#
# Convention : Reuss Voigt Hill
#
# Bulk Modulus (GPa) = 48.76683 57.55513 53.16098
# Shear Modulus (GPa) = 32.17358 36.33316 34.25337
#
# Velocity S-wave (km/s) = 3.59781 3.82331 3.71227
# Velocity P-wave (km/s) = 6.07281 6.53040 6.30576
#
# Compressibility (1/GPa) = 0.02050574
#
# Stress axis : x y z
#
# Youngs Moduli (GPa) = 66.38294 108.12723 146.20912
#
# Poissons Ratio (x) = 0.22788 0.18410
# Poissons Ratio (y) = 0.13990 0.28606
# Poissons Ratio (z) = 0.08358 0.21155
#
# Static dielectric constant tensor:
#      x y z
#    x 1.842450 0.000000 -0.022220 
#    y 0.000000 2.020620 0.000000 
#    z -0.022220 0.000000 2.049000 
# 
# From -- ./inp_files/59128.got.cif
#   From: 2010.05.17/outbox.cif.g08.bks.cpg/sg15_30_cif.got.tgz:59128.got - 2010.06.03 18:47:42.
