data_PCOD9284664
_publ_section_title
;
Structure prediction by ZEFSAII (Michael W. Deem and Ramdas Pophale) SiO2 
 PCOD9284664
Probable space group: C 2/C
;
_chemical_formula_sum "Si O2"
_cell_formula_units_Z 48
_cell_length_a 13.371126
_cell_length_b 27.702870
_cell_length_c 5.674548
_cell_angle_alpha 90.000000
_cell_angle_beta 89.104793
_cell_angle_gamma 90.000000
_cell_volume 2101.701370
_symmetry_space_group_name_H-M "C 2/C"
_symmetry_group_IT_number 15
_symmetry_cell_setting 'monoclinic'
loop_
_space_group_symop_operation_xyz
x,y,z
-x,y,1/2-z
-x,-y,-z
x,-y,1/2+z
1/2+x,1/2+y,z
1/2-x,1/2+y,1/2-z
1/2-x,1/2-y,-z
1/2+x,1/2-y,1/2+z
loop_
_atom_site_type_symbol
_atom_site_label
_atom_site_fract_x
_atom_site_fract_y
_atom_site_fract_z
Si Si1 0.500000 0.692017 0.250000
Si Si2 0.708759 0.998573 0.240279
Si Si3 0.113719 0.352149 0.740960
Si Si4 0.392339 0.352724 0.372165
Si Si5 0.500000 0.026995 0.250000
Si Si6 0.193576 0.390781 0.239745
Si Si7 0.143168 0.755913 0.380224
O O1 0.583506 0.656327 0.356166
O O2 0.443116 0.726239 0.436692
O O3 0.657989 0.945721 0.241171
O O4 0.764199 0.000293 0.488172
O O5 0.621060 0.039427 0.243121
O O6 0.153583 0.364793 0.478228
O O7 0.000000 0.372116 0.750000
O O8 0.166244 0.367569 0.987468
O O9 0.114756 0.294031 0.759926
O O10 0.500000 0.360348 0.250000
O O11 0.312535 0.390352 0.282311
O O12 0.349669 0.300563 0.297202
O O13 0.500000 0.000000 0.500000
O O14 0.250000 0.750000 0.500000
#
# Coordination Sequence:
#
# PCOD9284664 Si02
#       7
#     4   8   8   8   4   8   8
#     4  10  22  38  63  86 126 176 222 260 314 375
#     4  10  21  41  63  89 121 164 206 253 324 394
#     4  12  27  40  61  96 138 173 211 261 316 378
#     4  10  23  41  65  93 123 173 227 269 318 372
#     4   8  16  30  55  80 108 148 194 228 280 375
#     4  12  26  43  67  95 131 167 213 275 318 377
#     4  11  22  39  61  87 128 178 217 257 314 376
#
# _framework density 22.838639000000001
#
# number of rings (size 3 to 8) (size 9 to 14) (size 15 to 20)
#    0.000    1.333    1.667    4.000    9.333    1.333 
#    3.000    0.000    0.000    1.000    0.000    0.000 
#    0.000    0.000    0.000    0.000    0.000    0.000 
#
# Total GULP energy -133709.577953 kJ/mol
# GULP energy per Si atom -5571.232415 kJ/mol
# Density = 2.278666 g / cm^3
# Si number density = 22.838639 Si / 1000 Ang^3
#
#
#
# Elastic Constant Matrix: (Units=GPa)
#
#
# Indices 1 2 3 4 5 6 
#
# 1 99.4407 10.4898 22.7392 0.0000 26.5227 0.0000
# 2 10.4898 66.9154 23.1676 0.0000 2.3769 0.0000
# 3 22.7392 23.1676 183.2994 0.0000 9.9344 0.0000
# 4 0.0000 0.0000 0.0000 30.1708 0.0000 6.0451
# 5 26.5227 2.3769 9.9344 0.0000 33.6922 0.0000
# 6 0.0000 0.0000 0.0000 6.0451 0.0000 28.3315
#
#
#
# Elastic Compliance Matrix: (Units=1/GPa)
#
#
# Indices 1 2 3 4 5 6 
#
# 1 0.013053 -0.001380 -0.000908 0.000000 -0.009910 0.000000
# 2 -0.001380 0.015783 -0.001852 0.000000 0.000519 0.000000
# 3 -0.000908 -0.001852 0.005850 0.000000 -0.000880 0.000000
# 4 0.000000 0.000000 0.000000 0.034625 0.000000 -0.007388
# 5 -0.009910 0.000519 -0.000880 0.000000 0.037704 0.000000
# 6 0.000000 0.000000 0.000000 -0.007388 0.000000 0.036873
#
#
# Mechanical properties :
#
#
# Convention : Reuss Voigt Hill
#
# Bulk Modulus (GPa) = 37.86886 51.38319 44.62602
# Shear Modulus (GPa) = 31.06189 37.98950 34.52570
#
# Velocity S-wave (km/s) = 3.69190 4.08289 3.89231
# Velocity P-wave (km/s) = 5.89835 6.69133 6.30731
#
# Compressibility (1/GPa) = 0.02640692
#
# Stress axis : x y z
#
# Youngs Moduli (GPa) = 76.61325 63.35822 170.94324
#
# Poissons Ratio (x) = 0.08743 0.15517
# Poissons Ratio (y) = 0.10572 0.31656
# Poissons Ratio (z) = 0.06954 0.11733
#
# Static dielectric constant tensor:
#      x y z
#    x 1.908100 0.000000 0.018070 
#    y 0.000000 4.004390 0.000000 
#    z 0.018070 0.000000 1.946860 
# 
# From -- ./inp_files/8817.got.cif
#   From: 2010.05.17/outbox.cif.g08.bks.cpg/sg15_5_cif.got.tgz:8817.got - 2010.06.03 18:47:42.
