data_PCOD9284949
_publ_section_title
;
Structure prediction by ZEFSAII (Michael W. Deem and Ramdas Pophale) SiO2 
 PCOD9284949
Probable space group: C 2/C
;
_chemical_formula_sum "Si O2"
_cell_formula_units_Z 52
_cell_length_a 9.872110
_cell_length_b 11.795740
_cell_length_c 25.769524
_cell_angle_alpha 90.000000
_cell_angle_beta 43.410387
_cell_angle_gamma 90.000000
_cell_volume 2062.228906
_symmetry_space_group_name_H-M "C 2/C"
_symmetry_group_IT_number 15
_symmetry_cell_setting 'monoclinic'
loop_
_space_group_symop_operation_xyz
x,y,z
-x,y,1/2-z
-x,-y,-z
x,-y,1/2+z
1/2+x,1/2+y,z
1/2-x,1/2+y,1/2-z
1/2-x,1/2-y,-z
1/2+x,1/2-y,1/2+z
loop_
_atom_site_type_symbol
_atom_site_label
_atom_site_fract_x
_atom_site_fract_y
_atom_site_fract_z
Si Si1 0.879469 0.835949 0.522329
Si Si2 0.797329 0.732707 0.332970
Si Si3 0.241000 0.029344 0.681316
Si Si4 0.000000 0.710906 0.750000
Si Si5 0.355845 0.542025 0.461392
Si Si6 0.209879 0.665993 0.407147
Si Si7 0.777685 0.005745 0.699667
O O1 0.718173 0.770304 0.601017
O O2 0.020902 0.892182 0.527845
O O3 0.029320 0.752610 0.451757
O O4 0.783943 0.933404 0.513807
O O5 0.769449 0.604951 0.320874
O O6 0.000000 0.761641 0.250000
O O7 0.675459 0.842821 0.348074
O O8 0.324211 0.950562 0.613604
O O9 0.290635 0.979635 0.723516
O O10 0.000000 0.022813 0.750000
O O11 0.906720 0.782526 0.823785
O O12 0.826227 0.623757 0.783875
O O13 0.237039 0.632488 0.460112
O O14 0.493271 0.485828 0.378054
#
# Coordination Sequence:
#
# PCOD9284949 Si02
#       7
#     8   8   8   4   8   8   8
#     4  10  23  41  68  98 138 187 230 293 362 421
#     4  10  24  46  65  94 136 177 229 283 355 424
#     4  11  24  41  68  95 137 182 225 286 357 415
#     4  12  24  38  70 108 132 186 244 284 352 426
#     4  10  21  41  65  98 145 177 227 298 354 419
#     4  12  23  43  68 107 138 183 239 293 351 430
#     4  11  22  41  68 100 133 182 233 289 340 428
#
# _framework density 25.215434999999999
#
# number of rings (size 3 to 8) (size 9 to 14) (size 15 to 20)
#    0.000    1.231    4.615    0.462    6.462    0.615 
#    2.769    0.769    0.000    0.000    0.000    0.000 
#    0.000    0.000    0.000    0.000    0.000    0.000 
#
# Total GULP energy -145070.089620 kJ/mol
# GULP energy per Si atom -5579.618832 kJ/mol
# Density = 2.515804 g / cm^3
# Si number density = 25.215435 Si / 1000 Ang^3
#
#
#
# Elastic Constant Matrix: (Units=GPa)
#
#
# Indices 1 2 3 4 5 6 
#
# 1 40.6894 24.9017 14.2413 0.0000 11.9689 0.0000
# 2 24.9017 127.0766 51.1834 0.0000 3.9860 0.0000
# 3 14.2413 51.1834 124.8061 0.0000 8.7463 0.0000
# 4 0.0000 0.0000 0.0000 92.5083 0.0000 3.8245
# 5 11.9689 3.9860 8.7463 0.0000 30.2250 0.0000
# 6 0.0000 0.0000 0.0000 3.8245 0.0000 38.0824
#
#
#
# Elastic Compliance Matrix: (Units=1/GPa)
#
#
# Indices 1 2 3 4 5 6 
#
# 1 0.031618 -0.005637 -0.000480 0.000000 -0.011638 0.000000
# 2 -0.005637 0.010432 -0.003771 0.000000 0.001948 0.000000
# 3 -0.000480 -0.003771 0.009764 0.000000 -0.002138 0.000000
# 4 0.000000 0.000000 0.000000 0.010855 0.000000 -0.001090
# 5 -0.011638 0.001948 -0.002138 0.000000 0.038056 0.000000
# 6 0.000000 0.000000 0.000000 -0.001090 0.000000 0.026368
#
#
# Mechanical properties :
#
#
# Convention : Reuss Voigt Hill
#
# Bulk Modulus (GPa) = 31.21546 52.58053 41.89800
# Shear Modulus (GPa) = 31.73620 45.64617 38.69118
#
# Velocity S-wave (km/s) = 3.55153 4.25932 3.92142
# Velocity P-wave (km/s) = 5.40594 6.71467 6.09553
#
# Compressibility (1/GPa) = 0.03203540
#
# Stress axis : x y z
#
# Youngs Moduli (GPa) = 31.62766 95.86020 102.41994
#
# Poissons Ratio (x) = 0.54039 0.04920
# Poissons Ratio (y) = 0.17829 0.38627
# Poissons Ratio (z) = 0.01519 0.36153
#
# Static dielectric constant tensor:
#      x y z
#    x 2.117050 0.000000 -0.086550 
#    y 0.000000 2.028780 0.000000 
#    z -0.086550 0.000000 2.087770 
# 
# From -- ./inp_files/269200.got.cif
#   From: 2010.05.17/outbox.cif.g08.bks.cpg/sg15_135_cif.got.tgz:269200.got - 2010.06.03 18:47:42.
