data_PCOD9284518
_publ_section_title
;
Structure prediction by ZEFSAII (Michael W. Deem and Ramdas Pophale) SiO2 
 PCOD9284518
Probable space group: C 2/C
;
_chemical_formula_sum "Si O2"
_cell_formula_units_Z 56
_cell_length_a 27.528584
_cell_length_b 12.135548
_cell_length_c 27.678682
_cell_angle_alpha 90.000000
_cell_angle_beta 17.289629
_cell_angle_gamma 90.000000
_cell_volume 2748.150241
_symmetry_space_group_name_H-M "C 2/C"
_symmetry_group_IT_number 15
_symmetry_cell_setting 'monoclinic'
loop_
_space_group_symop_operation_xyz
x,y,z
-x,y,1/2-z
-x,-y,-z
x,-y,1/2+z
1/2+x,1/2+y,z
1/2-x,1/2+y,1/2-z
1/2-x,1/2-y,-z
1/2+x,1/2-y,1/2+z
loop_
_atom_site_type_symbol
_atom_site_label
_atom_site_fract_x
_atom_site_fract_y
_atom_site_fract_z
Si Si1 0.931800 0.338198 0.562796
Si Si2 0.146385 0.418336 0.527956
Si Si3 0.488719 0.303714 0.178405
Si Si4 0.966977 0.506610 0.112649
Si Si5 0.130197 0.992784 0.989491
Si Si6 0.659905 0.519781 0.569706
Si Si7 0.449778 0.604225 0.079803
O O1 0.021844 0.406253 0.435107
O O2 0.541732 0.710659 0.971860
O O3 0.996555 0.383963 0.552439
O O4 0.742116 0.371817 0.740788
O O5 0.309514 0.350054 0.359371
O O6 0.004141 0.326615 0.664613
O O7 0.099370 0.499233 0.529449
O O8 0.188483 0.477253 0.538219
O O9 0.611290 0.353733 0.102379
O O10 0.551498 0.370809 0.071645
O O11 0.790830 0.511436 0.304637
O O12 0.004954 0.073094 0.081547
O O13 0.173290 0.029963 0.003445
O O14 0.500000 0.475395 0.750000
O O15 0.500000 0.500000 0.000000
#
# Coordination Sequence:
#
# PCOD9284518 Si02
#       7
#     8   8   8   8   8   8   8
#     4  11  27  44  66  98 134 175 230 277 338 405
#     4  11  19  35  57  85 131 175 216 274 335 398
#     4   9  20  32  53  85 125 168 219 265 330 400
#     4  11  24  41  63  97 134 175 224 274 335 405
#     4  10  21  41  60  93 126 171 219 268 335 395
#     4   8  19  35  56  88 127 169 219 272 334 406
#     4  12  25  46  74  95 135 180 222 287 338 397
#
# _framework density 20.377343
#
# number of rings (size 3 to 8) (size 9 to 14) (size 15 to 20)
#    0.857    0.857    1.429    3.000    4.000    1.714 
#    0.000    0.000    0.000    0.857    0.000    0.000 
#    0.000    0.000    0.000    0.000    0.000    0.000 
#
# Total GULP energy -156261.369910 kJ/mol
# GULP energy per Si atom -5580.763211 kJ/mol
# Density = 2.033096 g / cm^3
# Si number density = 20.377343 Si / 1000 Ang^3
#
#
#
# Elastic Constant Matrix: (Units=GPa)
#
#
# Indices 1 2 3 4 5 6 
#
# 1 127.1865 34.0691 16.7362 0.0127 7.2182 -0.0060
# 2 34.0691 77.2663 12.9439 -0.0221 10.5243 0.0058
# 3 16.7362 12.9439 63.4539 0.0131 18.2083 -0.0064
# 4 0.0127 -0.0221 0.0131 27.4510 -0.0079 0.5638
# 5 7.2182 10.5243 18.2083 -0.0079 33.1071 0.0031
# 6 -0.0060 0.0058 -0.0064 0.5638 0.0031 19.1370
#
#
#
# Elastic Compliance Matrix: (Units=1/GPa)
#
#
# Indices 1 2 3 4 5 6 
#
# 1 0.009077 -0.003740 -0.001668 -0.000006 0.000127 0.000004
# 2 -0.003740 0.015247 -0.001148 0.000014 -0.003400 -0.000006
# 3 -0.001668 -0.001148 0.019265 -0.000012 -0.009867 0.000008
# 4 -0.000006 0.000014 -0.000012 0.036451 0.000013 -0.001074
# 5 0.000127 -0.003400 -0.009867 0.000013 0.036685 -0.000009
# 6 0.000004 -0.000006 0.000008 -0.001074 -0.000009 0.052286
#
#
# Mechanical properties :
#
#
# Convention : Reuss Voigt Hill
#
# Bulk Modulus (GPa) = 32.81195 43.93391 38.37293
# Shear Modulus (GPa) = 26.00371 29.54951 27.77661
#
# Velocity S-wave (km/s) = 3.57614 3.81217 3.69604
# Velocity P-wave (km/s) = 5.76098 6.40186 6.08986
#
# Compressibility (1/GPa) = 0.03047670
#
# Stress axis : x y z
#
# Youngs Moduli (GPa) = 110.17432 65.58751 51.90816
#
# Poissons Ratio (x) = 0.24530 0.08656
# Poissons Ratio (y) = 0.41206 0.05960
# Poissons Ratio (z) = 0.18372 0.07530
#
# Static dielectric constant tensor:
#      x y z
#    x 1.780050 0.000000 -0.001920 
#    y 0.000000 1.693480 0.000010 
#    z -0.001920 0.000010 1.760050 
# 
# From -- ./inp_files/303394.got.cif
#   From: 2010.05.17/outbox.cif.g08.bks.cpg/sg15_152_cif.got.tgz:303394.got - 2010.06.03 18:47:42.
