data_PCOD9284940
_publ_section_title
;
Structure prediction by ZEFSAII (Michael W. Deem and Ramdas Pophale) SiO2 
 PCOD9284940
Probable space group: C 2/C
;
_chemical_formula_sum "Si O2"
_cell_formula_units_Z 56
_cell_length_a 14.266977
_cell_length_b 11.990375
_cell_length_c 18.256230
_cell_angle_alpha 90.000000
_cell_angle_beta 54.486833
_cell_angle_gamma 90.000000
_cell_volume 2542.088417
_symmetry_space_group_name_H-M "C 2/C"
_symmetry_group_IT_number 15
_symmetry_cell_setting 'monoclinic'
loop_
_space_group_symop_operation_xyz
x,y,z
-x,y,1/2-z
-x,-y,-z
x,-y,1/2+z
1/2+x,1/2+y,z
1/2-x,1/2+y,1/2-z
1/2-x,1/2-y,-z
1/2+x,1/2-y,1/2+z
loop_
_atom_site_type_symbol
_atom_site_label
_atom_site_fract_x
_atom_site_fract_y
_atom_site_fract_z
Si Si1 0.852440 0.548900 0.919871
Si Si2 0.659592 0.371642 0.220387
Si Si3 0.636243 0.763562 0.196017
Si Si4 0.818005 0.387655 0.803535
Si Si5 0.434136 0.473435 0.606686
Si Si6 0.890113 0.578753 0.662903
Si Si7 0.862970 0.957006 0.881267
O O1 0.813831 0.655465 0.888530
O O2 0.864528 0.447921 0.856205
O O3 0.972014 0.579894 0.906469
O O4 0.747375 0.524740 0.019552
O O5 0.647005 0.239665 0.221473
O O6 0.615140 0.426384 0.317800
O O7 0.794648 0.407825 0.144799
O O8 0.604668 0.431203 0.175000
O O9 0.500000 0.775770 0.250000
O O10 0.655024 0.819355 0.265104
O O11 0.664920 0.637079 0.166631
O O12 0.678964 0.402727 0.862943
O O13 0.865731 0.464123 0.716522
O O14 0.500000 0.500000 0.500000
O O15 0.530278 0.417932 0.616106
#
# Coordination Sequence:
#
# PCOD9284940 Si02
#       7
#     8   8   8   8   8   8   8
#     4  10  21  41  65  97 132 175 223 276 339 402
#     4  11  26  42  68 100 136 177 225 280 345 404
#     4   9  19  37  64  91 127 173 223 273 329 388
#     4  10  22  45  68  93 135 179 225 268 342 409
#     4  11  24  47  69 100 136 182 233 280 342 408
#     4   9  22  41  66  92 130 179 220 274 338 398
#     4  12  24  40  67 105 136 171 228 288 336 403
#
# _framework density 22.029133000000002
#
# number of rings (size 3 to 8) (size 9 to 14) (size 15 to 20)
#    0.000    1.714    1.429    3.000    8.000    3.429 
#    2.571    0.000    0.000    0.000    0.000    0.000 
#    0.000    0.000    0.000    0.000    0.000    0.000 
#
# Total GULP energy -156221.904990 kJ/mol
# GULP energy per Si atom -5579.353750 kJ/mol
# Density = 2.197899 g / cm^3
# Si number density = 22.029133 Si / 1000 Ang^3
#
#
#
# Elastic Constant Matrix: (Units=GPa)
#
#
# Indices 1 2 3 4 5 6 
#
# 1 93.6331 -17.0441 1.3659 0.0000 -7.4049 0.0000
# 2 -17.0441 121.0526 14.9085 0.0000 9.8419 0.0000
# 3 1.3659 14.9085 33.2149 0.0000 -6.0230 0.0000
# 4 0.0000 0.0000 0.0000 8.5378 0.0000 -13.0572
# 5 -7.4049 9.8419 -6.0230 0.0000 27.5607 0.0000
# 6 0.0000 0.0000 0.0000 -13.0572 0.0000 -16.4477
#
#
#
# Elastic Compliance Matrix: (Units=1/GPa)
#
#
# Indices 1 2 3 4 5 6 
#
# 1 0.011140 0.001466 -0.000696 0.000000 0.002318 0.000000
# 2 0.001466 0.009417 -0.005024 0.000000 -0.004067 0.000000
# 3 -0.000696 -0.005024 0.034031 0.000000 0.009044 0.000000
# 4 0.000000 0.000000 0.000000 0.052901 0.000000 -0.041996
# 5 0.002318 -0.004067 0.009044 0.000000 0.040335 0.000000
# 6 0.000000 0.000000 0.000000 -0.041996 0.000000 -0.027460
#
#
# Mechanical properties :
#
#
# Convention : Reuss Voigt Hill
#
# Bulk Modulus (GPa) = 21.70191 27.37348 24.53769
# Shear Modulus (GPa) = 34.66640 20.50816 27.58728
#
# Velocity S-wave (km/s) = 3.97124 3.05447 3.54264
# Velocity P-wave (km/s) = 5.55883 4.98926 5.28173
#
# Compressibility (1/GPa) = 0.04607889
#
# Stress axis : x y z
#
# Youngs Moduli (GPa) = 89.76465 106.19432 29.38515
#
# Poissons Ratio (x) = -0.15566 0.02045
# Poissons Ratio (y) = -0.13158 0.14764
# Poissons Ratio (z) = 0.06246 0.53357
#
# Static dielectric constant tensor:
#      x y z
#    x 1.921420 0.000000 0.033430 
#    y 0.000000 1.848480 0.000000 
#    z 0.033430 0.000000 1.796280 
# 
# From -- ./inp_files/204364.got.cif
#   From: 2010.05.17/outbox.cif.g08.bks.cpg/sg15_103_cif.got.tgz:204364.got - 2010.06.03 18:47:42.
