data_PCOD9284578
_publ_section_title
;
Structure prediction by ZEFSAII (Michael W. Deem and Ramdas Pophale) SiO2 
 PCOD9284578
Probable space group: C 2/C
;
_chemical_formula_sum "Si O2"
_cell_formula_units_Z 36
_cell_length_a 25.155947
_cell_length_b 4.968762
_cell_length_c 11.625572
_cell_angle_alpha 90.000000
_cell_angle_beta 85.399299
_cell_angle_gamma 90.000000
_cell_volume 1448.443621
_symmetry_space_group_name_H-M "C 2/C"
_symmetry_group_IT_number 15
_symmetry_cell_setting 'monoclinic'
loop_
_space_group_symop_operation_xyz
x,y,z
-x,y,1/2-z
-x,-y,-z
x,-y,1/2+z
1/2+x,1/2+y,z
1/2-x,1/2+y,1/2-z
1/2-x,1/2-y,-z
1/2+x,1/2-y,1/2+z
loop_
_atom_site_type_symbol
_atom_site_label
_atom_site_fract_x
_atom_site_fract_y
_atom_site_fract_z
Si Si1 0.416084 0.009408 0.938875
Si Si2 0.753197 0.075611 0.885900
Si Si3 0.441872 0.495922 0.568411
Si Si4 0.314266 0.937779 0.304425
Si Si5 0.000000 0.285895 0.250000
O O1 0.369843 0.082867 0.858185
O O2 0.470543 0.041352 0.854084
O O3 0.417481 0.215494 0.046004
O O4 0.410444 0.719854 0.997071
O O5 0.697931 0.120745 0.826682
O O6 0.797750 0.249268 0.811496
O O7 0.774549 0.770861 0.878241
O O8 0.750000 0.250000 0.000000
O O9 0.500000 0.500000 0.500000
O O10 0.455221 0.397508 0.694425
#
# Coordination Sequence:
#
# PCOD9284578 Si02
#       5
#     8   8   8   8   4
#     4  11  23  38  59  89 119 154 198 243 287 348
#     4  10  21  41  62  85 119 156 190 242 302 351
#     4  10  22  39  57  82 117 154 198 244 285 339
#     4  10  22  38  60  90 119 149 198 244 287 353
#     4  10  22  40  60  82 118 160 192 234 296 344
#
# _framework density 24.854265000000002
#
# number of rings (size 3 to 8) (size 9 to 14) (size 15 to 20)
#    0.000    1.778    0.000    4.667    0.000   11.556 
#    0.000    0.000    0.000    0.000    0.000    0.000 
#    0.000    0.000    0.000    0.000    0.000    0.000 
#
# Total GULP energy -100529.900078 kJ/mol
# GULP energy per Si atom -5584.994449 kJ/mol
# Density = 2.479770 g / cm^3
# Si number density = 24.854265 Si / 1000 Ang^3
#
#
#
# Elastic Constant Matrix: (Units=GPa)
#
#
# Indices 1 2 3 4 5 6 
#
# 1 68.1289 8.9316 28.6427 0.0000 33.6064 0.0000
# 2 8.9316 103.2711 3.6734 0.0000 0.9775 0.0000
# 3 28.6427 3.6734 93.7544 0.0000 33.8512 0.0000
# 4 0.0000 0.0000 0.0000 21.3953 0.0000 17.3389
# 5 33.6064 0.9775 33.8512 0.0000 44.6143 0.0000
# 6 0.0000 0.0000 0.0000 17.3389 0.0000 16.8853
#
#
#
# Elastic Compliance Matrix: (Units=1/GPa)
#
#
# Indices 1 2 3 4 5 6 
#
# 1 0.023787 -0.001859 -0.001019 0.000000 -0.017105 0.000000
# 2 -0.001859 0.009842 -0.000338 0.000000 0.001441 0.000000
# 3 -0.001019 -0.000338 0.014752 0.000000 -0.010419 0.000000
# 4 0.000000 0.000000 0.000000 0.278504 0.000000 -0.285986
# 5 -0.017105 0.001441 -0.010419 0.000000 0.043172 0.000000
# 6 0.000000 0.000000 0.000000 -0.285986 0.000000 0.352892
#
#
# Mechanical properties :
#
#
# Convention : Reuss Voigt Hill
#
# Bulk Modulus (GPa) = 23.83752 38.62774 31.23263
# Shear Modulus (GPa) = 6.72617 31.50609 19.11613
#
# Velocity S-wave (km/s) = 1.64685 3.56425 2.77633
# Velocity P-wave (km/s) = 3.63702 5.70210 4.78235
#
# Compressibility (1/GPa) = 0.04195068
#
# Stress axis : x y z
#
# Youngs Moduli (GPa) = 42.03927 101.60098 67.78547
#
# Poissons Ratio (x) = 0.18889 0.06904
# Poissons Ratio (y) = 0.07816 0.02291
# Poissons Ratio (z) = 0.04282 0.03435
#
# Static dielectric constant tensor:
#      x y z
#    x 2.054930 0.000000 -0.044520 
#    y 0.000000 1.861520 0.000000 
#    z -0.044520 0.000000 2.055080 
# 
# From -- ./inp_files/115604.got.cif
#   From: 2010.05.17/outbox.cif.g08.bks.cpg/sg15_58_cif.got.tgz:115604.got - 2010.06.03 18:47:42.
