data_PCOD9284526
_publ_section_title
;
Structure prediction by ZEFSAII (Michael W. Deem and Ramdas Pophale) SiO2 
 PCOD9284526
Probable space group: C 2/C
;
_chemical_formula_sum "Si O2"
_cell_formula_units_Z 52
_cell_length_a 18.322876
_cell_length_b 11.478792
_cell_length_c 20.933914
_cell_angle_alpha 90.000000
_cell_angle_beta 142.300923
_cell_angle_gamma 90.000000
_cell_volume 2692.445230
_symmetry_space_group_name_H-M "C 2/C"
_symmetry_group_IT_number 15
_symmetry_cell_setting 'monoclinic'
loop_
_space_group_symop_operation_xyz
x,y,z
-x,y,1/2-z
-x,-y,-z
x,-y,1/2+z
1/2+x,1/2+y,z
1/2-x,1/2+y,1/2-z
1/2-x,1/2-y,-z
1/2+x,1/2-y,1/2+z
loop_
_atom_site_type_symbol
_atom_site_label
_atom_site_fract_x
_atom_site_fract_y
_atom_site_fract_z
Si Si1 0.681681 0.819553 0.279759
Si Si2 0.855653 0.617463 0.430858
Si Si3 0.793519 0.968886 0.559558
Si Si4 0.637963 0.967523 0.828461
Si Si5 0.863351 0.371230 0.391947
Si Si6 0.714526 0.283268 0.403212
Si Si7 0.500000 0.304085 0.750000
O O1 0.793694 0.740478 0.376469
O O2 0.675032 0.809384 0.199326
O O3 0.573769 0.766595 0.247635
O O4 0.678190 0.955477 0.296213
O O5 0.817212 0.579045 0.475189
O O6 0.814289 0.504496 0.361136
O O7 0.994688 0.625234 0.514542
O O8 0.901353 0.878848 0.642689
O O9 0.732967 0.994606 0.449415
O O10 0.840782 0.089035 0.624252
O O11 0.500000 0.994057 0.750000
O O12 0.645215 0.827637 0.827468
O O13 0.821058 0.307947 0.427143
O O14 0.750000 0.250000 0.500000
#
# Coordination Sequence:
#
# PCOD9284526 Si02
#       7
#     8   8   8   8   8   8   4
#     4  11  23  36  60  96 118 162 203 250 310 357
#     4   9  21  39  62  83 119 164 197 247 306 363
#     4   9  20  40  63  89 121 164 207 248 304 367
#     4  11  22  37  62  93 123 158 207 256 305 366
#     4  10  21  41  61  84 123 157 204 251 308 370
#     4   9  21  42  62  88 117 162 209 251 307 365
#     4  10  22  38  62  92 126 164 208 252 308 362
#
# _framework density 19.313298
#
# number of rings (size 3 to 8) (size 9 to 14) (size 15 to 20)
#    0.000    2.154    0.769    0.923    5.385    2.462 
#    0.000    3.846    0.000    0.000    0.000    0.000 
#    0.000    0.000    0.000    0.000    0.000    0.000 
#
# Total GULP energy -144747.617141 kJ/mol
# GULP energy per Si atom -5567.216044 kJ/mol
# Density = 1.926934 g / cm^3
# Si number density = 19.313298 Si / 1000 Ang^3
#
#
#
# Elastic Constant Matrix: (Units=GPa)
#
#
# Indices 1 2 3 4 5 6 
#
# 1 49.0427 5.7456 11.8037 0.0000 -5.3100 0.0000
# 2 5.7456 71.9419 9.0680 0.0000 4.0212 0.0000
# 3 11.8037 9.0680 35.6253 0.0000 0.2620 0.0000
# 4 0.0000 0.0000 0.0000 13.9492 0.0000 -12.5049
# 5 -5.3100 4.0212 0.2620 0.0000 25.4569 0.0000
# 6 0.0000 0.0000 0.0000 -12.5049 0.0000 -1.5789
#
#
#
# Elastic Compliance Matrix: (Units=1/GPa)
#
#
# Indices 1 2 3 4 5 6 
#
# 1 0.022830 -0.001184 -0.007300 0.000000 0.005024 0.000000
# 2 -0.001184 0.014550 -0.003293 0.000000 -0.002511 0.000000
# 3 -0.007300 -0.003293 0.031336 0.000000 -0.001325 0.000000
# 4 0.000000 0.000000 0.000000 0.008851 0.000000 -0.070096
# 5 0.005024 -0.002511 -0.001325 0.000000 0.040740 0.000000
# 6 0.000000 0.000000 0.000000 -0.070096 0.000000 -0.078192
#
#
# Mechanical properties :
#
#
# Convention : Reuss Voigt Hill
#
# Bulk Modulus (GPa) = 22.14188 23.31608 22.72898
# Shear Modulus (GPa) = 63.51332 16.23159 39.87245
#
# Velocity S-wave (km/s) = 5.74084 2.90217 4.54861
# Velocity P-wave (km/s) = 7.44529 4.83000 6.27540
#
# Compressibility (1/GPa) = 0.04516328
#
# Stress axis : x y z
#
# Youngs Moduli (GPa) = 43.80191 68.72807 31.91171
#
# Poissons Ratio (x) = 0.08138 0.23295
# Poissons Ratio (y) = 0.05186 0.10508
# Poissons Ratio (z) = 0.31975 0.22631
#
# Static dielectric constant tensor:
#      x y z
#    x 1.647040 0.000000 -0.015280 
#    y 0.000000 1.741030 0.000000 
#    z -0.015280 0.000000 1.651150 
# 
# From -- ./inp_files/248665.got.cif
#   From: 2010.05.17/outbox.cif.g08.bks.cpg/sg15_125_cif.got.tgz:248665.got - 2010.06.03 18:47:42.
