data_PCOD9284731
_publ_section_title
;
Structure prediction by ZEFSAII (Michael W. Deem and Ramdas Pophale) SiO2 
 PCOD9284731
Probable space group: C 2/C
;
_chemical_formula_sum "Si O2"
_cell_formula_units_Z 40
_cell_length_a 12.151476
_cell_length_b 6.827530
_cell_length_c 18.779980
_cell_angle_alpha 90.000000
_cell_angle_beta 88.062124
_cell_angle_gamma 90.000000
_cell_volume 1557.181815
_symmetry_space_group_name_H-M "C 2/C"
_symmetry_group_IT_number 15
_symmetry_cell_setting 'monoclinic'
loop_
_space_group_symop_operation_xyz
x,y,z
-x,y,1/2-z
-x,-y,-z
x,-y,1/2+z
1/2+x,1/2+y,z
1/2-x,1/2+y,1/2-z
1/2-x,1/2-y,-z
1/2+x,1/2-y,1/2+z
loop_
_atom_site_type_symbol
_atom_site_label
_atom_site_fract_x
_atom_site_fract_y
_atom_site_fract_z
Si Si1 0.032918 0.372042 0.167298
Si Si2 0.733675 0.556472 0.307851
Si Si3 0.694698 0.005813 0.349656
Si Si4 0.962353 0.034511 0.603808
Si Si5 0.173490 0.076661 0.529777
O O1 0.154339 0.460759 0.165953
O O2 0.000000 0.321263 0.250000
O O3 0.936630 0.522750 0.146927
O O4 0.015785 0.179307 0.120485
O O5 0.715083 0.770376 0.341323
O O6 0.748639 0.583642 0.223043
O O7 0.624363 0.433721 0.330370
O O8 0.751208 0.060147 0.422090
O O9 0.884936 0.022371 0.536219
O O10 0.071444 0.152002 0.580576
O O11 0.250000 0.250000 0.500000
#
# Coordination Sequence:
#
# PCOD9284731 Si02
#       5
#     8   8   8   8   8
#     4   9  19  38  63  88 125 156 200 260 310 358
#     4  10  21  41  63  99 121 162 215 254 312 373
#     4  10  22  40  67  90 130 163 204 264 310 367
#     4  10  23  40  65  88 122 170 209 251 314 373
#     4  11  21  42  64  87 129 169 203 256 317 368
#
# _framework density 25.687429000000002
#
# number of rings (size 3 to 8) (size 9 to 14) (size 15 to 20)
#    0.000    2.000    4.000    0.000    8.400    0.000 
#   10.800    8.000    0.000    0.000    0.000    0.000 
#    0.000    0.000    0.000    0.000    0.000    0.000 
#
# Total GULP energy -111951.442197 kJ/mol
# GULP energy per Si atom -5597.572110 kJ/mol
# Density = 2.562896 g / cm^3
# Si number density = 25.687429 Si / 1000 Ang^3
#
#
#
# Elastic Constant Matrix: (Units=GPa)
#
#
# Indices 1 2 3 4 5 6 
#
# 1 177.5317 46.9492 0.1928 0.0000 -20.8337 0.0000
# 2 46.9492 72.8653 13.9337 0.0000 -13.0036 0.0000
# 3 0.1928 13.9337 31.1226 0.0000 13.6237 0.0000
# 4 0.0000 0.0000 0.0000 19.3909 0.0000 -7.6860
# 5 -20.8337 -13.0036 13.6237 0.0000 68.5710 0.0000
# 6 0.0000 0.0000 0.0000 -7.6860 0.0000 49.8784
#
#
#
# Elastic Compliance Matrix: (Units=1/GPa)
#
#
# Indices 1 2 3 4 5 6 
#
# 1 0.006964 -0.004637 0.001634 0.000000 0.000912 0.000000
# 2 -0.004637 0.019535 -0.010648 0.000000 0.004411 0.000000
# 3 0.001634 -0.010648 0.041132 0.000000 -0.009695 0.000000
# 4 0.000000 0.000000 0.000000 0.054925 0.000000 0.008464
# 5 0.000912 0.004411 -0.009695 0.000000 0.017623 0.000000
# 6 0.000000 0.000000 0.000000 0.008464 0.000000 0.021353
#
#
# Mechanical properties :
#
#
# Convention : Reuss Voigt Hill
#
# Bulk Modulus (GPa) = 24.79650 44.85236 34.82443
# Shear Modulus (GPa) = 24.71829 42.26430 33.49130
#
# Velocity S-wave (km/s) = 3.10542 4.06067 3.61474
# Velocity P-wave (km/s) = 4.74682 6.28364 5.56850
#
# Compressibility (1/GPa) = 0.04032827
#
# Stress axis : x y z
#
# Youngs Moduli (GPa) = 143.58920 51.18975 24.31192
#
# Poissons Ratio (x) = 0.23736 -0.03972
# Poissons Ratio (y) = 0.66581 0.25888
# Poissons Ratio (z) = -0.23457 0.54508
#
# Static dielectric constant tensor:
#      x y z
#    x 2.023580 0.000000 -0.001060 
#    y 0.000000 2.135280 0.000000 
#    z -0.001060 0.000000 2.032950 
# 
# From -- ./inp_files/235703.got.cif
#   From: 2010.05.17/outbox.cif.g08.bks.cpg/sg15_118_cif.got.tgz:235703.got - 2010.06.03 18:47:42.
