data_PCOD9284335
_publ_section_title
;
Structure prediction by ZEFSAII (Michael W. Deem and Ramdas Pophale) SiO2 
 PCOD9284335
Probable space group: C 2/C
;
_chemical_formula_sum "Si O2"
_cell_formula_units_Z 44
_cell_length_a 9.485775
_cell_length_b 19.490998
_cell_length_c 12.988036
_cell_angle_alpha 90.000000
_cell_angle_beta 70.047749
_cell_angle_gamma 90.000000
_cell_volume 2257.188129
_symmetry_space_group_name_H-M "C 2/C"
_symmetry_group_IT_number 15
_symmetry_cell_setting 'monoclinic'
loop_
_space_group_symop_operation_xyz
x,y,z
-x,y,1/2-z
-x,-y,-z
x,-y,1/2+z
1/2+x,1/2+y,z
1/2-x,1/2+y,1/2-z
1/2-x,1/2-y,-z
1/2+x,1/2-y,1/2+z
loop_
_atom_site_type_symbol
_atom_site_label
_atom_site_fract_x
_atom_site_fract_y
_atom_site_fract_z
Si Si1 0.038310 0.483070 0.105409
Si Si2 0.230732 0.018173 0.301925
Si Si3 0.906929 0.789696 0.971041
Si Si4 0.500000 0.379200 0.750000
Si Si5 0.619524 0.369059 0.307454
Si Si6 0.448002 0.830283 0.154212
O O1 0.191084 0.520651 0.104324
O O2 0.886829 0.505394 0.202345
O O3 0.045274 0.400094 0.115976
O O4 0.000000 0.500000 0.000000
O O5 0.132667 0.076396 0.271739
O O6 0.129302 0.950268 0.325936
O O7 0.932775 0.837117 0.864037
O O8 0.027129 0.727559 0.936629
O O9 0.750000 0.750000 0.000000
O O10 0.907824 0.830774 0.077793
O O11 0.500000 0.352964 0.250000
O O12 0.778081 0.350224 0.216340
O O13 0.500000 0.799279 0.250000
#
# Coordination Sequence:
#
# PCOD9284335 Si02
#       6
#     8   8   8   4   8   8
#     4  10  21  40  69  92 126 172 212 265 326 383
#     4  10  22  40  60 101 128 160 215 270 321 389
#     4  12  24  43  69  90 129 182 216 264 326 397
#     4  12  26  38  70 102 130 162 226 272 326 392
#     4  11  23  42  65  95 135 168 211 276 334 379
#     4  11  20  43  66  91 124 173 223 250 322 408
#
# _framework density 19.493279000000001
#
# number of rings (size 3 to 8) (size 9 to 14) (size 15 to 20)
#    0.000    1.091    7.273    0.000    5.091    4.364 
#    0.000    1.818    0.000    0.000    0.000    0.000 
#    0.000    0.000    0.000    0.000    0.000    0.000 
#
# Total GULP energy -122620.482629 kJ/mol
# GULP energy per Si atom -5573.658301 kJ/mol
# Density = 1.944891 g / cm^3
# Si number density = 19.493279 Si / 1000 Ang^3
#
#
#
# Elastic Constant Matrix: (Units=GPa)
#
#
# Indices 1 2 3 4 5 6 
#
# 1 120.5637 52.5654 46.1558 0.0000 25.4816 0.0000
# 2 52.5654 102.8325 53.8189 0.0000 3.9247 0.0000
# 3 46.1558 53.8189 100.9751 0.0000 24.0571 0.0000
# 4 0.0000 0.0000 0.0000 12.2053 0.0000 -1.4188
# 5 25.4816 3.9247 24.0571 0.0000 31.9125 0.0000
# 6 0.0000 0.0000 0.0000 -1.4188 0.0000 8.6819
#
#
#
# Elastic Compliance Matrix: (Units=1/GPa)
#
#
# Indices 1 2 3 4 5 6 
#
# 1 0.013116 -0.006065 -0.000543 0.000000 -0.009318 0.000000
# 2 -0.006065 0.016864 -0.008381 0.000000 0.009087 0.000000
# 3 -0.000543 -0.008381 0.017394 0.000000 -0.011648 0.000000
# 4 0.000000 0.000000 0.000000 0.083518 0.000000 0.013648
# 5 -0.009318 0.009087 -0.011648 0.000000 0.046439 0.000000
# 6 0.000000 0.000000 0.000000 0.013648 0.000000 0.117412
#
#
# Mechanical properties :
#
#
# Convention : Reuss Voigt Hill
#
# Bulk Modulus (GPa) = 57.48377 69.93905 63.71141
# Shear Modulus (GPa) = 15.12771 22.01536 18.57153
#
# Velocity S-wave (km/s) = 2.78878 3.36427 3.08996
# Velocity P-wave (km/s) = 6.31845 7.14476 6.74427
#
# Compressibility (1/GPa) = 0.01739621
#
# Stress axis : x y z
#
# Youngs Moduli (GPa) = 76.24475 59.29686 57.49158
#
# Poissons Ratio (x) = 0.35961 0.03121
# Poissons Ratio (y) = 0.46240 0.48185
# Poissons Ratio (z) = 0.04139 0.49698
#
# Static dielectric constant tensor:
#      x y z
#    x 1.701560 0.000000 0.049640 
#    y 0.000000 1.740470 0.000000 
#    z 0.049640 0.000000 1.560340 
# 
# From -- ./inp_files/78137.got.cif
#   From: 2010.05.17/outbox.cif.g08.bks.cpg/sg15_40_cif.got.tgz:78137.got - 2010.06.03 18:47:42.
