data_PCOD9284245
_publ_section_title
;
Structure prediction by ZEFSAII (Michael W. Deem and Ramdas Pophale) SiO2 
 PCOD9284245
Probable space group: C 2/C
;
_chemical_formula_sum "Si O2"
_cell_formula_units_Z 40
_cell_length_a 10.225553
_cell_length_b 14.355209
_cell_length_c 17.967938
_cell_angle_alpha 90.000000
_cell_angle_beta 41.073787
_cell_angle_gamma 90.000000
_cell_volume 1732.926094
_symmetry_space_group_name_H-M "C 2/C"
_symmetry_group_IT_number 15
_symmetry_cell_setting 'monoclinic'
loop_
_space_group_symop_operation_xyz
x,y,z
-x,y,1/2-z
-x,-y,-z
x,-y,1/2+z
1/2+x,1/2+y,z
1/2-x,1/2+y,1/2-z
1/2-x,1/2-y,-z
1/2+x,1/2-y,1/2+z
loop_
_atom_site_type_symbol
_atom_site_label
_atom_site_fract_x
_atom_site_fract_y
_atom_site_fract_z
Si Si1 0.631720 0.838003 0.022299
Si Si2 0.004948 0.031020 0.158243
Si Si3 0.106069 0.370645 0.782019
Si Si4 0.648278 0.826373 0.489326
Si Si5 0.197144 0.847332 0.236213
O O1 0.784764 0.923677 0.953218
O O2 0.543496 0.803402 0.980109
O O3 0.068571 0.640244 0.845119
O O4 0.750000 0.750000 0.000000
O O5 0.000000 0.040540 0.250000
O O6 0.823645 0.088891 0.200464
O O7 0.936913 0.925552 0.167743
O O8 0.950762 0.399957 0.912617
O O9 0.000000 0.390579 0.750000
O O10 0.135665 0.258706 0.775721
O O11 0.750000 0.750000 0.500000
O O12 0.789947 0.857455 0.360239
#
# Coordination Sequence:
#
# PCOD9284245 Si02
#       5
#     8   8   8   8   8
#     4  10  21  43  71 103 138 190 242 292 356 431
#     4  12  23  41  71 101 138 188 240 290 355 434
#     4  12  22  42  68  99 142 193 236 295 365 425
#     4  10  21  40  68 103 135 186 231 288 361 422
#     4  10  24  42  71 103 143 182 241 299 354 429
#
# _framework density 23.082345
#
# number of rings (size 3 to 8) (size 9 to 14) (size 15 to 20)
#    1.200    0.000    6.000    0.600    0.000    3.200 
#    0.000    3.000    0.000    4.800    0.000    0.000 
#    0.000    0.000    0.000    0.000    0.000    0.000 
#
# Total GULP energy -111454.856084 kJ/mol
# GULP energy per Si atom -5572.742804 kJ/mol
# Density = 2.302981 g / cm^3
# Si number density = 23.082345 Si / 1000 Ang^3
#
#
#
# Elastic Constant Matrix: (Units=GPa)
#
#
# Indices 1 2 3 4 5 6 
#
# 1 131.8070 40.7955 27.6818 0.0000 -34.6517 0.0000
# 2 40.7955 120.0162 44.8051 0.0008 -31.3387 -0.0002
# 3 27.6818 44.8051 95.0489 0.0009 -22.3028 -0.0003
# 4 0.0000 0.0008 0.0009 39.2421 -0.0003 -10.5542
# 5 -34.6517 -31.3387 -22.3028 -0.0003 46.0976 0.0000
# 6 0.0000 -0.0002 -0.0003 -10.5542 0.0000 17.4781
#
#
#
# Elastic Compliance Matrix: (Units=1/GPa)
#
#
# Indices 1 2 3 4 5 6 
#
# 1 0.009774 -0.001483 -0.000745 0.000000 0.005979 0.000000
# 2 -0.001483 0.011552 -0.003872 0.000000 0.004865 0.000000
# 3 -0.000745 -0.003872 0.013327 0.000000 0.003256 0.000000
# 4 0.000000 0.000000 0.000000 0.030424 0.000000 0.018371
# 5 0.005979 0.004865 0.003256 0.000000 0.031070 0.000000
# 6 0.000000 0.000000 0.000000 0.018371 0.000000 0.068308
#
#
# Mechanical properties :
#
#
# Convention : Reuss Voigt Hill
#
# Bulk Modulus (GPa) = 44.53618 63.71521 54.12570
# Shear Modulus (GPa) = 27.15330 36.13622 31.64476
#
# Velocity S-wave (km/s) = 3.43354 3.96098 3.70665
# Velocity P-wave (km/s) = 5.92075 6.97011 6.46675
#
# Compressibility (1/GPa) = 0.02245366
#
# Stress axis : x y z
#
# Youngs Moduli (GPa) = 102.31170 86.56224 75.03606
#
# Poissons Ratio (x) = 0.12840 0.05587
# Poissons Ratio (y) = 0.15176 0.29054
# Poissons Ratio (z) = 0.07617 0.33517
#
# Static dielectric constant tensor:
#      x y z
#    x 1.877940 0.000000 0.070930 
#    y 0.000000 1.937540 0.000000 
#    z 0.070930 0.000000 1.938770 
# 
# From -- ./inp_files/264104.got.cif
#   From: 2010.05.17/outbox.cif.g08.bks.cpg/sg15_133_cif.got.tgz:264104.got - 2010.06.03 18:47:42.
