data_PCOD9284973
_publ_section_title
;
Structure prediction by ZEFSAII (Michael W. Deem and Ramdas Pophale) SiO2 
 PCOD9284973
Probable space group: C 2/C
;
_chemical_formula_sum "Si O2"
_cell_formula_units_Z 40
_cell_length_a 7.396229
_cell_length_b 24.472990
_cell_length_c 13.020315
_cell_angle_alpha 90.000000
_cell_angle_beta 50.059389
_cell_angle_gamma 90.000000
_cell_volume 1806.966796
_symmetry_space_group_name_H-M "C 2/C"
_symmetry_group_IT_number 15
_symmetry_cell_setting 'monoclinic'
loop_
_space_group_symop_operation_xyz
x,y,z
-x,y,1/2-z
-x,-y,-z
x,-y,1/2+z
1/2+x,1/2+y,z
1/2-x,1/2+y,1/2-z
1/2-x,1/2-y,-z
1/2+x,1/2-y,1/2+z
loop_
_atom_site_type_symbol
_atom_site_label
_atom_site_fract_x
_atom_site_fract_y
_atom_site_fract_z
Si Si1 0.211735 0.001331 0.087038
Si Si2 0.924509 0.802155 0.524778
Si Si3 0.252699 0.787592 0.691133
Si Si4 0.276472 0.121957 0.018693
Si Si5 0.285426 0.619693 0.902747
O O1 0.000000 0.002779 0.250000
O O2 0.180567 0.939860 0.057012
O O3 0.181883 0.060238 0.045167
O O4 0.500000 0.000000 0.000000
O O5 0.046328 0.749662 0.430626
O O6 0.137668 0.839537 0.491585
O O7 0.762553 0.789126 0.681326
O O8 0.783617 0.836459 0.492825
O O9 0.250756 0.847847 0.639464
O O10 0.000000 0.762538 0.750000
O O11 0.558455 0.119234 0.911364
O O12 0.500000 0.631980 0.750000
#
# Coordination Sequence:
#
# PCOD9284973 Si02
#       5
#     8   8   8   8   8
#     4   9  18  38  64  94 131 168 216 274 331 391
#     4  11  24  41  64  91 130 166 218 262 324 393
#     4  10  22  40  63  94 122 173 212 262 325 389
#     4  10  21  41  66  88 129 171 208 268 326 387
#     4  10  24  39  61  97 126 164 215 267 325 388
#
# _framework density 22.136545000000002
#
# number of rings (size 3 to 8) (size 9 to 14) (size 15 to 20)
#    0.000    2.000    0.000    4.200    5.600    2.400 
#    0.000    0.000    0.000   12.000    0.000    0.000 
#    0.000    0.000    0.000    0.000    0.000    0.000 
#
# Total GULP energy -111488.481897 kJ/mol
# GULP energy per Si atom -5574.424095 kJ/mol
# Density = 2.208616 g / cm^3
# Si number density = 22.136545 Si / 1000 Ang^3
#
#
#
# Elastic Constant Matrix: (Units=GPa)
#
#
# Indices 1 2 3 4 5 6 
#
# 1 92.2224 45.3268 34.2243 0.0000 -10.1358 0.0000
# 2 45.3268 130.9695 28.2349 0.0000 9.0081 0.0000
# 3 34.2243 28.2349 57.6382 0.0000 -12.2282 0.0000
# 4 0.0000 0.0000 0.0000 19.3443 0.0000 -15.9180
# 5 -10.1358 9.0081 -12.2282 0.0000 35.4123 0.0000
# 6 0.0000 0.0000 0.0000 -15.9180 0.0000 23.5716
#
#
#
# Elastic Compliance Matrix: (Units=1/GPa)
#
#
# Indices 1 2 3 4 5 6 
#
# 1 0.015734 -0.004262 -0.006549 0.000000 0.003326 0.000000
# 2 -0.004262 0.010222 -0.003547 0.000000 -0.005045 0.000000
# 3 -0.006549 -0.003547 0.024569 0.000000 0.007512 0.000000
# 4 0.000000 0.000000 0.000000 0.116350 0.000000 0.078572
# 5 0.003326 -0.005045 0.007512 0.000000 0.033068 0.000000
# 6 0.000000 0.000000 0.000000 0.078572 0.000000 0.095484
#
#
# Mechanical properties :
#
#
# Convention : Reuss Voigt Hill
#
# Bulk Modulus (GPa) = 45.85191 55.15579 50.50385
# Shear Modulus (GPa) = 15.08685 27.20190 21.14438
#
# Velocity S-wave (km/s) = 2.61346 3.50926 3.09395
# Velocity P-wave (km/s) = 5.46489 6.43352 5.96889
#
# Compressibility (1/GPa) = 0.02180934
#
# Stress axis : x y z
#
# Youngs Moduli (GPa) = 63.55576 97.82663 40.70096
#
# Poissons Ratio (x) = 0.41697 0.26655
# Poissons Ratio (y) = 0.27090 0.14436
# Poissons Ratio (z) = 0.41623 0.34698
#
# Static dielectric constant tensor:
#      x y z
#    x 1.848250 0.000000 -0.119810 
#    y 0.000000 1.829150 0.000000 
#    z -0.119810 0.000000 2.854910 
# 
# From -- ./inp_files/137082.got.cif
#   From: 2010.05.17/outbox.cif.g08.bks.cpg/sg15_69_cif.got.tgz:137082.got - 2010.06.03 18:47:42.
