data_PCOD9284531
_publ_section_title
;
Structure prediction by ZEFSAII (Michael W. Deem and Ramdas Pophale) SiO2 
 PCOD9284531
Probable space group: C 2/C
;
_chemical_formula_sum "Si O2"
_cell_formula_units_Z 48
_cell_length_a 15.607287
_cell_length_b 11.664097
_cell_length_c 28.016447
_cell_angle_alpha 90.000000
_cell_angle_beta 148.518179
_cell_angle_gamma 90.000000
_cell_volume 2663.494221
_symmetry_space_group_name_H-M "C 2/C"
_symmetry_group_IT_number 15
_symmetry_cell_setting 'monoclinic'
loop_
_space_group_symop_operation_xyz
x,y,z
-x,y,1/2-z
-x,-y,-z
x,-y,1/2+z
1/2+x,1/2+y,z
1/2-x,1/2+y,1/2-z
1/2-x,1/2-y,-z
1/2+x,1/2-y,1/2+z
loop_
_atom_site_type_symbol
_atom_site_label
_atom_site_fract_x
_atom_site_fract_y
_atom_site_fract_z
Si Si1 0.953794 0.982675 0.898825
Si Si2 0.478291 0.256308 0.396638
Si Si3 0.254978 0.988762 0.607330
Si Si4 0.322891 0.751481 0.607303
Si Si5 0.500000 0.812548 0.250000
Si Si6 0.000000 0.059382 0.750000
Si Si7 0.140872 0.127936 0.245417
O O1 0.908500 0.114659 0.865996
O O2 0.850964 0.951841 0.896946
O O3 0.921351 0.904830 0.837268
O O4 0.140062 0.986399 0.006786
O O5 0.573501 0.250177 0.392010
O O6 0.626852 0.244740 0.505059
O O7 0.331612 0.165899 0.333023
O O8 0.353270 0.102688 0.666231
O O9 0.359651 0.876640 0.645741
O O10 0.378126 0.644103 0.664487
O O11 0.548543 0.732537 0.228312
O O12 0.098765 0.979748 0.759617
#
# Coordination Sequence:
#
# PCOD9284531 Si02
#       7
#     8   8   8   8   4   4   8
#     4  10  21  41  61  87 120 156 196 243 296 347
#     4  10  21  41  61  87 120 156 196 243 296 347
#     4  10  22  39  64  88 117 156 201 244 285 350
#     4  10  22  39  64  88 117 156 201 244 285 350
#     4  11  23  40  58  90 123 157 196 238 298 353
#     4  11  23  40  58  90 123 157 196 238 298 353
#     4  11  24  38  61  86 126 158 187 248 298 351
#
# _framework density 18.021439999999998
#
# number of rings (size 3 to 8) (size 9 to 14) (size 15 to 20)
#    0.000    1.667    3.333    0.500    4.667    1.333 
#    0.000    0.000    7.333    0.000    0.000    0.000 
#    0.000    0.000    0.000    0.000    0.000    0.000 
#
# Total GULP energy -133810.236657 kJ/mol
# GULP energy per Si atom -5575.426527 kJ/mol
# Density = 1.798042 g / cm^3
# Si number density = 18.021440 Si / 1000 Ang^3
#
#
#
# Elastic Constant Matrix: (Units=GPa)
#
#
# Indices 1 2 3 4 5 6 
#
# 1 72.3268 31.8026 40.2624 0.0000 -17.8270 0.0000
# 2 31.8026 111.6097 53.9770 0.0000 -21.2015 0.0000
# 3 40.2624 53.9770 107.6463 0.0002 -16.2664 -0.0001
# 4 0.0000 0.0000 0.0002 25.3413 0.0000 -7.9189
# 5 -17.8270 -21.2015 -16.2664 0.0000 19.2076 0.0000
# 6 0.0000 0.0000 -0.0001 -7.9189 0.0000 6.0905
#
#
#
# Elastic Compliance Matrix: (Units=1/GPa)
#
#
# Indices 1 2 3 4 5 6 
#
# 1 0.020428 -0.000678 -0.005216 0.000000 0.013794 0.000000
# 2 -0.000678 0.013466 -0.004986 0.000000 0.010013 0.000000
# 3 -0.005216 -0.004986 0.013965 0.000000 0.001482 0.000000
# 4 0.000000 0.000000 0.000000 0.066466 0.000000 0.086420
# 5 0.013794 0.010013 0.001482 0.000000 0.077172 0.000000
# 6 0.000000 0.000000 0.000000 0.086420 0.000000 0.276552
#
#
# Mechanical properties :
#
#
# Convention : Reuss Voigt Hill
#
# Bulk Modulus (GPa) = 38.31579 60.40742 49.36161
# Shear Modulus (GPa) = 10.02991 21.16392 15.59692
#
# Velocity S-wave (km/s) = 2.36170 3.43063 2.94507
# Velocity P-wave (km/s) = 5.36136 7.02032 6.24616
#
# Compressibility (1/GPa) = 0.02609890
#
# Stress axis : x y z
#
# Youngs Moduli (GPa) = 48.95280 74.25995 71.60959
#
# Poissons Ratio (x) = 0.05033 0.37353
# Poissons Ratio (y) = 0.03318 0.35703
# Poissons Ratio (z) = 0.25535 0.37025
#
# Static dielectric constant tensor:
#      x y z
#    x 1.617590 0.000000 0.010660 
#    y 0.000000 1.601330 0.000000 
#    z 0.010660 0.000000 1.642880 
# 
# From -- ./inp_files/151878.got.cif
#   From: 2010.05.17/outbox.cif.g08.bks.cpg/sg15_76_cif.got.tgz:151878.got - 2010.06.03 18:47:42.
