data_PCOD9284783
_publ_section_title
;
Structure prediction by ZEFSAII (Michael W. Deem and Ramdas Pophale) SiO2 
 PCOD9284783
Probable space group: C 2/C
;
_chemical_formula_sum "Si O2"
_cell_formula_units_Z 64
_cell_length_a 25.705360
_cell_length_b 11.203661
_cell_length_c 12.213621
_cell_angle_alpha 90.000000
_cell_angle_beta 107.635227
_cell_angle_gamma 90.000000
_cell_volume 3352.147177
_symmetry_space_group_name_H-M "C 2/C"
_symmetry_group_IT_number 15
_symmetry_cell_setting 'monoclinic'
loop_
_space_group_symop_operation_xyz
x,y,z
-x,y,1/2-z
-x,-y,-z
x,-y,1/2+z
1/2+x,1/2+y,z
1/2-x,1/2+y,1/2-z
1/2-x,1/2-y,-z
1/2+x,1/2-y,1/2+z
loop_
_atom_site_type_symbol
_atom_site_label
_atom_site_fract_x
_atom_site_fract_y
_atom_site_fract_z
Si Si1 0.064311 0.806911 0.779489
Si Si2 0.820733 0.571991 0.349788
Si Si3 0.994977 0.641154 0.375768
Si Si4 0.902337 0.216893 0.948841
Si Si5 0.226423 0.839911 0.636496
Si Si6 0.737936 0.413707 0.395562
Si Si7 0.363250 0.513596 0.301524
Si Si8 0.425708 0.091421 0.883944
O O1 0.092438 0.922443 0.745273
O O2 0.075371 0.697526 0.703856
O O3 0.000000 0.823701 0.750000
O O4 0.086107 0.781580 0.914916
O O5 0.851667 0.694635 0.394805
O O6 0.778512 0.595213 0.224378
O O7 0.781322 0.521139 0.419020
O O8 0.868004 0.475375 0.357876
O O9 0.953499 0.729265 0.413255
O O10 0.968049 0.509449 0.367906
O O11 0.000000 0.670995 0.250000
O O12 0.050543 0.635157 0.483148
O O13 0.888747 0.084867 0.897750
O O14 0.235579 0.698583 0.650612
O O15 0.225492 0.874087 0.509547
O O16 0.171243 0.885951 0.656348
O O17 0.682184 0.449486 0.301654
#
# Coordination Sequence:
#
# PCOD9284783 Si02
#       8
#     8   8   8   8   8   8   8   8
#     4  12  25  44  68  90 130 175 216 272 321 389
#     4  10  22  37  65  97 126 166 207 267 321 387
#     4  10  22  40  66  92 130 172 214 275 318 379
#     4  11  24  44  62  96 130 168 223 269 321 390
#     4  10  21  41  64  92 128 166 211 259 322 392
#     4  10  21  41  64  93 126 166 208 264 322 386
#     4  11  24  44  62  94 126 169 216 269 321 384
#     4  10  22  40  63 100 129 165 221 261 329 382
#
# _framework density 19.09224
#
# number of rings (size 3 to 8) (size 9 to 14) (size 15 to 20)
#    0.000    1.500    2.500    1.875    5.250    2.000 
#    4.500    1.875    0.000    0.000    0.000    0.000 
#    0.000    0.000    0.000    0.000    0.000    0.000 
#
# Total GULP energy -178732.871809 kJ/mol
# GULP energy per Si atom -5585.402244 kJ/mol
# Density = 1.904878 g / cm^3
# Si number density = 19.092240 Si / 1000 Ang^3
#
#
#
# Elastic Constant Matrix: (Units=GPa)
#
#
# Indices 1 2 3 4 5 6 
#
# 1 48.7296 28.6179 39.6003 0.0000 3.1955 0.0000
# 2 28.6179 78.1260 36.3711 0.0000 0.1812 0.0000
# 3 39.6003 36.3711 113.9828 0.0000 -10.8482 0.0000
# 4 0.0000 0.0000 0.0000 28.2458 0.0000 -3.3533
# 5 3.1955 0.1812 -10.8482 0.0000 15.3295 0.0000
# 6 0.0000 0.0000 0.0000 -3.3533 0.0000 20.2829
#
#
#
# Elastic Compliance Matrix: (Units=1/GPa)
#
#
# Indices 1 2 3 4 5 6 
#
# 1 0.035086 -0.007600 -0.011207 0.000000 -0.015155 0.000000
# 2 -0.007600 0.016892 -0.002807 0.000000 -0.000602 0.000000
# 3 -0.011207 -0.002807 0.014784 0.000000 0.012831 0.000000
# 4 0.000000 0.000000 0.000000 0.036112 0.000000 0.005970
# 5 -0.015155 -0.000602 0.012831 0.000000 0.077480 0.000000
# 6 0.000000 0.000000 0.000000 0.005970 0.000000 0.050290
#
#
# Mechanical properties :
#
#
# Convention : Reuss Voigt Hill
#
# Bulk Modulus (GPa) = 42.49168 50.00190 46.24679
# Shear Modulus (GPa) = 17.74843 21.85493 19.80168
#
# Velocity S-wave (km/s) = 3.05227 3.38702 3.22399
# Velocity P-wave (km/s) = 5.89288 6.44533 6.17529
#
# Compressibility (1/GPa) = 0.02353402
#
# Stress axis : x y z
#
# Youngs Moduli (GPa) = 28.50168 59.20032 67.64188
#
# Poissons Ratio (x) = 0.44990 0.75806
# Poissons Ratio (y) = 0.21660 0.18988
# Poissons Ratio (z) = 0.31942 0.16618
#
# Static dielectric constant tensor:
#      x y z
#    x 1.643680 0.000000 0.003750 
#    y 0.000000 1.672830 0.000000 
#    z 0.003750 0.000000 1.649940 
# 
# From -- ./inp_files/118041.got.cif
#   From: 2010.05.17/outbox.cif.g08.bks.cpg/sg15_60_cif.got.tgz:118041.got - 2010.06.03 18:47:42.
