data_PCOD9284194
_publ_section_title
;
Structure prediction by ZEFSAII (Michael W. Deem and Ramdas Pophale) SiO2 
 PCOD9284194
Probable space group: C 2/C
;
_chemical_formula_sum "Si O2"
_cell_formula_units_Z 52
_cell_length_a 21.855614
_cell_length_b 11.081006
_cell_length_c 14.293921
_cell_angle_alpha 90.000000
_cell_angle_beta 134.167561
_cell_angle_gamma 90.000000
_cell_volume 2483.119163
_symmetry_space_group_name_H-M "C 2/C"
_symmetry_group_IT_number 15
_symmetry_cell_setting 'monoclinic'
loop_
_space_group_symop_operation_xyz
x,y,z
-x,y,1/2-z
-x,-y,-z
x,-y,1/2+z
1/2+x,1/2+y,z
1/2-x,1/2+y,1/2-z
1/2-x,1/2-y,-z
1/2+x,1/2-y,1/2+z
loop_
_atom_site_type_symbol
_atom_site_label
_atom_site_fract_x
_atom_site_fract_y
_atom_site_fract_z
Si Si1 0.066502 0.584874 0.518467
Si Si2 0.253799 0.987148 0.242363
Si Si3 0.812379 0.438749 0.610737
Si Si4 0.099945 0.147276 0.101366
Si Si5 0.318419 0.336644 0.181971
Si Si6 0.000000 0.559482 0.250000
Si Si7 0.012482 0.015161 0.659176
O O1 0.153693 0.510173 0.612017
O O2 0.088329 0.710840 0.590092
O O3 0.000000 0.500000 0.500000
O O4 0.031530 0.620403 0.379093
O O5 0.205653 0.873457 0.237949
O O6 0.268348 0.984448 0.146322
O O7 0.196190 0.100709 0.210783
O O8 0.750482 0.405491 0.457923
O O9 0.822365 0.305232 0.667527
O O10 0.906005 0.491774 0.682856
O O11 0.041819 0.088718 0.119687
O O12 0.067035 0.085958 0.969873
O O13 0.410045 0.390575 0.256547
O O14 0.000000 0.969358 0.750000
#
# Coordination Sequence:
#
# PCOD9284194 Si02
#       7
#     8   8   8   8   8   4   8
#     4  12  25  45  68 100 139 175 228 283 340 410
#     4  11  22  40  63  93 135 168 216 280 336 395
#     4  11  22  37  62  96 128 173 220 278 330 394
#     4  10  24  42  65 102 132 180 232 277 344 407
#     4  10  22  37  63  93 128 172 225 271 330 396
#     4  12  24  40  66  98 128 174 222 280 334 392
#     4  10  21  40  67  95 135 178 225 282 340 409
#
# _framework density 20.941403999999999
#
# number of rings (size 3 to 8) (size 9 to 14) (size 15 to 20)
#    0.000    1.231    3.077    2.769    6.462    0.000 
#    4.154    0.000    0.000    6.462    0.000    0.000 
#    0.000    0.000    0.000    0.000    0.000    0.000 
#
# Total GULP energy -145028.758831 kJ/mol
# GULP energy per Si atom -5578.029186 kJ/mol
# Density = 2.089374 g / cm^3
# Si number density = 20.941404 Si / 1000 Ang^3
#
#
#
# Elastic Constant Matrix: (Units=GPa)
#
#
# Indices 1 2 3 4 5 6 
#
# 1 103.2210 33.1534 33.8376 0.0000 -2.6197 0.0000
# 2 33.1534 87.3596 44.0942 0.0000 1.6990 0.0000
# 3 33.8376 44.0942 89.2651 0.0000 9.2498 0.0000
# 4 0.0000 0.0000 0.0000 20.9048 0.0000 4.6541
# 5 -2.6197 1.6990 9.2498 0.0000 47.9981 0.0000
# 6 0.0000 0.0000 0.0000 4.6541 0.0000 10.5865
#
#
#
# Elastic Compliance Matrix: (Units=1/GPa)
#
#
# Indices 1 2 3 4 5 6 
#
# 1 0.011675 -0.002868 -0.003149 0.000000 0.001346 0.000000
# 2 -0.002868 0.015994 -0.006876 0.000000 0.000602 0.000000
# 3 -0.003149 -0.006876 0.016107 0.000000 -0.003032 0.000000
# 4 0.000000 0.000000 0.000000 0.053026 0.000000 -0.023311
# 5 0.001346 0.000602 -0.003032 0.000000 0.021471 0.000000
# 6 0.000000 0.000000 0.000000 -0.023311 0.000000 0.104708
#
#
# Mechanical properties :
#
#
# Convention : Reuss Voigt Hill
#
# Bulk Modulus (GPa) = 55.58117 55.77957 55.68037
# Shear Modulus (GPa) = 19.62614 27.14858 23.38736
#
# Velocity S-wave (km/s) = 3.06468 3.60447 3.34548
# Velocity P-wave (km/s) = 6.25475 6.63452 6.44743
#
# Compressibility (1/GPa) = 0.01799171
#
# Stress axis : x y z
#
# Youngs Moduli (GPa) = 85.65037 62.52282 62.08535
#
# Poissons Ratio (x) = 0.17930 0.19548
# Poissons Ratio (y) = 0.24563 0.42690
# Poissons Ratio (z) = 0.26968 0.42990
#
# Static dielectric constant tensor:
#      x y z
#    x 1.807300 0.000000 0.002410 
#    y 0.000000 1.731840 0.000000 
#    z 0.002410 0.000000 1.798000 
# 
# From -- ./inp_files/167711.got.cif
#   From: 2010.05.17/outbox.cif.g08.bks.cpg/sg15_84_cif.got.tgz:167711.got - 2010.06.03 18:47:42.
