data_PCOD9284122
_publ_section_title
;
Structure prediction by ZEFSAII (Michael W. Deem and Ramdas Pophale) SiO2 
 PCOD9284122
Probable space group: C 2/C
;
_chemical_formula_sum "Si O2"
_cell_formula_units_Z 56
_cell_length_a 26.123509
_cell_length_b 13.095375
_cell_length_c 14.314904
_cell_angle_alpha 90.000000
_cell_angle_beta 30.263716
_cell_angle_gamma 90.000000
_cell_volume 2468.038017
_symmetry_space_group_name_H-M "C 2/C"
_symmetry_group_IT_number 15
_symmetry_cell_setting 'monoclinic'
loop_
_space_group_symop_operation_xyz
x,y,z
-x,y,1/2-z
-x,-y,-z
x,-y,1/2+z
1/2+x,1/2+y,z
1/2-x,1/2+y,1/2-z
1/2-x,1/2-y,-z
1/2+x,1/2-y,1/2+z
loop_
_atom_site_type_symbol
_atom_site_label
_atom_site_fract_x
_atom_site_fract_y
_atom_site_fract_z
Si Si1 0.841135 0.540581 0.981752
Si Si2 0.000000 0.707707 0.750000
Si Si3 0.500000 0.134719 0.250000
Si Si4 0.772915 0.639043 0.919753
Si Si5 0.616403 0.529765 0.035742
Si Si6 0.263832 0.345457 0.694599
Si Si7 0.400118 0.317495 0.082864
Si Si8 0.931940 0.736476 0.546558
O O1 0.901475 0.436306 0.891244
O O2 0.767493 0.553693 0.010024
O O3 0.918468 0.632099 0.834483
O O4 0.807177 0.574369 0.138298
O O5 0.047346 0.772184 0.593014
O O6 0.482776 0.195638 0.372085
O O7 0.879167 0.649757 0.694876
O O8 0.750000 0.750000 0.000000
O O9 0.685096 0.608470 0.985817
O O10 0.500000 0.527779 0.250000
O O11 0.663501 0.417868 0.979294
O O12 0.624857 0.568236 0.913650
O O13 0.198188 0.256245 0.749659
O O14 0.334103 0.298004 0.664476
O O15 0.484136 0.301487 0.029867
#
# Coordination Sequence:
#
# PCOD9284122 Si02
#       8
#     8   4   4   8   8   8   8   8
#     4  10  21  40  67 100 136 172 234 293 345 409
#     4   9  16  36  65 102 130 154 227 296 335 394
#     4  11  28  44  65 106 148 188 235 294 353 436
#     4  12  21  43  76 106 131 183 242 306 355 406
#     4  12  26  43  69 104 144 184 239 291 356 432
#     4  11  26  45  66 104 146 179 231 295 352 439
#     4  11  22  43  74 100 137 188 232 295 358 410
#     4  12  25  46  72  99 150 190 234 291 365 425
#
# _framework density 22.690087999999999
#
# number of rings (size 3 to 8) (size 9 to 14) (size 15 to 20)
#    0.000    0.857    5.000    2.571    3.000    1.143 
#    0.000    0.714    0.000    0.000    0.000    0.000 
#    0.000    0.000    0.000    0.000    0.000    0.000 
#
# Total GULP energy -156396.468201 kJ/mol
# GULP energy per Si atom -5585.588150 kJ/mol
# Density = 2.263844 g / cm^3
# Si number density = 22.690088 Si / 1000 Ang^3
#
#
#
# Elastic Constant Matrix: (Units=GPa)
#
#
# Indices 1 2 3 4 5 6 
#
# 1 78.9240 -17.5130 -4.2543 0.0000 -10.4142 0.0000
# 2 -17.5130 23.7295 8.2393 0.0000 -2.8828 0.0000
# 3 -4.2543 8.2393 51.8718 0.0000 -6.3923 0.0000
# 4 0.0000 0.0000 0.0000 281.3250 0.0000 -113.5153
# 5 -10.4142 -2.8828 -6.3923 0.0000 37.6897 0.0000
# 6 0.0000 0.0000 0.0000 -113.5153 0.0000 71.2610
#
#
#
# Elastic Compliance Matrix: (Units=1/GPa)
#
#
# Indices 1 2 3 4 5 6 
#
# 1 0.016185 0.012607 -0.000005 0.000000 0.005435 0.000000
# 2 0.012607 0.054610 -0.006839 0.000000 0.006501 0.000000
# 3 -0.000005 -0.006839 0.020733 0.000000 0.002992 0.000000
# 4 0.000000 0.000000 0.000000 0.009950 0.000000 0.015850
# 5 0.005435 0.006501 0.002992 0.000000 0.029039 0.000000
# 6 0.000000 0.000000 0.000000 0.015850 0.000000 0.039281
#
#
# Mechanical properties :
#
#
# Convention : Reuss Voigt Hill
#
# Bulk Modulus (GPa) = 9.70373 14.16325 11.93349
# Shear Modulus (GPa) = 25.95718 89.25870 57.60794
#
# Velocity S-wave (km/s) = 3.38596 6.27882 5.04422
# Velocity P-wave (km/s) = 4.42405 7.66944 6.26069
#
# Compressibility (1/GPa) = 0.10305315
#
# Stress axis : x y z
#
# Youngs Moduli (GPa) = 61.78634 18.31151 48.23249
#
# Poissons Ratio (x) = -0.23085 0.00025
# Poissons Ratio (y) = -0.77894 0.32987
# Poissons Ratio (z) = 0.00032 0.12524
#
# Static dielectric constant tensor:
#      x y z
#    x 1.472790 0.000000 0.015210 
#    y 0.000000 1.897820 0.000000 
#    z 0.015210 0.000000 1.893250 
# 
# From -- ./inp_files/178385.got.cif
#   From: 2010.05.17/outbox.cif.g08.bks.cpg/sg15_90_cif.got.tgz:178385.got - 2010.06.03 18:47:42.
