data_PCOD9284722
_publ_section_title
;
Structure prediction by ZEFSAII (Michael W. Deem and Ramdas Pophale) SiO2 
 PCOD9284722
Probable space group: C 2/C
;
_chemical_formula_sum "Si O2"
_cell_formula_units_Z 40
_cell_length_a 20.210993
_cell_length_b 9.139661
_cell_length_c 8.976565
_cell_angle_alpha 90.000000
_cell_angle_beta 92.513557
_cell_angle_gamma 90.000000
_cell_volume 1656.570303
_symmetry_space_group_name_H-M "C 2/C"
_symmetry_group_IT_number 15
_symmetry_cell_setting 'monoclinic'
loop_
_space_group_symop_operation_xyz
x,y,z
-x,y,1/2-z
-x,-y,-z
x,-y,1/2+z
1/2+x,1/2+y,z
1/2-x,1/2+y,1/2-z
1/2-x,1/2-y,-z
1/2+x,1/2-y,1/2+z
loop_
_atom_site_type_symbol
_atom_site_label
_atom_site_fract_x
_atom_site_fract_y
_atom_site_fract_z
Si Si1 0.131974 0.620164 0.355471
Si Si2 0.755367 0.181391 0.160226
Si Si3 0.000000 0.026728 0.750000
Si Si4 0.452059 0.696437 0.456651
Si Si5 0.000000 0.552635 0.750000
Si Si6 0.224677 0.383472 0.097138
O O1 0.183321 0.670034 0.234641
O O2 0.112096 0.753770 0.461306
O O3 0.065962 0.543183 0.287871
O O4 0.173543 0.531951 0.484308
O O5 0.799125 0.295014 0.260679
O O6 0.775219 0.010487 0.153058
O O7 0.750000 0.250000 0.000000
O O8 0.989306 0.123652 0.601707
O O9 0.053775 0.913152 0.684621
O O10 0.485998 0.840943 0.389836
O O11 0.250000 0.250000 0.000000
#
# Coordination Sequence:
#
# PCOD9284722 Si02
#       6
#     8   8   4   8   4   8
#     4  11  23  42  69 105 139 183 236 289 355 429
#     4  11  23  45  72 100 140 186 245 306 356 424
#     4   9  21  42  62  88 147 187 228 282 334 445
#     4  10  21  41  63  96 138 187 233 283 356 420
#     4  11  23  40  74 104 141 185 238 292 360 431
#     4  10  23  44  69 100 136 184 242 299 361 423
#
# _framework density 24.146274999999999
#
# number of rings (size 3 to 8) (size 9 to 14) (size 15 to 20)
#    0.000    1.600    0.000    4.800    0.000    1.600 
#   14.400    4.000    0.000    0.000    0.000    0.000 
#    0.000    0.000    0.000    0.000    0.000    0.000 
#
# Total GULP energy -111348.308657 kJ/mol
# GULP energy per Si atom -5567.415433 kJ/mol
# Density = 2.409132 g / cm^3
# Si number density = 24.146275 Si / 1000 Ang^3
#
#
#
# Elastic Constant Matrix: (Units=GPa)
#
#
# Indices 1 2 3 4 5 6 
#
# 1 100.9269 37.2817 51.4311 0.0000 -5.6905 0.0000
# 2 37.2817 130.8974 65.2558 0.0000 3.2388 0.0000
# 3 51.4311 65.2558 190.6567 0.0000 -8.7583 0.0000
# 4 0.0000 0.0000 0.0000 58.5929 0.0000 -4.8968
# 5 -5.6905 3.2388 -8.7583 0.0000 48.5888 0.0000
# 6 0.0000 0.0000 0.0000 -4.8968 0.0000 20.9961
#
#
#
# Elastic Compliance Matrix: (Units=1/GPa)
#
#
# Indices 1 2 3 4 5 6 
#
# 1 0.012038 -0.002247 -0.002427 0.000000 0.001122 0.000000
# 2 -0.002247 0.009700 -0.002779 0.000000 -0.001410 0.000000
# 3 -0.002427 -0.002779 0.006903 0.000000 0.001145 0.000000
# 4 0.000000 0.000000 0.000000 0.017406 0.000000 0.004060
# 5 0.001122 -0.001410 0.001145 0.000000 0.021013 0.000000
# 6 0.000000 0.000000 0.000000 0.004060 0.000000 0.048575
#
#
# Mechanical properties :
#
#
# Convention : Reuss Voigt Hill
#
# Bulk Modulus (GPa) = 72.79698 81.15756 76.97727
# Shear Modulus (GPa) = 37.00481 43.53639 40.27060
#
# Velocity S-wave (km/s) = 3.91900 4.25081 4.08827
# Velocity P-wave (km/s) = 7.11982 7.60107 7.36438
#
# Compressibility (1/GPa) = 0.01373683
#
# Stress axis : x y z
#
# Youngs Moduli (GPa) = 83.07035 103.09777 144.85728
#
# Poissons Ratio (x) = 0.23161 0.35155
# Poissons Ratio (y) = 0.18662 0.40250
# Poissons Ratio (z) = 0.20160 0.28647
#
# Static dielectric constant tensor:
#      x y z
#    x 2.146230 0.000000 0.136520 
#    y 0.000000 2.087940 0.000000 
#    z 0.136520 0.000000 2.031030 
# 
# From -- ./inp_files/60056.got.cif
#   From: 2010.05.17/outbox.cif.g08.bks.cpg/sg15_31_cif.got.tgz:60056.got - 2010.06.03 18:47:42.
