data_PCOD9284661
_publ_section_title
;
Structure prediction by ZEFSAII (Michael W. Deem and Ramdas Pophale) SiO2 
 PCOD9284661
Probable space group: C 2/C
;
_chemical_formula_sum "Si O2"
_cell_formula_units_Z 32
_cell_length_a 11.390514
_cell_length_b 8.515286
_cell_length_c 15.801708
_cell_angle_alpha 90.000000
_cell_angle_beta 60.469803
_cell_angle_gamma 90.000000
_cell_volume 1333.563777
_symmetry_space_group_name_H-M "C 2/C"
_symmetry_group_IT_number 15
_symmetry_cell_setting 'monoclinic'
loop_
_space_group_symop_operation_xyz
x,y,z
-x,y,1/2-z
-x,-y,-z
x,-y,1/2+z
1/2+x,1/2+y,z
1/2-x,1/2+y,1/2-z
1/2-x,1/2-y,-z
1/2+x,1/2-y,1/2+z
loop_
_atom_site_type_symbol
_atom_site_label
_atom_site_fract_x
_atom_site_fract_y
_atom_site_fract_z
Si Si1 0.730728 0.146447 0.592576
Si Si2 0.195931 0.027180 0.152470
Si Si3 0.553965 0.593119 0.863590
Si Si4 0.625381 0.126481 0.036659
O O1 0.750000 0.250000 0.500000
O O2 0.694983 0.286402 0.669790
O O3 0.859744 0.053158 0.584022
O O4 0.628039 0.010135 0.605631
O O5 0.153516 0.928621 0.248898
O O6 0.077784 0.998752 0.123959
O O7 0.335796 0.962142 0.064122
O O8 0.503374 0.767223 0.903393
O O9 0.750000 0.250000 0.000000
#
# Coordination Sequence:
#
# PCOD9284661 Si02
#       4
#     8   8   8   8
#     4  10  22  40  64  94 124 164 216 262 315 381
#     4   9  21  39  60  94 124 162 216 257 311 380
#     4  10  21  41  63  88 131 167 203 267 316 360
#     4   9  20  39  64  91 122 163 207 251 314 376
#
# _framework density 23.995850999999998
#
# number of rings (size 3 to 8) (size 9 to 14) (size 15 to 20)
#    0.000    2.500    0.000    0.000    0.000   19.000 
#    0.000   22.500    0.000    0.000    0.000    0.000 
#    0.000    0.000    0.000    0.000    0.000    0.000 
#
# Total GULP energy -89190.178858 kJ/mol
# GULP energy per Si atom -5574.386179 kJ/mol
# Density = 2.394124 g / cm^3
# Si number density = 23.995851 Si / 1000 Ang^3
#
#
#
# Elastic Constant Matrix: (Units=GPa)
#
#
# Indices 1 2 3 4 5 6 
#
# 1 78.5088 -1.6164 27.1691 0.0000 15.8079 0.0000
# 2 -1.6164 98.4439 36.1702 0.0000 -15.7639 0.0000
# 3 27.1691 36.1702 113.0682 0.0000 -2.0114 0.0000
# 4 0.0000 0.0000 0.0000 21.9167 0.0000 -1.9610
# 5 15.8079 -15.7639 -2.0114 0.0000 29.3406 0.0000
# 6 0.0000 0.0000 0.0000 -1.9610 0.0000 44.6038
#
#
#
# Elastic Compliance Matrix: (Units=1/GPa)
#
#
# Indices 1 2 3 4 5 6 
#
# 1 0.015904 0.000383 -0.004098 0.000000 -0.008644 0.000000
# 2 0.000383 0.012656 -0.004028 0.000000 0.006317 0.000000
# 3 -0.004098 -0.004028 0.011132 0.000000 0.000807 0.000000
# 4 0.000000 0.000000 0.000000 0.045807 0.000000 0.002014
# 5 -0.008644 0.006317 0.000807 0.000000 0.042189 0.000000
# 6 0.000000 0.000000 0.000000 0.002014 0.000000 0.022508
#
#
# Mechanical properties :
#
#
# Convention : Reuss Voigt Hill
#
# Bulk Modulus (GPa) = 41.31367 45.94073 43.62720
# Shear Modulus (GPa) = 28.77679 34.39209 31.58444
#
# Velocity S-wave (km/s) = 3.46676 3.78994 3.63195
# Velocity P-wave (km/s) = 5.76879 6.19180 5.98403
#
# Compressibility (1/GPa) = 0.02420507
#
# Stress axis : x y z
#
# Youngs Moduli (GPa) = 62.87794 79.01396 89.83286
#
# Poissons Ratio (x) = -0.03023 0.36810
# Poissons Ratio (y) = -0.02405 0.36186
# Poissons Ratio (z) = 0.25765 0.31828
#
# Static dielectric constant tensor:
#      x y z
#    x 1.997960 0.000000 0.003970 
#    y 0.000000 1.922670 0.000000 
#    z 0.003970 0.000000 1.983600 
# 
# From -- ./inp_files/194847.got.cif
#   From: 2010.05.17/outbox.cif.g08.bks.cpg/sg15_98_cif.got.tgz:194847.got - 2010.06.03 18:47:42.
