data_PCOD9284792
_publ_section_title
;
Structure prediction by ZEFSAII (Michael W. Deem and Ramdas Pophale) SiO2 
 PCOD9284792
Probable space group: C 2/C
;
_chemical_formula_sum "Si O2"
_cell_formula_units_Z 48
_cell_length_a 14.277082
_cell_length_b 11.743905
_cell_length_c 14.002833
_cell_angle_alpha 90.000000
_cell_angle_beta 82.470670
_cell_angle_gamma 90.000000
_cell_volume 2327.593482
_symmetry_space_group_name_H-M "C 2/C"
_symmetry_group_IT_number 15
_symmetry_cell_setting 'monoclinic'
loop_
_space_group_symop_operation_xyz
x,y,z
-x,y,1/2-z
-x,-y,-z
x,-y,1/2+z
1/2+x,1/2+y,z
1/2-x,1/2+y,1/2-z
1/2-x,1/2-y,-z
1/2+x,1/2-y,1/2+z
loop_
_atom_site_type_symbol
_atom_site_label
_atom_site_fract_x
_atom_site_fract_y
_atom_site_fract_z
Si Si1 0.011777 0.760193 0.519604
Si Si2 0.763166 0.766177 0.335259
Si Si3 0.304962 0.351372 0.940766
Si Si4 0.368000 0.148152 0.166521
Si Si5 0.580207 0.889365 0.315239
Si Si6 0.831278 0.902970 0.510662
O O1 0.088652 0.807669 0.584375
O O2 0.067959 0.710331 0.421455
O O3 0.953319 0.659315 0.577720
O O4 0.938995 0.859999 0.503213
O O5 0.850939 0.728914 0.259194
O O6 0.681016 0.828279 0.285700
O O7 0.790995 0.848332 0.418552
O O8 0.721568 0.653835 0.392534
O O9 0.237968 0.375636 0.860195
O O10 0.314017 0.463380 0.004808
O O11 0.250000 0.250000 0.000000
O O12 0.409197 0.024949 0.184521
O O13 0.500000 0.859515 0.250000
#
# Coordination Sequence:
#
# PCOD9284792 Si02
#       6
#     8   8   8   8   8   8
#     4  10  23  39  65  91 129 163 212 258 321 370
#     4  10  23  40  63  92 126 168 209 262 318 373
#     4  10  21  41  64  93 124 162 211 255 319 376
#     4  11  23  38  63  96 124 167 212 261 313 381
#     4  11  23  41  62  91 130 165 211 260 318 375
#     4  10  21  42  64  90 128 166 210 261 316 377
#
# _framework density 20.622157999999999
#
# number of rings (size 3 to 8) (size 9 to 14) (size 15 to 20)
#    0.000    1.667    1.667    2.000    2.333    5.333 
#    0.000    0.000    7.333    0.000    0.000    0.000 
#    0.000    0.000    0.000    0.000    0.000    0.000 
#
# Total GULP energy -134019.946361 kJ/mol
# GULP energy per Si atom -5584.164432 kJ/mol
# Density = 2.057522 g / cm^3
# Si number density = 20.622158 Si / 1000 Ang^3
#
#
#
# Elastic Constant Matrix: (Units=GPa)
#
#
# Indices 1 2 3 4 5 6 
#
# 1 93.5309 31.3893 14.3421 0.0000 9.0361 0.0000
# 2 31.3893 123.7208 31.8083 0.0000 -10.0438 0.0000
# 3 14.3421 31.8083 65.7479 0.0000 -13.7884 0.0000
# 4 0.0000 0.0000 0.0000 14.1330 0.0000 4.4787
# 5 9.0361 -10.0438 -13.7884 0.0000 37.7695 0.0000
# 6 0.0000 0.0000 0.0000 4.4787 0.0000 34.3319
#
#
#
# Elastic Compliance Matrix: (Units=1/GPa)
#
#
# Indices 1 2 3 4 5 6 
#
# 1 0.012474 -0.002958 -0.002253 0.000000 -0.004593 0.000000
# 2 -0.002958 0.009960 -0.003757 0.000000 0.001985 0.000000
# 3 -0.002253 -0.003757 0.018867 0.000000 0.006428 0.000000
# 4 0.000000 0.000000 0.000000 0.073808 0.000000 -0.009629
# 5 -0.004593 0.001985 0.006428 0.000000 0.030450 0.000000
# 6 0.000000 0.000000 0.000000 -0.009629 0.000000 0.030384
#
#
# Mechanical properties :
#
#
# Convention : Reuss Voigt Hill
#
# Bulk Modulus (GPa) = 42.80155 48.67545 45.73850
# Shear Modulus (GPa) = 24.79336 30.94419 27.86877
#
# Velocity S-wave (km/s) = 3.47114 3.87787 3.68013
# Velocity P-wave (km/s) = 6.07167 6.61099 6.34706
#
# Compressibility (1/GPa) = 0.02336364
#
# Stress axis : x y z
#
# Youngs Moduli (GPa) = 80.16831 100.39773 53.00331
#
# Poissons Ratio (x) = 0.29701 0.11942
# Poissons Ratio (y) = 0.23717 0.19914
# Poissons Ratio (z) = 0.18063 0.37721
#
# Static dielectric constant tensor:
#      x y z
#    x 1.774030 0.000000 0.024940 
#    y 0.000000 1.718210 0.000000 
#    z 0.024940 0.000000 1.737450 
# 
# From -- ./inp_files/151948.got.cif
#   From: 2010.05.17/outbox.cif.g08.bks.cpg/sg15_76_cif.got.tgz:151948.got - 2010.06.03 18:47:42.
