data_PCOD9284233
_publ_section_title
;
Structure prediction by ZEFSAII (Michael W. Deem and Ramdas Pophale) SiO2 
 PCOD9284233
Probable space group: C 2/C
;
_chemical_formula_sum "Si O2"
_cell_formula_units_Z 40
_cell_length_a 10.547480
_cell_length_b 17.582428
_cell_length_c 14.934891
_cell_angle_alpha 90.000000
_cell_angle_beta 138.589054
_cell_angle_gamma 90.000000
_cell_volume 1832.019207
_symmetry_space_group_name_H-M "C 2/C"
_symmetry_group_IT_number 15
_symmetry_cell_setting 'monoclinic'
loop_
_space_group_symop_operation_xyz
x,y,z
-x,y,1/2-z
-x,-y,-z
x,-y,1/2+z
1/2+x,1/2+y,z
1/2-x,1/2+y,1/2-z
1/2-x,1/2-y,-z
1/2+x,1/2-y,1/2+z
loop_
_atom_site_type_symbol
_atom_site_label
_atom_site_fract_x
_atom_site_fract_y
_atom_site_fract_z
Si Si1 0.306451 0.294465 0.195373
Si Si2 0.240183 0.528780 0.434621
Si Si3 0.995332 0.340201 0.896138
Si Si4 0.784220 0.061850 0.133151
Si Si5 0.315303 0.560695 0.802103
O O1 0.500000 0.324951 0.250000
O O2 0.363620 0.213960 0.266692
O O3 0.253325 0.354103 0.245385
O O4 0.146378 0.291749 0.034310
O O5 0.109282 0.598462 0.397008
O O6 0.229422 0.464127 0.505253
O O7 0.460128 0.559125 0.552314
O O8 0.790069 0.487417 0.176424
O O9 0.865191 0.383842 0.898764
O O10 0.000000 0.094012 0.250000
O O11 0.791481 0.985925 0.197631
#
# Coordination Sequence:
#
# PCOD9284233 Si02
#       5
#     8   8   8   8   8
#     4  12  25  45  67 106 150 185 235 305 359 436
#     4  10  21  40  70 101 135 183 241 295 350 431
#     4  12  26  43  73 106 145 192 242 300 371 430
#     4  10  22  45  69  98 141 185 247 307 353 431
#     4  10  21  40  68 100 140 181 235 291 363 418
#
# _framework density 21.833832999999998
#
# number of rings (size 3 to 8) (size 9 to 14) (size 15 to 20)
#    0.000    1.200    4.000    1.800    2.800    3.200 
#    0.000    4.000    0.000    0.000    0.000    0.000 
#    0.000    0.000    0.000    0.000    0.000    0.000 
#
# Total GULP energy -111999.095193 kJ/mol
# GULP energy per Si atom -5599.954760 kJ/mol
# Density = 2.178414 g / cm^3
# Si number density = 21.833833 Si / 1000 Ang^3
#
#
#
# Elastic Constant Matrix: (Units=GPa)
#
#
# Indices 1 2 3 4 5 6 
#
# 1 102.1180 35.2361 30.2142 0.0001 -2.1908 0.0001
# 2 35.2361 74.8787 29.6185 0.0002 11.3563 0.0004
# 3 30.2142 29.6185 79.4331 0.0004 6.4945 0.0005
# 4 0.0001 0.0002 0.0004 19.3375 0.0000 -3.3523
# 5 -2.1908 11.3563 6.4945 0.0000 31.9035 0.0000
# 6 0.0001 0.0004 0.0005 -3.3523 0.0000 32.5927
#
#
#
# Elastic Compliance Matrix: (Units=1/GPa)
#
#
# Indices 1 2 3 4 5 6 
#
# 1 0.012580 -0.005192 -0.003123 0.000000 0.003348 0.000000
# 2 -0.005192 0.018459 -0.004415 0.000000 -0.006028 0.000000
# 3 -0.003123 -0.004415 0.015571 0.000000 -0.001813 0.000000
# 4 0.000000 0.000000 0.000000 0.052652 0.000000 0.005416
# 5 0.003348 -0.006028 -0.001813 0.000000 0.034089 0.000000
# 6 0.000000 0.000000 0.000000 0.005416 0.000000 0.031239
#
#
# Mechanical properties :
#
#
# Convention : Reuss Voigt Hill
#
# Bulk Modulus (GPa) = 47.28054 49.61861 48.44957
# Shear Modulus (GPa) = 25.36777 27.52413 26.44595
#
# Velocity S-wave (km/s) = 3.41230 3.55437 3.48406
# Velocity P-wave (km/s) = 6.10137 6.29441 6.19864
#
# Compressibility (1/GPa) = 0.02115035
#
# Stress axis : x y z
#
# Youngs Moduli (GPa) = 79.49134 54.17422 64.22016
#
# Poissons Ratio (x) = 0.28129 0.20054
# Poissons Ratio (y) = 0.41275 0.28353
# Poissons Ratio (z) = 0.24823 0.23918
#
# Static dielectric constant tensor:
#      x y z
#    x 1.787130 0.000000 0.013090 
#    y 0.000000 1.764640 0.000000 
#    z 0.013090 0.000000 1.841980 
# 
# From -- ./inp_files/38954.got.cif
#   From: 2010.05.17/outbox.cif.g08.bks.cpg/sg15_20_cif.got.tgz:38954.got - 2010.06.03 18:47:42.
