data_PCOD9284403
_publ_section_title
;
Structure prediction by ZEFSAII (Michael W. Deem and Ramdas Pophale) SiO2 
 PCOD9284403
Probable space group: C 2/C
;
_chemical_formula_sum "Si O2"
_cell_formula_units_Z 60
_cell_length_a 12.070279
_cell_length_b 33.483606
_cell_length_c 19.001729
_cell_angle_alpha 90.000000
_cell_angle_beta 24.465945
_cell_angle_gamma 90.000000
_cell_volume 3180.553784
_symmetry_space_group_name_H-M "C 2/C"
_symmetry_group_IT_number 15
_symmetry_cell_setting 'monoclinic'
loop_
_space_group_symop_operation_xyz
x,y,z
-x,y,1/2-z
-x,-y,-z
x,-y,1/2+z
1/2+x,1/2+y,z
1/2-x,1/2+y,1/2-z
1/2-x,1/2-y,-z
1/2+x,1/2-y,1/2+z
loop_
_atom_site_type_symbol
_atom_site_label
_atom_site_fract_x
_atom_site_fract_y
_atom_site_fract_z
Si Si1 0.514098 0.664443 0.105012
Si Si2 0.949777 0.569211 0.862141
Si Si3 0.000000 0.299469 0.250000
Si Si4 0.676942 0.583412 0.266087
Si Si5 0.294073 0.753974 0.688861
Si Si6 0.746999 0.702312 0.655549
Si Si7 0.894398 0.371231 0.503789
Si Si8 0.800105 0.487024 0.799716
O O1 0.342798 0.626010 0.182662
O O2 0.342239 0.704187 0.211613
O O3 0.750495 0.673671 0.914886
O O4 0.659272 0.651128 0.094529
O O5 0.053646 0.604151 0.852154
O O6 0.000000 0.576209 0.750000
O O7 0.080335 0.527035 0.803888
O O8 0.632367 0.569247 0.061830
O O9 0.079443 0.270535 0.267457
O O10 0.801694 0.549195 0.243020
O O11 0.801987 0.597460 0.118484
O O12 0.361763 0.724849 0.713248
O O13 0.554469 0.765670 0.494732
O O14 0.500000 0.691243 0.750000
O O15 0.925209 0.663669 0.569143
O O16 0.000000 0.478448 0.750000
O O17 0.500000 0.500000 0.000000
#
# Coordination Sequence:
#
# PCOD9284403 Si02
#       8
#     8   8   4   8   8   8   8   8
#     4  11  22  37  65  97 130 160 218 277 339 374
#     4  10  21  40  70  97 128 166 217 267 335 391
#     4  12  22  34  70 104 120 164 226 288 326 388
#     4  11  23  40  66  98 130 170 207 273 339 390
#     4  12  23  42  65  94 126 171 225 277 327 389
#     4  12  26  45  60  88 137 186 223 265 329 402
#     4  11  24  41  64  97 134 166 213 282 333 387
#     4  11  22  45  69  99 130 174 220 272 326 405
#
# _framework density 18.864639
#
# number of rings (size 3 to 8) (size 9 to 14) (size 15 to 20)
#    0.000    0.800    6.667    3.200    3.733    0.533 
#    2.400    0.667    0.000    0.000    0.000    0.000 
#    0.000    0.000    0.000    0.000    0.000    0.000 
#
# Total GULP energy -167338.142325 kJ/mol
# GULP energy per Si atom -5577.938078 kJ/mol
# Density = 1.882170 g / cm^3
# Si number density = 18.864639 Si / 1000 Ang^3
#
#
#
# Elastic Constant Matrix: (Units=GPa)
#
#
# Indices 1 2 3 4 5 6 
#
# 1 80.2850 55.9438 0.3571 -0.0001 -6.5379 0.0002
# 2 55.9438 116.5366 54.3903 0.0001 19.8964 -0.0008
# 3 0.3571 54.3903 -7.7756 0.0010 7.9817 0.0019
# 4 -0.0001 0.0001 0.0010 43.1265 -0.0004 16.0819
# 5 -6.5379 19.8964 7.9817 -0.0004 21.5395 -0.0004
# 6 0.0002 -0.0008 0.0019 16.0819 -0.0004 10.5521
#
#
#
# Elastic Compliance Matrix: (Units=1/GPa)
#
#
# Indices 1 2 3 4 5 6 
#
# 1 0.016411 -0.004002 -0.013280 -0.000001 0.013598 0.000004
# 2 -0.004002 0.004264 0.017642 0.000002 -0.011691 -0.000006
# 3 -0.013280 0.017642 -0.019325 -0.000003 -0.013166 0.000009
# 4 -0.000001 0.000002 -0.000003 0.053715 -0.000001 -0.081864
# 5 0.013598 -0.011691 -0.013166 -0.000001 0.066232 0.000006
# 6 0.000004 -0.000006 0.000009 -0.081864 0.000006 0.219533
#
#
# Mechanical properties :
#
#
# Convention : Reuss Voigt Hill
#
# Bulk Modulus (GPa) = 482.78373 45.60317 264.19345
# Shear Modulus (GPa) = 14.67145 20.26725 17.46935
#
# Velocity S-wave (km/s) = 2.79179 3.28129 3.04639
# Velocity P-wave (km/s) = 16.33608 6.21145 12.35819
#
# Compressibility (1/GPa) = 0.00207132
#
# Stress axis : x y z
#
# Youngs Moduli (GPa) = 60.93637 234.52030 -51.74626
#
# Poissons Ratio (x) = 0.93849 -0.68717
# Poissons Ratio (y) = 0.24385 0.91292
# Poissons Ratio (z) = 0.80921 -4.13746
#
# Static dielectric constant tensor:
#      x y z
#    x 1.668050 0.000000 0.017730 
#    y 0.000000 1.660740 0.000000 
#    z 0.017730 0.000000 1.684950 
# 
# From -- ./inp_files/201399.got.cif
#   From: 2010.05.17/outbox.cif.g08.bks.cpg/sg15_101_cif.got.tgz:201399.got - 2010.06.03 18:47:42.
