data_PCOD9284726
_publ_section_title
;
Structure prediction by ZEFSAII (Michael W. Deem and Ramdas Pophale) SiO2 
 PCOD9284726
Probable space group: C 2/C
;
_chemical_formula_sum "Si O2"
_cell_formula_units_Z 40
_cell_length_a 19.327099
_cell_length_b 12.724876
_cell_length_c 14.409173
_cell_angle_alpha 90.000000
_cell_angle_beta 150.062994
_cell_angle_gamma 90.000000
_cell_volume 1768.484299
_symmetry_space_group_name_H-M "C 2/C"
_symmetry_group_IT_number 15
_symmetry_cell_setting 'monoclinic'
loop_
_space_group_symop_operation_xyz
x,y,z
-x,y,1/2-z
-x,-y,-z
x,-y,1/2+z
1/2+x,1/2+y,z
1/2-x,1/2+y,1/2-z
1/2-x,1/2-y,-z
1/2+x,1/2-y,1/2+z
loop_
_atom_site_type_symbol
_atom_site_label
_atom_site_fract_x
_atom_site_fract_y
_atom_site_fract_z
Si Si1 0.000000 0.384704 0.250000
Si Si2 0.407004 0.712536 0.004626
Si Si3 0.148741 0.735995 0.467458
Si Si4 0.360125 0.339543 0.857210
Si Si5 0.500000 0.533009 0.250000
Si Si6 0.236472 0.981493 0.386763
O O1 0.005943 0.305911 0.344200
O O2 0.138081 0.454533 0.418155
O O3 0.253853 0.757779 0.814950
O O4 0.487563 0.688707 0.003011
O O5 0.419277 0.611665 0.085527
O O6 0.149353 0.827765 0.543918
O O7 0.111060 0.972700 0.315131
O O8 0.198986 0.627256 0.571631
O O9 0.000000 0.721722 0.250000
O O10 0.318720 0.449982 0.763546
O O11 0.250000 0.750000 0.500000
#
# Coordination Sequence:
#
# PCOD9284726 Si02
#       6
#     4   8   8   8   4   8
#     4   9  16  34  63 100 128 168 211 272 325 388
#     4   9  17  34  63  95 136 162 217 271 328 373
#     4  12  27  48  67  95 136 177 217 270 332 389
#     4  10  21  41  63  97 129 175 218 271 317 391
#     4   9  18  34  63 102 128 172 207 276 323 390
#     4  10  21  41  67  98 131 170 221 261 329 390
#
# _framework density 22.618238999999999
#
# number of rings (size 3 to 8) (size 9 to 14) (size 15 to 20)
#    0.000    2.000    1.000    2.400    1.400    4.800 
#    7.200    6.000    0.000    0.000    0.000    0.000 
#    0.000    0.000    0.000    0.000    0.000    0.000 
#
# Total GULP energy -111917.459165 kJ/mol
# GULP energy per Si atom -5595.872958 kJ/mol
# Density = 2.256676 g / cm^3
# Si number density = 22.618239 Si / 1000 Ang^3
#
#
#
# Elastic Constant Matrix: (Units=GPa)
#
#
# Indices 1 2 3 4 5 6 
#
# 1 142.7117 34.0755 52.8967 0.0000 -3.9197 0.0000
# 2 34.0755 69.4800 42.8240 0.0000 1.8014 0.0000
# 3 52.8967 42.8240 99.3485 0.0000 11.1193 0.0000
# 4 0.0000 0.0000 0.0000 32.0236 0.0000 7.5077
# 5 -3.9197 1.8014 11.1193 0.0000 42.3013 0.0000
# 6 0.0000 0.0000 0.0000 7.5077 0.0000 17.6539
#
#
#
# Elastic Compliance Matrix: (Units=1/GPa)
#
#
# Indices 1 2 3 4 5 6 
#
# 1 0.009091 -0.001889 -0.004255 0.000000 0.002041 0.000000
# 2 -0.001889 0.020077 -0.007761 0.000000 0.001010 0.000000
# 3 -0.004255 -0.007761 0.016159 0.000000 -0.004311 0.000000
# 4 0.000000 0.000000 0.000000 0.034685 0.000000 -0.014751
# 5 0.002041 0.001010 -0.004311 0.000000 0.024919 0.000000
# 6 0.000000 0.000000 0.000000 -0.014751 0.000000 0.062918
#
#
# Mechanical properties :
#
#
# Convention : Reuss Voigt Hill
#
# Bulk Modulus (GPa) = 57.08845 63.45918 60.27382
# Shear Modulus (GPa) = 24.81420 30.51204 27.66312
#
# Velocity S-wave (km/s) = 3.31583 3.67686 3.50100
# Velocity P-wave (km/s) = 6.32095 6.79289 6.56116
#
# Compressibility (1/GPa) = 0.01751668
#
# Stress axis : x y z
#
# Youngs Moduli (GPa) = 109.99535 49.80931 61.88575
#
# Poissons Ratio (x) = 0.09410 0.26330
# Poissons Ratio (y) = 0.20781 0.48030
# Poissons Ratio (z) = 0.46799 0.38658
#
# Static dielectric constant tensor:
#      x y z
#    x 1.774650 0.000000 -0.029270 
#    y 0.000000 1.861640 0.000000 
#    z -0.029270 0.000000 1.835220 
# 
# From -- ./inp_files/105571.got.cif
#   From: 2010.05.17/outbox.cif.g08.bks.cpg/sg15_53_cif.got.tgz:105571.got - 2010.06.03 18:47:42.
