data_PCOD9284524
_publ_section_title
;
Structure prediction by ZEFSAII (Michael W. Deem and Ramdas Pophale) SiO2 
 PCOD9284524
Probable space group: C 2/C
;
_chemical_formula_sum "Si O2"
_cell_formula_units_Z 40
_cell_length_a 31.934023
_cell_length_b 4.858683
_cell_length_c 12.801548
_cell_angle_alpha 90.000000
_cell_angle_beta 57.186282
_cell_angle_gamma 90.000000
_cell_volume 1669.320744
_symmetry_space_group_name_H-M "C 2/C"
_symmetry_group_IT_number 15
_symmetry_cell_setting 'monoclinic'
loop_
_space_group_symop_operation_xyz
x,y,z
-x,y,1/2-z
-x,-y,-z
x,-y,1/2+z
1/2+x,1/2+y,z
1/2-x,1/2+y,1/2-z
1/2-x,1/2-y,-z
1/2+x,1/2-y,1/2+z
loop_
_atom_site_type_symbol
_atom_site_label
_atom_site_fract_x
_atom_site_fract_y
_atom_site_fract_z
Si Si1 0.752492 0.844860 0.379255
Si Si2 0.691497 0.843945 0.270829
Si Si3 0.404372 0.598645 0.209957
Si Si4 0.427413 0.134694 0.306118
Si Si5 0.476543 0.780587 0.950367
O O1 0.750000 0.750000 0.500000
O O2 0.702932 0.792695 0.377440
O O3 0.796032 0.661128 0.267356
O O4 0.767090 0.161971 0.345802
O O5 0.640396 0.737903 0.293423
O O6 0.388420 0.335275 0.300522
O O7 0.422174 0.830124 0.268262
O O8 0.446836 0.564009 0.062279
O O9 0.476646 0.276209 0.187859
O O10 0.435711 0.122773 0.418669
O O11 0.500000 0.000000 0.000000
#
# Coordination Sequence:
#
# PCOD9284524 Si02
#       5
#     8   8   8   8   8
#     4  10  21  41  61  81 114 154 186 233 293 347
#     4  10  22  37  59  88 114 145 194 236 283 348
#     4  11  22  37  57  88 118 146 191 244 282 333
#     4  10  22  38  59  84 117 156 195 230 283 341
#     4   9  21  40  60  83 117 159 193 234 284 335
#
# _framework density 23.961842000000001
#
# number of rings (size 3 to 8) (size 9 to 14) (size 15 to 20)
#    0.000    2.000    0.000    2.400    0.000   12.800 
#    0.000    0.000    0.000    0.000    0.000    0.000 
#    0.000    0.000    0.000    0.000    0.000    0.000 
#
# Total GULP energy -111521.596487 kJ/mol
# GULP energy per Si atom -5576.079824 kJ/mol
# Density = 2.390730 g / cm^3
# Si number density = 23.961842 Si / 1000 Ang^3
#
#
#
# Elastic Constant Matrix: (Units=GPa)
#
#
# Indices 1 2 3 4 5 6 
#
# 1 98.7471 -0.9692 34.6380 0.0000 34.7131 0.0000
# 2 -0.9692 91.0928 10.6951 0.0000 14.6855 0.0000
# 3 34.6380 10.6951 103.2520 0.0000 53.3374 0.0000
# 4 0.0000 0.0000 0.0000 21.3181 0.0000 1.8429
# 5 34.7131 14.6855 53.3374 0.0000 44.5953 0.0000
# 6 0.0000 0.0000 0.0000 1.8429 0.0000 21.7771
#
#
#
# Elastic Compliance Matrix: (Units=1/GPa)
#
#
# Indices 1 2 3 4 5 6 
#
# 1 0.014630 0.002339 0.002958 0.000000 -0.015696 0.000000
# 2 0.002339 0.012130 0.002520 0.000000 -0.008829 0.000000
# 3 0.002958 0.002520 0.026297 0.000000 -0.034585 0.000000
# 4 0.000000 0.000000 0.000000 0.047254 0.000000 -0.003999
# 5 -0.015696 -0.008829 -0.034585 0.000000 0.078914 0.000000
# 6 0.000000 0.000000 0.000000 -0.003999 0.000000 0.046258
#
#
# Mechanical properties :
#
#
# Convention : Reuss Voigt Hill
#
# Bulk Modulus (GPa) = 14.55807 42.42439 28.49123
# Shear Modulus (GPa) = 21.48248 34.11997 27.80123
#
# Velocity S-wave (km/s) = 2.99746 3.77759 3.40991
# Velocity P-wave (km/s) = 4.25069 6.06386 5.23635
#
# Compressibility (1/GPa) = 0.06869043
#
# Stress axis : x y z
#
# Youngs Moduli (GPa) = 68.35276 82.43899 38.02659
#
# Poissons Ratio (x) = -0.19281 -0.11249
# Poissons Ratio (y) = -0.15986 -0.09581
# Poissons Ratio (z) = -0.20219 -0.20771
#
# Static dielectric constant tensor:
#      x y z
#    x 2.114270 0.000000 -0.037490 
#    y 0.000000 1.920410 0.000000 
#    z -0.037490 0.000000 1.907250 
# 
# From -- ./inp_files/124822.got.cif
#   From: 2010.05.17/outbox.cif.g08.bks.cpg/sg15_63_cif.got.tgz:124822.got - 2010.06.03 18:47:42.
