data_PCOD9284080
_publ_section_title
;
Structure prediction by ZEFSAII (Michael W. Deem and Ramdas Pophale) SiO2 
 PCOD9284080
Probable space group: C 2/C
;
_chemical_formula_sum "Si O2"
_cell_formula_units_Z 64
_cell_length_a 11.344665
_cell_length_b 21.217941
_cell_length_c 17.506480
_cell_angle_alpha 90.000000
_cell_angle_beta 126.581380
_cell_angle_gamma 90.000000
_cell_volume 3383.883049
_symmetry_space_group_name_H-M "C 2/C"
_symmetry_group_IT_number 15
_symmetry_cell_setting 'monoclinic'
loop_
_space_group_symop_operation_xyz
x,y,z
-x,y,1/2-z
-x,-y,-z
x,-y,1/2+z
1/2+x,1/2+y,z
1/2-x,1/2+y,1/2-z
1/2-x,1/2-y,-z
1/2+x,1/2-y,1/2+z
loop_
_atom_site_type_symbol
_atom_site_label
_atom_site_fract_x
_atom_site_fract_y
_atom_site_fract_z
Si Si1 0.367473 0.606942 0.040119
Si Si2 0.897437 0.889050 0.375452
Si Si3 0.579754 0.818027 0.467298
Si Si4 0.315161 0.251092 0.110588
Si Si5 0.388594 0.296066 0.842258
Si Si6 0.213863 0.617904 0.653113
Si Si7 0.894927 0.259618 0.858318
Si Si8 0.109182 0.021652 0.864473
O O1 0.236985 0.656844 0.003725
O O2 0.520568 0.639700 0.124703
O O3 0.349971 0.543864 0.081781
O O4 0.365942 0.590968 0.949580
O O5 0.775493 0.893353 0.261755
O O6 0.919034 0.813694 0.388016
O O7 0.028986 0.931088 0.392787
O O8 0.512000 0.758527 0.395858
O O9 0.457527 0.870850 0.408937
O O10 0.576395 0.798803 0.554633
O O11 0.212479 0.205823 0.120967
O O12 0.291778 0.319184 0.144767
O O13 0.483537 0.231033 0.160993
O O14 0.250000 0.250000 0.000000
O O15 0.269220 0.277006 0.732330
O O16 0.254549 0.559632 0.616406
O O17 0.000000 0.012440 0.750000
#
# Coordination Sequence:
#
# PCOD9284080 Si02
#       8
#     8   8   8   8   8   8   8   8
#     4  12  26  43  58  92 135 174 208 248 315 389
#     4  11  21  40  67  91 120 161 220 261 306 374
#     4  11  24  40  62  96 128 169 205 255 321 373
#     4  11  18  36  64  97 125 148 204 271 322 355
#     4  11  24  36  59  96 131 165 201 256 320 381
#     4  10  21  40  66  95 118 160 219 270 307 361
#     4  12  21  37  66  97 129 157 204 266 320 372
#     4  10  24  42  68  90 117 166 220 267 311 368
#
# _framework density 18.913183
#
# number of rings (size 3 to 8) (size 9 to 14) (size 15 to 20)
#    0.000    1.000    7.500    1.125    1.750    1.000 
#    0.000    0.000    0.000    0.000    0.000    0.000 
#    0.000    0.000    0.000    0.000    0.000    0.000 
#
# Total GULP energy -178571.525039 kJ/mol
# GULP energy per Si atom -5580.360157 kJ/mol
# Density = 1.887014 g / cm^3
# Si number density = 18.913183 Si / 1000 Ang^3
#
#
#
# Elastic Constant Matrix: (Units=GPa)
#
#
# Indices 1 2 3 4 5 6 
#
# 1 58.1545 23.3304 7.4913 0.0000 12.7272 0.0000
# 2 23.3304 62.1202 19.4137 0.0000 7.6982 0.0000
# 3 7.4913 19.4137 53.4198 0.0000 9.1321 0.0000
# 4 0.0000 0.0000 0.0000 8.3023 0.0000 1.3357
# 5 12.7272 7.6982 9.1321 0.0000 32.2771 0.0000
# 6 0.0000 0.0000 0.0000 1.3357 0.0000 25.4007
#
#
#
# Elastic Compliance Matrix: (Units=1/GPa)
#
#
# Indices 1 2 3 4 5 6 
#
# 1 0.021634 -0.007541 0.000901 0.000000 -0.006987 0.000000
# 2 -0.007541 0.020997 -0.006542 0.000000 -0.000184 0.000000
# 3 0.000901 -0.006542 0.021820 0.000000 -0.004969 0.000000
# 4 0.000000 0.000000 0.000000 0.121476 0.000000 -0.006388
# 5 -0.006987 -0.000184 -0.004969 0.000000 0.035186 0.000000
# 6 0.000000 0.000000 0.000000 -0.006388 0.000000 0.039705
#
#
# Mechanical properties :
#
#
# Convention : Reuss Voigt Hill
#
# Bulk Modulus (GPa) = 26.25509 30.46281 28.35895
# Shear Modulus (GPa) = 16.67351 21.42663 19.05007
#
# Velocity S-wave (km/s) = 2.97237 3.36950 3.17714
# Velocity P-wave (km/s) = 5.06873 5.59282 5.33721
#
# Compressibility (1/GPa) = 0.03808785
#
# Stress axis : x y z
#
# Youngs Moduli (GPa) = 46.22399 47.62564 45.82929
#
# Poissons Ratio (x) = 0.35913 -0.04129
# Poissons Ratio (y) = 0.34856 0.29981
# Poissons Ratio (z) = -0.04165 0.31156
#
# Static dielectric constant tensor:
#      x y z
#    x 1.663630 0.000000 0.004330 
#    y 0.000000 1.642920 0.000000 
#    z 0.004330 0.000000 1.693200 
# 
# From -- ./inp_files/200401.got.cif
#   From: 2010.05.17/outbox.cif.g08.bks.cpg/sg15_101_cif.got.tgz:200401.got - 2010.06.03 18:47:42.
