data_PCOD9284375
_publ_section_title
;
Structure prediction by ZEFSAII (Michael W. Deem and Ramdas Pophale) SiO2 
 PCOD9284375
Probable space group: C 2/C
;
_chemical_formula_sum "Si O2"
_cell_formula_units_Z 56
_cell_length_a 11.963094
_cell_length_b 27.443051
_cell_length_c 9.264741
_cell_angle_alpha 90.000000
_cell_angle_beta 108.029818
_cell_angle_gamma 90.000000
_cell_volume 2892.291186
_symmetry_space_group_name_H-M "C 2/C"
_symmetry_group_IT_number 15
_symmetry_cell_setting 'monoclinic'
loop_
_space_group_symop_operation_xyz
x,y,z
-x,y,1/2-z
-x,-y,-z
x,-y,1/2+z
1/2+x,1/2+y,z
1/2-x,1/2+y,1/2-z
1/2-x,1/2-y,-z
1/2+x,1/2-y,1/2+z
loop_
_atom_site_type_symbol
_atom_site_label
_atom_site_fract_x
_atom_site_fract_y
_atom_site_fract_z
Si Si1 0.000000 0.776405 0.250000
Si Si2 0.659859 0.905451 0.191059
Si Si3 0.500000 0.499154 0.250000
Si Si4 0.626212 0.982088 0.721431
Si Si5 0.140458 0.946496 0.558062
Si Si6 0.881511 0.317048 0.768868
Si Si7 0.610436 0.893851 0.494045
Si Si8 0.314729 0.654103 0.526598
O O1 0.076402 0.738045 0.185495
O O2 0.088128 0.809686 0.374548
O O3 0.675465 0.895658 0.367435
O O4 0.528541 0.889029 0.094148
O O5 0.750893 0.875998 0.129747
O O6 0.660563 0.964126 0.181671
O O7 0.580304 0.467417 0.389773
O O8 0.422283 0.531319 0.326831
O O9 0.500000 0.984763 0.750000
O O10 0.723972 0.962189 0.871199
O O11 0.624013 0.943655 0.589760
O O12 0.131207 0.888523 0.549811
O O13 0.783002 0.318490 0.607112
O O14 0.000000 0.341770 0.750000
O O15 0.847710 0.349077 0.891635
#
# Coordination Sequence:
#
# PCOD9284375 Si02
#       8
#     4   8   4   8   8   8   8   8
#     4  10  25  42  68  92 114 166 226 277 328 390
#     4  11  24  34  60  91 143 168 202 255 316 398
#     4  10  25  46  58  92 130 188 234 247 304 372
#     4  12  23  35  61  99 136 169 212 255 328 387
#     4  11  24  41  67  87 133 179 221 272 302 384
#     4  10  21  40  70  88 121 155 212 280 334 384
#     4  11  21  38  56  98 130 168 202 259 328 384
#     4  12  22  43  64  95 124 170 216 265 327 386
#
# _framework density 19.361810999999999
#
# number of rings (size 3 to 8) (size 9 to 14) (size 15 to 20)
#    0.429    0.571    4.286    3.429    4.000    1.143 
#    0.000    0.714    0.000    5.143    0.000    0.000 
#    0.000    0.000    0.000    0.000    0.000    0.000 
#
# Total GULP energy -156484.880073 kJ/mol
# GULP energy per Si atom -5588.745717 kJ/mol
# Density = 1.931774 g / cm^3
# Si number density = 19.361811 Si / 1000 Ang^3
#
#
#
# Elastic Constant Matrix: (Units=GPa)
#
#
# Indices 1 2 3 4 5 6 
#
# 1 65.3134 48.6191 56.1863 0.0000 9.7840 0.0000
# 2 48.6191 126.9084 54.8511 0.0000 14.0356 0.0000
# 3 56.1863 54.8511 137.0657 0.0000 16.1234 0.0000
# 4 0.0000 0.0000 0.0000 34.8746 0.0000 12.2526
# 5 9.7840 14.0356 16.1234 0.0000 20.7049 0.0000
# 6 0.0000 0.0000 0.0000 12.2526 0.0000 14.2266
#
#
#
# Elastic Compliance Matrix: (Units=1/GPa)
#
#
# Indices 1 2 3 4 5 6 
#
# 1 0.028024 -0.006835 -0.008520 0.000000 -0.001974 0.000000
# 2 -0.006835 0.011481 -0.001384 0.000000 -0.003475 0.000000
# 3 -0.008520 -0.001384 0.011843 0.000000 -0.004258 0.000000
# 4 0.000000 0.000000 0.000000 0.041115 0.000000 -0.035410
# 5 -0.001974 -0.003475 -0.004258 0.000000 0.054903 0.000000
# 6 0.000000 0.000000 0.000000 -0.035410 0.000000 0.100788
#
#
# Mechanical properties :
#
#
# Convention : Reuss Voigt Hill
#
# Bulk Modulus (GPa) = 55.96055 72.06673 64.01364
# Shear Modulus (GPa) = 17.38595 25.26993 21.32794
#
# Velocity S-wave (km/s) = 2.99983 3.61660 3.32256
# Velocity P-wave (km/s) = 6.40031 7.39875 6.91757
#
# Compressibility (1/GPa) = 0.01786973
#
# Stress axis : x y z
#
# Youngs Moduli (GPa) = 35.68334 87.10280 84.43809
#
# Poissons Ratio (x) = 0.59538 0.71943
# Poissons Ratio (y) = 0.24391 0.11683
# Poissons Ratio (z) = 0.30403 0.12052
#
# Static dielectric constant tensor:
#      x y z
#    x 1.698090 0.000000 0.002330 
#    y 0.000000 1.664430 0.000000 
#    z 0.002330 0.000000 1.681960 
# 
# From -- ./inp_files/34366.got.cif
#   From: 2010.05.17/outbox.cif.g08.bks.cpg/sg15_18_cif.got.tgz:34366.got - 2010.06.03 18:47:42.
