data_PCOD9284266
_publ_section_title
;
Structure prediction by ZEFSAII (Michael W. Deem and Ramdas Pophale) SiO2 
 PCOD9284266
Probable space group: C 2/C
;
_chemical_formula_sum "Si O2"
_cell_formula_units_Z 56
_cell_length_a 16.440414
_cell_length_b 17.789232
_cell_length_c 9.148394
_cell_angle_alpha 90.000000
_cell_angle_beta 96.327201
_cell_angle_gamma 90.000000
_cell_volume 2659.263190
_symmetry_space_group_name_H-M "C 2/C"
_symmetry_group_IT_number 15
_symmetry_cell_setting 'monoclinic'
loop_
_space_group_symop_operation_xyz
x,y,z
-x,y,1/2-z
-x,-y,-z
x,-y,1/2+z
1/2+x,1/2+y,z
1/2-x,1/2+y,1/2-z
1/2-x,1/2-y,-z
1/2+x,1/2-y,1/2+z
loop_
_atom_site_type_symbol
_atom_site_label
_atom_site_fract_x
_atom_site_fract_y
_atom_site_fract_z
Si Si1 0.148561 0.400698 0.335132
Si Si2 0.000000 0.708248 0.750000
Si Si3 0.155528 0.909707 0.436718
Si Si4 0.000000 0.909513 0.250000
Si Si5 0.299881 0.981869 0.888959
Si Si6 0.068034 0.808958 0.998228
Si Si7 0.284737 0.711126 0.780992
Si Si8 0.823545 0.858849 0.748222
O O1 0.139791 0.441560 0.487152
O O2 0.155740 0.464780 0.215811
O O3 0.233123 0.353450 0.354299
O O4 0.079050 0.343256 0.276816
O O5 0.003899 0.757766 0.898096
O O6 0.180585 0.833780 0.352808
O O7 0.133016 0.886665 0.595828
O O8 0.081629 0.947838 0.330028
O O9 0.233086 0.964913 0.455966
O O10 0.970908 0.860128 0.383484
O O11 0.246784 0.918460 0.800374
O O12 0.115258 0.851351 0.876258
O O13 0.140179 0.764640 0.099892
O O14 0.223451 0.779384 0.737352
#
# Coordination Sequence:
#
# PCOD9284266 Si02
#       8
#     8   4   8   4   8   8   8   8
#     4  11  23  43  65  95 139 171 227 273 325 388
#     4  12  24  40  67  99 138 174 216 276 336 392
#     4  10  23  40  63  94 134 167 217 270 329 395
#     4  10  24  42  59  97 146 156 206 288 342 392
#     4  11  23  42  66  94 128 184 222 266 318 402
#     4  11  22  40  64  98 131 170 213 275 337 387
#     4  10  21  40  68  93 127 170 226 279 311 385
#     4  12  20  39  71  94 119 175 231 263 322 389
#
# _framework density 21.058464000000001
#
# number of rings (size 3 to 8) (size 9 to 14) (size 15 to 20)
#    0.000    1.143    4.286    2.571    0.000    0.571 
#    2.571    3.571    0.000    0.857    0.000    0.000 
#    0.000    0.000    0.000    0.000    0.000    0.000 
#
# Total GULP energy -156450.283583 kJ/mol
# GULP energy per Si atom -5587.510128 kJ/mol
# Density = 2.101053 g / cm^3
# Si number density = 21.058464 Si / 1000 Ang^3
#
#
#
# Elastic Constant Matrix: (Units=GPa)
#
#
# Indices 1 2 3 4 5 6 
#
# 1 35.8600 -10.9775 13.4961 0.0000 7.0271 0.0000
# 2 -10.9775 42.8754 13.3675 0.0000 4.1029 0.0000
# 3 13.4961 13.3675 98.5819 0.0000 18.6331 0.0000
# 4 0.0000 0.0000 0.0000 12.7633 0.0000 3.7151
# 5 7.0271 4.1029 18.6331 0.0000 35.5884 0.0000
# 6 0.0000 0.0000 0.0000 3.7151 0.0000 18.1896
#
#
#
# Elastic Compliance Matrix: (Units=1/GPa)
#
#
# Indices 1 2 3 4 5 6 
#
# 1 0.034192 0.010868 -0.005152 0.000000 -0.005307 0.000000
# 2 0.010868 0.027854 -0.004719 0.000000 -0.002886 0.000000
# 3 -0.005152 -0.004719 0.012423 0.000000 -0.004943 0.000000
# 4 0.000000 0.000000 0.000000 0.083302 0.000000 -0.017014
# 5 -0.005307 -0.002886 -0.004943 0.000000 0.032068 0.000000
# 6 0.000000 0.000000 0.000000 -0.017014 0.000000 0.058451
#
#
# Mechanical properties :
#
#
# Convention : Reuss Voigt Hill
#
# Bulk Modulus (GPa) = 13.07808 23.23217 18.15513
# Shear Modulus (GPa) = 18.39703 24.07036 21.23369
#
# Velocity S-wave (km/s) = 2.95891 3.38453 3.17885
# Velocity P-wave (km/s) = 4.23053 5.13124 4.70250
#
# Compressibility (1/GPa) = 0.07646381
#
# Stress axis : x y z
#
# Youngs Moduli (GPa) = 29.24657 35.90208 80.49354
#
# Poissons Ratio (x) = -0.39019 0.41467
# Poissons Ratio (y) = -0.31786 0.37987
# Poissons Ratio (z) = 0.15067 0.16943
#
# Static dielectric constant tensor:
#      x y z
#    x 1.780460 0.000000 0.017960 
#    y 0.000000 1.750490 0.000000 
#    z 0.017960 0.000000 1.747790 
# 
# From -- ./inp_files/49191.got.cif
#   From: 2010.05.17/outbox.cif.g08.bks.cpg/sg15_25_cif.got.tgz:49191.got - 2010.06.03 18:47:42.
