data_PCOD9284608
_publ_section_title
;
Structure prediction by ZEFSAII (Michael W. Deem and Ramdas Pophale) SiO2 
 PCOD9284608
Probable space group: C 2/C
;
_chemical_formula_sum "Si O2"
_cell_formula_units_Z 64
_cell_length_a 22.947013
_cell_length_b 9.543616
_cell_length_c 29.477766
_cell_angle_alpha 90.000000
_cell_angle_beta 150.238368
_cell_angle_gamma 90.000000
_cell_volume 3204.491450
_symmetry_space_group_name_H-M "C 2/C"
_symmetry_group_IT_number 15
_symmetry_cell_setting 'monoclinic'
loop_
_space_group_symop_operation_xyz
x,y,z
-x,y,1/2-z
-x,-y,-z
x,-y,1/2+z
1/2+x,1/2+y,z
1/2-x,1/2+y,1/2-z
1/2-x,1/2-y,-z
1/2+x,1/2-y,1/2+z
loop_
_atom_site_type_symbol
_atom_site_label
_atom_site_fract_x
_atom_site_fract_y
_atom_site_fract_z
Si Si1 0.826407 0.276598 0.753183
Si Si2 0.763737 0.592070 0.728805
Si Si3 0.534257 0.336822 0.021190
Si Si4 0.413727 0.373453 0.229912
Si Si5 0.271685 0.019489 0.958126
Si Si6 0.476796 0.800382 0.085089
Si Si7 0.421303 0.268516 0.034283
Si Si8 0.099897 0.023417 0.420772
O O1 0.762820 0.423677 0.721153
O O2 0.772991 0.147357 0.745963
O O3 0.838302 0.235904 0.708481
O O4 0.959950 0.286240 0.861438
O O5 0.668267 0.663674 0.630859
O O6 0.896940 0.643845 0.813543
O O7 0.450240 0.259706 0.000816
O O8 0.500000 0.500000 0.000000
O O9 0.517824 0.267744 0.961350
O O10 0.500000 0.308522 0.250000
O O11 0.331737 0.484748 0.148812
O O12 0.497501 0.453870 0.321488
O O13 0.216895 0.987791 0.969933
O O14 0.380261 0.921802 0.019707
O O15 0.317088 0.177646 0.984080
O O16 0.431867 0.679756 0.088022
O O17 0.397963 0.428391 0.032784
#
# Coordination Sequence:
#
# PCOD9284608 Si02
#       8
#     8   8   8   8   8   8   8   8
#     4  10  22  41  64  92 125 166 207 259 324 370
#     4  11  25  41  65  96 132 167 207 268 317 382
#     4  11  24  42  64  95 124 170 214 250 326 383
#     4   9  22  40  66  91 124 168 214 256 312 382
#     4  11  23  40  64  97 122 164 221 262 314 378
#     4  12  25  41  66  95 131 166 209 269 319 378
#     4  10  21  41  62  92 124 161 213 262 314 382
#     4  10  22  43  66  86 129 174 206 260 323 377
#
# _framework density 19.971968
#
# number of rings (size 3 to 8) (size 9 to 14) (size 15 to 20)
#    0.000    1.500    2.500    1.500    8.750    1.500 
#    0.000    0.000    0.000    0.000    0.000    0.000 
#    0.000    0.000    0.000    0.000    0.000    0.000 
#
# Total GULP energy -178685.393638 kJ/mol
# GULP energy per Si atom -5583.918551 kJ/mol
# Density = 1.992651 g / cm^3
# Si number density = 19.971968 Si / 1000 Ang^3
#
#
#
# Elastic Constant Matrix: (Units=GPa)
#
#
# Indices 1 2 3 4 5 6 
#
# 1 113.1274 37.5189 36.8349 0.0000 4.9540 0.0000
# 2 37.5189 79.7069 13.3419 0.0001 2.5843 0.0001
# 3 36.8349 13.3419 61.1402 0.0001 19.3753 0.0000
# 4 0.0000 0.0001 0.0001 22.7458 0.0001 9.2119
# 5 4.9540 2.5843 19.3753 0.0001 23.7801 0.0000
# 6 0.0000 0.0001 0.0000 9.2119 0.0000 34.3674
#
#
#
# Elastic Compliance Matrix: (Units=1/GPa)
#
#
# Indices 1 2 3 4 5 6 
#
# 1 0.012901 -0.004857 -0.008126 0.000000 0.004461 0.000000
# 2 -0.004857 0.014876 -0.000173 0.000000 -0.000464 0.000000
# 3 -0.008126 -0.000173 0.027968 0.000000 -0.021076 0.000000
# 4 0.000000 0.000000 0.000000 0.049318 0.000000 -0.013219
# 5 0.004461 -0.000464 -0.021076 0.000000 0.058345 0.000000
# 6 0.000000 0.000000 0.000000 -0.013219 0.000000 0.032641
#
#
# Mechanical properties :
#
#
# Convention : Reuss Voigt Hill
#
# Bulk Modulus (GPa) = 33.97571 47.70733 40.84152
# Shear Modulus (GPa) = 21.53564 27.26391 24.39977
#
# Velocity S-wave (km/s) = 3.28730 3.69875 3.49908
# Velocity P-wave (km/s) = 5.60866 6.49461 6.06783
#
# Compressibility (1/GPa) = 0.02943279
#
# Stress axis : x y z
#
# Youngs Moduli (GPa) = 77.51302 67.22130 35.75458
#
# Poissons Ratio (x) = 0.32650 0.29055
# Poissons Ratio (y) = 0.37649 0.00619
# Poissons Ratio (z) = 0.62990 0.01163
#
# Static dielectric constant tensor:
#      x y z
#    x 1.713960 0.000000 0.008630 
#    y 0.000000 1.684730 0.000000 
#    z 0.008630 0.000000 1.737350 
# 
# From -- ./inp_files/318631.got.cif
#   From: 2010.05.17/outbox.cif.g08.bks.cpg/sg15_160_cif.got.tgz:318631.got - 2010.06.03 18:47:42.
