data_PCOD9284087
_publ_section_title
;
Structure prediction by ZEFSAII (Michael W. Deem and Ramdas Pophale) SiO2 
 PCOD9284087
Probable space group: C 2/C
;
_chemical_formula_sum "Si O2"
_cell_formula_units_Z 48
_cell_length_a 9.683361
_cell_length_b 15.448803
_cell_length_c 13.985051
_cell_angle_alpha 90.000000
_cell_angle_beta 104.629848
_cell_angle_gamma 90.000000
_cell_volume 2024.281351
_symmetry_space_group_name_H-M "C 2/C"
_symmetry_group_IT_number 15
_symmetry_cell_setting 'monoclinic'
loop_
_space_group_symop_operation_xyz
x,y,z
-x,y,1/2-z
-x,-y,-z
x,-y,1/2+z
1/2+x,1/2+y,z
1/2-x,1/2+y,1/2-z
1/2-x,1/2-y,-z
1/2+x,1/2-y,1/2+z
loop_
_atom_site_type_symbol
_atom_site_label
_atom_site_fract_x
_atom_site_fract_y
_atom_site_fract_z
Si Si1 0.119367 0.569702 0.553061
Si Si2 0.153327 0.462697 0.733592
Si Si3 0.086638 0.266864 0.166905
Si Si4 0.385739 0.327832 0.520134
Si Si5 0.823015 0.273281 0.843102
Si Si6 0.668080 0.490197 0.551296
O O1 0.194329 0.525471 0.655889
O O2 0.059620 0.659183 0.583782
O O3 0.239112 0.576979 0.493775
O O4 0.000000 0.500000 0.500000
O O5 0.130280 0.367546 0.684066
O O6 0.275095 0.474479 0.833136
O O7 0.000000 0.489531 0.750000
O O8 0.246691 0.265112 0.236099
O O9 0.000000 0.282763 0.250000
O O10 0.034511 0.178076 0.106393
O O11 0.290036 0.284901 0.588590
O O12 0.424793 0.288781 0.421825
O O13 0.293866 0.412709 0.478564
O O14 0.500000 0.500000 0.500000
#
# Coordination Sequence:
#
# PCOD9284087 Si02
#       6
#     8   8   8   8   8   8
#     4  12  24  43  71 101 139 181 240 295 348 420
#     4  12  24  42  71 103 138 184 240 294 352 419
#     4  10  22  39  69  99 133 181 236 291 349 421
#     4  10  21  41  67  94 132 182 225 276 352 415
#     4  10  21  40  66  95 131 174 231 282 341 416
#     4  12  27  45  68 102 141 184 230 289 361 424
#
# _framework density 23.712119000000001
#
# number of rings (size 3 to 8) (size 9 to 14) (size 15 to 20)
#    0.000    1.000    3.333    3.500    4.667    0.667 
#    3.000    1.667    0.000    0.000    0.000    0.000 
#    0.000    0.000    0.000    0.000    0.000    0.000 
#
# Total GULP energy -133701.477853 kJ/mol
# GULP energy per Si atom -5570.894911 kJ/mol
# Density = 2.365815 g / cm^3
# Si number density = 23.712119 Si / 1000 Ang^3
#
#
#
# Elastic Constant Matrix: (Units=GPa)
#
#
# Indices 1 2 3 4 5 6 
#
# 1 44.5741 -16.9628 23.8904 0.0000 11.3753 0.0000
# 2 -16.9628 41.5777 -0.4172 0.0000 3.9685 0.0000
# 3 23.8904 -0.4172 127.6217 0.0000 8.9066 0.0000
# 4 0.0000 0.0000 0.0000 25.3880 0.0000 3.8335
# 5 11.3753 3.9685 8.9066 0.0000 25.6966 0.0000
# 6 0.0000 0.0000 0.0000 3.8335 0.0000 24.1204
#
#
#
# Elastic Compliance Matrix: (Units=1/GPa)
#
#
# Indices 1 2 3 4 5 6 
#
# 1 0.035658 0.016055 -0.005480 0.000000 -0.016365 0.000000
# 2 0.016055 0.031655 -0.002116 0.000000 -0.011262 0.000000
# 3 -0.005480 -0.002116 0.008877 0.000000 -0.000324 0.000000
# 4 0.000000 0.000000 0.000000 0.040357 0.000000 -0.006414
# 5 -0.016365 -0.011262 -0.000324 0.000000 0.048012 0.000000
# 6 0.000000 0.000000 0.000000 -0.006414 0.000000 0.042478
#
#
# Mechanical properties :
#
#
# Convention : Reuss Voigt Hill
#
# Bulk Modulus (GPa) = 10.74035 25.19937 17.96986
# Shear Modulus (GPa) = 22.60845 28.85854 25.73350
#
# Velocity S-wave (km/s) = 3.09116 3.49239 3.29788
# Velocity P-wave (km/s) = 4.15688 5.18774 4.70066
#
# Compressibility (1/GPa) = 0.09310681
#
# Stress axis : x y z
#
# Youngs Moduli (GPa) = 28.04426 31.59053 112.64701
#
# Poissons Ratio (x) = -0.50718 0.61736
# Poissons Ratio (y) = -0.45024 0.23835
# Poissons Ratio (z) = 0.15370 0.06684
#
# Static dielectric constant tensor:
#      x y z
#    x 2.167130 0.000000 0.023830 
#    y 0.000000 2.152010 0.000000 
#    z 0.023830 0.000000 2.095550 
# 
# From -- ./inp_files/144379.got.cif
#   From: 2010.05.17/outbox.cif.g08.bks.cpg/sg15_73_cif.got.tgz:144379.got - 2010.06.03 18:47:42.
