data_PCOD9284729
_publ_section_title
;
Structure prediction by ZEFSAII (Michael W. Deem and Ramdas Pophale) SiO2 
 PCOD9284729
Probable space group: C 2/C
;
_chemical_formula_sum "Si O2"
_cell_formula_units_Z 40
_cell_length_a 22.481209
_cell_length_b 6.832431
_cell_length_c 11.334213
_cell_angle_alpha 90.000000
_cell_angle_beta 107.079390
_cell_angle_gamma 90.000000
_cell_volume 1664.171840
_symmetry_space_group_name_H-M "C 2/C"
_symmetry_group_IT_number 15
_symmetry_cell_setting 'monoclinic'
loop_
_space_group_symop_operation_xyz
x,y,z
-x,y,1/2-z
-x,-y,-z
x,-y,1/2+z
1/2+x,1/2+y,z
1/2-x,1/2+y,1/2-z
1/2-x,1/2-y,-z
1/2+x,1/2-y,1/2+z
loop_
_atom_site_type_symbol
_atom_site_label
_atom_site_fract_x
_atom_site_fract_y
_atom_site_fract_z
Si Si1 0.697597 0.276519 0.369411
Si Si2 0.805078 0.116200 0.302882
Si Si3 0.615103 0.905441 0.013844
Si Si4 0.989850 0.164135 0.619061
Si Si5 0.399887 0.362562 0.486532
O O1 0.750000 0.250000 0.500000
O O2 0.732773 0.164427 0.283136
O O3 0.687251 0.495775 0.313876
O O4 0.640087 0.176868 0.401792
O O5 0.843366 0.314245 0.355747
O O6 0.836239 0.974925 0.420307
O O7 0.547158 0.810762 0.987423
O O8 0.612992 0.136528 0.004180
O O9 0.000000 0.260248 0.750000
O O10 0.056103 0.113634 0.603044
O O11 0.944281 0.975483 0.604802
#
# Coordination Sequence:
#
# PCOD9284729 Si02
#       5
#     8   8   8   8   8
#     4  10  23  43  62  94 130 172 227 270 333 394
#     4  10  23  42  63  92 133 170 221 283 326 391
#     4  10  22  43  65  95 129 174 225 268 338 400
#     4  10  21  41  63  98 135 162 217 269 332 399
#     4  10  22  41  67  95 129 174 214 274 330 400
#
# _framework density 24.035979000000001
#
# number of rings (size 3 to 8) (size 9 to 14) (size 15 to 20)
#    0.000    2.000    0.000    1.800    5.600    1.600 
#   10.800    2.000    0.000    0.000    0.000    0.000 
#    0.000    0.000    0.000    0.000    0.000    0.000 
#
# Total GULP energy -111590.567083 kJ/mol
# GULP energy per Si atom -5579.528354 kJ/mol
# Density = 2.398127 g / cm^3
# Si number density = 24.035979 Si / 1000 Ang^3
#
#
#
# Elastic Constant Matrix: (Units=GPa)
#
#
# Indices 1 2 3 4 5 6 
#
# 1 82.9222 34.5934 13.8258 0.0000 -5.2166 0.0000
# 2 34.5934 160.4323 6.5326 0.0000 10.2448 0.0000
# 3 13.8258 6.5326 55.4612 0.0000 10.9544 0.0000
# 4 0.0000 0.0000 0.0000 18.7574 0.0000 -4.7431
# 5 -5.2166 10.2448 10.9544 0.0000 25.2224 0.0000
# 6 0.0000 0.0000 0.0000 -4.7431 0.0000 38.7856
#
#
#
# Elastic Compliance Matrix: (Units=1/GPa)
#
#
# Indices 1 2 3 4 5 6 
#
# 1 0.014617 -0.003374 -0.004500 0.000000 0.006348 0.000000
# 2 -0.003374 0.007181 0.000776 0.000000 -0.003952 0.000000
# 3 -0.004500 0.000776 0.021119 0.000000 -0.010418 0.000000
# 4 0.000000 0.000000 0.000000 0.055014 0.000000 0.006728
# 5 0.006348 -0.003952 -0.010418 0.000000 0.047090 0.000000
# 6 0.000000 0.000000 0.000000 0.006728 0.000000 0.026605
#
#
# Mechanical properties :
#
#
# Convention : Reuss Voigt Hill
#
# Bulk Modulus (GPa) = 34.81874 45.41327 40.11600
# Shear Modulus (GPa) = 25.58907 32.81068 29.19987
#
# Velocity S-wave (km/s) = 3.26638 3.69869 3.48924
# Velocity P-wave (km/s) = 5.36127 6.09715 5.74101
#
# Compressibility (1/GPa) = 0.02872017
#
# Stress axis : x y z
#
# Youngs Moduli (GPa) = 68.41503 139.24851 47.35120
#
# Poissons Ratio (x) = 0.46980 0.21309
# Poissons Ratio (y) = 0.23082 -0.03673
# Poissons Ratio (z) = 0.30788 -0.10801
#
# Static dielectric constant tensor:
#      x y z
#    x 1.999320 0.000000 -0.063960 
#    y 0.000000 1.937280 0.000000 
#    z -0.063960 0.000000 1.987430 
# 
# From -- ./inp_files/120878.got.cif
#   From: 2010.05.17/outbox.cif.g08.bks.cpg/sg15_61_cif.got.tgz:120878.got - 2010.06.03 18:47:42.
