data_PCOD9284672
_publ_section_title
;
Structure prediction by ZEFSAII (Michael W. Deem and Ramdas Pophale) SiO2 
 PCOD9284672
Probable space group: C 2/C
;
_chemical_formula_sum "Si O2"
_cell_formula_units_Z 40
_cell_length_a 15.951367
_cell_length_b 7.810222
_cell_length_c 26.778537
_cell_angle_alpha 90.000000
_cell_angle_beta 151.938016
_cell_angle_gamma 90.000000
_cell_volume 1569.422572
_symmetry_space_group_name_H-M "C 2/C"
_symmetry_group_IT_number 15
_symmetry_cell_setting 'monoclinic'
loop_
_space_group_symop_operation_xyz
x,y,z
-x,y,1/2-z
-x,-y,-z
x,-y,1/2+z
1/2+x,1/2+y,z
1/2-x,1/2+y,1/2-z
1/2-x,1/2-y,-z
1/2+x,1/2-y,1/2+z
loop_
_atom_site_type_symbol
_atom_site_label
_atom_site_fract_x
_atom_site_fract_y
_atom_site_fract_z
Si Si1 0.579820 0.823201 0.562669
Si Si2 0.143859 0.324260 0.755262
Si Si3 0.857327 0.294802 0.277671
Si Si4 0.844894 0.195410 0.126519
Si Si5 0.783074 0.210885 0.593190
O O1 0.746330 0.844495 0.687238
O O2 0.665935 0.732892 0.558918
O O3 0.426031 0.744349 0.516672
O O4 0.500000 0.000000 0.500000
O O5 0.186548 0.521545 0.768558
O O6 0.276844 0.220936 0.789822
O O7 0.175173 0.265326 0.827932
O O8 0.930411 0.298643 0.635609
O O9 0.065851 0.266319 0.376813
O O10 0.000000 0.226593 0.250000
O O11 0.814547 0.992504 0.104443
#
# Coordination Sequence:
#
# PCOD9284672 Si02
#       5
#     8   8   8   8   8
#     4   9  21  38  69  90 120 162 211 252 317 358
#     4  11  24  38  63  91 128 164 209 250 312 367
#     4  11  24  40  64  94 123 166 209 255 303 373
#     4   9  17  37  65  85 118 162 204 243 310 363
#     4  10  21  41  63  90 123 164 201 261 307 368
#
# _framework density 25.487081
#
# number of rings (size 3 to 8) (size 9 to 14) (size 15 to 20)
#    0.000    2.000    2.000    1.200   14.000    1.600 
#    0.000    1.000    0.000    0.000    0.000    0.000 
#    0.000    0.000    0.000    0.000    0.000    0.000 
#
# Total GULP energy -111678.926381 kJ/mol
# GULP energy per Si atom -5583.946319 kJ/mol
# Density = 2.542907 g / cm^3
# Si number density = 25.487081 Si / 1000 Ang^3
#
#
#
# Elastic Constant Matrix: (Units=GPa)
#
#
# Indices 1 2 3 4 5 6 
#
# 1 200.8837 33.4197 39.1391 0.0000 55.0390 0.0000
# 2 33.4197 104.5308 -12.8908 0.0000 1.6277 0.0001
# 3 39.1391 -12.8908 78.0564 0.0002 34.8607 -0.0002
# 4 0.0000 0.0000 0.0002 18.1077 0.0000 17.9635
# 5 55.0390 1.6277 34.8607 0.0000 43.4014 0.0000
# 6 0.0000 0.0001 -0.0002 17.9635 0.0000 18.4204
#
#
#
# Elastic Compliance Matrix: (Units=1/GPa)
#
#
# Indices 1 2 3 4 5 6 
#
# 1 0.008220 -0.002448 0.000138 0.000000 -0.010442 0.000000
# 2 -0.002448 0.010685 0.002783 0.000000 0.000469 0.000000
# 3 0.000138 0.002783 0.020781 -0.000012 -0.016971 0.000012
# 4 0.000000 0.000000 -0.000012 1.695685 0.000009 -1.653628
# 5 -0.010442 0.000469 -0.016971 0.000009 0.049897 -0.000009
# 6 0.000000 0.000000 0.000012 -1.653628 -0.000009 1.666902
#
#
# Mechanical properties :
#
#
# Convention : Reuss Voigt Hill
#
# Bulk Modulus (GPa) = 24.61177 55.86745 40.23961
# Shear Modulus (GPa) = 1.44310 37.57274 19.50792
#
# Velocity S-wave (km/s) = 0.75328 3.84368 2.76960
# Velocity P-wave (km/s) = 3.23019 6.45492 5.10393
#
# Compressibility (1/GPa) = 0.04063096
#
# Stress axis : x y z
#
# Youngs Moduli (GPa) = 121.66183 93.58757 48.12068
#
# Poissons Ratio (x) = 0.22913 -0.00664
# Poissons Ratio (y) = 0.29786 -0.13392
# Poissons Ratio (z) = -0.01678 -0.26045
#
# Static dielectric constant tensor:
#      x y z
#    x 2.134660 0.000000 0.047910 
#    y 0.000000 1.951170 0.000000 
#    z 0.047910 0.000000 2.274870 
# 
# From -- ./inp_files/242668.got.cif
#   From: 2010.05.17/outbox.cif.g08.bks.cpg/sg15_122_cif.got.tgz:242668.got - 2010.06.03 18:47:42.
