data_PCOD9284895
_publ_section_title
;
Structure prediction by ZEFSAII (Michael W. Deem and Ramdas Pophale) SiO2 
 PCOD9284895
Probable space group: C 2/C
;
_chemical_formula_sum "Si O2"
_cell_formula_units_Z 60
_cell_length_a 14.240701
_cell_length_b 24.697281
_cell_length_c 18.153822
_cell_angle_alpha 90.000000
_cell_angle_beta 151.525302
_cell_angle_gamma 90.000000
_cell_volume 3044.094103
_symmetry_space_group_name_H-M "C 2/C"
_symmetry_group_IT_number 15
_symmetry_cell_setting 'monoclinic'
loop_
_space_group_symop_operation_xyz
x,y,z
-x,y,1/2-z
-x,-y,-z
x,-y,1/2+z
1/2+x,1/2+y,z
1/2-x,1/2+y,1/2-z
1/2-x,1/2-y,-z
1/2+x,1/2-y,1/2+z
loop_
_atom_site_type_symbol
_atom_site_label
_atom_site_fract_x
_atom_site_fract_y
_atom_site_fract_z
Si Si1 0.193033 0.187998 0.235598
Si Si2 0.500000 0.474617 0.750000
Si Si3 0.934993 0.509304 0.038181
Si Si4 0.474647 0.880099 0.820931
Si Si5 0.223936 0.203370 0.921973
Si Si6 0.929138 0.699048 0.910553
Si Si7 0.581001 0.104161 0.700153
Si Si8 0.831077 0.888809 0.516539
O O1 0.304877 0.158515 0.242156
O O2 0.123506 0.249507 0.175072
O O3 0.348030 0.187934 0.409697
O O4 0.999223 0.155095 0.122148
O O5 0.697092 0.509259 0.873665
O O6 0.435947 0.436168 0.636850
O O7 0.026847 0.562110 0.139642
O O8 0.014049 0.455807 0.132921
O O9 0.000000 0.500000 0.000000
O O10 0.500000 0.885288 0.750000
O O11 0.675593 0.850633 0.981077
O O12 0.328811 0.216034 0.917922
O O13 0.000000 0.195833 0.750000
O O14 0.250000 0.250000 0.000000
O O15 0.852396 0.643853 0.819672
O O16 0.372415 0.129570 0.584283
O O17 0.745450 0.097866 0.876419
#
# Coordination Sequence:
#
# PCOD9284895 Si02
#       8
#     8   4   8   8   8   8   8   8
#     4  11  22  40  62  94 129 166 216 265 328 387
#     4  10  22  40  68  88 128 174 214 266 334 392
#     4  11  23  44  65  91 134 167 221 270 329 392
#     4  11  25  40  63  95 129 171 216 271 323 383
#     4  11  22  40  63  89 130 172 214 264 327 380
#     4  11  22  38  64  94 128 170 215 269 322 390
#     4  10  23  41  66  93 126 171 215 270 328 391
#     4  10  21  41  65  93 128 168 215 265 334 389
#
# _framework density 19.710297000000001
#
# number of rings (size 3 to 8) (size 9 to 14) (size 15 to 20)
#    0.000    1.333    0.000    7.600    4.667    1.600 
#    2.400    2.667    0.000    0.000    0.000    0.000 
#    0.000    0.000    0.000    0.000    0.000    0.000 
#
# Total GULP energy -167273.781406 kJ/mol
# GULP energy per Si atom -5575.792714 kJ/mol
# Density = 1.966544 g / cm^3
# Si number density = 19.710297 Si / 1000 Ang^3
#
#
#
# Elastic Constant Matrix: (Units=GPa)
#
#
# Indices 1 2 3 4 5 6 
#
# 1 25.8971 23.4036 22.8636 0.0006 -12.3876 0.0000
# 2 23.4036 102.4817 31.8191 0.0008 0.4990 -0.0001
# 3 22.8636 31.8191 103.9250 0.0025 1.2722 -0.0002
# 4 0.0006 0.0008 0.0025 29.6331 0.0008 10.4985
# 5 -12.3876 0.4990 1.2722 0.0008 32.0318 0.0000
# 6 0.0000 -0.0001 -0.0002 10.4985 0.0000 14.3593
#
#
#
# Elastic Compliance Matrix: (Units=1/GPa)
#
#
# Indices 1 2 3 4 5 6 
#
# 1 0.077289 -0.013707 -0.013182 -0.000001 0.030627 0.000001
# 2 -0.013707 0.013214 -0.000963 0.000000 -0.005468 0.000000
# 3 -0.013182 -0.000963 0.012886 -0.000001 -0.005595 0.000001
# 4 -0.000001 0.000000 -0.000001 0.045543 -0.000002 -0.033298
# 5 0.030627 -0.005468 -0.005595 -0.000002 0.043371 0.000001
# 6 0.000001 0.000000 0.000001 -0.033298 0.000001 0.093986
#
#
# Mechanical properties :
#
#
# Convention : Reuss Voigt Hill
#
# Bulk Modulus (GPa) = 20.97106 43.16403 32.06754
# Shear Modulus (GPa) = 13.97089 25.48601 19.72845
#
# Velocity S-wave (km/s) = 2.66524 3.59977 3.16717
# Velocity P-wave (km/s) = 4.48710 6.26295 5.44787
#
# Compressibility (1/GPa) = 0.04768477
#
# Stress axis : x y z
#
# Youngs Moduli (GPa) = 12.93844 75.67890 77.60493
#
# Poissons Ratio (x) = 1.03731 1.02298
# Poissons Ratio (y) = 0.17734 0.07476
# Poissons Ratio (z) = 0.17055 0.07290
#
# Static dielectric constant tensor:
#      x y z
#    x 1.815070 0.000000 -0.065690 
#    y 0.000000 1.734490 0.000000 
#    z -0.065690 0.000000 1.696670 
# 
# From -- ./inp_files/207261.got.cif
#   From: 2010.05.17/outbox.cif.g08.bks.cpg/sg15_104_cif.got.tgz:207261.got - 2010.06.03 18:47:42.
