data_PCOD9284703
_publ_section_title
;
Structure prediction by ZEFSAII (Michael W. Deem and Ramdas Pophale) SiO2 
 PCOD9284703
Probable space group: C 2/C
;
_chemical_formula_sum "Si O2"
_cell_formula_units_Z 48
_cell_length_a 28.568595
_cell_length_b 6.520035
_cell_length_c 21.408179
_cell_angle_alpha 90.000000
_cell_angle_beta 142.085560
_cell_angle_gamma 90.000000
_cell_volume 2450.355807
_symmetry_space_group_name_H-M "C 2/C"
_symmetry_group_IT_number 15
_symmetry_cell_setting 'monoclinic'
loop_
_space_group_symop_operation_xyz
x,y,z
-x,y,1/2-z
-x,-y,-z
x,-y,1/2+z
1/2+x,1/2+y,z
1/2-x,1/2+y,1/2-z
1/2-x,1/2-y,-z
1/2+x,1/2-y,1/2+z
loop_
_atom_site_type_symbol
_atom_site_label
_atom_site_fract_x
_atom_site_fract_y
_atom_site_fract_z
Si Si1 0.059364 0.308763 0.368567
Si Si2 0.043027 0.300780 0.018857
Si Si3 0.040003 0.957548 0.640299
Si Si4 0.293708 0.469460 0.492316
Si Si5 0.704937 0.583509 0.367922
Si Si6 0.159644 0.359455 0.039682
O O1 0.131973 0.176072 0.423701
O O2 0.095352 0.518906 0.432158
O O3 0.000000 0.339306 0.250000
O O4 0.018280 0.178243 0.380005
O O5 0.054219 0.156024 0.089977
O O6 0.122872 0.340558 0.068922
O O7 0.000000 0.500000 0.000000
O O8 0.994076 0.177295 0.915194
O O9 0.119234 0.965911 0.759968
O O10 0.276028 0.523211 0.545480
O O11 0.224894 0.324467 0.396300
O O12 0.316716 0.649028 0.469524
O O13 0.764563 0.496056 0.381034
#
# Coordination Sequence:
#
# PCOD9284703 Si02
#       6
#     8   8   8   8   8   8
#     4  11  21  37  66  93 125 164 215 262 326 382
#     4  11  24  43  65  89 126 168 221 262 309 385
#     4  11  23  42  64  90 123 172 213 265 314 380
#     4  10  21  41  63  93 132 162 201 266 329 391
#     4  10  23  40  64  94 130 165 206 262 331 387
#     4  11  23  41  62  94 127 168 207 265 322 386
#
# _framework density 19.588992999999999
#
# number of rings (size 3 to 8) (size 9 to 14) (size 15 to 20)
#    0.000    1.333    5.000    0.500    0.000    3.333 
#    6.000    0.000    0.000    0.000    0.000    0.000 
#    0.000    0.000    0.000    0.000    0.000    0.000 
#
# Total GULP energy -133985.141477 kJ/mol
# GULP energy per Si atom -5582.714228 kJ/mol
# Density = 1.954441 g / cm^3
# Si number density = 19.588993 Si / 1000 Ang^3
#
#
#
# Elastic Constant Matrix: (Units=GPa)
#
#
# Indices 1 2 3 4 5 6 
#
# 1 137.5091 26.5512 -3.9639 -0.0003 0.6880 -0.0002
# 2 26.5512 78.0368 5.4903 -0.0002 -3.8868 -0.0001
# 3 -3.9639 5.4903 37.0805 -0.0005 5.0709 -0.0002
# 4 -0.0003 -0.0002 -0.0005 14.5059 -0.0002 4.9871
# 5 0.6880 -3.8868 5.0709 -0.0002 23.2692 -0.0002
# 6 -0.0002 -0.0001 -0.0002 4.9871 -0.0002 48.2550
#
#
#
# Elastic Compliance Matrix: (Units=1/GPa)
#
#
# Indices 1 2 3 4 5 6 
#
# 1 0.007863 -0.002824 0.001397 0.000000 -0.001008 0.000000
# 2 -0.002824 0.014125 -0.002811 0.000000 0.003056 0.000000
# 3 0.001397 -0.002811 0.028452 0.000001 -0.006711 0.000000
# 4 0.000000 0.000000 0.000001 0.071477 0.000000 -0.007387
# 5 -0.001008 0.003056 -0.006711 0.000000 0.044978 0.000000
# 6 0.000000 0.000000 0.000000 -0.007387 0.000000 0.021487
#
#
# Mechanical properties :
#
#
# Convention : Reuss Voigt Hill
#
# Bulk Modulus (GPa) = 23.83054 34.30907 29.06980
# Shear Modulus (GPa) = 23.71405 32.17596 27.94501
#
# Velocity S-wave (km/s) = 3.48311 4.05724 3.78109
# Velocity P-wave (km/s) = 5.32614 6.28496 5.82531
#
# Compressibility (1/GPa) = 0.04196296
#
# Stress axis : x y z
#
# Youngs Moduli (GPa) = 127.18163 70.79556 35.14730
#
# Poissons Ratio (x) = 0.19991 -0.04908
# Poissons Ratio (y) = 0.35912 0.09880
# Poissons Ratio (z) = -0.17761 0.19902
#
# Static dielectric constant tensor:
#      x y z
#    x 1.706310 0.000000 -0.008340 
#    y 0.000000 1.710210 0.000000 
#    z -0.008340 0.000000 1.656300 
# 
# From -- ./inp_files/258525.got.cif
#   From: 2010.05.17/outbox.cif.g08.bks.cpg/sg15_130_cif.got.tgz:258525.got - 2010.06.03 18:47:42.
