data_PCOD9284545
_publ_section_title
;
Structure prediction by ZEFSAII (Michael W. Deem and Ramdas Pophale) SiO2 
 PCOD9284545
Probable space group: C 2/C
;
_chemical_formula_sum "Si O2"
_cell_formula_units_Z 60
_cell_length_a 15.731098
_cell_length_b 12.431297
_cell_length_c 14.612763
_cell_angle_alpha 90.000000
_cell_angle_beta 70.725054
_cell_angle_gamma 90.000000
_cell_volume 2697.457980
_symmetry_space_group_name_H-M "C 2/C"
_symmetry_group_IT_number 15
_symmetry_cell_setting 'monoclinic'
loop_
_space_group_symop_operation_xyz
x,y,z
-x,y,1/2-z
-x,-y,-z
x,-y,1/2+z
1/2+x,1/2+y,z
1/2-x,1/2+y,1/2-z
1/2-x,1/2-y,-z
1/2+x,1/2-y,1/2+z
loop_
_atom_site_type_symbol
_atom_site_label
_atom_site_fract_x
_atom_site_fract_y
_atom_site_fract_z
Si Si1 0.551477 0.722917 0.865729
Si Si2 0.772277 0.903481 0.995113
Si Si3 0.000000 0.610947 0.750000
Si Si4 0.639912 0.369073 0.059844
Si Si5 0.101443 0.288306 0.048254
Si Si6 0.229257 0.773317 0.870185
Si Si7 0.734321 0.612171 0.782273
Si Si8 0.356765 0.064615 0.242044
O O1 0.455630 0.674794 0.871403
O O2 0.629880 0.642087 0.803871
O O3 0.579889 0.842788 0.822733
O O4 0.558476 0.737323 0.972840
O O5 0.669324 0.887307 0.997124
O O6 0.760435 0.897090 0.109938
O O7 0.829983 0.802267 0.939785
O O8 0.833260 0.006697 0.952368
O O9 0.968319 0.676984 0.849730
O O10 0.918944 0.531334 0.753373
O O11 0.721448 0.316535 0.087220
O O12 0.647015 0.322029 0.954125
O O13 0.214475 0.715970 0.778248
O O14 0.301725 0.868588 0.836614
O O15 0.775491 0.503782 0.723371
#
# Coordination Sequence:
#
# PCOD9284545 Si02
#       8
#     8   8   4   8   8   8   8   8
#     4  10  25  40  65  95 129 164 227 274 319 402
#     4  10  21  44  64  87 139 173 211 261 341 387
#     4  12  22  38  68  92 128 166 218 266 326 382
#     4  11  22  42  66  97 127 173 217 277 327 391
#     4  10  23  40  62  98 130 172 214 268 322 403
#     4  10  23  40  66  93 128 168 220 263 330 400
#     4  10  21  41  61  90 123 175 209 268 330 389
#     4  11  22  43  61  91 128 171 211 277 326 390
#
# _framework density 22.243165000000001
#
# number of rings (size 3 to 8) (size 9 to 14) (size 15 to 20)
#    0.000    1.600    2.667    0.800    3.733    5.333 
#    0.000    4.000    0.000    0.000    0.000    0.000 
#    0.000    0.000    0.000    0.000    0.000    0.000 
#
# Total GULP energy -167285.203442 kJ/mol
# GULP energy per Si atom -5576.173448 kJ/mol
# Density = 2.219254 g / cm^3
# Si number density = 22.243165 Si / 1000 Ang^3
#
#
#
# Elastic Constant Matrix: (Units=GPa)
#
#
# Indices 1 2 3 4 5 6 
#
# 1 59.3941 34.7847 15.0096 0.0000 -13.7705 0.0000
# 2 34.7847 133.1872 47.0060 0.0000 -22.5067 0.0000
# 3 15.0096 47.0060 85.3853 0.0000 -22.0834 0.0000
# 4 0.0000 0.0000 0.0000 34.6885 0.0000 -10.7952
# 5 -13.7705 -22.5067 -22.0834 0.0000 32.3246 0.0000
# 6 0.0000 0.0000 0.0000 -10.7952 0.0000 24.1032
#
#
#
# Elastic Compliance Matrix: (Units=1/GPa)
#
#
# Indices 1 2 3 4 5 6 
#
# 1 0.020789 -0.004564 0.000397 0.000000 0.005949 0.000000
# 2 -0.004564 0.010684 -0.004443 0.000000 0.002459 0.000000
# 3 0.000397 -0.004443 0.016193 0.000000 0.008138 0.000000
# 4 0.000000 0.000000 0.000000 0.033497 0.000000 0.015002
# 5 0.005949 0.002459 0.008138 0.000000 0.040742 0.000000
# 6 0.000000 0.000000 0.000000 0.015002 0.000000 0.048207
#
#
# Mechanical properties :
#
#
# Convention : Reuss Voigt Hill
#
# Bulk Modulus (GPa) = 32.84693 52.39635 42.62164
# Shear Modulus (GPa) = 25.31889 30.30104 27.80997
#
# Velocity S-wave (km/s) = 3.37750 3.69489 3.53975
# Velocity P-wave (km/s) = 5.47807 6.46608 5.99247
#
# Compressibility (1/GPa) = 0.03044425
#
# Stress axis : x y z
#
# Youngs Moduli (GPa) = 48.10284 93.59781 61.75628
#
# Poissons Ratio (x) = 0.42720 -0.02452
# Poissons Ratio (y) = 0.21955 0.27441
# Poissons Ratio (z) = -0.01910 0.41590
#
# Static dielectric constant tensor:
#      x y z
#    x 1.898680 0.000000 0.038830 
#    y 0.000000 1.842830 0.000000 
#    z 0.038830 0.000000 1.880910 
# 
# From -- ./inp_files/210619.got.cif
#   From: 2010.05.17/outbox.cif.g08.bks.cpg/sg15_106_cif.got.tgz:210619.got - 2010.06.03 18:47:42.
