data_PCOD9284369
_publ_section_title
;
Structure prediction by ZEFSAII (Michael W. Deem and Ramdas Pophale) SiO2 
 PCOD9284369
Probable space group: C 2/C
;
_chemical_formula_sum "Si O2"
_cell_formula_units_Z 48
_cell_length_a 17.005763
_cell_length_b 16.812800
_cell_length_c 8.322227
_cell_angle_alpha 90.000000
_cell_angle_beta 67.551845
_cell_angle_gamma 90.000000
_cell_volume 2199.143865
_symmetry_space_group_name_H-M "C 2/C"
_symmetry_group_IT_number 15
_symmetry_cell_setting 'monoclinic'
loop_
_space_group_symop_operation_xyz
x,y,z
-x,y,1/2-z
-x,-y,-z
x,-y,1/2+z
1/2+x,1/2+y,z
1/2-x,1/2+y,1/2-z
1/2-x,1/2-y,-z
1/2+x,1/2-y,1/2+z
loop_
_atom_site_type_symbol
_atom_site_label
_atom_site_fract_x
_atom_site_fract_y
_atom_site_fract_z
Si Si1 0.385605 0.425329 0.118169
Si Si2 0.665127 0.697811 0.578912
Si Si3 0.740888 0.560816 0.348122
Si Si4 0.500000 0.458537 0.750000
Si Si5 0.500000 0.196105 0.250000
Si Si6 0.639693 0.987226 0.470470
Si Si7 0.490071 0.891569 0.092304
O O1 0.345949 0.353236 0.248804
O O2 0.311884 0.479740 0.102554
O O3 0.436046 0.482272 0.204715
O O4 0.450316 0.408100 0.922815
O O5 0.750000 0.750000 0.500000
O O6 0.676936 0.632728 0.428468
O O7 0.580979 0.750559 0.640016
O O8 0.813259 0.561225 0.428321
O O9 0.793296 0.551949 0.144870
O O10 0.516830 0.146131 0.400002
O O11 0.605186 0.924636 0.365311
O O12 0.554973 0.035685 0.575606
O O13 0.500000 0.842047 0.250000
#
# Coordination Sequence:
#
# PCOD9284369 Si02
#       7
#     8   8   8   4   4   8   8
#     4  11  22  41  71 106 133 191 241 300 365 437
#     4  12  26  45  70 105 148 193 239 305 387 443
#     4  12  22  40  70 104 138 183 240 310 357 437
#     4  10  21  40  70 102 139 174 258 298 345 432
#     4  12  29  48  68 102 161 196 242 296 399 456
#     4  11  21  38  69 108 135 170 258 305 362 433
#     4  11  23  43  70 101 141 199 237 309 372 456
#
# _framework density 21.826675000000002
#
# number of rings (size 3 to 8) (size 9 to 14) (size 15 to 20)
#    0.000    0.667    5.000    3.500    4.667    0.000 
#    1.500    0.000    0.000    8.000    0.000    0.000 
#    0.000    0.000    0.000    0.000    0.000    0.000 
#
# Total GULP energy -133991.584585 kJ/mol
# GULP energy per Si atom -5582.982691 kJ/mol
# Density = 2.177700 g / cm^3
# Si number density = 21.826675 Si / 1000 Ang^3
#
#
#
# Elastic Constant Matrix: (Units=GPa)
#
#
# Indices 1 2 3 4 5 6 
#
# 1 107.7341 26.1005 25.2382 0.0000 -3.0871 0.0000
# 2 26.1005 75.2189 41.2894 0.0000 -11.3541 0.0000
# 3 25.2382 41.2894 140.5599 0.0000 -17.4018 0.0000
# 4 0.0000 0.0000 0.0000 47.5269 0.0000 -13.8257
# 5 -3.0871 -11.3541 -17.4018 0.0000 49.2414 0.0000
# 6 0.0000 0.0000 0.0000 -13.8257 0.0000 24.8786
#
#
#
# Elastic Compliance Matrix: (Units=1/GPa)
#
#
# Indices 1 2 3 4 5 6 
#
# 1 0.010247 -0.003076 -0.000988 0.000000 -0.000416 0.000000
# 2 -0.003076 0.016984 -0.004158 0.000000 0.002254 0.000000
# 3 -0.000988 -0.004158 0.008770 0.000000 0.002079 0.000000
# 4 0.000000 0.000000 0.000000 0.025098 0.000000 0.013948
# 5 -0.000416 0.002254 0.002079 0.000000 0.021536 0.000000
# 6 0.000000 0.000000 0.000000 0.013948 0.000000 0.047946
#
#
# Mechanical properties :
#
#
# Convention : Reuss Voigt Hill
#
# Bulk Modulus (GPa) = 51.12892 56.52989 53.82940
# Shear Modulus (GPa) = 32.56361 39.72170 36.14266
#
# Velocity S-wave (km/s) = 3.86673 4.27062 4.07368
# Velocity P-wave (km/s) = 6.58872 7.09037 6.84414
#
# Compressibility (1/GPa) = 0.01955840
#
# Stress axis : x y z
#
# Youngs Moduli (GPa) = 97.59099 58.87722 114.01902
#
# Poissons Ratio (x) = 0.18112 0.11262
# Poissons Ratio (y) = 0.30021 0.47407
# Poissons Ratio (z) = 0.09639 0.24480
#
# Static dielectric constant tensor:
#      x y z
#    x 1.851560 0.000000 -0.001840 
#    y 0.000000 1.826190 0.000000 
#    z -0.001840 0.000000 1.888180 
# 
# From -- ./inp_files/48418.got.cif
#   From: 2010.05.17/outbox.cif.g08.bks.cpg/sg15_25_cif.got.tgz:48418.got - 2010.06.03 18:47:42.
