data_PCOD9284380
_publ_section_title
;
Structure prediction by ZEFSAII (Michael W. Deem and Ramdas Pophale) SiO2 
 PCOD9284380
Probable space group: C 2/C
;
_chemical_formula_sum "Si O2"
_cell_formula_units_Z 60
_cell_length_a 11.875215
_cell_length_b 15.104225
_cell_length_c 18.114059
_cell_angle_alpha 90.000000
_cell_angle_beta 79.006049
_cell_angle_gamma 90.000000
_cell_volume 3189.416173
_symmetry_space_group_name_H-M "C 2/C"
_symmetry_group_IT_number 15
_symmetry_cell_setting 'monoclinic'
loop_
_space_group_symop_operation_xyz
x,y,z
-x,y,1/2-z
-x,-y,-z
x,-y,1/2+z
1/2+x,1/2+y,z
1/2-x,1/2+y,1/2-z
1/2-x,1/2-y,-z
1/2+x,1/2-y,1/2+z
loop_
_atom_site_type_symbol
_atom_site_label
_atom_site_fract_x
_atom_site_fract_y
_atom_site_fract_z
Si Si1 0.394360 0.412421 0.202865
Si Si2 0.779791 0.568917 0.313863
Si Si3 0.749068 0.767629 0.780340
Si Si4 0.500000 0.958498 0.250000
Si Si5 0.682008 0.299736 0.945818
Si Si6 0.441798 0.204503 0.661742
Si Si7 0.327117 0.705487 0.428728
Si Si8 0.461601 0.597628 0.522346
O O1 0.500000 0.417214 0.250000
O O2 0.318894 0.503394 0.207232
O O3 0.314358 0.325713 0.226996
O O4 0.429198 0.397860 0.112493
O O5 0.803096 0.652479 0.258779
O O6 0.896338 0.513117 0.298779
O O7 0.739367 0.616713 0.395073
O O8 0.881165 0.757776 0.736403
O O9 0.751370 0.797792 0.864742
O O10 0.545878 0.893565 0.308608
O O11 0.649961 0.224764 0.890169
O O12 0.750000 0.250000 0.000000
O O13 0.565761 0.336075 0.995486
O O14 0.561186 0.239838 0.613305
O O15 0.250000 0.750000 0.500000
O O16 0.371520 0.620844 0.468391
O O17 0.500000 0.500000 0.500000
#
# Coordination Sequence:
#
# PCOD9284380 Si02
#       8
#     8   8   8   4   8   8   8   8
#     4  12  26  43  68 100 136 174 226 282 336 402
#     4  11  26  42  66 102 126 177 224 271 335 407
#     4  11  23  44  67  96 132 175 223 272 346 394
#     4  12  22  44  70  94 140 162 232 274 328 410
#     4  10  24  44  66  91 135 174 220 270 340 402
#     4  10  21  40  70  91 124 185 215 268 337 399
#     4  11  21  40  66  92 128 169 227 274 325 399
#     4  11  24  40  63  97 131 170 221 281 330 386
#
# _framework density 18.81222
#
# number of rings (size 3 to 8) (size 9 to 14) (size 15 to 20)
#    0.000    1.067    5.333    0.000    6.533    0.000 
#    0.000    0.667    0.000    0.000    0.000    0.000 
#    0.000    0.000    0.000    0.000    0.000    0.000 
#
# Total GULP energy -167049.109503 kJ/mol
# GULP energy per Si atom -5568.303650 kJ/mol
# Density = 1.876940 g / cm^3
# Si number density = 18.812220 Si / 1000 Ang^3
#
#
#
# Elastic Constant Matrix: (Units=GPa)
#
#
# Indices 1 2 3 4 5 6 
#
# 1 66.4162 39.6251 28.1933 0.0000 10.7186 0.0000
# 2 39.6251 119.7985 32.1028 0.0000 11.8938 0.0000
# 3 28.1933 32.1028 116.0762 0.0000 2.4423 0.0000
# 4 0.0000 0.0000 0.0000 32.8824 0.0000 2.7559
# 5 10.7186 11.8938 2.4423 0.0000 31.0850 0.0000
# 6 0.0000 0.0000 0.0000 2.7559 0.0000 29.1340
#
#
#
# Elastic Compliance Matrix: (Units=1/GPa)
#
#
# Indices 1 2 3 4 5 6 
#
# 1 0.020475 -0.005397 -0.003381 0.000000 -0.004730 0.000000
# 2 -0.005397 0.010780 -0.001626 0.000000 -0.002136 0.000000
# 3 -0.003381 -0.001626 0.009865 0.000000 0.001013 0.000000
# 4 0.000000 0.000000 0.000000 0.030654 0.000000 -0.002900
# 5 -0.004730 -0.002136 0.001013 0.000000 0.034538 0.000000
# 6 0.000000 0.000000 0.000000 -0.002900 0.000000 0.034598
#
#
# Mechanical properties :
#
#
# Convention : Reuss Voigt Hill
#
# Bulk Modulus (GPa) = 49.23045 55.79257 52.51151
# Shear Modulus (GPa) = 29.67559 32.11158 30.89359
#
# Velocity S-wave (km/s) = 3.97604 4.13601 4.05681
# Velocity P-wave (km/s) = 6.87784 7.24781 7.06525
#
# Compressibility (1/GPa) = 0.02031263
#
# Stress axis : x y z
#
# Youngs Moduli (GPa) = 48.84034 92.76321 101.37343
#
# Poissons Ratio (x) = 0.50062 0.34274
# Poissons Ratio (y) = 0.26358 0.16480
# Poissons Ratio (z) = 0.16513 0.15080
#
# Static dielectric constant tensor:
#      x y z
#    x 1.715850 0.000000 0.005200 
#    y 0.000000 2.247400 0.000000 
#    z 0.005200 0.000000 1.674570 
# 
# From -- ./inp_files/197852.got.cif
#   From: 2010.05.17/outbox.cif.g08.bks.cpg/sg15_99_cif.got.tgz:197852.got - 2010.06.03 18:47:42.
