data_PCOD9284275
_publ_section_title
;
Structure prediction by ZEFSAII (Michael W. Deem and Ramdas Pophale) SiO2 
 PCOD9284275
Probable space group: C 2/C
;
_chemical_formula_sum "Si O2"
_cell_formula_units_Z 44
_cell_length_a 21.623228
_cell_length_b 8.436181
_cell_length_c 25.498529
_cell_angle_alpha 90.000000
_cell_angle_beta 21.839321
_cell_angle_gamma 90.000000
_cell_volume 1730.335279
_symmetry_space_group_name_H-M "C 2/C"
_symmetry_group_IT_number 15
_symmetry_cell_setting 'monoclinic'
loop_
_space_group_symop_operation_xyz
x,y,z
-x,y,1/2-z
-x,-y,-z
x,-y,1/2+z
1/2+x,1/2+y,z
1/2-x,1/2+y,1/2-z
1/2-x,1/2-y,-z
1/2+x,1/2-y,1/2+z
loop_
_atom_site_type_symbol
_atom_site_label
_atom_site_fract_x
_atom_site_fract_y
_atom_site_fract_z
Si Si1 0.873968 0.141444 0.577660
Si Si2 0.500000 0.080735 0.750000
Si Si3 0.372935 0.071844 0.516067
Si Si4 0.600949 0.357284 0.743467
Si Si5 0.660388 0.423068 0.991277
Si Si6 0.665578 0.869013 0.331450
O O1 0.734898 0.273154 0.675332
O O2 0.842405 0.127343 0.664214
O O3 0.050530 0.212965 0.422949
O O4 0.833337 0.994813 0.572703
O O5 0.508009 0.207659 0.791158
O O6 0.338799 0.970372 0.874881
O O7 0.375583 0.236597 0.483393
O O8 0.317026 0.097192 0.620819
O O9 0.229437 0.956885 0.605593
O O10 0.551812 0.990654 0.386348
O O11 0.473317 0.474693 0.871256
#
# Coordination Sequence:
#
# PCOD9284275 Si02
#       6
#     8   4   8   8   8   8
#     4  10  21  40  68  94 135 180 220 257 325 404
#     4  10  24  46  70  90 126 172 228 280 346 378
#     4  10  25  39  64 100 139 167 218 271 326 395
#     4  10  22  44  66  95 129 174 220 280 331 393
#     4  11  23  41  68  99 126 174 229 275 328 397
#     4  10  22  42  63  98 141 179 207 263 329 396
#
# _framework density 25.428595999999999
#
# number of rings (size 3 to 8) (size 9 to 14) (size 15 to 20)
#    0.000    1.818    1.818    0.545    5.091    4.364 
#    0.000    1.818    0.000    0.000    0.000    0.000 
#    0.000    0.000    0.000    0.000    0.000    0.000 
#
# Total GULP energy -123074.503656 kJ/mol
# GULP energy per Si atom -5594.295621 kJ/mol
# Density = 2.537072 g / cm^3
# Si number density = 25.428596 Si / 1000 Ang^3
#
#
#
# Elastic Constant Matrix: (Units=GPa)
#
#
# Indices 1 2 3 4 5 6 
#
# 1 48.5352 29.5607 31.1374 -0.0009 -18.9184 -0.0002
# 2 29.5607 132.9622 33.6421 -0.0012 -26.5877 -0.0010
# 3 31.1374 33.6421 116.0660 -0.0168 -24.0532 -0.0006
# 4 -0.0009 -0.0012 -0.0168 24.7493 0.0017 -10.8323
# 5 -18.9184 -26.5877 -24.0532 0.0017 39.1062 0.0000
# 6 -0.0002 -0.0010 -0.0006 -10.8323 0.0000 45.3826
#
#
#
# Elastic Compliance Matrix: (Units=1/GPa)
#
#
# Indices 1 2 3 4 5 6 
#
# 1 0.029385 -0.003510 -0.005059 -0.000004 0.008717 -0.000001
# 2 -0.003510 0.009353 -0.000921 -0.000001 0.004095 0.000000
# 3 -0.005059 -0.000921 0.011006 0.000008 0.003696 0.000002
# 4 -0.000004 -0.000001 0.000008 0.045119 0.000001 0.010769
# 5 0.008717 0.004095 0.003696 0.000001 0.034846 0.000000
# 6 -0.000001 0.000000 0.000002 0.010769 0.000000 0.024605
#
#
# Mechanical properties :
#
#
# Convention : Reuss Voigt Hill
#
# Bulk Modulus (GPa) = 32.50544 54.02708 43.26626
# Shear Modulus (GPa) = 27.24080 35.39583 31.31832
#
# Velocity S-wave (km/s) = 3.27657 3.73496 3.51325
# Velocity P-wave (km/s) = 5.20820 6.31606 5.78869
#
# Compressibility (1/GPa) = 0.03076408
#
# Stress axis : x y z
#
# Youngs Moduli (GPa) = 34.03108 106.91747 90.86038
#
# Poissons Ratio (x) = 0.37525 0.45969
# Poissons Ratio (y) = 0.11944 0.08367
# Poissons Ratio (z) = 0.17217 0.09846
#
# Static dielectric constant tensor:
#      x y z
#    x 2.098290 -0.000010 0.014060 
#    y -0.000010 2.086900 0.000010 
#    z 0.014060 0.000010 2.009080 
# 
# From -- ./inp_files/319457.got.cif
#   From: 2010.05.17/outbox.cif.g08.bks.cpg/sg15_160_cif.got.tgz:319457.got - 2010.06.03 18:47:42.
