data_PCOD9284934
_publ_section_title
;
Structure prediction by ZEFSAII (Michael W. Deem and Ramdas Pophale) SiO2 
 PCOD9284934
Probable space group: C 2/C
;
_chemical_formula_sum "Si O2"
_cell_formula_units_Z 40
_cell_length_a 22.149483
_cell_length_b 8.559227
_cell_length_c 8.407663
_cell_angle_alpha 90.000000
_cell_angle_beta 94.094283
_cell_angle_gamma 90.000000
_cell_volume 1589.877486
_symmetry_space_group_name_H-M "C 2/C"
_symmetry_group_IT_number 15
_symmetry_cell_setting 'monoclinic'
loop_
_space_group_symop_operation_xyz
x,y,z
-x,y,1/2-z
-x,-y,-z
x,-y,1/2+z
1/2+x,1/2+y,z
1/2-x,1/2+y,1/2-z
1/2-x,1/2-y,-z
1/2+x,1/2-y,1/2+z
loop_
_atom_site_type_symbol
_atom_site_label
_atom_site_fract_x
_atom_site_fract_y
_atom_site_fract_z
Si Si1 0.625619 0.836518 0.583822
Si Si2 0.087357 0.327954 0.943078
Si Si3 0.519874 0.333420 0.937025
Si Si4 0.310075 0.317211 0.838277
Si Si5 0.753528 0.501460 0.898930
O O1 0.589957 0.704769 0.480139
O O2 0.697442 0.862648 0.581737
O O3 0.600704 0.999449 0.508976
O O4 0.608934 0.816600 0.765858
O O5 0.127499 0.210733 0.058941
O O6 0.018155 0.287554 0.962206
O O7 0.500000 0.316296 0.750000
O O8 0.500000 0.500000 0.000000
O O9 0.306611 0.429100 0.687257
O O10 0.284595 0.142599 0.804750
O O11 0.263281 0.409152 0.943913
#
# Coordination Sequence:
#
# PCOD9284934 Si02
#       5
#     8   8   8   8   8
#     4  11  22  42  70  97 133 180 228 283 341 416
#     4  11  24  44  69  98 136 182 235 285 346 418
#     4  12  27  46  69 100 136 177 230 291 352 411
#     4  10  23  40  64  98 134 179 226 283 343 413
#     4  10  21  41  65  96 135 174 227 280 344 412
#
# _framework density 25.159172999999999
#
# number of rings (size 3 to 8) (size 9 to 14) (size 15 to 20)
#    0.000    1.200    0.000    7.200    0.000    7.200 
#    0.000    4.000    0.000    0.000    0.000    0.000 
#    0.000    0.000    0.000    0.000    0.000    0.000 
#
# Total GULP energy -112037.759586 kJ/mol
# GULP energy per Si atom -5601.887979 kJ/mol
# Density = 2.510191 g / cm^3
# Si number density = 25.159173 Si / 1000 Ang^3
#
#
#
# Elastic Constant Matrix: (Units=GPa)
#
#
# Indices 1 2 3 4 5 6 
#
# 1 100.0963 30.7165 50.3295 0.0000 0.5688 0.0000
# 2 30.7165 74.8066 49.6009 0.0000 16.9232 0.0000
# 3 50.3295 49.6009 132.7804 0.0000 7.7080 0.0000
# 4 0.0000 0.0000 0.0000 38.4111 0.0000 7.1050
# 5 0.5688 16.9232 7.7080 0.0000 37.7619 0.0000
# 6 0.0000 0.0000 0.0000 7.1050 0.0000 49.1430
#
#
#
# Elastic Compliance Matrix: (Units=1/GPa)
#
#
# Indices 1 2 3 4 5 6 
#
# 1 0.012877 -0.003233 -0.003791 0.000000 0.002029 0.000000
# 2 -0.003233 0.020422 -0.005946 0.000000 -0.007890 0.000000
# 3 -0.003791 -0.005946 0.011164 0.000000 0.000443 0.000000
# 4 0.000000 0.000000 0.000000 0.026749 0.000000 -0.003867
# 5 0.002029 -0.007890 0.000443 0.000000 0.029897 0.000000
# 6 0.000000 0.000000 0.000000 -0.003867 0.000000 0.020908
#
#
# Mechanical properties :
#
#
# Convention : Reuss Voigt Hill
#
# Bulk Modulus (GPa) = 53.98336 63.21966 58.60151
# Shear Modulus (GPa) = 32.44003 36.86563 34.65283
#
# Velocity S-wave (km/s) = 3.59471 3.83207 3.71528
# Velocity P-wave (km/s) = 6.22355 6.69045 6.46122
#
# Compressibility (1/GPa) = 0.01852423
#
# Stress axis : x y z
#
# Youngs Moduli (GPa) = 77.65730 48.96597 89.57751
#
# Poissons Ratio (x) = 0.15829 0.33960
# Poissons Ratio (y) = 0.25104 0.53259
# Poissons Ratio (z) = 0.29441 0.29113
#
# Static dielectric constant tensor:
#      x y z
#    x 1.975930 0.000000 -0.004340 
#    y 0.000000 1.950950 0.000000 
#    z -0.004340 0.000000 2.008710 
# 
# From -- ./inp_files/60072.got.cif
#   From: 2010.05.17/outbox.cif.g08.bks.cpg/sg15_31_cif.got.tgz:60072.got - 2010.06.03 18:47:42.
