data_PCOD9284407
_publ_section_title
;
Structure prediction by ZEFSAII (Michael W. Deem and Ramdas Pophale) SiO2 
 PCOD9284407
Probable space group: C 2/C
;
_chemical_formula_sum "Si O2"
_cell_formula_units_Z 60
_cell_length_a 27.285820
_cell_length_b 5.266068
_cell_length_c 17.595896
_cell_angle_alpha 90.000000
_cell_angle_beta 87.013773
_cell_angle_gamma 90.000000
_cell_volume 2524.903149
_symmetry_space_group_name_H-M "C 2/C"
_symmetry_group_IT_number 15
_symmetry_cell_setting 'monoclinic'
loop_
_space_group_symop_operation_xyz
x,y,z
-x,y,1/2-z
-x,-y,-z
x,-y,1/2+z
1/2+x,1/2+y,z
1/2-x,1/2+y,1/2-z
1/2-x,1/2-y,-z
1/2+x,1/2-y,1/2+z
loop_
_atom_site_type_symbol
_atom_site_label
_atom_site_fract_x
_atom_site_fract_y
_atom_site_fract_z
Si Si1 0.000000 0.228858 0.250000
Si Si2 0.248907 0.577417 0.799024
Si Si3 0.642007 0.922873 0.847767
Si Si4 0.408653 0.569724 0.171419
Si Si5 0.957683 0.561217 0.898512
Si Si6 0.638373 0.787997 0.021340
Si Si7 0.199566 0.787293 0.052174
Si Si8 0.042488 0.805021 0.979854
O O1 0.961476 0.058515 0.206754
O O2 0.968522 0.400552 0.310048
O O3 0.237304 0.842453 0.756944
O O4 0.199308 0.475443 0.841705
O O5 0.287029 0.637625 0.862585
O O6 0.625717 0.665677 0.808051
O O7 0.615870 0.160764 0.811037
O O8 0.627515 0.890869 0.937147
O O9 0.418313 0.578913 0.079896
O O10 0.913148 0.741137 0.929511
O O11 0.012207 0.601970 0.930512
O O12 0.940844 0.305473 0.941397
O O13 0.669117 0.526204 0.020568
O O14 0.670662 0.019548 0.053547
O O15 0.250000 0.750000 0.000000
O O16 0.000000 0.000000 0.000000
#
# Coordination Sequence:
#
# PCOD9284407 Si02
#       8
#     4   8   8   8   8   8   8   8
#     4  10  26  48  66 102 158 194 236 302 382 442
#     4  12  28  49  75 110 154 198 234 302 390 453
#     4  12  25  46  77 107 142 191 258 303 361 446
#     4  11  25  44  72 106 141 195 244 303 364 435
#     4  10  23  43  66 104 139 191 241 302 365 430
#     4  12  25  44  80 111 141 189 261 313 354 440
#     4  12  27  48  78 111 150 191 249 314 378 432
#     4  10  21  40  70  97 137 184 244 303 353 427
#
# _framework density 23.763287999999999
#
# number of rings (size 3 to 8) (size 9 to 14) (size 15 to 20)
#    0.000    0.800    2.667    3.600    7.467    3.733 
#    2.400    0.000    0.000    0.000    0.000    0.000 
#    0.000    0.000    0.000    0.000    0.000    0.000 
#
# Total GULP energy -167770.437205 kJ/mol
# GULP energy per Si atom -5592.347907 kJ/mol
# Density = 2.370920 g / cm^3
# Si number density = 23.763288 Si / 1000 Ang^3
#
#
#
# Elastic Constant Matrix: (Units=GPa)
#
#
# Indices 1 2 3 4 5 6 
#
# 1 108.4043 42.6098 20.3517 0.0000 3.8845 0.0000
# 2 42.6098 156.5069 23.0210 0.0000 14.9464 0.0000
# 3 20.3517 23.0210 91.7888 0.0000 4.5846 0.0000
# 4 0.0000 0.0000 0.0000 11.7542 0.0000 -0.2455
# 5 3.8845 14.9464 4.5846 0.0000 45.6104 0.0000
# 6 0.0000 0.0000 0.0000 -0.2455 0.0000 44.2802
#
#
#
# Elastic Compliance Matrix: (Units=1/GPa)
#
#
# Indices 1 2 3 4 5 6 
#
# 1 0.010576 -0.002644 -0.001689 0.000000 0.000135 0.000000
# 2 -0.002644 0.007485 -0.001186 0.000000 -0.002108 0.000000
# 3 -0.001689 -0.001186 0.011598 0.000000 -0.000633 0.000000
# 4 0.000000 0.000000 0.000000 0.085086 0.000000 0.000472
# 5 0.000135 -0.002108 -0.000633 0.000000 0.022668 0.000000
# 6 0.000000 0.000000 0.000000 0.000472 0.000000 0.022586
#
#
# Mechanical properties :
#
#
# Convention : Reuss Voigt Hill
#
# Bulk Modulus (GPa) = 53.69825 58.74056 56.21941
# Shear Modulus (GPa) = 28.20984 38.37680 33.29332
#
# Velocity S-wave (km/s) = 3.44920 4.02302 3.74711
# Velocity P-wave (km/s) = 6.20555 6.80825 6.51387
#
# Compressibility (1/GPa) = 0.01862258
#
# Stress axis : x y z
#
# Youngs Moduli (GPa) = 94.55243 133.59873 86.22170
#
# Poissons Ratio (x) = 0.35323 0.14560
# Poissons Ratio (y) = 0.24999 0.10224
# Poissons Ratio (z) = 0.15966 0.15841
#
# Static dielectric constant tensor:
#      x y z
#    x 1.879430 0.000000 -0.003410 
#    y 0.000000 1.976690 0.000000 
#    z -0.003410 0.000000 1.921210 
# 
# From -- ./inp_files/223653.got.cif
#   From: 2010.05.17/outbox.cif.g08.bks.cpg/sg15_112_cif.got.tgz:223653.got - 2010.06.03 18:47:42.
