data_PCOD9284506
_publ_section_title
;
Structure prediction by ZEFSAII (Michael W. Deem and Ramdas Pophale) SiO2 
 PCOD9284506
Probable space group: C 2/C
;
_chemical_formula_sum "Si O2"
_cell_formula_units_Z 60
_cell_length_a 6.686586
_cell_length_b 22.966654
_cell_length_c 20.730146
_cell_angle_alpha 90.000000
_cell_angle_beta 98.659756
_cell_angle_gamma 90.000000
_cell_volume 3147.205341
_symmetry_space_group_name_H-M "C 2/C"
_symmetry_group_IT_number 15
_symmetry_cell_setting 'monoclinic'
loop_
_space_group_symop_operation_xyz
x,y,z
-x,y,1/2-z
-x,-y,-z
x,-y,1/2+z
1/2+x,1/2+y,z
1/2-x,1/2+y,1/2-z
1/2-x,1/2-y,-z
1/2+x,1/2-y,1/2+z
loop_
_atom_site_type_symbol
_atom_site_label
_atom_site_fract_x
_atom_site_fract_y
_atom_site_fract_z
Si Si1 0.726361 0.123163 0.003265
Si Si2 0.928489 0.097716 0.384107
Si Si3 0.500000 0.547622 0.250000
Si Si4 0.513000 0.704783 0.563863
Si Si5 0.542443 0.614615 0.827725
Si Si6 0.355570 0.169324 0.048126
Si Si7 0.622128 0.964729 0.191731
Si Si8 0.276433 0.526338 0.899691
O O1 0.498948 0.126049 0.016179
O O2 0.870895 0.122183 0.072523
O O3 0.765515 0.066705 0.961574
O O4 0.788791 0.178712 0.961823
O O5 0.744499 0.139408 0.394996
O O6 0.947489 0.085894 0.309557
O O7 0.890120 0.034173 0.413309
O O8 0.304047 0.508301 0.221008
O O9 0.485360 0.671178 0.629857
O O10 0.489260 0.773693 0.569665
O O11 0.329323 0.686013 0.507844
O O12 0.500000 0.623701 0.750000
O O13 0.768120 0.588342 0.839087
O O14 0.395680 0.565567 0.852177
O O15 0.500000 0.946619 0.250000
O O16 0.447545 0.988930 0.137047
#
# Coordination Sequence:
#
# PCOD9284506 Si02
#       8
#     8   8   4   8   8   8   8   8
#     4  10  22  38  62  89 116 147 196 252 288 341
#     4  11  23  38  58  85 122 156 193 235 288 350
#     4  12  24  40  56  84 126 160 186 232 284 364
#     4   9  21  39  62  80 117 150 196 247 294 341
#     4  11  19  35  56  88 120 143 188 248 293 342
#     4  10  21  41  60  84 108 160 200 236 294 346
#     4  12  19  35  59  84 114 156 189 223 289 359
#     4  11  22  36  59  91 117 156 187 235 302 345
#
# _framework density 19.064533000000001
#
# number of rings (size 3 to 8) (size 9 to 14) (size 15 to 20)
#    0.000    1.333    4.667    1.600    1.867    0.533 
#    0.000    1.333    1.467    0.000    0.000    0.000 
#    0.000    0.000    0.000    0.000    0.000    0.000 
#
# Total GULP energy -167465.150907 kJ/mol
# GULP energy per Si atom -5582.171697 kJ/mol
# Density = 1.902114 g / cm^3
# Si number density = 19.064533 Si / 1000 Ang^3
#
#
#
# Elastic Constant Matrix: (Units=GPa)
#
#
# Indices 1 2 3 4 5 6 
#
# 1 73.2731 1.3801 28.5278 0.0000 -17.3448 0.0000
# 2 1.3801 63.5944 30.0388 0.0000 -12.2864 0.0000
# 3 28.5278 30.0388 75.2127 0.0000 -18.6368 0.0000
# 4 0.0000 0.0000 0.0000 25.2895 0.0000 -1.1088
# 5 -17.3448 -12.2864 -18.6368 0.0000 25.9585 0.0000
# 6 0.0000 0.0000 0.0000 -1.1088 0.0000 15.1554
#
#
#
# Elastic Compliance Matrix: (Units=1/GPa)
#
#
# Indices 1 2 3 4 5 6 
#
# 1 0.018353 0.004487 -0.006311 0.000000 0.009856 0.000000
# 2 0.004487 0.020900 -0.008338 0.000000 0.006904 0.000000
# 3 -0.006311 -0.008338 0.020675 0.000000 0.006680 0.000000
# 4 0.000000 0.000000 0.000000 0.039669 0.000000 0.002902
# 5 0.009856 0.006904 0.006680 0.000000 0.053172 0.000000
# 6 0.000000 0.000000 0.000000 0.002902 0.000000 0.066195
#
#
# Mechanical properties :
#
#
# Convention : Reuss Voigt Hill
#
# Bulk Modulus (GPa) = 25.25082 36.88594 31.06838
# Shear Modulus (GPa) = 19.80279 23.42292 21.61285
#
# Velocity S-wave (km/s) = 3.22642 3.50896 3.37065
# Velocity P-wave (km/s) = 5.21089 5.98390 5.61072
#
# Compressibility (1/GPa) = 0.03960267
#
# Stress axis : x y z
#
# Youngs Moduli (GPa) = 54.48638 47.84781 48.36822
#
# Poissons Ratio (x) = -0.21469 0.30526
# Poissons Ratio (y) = -0.24447 0.40330
# Poissons Ratio (z) = 0.34387 0.39896
#
# Static dielectric constant tensor:
#      x y z
#    x 1.676030 0.000000 0.001870 
#    y 0.000000 1.665360 0.000000 
#    z 0.001870 0.000000 1.653490 
# 
# From -- ./inp_files/228135.got.cif
#   From: 2010.05.17/outbox.cif.g08.bks.cpg/sg15_115_cif.got.tgz:228135.got - 2010.06.03 18:47:42.
