data_PCOD9284868
_publ_section_title
;
Structure prediction by ZEFSAII (Michael W. Deem and Ramdas Pophale) SiO2 
 PCOD9284868
Probable space group: C 2/C
;
_chemical_formula_sum "Si O2"
_cell_formula_units_Z 32
_cell_length_a 12.098237
_cell_length_b 9.986909
_cell_length_c 28.063851
_cell_angle_alpha 90.000000
_cell_angle_beta 25.309808
_cell_angle_gamma 90.000000
_cell_volume 1449.604023
_symmetry_space_group_name_H-M "C 2/C"
_symmetry_group_IT_number 15
_symmetry_cell_setting 'monoclinic'
loop_
_space_group_symop_operation_xyz
x,y,z
-x,y,1/2-z
-x,-y,-z
x,-y,1/2+z
1/2+x,1/2+y,z
1/2-x,1/2+y,1/2-z
1/2-x,1/2-y,-z
1/2+x,1/2-y,1/2+z
loop_
_atom_site_type_symbol
_atom_site_label
_atom_site_fract_x
_atom_site_fract_y
_atom_site_fract_z
Si Si1 0.049929 0.080735 0.058514
Si Si2 0.028733 0.543379 0.042831
Si Si3 0.608184 0.160845 0.830696
Si Si4 0.211847 0.819909 0.344536
O O1 0.888630 0.963157 0.097487
O O2 0.195416 0.008342 0.046010
O O3 0.880203 0.203117 0.143433
O O4 0.303313 0.142692 0.934254
O O5 0.842127 0.463133 0.152872
O O6 0.978064 0.700008 0.067674
O O7 0.000000 0.500000 0.000000
O O8 0.766886 0.170433 0.721013
O O9 0.500000 0.789568 0.250000
#
# Coordination Sequence:
#
# PCOD9284868 Si02
#       4
#     8   8   8   8
#     4   9  21  42  61  88 128 162 207 262 317 359
#     4  10  21  41  65  90 121 168 207 261 316 366
#     4   9  21  41  64  86 127 162 209 260 315 370
#     4  12  23  37  63  95 124 168 212 253 315 382
#
# _framework density 22.074992999999999
#
# number of rings (size 3 to 8) (size 9 to 14) (size 15 to 20)
#    1.500    0.500    0.000    3.750    0.000    1.000 
#    0.000    1.250    0.000    0.000    0.000    0.000 
#    0.000    0.000    0.000    0.000    0.000    0.000 
#
# Total GULP energy -89231.800933 kJ/mol
# GULP energy per Si atom -5576.987558 kJ/mol
# Density = 2.202475 g / cm^3
# Si number density = 22.074993 Si / 1000 Ang^3
#
#
#
# Elastic Constant Matrix: (Units=GPa)
#
#
# Indices 1 2 3 4 5 6 
#
# 1 50.0815 -9.7131 5.3093 0.0002 16.3261 -0.0016
# 2 -9.7131 138.7967 15.0188 0.0054 10.2352 -0.0061
# 3 5.3093 15.0188 31.4871 -0.0358 25.9205 0.0203
# 4 0.0002 0.0054 -0.0358 12.6534 0.0075 12.1981
# 5 16.3261 10.2352 25.9205 0.0075 36.6022 -0.0056
# 6 -0.0016 -0.0061 0.0203 12.1981 -0.0056 14.9467
#
#
#
# Elastic Compliance Matrix: (Units=1/GPa)
#
#
# Indices 1 2 3 4 5 6 
#
# 1 0.025661 0.002067 0.010997 0.000281 -0.019812 -0.000248
# 2 0.002067 0.007781 -0.003621 -0.000099 -0.000533 0.000089
# 3 0.010997 -0.003621 0.083544 0.001914 -0.063056 -0.001700
# 4 0.000281 -0.000099 0.001914 0.370628 -0.001575 -0.302475
# 5 -0.019812 -0.000533 -0.063056 -0.001575 0.080962 0.001399
# 6 -0.000248 0.000089 -0.001700 -0.302475 0.001399 0.313758
#
#
# Mechanical properties :
#
#
# Convention : Reuss Voigt Hill
#
# Bulk Modulus (GPa) = 7.35992 26.84390 17.10191
# Shear Modulus (GPa) = 5.50214 26.82381 16.16297
#
# Velocity S-wave (km/s) = 1.58047 3.48964 2.70883
# Velocity P-wave (km/s) = 2.58298 5.33137 4.18899
#
# Compressibility (1/GPa) = 0.13587095
#
# Stress axis : x y z
#
# Youngs Moduli (GPa) = 38.96982 128.52566 11.96980
#
# Poissons Ratio (x) = -0.26563 -0.13163
# Poissons Ratio (y) = -0.08054 0.04334
# Poissons Ratio (z) = -0.42855 0.46535
#
# Static dielectric constant tensor:
#      x y z
#    x 1.807380 0.000000 0.009300 
#    y 0.000000 1.822460 0.000000 
#    z 0.009300 0.000000 1.851150 
# 
# From -- ./inp_files/140775.got.cif
#   From: 2010.05.17/outbox.cif.g08.bks.cpg/sg15_71_cif.got.tgz:140775.got - 2010.06.03 18:47:42.
