data_PCOD9284394
_publ_section_title
;
Structure prediction by ZEFSAII (Michael W. Deem and Ramdas Pophale) SiO2 
 PCOD9284394
Probable space group: C 2/C
;
_chemical_formula_sum "Si O2"
_cell_formula_units_Z 44
_cell_length_a 15.137545
_cell_length_b 18.248750
_cell_length_c 13.236400
_cell_angle_alpha 90.000000
_cell_angle_beta 147.088076
_cell_angle_gamma 90.000000
_cell_volume 1986.723656
_symmetry_space_group_name_H-M "C 2/C"
_symmetry_group_IT_number 15
_symmetry_cell_setting 'monoclinic'
loop_
_space_group_symop_operation_xyz
x,y,z
-x,y,1/2-z
-x,-y,-z
x,-y,1/2+z
1/2+x,1/2+y,z
1/2-x,1/2+y,1/2-z
1/2-x,1/2-y,-z
1/2+x,1/2-y,1/2+z
loop_
_atom_site_type_symbol
_atom_site_label
_atom_site_fract_x
_atom_site_fract_y
_atom_site_fract_z
Si Si1 0.636614 0.010813 0.523751
Si Si2 0.456977 0.732279 0.016367
Si Si3 0.225724 0.640558 0.219976
Si Si4 0.500000 0.817276 0.250000
Si Si5 0.238283 0.464006 0.907191
Si Si6 0.727547 0.101447 0.806194
O O1 0.450516 0.017410 0.306001
O O2 0.743654 0.038061 0.532287
O O3 0.653018 0.063574 0.635364
O O4 0.687912 0.928851 0.609872
O O5 0.428480 0.804554 0.921278
O O6 0.333880 0.668490 0.871493
O O7 0.631227 0.693474 0.181230
O O8 0.417732 0.763902 0.089850
O O9 0.276038 0.606140 0.375855
O O10 0.383796 0.866635 0.209224
O O11 0.331788 0.535571 0.956461
#
# Coordination Sequence:
#
# PCOD9284394 Si02
#       6
#     8   8   8   4   8   8
#     4  10  22  42  69  95 128 169 224 260 320 379
#     4  12  25  39  63  99 138 162 214 266 334 379
#     4  11  24  42  66  99 130 173 209 273 317 387
#     4  12  22  40  64  96 128 170 202 270 332 380
#     4  10  21  40  70  94 127 174 218 261 318 386
#     4  11  22  39  65  95 128 166 216 272 308 390
#
# _framework density 22.147013999999999
#
# number of rings (size 3 to 8) (size 9 to 14) (size 15 to 20)
#    0.000    1.091    1.818    7.091    2.545    2.909 
#    0.000    3.636    4.000    0.000    0.000    0.000 
#    0.000    0.000    0.000    0.000    0.000    0.000 
#
# Total GULP energy -122782.948827 kJ/mol
# GULP energy per Si atom -5581.043128 kJ/mol
# Density = 2.209661 g / cm^3
# Si number density = 22.147014 Si / 1000 Ang^3
#
#
#
# Elastic Constant Matrix: (Units=GPa)
#
#
# Indices 1 2 3 4 5 6 
#
# 1 101.1401 54.0353 33.7679 0.0000 -32.3964 0.0000
# 2 54.0353 159.0016 51.0831 0.0000 -3.0304 0.0000
# 3 33.7679 51.0831 49.2123 0.0000 -6.5826 0.0000
# 4 0.0000 0.0000 0.0000 26.5722 0.0000 -1.4475
# 5 -32.3964 -3.0304 -6.5826 0.0000 32.7185 0.0000
# 6 0.0000 0.0000 0.0000 -1.4475 0.0000 36.8000
#
#
#
# Elastic Compliance Matrix: (Units=1/GPa)
#
#
# Indices 1 2 3 4 5 6 
#
# 1 0.020476 -0.004330 -0.007088 0.000000 0.018447 0.000000
# 2 -0.004330 0.010392 -0.008489 0.000000 -0.005033 0.000000
# 3 -0.007088 -0.008489 0.033863 0.000000 -0.000992 0.000000
# 4 0.000000 0.000000 0.000000 0.037714 0.000000 0.001484
# 5 0.018447 -0.005033 -0.000992 0.000000 0.048164 0.000000
# 6 0.000000 0.000000 0.000000 0.001484 0.000000 0.027232
#
#
# Mechanical properties :
#
#
# Convention : Reuss Voigt Hill
#
# Bulk Modulus (GPa) = 40.13356 65.23629 52.68493
# Shear Modulus (GPa) = 22.12766 30.58265 26.35515
#
# Velocity S-wave (km/s) = 3.16432 3.72007 3.45339
# Velocity P-wave (km/s) = 5.61350 6.92617 6.30409
#
# Compressibility (1/GPa) = 0.02491680
#
# Stress axis : x y z
#
# Youngs Moduli (GPa) = 48.83809 96.22593 29.53050
#
# Poissons Ratio (x) = 0.41663 0.20931
# Poissons Ratio (y) = 0.21146 0.25070
# Poissons Ratio (z) = 0.34617 0.81691
#
# Static dielectric constant tensor:
#      x y z
#    x 1.859100 0.000000 0.068350 
#    y 0.000000 1.855690 0.000000 
#    z 0.068350 0.000000 1.927200 
# 
# From -- ./inp_files/163133.got.cif
#   From: 2010.05.17/outbox.cif.g08.bks.cpg/sg15_82_cif.got.tgz:163133.got - 2010.06.03 18:47:42.
