data_PCOD9284111
_publ_section_title
;
Structure prediction by ZEFSAII (Michael W. Deem and Ramdas Pophale) SiO2 
 PCOD9284111
Probable space group: C 2/C
;
_chemical_formula_sum "Si O2"
_cell_formula_units_Z 52
_cell_length_a 21.492861
_cell_length_b 9.578102
_cell_length_c 13.359957
_cell_angle_alpha 90.000000
_cell_angle_beta 57.479541
_cell_angle_gamma 90.000000
_cell_volume 2319.044627
_symmetry_space_group_name_H-M "C 2/C"
_symmetry_group_IT_number 15
_symmetry_cell_setting 'monoclinic'
loop_
_space_group_symop_operation_xyz
x,y,z
-x,y,1/2-z
-x,-y,-z
x,-y,1/2+z
1/2+x,1/2+y,z
1/2-x,1/2+y,1/2-z
1/2-x,1/2-y,-z
1/2+x,1/2-y,1/2+z
loop_
_atom_site_type_symbol
_atom_site_label
_atom_site_fract_x
_atom_site_fract_y
_atom_site_fract_z
Si Si1 0.411453 0.013089 0.012456
Si Si2 0.826508 0.904567 0.130792
Si Si3 0.125571 0.156251 0.136802
Si Si4 0.512726 0.750012 0.501152
Si Si5 0.962991 0.015115 0.655701
Si Si6 0.000000 0.391894 0.250000
Si Si7 0.743672 0.874686 0.815637
O O1 0.468747 0.015982 0.868877
O O2 0.421112 0.861978 0.055221
O O3 0.443740 0.144370 0.048379
O O4 0.326002 0.048752 0.070871
O O5 0.897173 0.938884 0.136870
O O6 0.784639 0.768941 0.204791
O O7 0.773751 0.033643 0.198566
O O8 0.845902 0.867851 0.999717
O O9 0.072175 0.290440 0.197744
O O10 0.192736 0.155386 0.157364
O O11 0.074437 0.023610 0.208268
O O12 0.514481 0.648833 0.595607
O O13 0.512732 0.635325 0.411635
#
# Coordination Sequence:
#
# PCOD9284111 Si02
#       7
#     8   8   8   8   8   4   8
#     4  11  23  41  67 100 137 171 224 285 339 396
#     4  11  24  44  66  95 130 178 225 272 334 410
#     4  11  24  43  70  97 130 179 232 271 335 418
#     4  10  21  40  66  98 131 173 218 280 337 396
#     4  10  21  43  68  96 131 177 224 270 338 401
#     4  12  22  42  68 104 128 178 232 282 340 404
#     4  11  25  44  67  96 135 181 221 277 341 408
#
# _framework density 22.423027999999999
#
# number of rings (size 3 to 8) (size 9 to 14) (size 15 to 20)
#    0.000    1.231    4.615    0.462    6.462    0.000 
#    2.769    3.077    0.000    0.000    0.000    0.000 
#    0.000    0.000    0.000    0.000    0.000    0.000 
#
# Total GULP energy -145023.072425 kJ/mol
# GULP energy per Si atom -5577.810478 kJ/mol
# Density = 2.237199 g / cm^3
# Si number density = 22.423028 Si / 1000 Ang^3
#
#
#
# Elastic Constant Matrix: (Units=GPa)
#
#
# Indices 1 2 3 4 5 6 
#
# 1 86.3848 23.8163 2.2141 0.0000 -31.0128 0.0000
# 2 23.8163 148.2091 29.8648 0.0000 -7.9945 0.0000
# 3 2.2141 29.8648 80.8023 0.0000 -5.8683 0.0000
# 4 0.0000 0.0000 0.0000 39.2460 0.0000 -4.0282
# 5 -31.0128 -7.9945 -5.8683 0.0000 26.1323 0.0000
# 6 0.0000 0.0000 0.0000 -4.0282 0.0000 25.3448
#
#
#
# Elastic Compliance Matrix: (Units=1/GPa)
#
#
# Indices 1 2 3 4 5 6 
#
# 1 0.021092 -0.002485 0.002138 0.000000 0.024752 0.000000
# 2 -0.002485 0.007654 -0.002851 0.000000 -0.001248 0.000000
# 3 0.002138 -0.002851 0.013716 0.000000 0.004745 0.000000
# 4 0.000000 0.000000 0.000000 0.025903 0.000000 0.004117
# 5 0.024752 -0.001248 0.004745 0.000000 0.068325 0.000000
# 6 0.000000 0.000000 0.000000 0.004117 0.000000 0.040110
#
#
# Mechanical properties :
#
#
# Convention : Reuss Voigt Hill
#
# Bulk Modulus (GPa) = 27.72754 47.46518 37.59636
# Shear Modulus (GPa) = 25.61234 35.44469 30.52851
#
# Velocity S-wave (km/s) = 3.38336 3.98015 3.69383
# Velocity P-wave (km/s) = 5.25883 6.50662 5.91572
#
# Compressibility (1/GPa) = 0.03606523
#
# Stress axis : x y z
#
# Youngs Moduli (GPa) = 47.41033 130.65362 72.90847
#
# Poissons Ratio (x) = 0.32470 -0.15589
# Poissons Ratio (y) = 0.11782 0.20789
# Poissons Ratio (z) = -0.10137 0.37255
#
# Static dielectric constant tensor:
#      x y z
#    x 1.942040 0.000000 0.009300 
#    y 0.000000 1.851740 0.000000 
#    z 0.009300 0.000000 1.964290 
# 
# From -- ./inp_files/176483.got.cif
#   From: 2010.05.17/outbox.cif.g08.bks.cpg/sg15_89_cif.got.tgz:176483.got - 2010.06.03 18:47:42.
