data_PCOD9284412
_publ_section_title
;
Structure prediction by ZEFSAII (Michael W. Deem and Ramdas Pophale) SiO2 
 PCOD9284412
Probable space group: C 2/C
;
_chemical_formula_sum "Si O2"
_cell_formula_units_Z 36
_cell_length_a 6.890226
_cell_length_b 17.724564
_cell_length_c 15.464766
_cell_angle_alpha 90.000000
_cell_angle_beta 126.878467
_cell_angle_gamma 90.000000
_cell_volume 1510.753623
_symmetry_space_group_name_H-M "C 2/C"
_symmetry_group_IT_number 15
_symmetry_cell_setting 'monoclinic'
loop_
_space_group_symop_operation_xyz
x,y,z
-x,y,1/2-z
-x,-y,-z
x,-y,1/2+z
1/2+x,1/2+y,z
1/2-x,1/2+y,1/2-z
1/2-x,1/2-y,-z
1/2+x,1/2-y,1/2+z
loop_
_atom_site_type_symbol
_atom_site_label
_atom_site_fract_x
_atom_site_fract_y
_atom_site_fract_z
Si Si1 0.222978 0.993472 0.899212
Si Si2 0.598253 0.609537 0.587190
Si Si3 0.000000 0.852444 0.750000
Si Si4 0.465261 0.272796 0.917847
Si Si5 0.355349 0.875682 0.326511
O O1 0.232004 0.047611 0.819446
O O2 0.044403 0.033877 0.921187
O O3 0.165487 0.910273 0.849703
O O4 0.500000 0.000000 0.000000
O O5 0.435578 0.662958 0.482243
O O6 0.706752 0.648925 0.702105
O O7 0.860854 0.601654 0.610336
O O8 0.904553 0.802248 0.804541
O O9 0.337470 0.191521 0.891059
O O10 0.750000 0.250000 0.000000
#
# Coordination Sequence:
#
# PCOD9284412 Si02
#       5
#     8   8   4   8   8
#     4  12  25  43  66  98 141 180 230 289 345 414
#     4  10  21  42  67  95 136 181 228 278 351 407
#     4  12  24  44  68 102 140 174 236 292 340 410
#     4  10  21  40  71 101 134 183 233 286 349 417
#     4  10  21  42  69  97 135 182 223 285 351 402
#
# _framework density 23.829166000000001
#
# number of rings (size 3 to 8) (size 9 to 14) (size 15 to 20)
#    0.000    1.333    2.222    5.333    0.000    4.444 
#    0.000    2.222    0.000    0.000    0.000    0.000 
#    0.000    0.000    0.000    0.000    0.000    0.000 
#
# Total GULP energy -100274.632349 kJ/mol
# GULP energy per Si atom -5570.812908 kJ/mol
# Density = 2.377493 g / cm^3
# Si number density = 23.829166 Si / 1000 Ang^3
#
#
#
# Elastic Constant Matrix: (Units=GPa)
#
#
# Indices 1 2 3 4 5 6 
#
# 1 82.3915 21.7669 27.5476 0.0000 7.2632 0.0000
# 2 21.7669 85.7290 15.4865 0.0000 -3.1029 0.0000
# 3 27.5476 15.4865 97.2535 0.0000 0.6367 0.0000
# 4 0.0000 0.0000 0.0000 24.0824 0.0000 -40.2118
# 5 7.2632 -3.1029 0.6367 0.0000 45.0541 0.0000
# 6 0.0000 0.0000 0.0000 -40.2118 0.0000 7.8319
#
#
#
# Elastic Compliance Matrix: (Units=1/GPa)
#
#
# Indices 1 2 3 4 5 6 
#
# 1 0.014363 -0.003094 -0.003560 0.000000 -0.002478 0.000000
# 2 -0.003094 0.012709 -0.001157 0.000000 0.001390 0.000000
# 3 -0.003560 -0.001157 0.011473 0.000000 0.000332 0.000000
# 4 0.000000 0.000000 0.000000 -0.005483 0.000000 -0.028152
# 5 -0.002478 0.001390 0.000332 0.000000 0.022686 0.000000
# 6 0.000000 0.000000 0.000000 -0.028152 0.000000 -0.016860
#
#
# Mechanical properties :
#
#
# Convention : Reuss Voigt Hill
#
# Bulk Modulus (GPa) = 43.61933 43.88620 43.75276
# Shear Modulus (GPa) = 80.45107 28.76523 54.60815
#
# Velocity S-wave (km/s) = 5.81678 3.47817 4.79231
# Velocity P-wave (km/s) = 7.96605 5.88109 7.00161
#
# Compressibility (1/GPa) = 0.02292562
#
# Stress axis : x y z
#
# Youngs Moduli (GPa) = 69.62306 78.68205 87.16354
#
# Poissons Ratio (x) = 0.24340 0.31027
# Poissons Ratio (y) = 0.21538 0.10082
# Poissons Ratio (z) = 0.24783 0.09101
#
# Static dielectric constant tensor:
#      x y z
#    x 2.007080 0.000000 -0.065970 
#    y 0.000000 1.959860 0.000000 
#    z -0.065970 0.000000 1.948810 
# 
# From -- ./inp_files/190740.got.cif
#   From: 2010.05.17/outbox.cif.g08.bks.cpg/sg15_96_cif.got.tgz:190740.got - 2010.06.03 18:47:42.
