data_PCOD9284376
_publ_section_title
;
Structure prediction by ZEFSAII (Michael W. Deem and Ramdas Pophale) SiO2 
 PCOD9284376
Probable space group: C 2/C
;
_chemical_formula_sum "Si O2"
_cell_formula_units_Z 56
_cell_length_a 14.126998
_cell_length_b 13.679641
_cell_length_c 18.458313
_cell_angle_alpha 90.000000
_cell_angle_beta 47.828512
_cell_angle_gamma 90.000000
_cell_volume 2643.724059
_symmetry_space_group_name_H-M "C 2/C"
_symmetry_group_IT_number 15
_symmetry_cell_setting 'monoclinic'
loop_
_space_group_symop_operation_xyz
x,y,z
-x,y,1/2-z
-x,-y,-z
x,-y,1/2+z
1/2+x,1/2+y,z
1/2-x,1/2+y,1/2-z
1/2-x,1/2-y,-z
1/2+x,1/2-y,1/2+z
loop_
_atom_site_type_symbol
_atom_site_label
_atom_site_fract_x
_atom_site_fract_y
_atom_site_fract_z
Si Si1 0.818245 0.811700 0.264313
Si Si2 0.112511 0.459689 0.867166
Si Si3 0.848055 0.957872 0.501249
Si Si4 0.036203 0.665454 0.958835
Si Si5 0.361582 0.506354 0.326579
Si Si6 0.130833 0.608614 0.207815
Si Si7 0.100852 0.147559 0.933376
O O1 0.678985 0.797606 0.371857
O O2 0.873096 0.910808 0.269632
O O3 0.894574 0.717509 0.250524
O O4 0.814101 0.820620 0.179413
O O5 0.042592 0.564567 0.909326
O O6 0.229323 0.447929 0.864387
O O7 0.176265 0.446759 0.756581
O O8 0.006141 0.379026 0.941646
O O9 0.842429 0.974859 0.418953
O O10 0.730090 0.896977 0.592548
O O11 0.974867 0.900251 0.460894
O O12 0.844944 0.062878 0.543384
O O13 0.942842 0.757526 0.998182
O O14 0.500000 0.559392 0.250000
O O15 0.000000 0.561337 0.250000
#
# Coordination Sequence:
#
# PCOD9284376 Si02
#       7
#     8   8   8   8   8   8   8
#     4  11  22  39  66  99 131 168 206 282 337 389
#     4  10  24  43  65  95 130 179 211 272 328 387
#     4  11  25  40  65  97 130 175 214 273 315 383
#     4  10  21  40  70  88 130 175 214 262 329 381
#     4  11  23  40  66  93 134 170 220 263 324 392
#     4  12  26  40  68 100 132 166 216 271 340 387
#     4  11  22  43  66  96 132 167 223 268 320 383
#
# _framework density 21.18224
#
# number of rings (size 3 to 8) (size 9 to 14) (size 15 to 20)
#    0.000    1.143    4.286    2.143    8.000    0.571 
#    0.000    0.714    0.000    0.000    0.000    0.000 
#    0.000    0.000    0.000    0.000    0.000    0.000 
#
# Total GULP energy -156146.703816 kJ/mol
# GULP energy per Si atom -5576.667993 kJ/mol
# Density = 2.113403 g / cm^3
# Si number density = 21.182240 Si / 1000 Ang^3
#
#
#
# Elastic Constant Matrix: (Units=GPa)
#
#
# Indices 1 2 3 4 5 6 
#
# 1 49.9208 -6.1734 27.0692 0.0000 -1.3255 0.0000
# 2 -6.1734 65.1064 -0.0593 0.0000 -3.9803 0.0000
# 3 27.0692 -0.0593 119.7612 0.0000 -0.9262 0.0000
# 4 0.0000 0.0000 0.0000 28.6671 0.0000 -4.9028
# 5 -1.3255 -3.9803 -0.9262 0.0000 23.2804 0.0000
# 6 0.0000 0.0000 0.0000 -4.9028 0.0000 12.7648
#
#
#
# Elastic Compliance Matrix: (Units=1/GPa)
#
#
# Indices 1 2 3 4 5 6 
#
# 1 0.023190 0.002286 -0.005229 0.000000 0.001503 0.000000
# 2 0.002286 0.015747 -0.000487 0.000000 0.002803 0.000000
# 3 -0.005229 -0.000487 0.009532 0.000000 -0.000002 0.000000
# 4 0.000000 0.000000 0.000000 0.037336 0.000000 0.014340
# 5 0.001503 0.002803 -0.000002 0.000000 0.043519 0.000000
# 6 0.000000 0.000000 0.000000 0.014340 0.000000 0.083848
#
#
# Mechanical properties :
#
#
# Convention : Reuss Voigt Hill
#
# Bulk Modulus (GPa) = 24.03366 30.71794 27.37580
# Shear Modulus (GPa) = 21.37657 27.20593 24.29125
#
# Velocity S-wave (km/s) = 3.18020 3.58771 3.39008
# Velocity P-wave (km/s) = 4.98554 5.62987 5.31747
#
# Compressibility (1/GPa) = 0.04160831
#
# Stress axis : x y z
#
# Youngs Moduli (GPa) = 43.12293 63.50354 104.91515
#
# Poissons Ratio (x) = -0.14517 0.54857
# Poissons Ratio (y) = -0.09858 0.05112
# Poissons Ratio (z) = 0.22548 0.03094
#
# Static dielectric constant tensor:
#      x y z
#    x 1.774160 0.000000 -0.038090 
#    y 0.000000 1.797080 0.000000 
#    z -0.038090 0.000000 1.778540 
# 
# From -- ./inp_files/205352.got.cif
#   From: 2010.05.17/outbox.cif.g08.bks.cpg/sg15_103_cif.got.tgz:205352.got - 2010.06.03 18:47:42.
