data_PCOD9284022
_publ_section_title
;
Structure prediction by ZEFSAII (Michael W. Deem and Ramdas Pophale) SiO2 
 PCOD9284022
Probable space group: C 2/C
;
_chemical_formula_sum "Si O2"
_cell_formula_units_Z 40
_cell_length_a 16.199362
_cell_length_b 8.159346
_cell_length_c 16.345748
_cell_angle_alpha 90.000000
_cell_angle_beta 122.739176
_cell_angle_gamma 90.000000
_cell_volume 1817.301408
_symmetry_space_group_name_H-M "C 2/C"
_symmetry_group_IT_number 15
_symmetry_cell_setting 'monoclinic'
loop_
_space_group_symop_operation_xyz
x,y,z
-x,y,1/2-z
-x,-y,-z
x,-y,1/2+z
1/2+x,1/2+y,z
1/2-x,1/2+y,1/2-z
1/2-x,1/2-y,-z
1/2+x,1/2-y,1/2+z
loop_
_atom_site_type_symbol
_atom_site_label
_atom_site_fract_x
_atom_site_fract_y
_atom_site_fract_z
Si Si1 0.396122 0.394853 0.159518
Si Si2 0.910739 0.744026 0.616064
Si Si3 0.266853 0.811359 0.707511
Si Si4 0.370860 0.887102 0.252934
Si Si5 0.108118 0.999336 0.519176
O O1 0.500000 0.333992 0.250000
O O2 0.398595 0.593160 0.166411
O O3 0.309134 0.316445 0.164258
O O4 0.390329 0.377523 0.058651
O O5 0.863529 0.607873 0.649454
O O6 0.022949 0.686242 0.667068
O O7 0.873156 0.819430 0.510558
O O8 0.213348 0.721392 0.752005
O O9 0.186124 0.930881 0.623961
O O10 0.355938 0.930470 0.778877
O O11 0.000000 0.000000 0.500000
#
# Coordination Sequence:
#
# PCOD9284022 Si02
#       5
#     8   8   8   8   8
#     4  10  21  40  67  87 124 167 207 254 318 364
#     4   9  20  42  59  84 130 164 202 257 315 360
#     4  12  24  37  68  96 122 165 222 250 313 375
#     4  11  22  38  62  94 123 167 207 261 304 382
#     4  10  21  40  66  90 125 169 206 262 316 365
#
# _framework density 22.010659
#
# number of rings (size 3 to 8) (size 9 to 14) (size 15 to 20)
#    1.200    0.400    4.000    1.800    5.600    0.800 
#    0.000    0.000    0.000    3.600    0.000    0.000 
#    0.000    0.000    0.000    0.000    0.000    0.000 
#
# Total GULP energy -111436.503681 kJ/mol
# GULP energy per Si atom -5571.825184 kJ/mol
# Density = 2.196056 g / cm^3
# Si number density = 22.010659 Si / 1000 Ang^3
#
#
#
# Elastic Constant Matrix: (Units=GPa)
#
#
# Indices 1 2 3 4 5 6 
#
# 1 156.2166 43.6023 9.2535 0.0000 -5.7551 0.0000
# 2 43.6023 63.1276 -1.9236 0.0000 4.6006 0.0000
# 3 9.2535 -1.9236 52.2362 0.0000 -0.1036 0.0000
# 4 0.0000 0.0000 0.0000 13.7725 0.0000 -10.8845
# 5 -5.7551 4.6006 -0.1036 0.0000 29.5534 0.0000
# 6 0.0000 0.0000 0.0000 -10.8845 0.0000 40.8844
#
#
#
# Elastic Compliance Matrix: (Units=1/GPa)
#
#
# Indices 1 2 3 4 5 6 
#
# 1 0.008250 -0.005933 -0.001675 0.000000 0.002524 0.000000
# 2 -0.005933 0.020308 0.001790 0.000000 -0.004310 0.000000
# 3 -0.001675 0.001790 0.019505 0.000000 -0.000536 0.000000
# 4 0.000000 0.000000 0.000000 0.091956 0.000000 0.024481
# 5 0.002524 -0.004310 -0.000536 0.000000 0.034998 0.000000
# 6 0.000000 0.000000 0.000000 0.024481 0.000000 0.030977
#
#
# Mechanical properties :
#
#
# Convention : Reuss Voigt Hill
#
# Bulk Modulus (GPa) = 27.45188 41.49387 34.47287
# Shear Modulus (GPa) = 21.76085 31.55194 26.65640
#
# Velocity S-wave (km/s) = 3.14769 3.79025 3.48382
# Velocity P-wave (km/s) = 5.07048 6.16825 5.64611
#
# Compressibility (1/GPa) = 0.03642738
#
# Stress axis : x y z
#
# Youngs Moduli (GPa) = 121.21877 49.24287 51.26788
#
# Poissons Ratio (x) = 0.29216 0.08587
# Poissons Ratio (y) = 0.71919 -0.09179
# Poissons Ratio (z) = 0.20303 -0.08816
#
# Static dielectric constant tensor:
#      x y z
#    x 1.793820 0.000000 -0.007970 
#    y 0.000000 1.861410 0.000000 
#    z -0.007970 0.000000 1.826660 
# 
# From -- ./inp_files/242094.got.cif
#   From: 2010.05.17/outbox.cif.g08.bks.cpg/sg15_122_cif.got.tgz:242094.got - 2010.06.03 18:47:42.
