data_PCOD9284481
_publ_section_title
;
Structure prediction by ZEFSAII (Michael W. Deem and Ramdas Pophale) SiO2 
 PCOD9284481
Probable space group: C 2/C
;
_chemical_formula_sum "Si O2"
_cell_formula_units_Z 56
_cell_length_a 14.338889
_cell_length_b 14.327775
_cell_length_c 24.266041
_cell_angle_alpha 90.000000
_cell_angle_beta 147.752237
_cell_angle_gamma 90.000000
_cell_volume 2660.075375
_symmetry_space_group_name_H-M "C 2/C"
_symmetry_group_IT_number 15
_symmetry_cell_setting 'monoclinic'
loop_
_space_group_symop_operation_xyz
x,y,z
-x,y,1/2-z
-x,-y,-z
x,-y,1/2+z
1/2+x,1/2+y,z
1/2-x,1/2+y,1/2-z
1/2-x,1/2-y,-z
1/2+x,1/2-y,1/2+z
loop_
_atom_site_type_symbol
_atom_site_label
_atom_site_fract_x
_atom_site_fract_y
_atom_site_fract_z
Si Si1 0.689833 0.072338 0.899855
Si Si2 0.500000 0.195148 0.250000
Si Si3 0.825612 0.350674 0.896463
Si Si4 0.295912 0.479829 0.224586
Si Si5 0.310516 0.475587 0.576837
Si Si6 0.500000 0.762061 0.250000
Si Si7 0.712247 0.160736 0.587800
Si Si8 0.682480 0.976018 0.786324
O O1 0.621580 0.175152 0.850557
O O2 0.761690 0.024218 0.880455
O O3 0.507540 0.020178 0.819242
O O4 0.802517 0.055408 0.009715
O O5 0.639588 0.262608 0.349592
O O6 0.375984 0.129444 0.226644
O O7 0.835307 0.441344 0.862790
O O8 0.784386 0.395310 0.935484
O O9 0.650328 0.294597 0.793270
O O10 0.013452 0.301985 0.988662
O O11 0.490093 0.510800 0.305518
O O12 0.250866 0.386675 0.167478
O O13 0.287955 0.490044 0.286118
O O14 0.228609 0.575633 0.552419
#
# Coordination Sequence:
#
# PCOD9284481 Si02
#       8
#     8   4   8   8   8   4   8   8
#     4   9  21  41  61  81 124 176 209 257 318 395
#     4  10  21  43  62  98 126 162 214 277 309 382
#     4  11  21  38  62  93 130 160 212 276 322 365
#     4  11  20  39  63  92 127 168 210 263 326 391
#     4  11  20  38  66  90 126 166 215 266 325 387
#     4  10  21  41  56  92 124 158 220 261 311 390
#     4  11  21  39  69  95 126 164 222 269 327 377
#     4   9  21  42  60  83 135 167 210 256 328 385
#
# _framework density 21.052036000000001
#
# number of rings (size 3 to 8) (size 9 to 14) (size 15 to 20)
#    0.000    2.000    2.857    4.286    0.000    2.286 
#    7.714   10.714    0.000    0.857    0.000    0.000 
#    0.000    0.000    0.000    0.000    0.000    0.000 
#
# Total GULP energy -155952.927446 kJ/mol
# GULP energy per Si atom -5569.747409 kJ/mol
# Density = 2.100412 g / cm^3
# Si number density = 21.052036 Si / 1000 Ang^3
#
#
#
# Elastic Constant Matrix: (Units=GPa)
#
#
# Indices 1 2 3 4 5 6 
#
# 1 92.3068 4.4274 16.3879 0.0000 -23.6334 0.0000
# 2 4.4274 68.9863 -1.2428 0.0000 0.3543 0.0000
# 3 16.3879 -1.2428 62.2332 0.0003 8.7531 0.0001
# 4 0.0000 0.0000 0.0003 -3.4222 0.0000 -4.9708
# 5 -23.6334 0.3543 8.7531 0.0000 38.7883 0.0000
# 6 0.0000 0.0000 0.0001 -4.9708 0.0000 -2.7116
#
#
#
# Elastic Compliance Matrix: (Units=1/GPa)
#
#
# Indices 1 2 3 4 5 6 
#
# 1 0.014348 -0.001065 -0.005195 0.000000 0.009924 0.000000
# 2 -0.001065 0.014582 0.000704 0.000000 -0.000941 0.000000
# 3 -0.005195 0.000704 0.018484 0.000000 -0.007343 0.000001
# 4 0.000000 0.000000 0.000000 0.175743 0.000000 -0.322170
# 5 0.009924 -0.000941 -0.007343 0.000000 0.033493 -0.000001
# 6 0.000000 0.000000 0.000001 -0.322170 -0.000001 0.221804
#
#
# Mechanical properties :
#
#
# Convention : Reuss Voigt Hill
#
# Bulk Modulus (GPa) = 27.54843 29.18569 28.36706
# Shear Modulus (GPa) = 9.96677 20.12782 15.04730
#
# Velocity S-wave (km/s) = 2.17822 3.09544 2.67641
# Velocity P-wave (km/s) = 4.40913 5.16424 4.80155
#
# Compressibility (1/GPa) = 0.03629971
#
# Stress axis : x y z
#
# Youngs Moduli (GPa) = 69.69724 68.57989 54.10224
#
# Poissons Ratio (x) = 0.07306 0.28108
# Poissons Ratio (y) = 0.07425 -0.03809
# Poissons Ratio (z) = 0.36210 -0.04829
#
# Static dielectric constant tensor:
#      x y z
#    x 1.942030 0.000000 -0.059760 
#    y 0.000000 1.832530 0.000000 
#    z -0.059760 0.000000 1.776250 
# 
# From -- ./inp_files/296620.got.cif
#   From: 2010.05.17/outbox.cif.g08.bks.cpg/sg15_149_cif.got.tgz:296620.got - 2010.06.03 18:47:42.
