data_PCOD9284776
_publ_section_title
;
Structure prediction by ZEFSAII (Michael W. Deem and Ramdas Pophale) SiO2 
 PCOD9284776
Probable space group: C 2/C
;
_chemical_formula_sum "Si O2"
_cell_formula_units_Z 40
_cell_length_a 11.183928
_cell_length_b 10.234885
_cell_length_c 13.507458
_cell_angle_alpha 90.000000
_cell_angle_beta 65.772296
_cell_angle_gamma 90.000000
_cell_volume 1409.965720
_symmetry_space_group_name_H-M "C 2/C"
_symmetry_group_IT_number 15
_symmetry_cell_setting 'monoclinic'
loop_
_space_group_symop_operation_xyz
x,y,z
-x,y,1/2-z
-x,-y,-z
x,-y,1/2+z
1/2+x,1/2+y,z
1/2-x,1/2+y,1/2-z
1/2-x,1/2-y,-z
1/2+x,1/2-y,1/2+z
loop_
_atom_site_type_symbol
_atom_site_label
_atom_site_fract_x
_atom_site_fract_y
_atom_site_fract_z
Si Si1 0.075778 0.741127 0.892201
Si Si2 0.760296 0.087232 0.981451
Si Si3 0.612655 0.104205 0.424382
Si Si4 0.670344 0.021295 0.716291
Si Si5 0.041715 0.036780 0.845904
O O1 0.192571 0.700104 0.934121
O O2 0.087485 0.635609 0.799041
O O3 0.938425 0.724073 0.996601
O O4 0.071158 0.882642 0.846241
O O5 0.746107 0.958476 0.916904
O O6 0.676021 0.042916 0.105781
O O7 0.915430 0.085779 0.949950
O O8 0.500000 0.000000 0.500000
O O9 0.629213 0.099964 0.301866
O O10 0.814065 0.086491 0.677765
O O11 0.000000 0.074525 0.750000
#
# Coordination Sequence:
#
# PCOD9284776 Si02
#       5
#     8   8   8   8   8
#     4  10  24  38  62 103 130 172 233 273 332 405
#     4  10  21  41  64  91 139 170 222 283 327 402
#     4   8  18  36  58  92 129 163 220 268 327 389
#     4  10  21  41  64  92 133 181 217 282 340 388
#     4  12  23  41  68  96 134 181 224 273 342 399
#
# _framework density 28.369484
#
# number of rings (size 3 to 8) (size 9 to 14) (size 15 to 20)
#    0.000    2.400    4.000    0.600    2.800    9.600 
#    0.000    0.000    0.000    9.600    0.000    0.000 
#    0.000    0.000    0.000    0.000    0.000    0.000 
#
# Total GULP energy -111653.387395 kJ/mol
# GULP energy per Si atom -5582.669370 kJ/mol
# Density = 2.830491 g / cm^3
# Si number density = 28.369484 Si / 1000 Ang^3
#
#
#
# Elastic Constant Matrix: (Units=GPa)
#
#
# Indices 1 2 3 4 5 6 
#
# 1 136.3136 7.6571 38.1741 0.0000 -13.8353 0.0000
# 2 7.6571 109.7379 40.9224 0.0000 -11.9163 0.0000
# 3 38.1741 40.9224 217.6601 0.0000 4.9938 0.0000
# 4 0.0000 0.0000 0.0000 31.4078 0.0000 -2.2805
# 5 -13.8353 -11.9163 4.9938 0.0000 57.7797 0.0000
# 6 0.0000 0.0000 0.0000 -2.2805 0.0000 11.3727
#
#
#
# Elastic Compliance Matrix: (Units=1/GPa)
#
#
# Indices 1 2 3 4 5 6 
#
# 1 0.007950 0.000224 -0.001484 0.000000 0.002078 0.000000
# 2 0.000224 0.010089 -0.001989 0.000000 0.002306 0.000000
# 3 -0.001484 -0.001989 0.005257 0.000000 -0.001220 0.000000
# 4 0.000000 0.000000 0.000000 0.032310 0.000000 0.006479
# 5 0.002078 0.002306 -0.001220 0.000000 0.018386 0.000000
# 6 0.000000 0.000000 0.000000 0.006479 0.000000 0.089229
#
#
# Mechanical properties :
#
#
# Convention : Reuss Voigt Hill
#
# Bulk Modulus (GPa) = 59.53110 70.80208 65.16659
# Shear Modulus (GPa) = 28.51978 45.24260 36.88119
#
# Velocity S-wave (km/s) = 3.17408 3.99778 3.60950
# Velocity P-wave (km/s) = 5.87050 6.80595 6.35546
#
# Compressibility (1/GPa) = 0.01679794
#
# Stress axis : x y z
#
# Youngs Moduli (GPa) = 125.78643 99.11603 190.23743
#
# Poissons Ratio (x) = -0.02224 0.28234
# Poissons Ratio (y) = -0.02823 0.37841
# Poissons Ratio (z) = 0.18669 0.19716
#
# Static dielectric constant tensor:
#      x y z
#    x 2.462640 0.000000 -0.017920 
#    y 0.000000 2.456270 0.000000 
#    z -0.017920 0.000000 2.262290 
# 
# From -- ./inp_files/151663.got.cif
#   From: 2010.05.17/outbox.cif.g08.bks.cpg/sg15_76_cif.got.tgz:151663.got - 2010.06.03 18:47:42.
