data_PCOD9284974
_publ_section_title
;
Structure prediction by ZEFSAII (Michael W. Deem and Ramdas Pophale) SiO2 
 PCOD9284974
Probable space group: C 2/C
;
_chemical_formula_sum "Si O2"
_cell_formula_units_Z 56
_cell_length_a 11.722121
_cell_length_b 23.770268
_cell_length_c 21.986983
_cell_angle_alpha 90.000000
_cell_angle_beta 27.678109
_cell_angle_gamma 90.000000
_cell_volume 2845.739382
_symmetry_space_group_name_H-M "C 2/C"
_symmetry_group_IT_number 15
_symmetry_cell_setting 'monoclinic'
loop_
_space_group_symop_operation_xyz
x,y,z
-x,y,1/2-z
-x,-y,-z
x,-y,1/2+z
1/2+x,1/2+y,z
1/2-x,1/2+y,1/2-z
1/2-x,1/2-y,-z
1/2+x,1/2-y,1/2+z
loop_
_atom_site_type_symbol
_atom_site_label
_atom_site_fract_x
_atom_site_fract_y
_atom_site_fract_z
Si Si1 0.081384 0.328449 0.059501
Si Si2 0.266551 0.156554 0.143508
Si Si3 0.272753 0.920843 0.943507
Si Si4 0.121813 0.529878 0.384385
Si Si5 0.872128 0.791920 0.671874
Si Si6 0.750256 0.931378 0.241511
Si Si7 0.500000 0.827911 0.750000
Si Si8 0.500000 0.995165 0.250000
O O1 0.954338 0.272089 0.144070
O O2 0.933132 0.383629 0.148272
O O3 0.070359 0.327190 0.991049
O O4 0.368219 0.326968 0.946487
O O5 0.258438 0.088899 0.152914
O O6 0.302068 0.184632 0.192054
O O7 0.000000 0.177876 0.250000
O O8 0.431187 0.948456 0.923031
O O9 0.386326 0.867067 0.856603
O O10 0.291716 0.966542 0.880266
O O11 0.010011 0.908691 0.096220
O O12 0.000000 0.500000 0.500000
O O13 0.282835 0.481815 0.275267
O O14 0.722746 0.796502 0.679351
O O15 0.622929 0.958636 0.243453
#
# Coordination Sequence:
#
# PCOD9284974 Si02
#       8
#     8   8   8   8   8   8   4   4
#     4  10  23  44  65  98 121 164 223 267 313 382
#     4  10  21  41  66  89 124 168 215 260 316 387
#     4  10  23  39  59  95 129 163 213 258 312 388
#     4  11  22  39  60  92 130 168 207 256 324 381
#     4  10  23  44  69  89 127 169 216 267 322 381
#     4  11  23  38  63  94 126 164 211 262 314 376
#     4  11  22  44  66  92 126 174 207 264 330 374
#     4   9  22  40  58  88 130 168 203 250 316 378
#
# _framework density 19.678542
#
# number of rings (size 3 to 8) (size 9 to 14) (size 15 to 20)
#    0.000    1.714    2.857    0.429    4.000    2.286 
#    6.429    1.429    0.000    0.000    0.000    0.000 
#    0.000    0.000    0.000    0.000    0.000    0.000 
#
# Total GULP energy -156056.187364 kJ/mol
# GULP energy per Si atom -5573.435263 kJ/mol
# Density = 1.963375 g / cm^3
# Si number density = 19.678542 Si / 1000 Ang^3
#
#
#
# Elastic Constant Matrix: (Units=GPa)
#
#
# Indices 1 2 3 4 5 6 
#
# 1 89.5136 17.7919 28.9635 -0.0202 15.0553 -0.0229
# 2 17.7919 55.7295 10.7103 0.0628 5.7352 -0.0137
# 3 28.9635 10.7103 73.3152 0.1826 10.9715 0.0675
# 4 -0.0202 0.0628 0.1826 19.5337 -0.0157 -3.0987
# 5 15.0553 5.7352 10.9715 -0.0157 29.0595 0.0030
# 6 -0.0229 -0.0137 0.0675 -3.0987 0.0030 28.3758
#
#
#
# Elastic Compliance Matrix: (Units=1/GPa)
#
#
# Indices 1 2 3 4 5 6 
#
# 1 0.014042 -0.003133 -0.004339 0.000066 -0.005019 0.000028
# 2 -0.003133 0.019376 -0.001339 -0.000054 -0.001695 0.000004
# 3 -0.004339 -0.001339 0.016083 -0.000163 -0.003560 -0.000060
# 4 0.000066 -0.000054 -0.000163 0.052098 0.000066 0.005690
# 5 -0.005019 -0.001695 -0.003560 0.000066 0.038691 0.000007
# 6 0.000028 0.000004 -0.000060 0.005690 0.000007 0.035863
#
#
# Mechanical properties :
#
#
# Convention : Reuss Voigt Hill
#
# Bulk Modulus (GPa) = 31.36848 37.05442 34.21145
# Shear Modulus (GPa) = 24.46180 26.13330 25.29755
#
# Velocity S-wave (km/s) = 3.52954 3.64814 3.58933
# Velocity P-wave (km/s) = 5.70835 6.05111 5.88223
#
# Compressibility (1/GPa) = 0.03187913
#
# Stress axis : x y z
#
# Youngs Moduli (GPa) = 71.21391 51.61068 62.17870
#
# Poissons Ratio (x) = 0.16168 0.26979
# Poissons Ratio (y) = 0.22310 0.08326
# Poissons Ratio (z) = 0.30899 0.06911
#
# Static dielectric constant tensor:
#      x y z
#    x 1.730530 0.000020 0.009570 
#    y 0.000020 1.682570 0.000040 
#    z 0.009570 0.000040 1.708600 
# 
# From -- ./inp_files/240772.got.cif
#   From: 2010.05.17/outbox.cif.g08.bks.cpg/sg15_121_cif.got.tgz:240772.got - 2010.06.03 18:47:42.
