data_PCOD9284135
_publ_section_title
;
Structure prediction by ZEFSAII (Michael W. Deem and Ramdas Pophale) SiO2 
 PCOD9284135
Probable space group: C 2/C
;
_chemical_formula_sum "Si O2"
_cell_formula_units_Z 32
_cell_length_a 9.348547
_cell_length_b 19.953849
_cell_length_c 7.421555
_cell_angle_alpha 90.000000
_cell_angle_beta 101.074137
_cell_angle_gamma 90.000000
_cell_volume 1358.634614
_symmetry_space_group_name_H-M "C 2/C"
_symmetry_group_IT_number 15
_symmetry_cell_setting 'monoclinic'
loop_
_space_group_symop_operation_xyz
x,y,z
-x,y,1/2-z
-x,-y,-z
x,-y,1/2+z
1/2+x,1/2+y,z
1/2-x,1/2+y,1/2-z
1/2-x,1/2-y,-z
1/2+x,1/2-y,1/2+z
loop_
_atom_site_type_symbol
_atom_site_label
_atom_site_fract_x
_atom_site_fract_y
_atom_site_fract_z
Si Si1 0.500000 0.458158 0.750000
Si Si2 0.500000 0.692256 0.750000
Si Si3 0.090385 0.716912 0.959904
Si Si4 0.669524 0.581988 0.950108
Si Si5 0.507358 0.921564 0.036119
O O1 0.625172 0.509401 0.854731
O O2 0.569852 0.416056 0.604718
O O3 0.499967 0.738648 0.577788
O O4 0.631179 0.639434 0.797156
O O5 0.000000 0.718851 0.750000
O O6 0.098693 0.640154 0.034325
O O7 0.250000 0.750000 0.000000
O O8 0.838378 0.592898 0.020936
O O9 0.500000 0.919138 0.250000
O O10 0.500000 0.000000 0.000000
#
# Coordination Sequence:
#
# PCOD9284135 Si02
#       5
#     4   4   8   8   8
#     4   9  20  38  66 104 149 192 248 320 381 468
#     4  11  24  44  70 102 143 194 246 308 373 458
#     4  11  27  49  74 110 153 203 255 313 386 467
#     4  10  21  40  67 104 143 194 250 310 385 455
#     4  11  24  43  70 103 144 190 252 317 378 454
#
# _framework density 23.553058
#
# number of rings (size 3 to 8) (size 9 to 14) (size 15 to 20)
#    0.000    1.500    0.000    4.500    3.500    8.000 
#    0.000    0.000    0.000    0.000    0.000    0.000 
#    0.000    0.000    0.000    0.000    0.000    0.000 
#
# Total GULP energy -89271.698651 kJ/mol
# GULP energy per Si atom -5579.481166 kJ/mol
# Density = 2.349945 g / cm^3
# Si number density = 23.553058 Si / 1000 Ang^3
#
#
#
# Elastic Constant Matrix: (Units=GPa)
#
#
# Indices 1 2 3 4 5 6 
#
# 1 88.1269 47.7592 13.0274 0.0000 4.0853 0.0000
# 2 47.7592 178.5814 36.6873 0.0000 3.0928 0.0000
# 3 13.0274 36.6873 116.0473 0.0000 -13.9074 0.0000
# 4 0.0000 0.0000 0.0000 116.8957 0.0000 12.0820
# 5 4.0853 3.0928 -13.9074 0.0000 25.6420 0.0000
# 6 0.0000 0.0000 0.0000 12.0820 0.0000 19.9755
#
#
#
# Elastic Compliance Matrix: (Units=1/GPa)
#
#
# Indices 1 2 3 4 5 6 
#
# 1 0.013390 -0.003406 -0.000677 0.000000 -0.002090 0.000000
# 2 -0.003406 0.006940 -0.001975 0.000000 -0.001366 0.000000
# 3 -0.000677 -0.001975 0.010010 0.000000 0.005775 0.000000
# 4 0.000000 0.000000 0.000000 0.009125 0.000000 -0.005519
# 5 -0.002090 -0.001366 0.005775 0.000000 0.042628 0.000000
# 6 0.000000 0.000000 0.000000 -0.005519 0.000000 0.053399
#
#
# Mechanical properties :
#
#
# Convention : Reuss Voigt Hill
#
# Bulk Modulus (GPa) = 54.87362 64.18927 59.53144
# Shear Modulus (GPa) = 32.53451 51.52143 42.02797
#
# Velocity S-wave (km/s) = 3.72065 4.68211 4.22879
# Velocity P-wave (km/s) = 6.46577 7.51942 7.01241
#
# Compressibility (1/GPa) = 0.01822369
#
# Stress axis : x y z
#
# Youngs Moduli (GPa) = 74.68339 144.09298 99.90250
#
# Poissons Ratio (x) = 0.49074 0.06762
# Poissons Ratio (y) = 0.25435 0.19735
# Poissons Ratio (z) = 0.05055 0.28464
#
# Static dielectric constant tensor:
#      x y z
#    x 1.632880 0.000000 0.071030 
#    y 0.000000 1.966740 0.000000 
#    z 0.071030 0.000000 2.051290 
# 
# From -- ./inp_files/22299.got.cif
#   From: 2010.05.17/outbox.cif.g08.bks.cpg/sg15_12_cif.got.tgz:22299.got - 2010.06.03 18:47:42.
