data_PCOD9284687
_publ_section_title
;
Structure prediction by ZEFSAII (Michael W. Deem and Ramdas Pophale) SiO2 
 PCOD9284687
Probable space group: C 2/C
;
_chemical_formula_sum "Si O2"
_cell_formula_units_Z 60
_cell_length_a 10.921639
_cell_length_b 26.715897
_cell_length_c 17.371847
_cell_angle_alpha 90.000000
_cell_angle_beta 28.991852
_cell_angle_gamma 90.000000
_cell_volume 2456.763576
_symmetry_space_group_name_H-M "C 2/C"
_symmetry_group_IT_number 15
_symmetry_cell_setting 'monoclinic'
loop_
_space_group_symop_operation_xyz
x,y,z
-x,y,1/2-z
-x,-y,-z
x,-y,1/2+z
1/2+x,1/2+y,z
1/2-x,1/2+y,1/2-z
1/2-x,1/2-y,-z
1/2+x,1/2-y,1/2+z
loop_
_atom_site_type_symbol
_atom_site_label
_atom_site_fract_x
_atom_site_fract_y
_atom_site_fract_z
Si Si1 0.508968 0.283035 0.624315
Si Si2 0.386194 0.152989 0.494499
Si Si3 0.475380 0.258555 0.053970
Si Si4 0.366968 0.640402 0.705007
Si Si5 0.745705 0.551003 0.369500
Si Si6 0.810883 0.968996 0.215836
Si Si7 0.500000 0.524188 0.250000
Si Si8 0.052382 0.892412 0.841934
O O1 0.750000 0.250000 0.500000
O O2 0.406187 0.271835 0.593985
O O3 0.296756 0.268572 0.802093
O O4 0.587170 0.340432 0.588322
O O5 0.389553 0.212923 0.474187
O O6 0.303329 0.154059 0.628558
O O7 0.651928 0.123700 0.338278
O O8 0.152542 0.128159 0.577833
O O9 0.409313 0.311500 0.129010
O O10 0.244560 0.588819 0.743435
O O11 0.828444 0.507673 0.263593
O O12 0.594843 0.528645 0.523779
O O13 0.562310 0.586716 0.422500
O O14 0.000000 0.579422 0.250000
O O15 0.815940 0.987923 0.301538
O O16 0.562673 0.564658 0.148766
#
# Coordination Sequence:
#
# PCOD9284687 Si02
#       8
#     8   8   8   8   8   8   4   8
#     4  11  24  40  63  91 126 168 212 266 315 380
#     4  10  22  37  59  94 122 166 212 259 314 386
#     4  11  22  41  60  90 124 167 215 260 319 380
#     4  11  21  39  62  87 132 164 210 264 324 374
#     4  10  21  41  63  91 126 163 214 266 316 388
#     4  10  22  39  62  93 125 164 212 264 323 382
#     4  10  22  40  64  92 126 164 208 270 312 394
#     4  10  23  39  64  93 126 168 215 255 332 378
#
# _framework density 24.422374000000001
#
# number of rings (size 3 to 8) (size 9 to 14) (size 15 to 20)
#    0.000    1.600    1.333    3.200    3.733    1.067 
#    0.000    7.333    0.000    0.000    0.000    0.000 
#    0.000    0.000    0.000    0.000    0.000    0.000 
#
# Total GULP energy -167382.435600 kJ/mol
# GULP energy per Si atom -5579.414520 kJ/mol
# Density = 2.436679 g / cm^3
# Si number density = 24.422374 Si / 1000 Ang^3
#
#
#
# Elastic Constant Matrix: (Units=GPa)
#
#
# Indices 1 2 3 4 5 6 
#
# 1 40.9922 15.1881 5.8453 0.0050 14.4750 -0.0008
# 2 15.1881 158.1466 9.7283 0.0062 14.0608 -0.0029
# 3 5.8453 9.7283 64.6815 0.0080 10.8823 -0.0019
# 4 0.0050 0.0062 0.0080 28.9329 -0.0034 7.8183
# 5 14.4750 14.0608 10.8823 -0.0034 21.2896 -0.0009
# 6 -0.0008 -0.0029 -0.0019 7.8183 -0.0009 22.5932
#
#
#
# Elastic Compliance Matrix: (Units=1/GPa)
#
#
# Indices 1 2 3 4 5 6 
#
# 1 0.032371 -0.001239 0.000904 -0.000009 -0.021653 0.000003
# 2 -0.001239 0.006770 -0.000324 -0.000002 -0.003463 0.000001
# 3 0.000904 -0.000324 0.016953 -0.000007 -0.009066 0.000003
# 4 -0.000009 -0.000002 -0.000007 0.038128 0.000016 -0.013194
# 5 -0.021653 -0.003463 -0.009066 0.000016 0.068615 -0.000005
# 6 0.000003 0.000001 0.000003 -0.013194 -0.000005 0.048827
#
#
# Mechanical properties :
#
#
# Convention : Reuss Voigt Hill
#
# Bulk Modulus (GPa) = 18.25608 36.14932 27.20270
# Shear Modulus (GPa) = 21.62248 30.10037 25.86143
#
# Velocity S-wave (km/s) = 2.97872 3.51449 3.25764
# Velocity P-wave (km/s) = 4.39565 5.59489 5.03113
#
# Compressibility (1/GPa) = 0.05477628
#
# Stress axis : x y z
#
# Youngs Moduli (GPa) = 30.89164 147.70833 58.98763
#
# Poissons Ratio (x) = 0.18306 -0.05332
# Poissons Ratio (y) = 0.03828 0.01909
# Poissons Ratio (z) = -0.02793 0.04779
#
# Static dielectric constant tensor:
#      x y z
#    x 2.037250 0.000020 -0.026810 
#    y 0.000020 1.959520 -0.000010 
#    z -0.026810 -0.000010 1.915950 
# 
# From -- ./inp_files/201232.got.cif
#   From: 2010.05.17/outbox.cif.g08.bks.cpg/sg15_101_cif.got.tgz:201232.got - 2010.06.03 18:47:42.
