data_PCOD9284872
_publ_section_title
;
Structure prediction by ZEFSAII (Michael W. Deem and Ramdas Pophale) SiO2 
 PCOD9284872
Probable space group: C 2/C
;
_chemical_formula_sum "Si O2"
_cell_formula_units_Z 44
_cell_length_a 8.979190
_cell_length_b 10.224102
_cell_length_c 23.815362
_cell_angle_alpha 90.000000
_cell_angle_beta 53.999285
_cell_angle_gamma 90.000000
_cell_volume 1768.777598
_symmetry_space_group_name_H-M "C 2/C"
_symmetry_group_IT_number 15
_symmetry_cell_setting 'monoclinic'
loop_
_space_group_symop_operation_xyz
x,y,z
-x,y,1/2-z
-x,-y,-z
x,-y,1/2+z
1/2+x,1/2+y,z
1/2-x,1/2+y,1/2-z
1/2-x,1/2-y,-z
1/2+x,1/2-y,1/2+z
loop_
_atom_site_type_symbol
_atom_site_label
_atom_site_fract_x
_atom_site_fract_y
_atom_site_fract_z
Si Si1 0.062535 0.254744 0.654699
Si Si2 0.832145 0.465156 0.953180
Si Si3 0.500000 0.040739 0.250000
Si Si4 0.635021 0.787309 0.269349
Si Si5 0.768968 0.493784 0.092004
Si Si6 0.321806 0.227919 0.920327
O O1 0.134158 0.325626 0.582422
O O2 0.136735 0.110209 0.650897
O O3 0.122792 0.362977 0.686464
O O4 0.841716 0.252586 0.709879
O O5 0.759708 0.576679 0.926034
O O6 0.025335 0.529726 0.931553
O O7 0.728920 0.459790 0.035233
O O8 0.617101 0.944138 0.263192
O O9 0.500000 0.733076 0.250000
O O10 0.531310 0.761373 0.350948
O O11 0.760191 0.650610 0.095874
O O12 0.250000 0.250000 0.000000
#
# Coordination Sequence:
#
# PCOD9284872 Si02
#       6
#     8   8   4   8   8   8
#     4  12  24  40  68  94 129 169 221 268 325 388
#     4  10  21  44  63  93 137 166 209 274 318 396
#     4  10  26  42  60  96 134 172 210 272 330 386
#     4  10  23  43  64  90 131 168 216 268 325 387
#     4  10  24  38  67  99 124 171 218 259 337 386
#     4  10  21  41  65  90 128 171 209 263 324 382
#
# _framework density 24.875937
#
# number of rings (size 3 to 8) (size 9 to 14) (size 15 to 20)
#    0.545    1.091    1.818    1.636    5.091    0.000 
#    1.636    0.000    0.000   14.182    0.000    0.000 
#    0.000    0.000    0.000    0.000    0.000    0.000 
#
# Total GULP energy -122491.535694 kJ/mol
# GULP energy per Si atom -5567.797077 kJ/mol
# Density = 2.481932 g / cm^3
# Si number density = 24.875937 Si / 1000 Ang^3
#
#
#
# Elastic Constant Matrix: (Units=GPa)
#
#
# Indices 1 2 3 4 5 6 
#
# 1 30.7965 24.1027 6.3771 0.0000 -2.4640 0.0000
# 2 24.1027 129.7660 27.2337 0.0000 0.1947 0.0000
# 3 6.3771 27.2337 83.8952 0.0000 8.3214 0.0000
# 4 0.0000 0.0000 0.0000 50.8699 0.0000 -1.8529
# 5 -2.4640 0.1947 8.3214 0.0000 23.1493 0.0000
# 6 0.0000 0.0000 0.0000 -1.8529 0.0000 18.0337
#
#
#
# Elastic Compliance Matrix: (Units=1/GPa)
#
#
# Indices 1 2 3 4 5 6 
#
# 1 0.038484 -0.006917 -0.001132 0.000000 0.004561 0.000000
# 2 -0.006917 0.009532 -0.002579 0.000000 0.000111 0.000000
# 3 -0.001132 -0.002579 0.013328 0.000000 -0.004890 0.000000
# 4 0.000000 0.000000 0.000000 0.019732 0.000000 0.002027
# 5 0.004561 0.000111 -0.004890 0.000000 0.045440 0.000000
# 6 0.000000 0.000000 0.000000 0.002027 0.000000 0.055660
#
#
# Mechanical properties :
#
#
# Convention : Reuss Voigt Hill
#
# Bulk Modulus (GPa) = 24.94605 39.98720 32.46663
# Shear Modulus (GPa) = 23.06308 30.86022 26.96165
#
# Velocity S-wave (km/s) = 3.04817 3.52599 3.29575
# Velocity P-wave (km/s) = 4.73692 5.71720 5.24999
#
# Compressibility (1/GPa) = 0.04008651
#
# Stress axis : x y z
#
# Youngs Moduli (GPa) = 25.98456 104.90786 75.02973
#
# Poissons Ratio (x) = 0.72568 0.08496
# Poissons Ratio (y) = 0.17974 0.19354
# Poissons Ratio (z) = 0.02942 0.27061
#
# Static dielectric constant tensor:
#      x y z
#    x 2.075750 0.000000 0.072370 
#    y 0.000000 2.020090 0.000000 
#    z 0.072370 0.000000 2.020880 
# 
# From -- ./inp_files/287867.got.cif
#   From: 2010.05.17/outbox.cif.g08.bks.cpg/sg15_144_cif.got.tgz:287867.got - 2010.06.03 18:47:42.
