data_PCOD9284712
_publ_section_title
;
Structure prediction by ZEFSAII (Michael W. Deem and Ramdas Pophale) SiO2 
 PCOD9284712
Probable space group: C 2/C
;
_chemical_formula_sum "Si O2"
_cell_formula_units_Z 32
_cell_length_a 21.009853
_cell_length_b 5.984249
_cell_length_c 11.266645
_cell_angle_alpha 90.000000
_cell_angle_beta 116.159090
_cell_angle_gamma 90.000000
_cell_volume 1271.444025
_symmetry_space_group_name_H-M "C 2/C"
_symmetry_group_IT_number 15
_symmetry_cell_setting 'monoclinic'
loop_
_space_group_symop_operation_xyz
x,y,z
-x,y,1/2-z
-x,-y,-z
x,-y,1/2+z
1/2+x,1/2+y,z
1/2-x,1/2+y,1/2-z
1/2-x,1/2-y,-z
1/2+x,1/2-y,1/2+z
loop_
_atom_site_type_symbol
_atom_site_label
_atom_site_fract_x
_atom_site_fract_y
_atom_site_fract_z
Si Si1 0.038291 0.707014 0.599082
Si Si2 0.830293 0.497274 0.362819
Si Si3 0.694381 0.671836 0.855238
Si Si4 0.594787 0.684427 0.394491
O O1 0.114859 0.712220 0.595273
O O2 0.064697 0.682918 0.756502
O O3 0.000000 0.500000 0.500000
O O4 0.971354 0.872542 0.572034
O O5 0.747367 0.450126 0.307075
O O6 0.840157 0.634336 0.250020
O O7 0.853052 0.658079 0.488797
O O8 0.636161 0.519398 0.869383
O O9 0.750000 0.750000 0.000000
#
# Coordination Sequence:
#
# PCOD9284712 Si02
#       4
#     8   8   8   8
#     4   9  20  41  66  90 125 166 211 268 326 388
#     4  11  22  40  64  93 130 172 218 273 331 391
#     4  12  24  40  65  95 131 175 222 274 329 392
#     4  10  21  41  63  94 131 169 218 269 328 395
#
# _framework density 25.168232
#
# number of rings (size 3 to 8) (size 9 to 14) (size 15 to 20)
#    0.000    1.500    0.000    5.250    0.000    0.000 
#    0.000   32.500    0.000    0.000    0.000    0.000 
#    0.000    0.000    0.000    0.000    0.000    0.000 
#
# Total GULP energy -89258.625792 kJ/mol
# GULP energy per Si atom -5578.664112 kJ/mol
# Density = 2.511095 g / cm^3
# Si number density = 25.168232 Si / 1000 Ang^3
#
#
#
# Elastic Constant Matrix: (Units=GPa)
#
#
# Indices 1 2 3 4 5 6 
#
# 1 230.3730 94.5921 6.5765 0.0000 -17.0191 0.0000
# 2 94.5921 71.0528 43.0554 0.0000 -10.4190 0.0000
# 3 6.5765 43.0554 124.6942 0.0000 11.5315 0.0000
# 4 0.0000 0.0000 0.0000 16.6721 0.0000 -38.2587
# 5 -17.0191 -10.4190 11.5315 0.0000 42.7244 0.0000
# 6 0.0000 0.0000 0.0000 -38.2587 0.0000 53.5809
#
#
#
# Elastic Compliance Matrix: (Units=1/GPa)
#
#
# Indices 1 2 3 4 5 6 
#
# 1 0.012925 -0.021763 0.007023 0.000000 -0.002054 0.000000
# 2 -0.021763 0.056175 -0.019193 0.000000 0.010210 0.000000
# 3 0.007023 -0.019193 0.014820 0.000000 -0.005883 0.000000
# 4 0.000000 0.000000 0.000000 -0.093932 0.000000 -0.067071
# 5 -0.002054 0.010210 -0.005883 0.000000 0.026665 0.000000
# 6 0.000000 0.000000 0.000000 -0.067071 0.000000 -0.029228
#
#
# Mechanical properties :
#
#
# Convention : Reuss Voigt Hill
#
# Bulk Modulus (GPa) = 62.29284 79.39644 70.84464
# Shear Modulus (GPa) = 82.44967 41.38855 61.91911
#
# Velocity S-wave (km/s) = 5.72979 4.05961 4.96543
# Velocity P-wave (km/s) = 8.28121 7.32043 7.81560
#
# Compressibility (1/GPa) = 0.01605321
#
# Stress axis : x y z
#
# Youngs Moduli (GPa) = 77.37127 17.80154 67.47483
#
# Poissons Ratio (x) = 0.38742 -0.47387
# Poissons Ratio (y) = 1.68387 1.29504
# Poissons Ratio (z) = -0.54338 0.34166
#
# Static dielectric constant tensor:
#      x y z
#    x 2.097150 0.000000 -0.047320 
#    y 0.000000 2.083430 0.000000 
#    z -0.047320 0.000000 1.930430 
# 
# From -- ./inp_files/115484.got.cif
#   From: 2010.05.17/outbox.cif.g08.bks.cpg/sg15_58_cif.got.tgz:115484.got - 2010.06.03 18:47:42.
