data_PCOD9284870
_publ_section_title
;
Structure prediction by ZEFSAII (Michael W. Deem and Ramdas Pophale) SiO2 
 PCOD9284870
Probable space group: C 2/C
;
_chemical_formula_sum "Si O2"
_cell_formula_units_Z 48
_cell_length_a 11.043000
_cell_length_b 15.009981
_cell_length_c 27.152251
_cell_angle_alpha 90.000000
_cell_angle_beta 32.645549
_cell_angle_gamma 90.000000
_cell_volume 2427.819978
_symmetry_space_group_name_H-M "C 2/C"
_symmetry_group_IT_number 15
_symmetry_cell_setting 'monoclinic'
loop_
_space_group_symop_operation_xyz
x,y,z
-x,y,1/2-z
-x,-y,-z
x,-y,1/2+z
1/2+x,1/2+y,z
1/2-x,1/2+y,1/2-z
1/2-x,1/2-y,-z
1/2+x,1/2-y,1/2+z
loop_
_atom_site_type_symbol
_atom_site_label
_atom_site_fract_x
_atom_site_fract_y
_atom_site_fract_z
Si Si1 0.352115 0.938827 0.256280
Si Si2 0.743984 0.688404 0.645992
Si Si3 0.856254 0.108633 0.115699
Si Si4 0.035016 0.199903 0.615130
Si Si5 0.817949 0.622109 0.435206
Si Si6 0.618392 0.934433 0.064051
O O1 0.500000 0.901734 0.250000
O O2 0.511840 0.941525 0.154767
O O3 0.160025 0.869481 0.308432
O O4 0.251749 0.033151 0.311430
O O5 0.500000 0.659387 0.750000
O O6 0.785891 0.789555 0.650881
O O7 0.716848 0.689307 0.596376
O O8 0.948461 0.625953 0.591632
O O9 0.769793 0.094883 0.088883
O O10 0.125757 0.099607 0.024347
O O11 0.983422 0.305365 0.636117
O O12 0.123216 0.174533 0.530941
O O13 0.871300 0.539055 0.451851
#
# Coordination Sequence:
#
# PCOD9284870 Si02
#       6
#     8   8   8   8   8   8
#     4  12  22  37  67  94 123 161 212 271 301 363
#     4  11  24  42  62  90 130 172 206 253 320 383
#     4  11  23  42  65  94 123 167 216 261 311 370
#     4  10  22  41  62  88 127 166 203 253 322 367
#     4  10  21  41  65  90 124 164 207 260 312 369
#     4  12  23  38  65  96 122 161 219 258 303 378
#
# _framework density 19.770823
#
# number of rings (size 3 to 8) (size 9 to 14) (size 15 to 20)
#    0.000    1.000    5.000    2.500    2.333    0.667 
#    0.000    0.833    0.000    0.000    0.000    0.000 
#    0.000    0.000    0.000    0.000    0.000    0.000 
#
# Total GULP energy -133820.736087 kJ/mol
# GULP energy per Si atom -5575.864004 kJ/mol
# Density = 1.972582 g / cm^3
# Si number density = 19.770823 Si / 1000 Ang^3
#
#
#
# Elastic Constant Matrix: (Units=GPa)
#
#
# Indices 1 2 3 4 5 6 
#
# 1 78.9395 41.3968 21.8011 0.0041 -10.0562 -0.0016
# 2 41.3968 94.3042 -5.3329 -0.0008 -35.6200 0.0003
# 3 21.8011 -5.3329 74.2706 0.0080 -8.0982 -0.0045
# 4 0.0041 -0.0008 0.0080 -0.9679 -0.0061 4.9933
# 5 -10.0562 -35.6200 -8.0982 -0.0061 27.5913 0.0030
# 6 -0.0016 0.0003 -0.0045 4.9933 0.0030 27.7268
#
#
#
# Elastic Compliance Matrix: (Units=1/GPa)
#
#
# Indices 1 2 3 4 5 6 
#
# 1 0.021411 -0.015540 -0.009026 0.000068 -0.014908 -0.000011
# 2 -0.015540 0.033574 0.011447 -0.000144 0.041040 0.000022
# 3 -0.009026 0.011447 0.018790 0.000002 0.017003 0.000000
# 4 0.000068 -0.000144 0.000002 -0.535576 -0.000289 0.096451
# 5 -0.014908 0.041040 0.017003 -0.000289 0.088783 0.000044
# 6 -0.000011 0.000022 0.000000 0.096451 0.000044 0.018696
#
#
# Mechanical properties :
#
#
# Convention : Reuss Voigt Hill
#
# Bulk Modulus (GPa) = 21.03627 40.36051 30.69839
# Shear Modulus (GPa) = -16.01344 23.51332 3.74994
#
# Velocity S-wave (km/s) = -2.84906 3.45236 1.37870
# Velocity P-wave (km/s) = 0.39958 6.02911 4.25385
#
# Compressibility (1/GPa) = 0.04753694
#
# Stress axis : x y z
#
# Youngs Moduli (GPa) = 46.70487 29.78463 53.22052
#
# Poissons Ratio (x) = 0.46286 0.48038
# Poissons Ratio (y) = 0.72580 -0.60923
# Poissons Ratio (z) = 0.42157 -0.34095
#
# Static dielectric constant tensor:
#      x y z
#    x 1.668630 0.000000 0.055960 
#    y 0.000000 1.815520 0.000010 
#    z 0.055960 0.000010 1.865550 
# 
# From -- ./inp_files/143723.got.cif
#   From: 2010.05.17/outbox.cif.g08.bks.cpg/sg15_72_cif.got.tgz:143723.got - 2010.06.03 18:47:42.
