data_PCOD9284091
_publ_section_title
;
Structure prediction by ZEFSAII (Michael W. Deem and Ramdas Pophale) SiO2 
 PCOD9284091
Probable space group: C 2/C
;
_chemical_formula_sum "Si O2"
_cell_formula_units_Z 48
_cell_length_a 10.043710
_cell_length_b 12.876463
_cell_length_c 18.517427
_cell_angle_alpha 90.000000
_cell_angle_beta 123.397307
_cell_angle_gamma 90.000000
_cell_volume 1999.365477
_symmetry_space_group_name_H-M "C 2/C"
_symmetry_group_IT_number 15
_symmetry_cell_setting 'monoclinic'
loop_
_space_group_symop_operation_xyz
x,y,z
-x,y,1/2-z
-x,-y,-z
x,-y,1/2+z
1/2+x,1/2+y,z
1/2-x,1/2+y,1/2-z
1/2-x,1/2-y,-z
1/2+x,1/2-y,1/2+z
loop_
_atom_site_type_symbol
_atom_site_label
_atom_site_fract_x
_atom_site_fract_y
_atom_site_fract_z
Si Si1 0.813695 0.915852 0.675097
Si Si2 0.414819 0.390488 0.954899
Si Si3 0.476962 0.165591 0.929234
Si Si4 0.675261 0.198210 0.768871
Si Si5 0.682439 0.980030 0.778292
Si Si6 0.310323 0.977121 0.498445
O O1 0.754708 0.799415 0.673428
O O2 0.701491 0.974565 0.698100
O O3 0.000000 0.922075 0.750000
O O4 0.799640 0.962420 0.592066
O O5 0.511514 0.282805 0.970468
O O6 0.306629 0.402656 0.850856
O O7 0.500000 0.500000 0.000000
O O8 0.280642 0.396680 0.977361
O O9 0.356485 0.189988 0.826592
O O10 0.415670 0.098530 0.979254
O O11 0.606073 0.078819 0.939181
O O12 0.500000 0.194434 0.750000
O O13 0.753329 0.092791 0.817975
O O14 0.500000 0.965299 0.750000
#
# Coordination Sequence:
#
# PCOD9284091 Si02
#       6
#     8   8   8   8   8   8
#     4  11  23  43  68  99 139 178 235 293 354 425
#     4  12  27  45  69 107 143 183 242 301 362 438
#     4  11  24  46  69 101 142 184 234 292 366 433
#     4  10  21  40  66  95 133 178 231 285 348 429
#     4  11  23  44  70  99 136 184 236 290 358 435
#     4  11  25  44  70  99 143 188 230 294 366 432
#
# _framework density 24.007617
#
# number of rings (size 3 to 8) (size 9 to 14) (size 15 to 20)
#    0.000    1.000    3.333    3.500    7.000    0.667 
#    0.000    1.667    0.000    0.000    0.000    0.000 
#    0.000    0.000    0.000    0.000    0.000    0.000 
#
# Total GULP energy -133638.472472 kJ/mol
# GULP energy per Si atom -5568.269686 kJ/mol
# Density = 2.395298 g / cm^3
# Si number density = 24.007617 Si / 1000 Ang^3
#
#
#
# Elastic Constant Matrix: (Units=GPa)
#
#
# Indices 1 2 3 4 5 6 
#
# 1 56.0748 13.3938 -2.2781 0.0000 -14.5442 0.0000
# 2 13.3938 183.0019 28.4436 0.0000 4.8842 0.0000
# 3 -2.2781 28.4436 97.3632 0.0000 2.6376 0.0000
# 4 0.0000 0.0000 0.0000 38.1889 0.0000 1.5909
# 5 -14.5442 4.8842 2.6376 0.0000 34.3710 0.0000
# 6 0.0000 0.0000 0.0000 1.5909 0.0000 24.4612
#
#
#
# Elastic Compliance Matrix: (Units=1/GPa)
#
#
# Indices 1 2 3 4 5 6 
#
# 1 0.020630 -0.001871 0.000787 0.000000 0.008935 0.000000
# 2 -0.001871 0.005910 -0.001730 0.000000 -0.001499 0.000000
# 3 0.000787 -0.001730 0.010801 0.000000 -0.000250 0.000000
# 4 0.000000 0.000000 0.000000 0.026257 0.000000 -0.001708
# 5 0.008935 -0.001499 -0.000250 0.000000 0.033107 0.000000
# 6 0.000000 0.000000 0.000000 -0.001708 0.000000 0.040992
#
#
# Mechanical properties :
#
#
# Convention : Reuss Voigt Hill
#
# Bulk Modulus (GPa) = 31.53133 46.17316 38.85225
# Shear Modulus (GPa) = 32.48959 39.19625 35.84292
#
# Velocity S-wave (km/s) = 3.68272 4.04500 3.86810
# Velocity P-wave (km/s) = 5.58978 6.41019 6.01399
#
# Compressibility (1/GPa) = 0.03171449
#
# Stress axis : x y z
#
# Youngs Moduli (GPa) = 48.47408 169.19926 92.58104
#
# Poissons Ratio (x) = 0.31652 -0.07287
# Poissons Ratio (y) = 0.09068 0.16014
# Poissons Ratio (z) = -0.03816 0.29268
#
# Static dielectric constant tensor:
#      x y z
#    x 1.950880 0.000000 -0.080990 
#    y 0.000000 2.061020 0.000000 
#    z -0.080990 0.000000 1.895080 
# 
# From -- ./inp_files/237249.got.cif
#   From: 2010.05.17/outbox.cif.g08.bks.cpg/sg15_119_cif.got.tgz:237249.got - 2010.06.03 18:47:42.
