data_PCOD9284643
_publ_section_title
;
Structure prediction by ZEFSAII (Michael W. Deem and Ramdas Pophale) SiO2 
 PCOD9284643
Probable space group: C 2/C
;
_chemical_formula_sum "Si O2"
_cell_formula_units_Z 48
_cell_length_a 14.233443
_cell_length_b 32.640567
_cell_length_c 14.499823
_cell_angle_alpha 90.000000
_cell_angle_beta 20.171477
_cell_angle_gamma 90.000000
_cell_volume 2322.932590
_symmetry_space_group_name_H-M "C 2/C"
_symmetry_group_IT_number 15
_symmetry_cell_setting 'monoclinic'
loop_
_space_group_symop_operation_xyz
x,y,z
-x,y,1/2-z
-x,-y,-z
x,-y,1/2+z
1/2+x,1/2+y,z
1/2-x,1/2+y,1/2-z
1/2-x,1/2-y,-z
1/2+x,1/2-y,1/2+z
loop_
_atom_site_type_symbol
_atom_site_label
_atom_site_fract_x
_atom_site_fract_y
_atom_site_fract_z
Si Si1 0.500000 0.219386 0.750000
Si Si2 0.776202 0.429480 0.265426
Si Si3 0.257813 0.663313 0.673610
Si Si4 0.202862 0.571943 0.218143
Si Si5 0.359505 0.165041 0.205927
Si Si6 0.768895 0.006251 0.540985
Si Si7 0.500000 0.220633 0.250000
O O1 0.624511 0.190368 0.715781
O O2 0.750000 0.250000 0.500000
O O3 0.797709 0.385150 0.294028
O O4 0.528747 0.424385 0.422593
O O5 0.663160 0.464889 0.435688
O O6 0.047720 0.439656 0.957098
O O7 0.576514 0.668605 0.407869
O O8 0.096085 0.673835 0.915324
O O9 0.106965 0.618170 0.290335
O O10 0.164037 0.536483 0.180088
O O11 0.401409 0.193553 0.254619
O O12 0.500000 0.027944 0.750000
O O13 0.000000 0.002434 0.250000
O O14 0.250000 0.250000 0.500000
#
# Coordination Sequence:
#
# PCOD9284643 Si02
#       7
#     4   8   8   8   8   8   4
#     4  12  26  42  66  99 128 165 208 268 328 384
#     4  10  21  41  63  85 123 171 211 253 309 373
#     4  10  23  43  66  94 127 171 214 261 318 381
#     4  10  21  41  63  85 123 171 211 253 309 373
#     4  10  23  43  66  94 127 171 214 261 318 381
#     4  12  24  36  58  98 126 162 206 262 310 362
#     4  12  26  42  66  99 128 165 208 268 328 384
#
# _framework density 20.663535
#
# number of rings (size 3 to 8) (size 9 to 14) (size 15 to 20)
#    0.000    1.333    0.000    5.000    2.333    4.000 
#    3.000    0.000    0.000    0.000    0.000    0.000 
#    0.000    0.000    0.000    0.000    0.000    0.000 
#
# Total GULP energy -133842.480916 kJ/mol
# GULP energy per Si atom -5576.770038 kJ/mol
# Density = 2.061650 g / cm^3
# Si number density = 20.663535 Si / 1000 Ang^3
#
#
#
# Elastic Constant Matrix: (Units=GPa)
#
#
# Indices 1 2 3 4 5 6 
#
# 1 66.7120 72.6852 9.8341 0.0020 10.2967 0.0037
# 2 72.6852 109.5621 27.3066 -0.0014 26.8714 -0.0022
# 3 9.8341 27.3066 119.1856 0.0004 5.2990 0.0055
# 4 0.0020 -0.0014 0.0004 21.4492 -0.0040 -4.8572
# 5 10.2967 26.8714 5.2990 -0.0040 30.8740 -0.0066
# 6 0.0037 -0.0022 0.0055 -4.8572 -0.0066 29.0831
#
#
#
# Elastic Compliance Matrix: (Units=1/GPa)
#
#
# Indices 1 2 3 4 5 6 
#
# 1 0.064599 -0.049089 0.005013 -0.000008 0.020321 -0.000010
# 2 -0.049089 0.049525 -0.006155 0.000005 -0.025677 0.000006
# 3 0.005013 -0.006155 0.009294 -0.000001 0.002090 -0.000003
# 4 -0.000008 0.000005 -0.000001 0.048454 0.000007 0.008092
# 5 0.020321 -0.025677 0.002090 0.000007 0.047602 0.000007
# 6 -0.000010 0.000006 -0.000003 0.008092 0.000007 0.035736
#
#
# Mechanical properties :
#
#
# Convention : Reuss Voigt Hill
#
# Bulk Modulus (GPa) = 43.56046 57.23461 50.39753
# Shear Modulus (GPa) = 13.76180 28.65685 21.20932
#
# Velocity S-wave (km/s) = 2.58349 3.72806 3.20724
# Velocity P-wave (km/s) = 5.47958 6.80366 6.17720
#
# Compressibility (1/GPa) = 0.02295660
#
# Stress axis : x y z
#
# Youngs Moduli (GPa) = 15.48008 20.19164 107.59828
#
# Poissons Ratio (x) = 0.99120 -0.53942
# Poissons Ratio (y) = 0.75991 0.66224
# Poissons Ratio (z) = -0.07761 0.12427
#
# Static dielectric constant tensor:
#      x y z
#    x 1.546950 0.000000 0.058770 
#    y 0.000000 1.823410 0.000000 
#    z 0.058770 0.000000 1.686800 
# 
# From -- ./inp_files/130512.got.cif
#   From: 2010.05.17/outbox.cif.g08.bks.cpg/sg15_66_cif.got.tgz:130512.got - 2010.06.03 18:47:42.
