data_PCOD9284944
_publ_section_title
;
Structure prediction by ZEFSAII (Michael W. Deem and Ramdas Pophale) SiO2 
 PCOD9284944
Probable space group: C 2/C
;
_chemical_formula_sum "Si O2"
_cell_formula_units_Z 48
_cell_length_a 17.607957
_cell_length_b 28.487985
_cell_length_c 9.365055
_cell_angle_alpha 90.000000
_cell_angle_beta 150.300100
_cell_angle_gamma 90.000000
_cell_volume 2327.486312
_symmetry_space_group_name_H-M "C 2/C"
_symmetry_group_IT_number 15
_symmetry_cell_setting 'monoclinic'
loop_
_space_group_symop_operation_xyz
x,y,z
-x,y,1/2-z
-x,-y,-z
x,-y,1/2+z
1/2+x,1/2+y,z
1/2-x,1/2+y,1/2-z
1/2-x,1/2-y,-z
1/2+x,1/2-y,1/2+z
loop_
_atom_site_type_symbol
_atom_site_label
_atom_site_fract_x
_atom_site_fract_y
_atom_site_fract_z
Si Si1 0.163642 0.714249 0.464571
Si Si2 0.720683 0.368600 0.517393
Si Si3 0.118961 0.870075 0.664755
Si Si4 0.427784 0.053534 0.266154
Si Si5 0.639340 0.949759 0.378242
Si Si6 0.338341 0.286365 0.543442
O O1 0.250000 0.750000 0.500000
O O2 0.165058 0.666982 0.374313
O O3 0.000000 0.732636 0.250000
O O4 0.249086 0.704090 0.751871
O O5 0.692416 0.353298 0.634091
O O6 0.798137 0.419142 0.638862
O O7 0.560530 0.372827 0.170050
O O8 0.137411 0.832867 0.821930
O O9 0.210512 0.917950 0.855322
O O10 0.500000 0.080114 0.250000
O O11 0.570025 0.048789 0.606062
O O12 0.352870 0.005704 0.080689
O O13 0.500000 0.930988 0.250000
O O14 0.500000 0.267017 0.750000
O O15 0.250000 0.250000 0.500000
#
# Coordination Sequence:
#
# PCOD9284944 Si02
#       6
#     8   8   8   8   8   8
#     4  12  27  45  71 100 133 175 220 274 334 396
#     4  11  24  44  64  96 135 176 221 274 338 394
#     4  11  25  42  67  95 137 174 220 276 333 401
#     4  10  22  40  67  95 133 173 226 278 331 399
#     4  10  21  41  65  98 130 176 227 275 330 401
#     4  12  26  47  69 100 135 174 221 271 332 399
#
# _framework density 20.623107999999998
#
# number of rings (size 3 to 8) (size 9 to 14) (size 15 to 20)
#    0.000    1.000    3.333    2.500    7.000    1.333 
#    0.000    0.000    3.667    0.000    0.000    0.000 
#    0.000    0.000    0.000    0.000    0.000    0.000 
#
# Total GULP energy -133890.356726 kJ/mol
# GULP energy per Si atom -5578.764864 kJ/mol
# Density = 2.057617 g / cm^3
# Si number density = 20.623108 Si / 1000 Ang^3
#
#
#
# Elastic Constant Matrix: (Units=GPa)
#
#
# Indices 1 2 3 4 5 6 
#
# 1 131.8738 32.2643 40.2409 0.0000 1.9378 0.0000
# 2 32.2643 72.7082 19.3875 0.0000 5.1053 0.0000
# 3 40.2409 19.3875 79.0980 0.0000 -17.0544 0.0000
# 4 0.0000 0.0000 0.0000 13.5615 0.0000 15.9827
# 5 1.9378 5.1053 -17.0544 0.0000 39.8933 0.0000
# 6 0.0000 0.0000 0.0000 15.9827 0.0000 7.1902
#
#
#
# Elastic Compliance Matrix: (Units=1/GPa)
#
#
# Indices 1 2 3 4 5 6 
#
# 1 0.009767 -0.002931 -0.004706 0.000000 -0.002111 0.000000
# 2 -0.002931 0.016129 -0.003169 0.000000 -0.003276 0.000000
# 3 -0.004706 -0.003169 0.017569 0.000000 0.008145 0.000000
# 4 0.000000 0.000000 0.000000 -0.045525 0.000000 0.101196
# 5 -0.002111 -0.003276 0.008145 0.000000 0.029071 0.000000
# 6 0.000000 0.000000 0.000000 0.101196 0.000000 -0.085866
#
#
# Mechanical properties :
#
#
# Convention : Reuss Voigt Hill
#
# Bulk Modulus (GPa) = 45.75649 51.94058 48.84854
# Shear Modulus (GPa) = -166.89564 24.91481 -70.99041
#
# Velocity S-wave (km/s) = -9.00568 3.47955 -5.87346
# Velocity P-wave (km/s) = 9.26829 6.43298 4.71793
#
# Compressibility (1/GPa) = 0.02185482
#
# Stress axis : x y z
#
# Youngs Moduli (GPa) = 102.38464 61.99915 56.91738
#
# Poissons Ratio (x) = 0.18173 0.26784
# Poissons Ratio (y) = 0.30011 0.18035
# Poissons Ratio (z) = 0.48179 0.19645
#
# Static dielectric constant tensor:
#      x y z
#    x 1.801130 0.000000 0.100780 
#    y 0.000000 1.780320 0.000000 
#    z 0.100780 0.000000 1.951360 
# 
# From -- ./inp_files/52875.got.cif
#   From: 2010.05.17/outbox.cif.g08.bks.cpg/sg15_27_cif.got.tgz:52875.got - 2010.06.03 18:47:42.
