data_PCOD9284353
_publ_section_title
;
Structure prediction by ZEFSAII (Michael W. Deem and Ramdas Pophale) SiO2 
 PCOD9284353
Probable space group: C 2/C
;
_chemical_formula_sum "Si O2"
_cell_formula_units_Z 44
_cell_length_a 5.237124
_cell_length_b 22.387393
_cell_length_c 17.695894
_cell_angle_alpha 90.000000
_cell_angle_beta 114.336706
_cell_angle_gamma 90.000000
_cell_volume 1890.400147
_symmetry_space_group_name_H-M "C 2/C"
_symmetry_group_IT_number 15
_symmetry_cell_setting 'monoclinic'
loop_
_space_group_symop_operation_xyz
x,y,z
-x,y,1/2-z
-x,-y,-z
x,-y,1/2+z
1/2+x,1/2+y,z
1/2-x,1/2+y,1/2-z
1/2-x,1/2-y,-z
1/2+x,1/2-y,1/2+z
loop_
_atom_site_type_symbol
_atom_site_label
_atom_site_fract_x
_atom_site_fract_y
_atom_site_fract_z
Si Si1 0.500000 0.541605 0.250000
Si Si2 0.238224 0.873181 0.441556
Si Si3 0.269047 0.050201 0.675048
Si Si4 0.500000 0.269088 0.750000
Si Si5 0.546543 0.061315 0.385627
Si Si6 0.777459 0.703763 0.572566
Si Si7 0.000000 0.350463 0.750000
O O1 0.295011 0.499922 0.271205
O O2 0.711319 0.570074 0.335348
O O3 0.351461 0.913288 0.523445
O O4 0.499376 0.847017 0.426542
O O5 0.013686 0.913551 0.370150
O O6 0.033174 0.821581 0.448821
O O7 0.500000 0.088038 0.750000
O O8 0.359326 0.008106 0.615098
O O9 0.399424 0.232416 0.664164
O O10 0.761866 0.309673 0.757031
O O11 0.640252 0.106409 0.329915
O O12 0.750000 0.750000 0.500000
#
# Coordination Sequence:
#
# PCOD9284353 Si02
#       7
#     4   8   8   4   8   8   4
#     4  10  21  40  69  96 162 181 244 293 348 442
#     4  12  28  44  78 103 151 193 242 299 387 429
#     4  10  24  43  67 108 152 191 240 294 358 462
#     4  12  27  46  75 100 143 188 254 309 382 414
#     4  11  23  42  69 112 144 192 240 300 362 452
#     4  12  28  52  71 109 143 190 255 323 355 439
#     4  12  22  42  76 102 133 195 240 302 368 434
#
# _framework density 23.275493000000001
#
# number of rings (size 3 to 8) (size 9 to 14) (size 15 to 20)
#    0.000    0.727    2.727    4.909    8.909    0.727 
#    0.000    0.000    0.000    0.000    0.000    0.000 
#    0.000    0.000    0.000    0.000    0.000    0.000 
#
# Total GULP energy -122913.260841 kJ/mol
# GULP energy per Si atom -5586.966402 kJ/mol
# Density = 2.322252 g / cm^3
# Si number density = 23.275493 Si / 1000 Ang^3
#
#
#
# Elastic Constant Matrix: (Units=GPa)
#
#
# Indices 1 2 3 4 5 6 
#
# 1 95.9176 11.5790 6.2162 0.0000 7.2047 0.0000
# 2 11.5790 64.3668 28.0695 0.0000 1.2027 0.0000
# 3 6.2162 28.0695 138.8577 0.0000 19.3106 0.0000
# 4 0.0000 0.0000 0.0000 45.5513 0.0000 5.3171
# 5 7.2047 1.2027 19.3106 0.0000 35.6768 0.0000
# 6 0.0000 0.0000 0.0000 5.3171 0.0000 69.9640
#
#
#
# Elastic Compliance Matrix: (Units=1/GPa)
#
#
# Indices 1 2 3 4 5 6 
#
# 1 0.010821 -0.002006 0.000233 0.000000 -0.002244 0.000000
# 2 -0.002006 0.017474 -0.003695 0.000000 0.001816 0.000000
# 3 0.000233 -0.003695 0.008573 0.000000 -0.004563 0.000000
# 4 0.000000 0.000000 0.000000 0.022150 0.000000 -0.001683
# 5 -0.002244 0.001816 -0.004563 0.000000 0.030891 0.000000
# 6 0.000000 0.000000 0.000000 -0.001683 0.000000 0.014421
#
#
# Mechanical properties :
#
#
# Convention : Reuss Voigt Hill
#
# Bulk Modulus (GPa) = 38.56297 43.43016 40.99656
# Shear Modulus (GPa) = 40.35171 47.12356 43.73763
#
# Velocity S-wave (km/s) = 4.16824 4.50444 4.33959
# Velocity P-wave (km/s) = 6.30632 6.76409 6.53921
#
# Compressibility (1/GPa) = 0.02593161
#
# Stress axis : x y z
#
# Youngs Moduli (GPa) = 92.41064 57.22669 116.65022
#
# Poissons Ratio (x) = 0.11482 -0.02720
# Poissons Ratio (y) = 0.18541 0.43104
# Poissons Ratio (z) = -0.02155 0.21146
#
# Static dielectric constant tensor:
#      x y z
#    x 2.018070 0.000000 0.068340 
#    y 0.000000 1.944170 0.000000 
#    z 0.068340 0.000000 1.944680 
# 
# From -- ./inp_files/185602.got.cif
#   From: 2010.05.17/outbox.cif.g08.bks.cpg/sg15_93_cif.got.tgz:185602.got - 2010.06.03 18:47:42.
