data_PCOD9284418
_publ_section_title
;
Structure prediction by ZEFSAII (Michael W. Deem and Ramdas Pophale) SiO2 
 PCOD9284418
Probable space group: C 2/C
;
_chemical_formula_sum "Si O2"
_cell_formula_units_Z 40
_cell_length_a 6.911444
_cell_length_b 23.653846
_cell_length_c 9.444901
_cell_angle_alpha 90.000000
_cell_angle_beta 65.478040
_cell_angle_gamma 90.000000
_cell_volume 1404.801561
_symmetry_space_group_name_H-M "C 2/C"
_symmetry_group_IT_number 15
_symmetry_cell_setting 'monoclinic'
loop_
_space_group_symop_operation_xyz
x,y,z
-x,y,1/2-z
-x,-y,-z
x,-y,1/2+z
1/2+x,1/2+y,z
1/2-x,1/2+y,1/2-z
1/2-x,1/2-y,-z
1/2+x,1/2-y,1/2+z
loop_
_atom_site_type_symbol
_atom_site_label
_atom_site_fract_x
_atom_site_fract_y
_atom_site_fract_z
Si Si1 0.808285 0.381912 0.101550
Si Si2 0.681150 0.175669 0.358606
Si Si3 0.362008 0.431932 0.624770
Si Si4 0.660586 0.031655 0.555798
Si Si5 0.247716 0.199339 0.845489
O O1 0.674577 0.418036 0.030980
O O2 0.935199 0.337511 0.965249
O O3 0.013573 0.413101 0.107225
O O4 0.685981 0.352071 0.264688
O O5 0.773703 0.122406 0.240133
O O6 0.802429 0.185711 0.474670
O O7 0.679675 0.239994 0.306954
O O8 0.225402 0.490863 0.667924
O O9 0.000000 0.500000 0.500000
O O10 0.607771 0.448876 0.573331
O O11 0.500000 0.202282 0.750000
#
# Coordination Sequence:
#
# PCOD9284418 Si02
#       5
#     8   8   8   8   8
#     4  10  21  42  73 108 152 200 252 331 394 469
#     4  10  21  40  71 108 150 208 264 320 398 485
#     4  10  21  41  74 112 146 198 264 321 393 480
#     4   9  21  43  72 110 151 196 256 327 394 471
#     4   9  21  41  68 106 155 208 257 324 400 479
#
# _framework density 28.473769999999998
#
# number of rings (size 3 to 8) (size 9 to 14) (size 15 to 20)
#    0.000    2.400    0.000    0.600    2.800    0.800 
#    0.000   19.000    0.000   28.800    0.000    0.000 
#    0.000    0.000    0.000    0.000    0.000    0.000 
#
# Total GULP energy -111772.214087 kJ/mol
# GULP energy per Si atom -5588.610704 kJ/mol
# Density = 2.840896 g / cm^3
# Si number density = 28.473770 Si / 1000 Ang^3
#
#
#
# Elastic Constant Matrix: (Units=GPa)
#
#
# Indices 1 2 3 4 5 6 
#
# 1 179.0512 45.0775 44.8989 0.0000 17.5067 0.0000
# 2 45.0775 176.7637 60.5118 0.0000 8.0923 0.0000
# 3 44.8989 60.5118 128.7332 0.0000 15.7999 0.0000
# 4 0.0000 0.0000 0.0000 57.6378 0.0000 17.7024
# 5 17.5067 8.0923 15.7999 0.0000 29.6275 0.0000
# 6 0.0000 0.0000 0.0000 17.7024 0.0000 22.3514
#
#
#
# Elastic Compliance Matrix: (Units=1/GPa)
#
#
# Indices 1 2 3 4 5 6 
#
# 1 0.006476 -0.001034 -0.001431 0.000000 -0.002781 0.000000
# 2 -0.001034 0.006908 -0.002921 0.000000 0.000282 0.000000
# 3 -0.001431 -0.002921 0.010100 0.000000 -0.003742 0.000000
# 4 0.000000 0.000000 0.000000 0.022927 0.000000 -0.018158
# 5 -0.002781 0.000282 -0.003742 0.000000 0.037314 0.000000
# 6 0.000000 0.000000 0.000000 -0.018158 0.000000 0.059121
#
#
# Mechanical properties :
#
#
# Convention : Reuss Voigt Hill
#
# Bulk Modulus (GPa) = 78.67403 87.28048 82.97725
# Shear Modulus (GPa) = 31.67448 44.19402 37.93425
#
# Velocity S-wave (km/s) = 3.33890 3.94394 3.65396
# Velocity P-wave (km/s) = 6.52339 7.17349 6.85615
#
# Compressibility (1/GPa) = 0.01271067
#
# Stress axis : x y z
#
# Youngs Moduli (GPa) = 154.41184 144.75794 99.01405
#
# Poissons Ratio (x) = 0.14972 0.14171
# Poissons Ratio (y) = 0.15970 0.28923
# Poissons Ratio (z) = 0.22100 0.42285
#
# Static dielectric constant tensor:
#      x y z
#    x 2.201330 0.000000 0.026170 
#    y 0.000000 2.439130 0.000000 
#    z 0.026170 0.000000 2.541540 
# 
# From -- ./inp_files/100129.got.cif
#   From: 2010.05.17/outbox.cif.g08.bks.cpg/sg15_51_cif.got.tgz:100129.got - 2010.06.03 18:47:42.
