data_PCOD9284076
_publ_section_title
;
Structure prediction by ZEFSAII (Michael W. Deem and Ramdas Pophale) SiO2 
 PCOD9284076
Probable space group: C 2/C
;
_chemical_formula_sum "Si O2"
_cell_formula_units_Z 40
_cell_length_a 20.924273
_cell_length_b 10.880762
_cell_length_c 15.303670
_cell_angle_alpha 90.000000
_cell_angle_beta 31.766519
_cell_angle_gamma 90.000000
_cell_volume 1834.297994
_symmetry_space_group_name_H-M "C 2/C"
_symmetry_group_IT_number 15
_symmetry_cell_setting 'monoclinic'
loop_
_space_group_symop_operation_xyz
x,y,z
-x,y,1/2-z
-x,-y,-z
x,-y,1/2+z
1/2+x,1/2+y,z
1/2-x,1/2+y,1/2-z
1/2-x,1/2-y,-z
1/2+x,1/2-y,1/2+z
loop_
_atom_site_type_symbol
_atom_site_label
_atom_site_fract_x
_atom_site_fract_y
_atom_site_fract_z
Si Si1 0.500000 0.903268 0.750000
Si Si2 0.819738 0.802021 0.503001
Si Si3 0.000000 0.984327 0.750000
Si Si4 0.700040 0.554814 0.305566
Si Si5 0.517524 0.653698 0.055844
Si Si6 0.537723 0.056452 0.548888
O O1 0.584172 0.808207 0.597569
O O2 0.461556 0.994769 0.716328
O O3 0.750000 0.750000 0.500000
O O4 0.759619 0.853532 0.661705
O O5 0.889080 0.924516 0.393968
O O6 0.027228 0.903693 0.801769
O O7 0.581951 0.619901 0.401380
O O8 0.644499 0.419729 0.392383
O O9 0.816885 0.537087 0.109097
O O10 0.523576 0.798007 0.059849
O O11 0.500000 0.000000 0.500000
#
# Coordination Sequence:
#
# PCOD9284076 Si02
#       6
#     4   8   4   8   8   8
#     4  11  25  40  62 102 135 169 224 280 336 395
#     4  10  21  40  66  94 132 176 228 275 332 412
#     4   9  21  42  64  96 125 179 222 282 340 401
#     4  10  24  43  70  96 134 190 227 284 348 411
#     4  10  23  44  67  94 136 176 234 281 347 419
#     4  12  26  43  67 103 139 177 229 287 349 410
#
# _framework density 21.806708
#
# number of rings (size 3 to 8) (size 9 to 14) (size 15 to 20)
#    0.000    1.600    0.000    3.000    8.400    4.800 
#    0.000    2.000    0.000    0.000    0.000    0.000 
#    0.000    0.000    0.000    0.000    0.000    0.000 
#
# Total GULP energy -111499.501455 kJ/mol
# GULP energy per Si atom -5574.975073 kJ/mol
# Density = 2.175708 g / cm^3
# Si number density = 21.806708 Si / 1000 Ang^3
#
#
#
# Elastic Constant Matrix: (Units=GPa)
#
#
# Indices 1 2 3 4 5 6 
#
# 1 80.8695 35.9203 -7.6273 0.0000 14.2269 0.0000
# 2 35.9203 186.1766 21.5299 0.0000 16.6646 0.0000
# 3 -7.6273 21.5299 42.8286 0.0000 8.5719 0.0000
# 4 0.0000 0.0000 0.0000 16.3045 0.0000 15.8486
# 5 14.2269 16.6646 8.5719 0.0000 30.6911 0.0000
# 6 0.0000 0.0000 0.0000 15.8486 0.0000 38.5439
#
#
#
# Elastic Compliance Matrix: (Units=1/GPa)
#
#
# Indices 1 2 3 4 5 6 
#
# 1 0.015497 -0.003010 0.005702 0.000000 -0.007142 0.000000
# 2 -0.003010 0.006464 -0.003561 0.000000 -0.001120 0.000000
# 3 0.005702 -0.003561 0.027854 0.000000 -0.008489 0.000000
# 4 0.000000 0.000000 0.000000 0.102168 0.000000 -0.042010
# 5 -0.007142 -0.001120 -0.008489 0.000000 0.038872 0.000000
# 6 0.000000 0.000000 0.000000 -0.042010 0.000000 0.043218
#
#
# Mechanical properties :
#
#
# Convention : Reuss Voigt Hill
#
# Bulk Modulus (GPa) = 20.80021 45.50229 33.15125
# Shear Modulus (GPa) = 19.85413 34.44467 27.14940
#
# Velocity S-wave (km/s) = 3.02066 3.97866 3.53229
# Velocity P-wave (km/s) = 4.66101 6.48211 5.64547
#
# Compressibility (1/GPa) = 0.04807644
#
# Stress axis : x y z
#
# Youngs Moduli (GPa) = 64.52920 154.70083 35.90180
#
# Poissons Ratio (x) = 0.46566 -0.20473
# Poissons Ratio (y) = 0.19424 0.12786
# Poissons Ratio (z) = -0.36797 0.55096
#
# Static dielectric constant tensor:
#      x y z
#    x 1.786300 0.000000 -0.114000 
#    y 0.000000 1.787510 0.000000 
#    z -0.114000 0.000000 1.792790 
# 
# From -- ./inp_files/103972.got.cif
#   From: 2010.05.17/outbox.cif.g08.bks.cpg/sg15_52_cif.got.tgz:103972.got - 2010.06.03 18:47:42.
