data_PCOD9284628
_publ_section_title
;
Structure prediction by ZEFSAII (Michael W. Deem and Ramdas Pophale) SiO2 
 PCOD9284628
Probable space group: C 2/C
;
_chemical_formula_sum "Si O2"
_cell_formula_units_Z 56
_cell_length_a 10.276169
_cell_length_b 21.728078
_cell_length_c 11.766497
_cell_angle_alpha 90.000000
_cell_angle_beta 71.896821
_cell_angle_gamma 90.000000
_cell_volume 2497.187604
_symmetry_space_group_name_H-M "C 2/C"
_symmetry_group_IT_number 15
_symmetry_cell_setting 'monoclinic'
loop_
_space_group_symop_operation_xyz
x,y,z
-x,y,1/2-z
-x,-y,-z
x,-y,1/2+z
1/2+x,1/2+y,z
1/2-x,1/2+y,1/2-z
1/2-x,1/2-y,-z
1/2+x,1/2-y,1/2+z
loop_
_atom_site_type_symbol
_atom_site_label
_atom_site_fract_x
_atom_site_fract_y
_atom_site_fract_z
Si Si1 0.634085 0.862228 0.902048
Si Si2 0.543143 0.973651 0.613839
Si Si3 0.101724 0.143289 0.314633
Si Si4 0.637672 0.691371 0.648331
Si Si5 0.054757 0.072683 0.560219
Si Si6 0.694390 0.455850 0.488783
Si Si7 0.068953 0.264175 0.437670
O O1 0.516153 0.904894 0.878109
O O2 0.746708 0.844135 0.776635
O O3 0.723751 0.905688 0.961625
O O4 0.553685 0.809509 0.993064
O O5 0.500000 0.999169 0.750000
O O6 0.500000 0.000000 0.500000
O O7 0.700342 0.991291 0.575626
O O8 0.104826 0.100879 0.425071
O O9 0.030649 0.208073 0.366567
O O10 0.000000 0.114460 0.250000
O O11 0.500000 0.711711 0.750000
O O12 0.619909 0.618872 0.631558
O O13 0.792543 0.703549 0.647215
O O14 0.617947 0.727922 0.536356
O O15 0.890476 0.076188 0.588379
O O16 0.087067 0.001818 0.578603
#
# Coordination Sequence:
#
# PCOD9284628 Si02
#       7
#     8   8   8   8   8   8   8
#     4  11  22  41  68  98 133 180 229 284 355 419
#     4  10  22  41  66  99 138 181 232 293 356 424
#     4  11  22  41  66  96 128 181 223 275 354 425
#     4  10  21  42  61  92 124 172 214 269 343 397
#     4  10  21  41  63  91 133 168 227 274 337 425
#     4  10  21  41  62  96 132 174 221 289 341 415
#     4  10  23  40  66  95 130 164 228 286 327 415
#
# _framework density 22.425228000000001
#
# number of rings (size 3 to 8) (size 9 to 14) (size 15 to 20)
#    0.000    1.714    1.429    2.571    0.000    3.429 
#   18.000    0.714    0.000    0.000    0.000    0.000 
#    0.000    0.000    0.000    0.000    0.000    0.000 
#
# Total GULP energy -155879.308836 kJ/mol
# GULP energy per Si atom -5567.118173 kJ/mol
# Density = 2.237419 g / cm^3
# Si number density = 22.425228 Si / 1000 Ang^3
#
#
#
# Elastic Constant Matrix: (Units=GPa)
#
#
# Indices 1 2 3 4 5 6 
#
# 1 66.8946 42.6044 29.1292 0.0000 -14.8959 0.0000
# 2 42.6044 114.2708 31.1500 0.0000 -7.1125 0.0000
# 3 29.1292 31.1500 96.4484 0.0000 -8.7637 0.0000
# 4 0.0000 0.0000 0.0000 6.6129 0.0000 -14.2777
# 5 -14.8959 -7.1125 -8.7637 0.0000 35.5557 0.0000
# 6 0.0000 0.0000 0.0000 -14.2777 0.0000 16.9705
#
#
#
# Elastic Compliance Matrix: (Units=1/GPa)
#
#
# Indices 1 2 3 4 5 6 
#
# 1 0.022678 -0.006931 -0.003962 0.000000 0.007138 0.000000
# 2 -0.006931 0.011763 -0.001796 0.000000 -0.000993 0.000000
# 3 -0.003962 -0.001796 0.012236 0.000000 0.000997 0.000000
# 4 0.000000 0.000000 0.000000 -0.185206 0.000000 -0.155819
# 5 0.007138 -0.000993 0.000997 0.000000 0.031162 0.000000
# 6 0.000000 0.000000 0.000000 -0.155819 0.000000 -0.072169
#
#
# Mechanical properties :
#
#
# Convention : Reuss Voigt Hill
#
# Bulk Modulus (GPa) = 46.95222 53.70902 50.33062
# Shear Modulus (GPa) = -34.00003 23.47649 -5.26177
#
# Velocity S-wave (km/s) = -3.89800 3.23906 -1.53345
# Velocity P-wave (km/s) = 0.85056 6.16368 4.39968
#
# Compressibility (1/GPa) = 0.02129825
#
# Stress axis : x y z
#
# Youngs Moduli (GPa) = 44.09613 85.01241 81.72931
#
# Poissons Ratio (x) = 0.58920 0.32382
# Poissons Ratio (y) = 0.30562 0.14680
# Poissons Ratio (z) = 0.17471 0.15269
#
# Static dielectric constant tensor:
#      x y z
#    x 1.964440 0.000000 -0.225950 
#    y 0.000000 1.853890 0.000000 
#    z -0.225950 0.000000 2.448750 
# 
# From -- ./inp_files/90713.got.cif
#   From: 2010.05.17/outbox.cif.g08.bks.cpg/sg15_46_cif.got.tgz:90713.got - 2010.06.03 18:47:42.
