data_PCOD9284689
_publ_section_title
;
Structure prediction by ZEFSAII (Michael W. Deem and Ramdas Pophale) SiO2 
 PCOD9284689
Probable space group: C 2/C
;
_chemical_formula_sum "Si O2"
_cell_formula_units_Z 44
_cell_length_a 17.978906
_cell_length_b 13.502118
_cell_length_c 10.718689
_cell_angle_alpha 90.000000
_cell_angle_beta 130.192095
_cell_angle_gamma 90.000000
_cell_volume 1987.626852
_symmetry_space_group_name_H-M "C 2/C"
_symmetry_group_IT_number 15
_symmetry_cell_setting 'monoclinic'
loop_
_space_group_symop_operation_xyz
x,y,z
-x,y,1/2-z
-x,-y,-z
x,-y,1/2+z
1/2+x,1/2+y,z
1/2-x,1/2+y,1/2-z
1/2-x,1/2-y,-z
1/2+x,1/2-y,1/2+z
loop_
_atom_site_type_symbol
_atom_site_label
_atom_site_fract_x
_atom_site_fract_y
_atom_site_fract_z
Si Si1 0.180187 0.735564 0.305486
Si Si2 0.000000 0.229868 0.750000
Si Si3 0.104422 0.772112 0.814299
Si Si4 0.783161 0.418561 0.059196
Si Si5 0.861502 0.140995 0.401659
Si Si6 0.778113 0.951789 0.235976
O O1 0.250000 0.750000 0.500000
O O2 0.072777 0.709651 0.238125
O O3 0.245837 0.662569 0.294482
O O4 0.179747 0.842684 0.240217
O O5 0.926829 0.161619 0.591752
O O6 0.133715 0.660923 0.883402
O O7 0.104992 0.781863 0.665927
O O8 0.000000 0.800101 0.750000
O O9 0.185431 0.850952 0.944876
O O10 0.787158 0.449406 0.208792
O O11 0.772338 0.506366 0.945809
O O12 0.864472 0.029125 0.358520
#
# Coordination Sequence:
#
# PCOD9284689 Si02
#       6
#     8   4   8   8   8   8
#     4  10  21  41  63  91 129 165 207 258 318 373
#     4  10  22  36  66 100 124 164 208 266 314 382
#     4  10  22  41  64  90 125 173 210 255 317 385
#     4  10  22  41  66  90 129 167 208 269 317 370
#     4  10  22  40  64  91 128 169 206 258 320 372
#     4  11  22  42  66  93 129 170 212 260 322 383
#
# _framework density 22.136951
#
# number of rings (size 3 to 8) (size 9 to 14) (size 15 to 20)
#    0.000    1.818    1.818    2.182    2.545    0.727 
#   11.455    0.909   18.000    0.000    0.000    0.000 
#    0.000    0.000    0.000    0.000    0.000    0.000 
#
# Total GULP energy -122785.997743 kJ/mol
# GULP energy per Si atom -5581.181716 kJ/mol
# Density = 2.208657 g / cm^3
# Si number density = 22.136951 Si / 1000 Ang^3
#
#
#
# Elastic Constant Matrix: (Units=GPa)
#
#
# Indices 1 2 3 4 5 6 
#
# 1 97.0340 21.2860 34.8431 0.0000 -1.7307 0.0000
# 2 21.2860 70.1701 18.9306 0.0000 4.3331 0.0000
# 3 34.8431 18.9306 65.5068 0.0000 -6.4487 0.0000
# 4 0.0000 0.0000 0.0000 21.2472 0.0000 -13.4497
# 5 -1.7307 4.3331 -6.4487 0.0000 39.8364 0.0000
# 6 0.0000 0.0000 0.0000 -13.4497 0.0000 11.2143
#
#
#
# Elastic Compliance Matrix: (Units=1/GPa)
#
#
# Indices 1 2 3 4 5 6 
#
# 1 0.013064 -0.002245 -0.006321 0.000000 -0.000212 0.000000
# 2 -0.002245 0.016079 -0.003693 0.000000 -0.002444 0.000000
# 3 -0.006321 -0.003693 0.020027 0.000000 0.003369 0.000000
# 4 0.000000 0.000000 0.000000 0.195444 0.000000 0.234402
# 5 -0.000212 -0.002444 0.003369 0.000000 0.025905 0.000000
# 6 0.000000 0.000000 0.000000 0.234402 0.000000 0.370297
#
#
# Mechanical properties :
#
#
# Convention : Reuss Voigt Hill
#
# Bulk Modulus (GPa) = 40.56447 42.53671 41.55059
# Shear Modulus (GPa) = 7.42334 24.96967 16.19651
#
# Velocity S-wave (km/s) = 1.83321 3.36216 2.70784
# Velocity P-wave (km/s) = 4.77964 5.85911 5.34669
#
# Compressibility (1/GPa) = 0.02465211
#
# Stress axis : x y z
#
# Youngs Moduli (GPa) = 76.54624 62.19158 49.93333
#
# Poissons Ratio (x) = 0.13960 0.31562
# Poissons Ratio (y) = 0.17182 0.18443
# Poissons Ratio (z) = 0.48384 0.22970
#
# Static dielectric constant tensor:
#      x y z
#    x 1.806530 0.000000 -0.086640 
#    y 0.000000 1.815520 0.000000 
#    z -0.086640 0.000000 1.841890 
# 
# From -- ./inp_files/105532.got.cif
#   From: 2010.05.17/outbox.cif.g08.bks.cpg/sg15_53_cif.got.tgz:105532.got - 2010.06.03 18:47:42.
