data_PCOD9284505
_publ_section_title
;
Structure prediction by ZEFSAII (Michael W. Deem and Ramdas Pophale) SiO2 
 PCOD9284505
Probable space group: C 2/C
;
_chemical_formula_sum "Si O2"
_cell_formula_units_Z 64
_cell_length_a 16.372698
_cell_length_b 14.075194
_cell_length_c 17.520786
_cell_angle_alpha 90.000000
_cell_angle_beta 33.050712
_cell_angle_gamma 90.000000
_cell_volume 2202.055835
_symmetry_space_group_name_H-M "C 2/C"
_symmetry_group_IT_number 15
_symmetry_cell_setting 'monoclinic'
loop_
_space_group_symop_operation_xyz
x,y,z
-x,y,1/2-z
-x,-y,-z
x,-y,1/2+z
1/2+x,1/2+y,z
1/2-x,1/2+y,1/2-z
1/2-x,1/2-y,-z
1/2+x,1/2-y,1/2+z
loop_
_atom_site_type_symbol
_atom_site_label
_atom_site_fract_x
_atom_site_fract_y
_atom_site_fract_z
Si Si1 0.406670 0.421891 0.914791
Si Si2 0.606343 0.831439 0.091661
Si Si3 0.848663 0.693480 0.279374
Si Si4 0.102509 0.276772 0.365534
Si Si5 0.074581 0.862344 0.084949
Si Si6 0.236525 0.040151 0.152864
Si Si7 0.534943 0.081993 0.036091
Si Si8 0.839327 0.067520 0.645516
O O1 0.581022 0.410136 0.754639
O O2 0.275796 0.347041 0.992554
O O3 0.392235 0.535188 0.901806
O O4 0.386075 0.435610 0.021836
O O5 0.500000 0.846006 0.250000
O O6 0.515214 0.755010 0.109270
O O7 0.638599 0.906981 0.996892
O O8 0.732149 0.713052 0.300359
O O9 0.736195 0.678049 0.436767
O O10 0.965038 0.779195 0.200457
O O11 0.942839 0.598249 0.184557
O O12 0.016465 0.319018 0.505940
O O13 0.198302 0.362852 0.255636
O O14 0.977892 0.890418 0.084545
O O15 0.287467 0.932805 0.092068
O O16 0.212409 0.023077 0.263171
O O17 0.500000 0.000000 0.000000
#
# Coordination Sequence:
#
# PCOD9284505 Si02
#       8
#     8   8   8   8   8   8   8   8
#     4  11  23  40  66 105 139 186 241 306 364 432
#     4  12  24  40  65 101 145 193 240 290 357 446
#     4  11  23  40  64 102 145 178 234 310 377 435
#     4  10  21  41  60 102 140 184 227 293 369 431
#     4  10  22  37  64  99 140 180 228 302 380 426
#     4  10  22  38  63 102 139 172 242 311 357 416
#     4  11  22  37  71 107 127 179 248 310 356 428
#     4   9  20  38  65 102 137 172 236 310 362 412
#
# _framework density 29.063749999999999
#
# number of rings (size 3 to 8) (size 9 to 14) (size 15 to 20)
#    0.000    1.500    3.750    2.625    7.000    0.000 
#    0.000    0.000    0.000    3.750    9.750    0.000 
#    0.000    0.000    0.000    0.000    0.000    0.000 
#
# Total GULP energy -178289.806986 kJ/mol
# GULP energy per Si atom -5571.556468 kJ/mol
# Density = 2.899760 g / cm^3
# Si number density = 29.063750 Si / 1000 Ang^3
#
#
#
# Elastic Constant Matrix: (Units=GPa)
#
#
# Indices 1 2 3 4 5 6 
#
# 1 184.1180 18.6828 26.3291 0.0002 -0.3774 0.0001
# 2 18.6828 57.5456 14.1998 0.0006 -13.1846 0.0002
# 3 26.3291 14.1998 195.4150 0.0009 -12.1119 0.0003
# 4 0.0002 0.0006 0.0009 -69.9151 -0.0001 -94.7108
# 5 -0.3774 -13.1846 -12.1119 -0.0001 42.1911 0.0000
# 6 0.0001 0.0002 0.0003 -94.7108 0.0000 -9.1801
#
#
#
# Elastic Compliance Matrix: (Units=1/GPa)
#
#
# Indices 1 2 3 4 5 6 
#
# 1 0.005715 -0.001853 -0.000680 0.000000 -0.000723 0.000000
# 2 -0.001853 0.019519 -0.000806 0.000000 0.005852 0.000000
# 3 -0.000680 -0.000806 0.005347 0.000000 0.001277 0.000000
# 4 0.000000 0.000000 0.000000 0.001102 0.000000 -0.011372
# 5 -0.000723 0.005852 0.001277 0.000000 0.025890 0.000000
# 6 0.000000 0.000000 0.000000 -0.011372 0.000000 0.008395
#
#
# Mechanical properties :
#
#
# Convention : Reuss Voigt Hill
#
# Bulk Modulus (GPa) = 41.83811 61.72246 51.78028
# Shear Modulus (GPa) = 62.02366 17.81030 39.91698
#
# Velocity S-wave (km/s) = 4.62460 2.47817 3.71000
# Velocity P-wave (km/s) = 6.55304 5.42876 6.01722
#
# Compressibility (1/GPa) = 0.02390166
#
# Stress axis : x y z
#
# Youngs Moduli (GPa) = 174.97357 51.23264 187.03243
#
# Poissons Ratio (x) = 0.09495 0.12722
# Poissons Ratio (y) = 0.32429 0.15074
# Poissons Ratio (z) = 0.11901 0.04129
#
# Static dielectric constant tensor:
#      x y z
#    x 2.643060 0.000000 -0.153010 
#    y 0.000000 2.427910 0.000000 
#    z -0.153010 0.000000 2.353080 
# 
# From -- ./inp_files/211950.got.cif
#   From: 2010.05.17/outbox.cif.g08.bks.cpg/sg15_106_cif.got.tgz:211950.got - 2010.06.03 18:47:42.
