data_PCOD9284077
_publ_section_title
;
Structure prediction by ZEFSAII (Michael W. Deem and Ramdas Pophale) SiO2 
 PCOD9284077
Probable space group: C 2/C
;
_chemical_formula_sum "Si O2"
_cell_formula_units_Z 44
_cell_length_a 7.954163
_cell_length_b 17.775652
_cell_length_c 17.989994
_cell_angle_alpha 90.000000
_cell_angle_beta 48.111402
_cell_angle_gamma 90.000000
_cell_volume 1893.578571
_symmetry_space_group_name_H-M "C 2/C"
_symmetry_group_IT_number 15
_symmetry_cell_setting 'monoclinic'
loop_
_space_group_symop_operation_xyz
x,y,z
-x,y,1/2-z
-x,-y,-z
x,-y,1/2+z
1/2+x,1/2+y,z
1/2-x,1/2+y,1/2-z
1/2-x,1/2-y,-z
1/2+x,1/2-y,1/2+z
loop_
_atom_site_type_symbol
_atom_site_label
_atom_site_fract_x
_atom_site_fract_y
_atom_site_fract_z
Si Si1 0.743226 0.473329 0.589267
Si Si2 0.741827 0.300896 0.134912
Si Si3 0.000000 0.448774 0.750000
Si Si4 0.003307 0.892430 0.411995
Si Si5 0.858673 0.562010 0.688650
Si Si6 0.040205 0.859869 0.904403
O O1 0.604980 0.527376 0.575201
O O2 0.717655 0.502227 0.681156
O O3 0.650624 0.390497 0.596493
O O4 0.000000 0.500000 0.500000
O O5 0.500000 0.295941 0.250000
O O6 0.660439 0.328605 0.076975
O O7 0.890402 0.369175 0.124009
O O8 0.886470 0.226901 0.107653
O O9 0.038809 0.505817 0.670069
O O10 0.775357 0.399945 0.810747
O O11 0.031067 0.881645 0.490692
O O12 0.227664 0.897807 0.295394
#
# Coordination Sequence:
#
# PCOD9284077 Si02
#       6
#     8   8   4   8   8   8
#     4  11  23  40  64  96 136 172 224 281 337 398
#     4   9  20  42  66  93 139 177 216 277 349 402
#     4  12  24  38  72  96 128 168 236 280 344 402
#     4  10  21  40  66  94 132 181 220 269 349 409
#     4  10  23  43  65  91 133 185 212 273 353 415
#     4  12  23  39  68 105 127 170 237 285 328 408
#
# _framework density 23.236426999999999
#
# number of rings (size 3 to 8) (size 9 to 14) (size 15 to 20)
#    0.000    1.455    2.727    3.818    2.545    0.000 
#    0.000    5.455    4.000    0.000    0.000    0.000 
#    0.000    0.000    0.000    0.000    0.000    0.000 
#
# Total GULP energy -122587.617102 kJ/mol
# GULP energy per Si atom -5572.164414 kJ/mol
# Density = 2.318354 g / cm^3
# Si number density = 23.236427 Si / 1000 Ang^3
#
#
#
# Elastic Constant Matrix: (Units=GPa)
#
#
# Indices 1 2 3 4 5 6 
#
# 1 64.3967 43.7128 3.0291 0.0000 10.9586 0.0001
# 2 43.7128 139.2356 5.9030 0.0000 17.4675 0.0000
# 3 3.0291 5.9030 52.7180 0.0000 6.0844 0.0001
# 4 0.0000 0.0000 0.0000 14.4657 0.0000 -16.7612
# 5 10.9586 17.4675 6.0844 0.0000 44.4546 -0.0001
# 6 0.0001 0.0000 0.0001 -16.7612 -0.0001 5.7142
#
#
#
# Elastic Compliance Matrix: (Units=1/GPa)
#
#
# Indices 1 2 3 4 5 6 
#
# 1 0.020016 -0.005954 -0.000187 0.000000 -0.002569 0.000000
# 2 -0.005954 0.009339 -0.000457 0.000000 -0.002139 0.000000
# 3 -0.000187 -0.000457 0.019310 0.000000 -0.002417 0.000000
# 4 0.000000 0.000000 0.000000 -0.028819 0.000000 -0.084534
# 5 -0.002569 -0.002139 -0.002417 0.000000 0.024300 0.000000
# 6 0.000000 0.000000 0.000000 -0.084534 0.000000 -0.072956
#
#
# Mechanical properties :
#
#
# Convention : Reuss Voigt Hill
#
# Bulk Modulus (GPa) = 28.19274 40.18221 34.18748
# Shear Modulus (GPa) = -1318.40338 26.50726 -645.94806
#
# Velocity S-wave (km/s) = -23.84572 3.38118 -16.69110
# Velocity P-wave (km/s) = 27.31297 5.70732 18.88683
#
# Compressibility (1/GPa) = 0.03547013
#
# Stress axis : x y z
#
# Youngs Moduli (GPa) = 49.95946 107.07768 51.78735
#
# Poissons Ratio (x) = 0.63752 0.00968
# Poissons Ratio (y) = 0.29745 0.02365
# Poissons Ratio (z) = 0.00934 0.04890
#
# Static dielectric constant tensor:
#      x y z
#    x 1.857340 0.000000 -0.060970 
#    y 0.000000 1.879270 0.000000 
#    z -0.060970 0.000000 1.963880 
# 
# From -- ./inp_files/134319.got.cif
#   From: 2010.05.17/outbox.cif.g08.bks.cpg/sg15_68_cif.got.tgz:134319.got - 2010.06.03 18:47:42.
