data_PCOD9284889
_publ_section_title
;
Structure prediction by ZEFSAII (Michael W. Deem and Ramdas Pophale) SiO2 
 PCOD9284889
Probable space group: C 2/C
;
_chemical_formula_sum "Si O2"
_cell_formula_units_Z 52
_cell_length_a 7.141534
_cell_length_b 31.017131
_cell_length_c 12.026887
_cell_angle_alpha 90.000000
_cell_angle_beta 123.016917
_cell_angle_gamma 90.000000
_cell_volume 2233.852357
_symmetry_space_group_name_H-M "C 2/C"
_symmetry_group_IT_number 15
_symmetry_cell_setting 'monoclinic'
loop_
_space_group_symop_operation_xyz
x,y,z
-x,y,1/2-z
-x,-y,-z
x,-y,1/2+z
1/2+x,1/2+y,z
1/2-x,1/2+y,1/2-z
1/2-x,1/2-y,-z
1/2+x,1/2-y,1/2+z
loop_
_atom_site_type_symbol
_atom_site_label
_atom_site_fract_x
_atom_site_fract_y
_atom_site_fract_z
Si Si1 0.259748 0.435628 0.234903
Si Si2 0.854703 0.202979 0.361890
Si Si3 0.890039 0.585022 0.044371
Si Si4 0.934801 0.141520 0.917123
Si Si5 0.500000 0.988029 0.750000
Si Si6 0.035661 0.330165 0.599398
Si Si7 0.355188 0.197891 0.814435
O O1 0.500000 0.437843 0.250000
O O2 0.264754 0.396366 0.325070
O O3 0.193108 0.480142 0.269598
O O4 0.092173 0.427116 0.078759
O O5 0.659510 0.191549 0.388687
O O6 0.756429 0.194149 0.207998
O O7 0.881803 0.254046 0.371871
O O8 0.046961 0.170067 0.464799
O O9 0.072318 0.619847 0.141927
O O10 0.905422 0.542919 0.123535
O O11 0.663468 0.613490 0.985400
O O12 0.879032 0.178767 0.807672
O O13 0.952621 0.329704 0.446759
O O14 0.500000 0.195535 0.750000
#
# Coordination Sequence:
#
# PCOD9284889 Si02
#       7
#     8   8   8   8   4   8   8
#     4  10  23  42  67  98 137 179 226 280 345 425
#     4  10  22  38  64  97 128 174 231 282 328 397
#     4  10  21  42  67  99 132 171 228 285 336 420
#     4  10  22  41  66  91 136 181 218 275 341 402
#     4  12  24  42  74 104 134 176 226 292 356 412
#     4  10  21  41  65  92 128 177 228 277 348 407
#     4  12  25  40  62  95 137 183 231 279 340 409
#
# _framework density 23.278172000000001
#
# number of rings (size 3 to 8) (size 9 to 14) (size 15 to 20)
#    0.000    1.538    1.538    3.692    3.231    8.615 
#    0.000    1.538    0.000    6.462    0.000    0.000 
#    0.000    0.000    0.000    0.000    0.000    0.000 
#
# Total GULP energy -145030.858504 kJ/mol
# GULP energy per Si atom -5578.109942 kJ/mol
# Density = 2.322519 g / cm^3
# Si number density = 23.278172 Si / 1000 Ang^3
#
#
#
# Elastic Constant Matrix: (Units=GPa)
#
#
# Indices 1 2 3 4 5 6 
#
# 1 45.4798 9.9592 3.0779 0.0000 -6.3967 0.0000
# 2 9.9592 181.4777 47.7723 0.0000 -10.5609 0.0000
# 3 3.0779 47.7723 138.5317 0.0000 -10.0236 0.0000
# 4 0.0000 0.0000 0.0000 50.0666 0.0000 3.1729
# 5 -6.3967 -10.5609 -10.0236 0.0000 29.8063 0.0000
# 6 0.0000 0.0000 0.0000 3.1729 0.0000 1.6364
#
#
#
# Elastic Compliance Matrix: (Units=1/GPa)
#
#
# Indices 1 2 3 4 5 6 
#
# 1 0.022849 -0.001034 0.000182 0.000000 0.004598 0.000000
# 2 -0.001034 0.006172 -0.002012 0.000000 0.001288 0.000000
# 3 0.000182 -0.002012 0.008056 0.000000 0.002035 0.000000
# 4 0.000000 0.000000 0.000000 0.022771 0.000000 -0.044152
# 5 0.004598 0.001288 0.002035 0.000000 0.035678 0.000000
# 6 0.000000 0.000000 0.000000 -0.044152 0.000000 0.696691
#
#
# Mechanical properties :
#
#
# Convention : Reuss Voigt Hill
#
# Bulk Modulus (GPa) = 31.90110 54.12311 43.01210
# Shear Modulus (GPa) = 6.18510 36.61385 21.39947
#
# Velocity S-wave (km/s) = 1.63181 3.97026 3.03527
# Velocity P-wave (km/s) = 4.15746 6.65720 5.54990
#
# Compressibility (1/GPa) = 0.03134688
#
# Stress axis : x y z
#
# Youngs Moduli (GPa) = 43.76623 162.02986 124.13639
#
# Poissons Ratio (x) = 0.16756 -0.02255
# Poissons Ratio (y) = 0.04526 0.24978
# Poissons Ratio (z) = -0.00795 0.32602
#
# Static dielectric constant tensor:
#      x y z
#    x 2.033210 0.000000 0.048970 
#    y 0.000000 1.845020 0.000000 
#    z 0.048970 0.000000 1.904080 
# 
# From -- ./inp_files/81485.got.cif
#   From: 2010.05.17/outbox.cif.g08.bks.cpg/sg15_41_cif.got.tgz:81485.got - 2010.06.03 18:47:42.
