data_PCOD9284763
_publ_section_title
;
Structure prediction by ZEFSAII (Michael W. Deem and Ramdas Pophale) SiO2 
 PCOD9284763
Probable space group: C 2/C
;
_chemical_formula_sum "Si O2"
_cell_formula_units_Z 52
_cell_length_a 7.988966
_cell_length_b 28.744005
_cell_length_c 13.110463
_cell_angle_alpha 90.000000
_cell_angle_beta 127.866592
_cell_angle_gamma 90.000000
_cell_volume 2376.709927
_symmetry_space_group_name_H-M "C 2/C"
_symmetry_group_IT_number 15
_symmetry_cell_setting 'monoclinic'
loop_
_space_group_symop_operation_xyz
x,y,z
-x,y,1/2-z
-x,-y,-z
x,-y,1/2+z
1/2+x,1/2+y,z
1/2-x,1/2+y,1/2-z
1/2-x,1/2-y,-z
1/2+x,1/2-y,1/2+z
loop_
_atom_site_type_symbol
_atom_site_label
_atom_site_fract_x
_atom_site_fract_y
_atom_site_fract_z
Si Si1 0.372121 0.192609 0.930880
Si Si2 0.773892 0.288559 0.630412
Si Si3 0.000000 0.869111 0.250000
Si Si4 0.688421 0.110443 0.047302
Si Si5 0.116692 0.058058 0.966922
Si Si6 0.830574 0.471481 0.101948
Si Si7 0.810077 0.112565 0.309930
O O1 0.391510 0.247064 0.912111
O O2 0.195746 0.165110 0.799068
O O3 0.287769 0.195903 0.017110
O O4 0.578455 0.160605 0.999888
O O5 0.743130 0.334321 0.685197
O O6 0.000000 0.268221 0.750000
O O7 0.085585 0.903367 0.369495
O O8 0.683711 0.095914 0.163808
O O9 0.937643 0.111736 0.115218
O O10 0.591540 0.072805 0.934160
O O11 0.882136 0.042486 0.915261
O O12 0.226481 0.081646 0.105321
O O13 0.252890 0.012009 0.996255
O O14 0.000000 0.485444 0.250000
#
# Coordination Sequence:
#
# PCOD9284763 Si02
#       7
#     8   8   4   8   8   8   8
#     4  11  23  37  62  94 124 165 211 256 311 374
#     4  11  21  39  64  90 126 165 211 257 312 374
#     4  12  22  38  60  90 124 162 206 258 310 372
#     4  10  22  40  66  92 126 166 211 259 317 376
#     4  10  23  39  62  89 125 166 206 256 319 370
#     4  10  22  42  62  89 124 162 207 260 313 379
#     4  10  21  41  64  90 128 166 208 262 317 372
#
# _framework density 21.878985
#
# number of rings (size 3 to 8) (size 9 to 14) (size 15 to 20)
#    0.000    1.538    3.846    0.923    0.000    6.154 
#    0.000    2.308    6.769    0.000    0.000    0.000 
#    0.000    0.000    0.000    0.000    0.000    0.000 
#
# Total GULP energy -145242.718852 kJ/mol
# GULP energy per Si atom -5586.258417 kJ/mol
# Density = 2.182919 g / cm^3
# Si number density = 21.878985 Si / 1000 Ang^3
#
#
#
# Elastic Constant Matrix: (Units=GPa)
#
#
# Indices 1 2 3 4 5 6 
#
# 1 35.0223 20.4762 4.1323 0.0000 1.1052 0.0000
# 2 20.4762 108.0538 19.4917 0.0000 -4.2230 0.0000
# 3 4.1323 19.4917 74.6707 0.0000 -2.9917 0.0000
# 4 0.0000 0.0000 0.0000 20.5080 0.0000 6.5024
# 5 1.1052 -4.2230 -2.9917 0.0000 22.3772 0.0000
# 6 0.0000 0.0000 0.0000 6.5024 0.0000 34.6637
#
#
#
# Elastic Compliance Matrix: (Units=1/GPa)
#
#
# Indices 1 2 3 4 5 6 
#
# 1 0.032286 -0.006176 -0.000287 0.000000 -0.002798 0.000000
# 2 -0.006176 0.010944 -0.002433 0.000000 0.002045 0.000000
# 3 -0.000287 -0.002433 0.014101 0.000000 0.001440 0.000000
# 4 0.000000 0.000000 0.000000 0.051845 0.000000 -0.009725
# 5 -0.002798 0.002045 0.001440 0.000000 0.045405 0.000000
# 6 0.000000 0.000000 0.000000 -0.009725 0.000000 0.030673
#
#
# Mechanical properties :
#
#
# Convention : Reuss Voigt Hill
#
# Bulk Modulus (GPa) = 25.29114 33.99414 29.64264
# Shear Modulus (GPa) = 23.12406 27.08621 25.10513
#
# Velocity S-wave (km/s) = 3.25454 3.52234 3.39108
# Velocity P-wave (km/s) = 5.07024 5.66689 5.37685
#
# Compressibility (1/GPa) = 0.03953953
#
# Stress axis : x y z
#
# Youngs Moduli (GPa) = 30.97302 91.37613 70.91794
#
# Poissons Ratio (x) = 0.56433 0.02034
# Poissons Ratio (y) = 0.19129 0.17254
# Poissons Ratio (z) = 0.00888 0.22232
#
# Static dielectric constant tensor:
#      x y z
#    x 1.816080 0.000000 0.012510 
#    y 0.000000 1.806140 0.000000 
#    z 0.012510 0.000000 1.803130 
# 
# From -- ./inp_files/139893.got.cif
#   From: 2010.05.17/outbox.cif.g08.bks.cpg/sg15_70_cif.got.tgz:139893.got - 2010.06.03 18:47:42.
