data_PCOD9284978
_publ_section_title
;
Structure prediction by ZEFSAII (Michael W. Deem and Ramdas Pophale) SiO2 
 PCOD9284978
Probable space group: C 2/C
;
_chemical_formula_sum "Si O2"
_cell_formula_units_Z 48
_cell_length_a 12.604202
_cell_length_b 11.985007
_cell_length_c 20.286197
_cell_angle_alpha 90.000000
_cell_angle_beta 44.216912
_cell_angle_gamma 90.000000
_cell_volume 2137.084566
_symmetry_space_group_name_H-M "C 2/C"
_symmetry_group_IT_number 15
_symmetry_cell_setting 'monoclinic'
loop_
_space_group_symop_operation_xyz
x,y,z
-x,y,1/2-z
-x,-y,-z
x,-y,1/2+z
1/2+x,1/2+y,z
1/2-x,1/2+y,1/2-z
1/2-x,1/2-y,-z
1/2+x,1/2-y,1/2+z
loop_
_atom_site_type_symbol
_atom_site_label
_atom_site_fract_x
_atom_site_fract_y
_atom_site_fract_z
Si Si1 0.791767 0.595873 0.645360
Si Si2 0.104512 0.700203 0.027466
Si Si3 0.604868 0.161286 0.764025
Si Si4 0.386833 0.419377 0.707004
Si Si5 0.617232 0.826185 0.752615
Si Si6 0.448588 0.582869 0.578969
O O1 0.861832 0.608235 0.542136
O O2 0.905286 0.607162 0.658039
O O3 0.697899 0.482714 0.696252
O O4 0.679051 0.703145 0.705644
O O5 0.978500 0.672829 0.137655
O O6 0.041041 0.807443 0.018897
O O7 0.250000 0.750000 0.000000
O O8 0.500000 0.124533 0.750000
O O9 0.572657 0.293982 0.790139
O O10 0.777723 0.131091 0.665387
O O11 0.264768 0.399168 0.702062
O O12 0.491803 0.515270 0.627355
O O13 0.500000 0.865177 0.750000
O O14 0.500000 0.500000 0.500000
#
# Coordination Sequence:
#
# PCOD9284978 Si02
#       6
#     8   8   8   8   8   8
#     4  10  22  41  64  91 136 169 211 275 324 383
#     4  12  23  40  68 101 127 167 222 271 329 387
#     4  10  22  43  66  94 131 177 218 262 326 393
#     4  10  21  41  66  89 133 171 208 276 328 378
#     4  11  21  40  64  96 131 165 216 272 322 389
#     4  11  23  43  65  94 132 172 217 269 332 389
#
# _framework density 22.460505000000001
#
# number of rings (size 3 to 8) (size 9 to 14) (size 15 to 20)
#    0.000    1.333    6.667    2.000    0.000    5.333 
#    0.000    3.333    0.000    0.000    0.000    0.000 
#    0.000    0.000    0.000    0.000    0.000    0.000 
#
# Total GULP energy -133866.843593 kJ/mol
# GULP energy per Si atom -5577.785150 kJ/mol
# Density = 2.240938 g / cm^3
# Si number density = 22.460505 Si / 1000 Ang^3
#
#
#
# Elastic Constant Matrix: (Units=GPa)
#
#
# Indices 1 2 3 4 5 6 
#
# 1 77.8650 -27.3496 -2.6958 0.0000 11.4854 0.0000
# 2 -27.3496 69.5242 -4.4792 0.0000 3.8063 0.0000
# 3 -2.6958 -4.4792 96.1271 0.0000 24.4601 0.0000
# 4 0.0000 0.0000 0.0000 38.1843 0.0000 3.8855
# 5 11.4854 3.8063 24.4601 0.0000 29.6484 0.0000
# 6 0.0000 0.0000 0.0000 3.8855 0.0000 -1.8851
#
#
#
# Elastic Compliance Matrix: (Units=1/GPa)
#
#
# Indices 1 2 3 4 5 6 
#
# 1 0.017170 0.007556 0.003510 0.000000 -0.010517 0.000000
# 2 0.007556 0.017973 0.003014 0.000000 -0.007721 0.000000
# 3 0.003510 0.003014 0.014032 0.000000 -0.013323 0.000000
# 4 0.000000 0.000000 0.000000 0.021648 0.000000 0.044621
# 5 -0.010517 -0.007721 -0.013323 0.000000 0.049785 0.000000
# 6 0.000000 0.000000 0.000000 0.044621 0.000000 -0.438512
#
#
# Mechanical properties :
#
#
# Convention : Reuss Voigt Hill
#
# Bulk Modulus (GPa) = 12.93095 19.38525 16.15810
# Shear Modulus (GPa) = -15.61108 31.72558 8.05725
#
# Velocity S-wave (km/s) = -2.63923 3.76241 1.89607
# Velocity P-wave (km/s) = 1.87555 5.24632 3.46454
#
# Compressibility (1/GPa) = 0.07733383
#
# Stress axis : x y z
#
# Youngs Moduli (GPa) = 58.24267 55.63963 71.26638
#
# Poissons Ratio (x) = -0.42042 -0.25012
# Poissons Ratio (y) = -0.44009 -0.21480
# Poissons Ratio (z) = -0.20441 -0.16770
#
# Static dielectric constant tensor:
#      x y z
#    x 1.838130 0.000000 0.003390 
#    y 0.000000 1.923620 0.000000 
#    z 0.003390 0.000000 1.839160 
# 
# From -- ./inp_files/243909.got.cif
#   From: 2010.05.17/outbox.cif.g08.bks.cpg/sg15_122_cif.got.tgz:243909.got - 2010.06.03 18:47:42.
