data_PCOD9284501
_publ_section_title
;
Structure prediction by ZEFSAII (Michael W. Deem and Ramdas Pophale) SiO2 
 PCOD9284501
Probable space group: C 2/C
;
_chemical_formula_sum "Si O2"
_cell_formula_units_Z 64
_cell_length_a 18.622429
_cell_length_b 8.376556
_cell_length_c 30.384659
_cell_angle_alpha 90.000000
_cell_angle_beta 40.865415
_cell_angle_gamma 90.000000
_cell_volume 3101.150087
_symmetry_space_group_name_H-M "C 2/C"
_symmetry_group_IT_number 15
_symmetry_cell_setting 'monoclinic'
loop_
_space_group_symop_operation_xyz
x,y,z
-x,y,1/2-z
-x,-y,-z
x,-y,1/2+z
1/2+x,1/2+y,z
1/2-x,1/2+y,1/2-z
1/2-x,1/2-y,-z
1/2+x,1/2-y,1/2+z
loop_
_atom_site_type_symbol
_atom_site_label
_atom_site_fract_x
_atom_site_fract_y
_atom_site_fract_z
Si Si1 0.216353 0.513197 0.000996
Si Si2 0.283928 0.725441 0.358973
Si Si3 0.128753 0.676359 0.772044
Si Si4 0.768954 0.344247 0.780227
Si Si5 0.112646 0.774843 0.592879
Si Si6 0.623851 0.495148 0.424447
Si Si7 0.765136 0.289722 0.922583
Si Si8 0.376326 0.389163 0.300091
O O1 0.148897 0.351489 0.038748
O O2 0.193792 0.620847 0.053554
O O3 0.342315 0.448999 0.941394
O O4 0.200909 0.630360 0.967475
O O5 0.359199 0.799826 0.285798
O O6 0.326699 0.758215 0.388478
O O7 0.168534 0.813490 0.404764
O O8 0.294625 0.537613 0.345006
O O9 0.149930 0.489218 0.769273
O O10 0.218592 0.769454 0.759495
O O11 0.014027 0.749201 0.840199
O O12 0.670640 0.420117 0.857395
O O13 0.836136 0.208650 0.776079
O O14 0.500000 0.500000 0.500000
O O15 0.690895 0.591603 0.429964
O O16 0.862329 0.234989 0.846311
O O17 0.500000 0.451616 0.250000
#
# Coordination Sequence:
#
# PCOD9284501 Si02
#       8
#     8   8   8   8   8   8   8   8
#     4  10  22  38  61  97 131 160 217 274 311 400
#     4  11  22  42  65  97 128 167 224 270 318 404
#     4  11  24  42  65  93 130 176 212 279 331 385
#     4  10  25  44  62  97 137 166 229 268 321 413
#     4  11  22  39  68  94 127 172 215 272 337 383
#     4  10  23  43  68  91 135 182 214 271 335 392
#     4  10  21  41  59  97 131 162 218 268 319 391
#     4  11  23  41  70  97 132 173 211 272 335 386
#
# _framework density 20.637504
#
# number of rings (size 3 to 8) (size 9 to 14) (size 15 to 20)
#    0.000    1.500    2.500    1.875    3.500    0.000 
#    6.750    1.250    0.000    0.000    0.000    0.000 
#    0.000    0.000    0.000    0.000    0.000    0.000 
#
# Total GULP energy -178406.145326 kJ/mol
# GULP energy per Si atom -5575.192041 kJ/mol
# Density = 2.059053 g / cm^3
# Si number density = 20.637504 Si / 1000 Ang^3
#
#
#
# Elastic Constant Matrix: (Units=GPa)
#
#
# Indices 1 2 3 4 5 6 
#
# 1 34.4367 12.9784 6.8634 0.0000 9.1168 0.0009
# 2 12.9784 96.8924 5.5461 -0.0004 -7.5282 0.0023
# 3 6.8634 5.5461 56.4323 0.0000 -12.6512 0.0007
# 4 0.0000 -0.0004 0.0000 29.7065 -0.0001 10.9951
# 5 9.1168 -7.5282 -12.6512 -0.0001 29.4512 0.0000
# 6 0.0009 0.0023 0.0007 10.9951 0.0000 28.3175
#
#
#
# Elastic Compliance Matrix: (Units=1/GPa)
#
#
# Indices 1 2 3 4 5 6 
#
# 1 0.037009 -0.005782 -0.007561 0.000000 -0.016182 -0.000001
# 2 -0.005782 0.011445 0.000703 0.000001 0.005017 -0.000001
# 3 -0.007561 0.000703 0.021175 0.000000 0.011616 0.000000
# 4 0.000000 0.000001 0.000000 0.039312 0.000000 -0.015264
# 5 -0.016182 0.005017 0.011616 0.000000 0.045236 0.000000
# 6 -0.000001 -0.000001 0.000000 -0.015264 0.000000 0.041241
#
#
# Mechanical properties :
#
#
# Convention : Reuss Voigt Hill
#
# Bulk Modulus (GPa) = 22.54783 26.50414 24.52598
# Shear Modulus (GPa) = 21.23330 28.31993 24.77662
#
# Velocity S-wave (km/s) = 3.21108 3.70842 3.46867
# Velocity P-wave (km/s) = 4.96965 5.58633 5.28699
#
# Compressibility (1/GPa) = 0.04435017
#
# Stress axis : x y z
#
# Youngs Moduli (GPa) = 27.02068 87.37631 47.22560
#
# Poissons Ratio (x) = 0.50519 0.35705
# Poissons Ratio (y) = 0.15623 -0.03321
# Poissons Ratio (z) = 0.20429 -0.06144
#
# Static dielectric constant tensor:
#      x y z
#    x 1.726600 0.000000 -0.007630 
#    y 0.000000 1.825390 0.000000 
#    z -0.007630 0.000000 1.828200 
# 
# From -- ./inp_files/315661.got.cif
#   From: 2010.05.17/outbox.cif.g08.bks.cpg/sg15_158_cif.got.tgz:315661.got - 2010.06.03 18:47:42.
