data_PCOD9284330
_publ_section_title
;
Structure prediction by ZEFSAII (Michael W. Deem and Ramdas Pophale) SiO2 
 PCOD9284330
Probable space group: C 2/C
;
_chemical_formula_sum "Si O2"
_cell_formula_units_Z 44
_cell_length_a 19.396886
_cell_length_b 8.264571
_cell_length_c 13.676191
_cell_angle_alpha 90.000000
_cell_angle_beta 110.406542
_cell_angle_gamma 90.000000
_cell_volume 2054.798845
_symmetry_space_group_name_H-M "C 2/C"
_symmetry_group_IT_number 15
_symmetry_cell_setting 'monoclinic'
loop_
_space_group_symop_operation_xyz
x,y,z
-x,y,1/2-z
-x,-y,-z
x,-y,1/2+z
1/2+x,1/2+y,z
1/2-x,1/2+y,1/2-z
1/2-x,1/2-y,-z
1/2+x,1/2-y,1/2+z
loop_
_atom_site_type_symbol
_atom_site_label
_atom_site_fract_x
_atom_site_fract_y
_atom_site_fract_z
Si Si1 0.683781 0.991220 0.211898
Si Si2 0.937387 0.634976 0.987189
Si Si3 0.500000 0.500000 0.000000
Si Si4 0.576850 0.432583 0.840694
Si Si5 0.586814 0.806990 0.811756
Si Si6 0.225483 0.768564 0.876280
O O1 0.635652 0.113574 0.252993
O O2 0.731307 0.088453 0.156720
O O3 0.625702 0.879713 0.125258
O O4 0.732930 0.888327 0.311365
O O5 0.973958 0.811419 0.005644
O O6 0.900075 0.616173 0.075346
O O7 0.000000 0.500000 0.000000
O O8 0.559889 0.438043 0.946760
O O9 0.500000 0.394225 0.750000
O O10 0.599033 0.614125 0.819276
O O11 0.639404 0.311207 0.839615
O O12 0.500000 0.831609 0.750000
O O13 0.250000 0.750000 0.000000
#
# Coordination Sequence:
#
# PCOD9284330 Si02
#       6
#     8   8   4   8   8   8
#     4  12  26  46  70 103 150 198 247 314 387 458
#     4  11  23  42  73 106 144 190 245 318 374 455
#     4  10  24  40  70 106 138 180 244 302 372 438
#     4  10  23  44  70 101 134 184 241 304 370 454
#     4  10  21  40  69 107 140 185 242 310 374 455
#     4  12  29  47  72 105 151 200 251 317 392 472
#
# _framework density 21.413288999999999
#
# number of rings (size 3 to 8) (size 9 to 14) (size 15 to 20)
#    0.000    1.091    1.818    3.273    5.091    5.091 
#    0.000    6.364    0.000    0.000    0.000    0.000 
#    0.000    0.000    0.000    0.000    0.000    0.000 
#
# Total GULP energy -122564.471999 kJ/mol
# GULP energy per Si atom -5571.112364 kJ/mol
# Density = 2.136455 g / cm^3
# Si number density = 21.413289 Si / 1000 Ang^3
#
#
#
# Elastic Constant Matrix: (Units=GPa)
#
#
# Indices 1 2 3 4 5 6 
#
# 1 58.6466 30.9122 30.3659 0.0000 -32.3695 0.0000
# 2 30.9122 61.2320 34.7279 0.0000 -19.8798 0.0000
# 3 30.3659 34.7279 129.6861 0.0000 -18.5194 0.0000
# 4 0.0000 0.0000 0.0000 43.2178 0.0000 -25.4593
# 5 -32.3695 -19.8798 -18.5194 0.0000 31.4671 0.0000
# 6 0.0000 0.0000 0.0000 -25.4593 0.0000 40.7753
#
#
#
# Elastic Compliance Matrix: (Units=1/GPa)
#
#
# Indices 1 2 3 4 5 6 
#
# 1 0.044006 -0.008231 -0.002596 0.000000 0.038540 0.000000
# 2 -0.008231 0.024160 -0.003900 0.000000 0.004501 0.000000
# 3 -0.002596 -0.003900 0.009422 0.000000 0.000411 0.000000
# 4 0.000000 0.000000 0.000000 0.036601 0.000000 0.022853
# 5 0.038540 0.004501 0.000411 0.000000 0.074510 0.000000
# 6 0.000000 0.000000 0.000000 0.022853 0.000000 0.038794
#
#
# Mechanical properties :
#
#
# Convention : Reuss Voigt Hill
#
# Bulk Modulus (GPa) = 20.77543 49.06409 34.91976
# Shear Modulus (GPa) = 18.31577 33.32930 25.82253
#
# Velocity S-wave (km/s) = 2.92780 3.94950 3.47639
# Velocity P-wave (km/s) = 4.59919 6.61519 5.69707
#
# Compressibility (1/GPa) = 0.04813378
#
# Stress axis : x y z
#
# Youngs Moduli (GPa) = 22.72441 41.39146 106.13769
#
# Poissons Ratio (x) = 0.34068 0.27556
# Poissons Ratio (y) = 0.18704 0.41389
# Poissons Ratio (z) = 0.05900 0.16141
#
# Static dielectric constant tensor:
#      x y z
#    x 1.733540 0.000000 0.019990 
#    y 0.000000 1.776470 0.000000 
#    z 0.019990 0.000000 1.843880 
# 
# From -- ./inp_files/159400.got.cif
#   From: 2010.05.17/outbox.cif.g08.bks.cpg/sg15_80_cif.got.tgz:159400.got - 2010.06.03 18:47:42.
