data_PCOD9284921
_publ_section_title
;
Structure prediction by ZEFSAII (Michael W. Deem and Ramdas Pophale) SiO2 
 PCOD9284921
Probable space group: C 2/C
;
_chemical_formula_sum "Si O2"
_cell_formula_units_Z 32
_cell_length_a 9.129407
_cell_length_b 22.586599
_cell_length_c 14.843755
_cell_angle_alpha 90.000000
_cell_angle_beta 30.117547
_cell_angle_gamma 90.000000
_cell_volume 1535.842872
_symmetry_space_group_name_H-M "C 2/C"
_symmetry_group_IT_number 15
_symmetry_cell_setting 'monoclinic'
loop_
_space_group_symop_operation_xyz
x,y,z
-x,y,1/2-z
-x,-y,-z
x,-y,1/2+z
1/2+x,1/2+y,z
1/2-x,1/2+y,1/2-z
1/2-x,1/2-y,-z
1/2+x,1/2-y,1/2+z
loop_
_atom_site_type_symbol
_atom_site_label
_atom_site_fract_x
_atom_site_fract_y
_atom_site_fract_z
Si Si1 0.209265 0.317463 0.052468
Si Si2 0.708948 0.871887 0.374066
Si Si3 0.709013 0.499385 0.712944
Si Si4 0.192417 0.609082 0.236749
O O1 0.000000 0.319853 0.250000
O O2 0.022237 0.346820 0.072558
O O3 0.250000 0.250000 0.000000
O O4 0.517627 0.350475 0.908423
O O5 0.847209 0.930531 0.250515
O O6 0.519806 0.881341 0.564822
O O7 0.000000 0.836638 0.250000
O O8 0.500000 0.470134 0.750000
O O9 0.716855 0.460165 0.797486
O O10 0.000000 0.500000 0.500000
O O11 0.000000 0.618328 0.250000
#
# Coordination Sequence:
#
# PCOD9284921 Si02
#       4
#     8   8   8   8
#     4  12  26  45  67  93 125 169 217 266 319 379
#     4  10  21  41  65  95 130 168 211 262 317 377
#     4   9  18  35  60  89 126 167 204 252 311 368
#     4  11  22  39  64  97 131 168 211 262 318 378
#
# _framework density 20.835464999999999
#
# number of rings (size 3 to 8) (size 9 to 14) (size 15 to 20)
#    0.000    1.500    0.000    6.750    0.000    2.000 
#    0.000   18.750    0.000    0.000    0.000    0.000 
#    0.000    0.000    0.000    0.000    0.000    0.000 
#
# Total GULP energy -89144.981418 kJ/mol
# GULP energy per Si atom -5571.561339 kJ/mol
# Density = 2.078804 g / cm^3
# Si number density = 20.835465 Si / 1000 Ang^3
#
#
#
# Elastic Constant Matrix: (Units=GPa)
#
#
# Indices 1 2 3 4 5 6 
#
# 1 220.0604 80.1735 76.9905 -0.0006 -18.3333 0.0000
# 2 80.1735 103.0265 48.4177 -0.0001 -8.4823 -0.0001
# 3 76.9905 48.4177 144.0431 -0.0050 -13.9366 0.0027
# 4 -0.0006 -0.0001 -0.0050 30.5864 0.0021 -1.1236
# 5 -18.3333 -8.4823 -13.9366 0.0021 49.2928 -0.0005
# 6 0.0000 -0.0001 0.0027 -1.1236 -0.0005 18.7391
#
#
#
# Elastic Compliance Matrix: (Units=1/GPa)
#
#
# Indices 1 2 3 4 5 6 
#
# 1 0.006973 -0.004310 -0.002158 0.000000 0.001242 0.000000
# 2 -0.004310 0.014231 -0.002466 0.000000 0.000149 0.000000
# 3 -0.002158 -0.002466 0.009054 0.000001 0.001333 -0.000001
# 4 0.000000 0.000000 0.000001 0.032766 -0.000001 0.001965
# 5 0.001242 0.000149 0.001333 -0.000001 0.021151 0.000000
# 6 0.000000 0.000000 -0.000001 0.001965 0.000000 0.053482
#
#
# Mechanical properties :
#
#
# Convention : Reuss Voigt Hill
#
# Bulk Modulus (GPa) = 80.70713 97.58816 89.14765
# Shear Modulus (GPa) = 31.31767 37.16021 34.23894
#
# Velocity S-wave (km/s) = 3.88118 4.22774 4.05816
# Velocity P-wave (km/s) = 7.67491 8.41255 8.05218
#
# Compressibility (1/GPa) = 0.01239048
#
# Stress axis : x y z
#
# Youngs Moduli (GPa) = 143.41362 70.26955 110.45288
#
# Poissons Ratio (x) = 0.30284 0.23838
# Poissons Ratio (y) = 0.61807 0.27233
# Poissons Ratio (z) = 0.30952 0.17326
#
# Static dielectric constant tensor:
#      x y z
#    x 1.815360 -0.000050 -0.062930 
#    y -0.000050 -1.240460 -0.000050 
#    z -0.062930 -0.000050 1.750940 
# 
# From -- ./inp_files/22992.got.cif
#   From: 2010.05.17/outbox.cif.g08.bks.cpg/sg15_12_cif.got.tgz:22992.got - 2010.06.03 18:47:42.
