data_PCOD9284252
_publ_section_title
;
Structure prediction by ZEFSAII (Michael W. Deem and Ramdas Pophale) SiO2 
 PCOD9284252
Probable space group: C 2/C
;
_chemical_formula_sum "Si O2"
_cell_formula_units_Z 36
_cell_length_a 15.006913
_cell_length_b 9.242403
_cell_length_c 26.090285
_cell_angle_alpha 90.000000
_cell_angle_beta 27.633087
_cell_angle_gamma 90.000000
_cell_volume 1678.390693
_symmetry_space_group_name_H-M "C 2/C"
_symmetry_group_IT_number 15
_symmetry_cell_setting 'monoclinic'
loop_
_space_group_symop_operation_xyz
x,y,z
-x,y,1/2-z
-x,-y,-z
x,-y,1/2+z
1/2+x,1/2+y,z
1/2-x,1/2+y,1/2-z
1/2-x,1/2-y,-z
1/2+x,1/2-y,1/2+z
loop_
_atom_site_type_symbol
_atom_site_label
_atom_site_fract_x
_atom_site_fract_y
_atom_site_fract_z
Si Si1 0.450471 0.563189 0.373349
Si Si2 0.000000 0.403944 0.750000
Si Si3 0.904402 0.615749 0.885440
Si Si4 0.723171 0.150762 0.917147
Si Si5 0.626874 0.984671 0.861779
O O1 0.315305 0.568753 0.492207
O O2 0.412797 0.717754 0.365191
O O3 0.374103 0.433171 0.376794
O O4 0.676640 0.554493 0.266465
O O5 0.009778 0.508683 0.793567
O O6 0.817515 0.300477 0.852490
O O7 0.007124 0.596175 0.888142
O O8 0.686771 0.056463 0.884880
O O9 0.520380 0.146558 0.050903
#
# Coordination Sequence:
#
# PCOD9284252 Si02
#       5
#     8   4   8   8   8
#     4  10  21  45  65  87 128 173 201 258 315 383
#     4  12  24  42  58 102 130 160 208 278 298 372
#     4  10  26  39  65  94 127 161 217 255 315 364
#     4  10  22  40  67  90 126 161 210 253 322 368
#     4  10  21  40  68  90 117 171 209 249 308 384
#
# _framework density 21.449117000000001
#
# number of rings (size 3 to 8) (size 9 to 14) (size 15 to 20)
#    0.000    1.778    2.222    0.000    6.222    5.333 
#    0.000    2.222    0.000    0.000    0.000    0.000 
#    0.000    0.000    0.000    0.000    0.000    0.000 
#
# Total GULP energy -100504.629364 kJ/mol
# GULP energy per Si atom -5583.590520 kJ/mol
# Density = 2.140030 g / cm^3
# Si number density = 21.449117 Si / 1000 Ang^3
#
#
#
# Elastic Constant Matrix: (Units=GPa)
#
#
# Indices 1 2 3 4 5 6 
#
# 1 15.1844 -2.2655 21.0132 0.0000 -4.1501 0.0000
# 2 -2.2655 75.6100 30.1181 -0.0001 8.9722 0.0000
# 3 21.0132 30.1181 135.4782 -0.0010 -28.7760 -0.0002
# 4 0.0000 -0.0001 -0.0010 42.4821 0.0000 11.5529
# 5 -4.1501 8.9722 -28.7760 0.0000 20.1456 0.0000
# 6 0.0000 0.0000 -0.0002 11.5529 0.0000 11.4026
#
#
#
# Elastic Compliance Matrix: (Units=1/GPa)
#
#
# Indices 1 2 3 4 5 6 
#
# 1 0.091738 0.012823 -0.020497 -0.000001 -0.016091 0.000000
# 2 0.012823 0.020993 -0.011600 0.000000 -0.023277 0.000000
# 3 -0.020497 -0.011600 0.019150 0.000000 0.028297 0.000000
# 4 -0.000001 0.000000 0.000000 0.032492 0.000001 -0.032920
# 5 -0.016091 -0.023277 0.028297 0.000001 0.097110 0.000000
# 6 0.000000 0.000000 0.000000 -0.032920 0.000000 0.121054
#
#
# Mechanical properties :
#
#
# Convention : Reuss Voigt Hill
#
# Bulk Modulus (GPa) = 10.71451 36.00050 23.35750
# Shear Modulus (GPa) = 11.05716 26.63318 18.84517
#
# Velocity S-wave (km/s) = 2.27294 3.52759 2.96733
# Velocity P-wave (km/s) = 3.44884 5.78035 4.75956
#
# Compressibility (1/GPa) = 0.09333140
#
# Stress axis : x y z
#
# Youngs Moduli (GPa) = 10.90065 47.63526 52.22028
#
# Poissons Ratio (x) = -0.61082 1.07037
# Poissons Ratio (y) = -0.13978 0.60575
# Poissons Ratio (z) = 0.22343 0.55257
#
# Static dielectric constant tensor:
#      x y z
#    x 1.742120 0.000000 0.001950 
#    y 0.000000 1.756790 0.000000 
#    z 0.001950 0.000000 1.835120 
# 
# From -- ./inp_files/158642.got.cif
#   From: 2010.05.17/outbox.cif.g08.bks.cpg/sg15_80_cif.got.tgz:158642.got - 2010.06.03 18:47:42.
