data_PCOD9284331
_publ_section_title
;
Structure prediction by ZEFSAII (Michael W. Deem and Ramdas Pophale) SiO2 
 PCOD9284331
Probable space group: C 2/C
;
_chemical_formula_sum "Si O2"
_cell_formula_units_Z 56
_cell_length_a 22.718885
_cell_length_b 14.998224
_cell_length_c 9.553507
_cell_angle_alpha 90.000000
_cell_angle_beta 43.582026
_cell_angle_gamma 90.000000
_cell_volume 2244.171921
_symmetry_space_group_name_H-M "C 2/C"
_symmetry_group_IT_number 15
_symmetry_cell_setting 'monoclinic'
loop_
_space_group_symop_operation_xyz
x,y,z
-x,y,1/2-z
-x,-y,-z
x,-y,1/2+z
1/2+x,1/2+y,z
1/2-x,1/2+y,1/2-z
1/2-x,1/2-y,-z
1/2+x,1/2-y,1/2+z
loop_
_atom_site_type_symbol
_atom_site_label
_atom_site_fract_x
_atom_site_fract_y
_atom_site_fract_z
Si Si1 0.492303 0.417533 0.412864
Si Si2 0.667356 0.340127 0.217605
Si Si3 0.850427 0.669018 0.067877
Si Si4 0.289214 0.992566 0.530963
Si Si5 0.633431 0.728481 0.500185
Si Si6 0.867037 0.635183 0.724530
Si Si7 0.443104 0.888500 0.686473
O O1 0.500000 0.463972 0.250000
O O2 0.500000 0.500000 0.500000
O O3 0.570759 0.361024 0.337729
O O4 0.418534 0.347068 0.495575
O O5 0.664840 0.268015 0.345235
O O6 0.721254 0.428881 0.157810
O O7 0.697241 0.306610 0.010782
O O8 0.781676 0.589185 0.152730
O O9 0.907670 0.626471 0.091453
O O10 0.613047 0.826080 0.154189
O O11 0.294594 0.939238 0.374184
O O12 0.384331 0.036711 0.362196
O O13 0.668549 0.789502 0.315569
O O14 0.578205 0.799438 0.687906
O O15 0.956006 0.598737 0.507599
#
# Coordination Sequence:
#
# PCOD9284331 Si02
#       7
#     8   8   8   8   8   8   8
#     4  10  22  43  71 106 132 186 250 301 359 429
#     4  10  21  49  71  98 151 201 242 301 379 451
#     4   9  23  39  71 106 141 194 249 300 366 437
#     4  10  25  39  69 109 149 198 244 296 380 448
#     4  10  22  42  77 102 142 195 240 301 375 437
#     4  10  21  40  69 113 144 185 252 303 364 439
#     4  11  20  41  69 105 149 192 239 305 369 450
#
# _framework density 24.953524999999999
#
# number of rings (size 3 to 8) (size 9 to 14) (size 15 to 20)
#    0.857    1.143    0.000    4.714    2.000    3.429 
#   10.286    0.000    6.286    5.143    0.000    0.000 
#    0.000    0.000    0.000    0.000    0.000    0.000 
#
# Total GULP energy -155960.625880 kJ/mol
# GULP energy per Si atom -5570.022353 kJ/mol
# Density = 2.489673 g / cm^3
# Si number density = 24.953525 Si / 1000 Ang^3
#
#
#
# Elastic Constant Matrix: (Units=GPa)
#
#
# Indices 1 2 3 4 5 6 
#
# 1 148.9333 68.0177 45.0032 0.0000 22.1963 0.0000
# 2 68.0177 183.5879 70.4733 0.0000 27.4591 0.0000
# 3 45.0032 70.4733 76.3513 0.0000 21.9866 0.0000
# 4 0.0000 0.0000 0.0000 38.7012 0.0000 27.4540
# 5 22.1963 27.4591 21.9866 0.0000 33.5029 0.0000
# 6 0.0000 0.0000 0.0000 27.4540 0.0000 49.9648
#
#
#
# Elastic Compliance Matrix: (Units=1/GPa)
#
#
# Indices 1 2 3 4 5 6 
#
# 1 0.008748 -0.001803 -0.002773 0.000000 -0.002498 0.000000
# 2 -0.001803 0.008944 -0.006690 0.000000 -0.001746 0.000000
# 3 -0.002773 -0.006690 0.023179 0.000000 -0.007891 0.000000
# 4 0.000000 0.000000 0.000000 0.042344 0.000000 -0.023267
# 5 -0.002498 -0.001746 -0.007891 0.000000 0.038113 0.000000
# 6 0.000000 0.000000 0.000000 -0.023267 0.000000 0.032798
#
#
# Mechanical properties :
#
#
# Convention : Reuss Voigt Hill
#
# Bulk Modulus (GPa) = 54.52644 86.20677 70.36661
# Shear Modulus (GPa) = 27.35654 39.45898 33.40776
#
# Velocity S-wave (km/s) = 3.31463 3.98087 3.66293
# Velocity P-wave (km/s) = 6.04547 7.46671 6.79336
#
# Compressibility (1/GPa) = 0.01833973
#
# Stress axis : x y z
#
# Youngs Moduli (GPa) = 114.31161 111.80370 43.14225
#
# Poissons Ratio (x) = 0.20159 0.11961
# Poissons Ratio (y) = 0.20611 0.28863
# Poissons Ratio (z) = 0.31694 0.74799
#
# Static dielectric constant tensor:
#      x y z
#    x 2.038290 0.000000 0.247340 
#    y 0.000000 2.292410 0.000000 
#    z 0.247340 0.000000 5.898180 
# 
# From -- ./inp_files/56508.got.cif
#   From: 2010.05.17/outbox.cif.g08.bks.cpg/sg15_29_cif.got.tgz:56508.got - 2010.06.03 18:47:42.
