data_PCOD9284284
_publ_section_title
;
Structure prediction by ZEFSAII (Michael W. Deem and Ramdas Pophale) SiO2 
 PCOD9284284
Probable space group: C 2/C
;
_chemical_formula_sum "Si O2"
_cell_formula_units_Z 48
_cell_length_a 27.624224
_cell_length_b 17.360977
_cell_length_c 9.342055
_cell_angle_alpha 90.000000
_cell_angle_beta 33.628728
_cell_angle_gamma 90.000000
_cell_volume 2481.228494
_symmetry_space_group_name_H-M "C 2/C"
_symmetry_group_IT_number 15
_symmetry_cell_setting 'monoclinic'
loop_
_space_group_symop_operation_xyz
x,y,z
-x,y,1/2-z
-x,-y,-z
x,-y,1/2+z
1/2+x,1/2+y,z
1/2-x,1/2+y,1/2-z
1/2-x,1/2-y,-z
1/2+x,1/2-y,1/2+z
loop_
_atom_site_type_symbol
_atom_site_label
_atom_site_fract_x
_atom_site_fract_y
_atom_site_fract_z
Si Si1 0.490135 0.104298 0.435141
Si Si2 0.856289 0.480999 0.787210
Si Si3 0.808481 0.818895 0.790345
Si Si4 0.751995 0.554038 0.267505
Si Si5 0.387421 0.448287 0.772913
Si Si6 0.000000 0.976525 0.750000
Si Si7 0.500000 0.746094 0.750000
O O1 0.500000 0.070558 0.250000
O O2 0.567314 0.073398 0.342927
O O3 0.497935 0.194907 0.390572
O O4 0.397869 0.066974 0.701704
O O5 0.825674 0.454546 0.707460
O O6 0.774172 0.488579 0.094525
O O7 0.762539 0.864632 0.773260
O O8 0.822776 0.881611 0.881107
O O9 0.906350 0.795288 0.495313
O O10 0.750000 0.750000 0.000000
O O11 0.663312 0.525838 0.559993
O O12 0.442783 0.428060 0.777936
O O13 0.445130 0.469280 0.492457
#
# Coordination Sequence:
#
# PCOD9284284 Si02
#       7
#     8   8   8   8   8   4   4
#     4   9  20  38  65  88 125 174 211 275 327 400
#     4  11  20  37  66  99 121 162 231 275 321 381
#     4  12  26  42  67  97 136 176 211 268 346 395
#     4  12  22  38  65  99 131 162 224 274 318 393
#     4  11  22  40  67  97 124 171 219 270 318 386
#     4  10  21  40  68  96 127 162 234 268 309 374
#     4  10  23  44  58  88 139 176 204 258 349 398
#
# _framework density 19.345255999999999
#
# number of rings (size 3 to 8) (size 9 to 14) (size 15 to 20)
#    0.500    0.667    5.000    1.500    4.667    0.000 
#    0.000    2.500    0.000    0.000    0.000    0.000 
#    0.000    0.000    0.000    0.000    0.000    0.000 
#
# Total GULP energy -133675.532770 kJ/mol
# GULP energy per Si atom -5569.813865 kJ/mol
# Density = 1.930123 g / cm^3
# Si number density = 19.345256 Si / 1000 Ang^3
#
#
#
# Elastic Constant Matrix: (Units=GPa)
#
#
# Indices 1 2 3 4 5 6 
#
# 1 161.1480 52.1205 33.3905 0.0000 5.1385 0.0000
# 2 52.1205 86.1309 34.6314 0.0000 -3.5066 0.0000
# 3 33.3905 34.6314 97.1440 0.0000 -1.9893 0.0000
# 4 0.0000 0.0000 0.0000 21.6585 0.0000 0.3179
# 5 5.1385 -3.5066 -1.9893 0.0000 26.1293 0.0000
# 6 0.0000 0.0000 0.0000 0.3179 0.0000 27.2428
#
#
#
# Elastic Compliance Matrix: (Units=1/GPa)
#
#
# Indices 1 2 3 4 5 6 
#
# 1 0.007957 -0.004422 -0.001205 0.000000 -0.002250 0.000000
# 2 -0.004422 0.016066 -0.004152 0.000000 0.002710 0.000000
# 3 -0.001205 -0.004152 0.012201 0.000000 0.000609 0.000000
# 4 0.000000 0.000000 0.000000 0.046179 0.000000 -0.000539
# 5 -0.002250 0.002710 0.000609 0.000000 0.039124 0.000000
# 6 0.000000 0.000000 0.000000 -0.000539 0.000000 0.036713
#
#
# Mechanical properties :
#
#
# Convention : Reuss Voigt Hill
#
# Bulk Modulus (GPa) = 60.00197 64.96750 62.48474
# Shear Modulus (GPa) = 27.26981 29.95817 28.61399
#
# Velocity S-wave (km/s) = 3.75859 3.93950 3.85011
# Velocity P-wave (km/s) = 7.06539 7.37218 7.22041
#
# Compressibility (1/GPa) = 0.01666612
#
# Stress axis : x y z
#
# Youngs Moduli (GPa) = 125.67304 62.24292 81.96296
#
# Poissons Ratio (x) = 0.27526 0.09873
# Poissons Ratio (y) = 0.55578 0.34030
# Poissons Ratio (z) = 0.15138 0.25843
#
# Static dielectric constant tensor:
#      x y z
#    x 1.689960 0.000000 -0.032320 
#    y 0.000000 1.666480 0.000000 
#    z -0.032320 0.000000 1.803650 
# 
# From -- ./inp_files/67490.got.cif
#   From: 2010.05.17/outbox.cif.g08.bks.cpg/sg15_34_cif.got.tgz:67490.got - 2010.06.03 18:47:42.
