data_PCOD9284308
_publ_section_title
;
Structure prediction by ZEFSAII (Michael W. Deem and Ramdas Pophale) SiO2 
 PCOD9284308
Probable space group: C 2/C
;
_chemical_formula_sum "Si O2"
_cell_formula_units_Z 56
_cell_length_a 24.130388
_cell_length_b 8.925260
_cell_length_c 13.932218
_cell_angle_alpha 90.000000
_cell_angle_beta 123.081020
_cell_angle_gamma 90.000000
_cell_volume 2514.186051
_symmetry_space_group_name_H-M "C 2/C"
_symmetry_group_IT_number 15
_symmetry_cell_setting 'monoclinic'
loop_
_space_group_symop_operation_xyz
x,y,z
-x,y,1/2-z
-x,-y,-z
x,-y,1/2+z
1/2+x,1/2+y,z
1/2-x,1/2+y,1/2-z
1/2-x,1/2-y,-z
1/2+x,1/2-y,1/2+z
loop_
_atom_site_type_symbol
_atom_site_label
_atom_site_fract_x
_atom_site_fract_y
_atom_site_fract_z
Si Si1 0.780293 0.541403 0.668373
Si Si2 0.586958 0.211489 0.657577
Si Si3 0.434864 0.466913 0.376132
Si Si4 0.419478 0.113763 0.056335
Si Si5 0.000000 0.630657 0.750000
Si Si6 0.000000 0.857287 0.250000
Si Si7 0.312931 0.290624 0.281828
Si Si8 0.733315 0.901781 0.040299
O O1 0.850210 0.619558 0.749356
O O2 0.724718 0.646585 0.661819
O O3 0.790331 0.376492 0.728687
O O4 0.765711 0.522786 0.542218
O O5 0.606187 0.380723 0.648763
O O6 0.559885 0.133042 0.535088
O O7 0.536989 0.216428 0.699734
O O8 0.500000 0.500000 0.500000
O O9 0.458290 0.445071 0.289390
O O10 0.391213 0.322166 0.363448
O O11 0.448780 0.254607 0.142083
O O12 0.340039 0.108278 0.984989
O O13 0.448989 0.974384 0.142703
O O14 0.287115 0.402968 0.173955
O O15 0.750000 0.750000 0.000000
#
# Coordination Sequence:
#
# PCOD9284308 Si02
#       8
#     8   8   8   8   4   4   8   8
#     4  11  23  45  74 103 141 179 235 291 346 427
#     4  12  24  45  70 101 143 182 237 292 356 410
#     4  12  27  45  68 104 141 188 237 295 351 421
#     4  11  22  41  71 100 137 189 231 284 356 425
#     4  11  25  40  68 106 138 178 238 300 342 418
#     4  11  23  44  68 100 138 186 238 280 356 426
#     4  11  25  43  70 102 136 185 235 282 356 417
#     4  10  21  40  68  99 132 181 228 279 343 420
#
# _framework density 22.273609
#
# number of rings (size 3 to 8) (size 9 to 14) (size 15 to 20)
#    0.000    0.857    4.286    3.429    4.000    2.286 
#    0.000    4.286    0.000    0.000    0.000    0.000 
#    0.000    0.000    0.000    0.000    0.000    0.000 
#
# Total GULP energy -156483.746654 kJ/mol
# GULP energy per Si atom -5588.705238 kJ/mol
# Density = 2.222291 g / cm^3
# Si number density = 22.273609 Si / 1000 Ang^3
#
#
#
# Elastic Constant Matrix: (Units=GPa)
#
#
# Indices 1 2 3 4 5 6 
#
# 1 102.6482 7.2753 8.6825 0.0000 -10.4129 0.0000
# 2 7.2753 45.9741 -22.5651 0.0000 7.5790 0.0000
# 3 8.6825 -22.5651 66.3487 0.0000 -4.4631 0.0000
# 4 0.0000 0.0000 0.0000 22.5278 0.0000 12.7864
# 5 -10.4129 7.5790 -4.4631 0.0000 42.4853 0.0000
# 6 0.0000 0.0000 0.0000 12.7864 0.0000 -14.0885
#
#
#
# Elastic Compliance Matrix: (Units=1/GPa)
#
#
# Indices 1 2 3 4 5 6 
#
# 1 0.010460 -0.003253 -0.002280 0.000000 0.002905 0.000000
# 2 -0.003253 0.027729 0.009537 0.000000 -0.004742 0.000000
# 3 -0.002280 0.009537 0.018593 0.000000 -0.000307 0.000000
# 4 0.000000 0.000000 0.000000 0.029298 0.000000 0.026590
# 5 0.002905 -0.004742 -0.000307 0.000000 0.025063 0.000000
# 6 0.000000 0.000000 0.000000 0.026590 0.000000 -0.046848
#
#
# Mechanical properties :
#
#
# Convention : Reuss Voigt Hill
#
# Bulk Modulus (GPa) = 15.43420 22.41738 18.92579
# Shear Modulus (GPa) = 64.19823 24.95681 44.57752
#
# Velocity S-wave (km/s) = 5.37449 3.35097 4.47851
# Velocity P-wave (km/s) = 6.74225 5.00583 5.93786
#
# Compressibility (1/GPa) = 0.06479117
#
# Stress axis : x y z
#
# Youngs Moduli (GPa) = 95.60173 36.06328 53.78305
#
# Poissons Ratio (x) = 0.11732 0.12262
# Poissons Ratio (y) = 0.31100 -0.51295
# Poissons Ratio (z) = 0.21795 -0.34395
#
# Static dielectric constant tensor:
#      x y z
#    x 1.826950 0.000000 -0.002630 
#    y 0.000000 1.835780 0.000000 
#    z -0.002630 0.000000 1.815970 
# 
# From -- ./inp_files/172317.got.cif
#   From: 2010.05.17/outbox.cif.g08.bks.cpg/sg15_87_cif.got.tgz:172317.got - 2010.06.03 18:47:42.
