data_PCOD9284140
_publ_section_title
;
Structure prediction by ZEFSAII (Michael W. Deem and Ramdas Pophale) SiO2 
 PCOD9284140
Probable space group: C 2/C
;
_chemical_formula_sum "Si O2"
_cell_formula_units_Z 56
_cell_length_a 18.354206
_cell_length_b 9.973720
_cell_length_c 18.290655
_cell_angle_alpha 90.000000
_cell_angle_beta 119.270370
_cell_angle_gamma 90.000000
_cell_volume 2920.780863
_symmetry_space_group_name_H-M "C 2/C"
_symmetry_group_IT_number 15
_symmetry_cell_setting 'monoclinic'
loop_
_space_group_symop_operation_xyz
x,y,z
-x,y,1/2-z
-x,-y,-z
x,-y,1/2+z
1/2+x,1/2+y,z
1/2-x,1/2+y,1/2-z
1/2-x,1/2-y,-z
1/2+x,1/2-y,1/2+z
loop_
_atom_site_type_symbol
_atom_site_label
_atom_site_fract_x
_atom_site_fract_y
_atom_site_fract_z
Si Si1 0.629165 0.006630 0.013154
Si Si2 0.671062 0.760605 0.749359
Si Si3 0.049475 0.137504 0.201861
Si Si4 0.485250 0.787768 0.460040
Si Si5 0.266607 0.468452 0.695156
Si Si6 0.332230 0.802127 0.582249
Si Si7 0.504530 0.647523 0.886809
O O1 0.577243 0.895396 0.033927
O O2 0.718020 0.020949 0.095251
O O3 0.641870 0.944792 0.939449
O O4 0.573921 0.139798 0.990674
O O5 0.717574 0.617028 0.764856
O O6 0.710475 0.874644 0.718690
O O7 0.680739 0.803332 0.838043
O O8 0.574433 0.733569 0.681383
O O9 0.143312 0.098529 0.268981
O O10 0.000000 0.180334 0.250000
O O11 0.048492 0.240425 0.134332
O O12 0.008567 0.002239 0.148234
O O13 0.493420 0.670709 0.524686
O O14 0.250000 0.750000 0.500000
O O15 0.409451 0.703858 0.603077
#
# Coordination Sequence:
#
# PCOD9284140 Si02
#       7
#     8   8   8   8   8   8   8
#     4  10  21  41  64  91 122 162 210 259 313 372
#     4  11  22  41  65  95 126 166 212 260 318 373
#     4  11  24  40  61  90 129 163 205 259 317 377
#     4  10  21  42  63  89 124 165 203 261 320 374
#     4  11  22  41  64  91 126 168 210 259 313 376
#     4  11  22  38  66  94 122 158 213 262 306 371
#     4  10  21  40  67  89 122 167 210 253 314 381
#
# _framework density 19.172954000000001
#
# number of rings (size 3 to 8) (size 9 to 14) (size 15 to 20)
#    0.000    1.429    2.857    3.429    2.000    0.000 
#    5.143    0.714    0.000    0.000    0.000    0.000 
#    0.000    0.000    0.000    0.000    0.000    0.000 
#
# Total GULP energy -156453.067158 kJ/mol
# GULP energy per Si atom -5587.609541 kJ/mol
# Density = 1.912932 g / cm^3
# Si number density = 19.172954 Si / 1000 Ang^3
#
#
#
# Elastic Constant Matrix: (Units=GPa)
#
#
# Indices 1 2 3 4 5 6 
#
# 1 48.4435 14.2868 13.7513 0.0000 6.8516 0.0000
# 2 14.2868 35.7627 8.4614 0.0000 -1.7727 0.0000
# 3 13.7513 8.4614 74.2868 0.0000 0.3724 0.0000
# 4 0.0000 0.0000 0.0000 22.4222 0.0000 0.1693
# 5 6.8516 -1.7727 0.3724 0.0000 44.6398 0.0000
# 6 0.0000 0.0000 0.0000 0.1693 0.0000 18.5070
#
#
#
# Elastic Compliance Matrix: (Units=1/GPa)
#
#
# Indices 1 2 3 4 5 6 
#
# 1 0.024998 -0.009356 -0.003541 0.000000 -0.004179 0.000000
# 2 -0.009356 0.032299 -0.001961 0.000000 0.002735 0.000000
# 3 -0.003541 -0.001961 0.014338 0.000000 0.000346 0.000000
# 4 0.000000 0.000000 0.000000 0.044602 0.000000 -0.000408
# 5 -0.004179 0.002735 0.000346 0.000000 0.023149 0.000000
# 6 0.000000 0.000000 0.000000 -0.000408 0.000000 0.054037
#
#
# Mechanical properties :
#
#
# Convention : Reuss Voigt Hill
#
# Bulk Modulus (GPa) = 23.85457 25.72133 24.78795
# Shear Modulus (GPa) = 21.08715 25.24670 23.16692
#
# Velocity S-wave (km/s) = 3.31998 3.63269 3.47985
# Velocity P-wave (km/s) = 5.21202 5.57134 5.39467
#
# Compressibility (1/GPa) = 0.04192069
#
# Stress axis : x y z
#
# Youngs Moduli (GPa) = 40.00336 30.96063 69.74283
#
# Poissons Ratio (x) = 0.28966 0.24694
# Poissons Ratio (y) = 0.37426 0.13675
# Poissons Ratio (z) = 0.14164 0.06071
#
# Static dielectric constant tensor:
#      x y z
#    x 1.649230 0.000000 0.002760 
#    y 0.000000 1.670190 0.000000 
#    z 0.002760 0.000000 1.659740 
# 
# From -- ./inp_files/161415.got.cif
#   From: 2010.05.17/outbox.cif.g08.bks.cpg/sg15_81_cif.got.tgz:161415.got - 2010.06.03 18:47:42.
