data_PCOD9284249
_publ_section_title
;
Structure prediction by ZEFSAII (Michael W. Deem and Ramdas Pophale) SiO2 
 PCOD9284249
Probable space group: C 2/C
;
_chemical_formula_sum "Si O2"
_cell_formula_units_Z 44
_cell_length_a 9.405540
_cell_length_b 18.348514
_cell_length_c 18.217210
_cell_angle_alpha 90.000000
_cell_angle_beta 135.638152
_cell_angle_gamma 90.000000
_cell_volume 2198.164103
_symmetry_space_group_name_H-M "C 2/C"
_symmetry_group_IT_number 15
_symmetry_cell_setting 'monoclinic'
loop_
_space_group_symop_operation_xyz
x,y,z
-x,y,1/2-z
-x,-y,-z
x,-y,1/2+z
1/2+x,1/2+y,z
1/2-x,1/2+y,1/2-z
1/2-x,1/2-y,-z
1/2+x,1/2-y,1/2+z
loop_
_atom_site_type_symbol
_atom_site_label
_atom_site_fract_x
_atom_site_fract_y
_atom_site_fract_z
Si Si1 0.693093 0.049679 0.864112
Si Si2 0.804542 0.310659 0.459673
Si Si3 0.300229 0.182598 0.320323
Si Si4 0.500000 0.191410 0.750000
Si Si5 0.000000 0.267269 0.750000
Si Si6 0.884794 0.964747 0.067846
Si Si7 0.000000 0.057136 0.250000
O O1 0.500000 0.015560 0.750000
O O2 0.621955 0.134104 0.846579
O O3 0.893243 0.046471 0.887068
O O4 0.749191 0.009555 0.959664
O O5 0.750000 0.250000 0.500000
O O6 0.688668 0.283204 0.344832
O O7 0.712870 0.387047 0.451183
O O8 0.047301 0.315510 0.553849
O O9 0.427703 0.185595 0.292406
O O10 0.165501 0.110947 0.275654
O O11 0.159847 0.254549 0.271188
O O12 0.907706 0.008225 0.151778
#
# Coordination Sequence:
#
# PCOD9284249 Si02
#       7
#     8   8   8   4   4   8   4
#     4   9  22  41  70  92 131 180 217 269 325 399
#     4  10  22  40  63  94 123 167 217 273 319 389
#     4  10  23  41  64  98 128 172 225 268 327 395
#     4   9  20  42  66  93 132 166 222 273 328 390
#     4  10  21  40  68  88 129 176 220 274 323 388
#     4  11  23  42  64 101 134 174 223 267 335 397
#     4  11  27  42  62 101 141 168 218 277 337 392
#
# _framework density 20.016704000000001
#
# number of rings (size 3 to 8) (size 9 to 14) (size 15 to 20)
#    0.545    1.455    0.000    2.727    2.545    9.455 
#    1.636    3.636    0.000    0.000    0.000    0.000 
#    0.000    0.000    0.000    0.000    0.000    0.000 
#
# Total GULP energy -122762.791973 kJ/mol
# GULP energy per Si atom -5580.126908 kJ/mol
# Density = 1.997115 g / cm^3
# Si number density = 20.016704 Si / 1000 Ang^3
#
#
#
# Elastic Constant Matrix: (Units=GPa)
#
#
# Indices 1 2 3 4 5 6 
#
# 1 71.3291 43.3901 49.3713 -0.0003 0.7663 -0.0001
# 2 43.3901 154.4775 70.1117 0.0000 -3.2809 0.0000
# 3 49.3713 70.1117 138.5540 -0.0002 -2.1425 0.0000
# 4 -0.0003 0.0000 -0.0002 -76.0876 -0.0002 -20.6618
# 5 0.7663 -3.2809 -2.1425 -0.0002 27.6238 -0.0001
# 6 -0.0001 0.0000 0.0000 -20.6618 -0.0001 2.1694
#
#
#
# Elastic Compliance Matrix: (Units=1/GPa)
#
#
# Indices 1 2 3 4 5 6 
#
# 1 0.019700 -0.003072 -0.005486 0.000000 -0.001337 0.000000
# 2 -0.003072 0.008895 -0.003393 0.000000 0.000879 0.000000
# 3 -0.005486 -0.003393 0.010898 0.000000 0.000594 0.000000
# 4 0.000000 0.000000 0.000000 -0.003665 0.000000 -0.034903
# 5 -0.001337 0.000879 0.000594 0.000000 0.036388 0.000000
# 6 0.000000 0.000000 0.000000 -0.034903 0.000000 0.128532
#
#
# Mechanical properties :
#
#
# Convention : Reuss Voigt Hill
#
# Bulk Modulus (GPa) = 64.13699 76.67854 70.40776
# Shear Modulus (GPa) = 21.75368 4.17362 12.96365
#
# Velocity S-wave (km/s) = 3.30021 1.44554 2.54764
# Velocity P-wave (km/s) = 6.82884 6.41690 6.62607
#
# Compressibility (1/GPa) = 0.01559163
#
# Stress axis : x y z
#
# Youngs Moduli (GPa) = 50.76239 112.42540 91.75818
#
# Poissons Ratio (x) = 0.34536 0.50337
# Poissons Ratio (y) = 0.15594 0.31132
# Poissons Ratio (z) = 0.27847 0.38144
#
# Static dielectric constant tensor:
#      x y z
#    x 1.656040 0.000000 -0.009200 
#    y 0.000000 1.677710 0.000000 
#    z -0.009200 0.000000 1.671620 
# 
# From -- ./inp_files/191205.got.cif
#   From: 2010.05.17/outbox.cif.g08.bks.cpg/sg15_96_cif.got.tgz:191205.got - 2010.06.03 18:47:42.
