data_PCOD9284279
_publ_section_title
;
Structure prediction by ZEFSAII (Michael W. Deem and Ramdas Pophale) SiO2 
 PCOD9284279
Probable space group: C 2/C
;
_chemical_formula_sum "Si O2"
_cell_formula_units_Z 48
_cell_length_a 17.301866
_cell_length_b 12.681768
_cell_length_c 10.283800
_cell_angle_alpha 90.000000
_cell_angle_beta 74.907877
_cell_angle_gamma 90.000000
_cell_volume 2178.624798
_symmetry_space_group_name_H-M "C 2/C"
_symmetry_group_IT_number 15
_symmetry_cell_setting 'monoclinic'
loop_
_space_group_symop_operation_xyz
x,y,z
-x,y,1/2-z
-x,-y,-z
x,-y,1/2+z
1/2+x,1/2+y,z
1/2-x,1/2+y,1/2-z
1/2-x,1/2-y,-z
1/2+x,1/2-y,1/2+z
loop_
_atom_site_type_symbol
_atom_site_label
_atom_site_fract_x
_atom_site_fract_y
_atom_site_fract_z
Si Si1 0.790941 0.079772 0.328328
Si Si2 0.088881 0.732266 0.737149
Si Si3 0.482059 0.364385 0.400283
Si Si4 0.883301 0.580567 0.016460
Si Si5 0.368196 0.459929 0.068551
Si Si6 0.554505 0.135238 0.028595
O O1 0.843643 0.181264 0.268878
O O2 0.696528 0.095168 0.366373
O O3 0.812907 0.059236 0.469180
O O4 0.819638 0.987403 0.219492
O O5 0.112504 0.662013 0.603853
O O6 0.077665 0.661048 0.869269
O O7 0.000000 0.780507 0.750000
O O8 0.500000 0.410494 0.250000
O O9 0.568039 0.366277 0.434547
O O10 0.423243 0.439890 0.505228
O O11 0.444630 0.248591 0.403102
O O12 0.962478 0.597250 0.068574
O O13 0.890620 0.462126 0.954846
#
# Coordination Sequence:
#
# PCOD9284279 Si02
#       6
#     8   8   8   8   8   8
#     4  12  24  43  68  99 137 173 226 286 335 397
#     4  10  21  40  68  95 125 175 225 275 331 405
#     4  11  22  41  67  98 131 177 220 272 341 402
#     4  10  24  41  66  95 130 181 221 273 331 406
#     4  11  24  40  67 100 133 174 222 282 335 398
#     4  10  22  44  66  94 131 176 226 274 332 410
#
# _framework density 22.032246000000001
#
# number of rings (size 3 to 8) (size 9 to 14) (size 15 to 20)
#    0.000    1.333    3.333    2.500    4.667    3.333 
#    0.000    0.833    0.000    0.000    0.000    0.000 
#    0.000    0.000    0.000    0.000    0.000    0.000 
#
# Total GULP energy -134217.213517 kJ/mol
# GULP energy per Si atom -5592.383897 kJ/mol
# Density = 2.198210 g / cm^3
# Si number density = 22.032246 Si / 1000 Ang^3
#
#
#
# Elastic Constant Matrix: (Units=GPa)
#
#
# Indices 1 2 3 4 5 6 
#
# 1 73.0036 19.6007 24.0007 0.0000 -32.3043 0.0000
# 2 19.6007 82.5539 2.4827 0.0000 -20.7526 0.0000
# 3 24.0007 2.4827 77.6312 0.0000 -14.9297 0.0000
# 4 0.0000 0.0000 0.0000 26.4574 0.0000 -16.1434
# 5 -32.3043 -20.7526 -14.9297 0.0000 40.0225 0.0000
# 6 0.0000 0.0000 0.0000 -16.1434 0.0000 -51.1750
#
#
#
# Elastic Compliance Matrix: (Units=1/GPa)
#
#
# Indices 1 2 3 4 5 6 
#
# 1 0.022345 -0.001165 -0.003790 0.000000 0.016018 0.000000
# 2 -0.001165 0.014064 0.001220 0.000000 0.006808 0.000000
# 3 -0.003790 0.001220 0.014595 0.000000 0.003017 0.000000
# 4 0.000000 0.000000 0.000000 0.031696 0.000000 -0.009999
# 5 0.016018 0.006808 0.003017 0.000000 0.042570 0.000000
# 6 0.000000 0.000000 0.000000 -0.009999 0.000000 -0.016387
#
#
# Mechanical properties :
#
#
# Convention : Reuss Voigt Hill
#
# Bulk Modulus (GPa) = 22.97142 36.15076 29.56109
# Shear Modulus (GPa) = 38.20726 15.53459 26.87093
#
# Velocity S-wave (km/s) = 4.16883 2.65822 3.49609
# Velocity P-wave (km/s) = 5.79837 5.08579 5.45373
#
# Compressibility (1/GPa) = 0.04353236
#
# Stress axis : x y z
#
# Youngs Moduli (GPa) = 44.75326 71.10116 68.51882
#
# Poissons Ratio (x) = 0.08281 0.25972
# Poissons Ratio (y) = 0.05213 -0.08356
# Poissons Ratio (z) = 0.16964 -0.08671
#
# Static dielectric constant tensor:
#      x y z
#    x 1.825020 0.000000 0.036470 
#    y 0.000000 1.826620 0.000000 
#    z 0.036470 0.000000 1.817990 
# 
# From -- ./inp_files/104186.got.cif
#   From: 2010.05.17/outbox.cif.g08.bks.cpg/sg15_53_cif.got.tgz:104186.got - 2010.06.03 18:47:42.
