data_PCOD9284177
_publ_section_title
;
Structure prediction by ZEFSAII (Michael W. Deem and Ramdas Pophale) SiO2 
 PCOD9284177
Probable space group: C 2/C
;
_chemical_formula_sum "Si O2"
_cell_formula_units_Z 32
_cell_length_a 16.596424
_cell_length_b 17.534350
_cell_length_c 5.062435
_cell_angle_alpha 90.000000
_cell_angle_beta 109.047932
_cell_angle_gamma 90.000000
_cell_volume 1392.542465
_symmetry_space_group_name_H-M "C 2/C"
_symmetry_group_IT_number 15
_symmetry_cell_setting 'monoclinic'
loop_
_space_group_symop_operation_xyz
x,y,z
-x,y,1/2-z
-x,-y,-z
x,-y,1/2+z
1/2+x,1/2+y,z
1/2-x,1/2+y,1/2-z
1/2-x,1/2-y,-z
1/2+x,1/2-y,1/2+z
loop_
_atom_site_type_symbol
_atom_site_label
_atom_site_fract_x
_atom_site_fract_y
_atom_site_fract_z
Si Si1 0.601022 0.450642 0.887542
Si Si2 0.162863 0.211847 0.316079
Si Si3 0.595082 0.784183 0.738631
Si Si4 0.895830 0.454850 0.640944
O O1 0.500000 0.430756 0.750000
O O2 0.616591 0.518791 0.697379
O O3 0.654786 0.376994 0.869264
O O4 0.250000 0.250000 0.500000
O O5 0.097318 0.254804 0.443071
O O6 0.145588 0.229248 0.992073
O O7 0.500000 0.785018 0.750000
O O8 0.630492 0.870083 0.805487
O O9 0.867771 0.482670 0.324459
O O10 0.000000 0.454840 0.750000
#
# Coordination Sequence:
#
# PCOD9284177 Si02
#       4
#     8   8   8   8
#     4  10  21  40  67  94 122 164 220 274 318 376
#     4  12  25  42  62  94 134 165 202 267 343 400
#     4  11  22  39  64  89 118 166 218 260 311 387
#     4   9  17  31  52  81 115 149 195 249 289 339
#
# _framework density 22.979548000000001
#
# number of rings (size 3 to 8) (size 9 to 14) (size 15 to 20)
#    0.000    1.500    0.000    6.000    0.000    6.000 
#    0.000    7.500    0.000    0.000    0.000    0.000 
#    0.000    0.000    0.000    0.000    0.000    0.000 
#
# Total GULP energy -89554.382795 kJ/mol
# GULP energy per Si atom -5597.148925 kJ/mol
# Density = 2.292725 g / cm^3
# Si number density = 22.979548 Si / 1000 Ang^3
#
#
#
# Elastic Constant Matrix: (Units=GPa)
#
#
# Indices 1 2 3 4 5 6 
#
# 1 42.6724 16.6533 5.9202 0.0000 1.9882 0.0000
# 2 16.6533 98.2854 -8.5000 0.0000 5.6706 0.0000
# 3 5.9202 -8.5000 63.7607 0.0000 -13.2328 0.0000
# 4 0.0000 0.0000 0.0000 28.4890 0.0000 -11.1232
# 5 1.9882 5.6706 -13.2328 0.0000 28.5472 0.0000
# 6 0.0000 0.0000 0.0000 -11.1232 0.0000 22.5340
#
#
#
# Elastic Compliance Matrix: (Units=1/GPa)
#
#
# Indices 1 2 3 4 5 6 
#
# 1 0.025810 -0.004532 -0.003526 0.000000 -0.002532 0.000000
# 2 -0.004532 0.011152 0.001674 0.000000 -0.001123 0.000000
# 3 -0.003526 0.001674 0.017942 0.000000 0.008230 0.000000
# 4 0.000000 0.000000 0.000000 0.043481 0.000000 0.021463
# 5 -0.002532 -0.001123 0.008230 0.000000 0.039244 0.000000
# 6 0.000000 0.000000 0.000000 0.021463 0.000000 0.054972
#
#
# Mechanical properties :
#
#
# Convention : Reuss Voigt Hill
#
# Bulk Modulus (GPa) = 23.73231 25.87396 24.80313
# Shear Modulus (GPa) = 22.78782 28.62370 25.70576
#
# Velocity S-wave (km/s) = 3.15247 3.53316 3.34823
# Velocity P-wave (km/s) = 4.85806 5.28472 5.07588
#
# Compressibility (1/GPa) = 0.04213666
#
# Stress axis : x y z
#
# Youngs Moduli (GPa) = 38.74429 89.67010 55.73418
#
# Poissons Ratio (x) = 0.40640 0.19653
# Poissons Ratio (y) = 0.17559 -0.09332
# Poissons Ratio (z) = 0.13662 -0.15014
#
# Static dielectric constant tensor:
#      x y z
#    x 1.934490 0.000000 -0.004220 
#    y 0.000000 1.816710 0.000000 
#    z -0.004220 0.000000 1.794070 
# 
# From -- ./inp_files/9505.got.cif
#   From: 2010.05.17/outbox.cif.g08.bks.cpg/sg15_5_cif.got.tgz:9505.got - 2010.06.03 18:47:42.
