data_PCOD9284910
_publ_section_title
;
Structure prediction by ZEFSAII (Michael W. Deem and Ramdas Pophale) SiO2 
 PCOD9284910
Probable space group: C 2/C
;
_chemical_formula_sum "Si O2"
_cell_formula_units_Z 40
_cell_length_a 10.709234
_cell_length_b 19.792749
_cell_length_c 8.673124
_cell_angle_alpha 90.000000
_cell_angle_beta 72.538015
_cell_angle_gamma 90.000000
_cell_volume 1753.679924
_symmetry_space_group_name_H-M "C 2/C"
_symmetry_group_IT_number 15
_symmetry_cell_setting 'monoclinic'
loop_
_space_group_symop_operation_xyz
x,y,z
-x,y,1/2-z
-x,-y,-z
x,-y,1/2+z
1/2+x,1/2+y,z
1/2-x,1/2+y,1/2-z
1/2-x,1/2-y,-z
1/2+x,1/2-y,1/2+z
loop_
_atom_site_type_symbol
_atom_site_label
_atom_site_fract_x
_atom_site_fract_y
_atom_site_fract_z
Si Si1 0.361002 0.598846 0.310272
Si Si2 0.597399 0.059308 0.918421
Si Si3 0.199268 0.722073 0.266529
Si Si4 0.773588 0.003374 0.597133
Si Si5 0.058067 0.712066 0.984508
O O1 0.500000 0.634580 0.250000
O O2 0.342717 0.562793 0.479532
O O3 0.245956 0.649308 0.309282
O O4 0.358374 0.537987 0.187378
O O5 0.715309 0.050613 0.998011
O O6 0.538784 0.133278 0.952757
O O7 0.342849 0.039474 0.767044
O O8 0.129681 0.716678 0.125166
O O9 0.085272 0.745679 0.429209
O O10 0.335064 0.761555 0.179621
O O11 0.500000 0.000000 0.500000
#
# Coordination Sequence:
#
# PCOD9284910 Si02
#       5
#     8   8   8   8   8
#     4  11  22  41  62  92 131 175 219 271 333 395
#     4  11  21  36  64  96 128 166 214 281 333 394
#     4  10  22  40  65  92 125 175 218 274 322 405
#     4  10  22  37  59  93 129 168 216 270 335 391
#     4  10  21  41  65  94 128 168 225 268 334 396
#
# _framework density 22.809180000000001
#
# number of rings (size 3 to 8) (size 9 to 14) (size 15 to 20)
#    0.000    1.600    2.000    3.600    2.800    1.600 
#    0.000    6.000    0.000    0.000    0.000    0.000 
#    0.000    0.000    0.000    0.000    0.000    0.000 
#
# Total GULP energy -111701.544845 kJ/mol
# GULP energy per Si atom -5585.077242 kJ/mol
# Density = 2.275727 g / cm^3
# Si number density = 22.809180 Si / 1000 Ang^3
#
#
#
# Elastic Constant Matrix: (Units=GPa)
#
#
# Indices 1 2 3 4 5 6 
#
# 1 86.8830 22.5273 51.3667 0.0000 -45.6904 0.0000
# 2 22.5273 81.5723 37.8935 0.0000 -32.4117 0.0000
# 3 51.3667 37.8935 105.0660 0.0000 -36.7781 0.0000
# 4 0.0000 0.0000 0.0000 24.7916 0.0000 -7.7280
# 5 -45.6904 -32.4117 -36.7781 0.0000 41.4871 0.0000
# 6 0.0000 0.0000 0.0000 -7.7280 0.0000 29.3355
#
#
#
# Elastic Compliance Matrix: (Units=1/GPa)
#
#
# Indices 1 2 3 4 5 6 
#
# 1 0.032157 0.008488 -0.005894 0.000000 0.036822 0.000000
# 2 0.008488 0.020392 -0.003850 0.000000 0.021865 0.000000
# 3 -0.005894 -0.003850 0.015170 0.000000 0.003950 0.000000
# 4 0.000000 0.000000 0.000000 0.043945 0.000000 0.011577
# 5 0.036822 0.021865 0.003950 0.000000 0.085240 0.000000
# 6 0.000000 0.000000 0.000000 0.011577 0.000000 0.037138
#
#
# Mechanical properties :
#
#
# Convention : Reuss Voigt Hill
#
# Bulk Modulus (GPa) = 15.33570 55.23291 35.28431
# Shear Modulus (GPa) = 19.35808 29.90512 24.63160
#
# Velocity S-wave (km/s) = 2.91640 3.62484 3.28975
# Velocity P-wave (km/s) = 4.25189 6.46429 5.47109
#
# Compressibility (1/GPa) = 0.06520731
#
# Stress axis : x y z
#
# Youngs Moduli (GPa) = 31.09709 49.03988 65.91754
#
# Poissons Ratio (x) = -0.41624 0.38849
# Poissons Ratio (y) = -0.26395 0.25380
# Poissons Ratio (z) = 0.18327 0.18882
#
# Static dielectric constant tensor:
#      x y z
#    x 1.961880 0.000000 -0.013940 
#    y 0.000000 1.802070 0.000000 
#    z -0.013940 0.000000 1.854290 
# 
# From -- ./inp_files/77732.got.cif
#   From: 2010.05.17/outbox.cif.g08.bks.cpg/sg15_39_cif.got.tgz:77732.got - 2010.06.03 18:47:42.
