data_PCOD9284775
_publ_section_title
;
Structure prediction by ZEFSAII (Michael W. Deem and Ramdas Pophale) SiO2 
 PCOD9284775
Probable space group: C 2/C
;
_chemical_formula_sum "Si O2"
_cell_formula_units_Z 36
_cell_length_a 25.091985
_cell_length_b 18.574277
_cell_length_c 11.427682
_cell_angle_alpha 90.000000
_cell_angle_beta 160.778499
_cell_angle_gamma 90.000000
_cell_volume 1753.446951
_symmetry_space_group_name_H-M "C 2/C"
_symmetry_group_IT_number 15
_symmetry_cell_setting 'monoclinic'
loop_
_space_group_symop_operation_xyz
x,y,z
-x,y,1/2-z
-x,-y,-z
x,-y,1/2+z
1/2+x,1/2+y,z
1/2-x,1/2+y,1/2-z
1/2-x,1/2-y,-z
1/2+x,1/2-y,1/2+z
loop_
_atom_site_type_symbol
_atom_site_label
_atom_site_fract_x
_atom_site_fract_y
_atom_site_fract_z
Si Si1 0.771302 0.662358 0.926807
Si Si2 0.935087 0.196007 0.774852
Si Si3 0.500000 0.244472 0.750000
Si Si4 0.905119 0.504387 0.177887
Si Si5 0.246947 0.351934 0.650566
O O1 0.675868 0.667734 0.850731
O O2 0.646079 0.702591 0.582670
O O3 0.921651 0.717492 0.240622
O O4 0.819383 0.581916 0.997633
O O5 0.844054 0.164122 0.472329
O O6 0.121605 0.173853 0.171196
O O7 0.422301 0.191330 0.686551
O O8 0.000000 0.498040 0.250000
O O9 0.000000 0.500000 0.500000
O O10 0.788383 0.435551 0.937193
#
# Coordination Sequence:
#
# PCOD9284775 Si02
#       5
#     8   8   4   8   8
#     4  10  23  40  64  98 127 167 229 273 323 394
#     4   9  21  41  68  90 129 174 219 272 328 400
#     4  10  22  38  64  96 124 170 216 278 324 396
#     4  12  27  43  66  99 137 177 220 279 335 393
#     4  10  21  41  64  91 130 174 210 264 346 385
#
# _framework density 20.530989000000002
#
# number of rings (size 3 to 8) (size 9 to 14) (size 15 to 20)
#    0.000    1.778    1.111    1.333   12.444    5.333 
#    0.000    0.000    0.000    0.000    0.000    0.000 
#    0.000    0.000    0.000    0.000    0.000    0.000 
#
# Total GULP energy -100380.514015 kJ/mol
# GULP energy per Si atom -5576.695223 kJ/mol
# Density = 2.048426 g / cm^3
# Si number density = 20.530989 Si / 1000 Ang^3
#
#
#
# Elastic Constant Matrix: (Units=GPa)
#
#
# Indices 1 2 3 4 5 6 
#
# 1 72.6180 46.8517 24.4781 0.0000 11.8242 0.0000
# 2 46.8517 212.1368 78.9342 0.0000 32.0112 0.0000
# 3 24.4781 78.9342 71.1274 0.0000 22.4807 0.0000
# 4 0.0000 0.0000 0.0000 19.8400 0.0000 17.8332
# 5 11.8242 32.0112 22.4807 0.0000 38.0452 0.0000
# 6 0.0000 0.0000 0.0000 17.8332 0.0000 20.4793
#
#
#
# Elastic Compliance Matrix: (Units=1/GPa)
#
#
# Indices 1 2 3 4 5 6 
#
# 1 0.016449 -0.002510 -0.002370 0.000000 -0.001600 0.000000
# 2 -0.002510 0.008518 -0.008079 0.000000 -0.001613 0.000000
# 3 -0.002370 -0.008079 0.026388 0.000000 -0.008058 0.000000
# 4 0.000000 0.000000 0.000000 0.231970 0.000000 -0.201998
# 5 -0.001600 -0.001613 -0.008058 0.000000 0.032900 0.000000
# 6 0.000000 0.000000 0.000000 -0.201998 0.000000 0.224728
#
#
# Mechanical properties :
#
#
# Convention : Reuss Voigt Hill
#
# Bulk Modulus (GPa) = 39.31287 72.93446 56.12367
# Shear Modulus (GPa) = 8.69035 29.38078 19.03556
#
# Velocity S-wave (km/s) = 2.05961 3.78702 3.04824
# Velocity P-wave (km/s) = 4.98454 7.39752 6.30749
#
# Compressibility (1/GPa) = 0.02543696
#
# Stress axis : x y z
#
# Youngs Moduli (GPa) = 60.79288 117.40117 37.89630
#
# Poissons Ratio (x) = 0.29462 0.08982
# Poissons Ratio (y) = 0.15256 0.30618
# Poissons Ratio (z) = 0.14409 0.94852
#
# Static dielectric constant tensor:
#      x y z
#    x 1.844900 0.000000 -0.008080 
#    y 0.000000 1.687040 0.000000 
#    z -0.008080 0.000000 1.797100 
# 
# From -- ./inp_files/123953.got.cif
#   From: 2010.05.17/outbox.cif.g08.bks.cpg/sg15_62_cif.got.tgz:123953.got - 2010.06.03 18:47:42.
