data_PCOD9284736
_publ_section_title
;
Structure prediction by ZEFSAII (Michael W. Deem and Ramdas Pophale) SiO2 
 PCOD9284736
Probable space group: C 2/C
;
_chemical_formula_sum "Si O2"
_cell_formula_units_Z 52
_cell_length_a 16.581071
_cell_length_b 27.383464
_cell_length_c 9.926554
_cell_angle_alpha 90.000000
_cell_angle_beta 146.413007
_cell_angle_gamma 90.000000
_cell_volume 2493.351849
_symmetry_space_group_name_H-M "C 2/C"
_symmetry_group_IT_number 15
_symmetry_cell_setting 'monoclinic'
loop_
_space_group_symop_operation_xyz
x,y,z
-x,y,1/2-z
-x,-y,-z
x,-y,1/2+z
1/2+x,1/2+y,z
1/2-x,1/2+y,1/2-z
1/2-x,1/2-y,-z
1/2+x,1/2-y,1/2+z
loop_
_atom_site_type_symbol
_atom_site_label
_atom_site_fract_x
_atom_site_fract_y
_atom_site_fract_z
Si Si1 0.000000 0.402534 0.750000
Si Si2 0.248802 0.496838 0.279438
Si Si3 0.313999 0.603619 0.720508
Si Si4 0.500000 0.562625 0.750000
Si Si5 0.943754 0.803380 0.518636
Si Si6 0.518380 0.061851 0.579353
Si Si7 0.754465 0.774442 0.654156
Si Si8 0.000000 0.648747 0.750000
O O1 0.010845 0.431194 0.622167
O O2 0.847333 0.375422 0.528040
O O3 0.292904 0.451552 0.246790
O O4 0.388240 0.528051 0.513670
O O5 0.120714 0.533653 0.053004
O O6 0.165661 0.469957 0.288154
O O7 0.404401 0.596520 0.712157
O O8 0.393689 0.641338 0.927272
O O9 0.810636 0.764603 0.330673
O O10 0.000000 0.799267 0.750000
O O11 0.077245 0.790950 0.603489
O O12 0.538049 0.113187 0.678847
O O13 0.750000 0.750000 0.500000
O O14 0.637937 0.818449 0.483587
#
# Coordination Sequence:
#
# PCOD9284736 Si02
#       8
#     4   8   8   4   8   8   8   4
#     4  10  22  45  62  89 134 184 215 261 328 408
#     4  10  24  40  61  91 136 177 225 271 320 398
#     4  11  25  41  69  92 134 183 221 266 340 399
#     4  12  24  42  57  95 134 171 221 284 324 382
#     4  10  23  41  68 100 128 166 215 285 343 392
#     4  10  24  41  66  95 132 182 230 267 329 397
#     4  10  21  41  64 101 133 156 214 298 345 387
#     4  12  24  37  75 104 126 175 232 289 336 390
#
# _framework density 20.855460000000001
#
# number of rings (size 3 to 8) (size 9 to 14) (size 15 to 20)
#    0.000    1.538    3.846    0.462   14.000    1.231 
#    0.000    0.000    0.000    8.308    0.000    0.000 
#    0.000    0.000    0.000    0.000    0.000    0.000 
#
# Total GULP energy -144996.535813 kJ/mol
# GULP energy per Si atom -5576.789839 kJ/mol
# Density = 2.080799 g / cm^3
# Si number density = 20.855460 Si / 1000 Ang^3
#
#
#
# Elastic Constant Matrix: (Units=GPa)
#
#
# Indices 1 2 3 4 5 6 
#
# 1 91.6005 27.5385 27.1336 0.0000 24.6804 0.0000
# 2 27.5385 74.9657 6.6818 0.0000 10.1303 0.0000
# 3 27.1336 6.6818 59.5325 0.0000 33.3369 0.0000
# 4 0.0000 0.0000 0.0000 -0.8618 0.0000 -4.1884
# 5 24.6804 10.1303 33.3369 0.0000 37.4780 0.0000
# 6 0.0000 0.0000 0.0000 -4.1884 0.0000 -3.1648
#
#
#
# Elastic Compliance Matrix: (Units=1/GPa)
#
#
# Indices 1 2 3 4 5 6 
#
# 1 0.014669 -0.004331 -0.002881 0.000000 -0.005927 0.000000
# 2 -0.004331 0.015159 0.001933 0.000000 -0.002964 0.000000
# 3 -0.002881 0.001933 0.034118 0.000000 -0.028973 0.000000
# 4 0.000000 0.000000 0.000000 0.213616 0.000000 -0.282704
# 5 -0.005927 -0.002964 -0.028973 0.000000 0.057159 0.000000
# 6 0.000000 0.000000 0.000000 -0.282704 0.000000 0.058166
#
#
# Mechanical properties :
#
#
# Convention : Reuss Voigt Hill
#
# Bulk Modulus (GPa) = 18.73102 38.75630 28.74366
# Shear Modulus (GPa) = 11.86970 17.67328 14.77149
#
# Velocity S-wave (km/s) = 2.38826 2.91420 2.66424
# Velocity P-wave (km/s) = 4.07503 5.47239 4.82457
#
# Compressibility (1/GPa) = 0.05338739
#
# Stress axis : x y z
#
# Youngs Moduli (GPa) = 68.16935 65.96847 29.30995
#
# Poissons Ratio (x) = 0.28571 0.08444
# Poissons Ratio (y) = 0.29525 -0.05664
# Poissons Ratio (z) = 0.19639 -0.12749
#
# Static dielectric constant tensor:
#      x y z
#    x 1.773210 0.000000 0.014750 
#    y 0.000000 1.734960 0.000000 
#    z 0.014750 0.000000 1.774030 
# 
# From -- ./inp_files/108385.got.cif
#   From: 2010.05.17/outbox.cif.g08.bks.cpg/sg15_55_cif.got.tgz:108385.got - 2010.06.03 18:47:42.
