data_PCOD9284313
_publ_section_title
;
Structure prediction by ZEFSAII (Michael W. Deem and Ramdas Pophale) SiO2 
 PCOD9284313
Probable space group: C 2/C
;
_chemical_formula_sum "Si O2"
_cell_formula_units_Z 60
_cell_length_a 8.112990
_cell_length_b 24.288556
_cell_length_c 22.236182
_cell_angle_alpha 90.000000
_cell_angle_beta 45.567065
_cell_angle_gamma 90.000000
_cell_volume 3128.843740
_symmetry_space_group_name_H-M "C 2/C"
_symmetry_group_IT_number 15
_symmetry_cell_setting 'monoclinic'
loop_
_space_group_symop_operation_xyz
x,y,z
-x,y,1/2-z
-x,-y,-z
x,-y,1/2+z
1/2+x,1/2+y,z
1/2-x,1/2+y,1/2-z
1/2-x,1/2-y,-z
1/2+x,1/2-y,1/2+z
loop_
_atom_site_type_symbol
_atom_site_label
_atom_site_fract_x
_atom_site_fract_y
_atom_site_fract_z
Si Si1 0.000000 0.467235 0.750000
Si Si2 0.659210 0.733103 0.088579
Si Si3 0.360401 0.104436 0.172507
Si Si4 0.266122 0.397622 0.923206
Si Si5 0.532054 0.282370 0.083311
Si Si6 0.022853 0.005107 0.422721
Si Si7 0.736472 0.101359 0.979118
Si Si8 0.332976 0.782483 0.740572
O O1 0.885397 0.431469 0.725583
O O2 0.787303 0.499183 0.834233
O O3 0.676249 0.666729 0.088101
O O4 0.393334 0.743879 0.172468
O O5 0.818670 0.764900 0.095653
O O6 0.750000 0.750000 0.000000
O O7 0.615325 0.106873 0.076187
O O8 0.279524 0.165185 0.211973
O O9 0.786948 0.084397 0.347490
O O10 0.414560 0.437420 0.926841
O O11 0.990123 0.399852 0.005441
O O12 0.471276 0.260254 0.164559
O O13 0.750000 0.250000 0.000000
O O14 0.601342 0.345960 0.068590
O O15 0.872892 0.954729 0.436047
O O16 0.000000 0.000000 0.500000
O O17 0.500000 0.803939 0.750000
#
# Coordination Sequence:
#
# PCOD9284313 Si02
#       8
#     4   8   8   8   8   8   8   8
#     4  12  24  40  68 104 128 168 216 278 334 386
#     4  12  26  38  66 102 134 177 222 273 339 399
#     4  10  21  40  69 100 123 164 224 281 331 372
#     4  10  23  43  71  94 131 173 228 274 341 391
#     4  12  21  43  65  95 138 170 215 274 344 410
#     4  12  25  44  67  96 134 170 228 280 336 399
#     4  10  23  43  69  90 130 178 217 272 340 398
#     4  12  24  38  66  99 137 173 222 273 333 404
#
# _framework density 19.176414000000001
#
# number of rings (size 3 to 8) (size 9 to 14) (size 15 to 20)
#    0.800    0.000    6.000    2.400    1.867    1.600 
#    2.400    0.000    2.933    0.000    0.000    0.000 
#    0.000    0.000    0.000    0.000    0.000    0.000 
#
# Total GULP energy -167426.024315 kJ/mol
# GULP energy per Si atom -5580.867477 kJ/mol
# Density = 1.913277 g / cm^3
# Si number density = 19.176414 Si / 1000 Ang^3
#
#
#
# Elastic Constant Matrix: (Units=GPa)
#
#
# Indices 1 2 3 4 5 6 
#
# 1 88.0527 16.6341 30.8729 0.0000 3.3538 0.0000
# 2 16.6341 56.7924 30.1948 0.0000 -9.5180 0.0000
# 3 30.8729 30.1948 140.7974 0.0000 -8.8255 0.0000
# 4 0.0000 0.0000 0.0000 15.7130 0.0000 -5.7838
# 5 3.3538 -9.5180 -8.8255 0.0000 37.6197 0.0000
# 6 0.0000 0.0000 0.0000 -5.7838 0.0000 27.4719
#
#
#
# Elastic Compliance Matrix: (Units=1/GPa)
#
#
# Indices 1 2 3 4 5 6 
#
# 1 0.012820 -0.002920 -0.002337 0.000000 -0.002430 0.000000
# 2 -0.002920 0.021178 -0.003602 0.000000 0.004773 0.000000
# 3 -0.002337 -0.003602 0.008468 0.000000 0.001283 0.000000
# 4 0.000000 0.000000 0.000000 0.068988 0.000000 0.014524
# 5 -0.002430 0.004773 0.001283 0.000000 0.028307 0.000000
# 6 0.000000 0.000000 0.000000 0.014524 0.000000 0.039459
#
#
# Mechanical properties :
#
#
# Convention : Reuss Voigt Hill
#
# Bulk Modulus (GPa) = 40.40722 49.00513 44.70617
# Shear Modulus (GPa) = 24.36784 30.02364 27.19574
#
# Velocity S-wave (km/s) = 3.56858 3.96113 3.76997
# Velocity P-wave (km/s) = 6.17226 6.82137 6.50492
#
# Compressibility (1/GPa) = 0.02474805
#
# Stress axis : x y z
#
# Youngs Moduli (GPa) = 78.00040 47.21792 118.09255
#
# Poissons Ratio (x) = 0.13786 0.27602
# Poissons Ratio (y) = 0.22773 0.42542
# Poissons Ratio (z) = 0.18231 0.17010
#
# Static dielectric constant tensor:
#      x y z
#    x 1.702630 0.000000 -0.019610 
#    y 0.000000 1.641450 0.000000 
#    z -0.019610 0.000000 1.683430 
# 
# From -- ./inp_files/266506.got.cif
#   From: 2010.05.17/outbox.cif.g08.bks.cpg/sg15_134_cif.got.tgz:266506.got - 2010.06.03 18:47:42.
