data_PCOD9284708
_publ_section_title
;
Structure prediction by ZEFSAII (Michael W. Deem and Ramdas Pophale) SiO2 
 PCOD9284708
Probable space group: C 2/C
;
_chemical_formula_sum "Si O2"
_cell_formula_units_Z 44
_cell_length_a 12.494285
_cell_length_b 8.364726
_cell_length_c 23.206598
_cell_angle_alpha 90.000000
_cell_angle_beta 117.906750
_cell_angle_gamma 90.000000
_cell_volume 2143.308176
_symmetry_space_group_name_H-M "C 2/C"
_symmetry_group_IT_number 15
_symmetry_cell_setting 'monoclinic'
loop_
_space_group_symop_operation_xyz
x,y,z
-x,y,1/2-z
-x,-y,-z
x,-y,1/2+z
1/2+x,1/2+y,z
1/2-x,1/2+y,1/2-z
1/2-x,1/2-y,-z
1/2+x,1/2-y,1/2+z
loop_
_atom_site_type_symbol
_atom_site_label
_atom_site_fract_x
_atom_site_fract_y
_atom_site_fract_z
Si Si1 0.559848 0.829326 0.062676
Si Si2 0.890686 0.665940 0.625198
Si Si3 0.831094 0.769988 0.288241
Si Si4 0.141250 0.327573 0.574555
Si Si5 0.104674 0.866614 0.678068
Si Si6 0.000000 0.440663 0.750000
O O1 0.458213 0.891381 0.083719
O O2 0.620461 0.687820 0.115077
O O3 0.644333 0.979056 0.067805
O O4 0.481878 0.775497 0.988422
O O5 0.753856 0.721155 0.581306
O O6 0.966440 0.827248 0.658213
O O7 0.922207 0.545332 0.684695
O O8 0.858218 0.699020 0.357380
O O9 0.691186 0.748852 0.236212
O O10 0.908151 0.671134 0.261833
O O11 0.862264 0.955056 0.299140
#
# Coordination Sequence:
#
# PCOD9284708 Si02
#       6
#     8   8   8   8   8   4
#     4   9  22  40  63  96 125 170 215 261 326 398
#     4  10  21  41  63  94 123 171 205 271 321 394
#     4  12  23  40  61  92 123 170 207 279 312 395
#     4  11  20  39  70  88 130 168 215 264 328 384
#     4  10  23  40  60  92 125 160 219 251 336 374
#     4  12  24  40  62  92 130 162 228 258 336 380
#
# _framework density 20.529012000000002
#
# number of rings (size 3 to 8) (size 9 to 14) (size 15 to 20)
#    1.091    0.364    1.818    4.909    0.000    4.364 
#    0.000    0.000    0.000    4.364    0.000    0.000 
#    0.000    0.000    0.000    0.000    0.000    0.000 
#
# Total GULP energy -122712.344908 kJ/mol
# GULP energy per Si atom -5577.833859 kJ/mol
# Density = 2.048229 g / cm^3
# Si number density = 20.529012 Si / 1000 Ang^3
#
#
#
# Elastic Constant Matrix: (Units=GPa)
#
#
# Indices 1 2 3 4 5 6 
#
# 1 24.5295 -29.6841 -9.7691 0.0000 12.4806 0.0000
# 2 -29.6841 -34.8295 -17.2108 0.0000 97.8420 0.0000
# 3 -9.7691 -17.2108 104.2020 0.0000 24.8805 0.0000
# 4 0.0000 0.0000 0.0000 22.7073 0.0000 -3.6978
# 5 12.4806 97.8420 24.8805 0.0000 -26.2202 0.0000
# 6 0.0000 0.0000 0.0000 -3.6978 0.0000 20.4797
#
#
#
# Elastic Compliance Matrix: (Units=1/GPa)
#
#
# Indices 1 2 3 4 5 6 
#
# 1 0.033809 -0.001854 0.000549 0.000000 0.009694 0.000000
# 2 -0.001854 0.003604 -0.002103 0.000000 0.010571 0.000000
# 3 0.000549 -0.002103 0.009059 0.000000 0.001012 0.000000
# 4 0.000000 0.000000 0.000000 0.045373 0.000000 0.008192
# 5 0.009694 0.010571 0.001012 0.000000 0.006882 0.000000
# 6 0.000000 0.000000 0.000000 0.008192 0.000000 0.050308
#
#
# Mechanical properties :
#
#
# Convention : Reuss Voigt Hill
#
# Bulk Modulus (GPa) = 25.21661 -2.15846 11.52908
# Shear Modulus (GPa) = 29.57336 13.43111 21.50224
#
# Velocity S-wave (km/s) = 3.79959 2.56061 3.23988
# Velocity P-wave (km/s) = 5.61777 2.77283 4.42989
#
# Compressibility (1/GPa) = 0.03965639
#
# Stress axis : x y z
#
# Youngs Moduli (GPa) = 29.57751 277.46004 110.38301
#
# Poissons Ratio (x) = 0.51453 -0.06058
# Poissons Ratio (y) = 0.05485 0.23210
# Poissons Ratio (z) = -0.01623 0.58340
#
# Static dielectric constant tensor:
#      x y z
#    x 1.762080 0.000000 -0.005850 
#    y 0.000000 1.731850 0.000000 
#    z -0.005850 0.000000 1.736860 
# 
# From -- ./inp_files/241973.got.cif
#   From: 2010.05.17/outbox.cif.g08.bks.cpg/sg15_121_cif.got.tgz:241973.got - 2010.06.03 18:47:42.
