data_PCOD9284448
_publ_section_title
;
Structure prediction by ZEFSAII (Michael W. Deem and Ramdas Pophale) SiO2 
 PCOD9284448
Probable space group: C 2/C
;
_chemical_formula_sum "Si O2"
_cell_formula_units_Z 52
_cell_length_a 8.949670
_cell_length_b 26.086672
_cell_length_c 14.676116
_cell_angle_alpha 90.000000
_cell_angle_beta 43.591856
_cell_angle_gamma 90.000000
_cell_volume 2362.553020
_symmetry_space_group_name_H-M "C 2/C"
_symmetry_group_IT_number 15
_symmetry_cell_setting 'monoclinic'
loop_
_space_group_symop_operation_xyz
x,y,z
-x,y,1/2-z
-x,-y,-z
x,-y,1/2+z
1/2+x,1/2+y,z
1/2-x,1/2+y,1/2-z
1/2-x,1/2-y,-z
1/2+x,1/2-y,1/2+z
loop_
_atom_site_type_symbol
_atom_site_label
_atom_site_fract_x
_atom_site_fract_y
_atom_site_fract_z
Si Si1 0.269389 0.179349 0.891480
Si Si2 0.000000 0.491568 0.750000
Si Si3 0.417548 0.492333 0.639011
Si Si4 0.059977 0.889202 0.350461
Si Si5 0.748562 0.702540 0.115529
Si Si6 0.134366 0.539043 0.503919
Si Si7 0.871387 0.634183 0.554115
O O1 0.500000 0.162062 0.750000
O O2 0.105746 0.136241 0.927610
O O3 0.232786 0.236980 0.870785
O O4 0.268775 0.189087 0.999261
O O5 0.192617 0.462874 0.718804
O O6 0.088003 0.526986 0.629992
O O7 0.500000 0.500000 0.500000
O O8 0.377351 0.550991 0.689473
O O9 0.607251 0.467986 0.614468
O O10 0.210917 0.857328 0.212367
O O11 0.806006 0.885932 0.439256
O O12 0.500000 0.687167 0.250000
O O13 0.969664 0.677278 0.055691
O O14 0.000000 0.500000 0.500000
O O15 0.043235 0.592671 0.513011
#
# Coordination Sequence:
#
# PCOD9284448 Si02
#       7
#     8   4   8   8   8   8   8
#     4  10  21  40  72  95 125 170 219 270 326 397
#     4  10  22  38  58  86 118 164 216 268 316 390
#     4  10  22  36  59  93 122 162 212 274 321 377
#     4  11  22  39  66  98 123 167 229 274 318 397
#     4  10  23  43  62  99 132 165 214 270 339 396
#     4  11  22  40  59  89 131 166 214 273 327 391
#     4  11  23  40  65  96 128 171 219 271 329 397
#
# _framework density 22.010088
#
# number of rings (size 3 to 8) (size 9 to 14) (size 15 to 20)
#    0.000    1.538    4.615    0.000    5.385    1.231 
#    2.769    0.769    0.000    0.000    0.000    0.000 
#    0.000    0.000    0.000    0.000    0.000    0.000 
#
# Total GULP energy -144900.315777 kJ/mol
# GULP energy per Si atom -5573.089068 kJ/mol
# Density = 2.195999 g / cm^3
# Si number density = 22.010088 Si / 1000 Ang^3
#
#
#
# Elastic Constant Matrix: (Units=GPa)
#
#
# Indices 1 2 3 4 5 6 
#
# 1 140.2342 33.5414 36.9494 0.0000 -49.1754 0.0000
# 2 33.5414 48.2665 12.4069 0.0000 -21.1243 0.0000
# 3 36.9494 12.4069 99.9417 0.0000 -22.0702 0.0000
# 4 0.0000 0.0000 0.0000 27.4500 0.0000 -10.4660
# 5 -49.1754 -21.1243 -22.0702 0.0000 62.4536 0.0000
# 6 0.0000 0.0000 0.0000 -10.4660 0.0000 28.4836
#
#
#
# Elastic Compliance Matrix: (Units=1/GPa)
#
#
# Indices 1 2 3 4 5 6 
#
# 1 0.010965 -0.004256 -0.002101 0.000000 0.006452 0.000000
# 2 -0.004256 0.026128 -0.000497 0.000000 0.005311 0.000000
# 3 -0.002101 -0.000497 0.011326 0.000000 0.002180 0.000000
# 4 0.000000 0.000000 0.000000 0.042365 0.000000 0.015567
# 5 0.006452 0.005311 0.002180 0.000000 0.023658 0.000000
# 6 0.000000 0.000000 0.000000 0.015567 0.000000 0.040828
#
#
# Mechanical properties :
#
#
# Convention : Reuss Voigt Hill
#
# Bulk Modulus (GPa) = 28.80993 50.47086 39.64040
# Shear Modulus (GPa) = 27.69349 37.38042 32.53696
#
# Velocity S-wave (km/s) = 3.55099 4.12555 3.84901
# Velocity P-wave (km/s) = 5.47088 6.75826 6.14836
#
# Compressibility (1/GPa) = 0.03471025
#
# Stress axis : x y z
#
# Youngs Moduli (GPa) = 91.20127 38.27312 88.29526
#
# Poissons Ratio (x) = 0.16289 0.18548
# Poissons Ratio (y) = 0.38816 0.04391
# Poissons Ratio (z) = 0.19159 0.01903
#
# Static dielectric constant tensor:
#      x y z
#    x 1.893680 0.000000 -0.043080 
#    y 0.000000 1.880150 0.000000 
#    z -0.043080 0.000000 1.915050 
# 
# From -- ./inp_files/193678.got.cif
#   From: 2010.05.17/outbox.cif.g08.bks.cpg/sg15_97_cif.got.tgz:193678.got - 2010.06.03 18:47:42.
