data_PCOD9284009
_publ_section_title
;
Structure prediction by ZEFSAII (Michael W. Deem and Ramdas Pophale) SiO2 
 PCOD9284009
Probable space group: C 2/C
;
_chemical_formula_sum "Si O2"
_cell_formula_units_Z 40
_cell_length_a 13.036045
_cell_length_b 14.419852
_cell_length_c 13.142367
_cell_angle_alpha 90.000000
_cell_angle_beta 119.420690
_cell_angle_gamma 90.000000
_cell_volume 2151.872776
_symmetry_space_group_name_H-M "C 2/C"
_symmetry_group_IT_number 15
_symmetry_cell_setting 'monoclinic'
loop_
_space_group_symop_operation_xyz
x,y,z
-x,y,1/2-z
-x,-y,-z
x,-y,1/2+z
1/2+x,1/2+y,z
1/2-x,1/2+y,1/2-z
1/2-x,1/2-y,-z
1/2+x,1/2-y,1/2+z
loop_
_atom_site_type_symbol
_atom_site_label
_atom_site_fract_x
_atom_site_fract_y
_atom_site_fract_z
Si Si1 0.136004 0.015524 0.295585
Si Si2 0.543396 0.916857 0.091333
Si Si3 0.229032 0.500409 0.838069
Si Si4 0.728345 0.856487 0.020982
Si Si5 0.714207 0.145583 0.993825
O O1 0.167203 0.015163 0.191810
O O2 0.172514 0.918954 0.371084
O O3 0.000000 0.035356 0.250000
O O4 0.224127 0.093887 0.382139
O O5 0.617906 0.964847 0.217332
O O6 0.624782 0.857494 0.055005
O O7 0.426728 0.865356 0.071425
O O8 0.500000 0.000000 0.000000
O O9 0.203716 0.417049 0.905810
O O10 0.261818 0.587635 0.922445
O O11 0.750000 0.750000 0.000000
O O12 0.750000 0.250000 0.000000
#
# Coordination Sequence:
#
# PCOD9284009 Si02
#       5
#     8   8   8   8   8
#     4  10  23  41  57  86 128 163 201 249 311 367
#     4  11  20  42  65  91 121 161 210 251 303 369
#     4  10  21  40  66  83 125 165 201 258 307 351
#     4  10  23  40  62  95 120 160 213 251 302 367
#     4  11  24  38  62  96 119 160 211 252 304 367
#
# _framework density 18.588459
#
# number of rings (size 3 to 8) (size 9 to 14) (size 15 to 20)
#    0.000    1.600    6.000    0.600    0.000   11.200 
#    3.600    0.000    0.000    0.000    0.000    0.000 
#    0.000    0.000    0.000    0.000    0.000    0.000 
#
# Total GULP energy -111458.648928 kJ/mol
# GULP energy per Si atom -5572.932446 kJ/mol
# Density = 1.854615 g / cm^3
# Si number density = 18.588459 Si / 1000 Ang^3
#
#
#
# Elastic Constant Matrix: (Units=GPa)
#
#
# Indices 1 2 3 4 5 6 
#
# 1 126.9368 16.3613 38.2021 0.0000 -9.3925 0.0000
# 2 16.3613 134.7464 35.6791 0.0000 -12.2643 0.0000
# 3 38.2021 35.6791 81.9454 0.0000 -31.8164 0.0000
# 4 0.0000 0.0000 0.0000 9.3965 0.0000 -0.8716
# 5 -9.3925 -12.2643 -31.8164 0.0000 30.9442 0.0000
# 6 0.0000 0.0000 0.0000 -0.8716 0.0000 28.3113
#
#
#
# Elastic Compliance Matrix: (Units=1/GPa)
#
#
# Indices 1 2 3 4 5 6 
#
# 1 0.009300 0.000058 -0.005419 0.000000 -0.002726 0.000000
# 2 0.000058 0.008398 -0.003969 0.000000 -0.000734 0.000000
# 3 -0.005419 -0.003969 0.025313 0.000000 0.022809 0.000000
# 4 0.000000 0.000000 0.000000 0.106727 0.000000 0.003286
# 5 -0.002726 -0.000734 0.022809 0.000000 0.054650 0.000000
# 6 0.000000 0.000000 0.000000 0.003286 0.000000 0.035423
#
#
# Mechanical properties :
#
#
# Convention : Reuss Voigt Hill
#
# Bulk Modulus (GPa) = 41.06534 58.23485 49.65010
# Shear Modulus (GPa) = 18.75549 30.62279 24.68914
#
# Velocity S-wave (km/s) = 3.17990 4.06323 3.64840
# Velocity P-wave (km/s) = 5.96843 7.30819 6.67202
#
# Compressibility (1/GPa) = 0.02435144
#
# Stress axis : x y z
#
# Youngs Moduli (GPa) = 107.53099 119.07088 39.50467
#
# Poissons Ratio (x) = -0.00685 0.21407
# Poissons Ratio (y) = -0.00619 0.15678
# Poissons Ratio (z) = 0.58270 0.47255
#
# Static dielectric constant tensor:
#      x y z
#    x 1.685840 0.000000 0.043600 
#    y 0.000000 1.456970 0.000000 
#    z 0.043600 0.000000 1.749410 
# 
# From -- ./inp_files/86240.got.cif
#   From: 2010.05.17/outbox.cif.g08.bks.cpg/sg15_44_cif.got.tgz:86240.got - 2010.06.03 18:47:42.
