data_PCOD9284695
_publ_section_title
;
Structure prediction by ZEFSAII (Michael W. Deem and Ramdas Pophale) SiO2 
 PCOD9284695
Probable space group: C 2/C
;
_chemical_formula_sum "Si O2"
_cell_formula_units_Z 52
_cell_length_a 13.247971
_cell_length_b 14.084370
_cell_length_c 16.129853
_cell_angle_alpha 90.000000
_cell_angle_beta 134.272761
_cell_angle_gamma 90.000000
_cell_volume 2154.989704
_symmetry_space_group_name_H-M "C 2/C"
_symmetry_group_IT_number 15
_symmetry_cell_setting 'monoclinic'
loop_
_space_group_symop_operation_xyz
x,y,z
-x,y,1/2-z
-x,-y,-z
x,-y,1/2+z
1/2+x,1/2+y,z
1/2-x,1/2+y,1/2-z
1/2-x,1/2-y,-z
1/2+x,1/2-y,1/2+z
loop_
_atom_site_type_symbol
_atom_site_label
_atom_site_fract_x
_atom_site_fract_y
_atom_site_fract_z
Si Si1 0.827952 0.886315 0.945623
Si Si2 0.000000 0.810399 0.250000
Si Si3 0.052220 0.362872 0.898829
Si Si4 0.000000 0.491797 0.250000
Si Si5 0.500000 0.315782 0.750000
Si Si6 0.299637 0.169372 0.864102
Si Si7 0.489648 0.438885 0.582766
Si Si8 0.275665 0.843539 0.151656
O O1 0.935485 0.953286 0.060139
O O2 0.695405 0.882894 0.930066
O O3 0.825736 0.778616 0.908948
O O4 0.861638 0.941372 0.879312
O O5 0.989015 0.740164 0.161960
O O6 0.851445 0.859274 0.183126
O O7 0.956415 0.442033 0.801939
O O8 0.076981 0.377210 0.009749
O O9 0.868597 0.424171 0.159904
O O10 0.503243 0.383444 0.674022
O O11 0.642525 0.251545 0.830924
O O12 0.296544 0.156884 0.763745
O O13 0.382406 0.370002 0.467321
#
# Coordination Sequence:
#
# PCOD9284695 Si02
#       8
#     8   4   8   4   4   8   8   8
#     4  10  21  43  62  94 135 163 212 269 324 379
#     4   9  20  35  65  88 133 162 209 268 321 385
#     4  10  21  41  63  92 131 172 217 262 331 388
#     4  10  22  46  63  88 133 180 216 282 312 377
#     4  11  24  47  68  96 124 180 221 264 325 394
#     4  11  23  39  66 103 124 179 215 266 332 394
#     4  11  23  43  68  95 134 170 213 278 321 382
#     4  11  24  42  70  92 131 172 223 268 324 381
#
# _framework density 24.130046
#
# number of rings (size 3 to 8) (size 9 to 14) (size 15 to 20)
#    0.000    1.538    3.077    2.308    4.308    0.615 
#    5.538    1.538    0.000    0.000    0.000    0.000 
#    0.000    0.000    0.000    0.000    0.000    0.000 
#
# Total GULP energy -144837.415869 kJ/mol
# GULP energy per Si atom -5570.669841 kJ/mol
# Density = 2.407513 g / cm^3
# Si number density = 24.130046 Si / 1000 Ang^3
#
#
#
# Elastic Constant Matrix: (Units=GPa)
#
#
# Indices 1 2 3 4 5 6 
#
# 1 61.5812 -0.9425 -1.4439 0.0000 13.1558 0.0000
# 2 -0.9425 68.4125 -1.1299 0.0000 1.6484 0.0000
# 3 -1.4439 -1.1299 64.2791 0.0000 2.5421 0.0000
# 4 0.0000 0.0000 0.0000 132.9242 0.0000 -3.9710
# 5 13.1558 1.6484 2.5421 0.0000 32.7844 0.0000
# 6 0.0000 0.0000 0.0000 -3.9710 0.0000 15.7790
#
#
#
# Elastic Compliance Matrix: (Units=1/GPa)
#
#
# Indices 1 2 3 4 5 6 
#
# 1 0.017804 0.000431 0.000693 0.000000 -0.007220 0.000000
# 2 0.000431 0.014651 0.000304 0.000000 -0.000933 0.000000
# 3 0.000693 0.000304 0.015638 0.000000 -0.001506 0.000000
# 4 0.000000 0.000000 0.000000 0.007580 0.000000 0.001908
# 5 -0.007220 -0.000933 -0.001506 0.000000 0.033563 0.000000
# 6 0.000000 0.000000 0.000000 0.001908 0.000000 0.063856
#
#
# Mechanical properties :
#
#
# Convention : Reuss Voigt Hill
#
# Bulk Modulus (GPa) = 19.62793 20.80448 20.21621
# Shear Modulus (GPa) = 29.90108 49.48346 39.69227
#
# Velocity S-wave (km/s) = 3.52399 4.53338 4.06018
# Velocity P-wave (km/s) = 4.97091 6.00354 5.51146
#
# Compressibility (1/GPa) = 0.05094780
#
# Stress axis : x y z
#
# Youngs Moduli (GPa) = 56.16739 68.25632 63.94838
#
# Poissons Ratio (x) = -0.02940 -0.04432
# Poissons Ratio (y) = -0.02419 -0.01945
# Poissons Ratio (z) = -0.03892 -0.02076
#
# Static dielectric constant tensor:
#      x y z
#    x 1.931410 0.000000 0.068470 
#    y 0.000000 1.988140 0.000000 
#    z 0.068470 0.000000 2.136550 
# 
# From -- ./inp_files/205805.got.cif
#   From: 2010.05.17/outbox.cif.g08.bks.cpg/sg15_103_cif.got.tgz:205805.got - 2010.06.03 18:47:42.
