data_PCOD9284675
_publ_section_title
;
Structure prediction by ZEFSAII (Michael W. Deem and Ramdas Pophale) SiO2 
 PCOD9284675
Probable space group: C 2/C
;
_chemical_formula_sum "Si O2"
_cell_formula_units_Z 40
_cell_length_a 18.647648
_cell_length_b 15.565445
_cell_length_c 7.537981
_cell_angle_alpha 90.000000
_cell_angle_beta 128.866094
_cell_angle_gamma 90.000000
_cell_volume 1703.582610
_symmetry_space_group_name_H-M "C 2/C"
_symmetry_group_IT_number 15
_symmetry_cell_setting 'monoclinic'
loop_
_space_group_symop_operation_xyz
x,y,z
-x,y,1/2-z
-x,-y,-z
x,-y,1/2+z
1/2+x,1/2+y,z
1/2-x,1/2+y,1/2-z
1/2-x,1/2-y,-z
1/2+x,1/2-y,1/2+z
loop_
_atom_site_type_symbol
_atom_site_label
_atom_site_fract_x
_atom_site_fract_y
_atom_site_fract_z
Si Si1 0.232265 0.758716 0.187621
Si Si2 0.907534 0.533791 0.715011
Si Si3 0.890694 0.089964 0.098507
Si Si4 0.094441 0.641026 0.424767
Si Si5 0.217307 0.074418 0.226444
O O1 0.315126 0.806092 0.412512
O O2 0.241485 0.663735 0.284622
O O3 0.250000 0.750000 0.000000
O O4 0.145173 0.824019 0.059772
O O5 0.906504 0.586136 0.893850
O O6 0.909521 0.430824 0.734019
O O7 0.808992 0.544702 0.470438
O O8 0.000000 0.558195 0.750000
O O9 0.862443 0.101820 0.259293
O O10 0.000000 0.076936 0.250000
O O11 0.829751 0.005810 0.947839
O O12 0.000000 0.692896 0.250000
#
# Coordination Sequence:
#
# PCOD9284675 Si02
#       5
#     8   8   8   8   8
#     4  10  21  41  63  90 128 170 212 269 325 381
#     4  11  20  36  64  92 125 163 209 258 335 388
#     4  11  23  42  69  92 128 179 223 261 327 393
#     4  11  21  37  62  92 124 162 210 264 325 388
#     4  11  22  43  67  92 130 169 217 273 322 387
#
# _framework density 23.479928000000001
#
# number of rings (size 3 to 8) (size 9 to 14) (size 15 to 20)
#    0.000    1.200    6.000    3.000    0.000    1.600 
#    0.000    1.000    0.000    0.000    0.000    0.000 
#    0.000    0.000    0.000    0.000    0.000    0.000 
#
# Total GULP energy -111492.704660 kJ/mol
# GULP energy per Si atom -5574.635233 kJ/mol
# Density = 2.342649 g / cm^3
# Si number density = 23.479928 Si / 1000 Ang^3
#
#
#
# Elastic Constant Matrix: (Units=GPa)
#
#
# Indices 1 2 3 4 5 6 
#
# 1 112.2313 33.3776 43.0459 0.0000 17.5809 0.0000
# 2 33.3776 135.1248 49.0951 0.0000 22.1772 0.0000
# 3 43.0459 49.0951 134.4858 0.0000 43.5263 0.0000
# 4 0.0000 0.0000 0.0000 10.0543 0.0000 -5.5667
# 5 17.5809 22.1772 43.5263 0.0000 43.7064 0.0000
# 6 0.0000 0.0000 0.0000 -5.5667 0.0000 18.8964
#
#
#
# Elastic Compliance Matrix: (Units=1/GPa)
#
#
# Indices 1 2 3 4 5 6 
#
# 1 0.010467 -0.001526 -0.002481 0.000000 -0.000966 0.000000
# 2 -0.001526 0.008853 -0.002196 0.000000 -0.001691 0.000000
# 3 -0.002481 -0.002196 0.012318 0.000000 -0.010155 0.000000
# 4 0.000000 0.000000 0.000000 0.118844 0.000000 0.035011
# 5 -0.000966 -0.001691 -0.010155 0.000000 0.034240 0.000000
# 6 0.000000 0.000000 0.000000 0.035011 0.000000 0.063234
#
#
# Mechanical properties :
#
#
# Convention : Reuss Voigt Hill
#
# Bulk Modulus (GPa) = 51.99409 70.31991 61.15700
# Shear Modulus (GPa) = 18.74262 31.61963 25.18112
#
# Velocity S-wave (km/s) = 2.82838 3.67368 3.27839
# Velocity P-wave (km/s) = 5.73223 6.92882 6.35873
#
# Compressibility (1/GPa) = 0.01923295
#
# Stress axis : x y z
#
# Youngs Moduli (GPa) = 95.54203 112.95713 81.18082
#
# Poissons Ratio (x) = 0.17233 0.20138
# Poissons Ratio (y) = 0.14576 0.17828
# Poissons Ratio (z) = 0.23701 0.24807
#
# Static dielectric constant tensor:
#      x y z
#    x 1.999820 0.000000 -0.026660 
#    y 0.000000 -33.432840 0.000000 
#    z -0.026660 0.000000 1.941420 
# 
# From -- ./inp_files/61746.got.cif
#   From: 2010.05.17/outbox.cif.g08.bks.cpg/sg15_31_cif.got.tgz:61746.got - 2010.06.03 18:47:42.
