data_PCOD9284436
_publ_section_title
;
Structure prediction by ZEFSAII (Michael W. Deem and Ramdas Pophale) SiO2 
 PCOD9284436
Probable space group: C 2/C
;
_chemical_formula_sum "Si O2"
_cell_formula_units_Z 60
_cell_length_a 15.796071
_cell_length_b 8.951937
_cell_length_c 22.292749
_cell_angle_alpha 90.000000
_cell_angle_beta 117.338453
_cell_angle_gamma 90.000000
_cell_volume 2800.231196
_symmetry_space_group_name_H-M "C 2/C"
_symmetry_group_IT_number 15
_symmetry_cell_setting 'monoclinic'
loop_
_space_group_symop_operation_xyz
x,y,z
-x,y,1/2-z
-x,-y,-z
x,-y,1/2+z
1/2+x,1/2+y,z
1/2-x,1/2+y,1/2-z
1/2-x,1/2-y,-z
1/2+x,1/2-y,1/2+z
loop_
_atom_site_type_symbol
_atom_site_label
_atom_site_fract_x
_atom_site_fract_y
_atom_site_fract_z
Si Si1 0.414222 0.859029 0.519032
Si Si2 0.029017 0.858245 0.859052
Si Si3 0.500000 0.072761 0.250000
Si Si4 0.142218 0.337231 0.240781
Si Si5 0.720636 0.883534 0.134049
Si Si6 0.916580 0.291786 0.005434
Si Si7 0.090011 0.801695 0.362406
Si Si8 0.265527 0.725405 0.119971
O O1 0.353032 0.827420 0.439812
O O2 0.521549 0.815583 0.534802
O O3 0.379860 0.760510 0.563083
O O4 0.408962 0.038207 0.529178
O O5 0.125844 0.775956 0.868056
O O6 0.935759 0.795519 0.795059
O O7 0.044746 0.033979 0.853751
O O8 0.029980 0.812330 0.929333
O O9 0.520853 0.179366 0.312614
O O10 0.584955 0.968282 0.254904
O O11 0.181008 0.371903 0.187614
O O12 0.228791 0.301265 0.313586
O O13 0.821409 0.806914 0.154349
O O14 0.737914 0.055053 0.123017
O O15 0.814063 0.223968 0.953465
#
# Coordination Sequence:
#
# PCOD9284436 Si02
#       8
#     8   8   4   8   8   8   8   8
#     4  10  21  43  69  98 140 178 231 280 339 405
#     4  11  22  45  68  96 139 180 230 280 351 401
#     4  12  28  44  70  98 132 186 232 278 358 410
#     4  12  24  46  72  97 137 185 233 277 347 421
#     4  10  24  44  68  99 137 179 225 282 347 403
#     4  10  21  40  72 101 132 186 232 281 334 414
#     4  11  27  42  67 103 139 175 224 295 345 404
#     4  10  23  40  67 102 133 177 229 286 331 408
#
# _framework density 21.426803
#
# number of rings (size 3 to 8) (size 9 to 14) (size 15 to 20)
#    0.000    1.333    2.667    1.600    9.333    0.533 
#    2.400    0.000    0.000    0.000    0.000    0.000 
#    0.000    0.000    0.000    0.000    0.000    0.000 
#
# Total GULP energy -167614.939745 kJ/mol
# GULP energy per Si atom -5587.164658 kJ/mol
# Density = 2.137803 g / cm^3
# Si number density = 21.426803 Si / 1000 Ang^3
#
#
#
# Elastic Constant Matrix: (Units=GPa)
#
#
# Indices 1 2 3 4 5 6 
#
# 1 55.0374 20.1503 1.7759 0.0000 -8.9590 0.0000
# 2 20.1503 59.7895 28.0595 0.0000 -1.3743 0.0000
# 3 1.7759 28.0595 87.1733 0.0000 -4.5936 0.0000
# 4 0.0000 0.0000 0.0000 32.9333 0.0000 -10.4539
# 5 -8.9590 -1.3743 -4.5936 0.0000 37.1668 0.0000
# 6 0.0000 0.0000 0.0000 -10.4539 0.0000 -1.7922
#
#
#
# Elastic Compliance Matrix: (Units=1/GPa)
#
#
# Indices 1 2 3 4 5 6 
#
# 1 0.022074 -0.008526 0.002575 0.000000 0.005324 0.000000
# 2 -0.008526 0.022994 -0.007339 0.000000 -0.002112 0.000000
# 3 0.002575 -0.007339 0.013890 0.000000 0.002066 0.000000
# 4 0.000000 0.000000 0.000000 0.010649 0.000000 -0.062112
# 5 0.005324 -0.002112 0.002066 0.000000 0.028366 0.000000
# 6 0.000000 0.000000 0.000000 -0.062112 0.000000 -0.195673
#
#
# Mechanical properties :
#
#
# Convention : Reuss Voigt Hill
#
# Bulk Modulus (GPa) = 30.88357 33.55239 32.21798
# Shear Modulus (GPa) = -82.88273 23.79586 -29.54343
#
# Velocity S-wave (km/s) = -6.22622 3.33613 -3.71726
# Velocity P-wave (km/s) = 6.10270 5.52565 1.83168
#
# Compressibility (1/GPa) = 0.03237968
#
# Stress axis : x y z
#
# Youngs Moduli (GPa) = 45.30122 43.48885 71.99356
#
# Poissons Ratio (x) = 0.37077 -0.18539
# Poissons Ratio (y) = 0.38622 0.52837
# Poissons Ratio (z) = -0.11666 0.31917
#
# Static dielectric constant tensor:
#      x y z
#    x 1.829350 0.000000 0.027970 
#    y 0.000000 1.752790 0.000000 
#    z 0.027970 0.000000 1.877830 
# 
# From -- ./inp_files/247837.got.cif
#   From: 2010.05.17/outbox.cif.g08.bks.cpg/sg15_124_cif.got.tgz:247837.got - 2010.06.03 18:47:42.
