data_PCOD9284472
_publ_section_title
;
Structure prediction by ZEFSAII (Michael W. Deem and Ramdas Pophale) SiO2 
 PCOD9284472
Probable space group: C 2/C
;
_chemical_formula_sum "Si O2"
_cell_formula_units_Z 44
_cell_length_a 18.083646
_cell_length_b 7.817989
_cell_length_c 13.711604
_cell_angle_alpha 90.000000
_cell_angle_beta 109.372662
_cell_angle_gamma 90.000000
_cell_volume 1828.758915
_symmetry_space_group_name_H-M "C 2/C"
_symmetry_group_IT_number 15
_symmetry_cell_setting 'monoclinic'
loop_
_space_group_symop_operation_xyz
x,y,z
-x,y,1/2-z
-x,-y,-z
x,-y,1/2+z
1/2+x,1/2+y,z
1/2-x,1/2+y,1/2-z
1/2-x,1/2-y,-z
1/2+x,1/2-y,1/2+z
loop_
_atom_site_type_symbol
_atom_site_label
_atom_site_fract_x
_atom_site_fract_y
_atom_site_fract_z
Si Si1 0.643651 0.084461 0.188499
Si Si2 0.816279 0.192714 0.284422
Si Si3 0.432071 0.859526 0.045881
Si Si4 0.560700 0.347025 0.502590
Si Si5 0.500000 0.910645 0.750000
Si Si6 0.585762 0.533256 0.335047
O O1 0.723556 0.181199 0.246980
O O2 0.570052 0.166211 0.213921
O O3 0.655562 0.886383 0.224756
O O4 0.627564 0.087353 0.065156
O O5 0.859725 0.139370 0.402505
O O6 0.849830 0.062652 0.218342
O O7 0.401137 0.685460 0.081748
O O8 0.454687 0.976953 0.147379
O O9 0.512772 0.813163 0.023795
O O10 0.500000 0.500000 0.500000
O O11 0.580496 0.362792 0.397710
O O12 0.500000 0.560208 0.250000
#
# Coordination Sequence:
#
# PCOD9284472 Si02
#       6
#     8   8   8   8   4   8
#     4  12  29  45  77 103 153 190 245 300 365 433
#     4  12  26  49  68 114 147 192 241 305 361 431
#     4  11  21  46  74 104 135 196 243 289 352 443
#     4  10  21  40  75 106 140 182 250 293 349 437
#     4  12  22  50  76  96 140 204 232 288 376 432
#     4  11  20  42  76 102 139 191 233 289 369 428
#
# _framework density 24.060033000000001
#
# number of rings (size 3 to 8) (size 9 to 14) (size 15 to 20)
#    0.000    0.727    8.182    0.545    5.091    2.182 
#    4.909    1.818    0.000    0.000    0.000    0.000 
#    0.000    0.000    0.000    0.000    0.000    0.000 
#
# Total GULP energy -123119.226037 kJ/mol
# GULP energy per Si atom -5596.328456 kJ/mol
# Density = 2.400527 g / cm^3
# Si number density = 24.060033 Si / 1000 Ang^3
#
#
#
# Elastic Constant Matrix: (Units=GPa)
#
#
# Indices 1 2 3 4 5 6 
#
# 1 129.4097 23.3416 60.2229 0.0000 13.8345 0.0000
# 2 23.3416 76.7554 33.7832 0.0000 -2.8319 0.0000
# 3 60.2229 33.7832 153.8106 0.0000 2.8523 0.0000
# 4 0.0000 0.0000 0.0000 42.5709 0.0000 -8.0564
# 5 13.8345 -2.8319 2.8523 0.0000 49.7277 0.0000
# 6 0.0000 0.0000 0.0000 -8.0564 0.0000 40.8393
#
#
#
# Elastic Compliance Matrix: (Units=1/GPa)
#
#
# Indices 1 2 3 4 5 6 
#
# 1 0.009918 -0.001579 -0.003488 0.000000 -0.002649 0.000000
# 2 -0.001579 0.014724 -0.002642 0.000000 0.001429 0.000000
# 3 -0.003488 -0.002642 0.008441 0.000000 0.000336 0.000000
# 4 0.000000 0.000000 0.000000 0.024401 0.000000 0.004814
# 5 -0.002649 0.001429 0.000336 0.000000 0.020909 0.000000
# 6 0.000000 0.000000 0.000000 0.004814 0.000000 0.025436
#
#
# Mechanical properties :
#
#
# Convention : Reuss Voigt Hill
#
# Bulk Modulus (GPa) = 56.60528 66.07457 61.33992
# Shear Modulus (GPa) = 39.95655 42.80277 41.37966
#
# Velocity S-wave (km/s) = 4.07959 4.22239 4.15161
# Velocity P-wave (km/s) = 6.76524 7.16195 6.96642
#
# Compressibility (1/GPa) = 0.01766620
#
# Stress axis : x y z
#
# Youngs Moduli (GPa) = 100.82292 67.91484 118.46734
#
# Poissons Ratio (x) = 0.10724 0.41316
# Poissons Ratio (y) = 0.15920 0.31303
# Poissons Ratio (z) = 0.35162 0.17945
#
# Static dielectric constant tensor:
#      x y z
#    x 1.893470 0.000000 -0.006770 
#    y 0.000000 2.048950 0.000000 
#    z -0.006770 0.000000 1.925250 
# 
# From -- ./inp_files/159815.got.cif
#   From: 2010.05.17/outbox.cif.g08.bks.cpg/sg15_80_cif.got.tgz:159815.got - 2010.06.03 18:47:42.
