data_PCOD9284850
_publ_section_title
;
Structure prediction by ZEFSAII (Michael W. Deem and Ramdas Pophale) SiO2 
 PCOD9284850
Probable space group: C 2/C
;
_chemical_formula_sum "Si O2"
_cell_formula_units_Z 48
_cell_length_a 32.085386
_cell_length_b 16.066946
_cell_length_c 16.104265
_cell_angle_alpha 90.000000
_cell_angle_beta 161.761938
_cell_angle_gamma 90.000000
_cell_volume 2598.235803
_symmetry_space_group_name_H-M "C 2/C"
_symmetry_group_IT_number 15
_symmetry_cell_setting 'monoclinic'
loop_
_space_group_symop_operation_xyz
x,y,z
-x,y,1/2-z
-x,-y,-z
x,-y,1/2+z
1/2+x,1/2+y,z
1/2-x,1/2+y,1/2-z
1/2-x,1/2-y,-z
1/2+x,1/2-y,1/2+z
loop_
_atom_site_type_symbol
_atom_site_label
_atom_site_fract_x
_atom_site_fract_y
_atom_site_fract_z
Si Si1 0.843796 0.729674 0.454916
Si Si2 0.388465 0.140026 0.967918
Si Si3 0.967445 0.236898 0.886758
Si Si4 0.230203 0.164258 0.411553
Si Si5 0.797362 0.335566 0.690335
Si Si6 0.852811 0.481065 0.255673
O O1 0.745032 0.809671 0.258433
O O2 0.802956 0.680903 0.461617
O O3 0.817455 0.670985 0.326189
O O4 0.000000 0.752831 0.750000
O O5 0.356123 0.057639 0.854459
O O6 0.500000 0.127562 0.250000
O O7 0.455529 0.199451 0.026267
O O8 0.918450 0.285644 0.875625
O O9 0.837140 0.209310 0.591525
O O10 0.070397 0.162392 0.097930
O O11 0.250000 0.250000 0.500000
O O12 0.284552 0.086041 0.565552
O O13 0.787639 0.428625 0.637888
O O14 0.000000 0.500000 0.500000
#
# Coordination Sequence:
#
# PCOD9284850 Si02
#       6
#     8   8   8   8   8   8
#     4  11  22  37  66  93 120 166 217 253 311 386
#     4  11  22  41  67  89 124 168 211 254 315 381
#     4  10  21  41  65  86 126 176 203 249 323 385
#     4  11  21  39  65  90 124 171 205 256 321 378
#     4  11  23  39  63  95 127 159 215 264 305 380
#     4  12  23  39  63  95 127 158 210 269 312 364
#
# _framework density 18.474073000000001
#
# number of rings (size 3 to 8) (size 9 to 14) (size 15 to 20)
#    0.000    1.000    6.667    2.000    0.000    2.667 
#    0.000    0.000   11.000    0.000    0.000    0.000 
#    0.000    0.000    0.000    0.000    0.000    0.000 
#
# Total GULP energy -133950.493930 kJ/mol
# GULP energy per Si atom -5581.270580 kJ/mol
# Density = 1.843203 g / cm^3
# Si number density = 18.474073 Si / 1000 Ang^3
#
#
#
# Elastic Constant Matrix: (Units=GPa)
#
#
# Indices 1 2 3 4 5 6 
#
# 1 116.5142 27.6907 47.9288 0.0000 -9.0424 0.0000
# 2 27.6907 62.8057 22.2958 0.0000 7.0923 0.0000
# 3 47.9288 22.2958 102.6259 0.0000 6.9229 0.0000
# 4 0.0000 0.0000 0.0000 26.6900 0.0000 -6.0675
# 5 -9.0424 7.0923 6.9229 0.0000 34.1747 0.0000
# 6 0.0000 0.0000 0.0000 -6.0675 0.0000 27.9771
#
#
#
# Elastic Compliance Matrix: (Units=1/GPa)
#
#
# Indices 1 2 3 4 5 6 
#
# 1 0.012031 -0.004074 -0.005075 0.000000 0.005057 0.000000
# 2 -0.004074 0.018912 -0.001895 0.000000 -0.004619 0.000000
# 3 -0.005075 -0.001895 0.012764 0.000000 -0.003535 0.000000
# 4 0.000000 0.000000 0.000000 0.039410 0.000000 0.008547
# 5 0.005057 -0.004619 -0.003535 0.000000 0.032274 0.000000
# 6 0.000000 0.000000 0.000000 0.008547 0.000000 0.037597
#
#
# Mechanical properties :
#
#
# Convention : Reuss Voigt Hill
#
# Bulk Modulus (GPa) = 46.25112 53.08628 49.66870
# Shear Modulus (GPa) = 27.42997 30.03707 28.73352
#
# Velocity S-wave (km/s) = 3.85747 4.03662 3.94806
# Velocity P-wave (km/s) = 6.70299 7.10800 6.90847
#
# Compressibility (1/GPa) = 0.02162110
#
# Stress axis : x y z
#
# Youngs Moduli (GPa) = 83.12012 52.87528 78.34379
#
# Poissons Ratio (x) = 0.21540 0.39757
# Poissons Ratio (y) = 0.33862 0.14843
# Poissons Ratio (z) = 0.42181 0.10018
#
# Static dielectric constant tensor:
#      x y z
#    x 1.642960 0.000000 -0.005720 
#    y 0.000000 1.635400 0.000000 
#    z -0.005720 0.000000 1.691470 
# 
# From -- ./inp_files/182524.got.cif
#   From: 2010.05.17/outbox.cif.g08.bks.cpg/sg15_92_cif.got.tgz:182524.got - 2010.06.03 18:47:42.
