data_PCOD9284621
_publ_section_title
;
Structure prediction by ZEFSAII (Michael W. Deem and Ramdas Pophale) SiO2 
 PCOD9284621
Probable space group: C 2/C
;
_chemical_formula_sum "Si O2"
_cell_formula_units_Z 40
_cell_length_a 10.749766
_cell_length_b 13.921562
_cell_length_c 20.867806
_cell_angle_alpha 90.000000
_cell_angle_beta 28.670247
_cell_angle_gamma 90.000000
_cell_volume 1498.286932
_symmetry_space_group_name_H-M "C 2/C"
_symmetry_group_IT_number 15
_symmetry_cell_setting 'monoclinic'
loop_
_space_group_symop_operation_xyz
x,y,z
-x,y,1/2-z
-x,-y,-z
x,-y,1/2+z
1/2+x,1/2+y,z
1/2-x,1/2+y,1/2-z
1/2-x,1/2-y,-z
1/2+x,1/2-y,1/2+z
loop_
_atom_site_type_symbol
_atom_site_label
_atom_site_fract_x
_atom_site_fract_y
_atom_site_fract_z
Si Si1 0.000000 0.656273 0.250000
Si Si2 0.005461 0.473086 0.322430
Si Si3 0.324152 0.223852 0.763709
Si Si4 0.000000 0.971838 0.250000
Si Si5 0.089294 0.683819 0.968804
Si Si6 0.618802 0.608298 0.093866
O O1 0.959150 0.586416 0.206142
O O2 0.243086 0.725387 0.130100
O O3 0.738087 0.448232 0.479837
O O4 0.000000 0.448430 0.250000
O O5 0.192695 0.383636 0.257422
O O6 0.500000 0.230849 0.750000
O O7 0.480934 0.291049 0.644328
O O8 0.055086 0.272157 0.904249
O O9 0.211399 0.904675 0.120788
O O10 0.927971 0.043697 0.224240
O O11 0.863482 0.636982 0.027406
#
# Coordination Sequence:
#
# PCOD9284621 Si02
#       6
#     4   8   8   4   8   8
#     4   9  22  43  62  90 140 163 212 261 320 386
#     4   9  21  42  63  91 129 169 208 262 316 382
#     4   9  18  37  62  90 123 159 211 264 311 374
#     4  11  22  39  64  92 128 163 220 265 322 380
#     4  10  21  41  62  94 129 168 210 269 318 377
#     4  11  20  39  66  93 126 166 217 264 317 382
#
# _framework density 26.697156
#
# number of rings (size 3 to 8) (size 9 to 14) (size 15 to 20)
#    0.600    1.600    3.000    1.200    0.000    0.800 
#    7.200    2.000    0.000    0.000    0.000    0.000 
#    0.000    0.000    0.000    0.000    0.000    0.000 
#
# Total GULP energy -111523.888767 kJ/mol
# GULP energy per Si atom -5576.194438 kJ/mol
# Density = 2.663639 g / cm^3
# Si number density = 26.697156 Si / 1000 Ang^3
#
#
#
# Elastic Constant Matrix: (Units=GPa)
#
#
# Indices 1 2 3 4 5 6 
#
# 1 60.8691 44.0733 22.0051 -0.0376 3.8953 -0.0346
# 2 44.0733 204.5234 64.1515 -0.0320 2.5134 -0.0255
# 3 22.0051 64.1515 145.3213 -0.1679 27.2111 -0.1576
# 4 -0.0376 -0.0320 -0.1679 -28.8795 0.0708 -23.6670
# 5 3.8953 2.5134 27.2111 0.0708 39.3618 0.0766
# 6 -0.0346 -0.0255 -0.1576 -23.6670 0.0766 11.3732
#
#
#
# Elastic Compliance Matrix: (Units=1/GPa)
#
#
# Indices 1 2 3 4 5 6 
#
# 1 0.019701 -0.003893 -0.001087 -0.000019 -0.000950 0.000002
# 2 -0.003893 0.006531 -0.002628 0.000020 0.001785 -0.000003
# 3 -0.001087 -0.002628 0.009367 -0.000073 -0.006200 0.000010
# 4 -0.000019 0.000020 -0.000073 -0.012798 0.000126 -0.026635
# 5 -0.000950 0.001785 -0.006200 0.000126 0.029671 -0.000022
# 6 0.000002 -0.000003 0.000010 -0.026635 -0.000022 0.032501
#
#
# Mechanical properties :
#
#
# Convention : Reuss Voigt Hill
#
# Bulk Modulus (GPa) = 49.05913 74.57484 61.81699
# Shear Modulus (GPa) = 46.73735 23.07003 34.90369
#
# Velocity S-wave (km/s) = 4.18862 2.94281 3.61971
# Velocity P-wave (km/s) = 6.46597 6.28817 6.37769
#
# Compressibility (1/GPa) = 0.02038357
#
# Stress axis : x y z
#
# Youngs Moduli (GPa) = 50.75871 153.12686 106.76183
#
# Poissons Ratio (x) = 0.59610 0.11604
# Poissons Ratio (y) = 0.19760 0.28052
# Poissons Ratio (z) = 0.05517 0.40235
#
# Static dielectric constant tensor:
#      x y z
#    x 2.173940 0.000000 -0.037070 
#    y 0.000000 2.128570 0.000010 
#    z -0.037070 0.000010 2.025240 
# 
# From -- ./inp_files/296524.got.cif
#   From: 2010.05.17/outbox.cif.g08.bks.cpg/sg15_149_cif.got.tgz:296524.got - 2010.06.03 18:47:42.
