data_PCOD9284588
_publ_section_title
;
Structure prediction by ZEFSAII (Michael W. Deem and Ramdas Pophale) SiO2 
 PCOD9284588
Probable space group: C 2/C
;
_chemical_formula_sum "Si O2"
_cell_formula_units_Z 56
_cell_length_a 29.653451
_cell_length_b 9.056495
_cell_length_c 12.262819
_cell_angle_alpha 90.000000
_cell_angle_beta 60.202452
_cell_angle_gamma 90.000000
_cell_volume 2857.845278
_symmetry_space_group_name_H-M "C 2/C"
_symmetry_group_IT_number 15
_symmetry_cell_setting 'monoclinic'
loop_
_space_group_symop_operation_xyz
x,y,z
-x,y,1/2-z
-x,-y,-z
x,-y,1/2+z
1/2+x,1/2+y,z
1/2-x,1/2+y,1/2-z
1/2-x,1/2-y,-z
1/2+x,1/2-y,1/2+z
loop_
_atom_site_type_symbol
_atom_site_label
_atom_site_fract_x
_atom_site_fract_y
_atom_site_fract_z
Si Si1 0.692051 0.425434 0.399227
Si Si2 0.762985 0.353500 0.730952
Si Si3 0.906097 0.007028 0.119593
Si Si4 0.062202 0.288022 0.797923
Si Si5 0.678209 0.689540 0.153533
Si Si6 0.137774 0.476470 0.316890
Si Si7 0.944733 0.282925 0.951189
O O1 0.725204 0.575439 0.367104
O O2 0.721812 0.317862 0.278700
O O3 0.635249 0.457064 0.422226
O O4 0.689114 0.338343 0.515072
O O5 0.727083 0.363202 0.666842
O O6 0.816711 0.442507 0.670820
O O7 0.930929 0.864910 0.145260
O O8 0.871246 0.092583 0.250698
O O9 0.942429 0.127480 0.018289
O O10 0.104569 0.403685 0.790214
O O11 0.067604 0.262308 0.661843
O O12 0.003332 0.343937 0.888340
O O13 0.664752 0.856347 0.205067
O O14 0.098241 0.387665 0.442269
#
# Coordination Sequence:
#
# PCOD9284588 Si02
#       7
#     8   8   8   8   8   8   8
#     4  11  22  40  59  87 119 158 197 242 296 357
#     4  11  22  37  58  85 119 153 198 242 290 351
#     4  10  21  41  62  89 118 156 198 248 293 356
#     4  11  22  40  65  89 116 161 199 245 305 353
#     4  10  23  40  59  86 123 159 194 241 300 350
#     4  11  23  39  61  88 123 157 198 249 295 353
#     4  10  24  41  60  90 124 151 200 253 299 354
#
# _framework density 19.595184
#
# number of rings (size 3 to 8) (size 9 to 14) (size 15 to 20)
#    0.000    1.429    2.857    2.143    2.000    0.000 
#    0.000    1.429    0.000    6.857    0.000    0.000 
#    0.000    0.000    0.000    0.000    0.000    0.000 
#
# Total GULP energy -156326.397442 kJ/mol
# GULP energy per Si atom -5583.085623 kJ/mol
# Density = 1.955058 g / cm^3
# Si number density = 19.595184 Si / 1000 Ang^3
#
#
#
# Elastic Constant Matrix: (Units=GPa)
#
#
# Indices 1 2 3 4 5 6 
#
# 1 109.9381 46.6689 37.4025 0.0000 -11.1002 0.0000
# 2 46.6689 92.5032 38.9620 0.0000 6.0035 0.0000
# 3 37.4025 38.9620 89.9524 0.0000 -0.4387 0.0000
# 4 0.0000 0.0000 0.0000 6.5598 0.0000 -10.3399
# 5 -11.1002 6.0035 -0.4387 0.0000 13.5118 0.0000
# 6 0.0000 0.0000 0.0000 -10.3399 0.0000 23.9577
#
#
#
# Elastic Compliance Matrix: (Units=1/GPa)
#
#
# Indices 1 2 3 4 5 6 
#
# 1 0.014647 -0.007138 -0.002925 0.000000 0.015109 0.000000
# 2 -0.007138 0.017217 -0.004556 0.000000 -0.013662 0.000000
# 3 -0.002925 -0.004556 0.014307 0.000000 0.000086 0.000000
# 4 0.000000 0.000000 0.000000 0.476819 0.000000 0.205791
# 5 0.015109 -0.013662 0.000086 0.000000 0.092495 0.000000
# 6 0.000000 0.000000 0.000000 0.205791 0.000000 0.130557
#
#
# Mechanical properties :
#
#
# Convention : Reuss Voigt Hill
#
# Bulk Modulus (GPa) = 59.05553 59.82895 59.44224
# Shear Modulus (GPa) = 6.40266 20.09655 13.24961
#
# Velocity S-wave (km/s) = 1.80957 3.20595 2.60314
# Velocity P-wave (km/s) = 5.87957 6.65604 6.27982
#
# Compressibility (1/GPa) = 0.01693322
#
# Stress axis : x y z
#
# Youngs Moduli (GPa) = 68.27442 58.08066 69.89625
#
# Poissons Ratio (x) = 0.41459 0.20442
# Poissons Ratio (y) = 0.48736 0.31846
# Poissons Ratio (z) = 0.19968 0.26462
#
# Static dielectric constant tensor:
#      x y z
#    x 1.661190 0.000000 -0.022130 
#    y 0.000000 1.691090 0.000000 
#    z -0.022130 0.000000 1.681920 
# 
# From -- ./inp_files/122010.got.cif
#   From: 2010.05.17/outbox.cif.g08.bks.cpg/sg15_62_cif.got.tgz:122010.got - 2010.06.03 18:47:42.
