data_PCOD9284952
_publ_section_title
;
Structure prediction by ZEFSAII (Michael W. Deem and Ramdas Pophale) SiO2 
 PCOD9284952
Probable space group: C 2/C
;
_chemical_formula_sum "Si O2"
_cell_formula_units_Z 64
_cell_length_a 21.472919
_cell_length_b 27.771606
_cell_length_c 11.228228
_cell_angle_alpha 90.000000
_cell_angle_beta 150.503376
_cell_angle_gamma 90.000000
_cell_volume 3296.832592
_symmetry_space_group_name_H-M "C 2/C"
_symmetry_group_IT_number 15
_symmetry_cell_setting 'monoclinic'
loop_
_space_group_symop_operation_xyz
x,y,z
-x,y,1/2-z
-x,-y,-z
x,-y,1/2+z
1/2+x,1/2+y,z
1/2-x,1/2+y,1/2-z
1/2-x,1/2-y,-z
1/2+x,1/2-y,1/2+z
loop_
_atom_site_type_symbol
_atom_site_label
_atom_site_fract_x
_atom_site_fract_y
_atom_site_fract_z
Si Si1 0.646198 0.690625 0.514227
Si Si2 0.211996 0.701295 0.146745
Si Si3 0.587470 0.943818 0.775364
Si Si4 0.497626 0.698605 0.609601
Si Si5 0.726117 0.644272 0.882974
Si Si6 0.335685 0.847643 0.159424
Si Si7 0.931490 0.697962 0.352206
Si Si8 0.567025 0.945438 0.233565
O O1 0.714409 0.741074 0.653840
O O2 0.674587 0.652526 0.664876
O O3 0.704907 0.669821 0.493083
O O4 0.500000 0.700197 0.250000
O O5 0.353036 0.682258 0.357227
O O6 0.149894 0.685241 0.166075
O O7 0.131199 0.684159 0.900104
O O8 0.500000 0.935407 0.750000
O O9 0.519143 0.940383 0.530747
O O10 0.620714 0.000638 0.833172
O O11 0.703948 0.906370 0.976644
O O12 0.500000 0.715341 0.750000
O O13 0.605616 0.659215 0.763516
O O14 0.531158 0.745958 0.588045
O O15 0.837225 0.683604 0.090081
O O16 0.442945 0.834279 0.434944
O O17 0.334403 0.902819 0.121590
O O18 0.500000 0.936170 0.250000
#
# Coordination Sequence:
#
# PCOD9284952 Si02
#       8
#     8   8   8   8   8   8   8   8
#     4  12  25  42  61  88 128 176 222 266 319 393
#     4  12  24  41  58  86 130 172 220 263 310 390
#     4  10  22  41  68  98 131 166 216 275 338 390
#     4  12  24  39  56  86 128 172 212 258 314 381
#     4  12  24  39  63  90 127 165 215 267 327 389
#     4  12  24  37  65  91 128 166 212 265 335 384
#     4  12  23  38  59  92 122 167 211 266 317 375
#     4  10  21  41  66 100 133 165 210 279 339 390
#
# _framework density 19.412571
#
# number of rings (size 3 to 8) (size 9 to 14) (size 15 to 20)
#    0.000    0.500    5.000    4.875    0.000    0.000 
#    0.000    0.000    0.000    3.750    0.000    0.000 
#    0.000    0.000    0.000    0.000    0.000    0.000 
#
# Total GULP energy -178628.235188 kJ/mol
# GULP energy per Si atom -5582.132350 kJ/mol
# Density = 1.936839 g / cm^3
# Si number density = 19.412571 Si / 1000 Ang^3
#
#
#
# Elastic Constant Matrix: (Units=GPa)
#
#
# Indices 1 2 3 4 5 6 
#
# 1 95.0867 16.6698 23.9367 0.0000 0.5151 0.0000
# 2 16.6698 94.3314 12.5869 0.0000 18.2231 0.0000
# 3 23.9367 12.5869 70.1980 0.0000 7.3476 0.0000
# 4 0.0000 0.0000 0.0000 41.3951 0.0000 13.0510
# 5 0.5151 18.2231 7.3476 0.0000 41.2804 0.0000
# 6 0.0000 0.0000 0.0000 13.0510 0.0000 27.4471
#
#
#
# Elastic Compliance Matrix: (Units=1/GPa)
#
#
# Indices 1 2 3 4 5 6 
#
# 1 0.011796 -0.001833 -0.003834 0.000000 0.001344 0.000000
# 2 -0.001833 0.012047 -0.001000 0.000000 -0.005117 0.000000
# 3 -0.003834 -0.001000 0.015979 0.000000 -0.002355 0.000000
# 4 0.000000 0.000000 0.000000 0.028418 0.000000 -0.013512
# 5 0.001344 -0.005117 -0.002355 0.000000 0.026886 0.000000
# 6 0.000000 0.000000 0.000000 -0.013512 0.000000 0.042859
#
#
# Mechanical properties :
#
#
# Convention : Reuss Voigt Hill
#
# Bulk Modulus (GPa) = 37.75260 40.66698 39.20979
# Shear Modulus (GPa) = 31.22149 35.78604 33.50376
#
# Velocity S-wave (km/s) = 4.01473 4.29820 4.15888
# Velocity P-wave (km/s) = 6.40160 6.75477 6.58055
#
# Compressibility (1/GPa) = 0.02648824
#
# Stress axis : x y z
#
# Youngs Moduli (GPa) = 84.77475 83.01045 62.58360
#
# Poissons Ratio (x) = 0.15212 0.23997
# Poissons Ratio (y) = 0.15536 0.06255
# Poissons Ratio (z) = 0.32506 0.08297
#
# Static dielectric constant tensor:
#      x y z
#    x 1.739940 0.000000 -0.046820 
#    y 0.000000 1.658500 0.000000 
#    z -0.046820 0.000000 1.718840 
# 
# From -- ./inp_files/115010.got.cif
#   From: 2010.05.17/outbox.cif.g08.bks.cpg/sg15_58_cif.got.tgz:115010.got - 2010.06.03 18:47:42.
