data_PCOD9284542
_publ_section_title
;
Structure prediction by ZEFSAII (Michael W. Deem and Ramdas Pophale) SiO2 
 PCOD9284542
Probable space group: C 2/C
;
_chemical_formula_sum "Si O2"
_cell_formula_units_Z 64
_cell_length_a 12.474861
_cell_length_b 26.440605
_cell_length_c 15.166663
_cell_angle_alpha 90.000000
_cell_angle_beta 39.069153
_cell_angle_gamma 90.000000
_cell_volume 3152.938090
_symmetry_space_group_name_H-M "C 2/C"
_symmetry_group_IT_number 15
_symmetry_cell_setting 'monoclinic'
loop_
_space_group_symop_operation_xyz
x,y,z
-x,y,1/2-z
-x,-y,-z
x,-y,1/2+z
1/2+x,1/2+y,z
1/2-x,1/2+y,1/2-z
1/2-x,1/2-y,-z
1/2+x,1/2-y,1/2+z
loop_
_atom_site_type_symbol
_atom_site_label
_atom_site_fract_x
_atom_site_fract_y
_atom_site_fract_z
Si Si1 0.901728 0.947004 0.558810
Si Si2 0.674828 0.715520 0.186217
Si Si3 0.533383 0.934038 0.484993
Si Si4 0.714712 0.167213 0.923029
Si Si5 0.968666 0.759876 0.540364
Si Si6 0.938486 0.496326 0.195521
Si Si7 0.147809 0.904804 0.720755
Si Si8 0.469362 0.649471 0.909507
O O1 0.918778 0.916249 0.638944
O O2 0.957993 0.908846 0.446546
O O3 0.705746 0.964342 0.681575
O O4 0.000000 0.000000 0.500000
O O5 0.500000 0.730888 0.250000
O O6 0.657242 0.733577 0.297766
O O7 0.678650 0.654577 0.183250
O O8 0.849681 0.739525 0.041135
O O9 0.593805 0.879385 0.476069
O O10 0.619045 0.954169 0.339692
O O11 0.330848 0.931342 0.595146
O O12 0.559788 0.970878 0.552544
O O13 0.611994 0.218578 0.973412
O O14 0.797080 0.162446 0.966545
O O15 0.872549 0.161341 0.754885
O O16 0.987166 0.813305 0.480671
O O17 0.000000 0.474320 0.250000
O O18 0.000000 0.923108 0.750000
#
# Coordination Sequence:
#
# PCOD9284542 Si02
#       8
#     8   8   8   8   8   8   8   8
#     4  11  23  41  62  90 124 163 210 267 311 380
#     4  11  23  42  67  96 130 172 213 260 319 384
#     4  10  21  41  61  89 129 163 212 267 309 386
#     4  11  23  41  63  94 126 169 208 264 326 378
#     4  12  22  43  66  96 133 167 216 265 321 389
#     4  10  22  39  63  91 122 166 209 258 319 375
#     4  10  22  40  63  88 124 168 208 258 319 376
#     4  11  24  41  64  93 128 166 213 266 321 389
#
# _framework density 20.298527
#
# number of rings (size 3 to 8) (size 9 to 14) (size 15 to 20)
#    0.000    1.250    3.750    2.250    1.750    0.000 
#    4.500    1.875    0.000    0.000    0.000    0.000 
#    0.000    0.000    0.000    0.000    0.000    0.000 
#
# Total GULP energy -178561.255750 kJ/mol
# GULP energy per Si atom -5580.039242 kJ/mol
# Density = 2.025233 g / cm^3
# Si number density = 20.298527 Si / 1000 Ang^3
#
#
#
# Elastic Constant Matrix: (Units=GPa)
#
#
# Indices 1 2 3 4 5 6 
#
# 1 74.0701 12.0653 8.9714 0.0001 -5.4715 -0.0001
# 2 12.0653 93.7974 9.2628 0.0000 -5.9583 0.0000
# 3 8.9714 9.2628 52.3324 0.0002 -3.5478 -0.0001
# 4 0.0001 0.0000 0.0002 24.0348 -0.0001 2.0595
# 5 -5.4715 -5.9583 -3.5478 -0.0001 28.4516 0.0001
# 6 -0.0001 0.0000 -0.0001 2.0595 0.0001 25.3191
#
#
#
# Elastic Compliance Matrix: (Units=1/GPa)
#
#
# Indices 1 2 3 4 5 6 
#
# 1 0.014146 -0.001483 -0.002016 0.000000 0.002158 0.000000
# 2 -0.001483 0.011126 -0.001590 0.000000 0.001847 0.000000
# 3 -0.002016 -0.001590 0.019855 0.000000 0.001755 0.000000
# 4 0.000000 0.000000 0.000000 0.041898 0.000000 -0.003408
# 5 0.002158 0.001847 0.001755 0.000000 0.036168 0.000000
# 6 0.000000 0.000000 0.000000 -0.003408 0.000000 0.039773
#
#
# Mechanical properties :
#
#
# Convention : Reuss Voigt Hill
#
# Bulk Modulus (GPa) = 28.61387 31.19989 29.90688
# Shear Modulus (GPa) = 27.05704 28.22113 27.63908
#
# Velocity S-wave (km/s) = 3.65493 3.73272 3.69403
# Velocity P-wave (km/s) = 5.65141 5.82937 5.74108
#
# Compressibility (1/GPa) = 0.03494808
#
# Stress axis : x y z
#
# Youngs Moduli (GPa) = 70.69141 89.87635 50.36607
#
# Poissons Ratio (x) = 0.13332 0.10155
# Poissons Ratio (y) = 0.10486 0.08008
# Poissons Ratio (z) = 0.14253 0.14289
#
# Static dielectric constant tensor:
#      x y z
#    x 1.744260 0.000000 -0.013020 
#    y 0.000000 1.713400 0.000000 
#    z -0.013020 0.000000 1.733080 
# 
# From -- ./inp_files/148738.got.cif
#   From: 2010.05.17/outbox.cif.g08.bks.cpg/sg15_75_cif.got.tgz:148738.got - 2010.06.03 18:47:42.
