data_PCOD9284547
_publ_section_title
;
Structure prediction by ZEFSAII (Michael W. Deem and Ramdas Pophale) SiO2 
 PCOD9284547
Probable space group: C 2/C
;
_chemical_formula_sum "Si O2"
_cell_formula_units_Z 40
_cell_length_a 15.641397
_cell_length_b 12.537064
_cell_length_c 10.566974
_cell_angle_alpha 90.000000
_cell_angle_beta 130.429242
_cell_angle_gamma 90.000000
_cell_volume 1577.338989
_symmetry_space_group_name_H-M "C 2/C"
_symmetry_group_IT_number 15
_symmetry_cell_setting 'monoclinic'
loop_
_space_group_symop_operation_xyz
x,y,z
-x,y,1/2-z
-x,-y,-z
x,-y,1/2+z
1/2+x,1/2+y,z
1/2-x,1/2+y,1/2-z
1/2-x,1/2-y,-z
1/2+x,1/2-y,1/2+z
loop_
_atom_site_type_symbol
_atom_site_label
_atom_site_fract_x
_atom_site_fract_y
_atom_site_fract_z
Si Si1 0.539693 0.641429 0.653613
Si Si2 0.305714 0.888782 0.003237
Si Si3 0.692440 0.663287 0.128735
Si Si4 0.096030 0.172247 0.427743
Si Si5 0.706410 0.114529 0.533193
O O1 0.500000 0.693037 0.750000
O O2 0.418394 0.590378 0.500141
O O3 0.564512 0.693904 0.541931
O O4 0.662222 0.592980 0.801882
O O5 0.241500 0.856834 0.812439
O O6 0.210880 0.893081 0.020971
O O7 0.357955 0.003358 0.026510
O O8 0.380973 0.788560 0.109041
O O9 0.662940 0.788737 0.077565
O O10 0.783025 0.647761 0.103923
O O11 0.000000 0.119163 0.250000
#
# Coordination Sequence:
#
# PCOD9284547 Si02
#       5
#     8   8   8   8   8
#     4  10  21  41  64  88 126 166 205 259 315 368
#     4  11  24  39  68  92 126 170 208 262 318 372
#     4  10  21  41  61  90 129 164 209 265 309 373
#     4  11  23  42  63  94 134 163 207 266 316 370
#     4  10  23  40  63  93 126 166 217 253 314 381
#
# _framework density 25.359165999999998
#
# number of rings (size 3 to 8) (size 9 to 14) (size 15 to 20)
#    0.000    1.600    4.000    0.000    2.800    3.200 
#    0.000    6.000    0.000    0.000    0.000    0.000 
#    0.000    0.000    0.000    0.000    0.000    0.000 
#
# Total GULP energy -111531.678489 kJ/mol
# GULP energy per Si atom -5576.583924 kJ/mol
# Density = 2.530145 g / cm^3
# Si number density = 25.359166 Si / 1000 Ang^3
#
#
#
# Elastic Constant Matrix: (Units=GPa)
#
#
# Indices 1 2 3 4 5 6 
#
# 1 97.6233 -3.9894 28.9933 0.0000 -30.3293 0.0000
# 2 -3.9894 85.9746 -16.9734 0.0000 -23.3373 0.0000
# 3 28.9933 -16.9734 89.2931 0.0000 -12.5481 0.0000
# 4 0.0000 0.0000 0.0000 21.9289 0.0000 -0.4850
# 5 -30.3293 -23.3373 -12.5481 0.0000 43.4384 0.0000
# 6 0.0000 0.0000 0.0000 -0.4850 0.0000 22.0444
#
#
#
# Elastic Compliance Matrix: (Units=1/GPa)
#
#
# Indices 1 2 3 4 5 6 
#
# 1 0.014610 0.003208 -0.002562 0.000000 0.011184 0.000000
# 2 0.003208 0.015658 0.003577 0.000000 0.011686 0.000000
# 3 -0.002562 0.003577 0.013268 0.000000 0.003965 0.000000
# 4 0.000000 0.000000 0.000000 0.045624 0.000000 0.001004
# 5 0.011184 0.011686 0.003965 0.000000 0.038254 0.000000
# 6 0.000000 0.000000 0.000000 0.001004 0.000000 0.045385
#
#
# Mechanical properties :
#
#
# Convention : Reuss Voigt Hill
#
# Bulk Modulus (GPa) = 19.23743 32.10580 25.67161
# Shear Modulus (GPa) = 27.52057 35.13970 31.33014
#
# Velocity S-wave (km/s) = 3.29786 3.72651 3.51872
# Velocity P-wave (km/s) = 4.70145 5.58603 5.16272
#
# Compressibility (1/GPa) = 0.05198200
#
# Stress axis : x y z
#
# Youngs Moduli (GPa) = 68.44475 63.86363 75.36780
#
# Poissons Ratio (x) = -0.20487 0.19313
# Poissons Ratio (y) = -0.21957 -0.26959
# Poissons Ratio (z) = 0.17539 -0.22844
#
# Static dielectric constant tensor:
#      x y z
#    x 2.024030 0.000000 0.039890 
#    y 0.000000 2.084090 0.000000 
#    z 0.039890 0.000000 1.983010 
# 
# From -- ./inp_files/103954.got.cif
#   From: 2010.05.17/outbox.cif.g08.bks.cpg/sg15_52_cif.got.tgz:103954.got - 2010.06.03 18:47:42.
