data_PCOD9284788
_publ_section_title
;
Structure prediction by ZEFSAII (Michael W. Deem and Ramdas Pophale) SiO2 
 PCOD9284788
Probable space group: C 2/C
;
_chemical_formula_sum "Si O2"
_cell_formula_units_Z 32
_cell_length_a 13.109769
_cell_length_b 20.116390
_cell_length_c 13.412795
_cell_angle_alpha 90.000000
_cell_angle_beta 158.258383
_cell_angle_gamma 90.000000
_cell_volume 1310.269417
_symmetry_space_group_name_H-M "C 2/C"
_symmetry_group_IT_number 15
_symmetry_cell_setting 'monoclinic'
loop_
_space_group_symop_operation_xyz
x,y,z
-x,y,1/2-z
-x,-y,-z
x,-y,1/2+z
1/2+x,1/2+y,z
1/2-x,1/2+y,1/2-z
1/2-x,1/2-y,-z
1/2+x,1/2-y,1/2+z
loop_
_atom_site_type_symbol
_atom_site_label
_atom_site_fract_x
_atom_site_fract_y
_atom_site_fract_z
Si Si1 0.299829 0.625399 0.483698
Si Si2 0.639350 0.207257 0.776831
Si Si3 0.377320 0.491951 0.278558
Si Si4 0.095629 0.609807 0.090722
O O1 0.377550 0.546491 0.553898
O O2 0.000000 0.639490 0.250000
O O3 0.282967 0.640252 0.349638
O O4 0.500000 0.656048 0.750000
O O5 0.500000 0.177780 0.750000
O O6 0.450700 0.272534 0.583548
O O7 0.586851 0.161851 0.634360
O O8 0.500000 0.500000 0.500000
O O9 0.261983 0.565890 0.159840
O O10 0.120392 0.440827 0.051406
#
# Coordination Sequence:
#
# PCOD9284788 Si02
#       4
#     8   8   8   8
#     4  11  21  37  59  92 130 167 202 249 314 389
#     4  10  24  45  67  93 123 165 219 264 315 373
#     4   9  20  37  60  93 131 163 211 254 317 391
#     4  10  21  41  64  92 132 165 212 266 319 378
#
# _framework density 24.422459
#
# number of rings (size 3 to 8) (size 9 to 14) (size 15 to 20)
#    0.000    2.000    2.500    0.000    7.000    0.000 
#   13.500    0.000    0.000    4.500    0.000    0.000 
#    0.000    0.000    0.000    0.000    0.000    0.000 
#
# Total GULP energy -89176.867067 kJ/mol
# GULP energy per Si atom -5573.554192 kJ/mol
# Density = 2.436687 g / cm^3
# Si number density = 24.422459 Si / 1000 Ang^3
#
#
#
# Elastic Constant Matrix: (Units=GPa)
#
#
# Indices 1 2 3 4 5 6 
#
# 1 63.6349 17.8999 36.4915 -0.0018 -24.8518 -0.0015
# 2 17.8999 19.2086 6.2675 -0.0012 -9.1746 -0.0012
# 3 36.4915 6.2675 157.1546 -0.0026 -22.6170 -0.0027
# 4 -0.0018 -0.0012 -0.0026 30.1842 -0.0020 -12.1112
# 5 -24.8518 -9.1746 -22.6170 -0.0020 58.3803 -0.0016
# 6 -0.0015 -0.0012 -0.0027 -12.1112 -0.0016 21.4136
#
#
#
# Elastic Compliance Matrix: (Units=1/GPa)
#
#
# Indices 1 2 3 4 5 6 
#
# 1 0.026384 -0.020109 -0.004409 0.000001 0.006363 0.000001
# 2 -0.020109 0.071768 0.002328 0.000004 0.003620 0.000005
# 3 -0.004409 0.002328 0.007494 0.000001 0.001393 0.000002
# 4 0.000001 0.000004 0.000001 0.042855 0.000004 0.024238
# 5 0.006363 0.003620 0.001393 0.000004 0.020946 0.000005
# 6 0.000001 0.000005 0.000002 0.024238 0.000005 0.060408
#
#
# Mechanical properties :
#
#
# Convention : Reuss Voigt Hill
#
# Bulk Modulus (GPa) = 16.32171 40.14621 28.23396
# Shear Modulus (GPa) = 16.96877 33.95156 25.46017
#
# Velocity S-wave (km/s) = 2.63877 3.73255 3.23226
# Velocity P-wave (km/s) = 3.99771 5.92029 5.05132
#
# Compressibility (1/GPa) = 0.06126811
#
# Stress axis : x y z
#
# Youngs Moduli (GPa) = 37.90109 13.93373 133.43240
#
# Poissons Ratio (x) = 0.28019 0.58827
# Poissons Ratio (y) = 0.76215 -0.31065
# Poissons Ratio (z) = 0.16710 -0.03244
#
# Static dielectric constant tensor:
#      x y z
#    x 2.114230 0.000000 0.038220 
#    y 0.000000 2.017230 0.000000 
#    z 0.038220 0.000000 1.977660 
# 
# From -- ./inp_files/4058.got.cif
#   From: 2010.05.17/outbox.cif.g08.bks.cpg/sg15_3_cif.got.tgz:4058.got - 2010.06.03 18:47:42.
