data_PCOD9284120
_publ_section_title
;
Structure prediction by ZEFSAII (Michael W. Deem and Ramdas Pophale) SiO2 
 PCOD9284120
Probable space group: C 2/C
;
_chemical_formula_sum "Si O2"
_cell_formula_units_Z 36
_cell_length_a 16.501232
_cell_length_b 8.108995
_cell_length_c 11.143027
_cell_angle_alpha 90.000000
_cell_angle_beta 86.163732
_cell_angle_gamma 90.000000
_cell_volume 1487.689774
_symmetry_space_group_name_H-M "C 2/C"
_symmetry_group_IT_number 15
_symmetry_cell_setting 'monoclinic'
loop_
_space_group_symop_operation_xyz
x,y,z
-x,y,1/2-z
-x,-y,-z
x,-y,1/2+z
1/2+x,1/2+y,z
1/2-x,1/2+y,1/2-z
1/2-x,1/2-y,-z
1/2+x,1/2-y,1/2+z
loop_
_atom_site_type_symbol
_atom_site_label
_atom_site_fract_x
_atom_site_fract_y
_atom_site_fract_z
Si Si1 0.500000 0.606203 0.750000
Si Si2 0.868616 0.923467 0.905528
Si Si3 0.701292 0.017198 0.798414
Si Si4 0.202315 0.144021 0.406292
Si Si5 0.055177 0.350528 0.946035
O O1 0.423275 0.493862 0.792523
O O2 0.508956 0.721472 0.865690
O O3 0.775674 0.949227 0.873372
O O4 0.901818 0.750469 0.950581
O O5 0.869219 0.044800 0.022785
O O6 0.734349 0.977947 0.663412
O O7 0.623377 0.920565 0.849891
O O8 0.681502 0.209709 0.816194
O O9 0.250000 0.250000 0.500000
O O10 0.000000 0.500000 0.000000
#
# Coordination Sequence:
#
# PCOD9284120 Si02
#       5
#     4   8   8   8   8
#     4  12  26  46  68  98 138 184 226 280 352 412
#     4  11  24  46  70  97 135 183 230 283 342 412
#     4  11  23  42  71  99 132 181 231 281 341 406
#     4  10  21  40  67 100 133 172 227 284 333 401
#     4  12  27  45  68 104 141 178 229 290 348 411
#
# _framework density 24.198595000000001
#
# number of rings (size 3 to 8) (size 9 to 14) (size 15 to 20)
#    0.000    0.889    0.000    8.000    0.000    8.000 
#    0.000    0.000    0.000    0.000    0.000    0.000 
#    0.000    0.000    0.000    0.000    0.000    0.000 
#
# Total GULP energy -100735.526917 kJ/mol
# GULP energy per Si atom -5596.418162 kJ/mol
# Density = 2.414352 g / cm^3
# Si number density = 24.198595 Si / 1000 Ang^3
#
#
#
# Elastic Constant Matrix: (Units=GPa)
#
#
# Indices 1 2 3 4 5 6 
#
# 1 77.6764 31.1329 21.2189 0.0000 -22.9493 0.0000
# 2 31.1329 124.7588 35.4195 0.0000 -8.8816 0.0000
# 3 21.2189 35.4195 127.0439 0.0000 -23.6399 0.0000
# 4 0.0000 0.0000 0.0000 51.9556 0.0000 -3.6214
# 5 -22.9493 -8.8816 -23.6399 0.0000 45.2423 0.0000
# 6 0.0000 0.0000 0.0000 -3.6214 0.0000 43.5665
#
#
#
# Elastic Compliance Matrix: (Units=1/GPa)
#
#
# Indices 1 2 3 4 5 6 
#
# 1 0.016609 -0.003495 -0.000398 0.000000 0.007530 0.000000
# 2 -0.003495 0.009450 -0.002255 0.000000 -0.001096 0.000000
# 3 -0.000398 -0.002255 0.009356 0.000000 0.004244 0.000000
# 4 0.000000 0.000000 0.000000 0.019359 0.000000 0.001609
# 5 0.007530 -0.001096 0.004244 0.000000 0.027925 0.000000
# 6 0.000000 0.000000 0.000000 0.001609 0.000000 0.023087
#
#
# Mechanical properties :
#
#
# Convention : Reuss Voigt Hill
#
# Bulk Modulus (GPa) = 43.25676 56.11350 49.68513
# Shear Modulus (GPa) = 39.74905 44.26674 42.00790
#
# Velocity S-wave (km/s) = 4.05732 4.28168 4.17101
# Velocity P-wave (km/s) = 6.31377 6.90528 6.61614
#
# Compressibility (1/GPa) = 0.02311777
#
# Stress axis : x y z
#
# Youngs Moduli (GPa) = 60.21007 105.82201 106.88155
#
# Poissons Ratio (x) = 0.36989 0.04256
# Poissons Ratio (y) = 0.21046 0.24099
# Poissons Ratio (z) = 0.02398 0.23860
#
# Static dielectric constant tensor:
#      x y z
#    x 1.936840 0.000000 0.101640 
#    y 0.000000 1.967880 0.000000 
#    z 0.101640 0.000000 2.029450 
# 
# From -- ./inp_files/102612.got.cif
#   From: 2010.05.17/outbox.cif.g08.bks.cpg/sg15_52_cif.got.tgz:102612.got - 2010.06.03 18:47:42.
