data_PCOD9284659
_publ_section_title
;
Structure prediction by ZEFSAII (Michael W. Deem and Ramdas Pophale) SiO2 
 PCOD9284659
Probable space group: C 2/C
;
_chemical_formula_sum "Si O2"
_cell_formula_units_Z 48
_cell_length_a 14.875046
_cell_length_b 14.373995
_cell_length_c 15.706268
_cell_angle_alpha 90.000000
_cell_angle_beta 140.687812
_cell_angle_gamma 90.000000
_cell_volume 2127.583436
_symmetry_space_group_name_H-M "C 2/C"
_symmetry_group_IT_number 15
_symmetry_cell_setting 'monoclinic'
loop_
_space_group_symop_operation_xyz
x,y,z
-x,y,1/2-z
-x,-y,-z
x,-y,1/2+z
1/2+x,1/2+y,z
1/2-x,1/2+y,1/2-z
1/2-x,1/2-y,-z
1/2+x,1/2-y,1/2+z
loop_
_atom_site_type_symbol
_atom_site_label
_atom_site_fract_x
_atom_site_fract_y
_atom_site_fract_z
Si Si1 0.851054 0.039441 0.444054
Si Si2 0.647013 0.100738 0.426980
Si Si3 0.411027 0.986559 0.347527
Si Si4 0.643848 0.290712 0.314528
Si Si5 0.505460 0.346683 0.949318
Si Si6 0.223967 0.284529 0.271964
O O1 0.751169 0.035145 0.451956
O O2 0.929446 0.137535 0.486493
O O3 0.746561 0.027822 0.285548
O O4 0.956736 0.954173 0.537759
O O5 0.643125 0.192594 0.364301
O O6 0.727159 0.141326 0.567211
O O7 0.508678 0.044085 0.352455
O O8 0.373114 0.877920 0.304788
O O9 0.500000 0.000000 0.500000
O O10 0.500000 0.334716 0.250000
O O11 0.677834 0.271827 0.240764
O O12 0.655619 0.294996 0.067897
O O13 0.390549 0.297297 0.807010
#
# Coordination Sequence:
#
# PCOD9284659 Si02
#       6
#     8   8   8   8   8   8
#     4  10  21  41  63  88 124 169 210 253 317 380
#     4  11  22  38  60  91 123 166 207 259 314 382
#     4  11  23  38  59  93 128 165 203 258 318 383
#     4  11  22  33  59  92 127 154 206 264 315 365
#     4  10  23  39  65  88 127 168 209 260 318 378
#     4  11  23  40  60  94 126 165 206 259 319 377
#
# _framework density 22.560807
#
# number of rings (size 3 to 8) (size 9 to 14) (size 15 to 20)
#    0.000    1.333    3.333    2.500    4.667    0.000 
#    0.000    0.833    0.000    0.000    0.000    0.000 
#    0.000    0.000    0.000    0.000    0.000    0.000 
#
# Total GULP energy -133636.295304 kJ/mol
# GULP energy per Si atom -5568.178971 kJ/mol
# Density = 2.250946 g / cm^3
# Si number density = 22.560807 Si / 1000 Ang^3
#
#
#
# Elastic Constant Matrix: (Units=GPa)
#
#
# Indices 1 2 3 4 5 6 
#
# 1 47.3297 17.9648 28.6558 0.0000 27.2095 0.0000
# 2 17.9648 85.9989 47.7251 0.0000 28.7053 0.0000
# 3 28.6558 47.7251 85.0639 0.0000 34.7936 0.0000
# 4 0.0000 0.0000 0.0000 43.3278 0.0000 21.5218
# 5 27.2095 28.7053 34.7936 0.0000 40.6219 0.0000
# 6 0.0000 0.0000 0.0000 21.5218 0.0000 31.6318
#
#
#
# Elastic Compliance Matrix: (Units=1/GPa)
#
#
# Indices 1 2 3 4 5 6 
#
# 1 0.035252 0.002204 -0.004336 0.000000 -0.021456 0.000000
# 2 0.002204 0.017987 -0.007744 0.000000 -0.007553 0.000000
# 3 -0.004336 -0.007744 0.021758 0.000000 -0.010259 0.000000
# 4 0.000000 0.000000 0.000000 0.034862 0.000000 -0.023719
# 5 -0.021456 -0.007553 -0.010259 0.000000 0.053114 0.000000
# 6 0.000000 0.000000 0.000000 -0.023719 0.000000 0.047752
#
#
# Mechanical properties :
#
#
# Convention : Reuss Voigt Hill
#
# Bulk Modulus (GPa) = 18.10146 45.23154 31.66650
# Shear Modulus (GPa) = 20.08909 31.38608 25.73758
#
# Velocity S-wave (km/s) = 2.98726 3.73390 3.38125
# Velocity P-wave (km/s) = 4.46533 6.21945 5.41390
#
# Compressibility (1/GPa) = 0.05524416
#
# Stress axis : x y z
#
# Youngs Moduli (GPa) = 28.36715 55.59717 45.96047
#
# Poissons Ratio (x) = -0.12254 0.19928
# Poissons Ratio (y) = -0.06252 0.35593
# Poissons Ratio (z) = 0.12299 0.43056
#
# Static dielectric constant tensor:
#      x y z
#    x 1.978790 0.000000 0.012370 
#    y 0.000000 1.871480 0.000000 
#    z 0.012370 0.000000 2.002320 
# 
# From -- ./inp_files/205535.got.cif
#   From: 2010.05.17/outbox.cif.g08.bks.cpg/sg15_103_cif.got.tgz:205535.got - 2010.06.03 18:47:42.
