data_PCOD9284018
_publ_section_title
;
Structure prediction by ZEFSAII (Michael W. Deem and Ramdas Pophale) SiO2 
 PCOD9284018
Probable space group: C 2/C
;
_chemical_formula_sum "Si O2"
_cell_formula_units_Z 36
_cell_length_a 6.092505
_cell_length_b 24.900018
_cell_length_c 10.517297
_cell_angle_alpha 90.000000
_cell_angle_beta 90.792596
_cell_angle_gamma 90.000000
_cell_volume 1595.357940
_symmetry_space_group_name_H-M "C 2/C"
_symmetry_group_IT_number 15
_symmetry_cell_setting 'monoclinic'
loop_
_space_group_symop_operation_xyz
x,y,z
-x,y,1/2-z
-x,-y,-z
x,-y,1/2+z
1/2+x,1/2+y,z
1/2-x,1/2+y,1/2-z
1/2-x,1/2-y,-z
1/2+x,1/2-y,1/2+z
loop_
_atom_site_type_symbol
_atom_site_label
_atom_site_fract_x
_atom_site_fract_y
_atom_site_fract_z
Si Si1 0.638757 0.707229 0.632365
Si Si2 0.168586 0.178438 0.367019
Si Si3 0.861487 0.937148 0.618437
Si Si4 0.833765 0.944649 0.128478
Si Si5 0.000000 0.636843 0.750000
O O1 0.500000 0.689095 0.750000
O O2 0.669795 0.771104 0.637691
O O3 0.541361 0.689764 0.497839
O O4 0.866420 0.676161 0.655346
O O5 0.269008 0.118881 0.377097
O O6 0.000000 0.180970 0.250000
O O7 0.000000 0.937959 0.750000
O O8 0.024609 0.934126 0.497930
O O9 0.741540 0.994466 0.611928
O O10 0.650649 0.901799 0.164849
O O11 0.000000 0.944892 0.250000
#
# Coordination Sequence:
#
# PCOD9284018 Si02
#       5
#     8   8   8   8   4
#     4  11  24  42  64  91 127 169 210 260 312 375
#     4  10  21  43  63  90 126 162 213 256 315 372
#     4   9  19  40  63  89 126 167 202 261 319 363
#     4  10  21  40  66  89 127 167 211 257 308 375
#     4  12  22  40  66 100 122 170 218 254 306 392
#
# _framework density 22.565470999999999
#
# number of rings (size 3 to 8) (size 9 to 14) (size 15 to 20)
#    0.000    1.778    1.111    3.333    0.000    0.889 
#   18.000   15.556    0.000    0.000    0.000    0.000 
#    0.000    0.000    0.000    0.000    0.000    0.000 
#
# Total GULP energy -100514.101244 kJ/mol
# GULP energy per Si atom -5584.116736 kJ/mol
# Density = 2.251411 g / cm^3
# Si number density = 22.565471 Si / 1000 Ang^3
#
#
#
# Elastic Constant Matrix: (Units=GPa)
#
#
# Indices 1 2 3 4 5 6 
#
# 1 24.8437 33.6696 25.9796 0.0000 -0.4562 0.0000
# 2 33.6696 216.0948 15.7022 0.0000 0.8461 0.0000
# 3 25.9796 15.7022 184.8671 0.0000 10.0873 0.0000
# 4 0.0000 0.0000 0.0000 23.6460 0.0000 8.4429
# 5 -0.4562 0.8461 10.0873 0.0000 23.6919 0.0000
# 6 0.0000 0.0000 0.0000 8.4429 0.0000 79.7251
#
#
#
# Elastic Compliance Matrix: (Units=1/GPa)
#
#
# Indices 1 2 3 4 5 6 
#
# 1 0.060857 -0.008915 -0.008064 0.000000 0.004924 0.000000
# 2 -0.008915 0.005962 0.000786 0.000000 -0.000719 0.000000
# 3 -0.008064 0.000786 0.006640 0.000000 -0.003010 0.000000
# 4 0.000000 0.000000 0.000000 0.043952 0.000000 -0.004655
# 5 0.004924 -0.000719 -0.003010 0.000000 0.043611 0.000000
# 6 0.000000 0.000000 0.000000 -0.004655 0.000000 0.013036
#
#
# Mechanical properties :
#
#
# Convention : Reuss Voigt Hill
#
# Bulk Modulus (GPa) = 24.34705 64.05649 44.20177
# Shear Modulus (GPa) = 22.71312 48.77619 35.74466
#
# Velocity S-wave (km/s) = 3.17605 4.65428 3.98432
# Velocity P-wave (km/s) = 4.92571 7.57177 6.38727
#
# Compressibility (1/GPa) = 0.04107274
#
# Stress axis : x y z
#
# Youngs Moduli (GPa) = 16.43187 167.71664 150.60167
#
# Poissons Ratio (x) = 1.49527 1.21442
# Poissons Ratio (y) = 0.14650 -0.11833
# Poissons Ratio (z) = 0.13250 -0.13178
#
# Static dielectric constant tensor:
#      x y z
#    x 1.815150 0.000000 -0.019760 
#    y 0.000000 1.890440 0.000000 
#    z -0.019760 0.000000 1.836380 
# 
# From -- ./inp_files/72897.got.cif
#   From: 2010.05.17/outbox.cif.g08.bks.cpg/sg15_37_cif.got.tgz:72897.got - 2010.06.03 18:47:42.
