data_PCOD9284993
_publ_section_title
;
Structure prediction by ZEFSAII (Michael W. Deem and Ramdas Pophale) SiO2 
 PCOD9284993
Probable space group: C 2/C
;
_chemical_formula_sum "Si O2"
_cell_formula_units_Z 52
_cell_length_a 16.253485
_cell_length_b 9.164476
_cell_length_c 15.537297
_cell_angle_alpha 90.000000
_cell_angle_beta 103.225253
_cell_angle_gamma 90.000000
_cell_volume 2252.972104
_symmetry_space_group_name_H-M "C 2/C"
_symmetry_group_IT_number 15
_symmetry_cell_setting 'monoclinic'
loop_
_space_group_symop_operation_xyz
x,y,z
-x,y,1/2-z
-x,-y,-z
x,-y,1/2+z
1/2+x,1/2+y,z
1/2-x,1/2+y,1/2-z
1/2-x,1/2-y,-z
1/2+x,1/2-y,1/2+z
loop_
_atom_site_type_symbol
_atom_site_label
_atom_site_fract_x
_atom_site_fract_y
_atom_site_fract_z
Si Si1 0.345432 0.584517 0.569247
Si Si2 0.500000 0.132416 0.750000
Si Si3 0.684441 0.977056 0.929575
Si Si4 0.556498 0.828920 0.998923
Si Si5 0.792576 0.739851 0.213026
Si Si6 0.093999 0.756996 0.929400
Si Si7 0.353398 0.021647 0.818555
O O1 0.246282 0.577475 0.520673
O O2 0.394073 0.680357 0.510122
O O3 0.352633 0.658704 0.665697
O O4 0.378048 0.422196 0.568141
O O5 0.529271 0.231765 0.835618
O O6 0.421256 0.036039 0.758969
O O7 0.672942 0.149378 0.931771
O O8 0.723948 0.896117 0.856755
O O9 0.588002 0.922277 0.924353
O O10 0.460996 0.787444 0.999742
O O11 0.595361 0.924756 0.085571
O O12 0.716942 0.852186 0.213131
O O13 0.820563 0.645528 0.303343
#
# Coordination Sequence:
#
# PCOD9284993 Si02
#       7
#     8   4   8   8   8   8   8
#     4  11  22  42  66  99 126 163 216 272 312 375
#     4  10  24  40  62  90 132 170 210 260 316 382
#     4  11  20  42  68  96 125 169 212 265 315 379
#     4  10  21  41  66  92 129 169 208 263 320 373
#     4  11  23  40  68  91 129 169 215 263 319 376
#     4  11  23  39  67  93 134 169 209 257 324 383
#     4  11  22  42  65  89 128 172 211 263 321 378
#
# _framework density 23.080622999999999
#
# number of rings (size 3 to 8) (size 9 to 14) (size 15 to 20)
#    0.000    1.231    4.615    2.308    2.154    0.000 
#    2.769    0.769    0.000    0.000    0.000    0.000 
#    0.000    0.000    0.000    0.000    0.000    0.000 
#
# Total GULP energy -144982.656657 kJ/mol
# GULP energy per Si atom -5576.256025 kJ/mol
# Density = 2.302809 g / cm^3
# Si number density = 23.080623 Si / 1000 Ang^3
#
#
#
# Elastic Constant Matrix: (Units=GPa)
#
#
# Indices 1 2 3 4 5 6 
#
# 1 95.5138 51.2075 15.2973 0.0000 -19.5782 0.0000
# 2 51.2075 196.5293 35.7003 0.0000 1.7128 0.0000
# 3 15.2973 35.7003 54.6704 0.0000 -9.3088 0.0000
# 4 0.0000 0.0000 0.0000 28.8530 0.0000 2.3339
# 5 -19.5782 1.7128 -9.3088 0.0000 24.4842 0.0000
# 6 0.0000 0.0000 0.0000 2.3339 0.0000 22.5044
#
#
#
# Elastic Compliance Matrix: (Units=1/GPa)
#
#
# Indices 1 2 3 4 5 6 
#
# 1 0.015220 -0.004193 0.000643 0.000000 0.012708 0.000000
# 2 -0.004193 0.007018 -0.004345 0.000000 -0.005496 0.000000
# 3 0.000643 -0.004345 0.022548 0.000000 0.009391 0.000000
# 4 0.000000 0.000000 0.000000 0.034952 0.000000 -0.003625
# 5 0.012708 -0.005496 0.009391 0.000000 0.054959 0.000000
# 6 0.000000 0.000000 0.000000 -0.003625 0.000000 0.044812
#
#
# Mechanical properties :
#
#
# Convention : Reuss Voigt Hill
#
# Bulk Modulus (GPa) = 34.48829 61.23596 47.86213
# Shear Modulus (GPa) = 24.39451 31.46887 27.93169
#
# Velocity S-wave (km/s) = 3.25457 3.69647 3.48254
# Velocity P-wave (km/s) = 5.39425 6.69384 6.07887
#
# Compressibility (1/GPa) = 0.02899535
#
# Stress axis : x y z
#
# Youngs Moduli (GPa) = 65.70474 142.48766 44.34967
#
# Poissons Ratio (x) = 0.59749 -0.02854
# Poissons Ratio (y) = 0.27552 0.19272
# Poissons Ratio (z) = -0.04228 0.61917
#
# Static dielectric constant tensor:
#      x y z
#    x 1.904800 0.000000 -0.016980 
#    y 0.000000 1.868240 0.000000 
#    z -0.016980 0.000000 1.998970 
# 
# From -- ./inp_files/209144.got.cif
#   From: 2010.05.17/outbox.cif.g08.bks.cpg/sg15_105_cif.got.tgz:209144.got - 2010.06.03 18:47:42.
