data_PCOD9284968
_publ_section_title
;
Structure prediction by ZEFSAII (Michael W. Deem and Ramdas Pophale) SiO2 
 PCOD9284968
Probable space group: C 2/C
;
_chemical_formula_sum "Si O2"
_cell_formula_units_Z 52
_cell_length_a 23.121353
_cell_length_b 8.934969
_cell_length_c 23.951156
_cell_angle_alpha 90.000000
_cell_angle_beta 34.600645
_cell_angle_gamma 90.000000
_cell_volume 2809.756645
_symmetry_space_group_name_H-M "C 2/C"
_symmetry_group_IT_number 15
_symmetry_cell_setting 'monoclinic'
loop_
_space_group_symop_operation_xyz
x,y,z
-x,y,1/2-z
-x,-y,-z
x,-y,1/2+z
1/2+x,1/2+y,z
1/2-x,1/2+y,1/2-z
1/2-x,1/2-y,-z
1/2+x,1/2-y,1/2+z
loop_
_atom_site_type_symbol
_atom_site_label
_atom_site_fract_x
_atom_site_fract_y
_atom_site_fract_z
Si Si1 0.139105 0.083156 0.424597
Si Si2 0.345188 0.226667 0.100740
Si Si3 0.854976 0.597441 0.214347
Si Si4 0.000000 0.974096 0.250000
Si Si5 0.005073 0.826963 0.359237
Si Si6 0.057740 0.710518 0.888076
Si Si7 0.130940 0.095075 0.235581
O O1 0.259166 0.115535 0.330884
O O2 0.097108 0.174863 0.404406
O O3 0.073345 0.131117 0.530047
O O4 0.135487 0.903725 0.421485
O O5 0.337874 0.191272 0.171752
O O6 0.243512 0.159895 0.153432
O O7 0.447453 0.153340 0.994646
O O8 0.955997 0.659522 0.163451
O O9 0.868408 0.428758 0.181768
O O10 0.910540 0.073776 0.294040
O O11 0.964785 0.872394 0.330133
O O12 0.107281 0.932088 0.281528
O O13 0.056763 0.798712 0.830495
#
# Coordination Sequence:
#
# PCOD9284968 Si02
#       7
#     8   8   8   4   8   8   8
#     4  12  22  38  63  94 130 166 204 254 337 376
#     4  12  22  37  62  95 127 168 202 256 328 376
#     4  12  24  35  61 100 132 156 206 264 319 382
#     4   8  22  46  66  84 120 184 212 252 316 362
#     4  10  23  43  66  83 130 172 209 259 311 388
#     4  12  23  36  59 100 132 159 205 264 324 382
#     4  10  21  41  66  85 123 168 212 258 304 385
#
# _framework density 18.50694
#
# number of rings (size 3 to 8) (size 9 to 14) (size 15 to 20)
#    0.923    0.000    6.154    1.846    2.154    0.000 
#    0.000    4.615    0.000    0.000    0.000    0.000 
#    0.000    0.000    0.000    0.000    0.000    0.000 
#
# Total GULP energy -144888.285168 kJ/mol
# GULP energy per Si atom -5572.626353 kJ/mol
# Density = 1.846482 g / cm^3
# Si number density = 18.506940 Si / 1000 Ang^3
#
#
#
# Elastic Constant Matrix: (Units=GPa)
#
#
# Indices 1 2 3 4 5 6 
#
# 1 112.1630 32.1557 41.2925 0.0001 14.8382 0.0001
# 2 32.1557 50.7955 27.6801 0.0002 8.1822 -0.0001
# 3 41.2925 27.6801 111.7254 -0.0002 -6.0419 0.0000
# 4 0.0001 0.0002 -0.0002 25.6665 -0.0001 -0.6382
# 5 14.8382 8.1822 -6.0419 -0.0001 22.7876 0.0001
# 6 0.0001 -0.0001 0.0000 -0.6382 0.0001 16.2790
#
#
#
# Elastic Compliance Matrix: (Units=1/GPa)
#
#
# Indices 1 2 3 4 5 6 
#
# 1 0.012724 -0.004662 -0.003962 0.000000 -0.007662 0.000000
# 2 -0.004662 0.026855 -0.005365 0.000000 -0.008029 0.000000
# 3 -0.003962 -0.005365 0.012162 0.000000 0.007731 0.000000
# 4 0.000000 0.000000 0.000000 0.038999 0.000000 0.001529
# 5 -0.007662 -0.008029 0.007731 0.000000 0.053805 0.000000
# 6 0.000000 0.000000 0.000000 0.001529 0.000000 0.061489
#
#
# Mechanical properties :
#
#
# Convention : Reuss Voigt Hill
#
# Bulk Modulus (GPa) = 42.08039 52.99342 47.53691
# Shear Modulus (GPa) = 20.66689 24.51700 22.59194
#
# Velocity S-wave (km/s) = 3.34535 3.64365 3.49768
# Velocity P-wave (km/s) = 6.14075 6.81162 6.48486
#
# Compressibility (1/GPa) = 0.02376404
#
# Stress axis : x y z
#
# Youngs Moduli (GPa) = 78.58941 37.23767 82.22303
#
# Poissons Ratio (x) = 0.17359 0.32578
# Poissons Ratio (y) = 0.36636 0.44109
# Poissons Ratio (z) = 0.31139 0.19976
#
# Static dielectric constant tensor:
#      x y z
#    x 1.633210 0.000000 -0.037040 
#    y 0.000000 1.685310 0.000000 
#    z -0.037040 0.000000 1.655940 
# 
# From -- ./inp_files/303032.got.cif
#   From: 2010.05.17/outbox.cif.g08.bks.cpg/sg15_152_cif.got.tgz:303032.got - 2010.06.03 18:47:42.
