data_PCOD9284636
_publ_section_title
;
Structure prediction by ZEFSAII (Michael W. Deem and Ramdas Pophale) SiO2 
 PCOD9284636
Probable space group: C 2/C
;
_chemical_formula_sum "Si O2"
_cell_formula_units_Z 56
_cell_length_a 13.642075
_cell_length_b 10.455740
_cell_length_c 14.430329
_cell_angle_alpha 90.000000
_cell_angle_beta 93.509877
_cell_angle_gamma 90.000000
_cell_volume 2054.452252
_symmetry_space_group_name_H-M "C 2/C"
_symmetry_group_IT_number 15
_symmetry_cell_setting 'monoclinic'
loop_
_space_group_symop_operation_xyz
x,y,z
-x,y,1/2-z
-x,-y,-z
x,-y,1/2+z
1/2+x,1/2+y,z
1/2-x,1/2+y,1/2-z
1/2-x,1/2-y,-z
1/2+x,1/2-y,1/2+z
loop_
_atom_site_type_symbol
_atom_site_label
_atom_site_fract_x
_atom_site_fract_y
_atom_site_fract_z
Si Si1 0.193825 0.114559 0.099770
Si Si2 0.050811 0.597920 0.159913
Si Si3 0.031480 0.745024 0.494990
Si Si4 0.866785 0.794337 0.616013
Si Si5 0.786443 0.778554 0.252954
Si Si6 0.510309 0.468172 0.148452
Si Si7 0.732204 0.969925 0.090081
O O1 0.259749 0.155203 0.188490
O O2 0.122400 0.001240 0.128614
O O3 0.250965 0.090987 0.008895
O O4 0.119053 0.230823 0.071086
O O5 0.966692 0.639871 0.083788
O O6 0.118815 0.724180 0.186498
O O7 0.123013 0.497114 0.118017
O O8 0.000000 0.552017 0.250000
O O9 0.928339 0.722966 0.541393
O O10 0.028388 0.879647 0.437024
O O11 0.808865 0.706881 0.685768
O O12 0.782542 0.891294 0.578836
O O13 0.949199 0.898586 0.652833
O O14 0.787532 0.891439 0.176134
O O15 0.500000 0.411912 0.250000
#
# Coordination Sequence:
#
# PCOD9284636 Si02
#       7
#     8   8   8   8   8   8   8
#     4  11  21  42  67  99 131 171 226 274 329 393
#     4  11  27  48  66  97 138 181 226 269 342 403
#     4  11  22  40  72  98 136 167 220 285 335 389
#     4  10  21  41  63 106 127 168 227 277 331 395
#     4  11  25  42  69  94 135 179 229 272 333 400
#     4  11  19  35  69 103 132 159 217 283 336 378
#     4  11  23  44  64  95 138 174 225 275 331 401
#
# _framework density 27.257874999999999
#
# number of rings (size 3 to 8) (size 9 to 14) (size 15 to 20)
#    0.000    1.143    4.286    2.571    2.000    2.286 
#   10.286    1.429    0.000    0.000    0.000    0.000 
#    0.000    0.000    0.000    0.000    0.000    0.000 
#
# Total GULP energy -156938.428536 kJ/mol
# GULP energy per Si atom -5604.943876 kJ/mol
# Density = 2.719583 g / cm^3
# Si number density = 27.257875 Si / 1000 Ang^3
#
#
#
# Elastic Constant Matrix: (Units=GPa)
#
#
# Indices 1 2 3 4 5 6 
#
# 1 126.9174 12.6432 49.1375 0.0000 -33.3107 0.0000
# 2 12.6432 60.6910 9.3891 0.0000 -8.9595 0.0000
# 3 49.1375 9.3891 126.8346 0.0000 -34.7777 0.0000
# 4 0.0000 0.0000 0.0000 29.4501 0.0000 -11.5221
# 5 -33.3107 -8.9595 -34.7777 0.0000 70.9567 0.0000
# 6 0.0000 0.0000 0.0000 -11.5221 0.0000 39.7822
#
#
#
# Elastic Compliance Matrix: (Units=1/GPa)
#
#
# Indices 1 2 3 4 5 6 
#
# 1 0.009934 -0.001163 -0.002916 0.000000 0.003088 0.000000
# 2 -0.001163 0.016990 -0.000426 0.000000 0.001391 0.000000
# 3 -0.002916 -0.000426 0.009999 0.000000 0.003478 0.000000
# 4 0.000000 0.000000 0.000000 0.038295 0.000000 0.011091
# 5 0.003088 0.001391 0.003478 0.000000 0.017423 0.000000
# 6 0.000000 0.000000 0.000000 0.011091 0.000000 0.028349
#
#
# Mechanical properties :
#
#
# Convention : Reuss Voigt Hill
#
# Bulk Modulus (GPa) = 35.82345 50.75364 43.28855
# Shear Modulus (GPa) = 35.89239 44.25601 40.07420
#
# Velocity S-wave (km/s) = 3.63267 4.03377 3.83846
# Velocity P-wave (km/s) = 5.54671 6.35258 5.96328
#
# Compressibility (1/GPa) = 0.02791467
#
# Stress axis : x y z
#
# Youngs Moduli (GPa) = 100.66128 58.85709 100.00784
#
# Poissons Ratio (x) = 0.06843 0.29162
# Poissons Ratio (y) = 0.11703 0.04260
# Poissons Ratio (z) = 0.29353 0.02507
#
# Static dielectric constant tensor:
#      x y z
#    x 2.136410 0.000000 0.010640 
#    y 0.000000 2.200940 0.000000 
#    z 0.010640 0.000000 2.046400 
# 
# From -- ./inp_files/152611.got.cif
#   From: 2010.05.17/outbox.cif.g08.bks.cpg/sg15_77_cif.got.tgz:152611.got - 2010.06.03 18:47:42.
