data_PCOD9284835
_publ_section_title
;
Structure prediction by ZEFSAII (Michael W. Deem and Ramdas Pophale) SiO2 
 PCOD9284835
Probable space group: C 2/C
;
_chemical_formula_sum "Si O2"
_cell_formula_units_Z 64
_cell_length_a 17.445818
_cell_length_b 18.074508
_cell_length_c 13.990130
_cell_angle_alpha 90.000000
_cell_angle_beta 39.720432
_cell_angle_gamma 90.000000
_cell_volume 2819.090874
_symmetry_space_group_name_H-M "C 2/C"
_symmetry_group_IT_number 15
_symmetry_cell_setting 'monoclinic'
loop_
_space_group_symop_operation_xyz
x,y,z
-x,y,1/2-z
-x,-y,-z
x,-y,1/2+z
1/2+x,1/2+y,z
1/2-x,1/2+y,1/2-z
1/2-x,1/2-y,-z
1/2+x,1/2-y,1/2+z
loop_
_atom_site_type_symbol
_atom_site_label
_atom_site_fract_x
_atom_site_fract_y
_atom_site_fract_z
Si Si1 0.633702 0.623242 0.358092
Si Si2 0.576310 0.639192 0.085185
Si Si3 0.286088 0.628336 0.013535
Si Si4 0.855330 0.552654 0.060274
Si Si5 0.606120 0.264466 0.222930
Si Si6 0.404640 0.096436 0.608458
Si Si7 0.279958 0.726923 0.695973
Si Si8 0.707801 0.963739 0.088452
O O1 0.513585 0.617301 0.413449
O O2 0.624904 0.622232 0.481047
O O3 0.727499 0.561224 0.233839
O O4 0.704068 0.698439 0.262681
O O5 0.500000 0.663413 0.250000
O O6 0.665234 0.700758 0.956848
O O7 0.658706 0.569704 0.033301
O O8 0.199651 0.697412 0.118428
O O9 0.216466 0.551937 0.073405
O O10 0.350312 0.655526 0.856505
O O11 0.893006 0.467848 0.041417
O O12 0.847546 0.567473 0.955760
O O13 0.952929 0.606800 0.015225
O O14 0.500000 0.246380 0.250000
O O15 0.609727 0.268943 0.334160
O O16 0.317762 0.165561 0.675018
O O17 0.362059 0.061332 0.750333
#
# Coordination Sequence:
#
# PCOD9284835 Si02
#       8
#     8   8   8   8   8   8   8   8
#     4  11  23  43  64  96 126 172 215 266 328 383
#     4  11  24  43  64  93 130 173 221 270 316 382
#     4  10  22  40  64  94 130 163 209 262 324 393
#     4  11  22  41  66  91 129 166 215 268 319 383
#     4  10  21  41  64  99 129 165 209 261 329 389
#     4  10  23  42  63  95 126 170 213 263 324 380
#     4  10  24  43  66  94 134 167 219 266 324 391
#     4  11  22  42  63  95 129 165 219 265 322 386
#
# _framework density 22.702355000000001
#
# number of rings (size 3 to 8) (size 9 to 14) (size 15 to 20)
#    0.000    1.500    2.500    1.875    1.750    2.500 
#    9.000    0.000    0.000    0.000    0.000    0.000 
#    0.000    0.000    0.000    0.000    0.000    0.000 
#
# Total GULP energy -178836.134955 kJ/mol
# GULP energy per Si atom -5588.629217 kJ/mol
# Density = 2.265068 g / cm^3
# Si number density = 22.702355 Si / 1000 Ang^3
#
#
#
# Elastic Constant Matrix: (Units=GPa)
#
#
# Indices 1 2 3 4 5 6 
#
# 1 129.0467 9.3804 1.7449 0.0000 -6.6786 0.0000
# 2 9.3804 49.8077 -6.4058 0.0000 1.1193 0.0000
# 3 1.7449 -6.4058 44.8462 0.0000 4.6767 0.0000
# 4 0.0000 0.0000 0.0000 12.1587 0.0000 2.1224
# 5 -6.6786 1.1193 4.6767 0.0000 34.9397 0.0000
# 6 0.0000 0.0000 0.0000 2.1224 0.0000 19.0011
#
#
#
# Elastic Compliance Matrix: (Units=1/GPa)
#
#
# Indices 1 2 3 4 5 6 
#
# 1 0.007964 -0.001630 -0.000717 0.000000 0.001670 0.000000
# 2 -0.001630 0.020825 0.003185 0.000000 -0.001405 0.000000
# 3 -0.000717 0.003185 0.023129 0.000000 -0.003335 0.000000
# 4 0.000000 0.000000 0.000000 0.083881 0.000000 -0.009369
# 5 0.001670 -0.001405 -0.003335 0.000000 0.029431 0.000000
# 6 0.000000 0.000000 0.000000 -0.009369 0.000000 0.053675
#
#
# Mechanical properties :
#
#
# Convention : Reuss Voigt Hill
#
# Bulk Modulus (GPa) = 18.65869 25.90440 22.28155
# Shear Modulus (GPa) = 21.26808 27.81863 24.54336
#
# Velocity S-wave (km/s) = 3.06408 3.50432 3.29156
# Velocity P-wave (km/s) = 4.55574 5.27341 4.92766
#
# Compressibility (1/GPa) = 0.05359432
#
# Stress axis : x y z
#
# Youngs Moduli (GPa) = 125.56932 48.01867 43.23581
#
# Poissons Ratio (x) = 0.07825 0.03099
# Poissons Ratio (y) = 0.20462 -0.13769
# Poissons Ratio (z) = 0.09001 -0.15292
#
# Static dielectric constant tensor:
#      x y z
#    x 1.855570 0.000000 -0.021720 
#    y 0.000000 1.817080 0.000000 
#    z -0.021720 0.000000 1.881770 
# 
# From -- ./inp_files/163249.got.cif
#   From: 2010.05.17/outbox.cif.g08.bks.cpg/sg15_82_cif.got.tgz:163249.got - 2010.06.03 18:47:42.
