data_PCOD9284038
_publ_section_title
;
Structure prediction by ZEFSAII (Michael W. Deem and Ramdas Pophale) SiO2 
 PCOD9284038
Probable space group: C 2/C
;
_chemical_formula_sum "Si O2"
_cell_formula_units_Z 56
_cell_length_a 8.873895
_cell_length_b 29.983391
_cell_length_c 9.943842
_cell_angle_alpha 90.000000
_cell_angle_beta 85.588084
_cell_angle_gamma 90.000000
_cell_volume 2637.912746
_symmetry_space_group_name_H-M "C 2/C"
_symmetry_group_IT_number 15
_symmetry_cell_setting 'monoclinic'
loop_
_space_group_symop_operation_xyz
x,y,z
-x,y,1/2-z
-x,-y,-z
x,-y,1/2+z
1/2+x,1/2+y,z
1/2-x,1/2+y,1/2-z
1/2-x,1/2-y,-z
1/2+x,1/2-y,1/2+z
loop_
_atom_site_type_symbol
_atom_site_label
_atom_site_fract_x
_atom_site_fract_y
_atom_site_fract_z
Si Si1 0.346879 0.205400 0.003756
Si Si2 0.187577 0.297547 0.461565
Si Si3 0.115797 0.869901 0.121494
Si Si4 0.338117 0.150913 0.260891
Si Si5 0.841969 0.878535 0.964816
Si Si6 0.667438 0.046146 0.898604
Si Si7 0.686240 0.964604 0.088110
O O1 0.364778 0.193618 0.161109
O O2 0.258587 0.161211 0.962152
O O3 0.250000 0.250000 0.000000
O O4 0.513692 0.207846 0.930538
O O5 0.250000 0.250000 0.500000
O O6 0.299994 0.323286 0.355134
O O7 0.191324 0.330587 0.590356
O O8 0.240598 0.908267 0.097872
O O9 0.000000 0.880489 0.250000
O O10 0.011723 0.868092 0.995451
O O11 0.500000 0.125629 0.250000
O O12 0.208489 0.124670 0.188301
O O13 0.794296 0.925682 0.028556
O O14 0.486611 0.051751 0.925578
O O15 0.698272 0.028177 0.746357
O O16 0.713853 0.009795 0.005117
#
# Coordination Sequence:
#
# PCOD9284038 Si02
#       7
#     8   8   8   8   8   8   8
#     4   9  19  40  65  95 128 167 221 280 331 401
#     4  11  23  40  64  95 132 180 222 276 338 400
#     4  12  25  43  63  97 141 182 223 274 336 410
#     4   8  20  40  63  90 125 165 226 276 329 397
#     4  10  21  40  66  91 130 170 222 269 339 398
#     4  10  23  42  68  99 137 169 235 278 349 406
#     4  10  21  44  69  99 126 181 226 288 338 416
#
# _framework density 21.228905999999998
#
# number of rings (size 3 to 8) (size 9 to 14) (size 15 to 20)
#    0.857    1.143    1.429    1.714    0.000    5.143 
#    2.571    1.429    0.000    0.000    0.000    0.000 
#    0.000    0.000    0.000    0.000    0.000    0.000 
#
# Total GULP energy -156220.742188 kJ/mol
# GULP energy per Si atom -5579.312221 kJ/mol
# Density = 2.118059 g / cm^3
# Si number density = 21.228906 Si / 1000 Ang^3
#
#
#
# Elastic Constant Matrix: (Units=GPa)
#
#
# Indices 1 2 3 4 5 6 
#
# 1 94.1374 44.1127 20.3821 0.0000 2.8919 0.0000
# 2 44.1127 102.7781 10.8687 0.0000 -13.5727 0.0000
# 3 20.3821 10.8687 54.4896 0.0000 8.5004 0.0000
# 4 0.0000 0.0000 0.0000 24.2259 0.0000 -0.1172
# 5 2.8919 -13.5727 8.5004 0.0000 29.8755 0.0000
# 6 0.0000 0.0000 0.0000 -0.1172 0.0000 40.5035
#
#
#
# Elastic Compliance Matrix: (Units=1/GPa)
#
#
# Indices 1 2 3 4 5 6 
#
# 1 0.014431 -0.006228 -0.003659 0.000000 -0.003185 0.000000
# 2 -0.006228 0.013505 -0.001481 0.000000 0.007160 0.000000
# 3 -0.003659 -0.001481 0.020998 0.000000 -0.006293 0.000000
# 4 0.000000 0.000000 0.000000 0.041279 0.000000 0.000119
# 5 -0.003185 0.007160 -0.006293 0.000000 0.038824 0.000000
# 6 0.000000 0.000000 0.000000 0.000119 0.000000 0.024690
#
#
# Mechanical properties :
#
#
# Convention : Reuss Voigt Hill
#
# Bulk Modulus (GPa) = 38.17025 44.68133 41.42579
# Shear Modulus (GPa) = 26.99874 30.65708 28.82791
#
# Velocity S-wave (km/s) = 3.57009 3.80428 3.68904
# Velocity P-wave (km/s) = 5.91721 6.35530 6.14016
#
# Compressibility (1/GPa) = 0.02619841
#
# Stress axis : x y z
#
# Youngs Moduli (GPa) = 69.29497 74.04847 47.62366
#
# Poissons Ratio (x) = 0.46114 0.17425
# Poissons Ratio (y) = 0.43154 0.07054
# Poissons Ratio (z) = 0.25355 0.10967
#
# Static dielectric constant tensor:
#      x y z
#    x 1.826050 0.000000 -0.018460 
#    y 0.000000 1.723020 0.000000 
#    z -0.018460 0.000000 1.839840 
# 
# From -- ./inp_files/81262.got.cif
#   From: 2010.05.17/outbox.cif.g08.bks.cpg/sg15_41_cif.got.tgz:81262.got - 2010.06.03 18:47:42.
