data_PCOD9284355
_publ_section_title
;
Structure prediction by ZEFSAII (Michael W. Deem and Ramdas Pophale) SiO2 
 PCOD9284355
Probable space group: C 2/C
;
_chemical_formula_sum "Si O2"
_cell_formula_units_Z 48
_cell_length_a 14.178286
_cell_length_b 12.328499
_cell_length_c 17.550718
_cell_angle_alpha 90.000000
_cell_angle_beta 37.677923
_cell_angle_gamma 90.000000
_cell_volume 1875.114924
_symmetry_space_group_name_H-M "C 2/C"
_symmetry_group_IT_number 15
_symmetry_cell_setting 'monoclinic'
loop_
_space_group_symop_operation_xyz
x,y,z
-x,y,1/2-z
-x,-y,-z
x,-y,1/2+z
1/2+x,1/2+y,z
1/2-x,1/2+y,1/2-z
1/2-x,1/2-y,-z
1/2+x,1/2-y,1/2+z
loop_
_atom_site_type_symbol
_atom_site_label
_atom_site_fract_x
_atom_site_fract_y
_atom_site_fract_z
Si Si1 0.813401 0.539236 0.002851
Si Si2 0.000000 0.658783 0.750000
Si Si3 0.299503 0.381007 0.631290
Si Si4 0.800091 0.262367 0.617125
Si Si5 0.064087 0.297798 0.552037
Si Si6 0.000000 0.320506 0.750000
Si Si7 0.045077 0.061343 0.072375
O O1 0.903610 0.588530 0.872095
O O2 0.876848 0.421139 0.982143
O O3 0.838151 0.624642 0.053315
O O4 0.631997 0.546033 0.096190
O O5 0.879041 0.730931 0.778334
O O6 0.344355 0.261521 0.573911
O O7 0.124630 0.392196 0.715780
O O8 0.397606 0.456896 0.511018
O O9 0.363242 0.421064 0.672270
O O10 0.883010 0.166926 0.515374
O O11 0.885770 0.270667 0.643222
O O12 0.079318 0.256412 0.629837
#
# Coordination Sequence:
#
# PCOD9284355 Si02
#       7
#     8   4   8   8   8   4   8
#     4  11  21  39  68  90 127 170 213 268 328 381
#     4  10  21  40  69  98 120 173 230 261 314 408
#     4  10  22  40  63  92 128 168 214 266 321 387
#     4  10  23  39  63  93 127 168 211 272 324 378
#     4  11  24  41  62  95 132 167 218 269 331 382
#     4  12  23  38  67  90 122 181 216 267 320 398
#     4   9  19  38  66  86 121 165 215 252 320 379
#
# _framework density 25.598431000000001
#
# number of rings (size 3 to 8) (size 9 to 14) (size 15 to 20)
#    0.000    1.667    1.667    3.500    2.333    4.000 
#    0.000    0.833    3.667    0.000    0.000    0.000 
#    0.000    0.000    0.000    0.000    0.000    0.000 
#
# Total GULP energy -134122.137581 kJ/mol
# GULP energy per Si atom -5588.422399 kJ/mol
# Density = 2.554017 g / cm^3
# Si number density = 25.598431 Si / 1000 Ang^3
#
#
#
# Elastic Constant Matrix: (Units=GPa)
#
#
# Indices 1 2 3 4 5 6 
#
# 1 161.6763 48.1127 37.9676 0.0000 -33.6261 0.0000
# 2 48.1127 136.5378 27.1396 0.0000 3.0579 0.0000
# 3 37.9676 27.1396 90.5360 -0.0001 -12.4491 0.0000
# 4 0.0000 0.0000 -0.0001 26.1703 0.0000 -4.8850
# 5 -33.6261 3.0579 -12.4491 0.0000 56.6026 0.0000
# 6 0.0000 0.0000 0.0000 -4.8850 0.0000 41.5604
#
#
#
# Elastic Compliance Matrix: (Units=1/GPa)
#
#
# Indices 1 2 3 4 5 6 
#
# 1 0.008449 -0.002666 -0.002098 0.000000 0.004702 0.000000
# 2 -0.002666 0.008680 -0.001822 0.000000 -0.002453 0.000000
# 3 -0.002098 -0.001822 0.012697 0.000000 0.001645 0.000000
# 4 0.000000 0.000000 0.000000 0.039068 0.000000 0.004592
# 5 0.004702 -0.002453 0.001645 0.000000 0.020955 0.000000
# 6 0.000000 0.000000 0.000000 0.004592 0.000000 0.024601
#
#
# Mechanical properties :
#
#
# Convention : Reuss Voigt Hill
#
# Bulk Modulus (GPa) = 60.03468 68.35443 64.19455
# Shear Modulus (GPa) = 37.54531 43.23534 40.39033
#
# Velocity S-wave (km/s) = 3.83391 4.11418 3.97652
# Velocity P-wave (km/s) = 6.56520 7.02348 6.79820
#
# Compressibility (1/GPa) = 0.01665704
#
# Stress axis : x y z
#
# Youngs Moduli (GPa) = 118.35764 115.20375 78.75750
#
# Poissons Ratio (x) = 0.30709 0.16520
# Poissons Ratio (y) = 0.31549 0.14346
# Poissons Ratio (z) = 0.24827 0.20985
#
# Static dielectric constant tensor:
#      x y z
#    x 2.104410 0.000000 -0.079070 
#    y 0.000000 1.968430 0.000000 
#    z -0.079070 0.000000 2.176030 
# 
# From -- ./inp_files/243949.got.cif
#   From: 2010.05.17/outbox.cif.g08.bks.cpg/sg15_122_cif.got.tgz:243949.got - 2010.06.03 18:47:42.
