data_PCOD9284082
_publ_section_title
;
Structure prediction by ZEFSAII (Michael W. Deem and Ramdas Pophale) SiO2 
 PCOD9284082
Probable space group: C 2/C
;
_chemical_formula_sum "Si O2"
_cell_formula_units_Z 48
_cell_length_a 11.328135
_cell_length_b 15.370469
_cell_length_c 19.271056
_cell_angle_alpha 90.000000
_cell_angle_beta 40.190418
_cell_angle_gamma 90.000000
_cell_volume 2165.373740
_symmetry_space_group_name_H-M "C 2/C"
_symmetry_group_IT_number 15
_symmetry_cell_setting 'monoclinic'
loop_
_space_group_symop_operation_xyz
x,y,z
-x,y,1/2-z
-x,-y,-z
x,-y,1/2+z
1/2+x,1/2+y,z
1/2-x,1/2+y,1/2-z
1/2-x,1/2-y,-z
1/2+x,1/2-y,1/2+z
loop_
_atom_site_type_symbol
_atom_site_label
_atom_site_fract_x
_atom_site_fract_y
_atom_site_fract_z
Si Si1 0.001338 0.908604 0.039751
Si Si2 0.166285 0.632888 0.371596
Si Si3 0.534719 0.495611 0.308984
Si Si4 0.358175 0.077501 0.975412
Si Si5 0.423146 0.097227 0.362560
Si Si6 0.825131 0.698901 0.870553
O O1 0.865793 0.847415 0.060113
O O2 0.920882 0.927369 0.151768
O O3 0.209703 0.878759 0.953407
O O4 0.000000 0.000000 0.000000
O O5 0.307262 0.565357 0.274117
O O6 0.058175 0.591567 0.485717
O O7 0.287238 0.706425 0.355183
O O8 0.032322 0.657145 0.368658
O O9 0.500000 0.453408 0.250000
O O10 0.350089 0.545543 0.415743
O O11 0.365744 0.168808 0.930862
O O12 0.433681 0.999506 0.893274
O O13 0.500000 0.096607 0.250000
O O14 0.000000 0.663763 0.750000
#
# Coordination Sequence:
#
# PCOD9284082 Si02
#       6
#     8   8   8   8   8   8
#     4  11  22  41  68  93 128 173 227 269 323 402
#     4  11  24  40  65  99 138 167 218 278 344 387
#     4   9  19  37  63  90 127 166 212 268 327 380
#     4  10  21  40  66  95 126 171 222 270 321 395
#     4  11  23  41  69  94 131 179 221 265 331 400
#     4  12  25  42  67 100 130 174 221 279 334 396
#
# _framework density 22.167074
#
# number of rings (size 3 to 8) (size 9 to 14) (size 15 to 20)
#    0.000    1.333    3.333    4.000    2.333    0.667 
#    0.000    0.833    0.000    0.000    0.000    0.000 
#    0.000    0.000    0.000    0.000    0.000    0.000 
#
# Total GULP energy -133988.010859 kJ/mol
# GULP energy per Si atom -5582.833786 kJ/mol
# Density = 2.211662 g / cm^3
# Si number density = 22.167074 Si / 1000 Ang^3
#
#
#
# Elastic Constant Matrix: (Units=GPa)
#
#
# Indices 1 2 3 4 5 6 
#
# 1 118.4366 1.5367 51.8112 -0.0002 24.9335 0.0000
# 2 1.5367 31.0291 15.7740 -0.0001 1.1459 0.0001
# 3 51.8112 15.7740 101.0192 0.0001 27.5213 -0.0001
# 4 -0.0002 -0.0001 0.0001 15.3983 0.0001 -5.9698
# 5 24.9335 1.1459 27.5213 0.0001 40.1828 0.0000
# 6 0.0000 0.0001 -0.0001 -5.9698 0.0000 21.3391
#
#
#
# Elastic Compliance Matrix: (Units=1/GPa)
#
#
# Indices 1 2 3 4 5 6 
#
# 1 0.011467 0.002236 -0.005255 0.000000 -0.003580 0.000000
# 2 0.002236 0.035819 -0.007479 0.000000 0.002714 0.000000
# 3 -0.005255 -0.007479 0.015756 0.000000 -0.007317 0.000000
# 4 0.000000 0.000000 0.000000 0.072843 0.000000 0.020379
# 5 -0.003580 0.002714 -0.007317 0.000000 0.032042 0.000000
# 6 0.000000 0.000000 0.000000 0.020379 0.000000 0.052563
#
#
# Mechanical properties :
#
#
# Convention : Reuss Voigt Hill
#
# Bulk Modulus (GPa) = 23.78419 43.19206 33.48812
# Shear Modulus (GPa) = 19.56942 27.47492 23.52217
#
# Velocity S-wave (km/s) = 2.97444 3.52440 3.26103
# Velocity P-wave (km/s) = 4.74860 6.00741 5.41471
#
# Compressibility (1/GPa) = 0.04204474
#
# Stress axis : x y z
#
# Youngs Moduli (GPa) = 87.20834 27.91814 63.46957
#
# Poissons Ratio (x) = -0.06242 0.33353
# Poissons Ratio (y) = -0.19498 0.47469
# Poissons Ratio (z) = 0.45828 0.20880
#
# Static dielectric constant tensor:
#      x y z
#    x 1.869640 0.000000 0.018230 
#    y 0.000000 1.912110 0.000000 
#    z 0.018230 0.000000 1.826000 
# 
# From -- ./inp_files/238963.got.cif
#   From: 2010.05.17/outbox.cif.g08.bks.cpg/sg15_120_cif.got.tgz:238963.got - 2010.06.03 18:47:42.
