data_PCOD9284668
_publ_section_title
;
Structure prediction by ZEFSAII (Michael W. Deem and Ramdas Pophale) SiO2 
 PCOD9284668
Probable space group: C 2/C
;
_chemical_formula_sum "Si O2"
_cell_formula_units_Z 56
_cell_length_a 21.561439
_cell_length_b 24.648324
_cell_length_c 8.975974
_cell_angle_alpha 90.000000
_cell_angle_beta 38.184322
_cell_angle_gamma 90.000000
_cell_volume 2948.974664
_symmetry_space_group_name_H-M "C 2/C"
_symmetry_group_IT_number 15
_symmetry_cell_setting 'monoclinic'
loop_
_space_group_symop_operation_xyz
x,y,z
-x,y,1/2-z
-x,-y,-z
x,-y,1/2+z
1/2+x,1/2+y,z
1/2-x,1/2+y,1/2-z
1/2-x,1/2-y,-z
1/2+x,1/2-y,1/2+z
loop_
_atom_site_type_symbol
_atom_site_label
_atom_site_fract_x
_atom_site_fract_y
_atom_site_fract_z
Si Si1 0.077908 0.009667 0.721616
Si Si2 0.487276 0.164327 0.596256
Si Si3 0.956732 0.447896 0.665100
Si Si4 0.222287 0.695829 0.644800
Si Si5 0.177854 0.702153 0.085444
Si Si6 0.760846 0.088403 0.964498
Si Si7 0.884757 0.887107 0.937836
O O1 0.169601 0.050669 0.566265
O O2 0.000000 0.032370 0.750000
O O3 0.115902 0.948784 0.619583
O O4 0.000000 0.000000 0.000000
O O5 0.500000 0.170153 0.750000
O O6 0.513370 0.104175 0.489016
O O7 0.373329 0.173125 0.762065
O O8 0.563597 0.204203 0.361632
O O9 0.000000 0.443180 0.750000
O O10 0.000000 0.500000 0.500000
O O11 0.835956 0.446317 0.901687
O O12 0.250000 0.750000 0.500000
O O13 0.318177 0.655274 0.470329
O O14 0.187633 0.700330 0.885853
O O15 0.250000 0.750000 0.000000
O O16 0.217849 0.647026 0.091146
O O17 0.831291 0.105826 0.696292
O O18 0.000000 0.870278 0.750000
#
# Coordination Sequence:
#
# PCOD9284668 Si02
#       7
#     8   8   8   8   8   8   8
#     4  11  21  40  61  91 126 164 208 259 316 383
#     4  11  23  44  63  91 129 166 215 266 318 387
#     4  11  24  40  61  91 125 166 211 261 323 387
#     4  11  24  41  67  96 125 173 215 265 332 386
#     4  10  22  44  66  91 131 168 215 272 326 385
#     4  10  22  39  63  90 122 169 206 259 322 371
#     4  10  21  41  63  89 129 168 207 260 326 383
#
# _framework density 18.989652
#
# number of rings (size 3 to 8) (size 9 to 14) (size 15 to 20)
#    0.000    1.429    2.857    4.286    4.000    2.857 
#    7.714    0.000    0.000    0.000    0.000    0.000 
#    0.000    0.000    0.000    0.000    0.000    0.000 
#
# Total GULP energy -155980.280387 kJ/mol
# GULP energy per Si atom -5570.724300 kJ/mol
# Density = 1.894643 g / cm^3
# Si number density = 18.989652 Si / 1000 Ang^3
#
#
#
# Elastic Constant Matrix: (Units=GPa)
#
#
# Indices 1 2 3 4 5 6 
#
# 1 163.3187 56.9167 57.4233 0.0000 -32.8740 0.0000
# 2 56.9167 96.4074 35.1262 0.0000 -31.5911 0.0000
# 3 57.4233 35.1262 106.1049 0.0000 -31.6075 0.0000
# 4 0.0000 0.0000 0.0000 33.9633 0.0000 -4.9239
# 5 -32.8740 -31.5911 -31.6075 0.0000 43.9926 0.0000
# 6 0.0000 0.0000 0.0000 -4.9239 0.0000 35.7850
#
#
#
# Elastic Compliance Matrix: (Units=1/GPa)
#
#
# Indices 1 2 3 4 5 6 
#
# 1 0.008777 -0.003453 -0.003043 0.000000 0.001893 0.000000
# 2 -0.003453 0.015272 -0.000877 0.000000 0.007757 0.000000
# 3 -0.003043 -0.000877 0.013355 0.000000 0.006692 0.000000
# 4 0.000000 0.000000 0.000000 0.030043 0.000000 0.004134
# 5 0.001893 0.007757 0.006692 0.000000 0.034524 0.000000
# 6 0.000000 0.000000 0.000000 0.004134 0.000000 0.028513
#
#
# Mechanical properties :
#
#
# Convention : Reuss Voigt Hill
#
# Bulk Modulus (GPa) = 44.13118 73.86260 58.99689
# Shear Modulus (GPa) = 32.72598 37.17250 34.94924
#
# Velocity S-wave (km/s) = 4.15584 4.42918 4.29468
# Velocity P-wave (km/s) = 6.80574 8.07078 7.46510
#
# Compressibility (1/GPa) = 0.02265972
#
# Stress axis : x y z
#
# Youngs Moduli (GPa) = 113.92921 65.47767 74.87701
#
# Poissons Ratio (x) = 0.22608 0.22787
# Poissons Ratio (y) = 0.39338 0.06563
# Poissons Ratio (z) = 0.34672 0.05739
#
# Static dielectric constant tensor:
#      x y z
#    x 1.651540 0.000000 0.035490 
#    y 0.000000 1.732410 0.000000 
#    z 0.035490 0.000000 1.587950 
# 
# From -- ./inp_files/52298.got.cif
#   From: 2010.05.17/outbox.cif.g08.bks.cpg/sg15_27_cif.got.tgz:52298.got - 2010.06.03 18:47:42.
