data_PCOD9284514
_publ_section_title
;
Structure prediction by ZEFSAII (Michael W. Deem and Ramdas Pophale) SiO2 
 PCOD9284514
Probable space group: C 2/C
;
_chemical_formula_sum "Si O2"
_cell_formula_units_Z 60
_cell_length_a 25.429219
_cell_length_b 14.498835
_cell_length_c 15.974412
_cell_angle_alpha 90.000000
_cell_angle_beta 24.707300
_cell_angle_gamma 90.000000
_cell_volume 2461.781168
_symmetry_space_group_name_H-M "C 2/C"
_symmetry_group_IT_number 15
_symmetry_cell_setting 'monoclinic'
loop_
_space_group_symop_operation_xyz
x,y,z
-x,y,1/2-z
-x,-y,-z
x,-y,1/2+z
1/2+x,1/2+y,z
1/2-x,1/2+y,1/2-z
1/2-x,1/2-y,-z
1/2+x,1/2-y,1/2+z
loop_
_atom_site_type_symbol
_atom_site_label
_atom_site_fract_x
_atom_site_fract_y
_atom_site_fract_z
Si Si1 0.824607 0.533066 0.425290
Si Si2 0.436411 0.917611 0.141619
Si Si3 0.500000 0.462457 0.250000
Si Si4 0.691530 0.309965 0.914312
Si Si5 0.817134 0.572788 0.106419
Si Si6 0.467265 0.179297 0.430529
Si Si7 0.367903 0.686092 0.735418
Si Si8 0.926664 0.046657 0.525956
O O1 0.838161 0.462007 0.482601
O O2 0.946109 0.597919 0.230397
O O3 0.714204 0.604530 0.606518
O O4 0.815545 0.463128 0.359853
O O5 0.546909 0.903215 0.050147
O O6 0.417768 0.843846 0.095168
O O7 0.500000 0.000000 0.000000
O O8 0.385349 0.391656 0.432600
O O9 0.499380 0.524065 0.335388
O O10 0.736456 0.341057 0.757331
O O11 0.807066 0.286735 0.808280
O O12 0.637186 0.206146 0.985948
O O13 0.717106 0.491313 0.279310
O O14 0.527640 0.281993 0.349857
O O15 0.417468 0.650081 0.574488
O O16 0.000000 0.000000 0.500000
#
# Coordination Sequence:
#
# PCOD9284514 Si02
#       8
#     8   8   4   8   8   8   8   8
#     4  10  23  37  68  90 120 167 216 257 316 396
#     4  10  22  39  60  90 130 166 208 265 326 392
#     4  10  22  44  68  92 132 176 220 262 326 394
#     4  11  23  39  63  94 129 165 209 279 320 379
#     4  10  21  41  60  91 130 168 211 265 331 384
#     4  11  23  41  62  96 131 164 214 273 331 377
#     4  11  22  40  63  96 129 162 212 272 328 375
#     4  10  23  42  65  93 134 177 214 267 328 398
#
# _framework density 24.372598
#
# number of rings (size 3 to 8) (size 9 to 14) (size 15 to 20)
#    0.000    1.600    1.333    3.200    9.333    2.133 
#    7.200    2.000    0.000    0.000    0.000    0.000 
#    0.000    0.000    0.000    0.000    0.000    0.000 
#
# Total GULP energy -167243.794811 kJ/mol
# GULP energy per Si atom -5574.793160 kJ/mol
# Density = 2.431712 g / cm^3
# Si number density = 24.372598 Si / 1000 Ang^3
#
#
#
# Elastic Constant Matrix: (Units=GPa)
#
#
# Indices 1 2 3 4 5 6 
#
# 1 70.8358 26.2749 41.5974 0.0000 37.9227 0.0000
# 2 26.2749 59.5808 50.0677 0.0000 16.5504 0.0000
# 3 41.5974 50.0677 133.1994 0.0000 40.9780 0.0000
# 4 0.0000 0.0000 0.0000 51.0533 0.0000 13.3958
# 5 37.9227 16.5504 40.9780 0.0000 43.9327 0.0000
# 6 0.0000 0.0000 0.0000 13.3958 0.0000 45.2871
#
#
#
# Elastic Compliance Matrix: (Units=1/GPa)
#
#
# Indices 1 2 3 4 5 6 
#
# 1 0.028270 -0.006747 0.000607 0.000000 -0.022427 0.000000
# 2 -0.006747 0.026169 -0.009099 0.000000 0.004453 0.000000
# 3 0.000607 -0.009099 0.013807 0.000000 -0.009975 0.000000
# 4 0.000000 0.000000 0.000000 0.021236 0.000000 -0.006281
# 5 -0.022427 0.004453 -0.009975 0.000000 0.049747 0.000000
# 6 0.000000 0.000000 0.000000 -0.006281 0.000000 0.023939
#
#
# Mechanical properties :
#
#
# Convention : Reuss Voigt Hill
#
# Bulk Modulus (GPa) = 26.47835 55.49955 40.98895
# Shear Modulus (GPa) = 24.24410 37.76635 31.00523
#
# Velocity S-wave (km/s) = 3.15735 3.94069 3.57057
# Velocity P-wave (km/s) = 4.91726 6.59743 5.81831
#
# Compressibility (1/GPa) = 0.03776671
#
# Stress axis : x y z
#
# Youngs Moduli (GPa) = 35.37330 38.21321 72.42799
#
# Poissons Ratio (x) = 0.25784 -0.04398
# Poissons Ratio (y) = 0.23868 0.65905
# Poissons Ratio (z) = -0.02148 0.34772
#
# Static dielectric constant tensor:
#      x y z
#    x 1.904330 0.000000 -0.032400 
#    y 0.000000 1.906590 0.000000 
#    z -0.032400 0.000000 2.032540 
# 
# From -- ./inp_files/178533.got.cif
#   From: 2010.05.17/outbox.cif.g08.bks.cpg/sg15_90_cif.got.tgz:178533.got - 2010.06.03 18:47:42.
