data_PCOD9284399
_publ_section_title
;
Structure prediction by ZEFSAII (Michael W. Deem and Ramdas Pophale) SiO2 
 PCOD9284399
Probable space group: C 2/C
;
_chemical_formula_sum "Si O2"
_cell_formula_units_Z 60
_cell_length_a 20.580037
_cell_length_b 27.920908
_cell_length_c 14.305147
_cell_angle_alpha 90.000000
_cell_angle_beta 160.374415
_cell_angle_gamma 90.000000
_cell_volume 2760.845344
_symmetry_space_group_name_H-M "C 2/C"
_symmetry_group_IT_number 15
_symmetry_cell_setting 'monoclinic'
loop_
_space_group_symop_operation_xyz
x,y,z
-x,y,1/2-z
-x,-y,-z
x,-y,1/2+z
1/2+x,1/2+y,z
1/2-x,1/2+y,1/2-z
1/2-x,1/2-y,-z
1/2+x,1/2-y,1/2+z
loop_
_atom_site_type_symbol
_atom_site_label
_atom_site_fract_x
_atom_site_fract_y
_atom_site_fract_z
Si Si1 0.462530 0.567396 0.883881
Si Si2 0.000000 0.564568 0.750000
Si Si3 0.755761 0.979406 0.269557
Si Si4 0.306586 0.991286 0.611757
Si Si5 0.045809 0.723226 0.217103
Si Si6 0.157081 0.277273 0.672700
Si Si7 0.596542 0.706564 0.280136
Si Si8 0.258081 0.641196 0.176683
O O1 0.356854 0.559596 0.840421
O O2 0.318393 0.551458 0.604148
O O3 0.635092 0.528478 0.111002
O O4 0.560390 0.619539 0.019942
O O5 0.162268 0.530902 0.925422
O O6 0.898548 0.599446 0.540132
O O7 0.777280 0.982352 0.410603
O O8 0.526859 0.976906 0.936948
O O9 0.250000 0.750000 0.500000
O O10 0.055093 0.701120 0.126419
O O11 0.000000 0.694047 0.250000
O O12 0.878324 0.762901 0.989252
O O13 0.158958 0.314358 0.592018
O O14 0.053722 0.228933 0.498322
O O15 0.500000 0.697470 0.250000
O O16 0.750000 0.750000 0.500000
O O17 0.682607 0.659915 0.345818
#
# Coordination Sequence:
#
# PCOD9284399 Si02
#       8
#     8   4   8   8   8   8   8   8
#     4  11  21  41  64 105 133 169 228 285 325 398
#     4  12  22  42  66 100 138 178 216 278 332 404
#     4  10  21  40  70  95 135 187 222 258 348 411
#     4  11  21  41  72  94 133 189 218 265 344 411
#     4   9  19  37  69  88 112 171 234 256 334 409
#     4  11  20  41  65  93 131 171 222 276 335 398
#     4  12  23  42  68  98 130 182 222 275 345 402
#     4  12  25  37  67 102 138 167 235 280 332 401
#
# _framework density 21.732474
#
# number of rings (size 3 to 8) (size 9 to 14) (size 15 to 20)
#    0.000    1.067    5.333    2.000    0.000    1.067 
#    0.000    4.000    5.867    0.000    0.000    0.000 
#    0.000    0.000    0.000    0.000    0.000    0.000 
#
# Total GULP energy -167327.753416 kJ/mol
# GULP energy per Si atom -5577.591781 kJ/mol
# Density = 2.168301 g / cm^3
# Si number density = 21.732474 Si / 1000 Ang^3
#
#
#
# Elastic Constant Matrix: (Units=GPa)
#
#
# Indices 1 2 3 4 5 6 
#
# 1 147.2533 -11.3170 5.1676 0.0000 0.6055 0.0000
# 2 -11.3170 23.7784 4.2605 0.0001 0.5575 0.0000
# 3 5.1676 4.2605 105.1081 -0.0001 -7.5443 0.0001
# 4 0.0000 0.0001 -0.0001 19.8629 0.0000 -2.5241
# 5 0.6055 0.5575 -7.5443 0.0000 25.0380 0.0001
# 6 0.0000 0.0000 0.0001 -2.5241 0.0001 -4.4363
#
#
#
# Elastic Compliance Matrix: (Units=1/GPa)
#
#
# Indices 1 2 3 4 5 6 
#
# 1 0.007078 0.003471 -0.000518 0.000000 -0.000404 0.000000
# 2 0.003471 0.044119 -0.002081 0.000000 -0.001693 0.000000
# 3 -0.000518 -0.002081 0.009841 0.000000 0.003024 0.000000
# 4 0.000000 0.000000 0.000000 0.046951 0.000000 -0.026713
# 5 -0.000404 -0.001693 0.003024 0.000000 0.040898 0.000001
# 6 0.000000 0.000000 0.000000 -0.026713 0.000001 -0.210214
#
#
# Mechanical properties :
#
#
# Convention : Reuss Voigt Hill
#
# Bulk Modulus (GPa) = 15.92796 30.26244 23.09520
# Shear Modulus (GPa) = -118.63634 26.62816 -46.00409
#
# Velocity S-wave (km/s) = -7.39648 3.50418 -4.60590
# Velocity P-wave (km/s) = 8.09932 5.50705 4.19948
#
# Compressibility (1/GPa) = 0.06278270
#
# Stress axis : x y z
#
# Youngs Moduli (GPa) = 141.29102 22.66585 101.61718
#
# Poissons Ratio (x) = -0.07867 0.05261
# Poissons Ratio (y) = -0.49038 0.21142
# Poissons Ratio (z) = 0.07314 0.04716
#
# Static dielectric constant tensor:
#      x y z
#    x 1.880910 0.000000 -0.049980 
#    y 0.000000 1.731170 0.000000 
#    z -0.049980 0.000000 1.879480 
# 
# From -- ./inp_files/169976.got.cif
#   From: 2010.05.17/outbox.cif.g08.bks.cpg/sg15_85_cif.got.tgz:169976.got - 2010.06.03 18:47:42.
