data_PCOD9284891
_publ_section_title
;
Structure prediction by ZEFSAII (Michael W. Deem and Ramdas Pophale) SiO2 
 PCOD9284891
Probable space group: C 2/C
;
_chemical_formula_sum "Si O2"
_cell_formula_units_Z 44
_cell_length_a 7.741579
_cell_length_b 22.413289
_cell_length_c 13.433354
_cell_angle_alpha 90.000000
_cell_angle_beta 89.943443
_cell_angle_gamma 90.000000
_cell_volume 2330.877174
_symmetry_space_group_name_H-M "C 2/C"
_symmetry_group_IT_number 15
_symmetry_cell_setting 'monoclinic'
loop_
_space_group_symop_operation_xyz
x,y,z
-x,y,1/2-z
-x,-y,-z
x,-y,1/2+z
1/2+x,1/2+y,z
1/2-x,1/2+y,1/2-z
1/2-x,1/2-y,-z
1/2+x,1/2-y,1/2+z
loop_
_atom_site_type_symbol
_atom_site_label
_atom_site_fract_x
_atom_site_fract_y
_atom_site_fract_z
Si Si1 0.649075 0.384302 0.988297
Si Si2 0.129407 0.078421 0.167467
Si Si3 0.500000 0.108685 0.750000
Si Si4 0.175439 0.187632 0.687309
Si Si5 0.189347 0.673080 0.202707
Si Si6 0.380178 0.019702 0.589221
O O1 0.475544 0.403950 0.931377
O O2 0.778114 0.360511 0.901885
O O3 0.637808 0.335121 0.075234
O O4 0.725579 0.441698 0.042950
O O5 0.190227 0.139536 0.218609
O O6 0.000000 0.049788 0.250000
O O7 0.290566 0.035197 0.146541
O O8 0.330236 0.149302 0.736114
O O9 0.492967 0.063781 0.657199
O O10 0.226541 0.257147 0.688102
O O11 0.000000 0.180327 0.750000
O O12 0.000000 0.667848 0.250000
O O13 0.500000 0.000000 0.500000
#
# Coordination Sequence:
#
# PCOD9284891 Si02
#       6
#     8   8   4   8   8   8
#     4  10  22  40  61  96 122 167 206 264 318 377
#     4  10  23  38  65  92 126 166 207 261 320 378
#     4  10  26  40  64  92 130 170 206 270 312 376
#     4  10  23  43  65  92 131 168 215 264 316 379
#     4  10  21  41  65  93 125 164 211 262 318 378
#     4  11  24  39  63  90 127 165 212 260 312 384
#
# _framework density 18.877015
#
# number of rings (size 3 to 8) (size 9 to 14) (size 15 to 20)
#    0.000    1.818    0.000    2.182   12.727    2.909 
#    0.000    1.818    0.000    0.000    0.000    0.000 
#    0.000    0.000    0.000    0.000    0.000    0.000 
#
# Total GULP energy -122773.531290 kJ/mol
# GULP energy per Si atom -5580.615059 kJ/mol
# Density = 1.883405 g / cm^3
# Si number density = 18.877015 Si / 1000 Ang^3
#
#
#
# Elastic Constant Matrix: (Units=GPa)
#
#
# Indices 1 2 3 4 5 6 
#
# 1 41.5067 13.5440 15.1666 0.0000 1.1961 0.0000
# 2 13.5440 83.3476 22.3501 0.0000 0.6055 0.0000
# 3 15.1666 22.3501 77.0360 0.0000 12.7705 0.0000
# 4 0.0000 0.0000 0.0000 30.9750 0.0000 -13.2558
# 5 1.1961 0.6055 12.7705 0.0000 40.2477 0.0000
# 6 0.0000 0.0000 0.0000 -13.2558 0.0000 270.5233
#
#
#
# Elastic Compliance Matrix: (Units=1/GPa)
#
#
# Indices 1 2 3 4 5 6 
#
# 1 0.026731 -0.003153 -0.004459 0.000000 0.000668 0.000000
# 2 -0.003153 0.013425 -0.003437 0.000000 0.000982 0.000000
# 3 -0.004459 -0.003437 0.015648 0.000000 -0.004781 0.000000
# 4 0.000000 0.000000 0.000000 0.032976 0.000000 0.001616
# 5 0.000668 0.000982 -0.004781 0.000000 0.026328 0.000000
# 6 0.000000 0.000000 0.000000 0.001616 0.000000 0.003776
#
#
# Mechanical properties :
#
#
# Convention : Reuss Voigt Hill
#
# Bulk Modulus (GPa) = 29.66723 33.77906 31.72314
# Shear Modulus (GPa) = 32.84773 78.40451 55.62612
#
# Velocity S-wave (km/s) = 4.17597 6.45171 5.43430
# Velocity P-wave (km/s) = 6.24514 8.56928 7.49781
#
# Compressibility (1/GPa) = 0.03370723
#
# Stress axis : x y z
#
# Youngs Moduli (GPa) = 37.40925 74.48887 63.90412
#
# Poissons Ratio (x) = 0.23487 0.28493
# Poissons Ratio (y) = 0.11795 0.21963
# Poissons Ratio (z) = 0.16680 0.25601
#
# Static dielectric constant tensor:
#      x y z
#    x 1.659370 0.000000 -0.003440 
#    y 0.000000 1.649960 0.000000 
#    z -0.003440 0.000000 1.636830 
# 
# From -- ./inp_files/78194.got.cif
#   From: 2010.05.17/outbox.cif.g08.bks.cpg/sg15_40_cif.got.tgz:78194.got - 2010.06.03 18:47:42.
