data_PCOD9284055
_publ_section_title
;
Structure prediction by ZEFSAII (Michael W. Deem and Ramdas Pophale) SiO2 
 PCOD9284055
Probable space group: C 2/C
;
_chemical_formula_sum "Si O2"
_cell_formula_units_Z 64
_cell_length_a 15.728180
_cell_length_b 15.088764
_cell_length_c 12.247564
_cell_angle_alpha 90.000000
_cell_angle_beta 66.489472
_cell_angle_gamma 90.000000
_cell_volume 2665.292844
_symmetry_space_group_name_H-M "C 2/C"
_symmetry_group_IT_number 15
_symmetry_cell_setting 'monoclinic'
loop_
_space_group_symop_operation_xyz
x,y,z
-x,y,1/2-z
-x,-y,-z
x,-y,1/2+z
1/2+x,1/2+y,z
1/2-x,1/2+y,1/2-z
1/2-x,1/2-y,-z
1/2+x,1/2-y,1/2+z
loop_
_atom_site_type_symbol
_atom_site_label
_atom_site_fract_x
_atom_site_fract_y
_atom_site_fract_z
Si Si1 0.854786 0.528381 0.903511
Si Si2 0.369005 0.850181 0.788794
Si Si3 0.662226 0.148508 0.800877
Si Si4 0.029640 0.351221 0.992818
Si Si5 0.645214 0.528381 0.096489
Si Si6 0.970360 0.148778 0.507182
Si Si7 0.662226 0.648508 0.300877
Si Si8 0.869005 0.149820 0.788794
O O1 0.888134 0.430065 0.859494
O O2 0.853945 0.582402 0.790426
O O3 0.917461 0.579006 0.958576
O O4 0.750000 0.526002 1.000000
O O5 0.432372 0.857560 0.649008
O O6 0.262615 0.862987 0.803551
O O7 0.378472 0.750000 0.828909
O O8 0.579234 0.137487 0.929185
O O9 0.658935 0.250000 0.761130
O O10 0.762614 0.137013 0.803551
O O11 0.052822 0.250000 0.016943
O O12 0.582538 0.579005 0.041424
O O13 0.646054 0.582401 0.209574
O O14 0.611866 0.430064 0.140505
O O15 0.932372 0.142440 0.649008
O O16 0.079234 0.137487 0.429185
#
# Coordination Sequence:
#
# PCOD9284055 Si02
#       8
#     8   8   8   8   8   8   8   8
#     4  12  23  37  64  97 127 160 210 257 315 369
#     4  10  23  44  64  88 127 168 209 256 308 373
#     4  10  21  40  66  93 124 163 207 259 313 367
#     4  10  22  42  67  93 123 163 209 259 314 368
#     4  12  23  37  64  97 127 160 210 257 315 369
#     4  10  22  42  67  93 123 163 209 259 314 368
#     4  10  21  40  66  93 124 163 207 259 313 367
#     4  10  23  44  64  88 127 168 209 256 308 373
#
# _framework density 24.012370000000001
#
# number of rings (size 3 to 8) (size 9 to 14) (size 15 to 20)
#    0.000    1.500    2.500    2.250    0.000    4.500 
#    4.500    0.000    0.000    3.000    0.000    0.000 
#    0.000    0.000    0.000    0.000    0.000    0.000 
#
# Total GULP energy -179592.797127 kJ/mol
# GULP energy per Si atom -5612.274910 kJ/mol
# Density = 2.395772 g / cm^3
# Si number density = 24.012370 Si / 1000 Ang^3
#
#
#
# Elastic Constant Matrix: (Units=GPa)
#
#
# Indices 1 2 3 4 5 6 
#
# 1 93.3087 74.5981 43.1678 0.0000 -30.1130 0.0000
# 2 74.5981 193.3300 89.1848 0.0000 16.5837 0.0000
# 3 43.1678 89.1848 130.7083 0.0000 -31.7340 0.0000
# 4 0.0000 0.0000 0.0000 45.0392 0.0000 3.9802
# 5 -30.1130 16.5837 -31.7340 0.0000 44.1468 0.0000
# 6 0.0000 0.0000 0.0000 3.9802 0.0000 22.9765
#
#
#
# Elastic Compliance Matrix: (Units=1/GPa)
#
#
# Indices 1 2 3 4 5 6 
#
# 1 0.046129 -0.032835 0.021568 0.000000 0.059303 0.000000
# 2 -0.032835 0.034200 -0.025498 0.000000 -0.053573 0.000000
# 3 0.021568 -0.025498 0.028859 0.000000 0.045035 0.000000
# 4 0.000000 0.000000 0.000000 0.022548 0.000000 -0.003906
# 5 0.059303 -0.053573 0.045035 0.000000 0.115600 0.000000
# 6 0.000000 0.000000 0.000000 -0.003906 0.000000 0.044199
#
#
# Mechanical properties :
#
#
# Convention : Reuss Voigt Hill
#
# Bulk Modulus (GPa) = 28.04541 92.36094 60.20318
# Shear Modulus (GPa) = 13.26426 36.45894 24.86160
#
# Velocity S-wave (km/s) = 2.35285 3.90082 3.22120
# Velocity P-wave (km/s) = 4.36877 7.67046 6.24188
#
# Compressibility (1/GPa) = 0.03565645
#
# Stress axis : x y z
#
# Youngs Moduli (GPa) = 21.67842 29.23952 34.65095
#
# Poissons Ratio (x) = 0.96009 -0.74734
# Poissons Ratio (y) = 0.71182 0.88353
# Poissons Ratio (z) = -0.46755 0.74555
#
# Static dielectric constant tensor:
#      x y z
#    x 1.880560 0.000000 -0.012340 
#    y 0.000000 1.911220 0.000000 
#    z -0.012340 0.000000 1.855200 
# 
# From -- ./inp_files/162516.got.cif
#   From: 2010.05.17/outbox.cif.g08.bks.cpg/sg15_82_cif.got.tgz:162516.got - 2010.06.03 18:47:42.
