data_PCOD9284678
_publ_section_title
;
Structure prediction by ZEFSAII (Michael W. Deem and Ramdas Pophale) SiO2 
 PCOD9284678
Probable space group: C 2/C
;
_chemical_formula_sum "Si O2"
_cell_formula_units_Z 56
_cell_length_a 16.926419
_cell_length_b 17.444614
_cell_length_c 9.730003
_cell_angle_alpha 90.000000
_cell_angle_beta 66.728470
_cell_angle_gamma 90.000000
_cell_volume 2639.283892
_symmetry_space_group_name_H-M "C 2/C"
_symmetry_group_IT_number 15
_symmetry_cell_setting 'monoclinic'
loop_
_space_group_symop_operation_xyz
x,y,z
-x,y,1/2-z
-x,-y,-z
x,-y,1/2+z
1/2+x,1/2+y,z
1/2-x,1/2+y,1/2-z
1/2-x,1/2-y,-z
1/2+x,1/2-y,1/2+z
loop_
_atom_site_type_symbol
_atom_site_label
_atom_site_fract_x
_atom_site_fract_y
_atom_site_fract_z
Si Si1 0.260306 0.085858 0.494827
Si Si2 0.000000 0.992544 0.250000
Si Si3 0.869731 0.123204 0.305250
Si Si4 0.805636 0.446329 0.647335
Si Si5 0.000000 0.254860 0.250000
Si Si6 0.891998 0.296259 0.871946
Si Si7 0.465061 0.154003 0.049350
Si Si8 0.577807 0.372694 0.046665
O O1 0.286624 0.055208 0.324358
O O2 0.299094 0.171611 0.473431
O O3 0.158489 0.093419 0.573416
O O4 0.292772 0.029048 0.589253
O O5 0.078831 0.050355 0.171326
O O6 0.998631 0.929774 0.127965
O O7 0.767574 0.108062 0.374636
O O8 0.915736 0.200285 0.326519
O O9 0.897066 0.124403 0.127637
O O10 0.901757 0.415461 0.557200
O O11 0.998873 0.305327 0.388791
O O12 0.905250 0.297710 0.698617
O O13 0.924527 0.215398 0.906535
O O14 0.952916 0.358311 0.908489
#
# Coordination Sequence:
#
# PCOD9284678 Si02
#       8
#     8   4   8   8   4   8   8   8
#     4  10  22  40  62  90 126 161 207 254 306 358
#     4  11  20  34  62  89 122 164 194 249 314 370
#     4  10  22  38  58  92 128 151 204 254 308 369
#     4  10  22  43  61  91 124 164 204 257 302 375
#     4  11  22  40  62  91 124 160 198 261 310 366
#     4  10  21  41  63  91 118 166 211 253 296 372
#     4  10  22  40  64  88 125 160 208 250 309 360
#     4  11  20  37  62  88 125 162 203 251 304 369
#
# _framework density 21.217877000000001
#
# number of rings (size 3 to 8) (size 9 to 14) (size 15 to 20)
#    0.000    1.714    2.857    1.714    0.000    2.286 
#    2.571    1.429    0.000    0.000    0.000    0.000 
#    0.000    0.000    0.000    0.000    0.000    0.000 
#
# Total GULP energy -155941.369577 kJ/mol
# GULP energy per Si atom -5569.334628 kJ/mol
# Density = 2.116958 g / cm^3
# Si number density = 21.217877 Si / 1000 Ang^3
#
#
#
# Elastic Constant Matrix: (Units=GPa)
#
#
# Indices 1 2 3 4 5 6 
#
# 1 57.0147 22.8306 12.8251 0.0000 1.2581 0.0000
# 2 22.8306 57.3338 22.4202 0.0000 2.6335 0.0000
# 3 12.8251 22.4202 55.0696 0.0000 2.5983 0.0000
# 4 0.0000 0.0000 0.0000 24.8108 0.0000 10.1209
# 5 1.2581 2.6335 2.5983 0.0000 24.7327 0.0000
# 6 0.0000 0.0000 0.0000 10.1209 0.0000 76.1903
#
#
#
# Elastic Compliance Matrix: (Units=1/GPa)
#
#
# Indices 1 2 3 4 5 6 
#
# 1 0.021011 -0.007673 -0.001766 0.000000 -0.000066 0.000000
# 2 -0.007673 0.023590 -0.007755 0.000000 -0.001307 0.000000
# 3 -0.001766 -0.007755 0.021792 0.000000 -0.001374 0.000000
# 4 0.000000 0.000000 0.000000 0.042614 0.000000 -0.005661
# 5 -0.000066 -0.001307 -0.001374 0.000000 0.040719 0.000000
# 6 0.000000 0.000000 0.000000 -0.005661 0.000000 0.013877
#
#
# Mechanical properties :
#
#
# Convention : Reuss Voigt Hill
#
# Bulk Modulus (GPa) = 31.24616 31.72996 31.48806
# Shear Modulus (GPa) = 23.96242 32.56956 28.26599
#
# Velocity S-wave (km/s) = 3.36423 3.92217 3.65386
# Velocity P-wave (km/s) = 5.46342 5.95802 5.71607
#
# Compressibility (1/GPa) = 0.03200393
#
# Stress axis : x y z
#
# Youngs Moduli (GPa) = 47.59515 42.39115 45.88750
#
# Poissons Ratio (x) = 0.32526 0.08105
# Poissons Ratio (y) = 0.36519 0.35588
# Poissons Ratio (z) = 0.08406 0.32876
#
# Static dielectric constant tensor:
#      x y z
#    x 1.838150 0.000000 -0.021800 
#    y 0.000000 1.781120 0.000000 
#    z -0.021800 0.000000 1.762710 
# 
# From -- ./inp_files/49070.got.cif
#   From: 2010.05.17/outbox.cif.g08.bks.cpg/sg15_25_cif.got.tgz:49070.got - 2010.06.03 18:47:42.
