data_PCOD9284437
_publ_section_title
;
Structure prediction by ZEFSAII (Michael W. Deem and Ramdas Pophale) SiO2 
 PCOD9284437
Probable space group: C 2/C
;
_chemical_formula_sum "Si O2"
_cell_formula_units_Z 52
_cell_length_a 26.115584
_cell_length_b 19.714584
_cell_length_c 5.124925
_cell_angle_alpha 90.000000
_cell_angle_beta 67.772897
_cell_angle_gamma 90.000000
_cell_volume 2442.537647
_symmetry_space_group_name_H-M "C 2/C"
_symmetry_group_IT_number 15
_symmetry_cell_setting 'monoclinic'
loop_
_space_group_symop_operation_xyz
x,y,z
-x,y,1/2-z
-x,-y,-z
x,-y,1/2+z
1/2+x,1/2+y,z
1/2-x,1/2+y,1/2-z
1/2-x,1/2-y,-z
1/2+x,1/2-y,1/2+z
loop_
_atom_site_type_symbol
_atom_site_label
_atom_site_fract_x
_atom_site_fract_y
_atom_site_fract_z
Si Si1 0.410336 0.256418 0.444759
Si Si2 0.376593 0.960936 0.602585
Si Si3 0.000000 0.572803 0.750000
Si Si4 0.500000 0.452009 0.750000
Si Si5 0.093810 0.160703 0.065790
Si Si6 0.712172 0.294789 0.379359
Si Si7 0.180629 0.672316 0.059310
Si Si8 0.500000 0.844677 0.750000
O O1 0.431552 0.285637 0.677242
O O2 0.356989 0.208513 0.588750
O O3 0.452654 0.203902 0.237681
O O4 0.403836 0.314480 0.239086
O O5 0.443908 0.960365 0.469684
O O6 0.351189 0.889911 0.747386
O O7 0.358922 0.982913 0.348550
O O8 0.978939 0.613602 0.537200
O O9 0.500000 0.500000 0.500000
O O10 0.445303 0.404480 0.848122
O O11 0.157561 0.161250 0.050950
O O12 0.750000 0.250000 0.500000
O O13 0.689248 0.235916 0.235071
O O14 0.757839 0.343462 0.157490
#
# Coordination Sequence:
#
# PCOD9284437 Si02
#       8
#     8   8   4   4   8   8   8   4
#     4  11  21  37  64  99 138 162 215 292 344 403
#     4  12  27  44  63  87 132 184 227 267 310 400
#     4  12  24  40  60  86 125 175 232 262 310 384
#     4  12  26  48  70  96 144 196 230 280 340 424
#     4  11  23  41  68 102 134 174 225 279 349 413
#     4  10  21  40  72 101 134 164 213 296 354 415
#     4  10  23  41  63 100 131 172 220 274 361 396
#     4  12  22  34  62  96 125 173 206 278 334 392
#
# _framework density 21.289335000000001
#
# number of rings (size 3 to 8) (size 9 to 14) (size 15 to 20)
#    0.000    0.923    3.077    4.154    4.308    0.000 
#    0.000    1.538    0.000    0.000    0.000    0.000 
#    0.000    0.000    0.000    0.000    0.000    0.000 
#
# Total GULP energy -144977.147734 kJ/mol
# GULP energy per Si atom -5576.044144 kJ/mol
# Density = 2.124088 g / cm^3
# Si number density = 21.289335 Si / 1000 Ang^3
#
#
#
# Elastic Constant Matrix: (Units=GPa)
#
#
# Indices 1 2 3 4 5 6 
#
# 1 83.7156 46.0161 32.6808 0.0000 -20.7786 0.0000
# 2 46.0161 92.6032 52.1115 0.0000 -23.3978 0.0000
# 3 32.6808 52.1115 110.5500 0.0000 -7.9069 0.0000
# 4 0.0000 0.0000 0.0000 37.4651 0.0000 1.1338
# 5 -20.7786 -23.3978 -7.9069 0.0000 43.1954 0.0000
# 6 0.0000 0.0000 0.0000 1.1338 0.0000 5.6549
#
#
#
# Elastic Compliance Matrix: (Units=1/GPa)
#
#
# Indices 1 2 3 4 5 6 
#
# 1 0.017303 -0.006486 -0.001736 0.000000 0.004492 0.000000
# 2 -0.006486 0.019391 -0.006784 0.000000 0.006142 0.000000
# 3 -0.001736 -0.006784 0.012599 0.000000 -0.002204 0.000000
# 4 0.000000 0.000000 0.000000 0.026854 0.000000 -0.005384
# 5 0.004492 0.006142 -0.002204 0.000000 0.028235 0.000000
# 6 0.000000 0.000000 0.000000 -0.005384 0.000000 0.177917
#
#
# Mechanical properties :
#
#
# Convention : Reuss Voigt Hill
#
# Bulk Modulus (GPa) = 51.86523 60.94284 56.40404
# Shear Modulus (GPa) = 15.68673 27.66713 21.67693
#
# Velocity S-wave (km/s) = 2.71742 3.60888 3.19440
# Velocity P-wave (km/s) = 5.85327 6.78627 6.33696
#
# Compressibility (1/GPa) = 0.01928074
#
# Stress axis : x y z
#
# Youngs Moduli (GPa) = 57.79250 51.56954 79.36961
#
# Poissons Ratio (x) = 0.33448 0.13782
# Poissons Ratio (y) = 0.37484 0.53845
# Poissons Ratio (z) = 0.10036 0.34985
#
# Static dielectric constant tensor:
#      x y z
#    x 1.884890 0.000000 -0.050950 
#    y 0.000000 1.755690 0.000000 
#    z -0.050950 0.000000 1.862500 
# 
# From -- ./inp_files/17118.got.cif
#   From: 2010.05.17/outbox.cif.g08.bks.cpg/sg15_9_cif.got.tgz:17118.got - 2010.06.03 18:47:42.
