data_PCOD9284766
_publ_section_title
;
Structure prediction by ZEFSAII (Michael W. Deem and Ramdas Pophale) SiO2 
 PCOD9284766
Probable space group: C 2/C
;
_chemical_formula_sum "Si O2"
_cell_formula_units_Z 64
_cell_length_a 17.361480
_cell_length_b 9.642090
_cell_length_c 30.138163
_cell_angle_alpha 90.000000
_cell_angle_beta 140.722817
_cell_angle_gamma 90.000000
_cell_volume 3193.951061
_symmetry_space_group_name_H-M "C 2/C"
_symmetry_group_IT_number 15
_symmetry_cell_setting 'monoclinic'
loop_
_space_group_symop_operation_xyz
x,y,z
-x,y,1/2-z
-x,-y,-z
x,-y,1/2+z
1/2+x,1/2+y,z
1/2-x,1/2+y,1/2-z
1/2-x,1/2-y,-z
1/2+x,1/2-y,1/2+z
loop_
_atom_site_type_symbol
_atom_site_label
_atom_site_fract_x
_atom_site_fract_y
_atom_site_fract_z
Si Si1 0.824724 0.738430 0.207138
Si Si2 0.366820 0.138904 0.824228
Si Si3 0.400684 0.031652 0.085989
Si Si4 0.763795 0.856559 0.418384
Si Si5 0.722405 0.559241 0.677465
Si Si6 0.717590 0.552363 0.432341
Si Si7 0.896360 0.222603 0.645165
Si Si8 0.478627 0.407591 0.578035
O O1 0.733360 0.859714 0.181421
O O2 0.781292 0.594079 0.208793
O O3 0.830144 0.706811 0.157318
O O4 0.960132 0.777217 0.281901
O O5 0.459533 0.012845 0.857563
O O6 0.287373 0.153059 0.743690
O O7 0.451870 0.267417 0.876645
O O8 0.335721 0.937457 0.095353
O O9 0.379397 0.188003 0.093238
O O10 0.336885 0.000092 0.011043
O O11 0.755215 0.889263 0.362558
O O12 0.742253 0.694190 0.418111
O O13 0.898062 0.893854 0.497545
O O14 0.578646 0.529598 0.620503
O O15 0.659058 0.429281 0.378798
O O16 0.620802 0.574425 0.428357
#
# Coordination Sequence:
#
# PCOD9284766 Si02
#       8
#     8   8   8   8   8   8   8   8
#     4  10  23  40  62  87 126 168 208 271 324 379
#     4  11  21  40  64  91 124 161 213 269 320 371
#     4  11  20  40  66  88 124 172 213 258 317 401
#     4  11  21  40  64  97 124 166 216 267 320 380
#     4  11  22  38  67  92 123 169 227 256 324 396
#     4  11  22  40  61  95 126 165 210 265 329 375
#     4  11  22  42  62  90 126 170 217 255 320 395
#     4  10  21  41  64  90 130 165 206 271 325 378
#
# _framework density 20.037877999999999
#
# number of rings (size 3 to 8) (size 9 to 14) (size 15 to 20)
#    0.000    1.250    5.000    2.250    0.000    0.500 
#    9.000    0.625    0.000    0.000    0.000    0.000 
#    0.000    0.000    0.000    0.000    0.000    0.000 
#
# Total GULP energy -178494.362914 kJ/mol
# GULP energy per Si atom -5577.948841 kJ/mol
# Density = 1.999227 g / cm^3
# Si number density = 20.037878 Si / 1000 Ang^3
#
#
#
# Elastic Constant Matrix: (Units=GPa)
#
#
# Indices 1 2 3 4 5 6 
#
# 1 72.5579 3.0704 40.9893 0.0000 14.0417 0.0000
# 2 3.0704 27.6703 12.0628 0.0000 6.6066 0.0000
# 3 40.9893 12.0628 71.7334 0.0000 7.9646 0.0000
# 4 0.0000 0.0000 0.0000 20.0285 0.0000 -1.1233
# 5 14.0417 6.6066 7.9646 0.0000 19.4246 0.0000
# 6 0.0000 0.0000 0.0000 -1.1233 0.0000 29.2124
#
#
#
# Elastic Compliance Matrix: (Units=1/GPa)
#
#
# Indices 1 2 3 4 5 6 
#
# 1 0.023519 0.006350 -0.012970 0.000000 -0.013843 0.000000
# 2 0.006350 0.043130 -0.009160 0.000000 -0.015503 0.000000
# 3 -0.012970 -0.009160 0.022531 0.000000 0.003253 0.000000
# 4 0.000000 0.000000 0.000000 0.050037 0.000000 0.001924
# 5 -0.013843 -0.015503 0.003253 0.000000 0.065427 0.000000
# 6 0.000000 0.000000 0.000000 0.001924 0.000000 0.034306
#
#
# Mechanical properties :
#
#
# Convention : Reuss Voigt Hill
#
# Bulk Modulus (GPa) = 17.35504 31.57850 24.46677
# Shear Modulus (GPa) = 17.25824 21.45573 19.35699
#
# Velocity S-wave (km/s) = 2.93794 3.27579 3.11146
# Velocity P-wave (km/s) = 4.49317 5.48647 5.01448
#
# Compressibility (1/GPa) = 0.05762013
#
# Stress axis : x y z
#
# Youngs Moduli (GPa) = 42.51820 23.18571 44.38363
#
# Poissons Ratio (x) = -0.14722 0.57565
# Poissons Ratio (y) = -0.26997 0.40654
# Poissons Ratio (z) = 0.55146 0.21237
#
# Static dielectric constant tensor:
#      x y z
#    x 1.785420 0.000000 -0.006400 
#    y 0.000000 1.744500 0.000000 
#    z -0.006400 0.000000 1.733280 
# 
# From -- ./inp_files/315730.got.cif
#   From: 2010.05.17/outbox.cif.g08.bks.cpg/sg15_158_cif.got.tgz:315730.got - 2010.06.03 18:47:42.
