data_PCOD9284535
_publ_section_title
;
Structure prediction by ZEFSAII (Michael W. Deem and Ramdas Pophale) SiO2 
 PCOD9284535
Probable space group: C 2/C
;
_chemical_formula_sum "Si O2"
_cell_formula_units_Z 48
_cell_length_a 19.217817
_cell_length_b 14.375801
_cell_length_c 18.683012
_cell_angle_alpha 90.000000
_cell_angle_beta 24.847313
_cell_angle_gamma 90.000000
_cell_volume 2168.905606
_symmetry_space_group_name_H-M "C 2/C"
_symmetry_group_IT_number 15
_symmetry_cell_setting 'monoclinic'
loop_
_space_group_symop_operation_xyz
x,y,z
-x,y,1/2-z
-x,-y,-z
x,-y,1/2+z
1/2+x,1/2+y,z
1/2-x,1/2+y,1/2-z
1/2-x,1/2-y,-z
1/2+x,1/2-y,1/2+z
loop_
_atom_site_type_symbol
_atom_site_label
_atom_site_fract_x
_atom_site_fract_y
_atom_site_fract_z
Si Si1 0.419264 0.615807 0.616301
Si Si2 0.928390 0.449319 0.739625
Si Si3 0.907999 0.962193 0.974901
Si Si4 0.297625 0.818288 0.742091
Si Si5 0.583460 0.715073 0.246212
Si Si6 0.077960 0.628951 0.530434
O O1 0.448080 0.539830 0.651336
O O2 0.356490 0.561581 0.604830
O O3 0.314597 0.707120 0.729233
O O4 0.605570 0.652223 0.425036
O O5 0.893531 0.363915 0.719162
O O6 0.000000 0.424751 0.750000
O O7 0.037692 0.526686 0.596189
O O8 0.748961 0.497022 0.918668
O O9 0.974816 0.868914 0.878618
O O10 0.374113 0.859041 0.597198
O O11 0.500000 0.742641 0.250000
O O12 0.573755 0.802820 0.307969
O O13 0.766912 0.674141 0.072071
#
# Coordination Sequence:
#
# PCOD9284535 Si02
#       6
#     8   8   8   8   8   8
#     4  10  22  39  64  91 120 157 206 261 295 353
#     4  11  25  42  61  90 128 163 203 256 307 361
#     4  10  21  41  61  87 126 159 202 252 305 356
#     4  11  22  41  64  93 120 161 209 251 304 365
#     4  12  23  37  59  89 127 162 199 250 313 368
#     4  12  22  38  59  92 119 163 204 249 306 368
#
# _framework density 22.130977000000001
#
# number of rings (size 3 to 8) (size 9 to 14) (size 15 to 20)
#    0.000    1.000    3.333    3.500    2.333    1.333 
#    0.000    4.167    0.000    0.000    0.000    0.000 
#    0.000    0.000    0.000    0.000    0.000    0.000 
#
# Total GULP energy -134391.403622 kJ/mol
# GULP energy per Si atom -5599.641818 kJ/mol
# Density = 2.208061 g / cm^3
# Si number density = 22.130977 Si / 1000 Ang^3
#
#
#
# Elastic Constant Matrix: (Units=GPa)
#
#
# Indices 1 2 3 4 5 6 
#
# 1 136.4647 18.5627 12.0494 0.0096 -12.2289 -0.0011
# 2 18.5627 79.9818 -3.2616 0.0139 2.1481 -0.0022
# 3 12.0494 -3.2616 23.7310 0.0151 -6.6157 -0.0029
# 4 0.0096 0.0139 0.0151 27.0459 -0.0022 -10.0863
# 5 -12.2289 2.1481 -6.6157 -0.0022 27.7223 -0.0001
# 6 -0.0011 -0.0022 -0.0029 -10.0863 -0.0001 25.0678
#
#
#
# Elastic Compliance Matrix: (Units=1/GPa)
#
#
# Indices 1 2 3 4 5 6 
#
# 1 0.008200 -0.002130 -0.003645 0.000000 0.002913 0.000000
# 2 -0.002130 0.013136 0.002508 -0.000008 -0.001359 -0.000002
# 3 -0.003645 0.002508 0.046956 -0.000027 0.009404 -0.000005
# 4 0.000000 -0.000008 -0.000027 0.043502 -0.000002 0.017503
# 5 0.002913 -0.001359 0.009404 -0.000002 0.039706 0.000000
# 6 0.000000 -0.000002 -0.000005 0.017503 0.000000 0.046934
#
#
# Mechanical properties :
#
#
# Convention : Reuss Voigt Hill
#
# Bulk Modulus (GPa) = 16.19189 32.76428 24.47808
# Shear Modulus (GPa) = 22.16763 30.15567 26.16165
#
# Velocity S-wave (km/s) = 3.16833 3.69535 3.44194
# Velocity P-wave (km/s) = 4.55156 5.74842 5.18464
#
# Compressibility (1/GPa) = 0.06175930
#
# Stress axis : x y z
#
# Youngs Moduli (GPa) = 121.94441 76.12678 21.29661
#
# Poissons Ratio (x) = 0.16215 0.07762
# Poissons Ratio (y) = 0.25975 -0.05341
# Poissons Ratio (z) = 0.44443 -0.19094
#
# Static dielectric constant tensor:
#      x y z
#    x 1.802650 0.000000 -0.017200 
#    y 0.000000 1.796340 0.000000 
#    z -0.017200 0.000000 1.862200 
# 
# From -- ./inp_files/66431.got.cif
#   From: 2010.05.17/outbox.cif.g08.bks.cpg/sg15_34_cif.got.tgz:66431.got - 2010.06.03 18:47:42.
