data_PCOD9284512
_publ_section_title
;
Structure prediction by ZEFSAII (Michael W. Deem and Ramdas Pophale) SiO2 
 PCOD9284512
Probable space group: C 2/C
;
_chemical_formula_sum "Si O2"
_cell_formula_units_Z 64
_cell_length_a 23.894286
_cell_length_b 12.927808
_cell_length_c 12.125438
_cell_angle_alpha 90.000000
_cell_angle_beta 66.529590
_cell_angle_gamma 90.000000
_cell_volume 3435.671459
_symmetry_space_group_name_H-M "C 2/C"
_symmetry_group_IT_number 15
_symmetry_cell_setting 'monoclinic'
loop_
_space_group_symop_operation_xyz
x,y,z
-x,y,1/2-z
-x,-y,-z
x,-y,1/2+z
1/2+x,1/2+y,z
1/2-x,1/2+y,1/2-z
1/2-x,1/2-y,-z
1/2+x,1/2-y,1/2+z
loop_
_atom_site_type_symbol
_atom_site_label
_atom_site_fract_x
_atom_site_fract_y
_atom_site_fract_z
Si Si1 0.167907 0.116554 0.298868
Si Si2 0.678446 0.716050 0.055680
Si Si3 0.888694 0.604305 0.355401
Si Si4 0.034023 0.779320 0.328907
Si Si5 0.725370 0.790890 0.636189
Si Si6 0.080170 0.710346 0.947189
Si Si7 0.151245 0.874384 0.336821
Si Si8 0.428328 0.872527 0.286187
O O1 0.172120 0.141647 0.166184
O O2 0.224203 0.165039 0.321486
O O3 0.111069 0.180852 0.392176
O O4 0.164590 0.995042 0.318647
O O5 0.625453 0.803190 0.116199
O O6 0.750000 0.750000 0.000000
O O7 0.663650 0.663892 0.950803
O O8 0.931570 0.681605 0.252368
O O9 0.822829 0.618035 0.352090
O O10 0.885874 0.651045 0.480581
O O11 0.915812 0.490110 0.331990
O O12 0.082554 0.851575 0.350472
O O13 0.000000 0.830009 0.250000
O O14 0.986265 0.735594 0.453806
O O15 0.750000 0.750000 0.500000
O O16 0.692328 0.695535 0.723184
O O17 0.080424 0.641543 0.837889
O O18 0.500000 0.844370 0.250000
#
# Coordination Sequence:
#
# PCOD9284512 Si02
#       8
#     8   8   8   8   8   8   8   8
#     4  11  25  41  67  93 126 173 212 264 322 389
#     4  11  25  45  61  97 138 168 218 267 326 398
#     4  10  22  37  65  94 122 170 214 264 322 387
#     4   9  20  40  64  94 130 164 217 270 311 385
#     4  11  23  42  64  94 128 166 218 265 320 382
#     4  10  21  41  60  88 131 158 211 270 311 384
#     4  11  25  42  68  93 127 172 211 266 326 386
#     4  11  24  40  64  94 129 173 212 265 338 387
#
# _framework density 18.628091000000001
#
# number of rings (size 3 to 8) (size 9 to 14) (size 15 to 20)
#    0.000    1.500    2.500    1.875    3.500    4.500 
#    0.000    2.500    0.000    0.000    0.000    0.000 
#    0.000    0.000    0.000    0.000    0.000    0.000 
#
# Total GULP energy -178611.771351 kJ/mol
# GULP energy per Si atom -5581.617855 kJ/mol
# Density = 1.858569 g / cm^3
# Si number density = 18.628091 Si / 1000 Ang^3
#
#
#
# Elastic Constant Matrix: (Units=GPa)
#
#
# Indices 1 2 3 4 5 6 
#
# 1 106.0901 35.9191 41.1645 0.0000 8.7621 0.0000
# 2 35.9191 97.0265 51.2569 0.0000 12.2269 0.0000
# 3 41.1645 51.2569 140.2215 0.0000 12.7173 0.0000
# 4 0.0000 0.0000 0.0000 -151.9797 0.0000 124.9897
# 5 8.7621 12.2269 12.7173 0.0000 25.4709 0.0000
# 6 0.0000 0.0000 0.0000 124.9897 0.0000 -77.2915
#
#
#
# Elastic Compliance Matrix: (Units=1/GPa)
#
#
# Indices 1 2 3 4 5 6 
#
# 1 0.011356 -0.002887 -0.002147 0.000000 -0.001449 0.000000
# 2 -0.002887 0.013904 -0.003896 0.000000 -0.003736 0.000000
# 3 -0.002147 -0.003896 0.009374 0.000000 -0.002071 0.000000
# 4 0.000000 0.000000 0.000000 0.019943 0.000000 0.032250
# 5 -0.001449 -0.003736 -0.002071 0.000000 0.042587 0.000000
# 6 0.000000 0.000000 0.000000 0.032250 0.000000 0.039213
#
#
# Mechanical properties :
#
#
# Convention : Reuss Voigt Hill
#
# Bulk Modulus (GPa) = 59.61756 66.66879 63.14317
# Shear Modulus (GPa) = 31.28336 -26.42689 2.42823
#
# Velocity S-wave (km/s) = 4.10245 -3.77059 1.14296
# Velocity P-wave (km/s) = 7.38334 4.11225 5.97596
#
# Compressibility (1/GPa) = 0.01677358
#
# Stress axis : x y z
#
# Youngs Moduli (GPa) = 88.05748 71.91968 106.67848
#
# Poissons Ratio (x) = 0.20765 0.22904
# Poissons Ratio (y) = 0.25425 0.41564
# Poissons Ratio (z) = 0.18906 0.28021
#
# Static dielectric constant tensor:
#      x y z
#    x 1.685420 0.000000 -0.015190 
#    y 0.000000 1.597110 0.000000 
#    z -0.015190 0.000000 1.623900 
# 
# From -- ./inp_files/117996.got.cif
#   From: 2010.05.17/outbox.cif.g08.bks.cpg/sg15_59_cif.got.tgz:117996.got - 2010.06.03 18:47:42.
