data_PCOD9284164
_publ_section_title
;
Structure prediction by ZEFSAII (Michael W. Deem and Ramdas Pophale) SiO2 
 PCOD9284164
Probable space group: C 2/C
;
_chemical_formula_sum "Si O2"
_cell_formula_units_Z 52
_cell_length_a 14.802525
_cell_length_b 10.013352
_cell_length_c 17.246117
_cell_angle_alpha 90.000000
_cell_angle_beta 122.999495
_cell_angle_gamma 90.000000
_cell_volume 2143.880147
_symmetry_space_group_name_H-M "C 2/C"
_symmetry_group_IT_number 15
_symmetry_cell_setting 'monoclinic'
loop_
_space_group_symop_operation_xyz
x,y,z
-x,y,1/2-z
-x,-y,-z
x,-y,1/2+z
1/2+x,1/2+y,z
1/2-x,1/2+y,1/2-z
1/2-x,1/2-y,-z
1/2+x,1/2-y,1/2+z
loop_
_atom_site_type_symbol
_atom_site_label
_atom_site_fract_x
_atom_site_fract_y
_atom_site_fract_z
Si Si1 0.293465 0.693961 0.829319
Si Si2 0.882255 0.659793 0.961043
Si Si3 0.121456 0.615519 0.013939
Si Si4 0.664157 0.390467 0.662920
Si Si5 0.481466 0.749952 0.656255
Si Si6 0.553909 0.444094 0.857058
Si Si7 0.250000 0.250000 0.500000
O O1 0.279240 0.534954 0.817297
O O2 0.207259 0.790768 0.749585
O O3 0.404261 0.727822 0.834478
O O4 0.312331 0.750903 0.925869
O O5 0.827442 0.794222 0.907701
O O6 0.998366 0.643035 0.973479
O O7 0.833947 0.514458 0.922570
O O8 0.909779 0.665896 0.064184
O O9 0.154152 0.630630 0.941890
O O10 0.160748 0.868603 0.928703
O O11 0.539019 0.422219 0.621528
O O12 0.500000 0.806969 0.750000
O O13 0.429018 0.603832 0.641176
O O14 0.500000 0.403663 0.750000
#
# Coordination Sequence:
#
# PCOD9284164 Si02
#       7
#     8   8   8   8   8   8   4
#     4  10  22  38  66  92 133 176 219 276 333 412
#     4  10  21  40  67  92 131 169 220 281 332 401
#     4  10  22  40  62  94 130 174 216 276 336 403
#     4  11  21  39  65  98 128 179 229 269 340 406
#     4   9  21  42  64  92 129 171 219 279 342 401
#     4  10  22  39  63  95 137 174 219 280 338 408
#     4  12  22  40  66  96 132 176 222 270 344 412
#
# _framework density 24.255089000000002
#
# number of rings (size 3 to 8) (size 9 to 14) (size 15 to 20)
#    0.000    1.846    1.538    1.846    2.154    4.308 
#    2.769    2.308    0.000    0.000    0.000    0.000 
#    0.000    0.000    0.000    0.000    0.000    0.000 
#
# Total GULP energy -144842.350273 kJ/mol
# GULP energy per Si atom -5570.859626 kJ/mol
# Density = 2.419988 g / cm^3
# Si number density = 24.255089 Si / 1000 Ang^3
#
#
#
# Elastic Constant Matrix: (Units=GPa)
#
#
# Indices 1 2 3 4 5 6 
#
# 1 70.0094 36.0592 22.6736 0.0000 -7.0768 0.0000
# 2 36.0592 151.9077 21.7966 0.0000 6.3636 0.0000
# 3 22.6736 21.7966 83.3773 0.0000 -6.6906 0.0000
# 4 0.0000 0.0000 0.0000 30.5658 0.0000 7.4830
# 5 -7.0768 6.3636 -6.6906 0.0000 24.1579 0.0000
# 6 0.0000 0.0000 0.0000 7.4830 0.0000 13.2097
#
#
#
# Elastic Compliance Matrix: (Units=1/GPa)
#
#
# Indices 1 2 3 4 5 6 
#
# 1 0.017998 -0.004008 -0.003415 0.000000 0.005382 0.000000
# 2 -0.004008 0.007865 -0.001254 0.000000 -0.003593 0.000000
# 3 -0.003415 -0.001254 0.013496 0.000000 0.003068 0.000000
# 4 0.000000 0.000000 0.000000 0.037984 0.000000 -0.021517
# 5 0.005382 -0.003593 0.003068 0.000000 0.044767 0.000000
# 6 0.000000 0.000000 0.000000 -0.021517 0.000000 0.087891
#
#
# Mechanical properties :
#
#
# Convention : Reuss Voigt Hill
#
# Bulk Modulus (GPa) = 45.44381 51.81703 48.63042
# Shear Modulus (GPa) = 21.30460 28.57100 24.93780
#
# Velocity S-wave (km/s) = 2.96692 3.43583 3.20995
# Velocity P-wave (km/s) = 5.52388 6.09505 5.81648
#
# Compressibility (1/GPa) = 0.02200520
#
# Stress axis : x y z
#
# Youngs Moduli (GPa) = 55.56156 127.14835 74.09375
#
# Poissons Ratio (x) = 0.50959 0.25301
# Poissons Ratio (y) = 0.22268 0.09295
# Poissons Ratio (z) = 0.18973 0.15951
#
# Static dielectric constant tensor:
#      x y z
#    x 2.131290 0.000000 -0.179860 
#    y 0.000000 1.971910 0.000000 
#    z -0.179860 0.000000 2.058860 
# 
# From -- ./inp_files/209221.got.cif
#   From: 2010.05.17/outbox.cif.g08.bks.cpg/sg15_105_cif.got.tgz:209221.got - 2010.06.03 18:47:42.
