data_PCOD9284564
_publ_section_title
;
Structure prediction by ZEFSAII (Michael W. Deem and Ramdas Pophale) SiO2 
 PCOD9284564
Probable space group: C 2/C
;
_chemical_formula_sum "Si O2"
_cell_formula_units_Z 32
_cell_length_a 10.229765
_cell_length_b 24.573235
_cell_length_c 5.412751
_cell_angle_alpha 90.000000
_cell_angle_beta 107.057314
_cell_angle_gamma 90.000000
_cell_volume 1300.796317
_symmetry_space_group_name_H-M "C 2/C"
_symmetry_group_IT_number 15
_symmetry_cell_setting 'monoclinic'
loop_
_space_group_symop_operation_xyz
x,y,z
-x,y,1/2-z
-x,-y,-z
x,-y,1/2+z
1/2+x,1/2+y,z
1/2-x,1/2+y,1/2-z
1/2-x,1/2-y,-z
1/2+x,1/2-y,1/2+z
loop_
_atom_site_type_symbol
_atom_site_label
_atom_site_fract_x
_atom_site_fract_y
_atom_site_fract_z
Si Si1 0.857707 0.784090 0.822934
Si Si2 0.657510 0.169134 0.805673
Si Si3 0.859510 0.534677 0.243643
Si Si4 0.644907 0.606927 0.894081
O O1 0.730523 0.804602 0.584964
O O2 0.838861 0.720680 0.883666
O O3 0.000000 0.781320 0.750000
O O4 0.884941 0.832955 0.022593
O O5 0.500000 0.153436 0.750000
O O6 0.750286 0.119258 0.769514
O O7 0.859455 0.509037 0.516507
O O8 0.000000 0.566203 0.250000
O O9 0.728387 0.571901 0.135377
O O10 0.500000 0.580891 0.750000
#
# Coordination Sequence:
#
# PCOD9284564 Si02
#       4
#     8   8   8   8
#     4  10  21  41  61  94 140 178 221 274 334 398
#     4  10  23  39  63  94 136 183 224 271 328 402
#     4  10  26  49  73 101 135 173 225 290 350 416
#     4  12  25  40  68  98 134 174 227 280 345 406
#
# _framework density 24.600314000000001
#
# number of rings (size 3 to 8) (size 9 to 14) (size 15 to 20)
#    0.000    1.500    2.500    0.750    7.000    2.000 
#    0.000    0.000    0.000    0.000    0.000    0.000 
#    0.000    0.000    0.000    0.000    0.000    0.000 
#
# Total GULP energy -89431.297980 kJ/mol
# GULP energy per Si atom -5589.456124 kJ/mol
# Density = 2.454432 g / cm^3
# Si number density = 24.600314 Si / 1000 Ang^3
#
#
#
# Elastic Constant Matrix: (Units=GPa)
#
#
# Indices 1 2 3 4 5 6 
#
# 1 127.0148 17.8472 25.5241 0.0000 45.9888 0.0000
# 2 17.8472 29.9735 10.6400 0.0000 -4.0986 0.0000
# 3 25.5241 10.6400 84.3437 0.0000 14.5119 0.0000
# 4 0.0000 0.0000 0.0000 43.3790 0.0000 3.0472
# 5 45.9888 -4.0986 14.5119 0.0000 44.8696 0.0000
# 6 0.0000 0.0000 0.0000 3.0472 0.0000 14.0016
#
#
#
# Elastic Compliance Matrix: (Units=1/GPa)
#
#
# Indices 1 2 3 4 5 6 
#
# 1 0.015769 -0.011598 -0.000366 0.000000 -0.017103 0.000000
# 2 -0.011598 0.044500 -0.005134 0.000000 0.017613 0.000000
# 3 -0.000366 -0.005134 0.013375 0.000000 -0.004420 0.000000
# 4 0.000000 0.000000 0.000000 0.023411 0.000000 -0.005095
# 5 -0.017103 0.017613 -0.004420 0.000000 0.042855 0.000000
# 6 0.000000 0.000000 0.000000 -0.005095 0.000000 0.072529
#
#
# Mechanical properties :
#
#
# Convention : Reuss Voigt Hill
#
# Bulk Modulus (GPa) = 25.35065 38.81720 32.08392
# Shear Modulus (GPa) = 19.24671 32.93810 26.09241
#
# Velocity S-wave (km/s) = 2.80013 3.66311 3.26030
# Velocity P-wave (km/s) = 4.55870 5.80556 5.21950
#
# Compressibility (1/GPa) = 0.03944673
#
# Stress axis : x y z
#
# Youngs Moduli (GPa) = 63.41521 22.47207 74.76553
#
# Poissons Ratio (x) = 0.26064 0.02738
# Poissons Ratio (y) = 0.73550 0.38386
# Poissons Ratio (z) = 0.02322 0.11538
#
# Static dielectric constant tensor:
#      x y z
#    x 2.037960 0.000000 -0.064960 
#    y 0.000000 1.961900 0.000000 
#    z -0.064960 0.000000 2.007370 
# 
# From -- ./inp_files/2568.got.cif
#   From: 2010.05.17/outbox.cif.g08.bks.cpg/sg15_2_cif.got.tgz:2568.got - 2010.06.03 18:47:42.
