data_PCOD9284886
_publ_section_title
;
Structure prediction by ZEFSAII (Michael W. Deem and Ramdas Pophale) SiO2 
 PCOD9284886
Probable space group: C 2/C
;
_chemical_formula_sum "Si O2"
_cell_formula_units_Z 44
_cell_length_a 15.344315
_cell_length_b 8.767735
_cell_length_c 17.488704
_cell_angle_alpha 90.000000
_cell_angle_beta 132.181421
_cell_angle_gamma 90.000000
_cell_volume 1743.507693
_symmetry_space_group_name_H-M "C 2/C"
_symmetry_group_IT_number 15
_symmetry_cell_setting 'monoclinic'
loop_
_space_group_symop_operation_xyz
x,y,z
-x,y,1/2-z
-x,-y,-z
x,-y,1/2+z
1/2+x,1/2+y,z
1/2-x,1/2+y,1/2-z
1/2-x,1/2-y,-z
1/2+x,1/2-y,1/2+z
loop_
_atom_site_type_symbol
_atom_site_label
_atom_site_fract_x
_atom_site_fract_y
_atom_site_fract_z
Si Si1 0.183568 0.480550 0.095855
Si Si2 0.840277 0.466455 0.585393
Si Si3 0.500000 0.739942 0.750000
Si Si4 0.428829 0.522360 0.833120
Si Si5 0.197733 0.163979 0.602237
Si Si6 0.443990 0.170959 0.840480
O O1 0.308354 0.475611 0.212120
O O2 0.164503 0.660949 0.069476
O O3 0.091930 0.406554 0.100506
O O4 0.182145 0.401217 0.012497
O O5 0.885160 0.347253 0.675413
O O6 0.728390 0.561849 0.547296
O O7 0.952019 0.578401 0.638030
O O8 0.505758 0.637077 0.828704
O O9 0.394579 0.587607 0.895113
O O10 0.472474 0.349647 0.864160
O O11 0.324107 0.164260 0.720350
#
# Coordination Sequence:
#
# PCOD9284886 Si02
#       6
#     8   8   4   8   8   8
#     4  10  23  41  69  94 129 165 216 264 318 381
#     4  12  23  41  68  98 126 167 215 267 321 374
#     4  12  26  42  66  90 132 172 220 262 320 384
#     4  10  25  43  65  91 130 174 213 258 318 388
#     4  10  21  41  65  92 128 165 210 257 326 382
#     4  10  21  41  66  91 127 171 210 258 322 381
#
# _framework density 25.236481999999999
#
# number of rings (size 3 to 8) (size 9 to 14) (size 15 to 20)
#    0.000    1.455    1.818    2.182   12.727    0.727 
#    0.000    1.818    0.000    0.000    0.000    0.000 
#    0.000    0.000    0.000    0.000    0.000    0.000 
#
# Total GULP energy -123332.714113 kJ/mol
# GULP energy per Si atom -5606.032460 kJ/mol
# Density = 2.517904 g / cm^3
# Si number density = 25.236482 Si / 1000 Ang^3
#
#
#
# Elastic Constant Matrix: (Units=GPa)
#
#
# Indices 1 2 3 4 5 6 
#
# 1 115.6426 44.5668 21.2435 0.0000 -23.2617 0.0000
# 2 44.5668 129.7053 26.6910 0.0000 -4.4182 0.0000
# 3 21.2435 26.6910 100.2097 0.0000 -7.6978 0.0000
# 4 0.0000 0.0000 0.0000 38.3849 0.0000 -1.8414
# 5 -23.2617 -4.4182 -7.6978 0.0000 46.3005 0.0000
# 6 0.0000 0.0000 0.0000 -1.8414 0.0000 43.7564
#
#
#
# Elastic Compliance Matrix: (Units=1/GPa)
#
#
# Indices 1 2 3 4 5 6 
#
# 1 0.011205 -0.003457 -0.001061 0.000000 0.005123 0.000000
# 2 -0.003457 0.009232 -0.001815 0.000000 -0.001158 0.000000
# 3 -0.001061 -0.001815 0.010771 0.000000 0.001084 0.000000
# 4 0.000000 0.000000 0.000000 0.026105 0.000000 0.001099
# 5 0.005123 -0.001158 0.001084 0.000000 0.024242 0.000000
# 6 0.000000 0.000000 0.000000 0.001099 0.000000 0.022900
#
#
# Mechanical properties :
#
#
# Convention : Reuss Voigt Hill
#
# Bulk Modulus (GPa) = 53.93373 58.95114 56.44244
# Shear Modulus (GPa) = 40.55124 42.55878 41.55501
#
# Velocity S-wave (km/s) = 4.01290 4.11103 4.06226
# Velocity P-wave (km/s) = 6.54896 6.77823 6.66458
#
# Compressibility (1/GPa) = 0.01854127
#
# Stress axis : x y z
#
# Youngs Moduli (GPa) = 89.24469 108.32199 92.84449
#
# Poissons Ratio (x) = 0.37450 0.09851
# Poissons Ratio (y) = 0.30854 0.16850
# Poissons Ratio (z) = 0.09469 0.19660
#
# Static dielectric constant tensor:
#      x y z
#    x 1.919580 0.000000 0.033820 
#    y 0.000000 1.964470 0.000000 
#    z 0.033820 0.000000 2.032990 
# 
# From -- ./inp_files/202552.got.cif
#   From: 2010.05.17/outbox.cif.g08.bks.cpg/sg15_102_cif.got.tgz:202552.got - 2010.06.03 18:47:42.
