data_PCOD9284457
_publ_section_title
;
Structure prediction by ZEFSAII (Michael W. Deem and Ramdas Pophale) SiO2 
 PCOD9284457
Probable space group: C 2/C
;
_chemical_formula_sum "Si O2"
_cell_formula_units_Z 44
_cell_length_a 9.033400
_cell_length_b 11.523085
_cell_length_c 23.881369
_cell_angle_alpha 90.000000
_cell_angle_beta 45.123315
_cell_angle_gamma 90.000000
_cell_volume 1761.557933
_symmetry_space_group_name_H-M "C 2/C"
_symmetry_group_IT_number 15
_symmetry_cell_setting 'monoclinic'
loop_
_space_group_symop_operation_xyz
x,y,z
-x,y,1/2-z
-x,-y,-z
x,-y,1/2+z
1/2+x,1/2+y,z
1/2-x,1/2+y,1/2-z
1/2-x,1/2-y,-z
1/2+x,1/2-y,1/2+z
loop_
_atom_site_type_symbol
_atom_site_label
_atom_site_fract_x
_atom_site_fract_y
_atom_site_fract_z
Si Si1 0.154980 0.902524 0.309784
Si Si2 0.305224 0.435740 0.869741
Si Si3 0.000000 0.738111 0.750000
Si Si4 0.538130 0.131116 0.549395
Si Si5 0.707661 0.777967 0.577081
Si Si6 0.270331 0.467641 0.082135
O O1 0.373596 0.840274 0.238540
O O2 0.201912 0.938891 0.360890
O O3 0.978880 0.804537 0.354690
O O4 0.039109 0.009739 0.311395
O O5 0.333362 0.321261 0.825378
O O6 0.142837 0.533774 0.892701
O O7 0.203077 0.408240 0.957508
O O8 0.409019 0.239345 0.559694
O O9 0.672582 0.131886 0.569572
O O10 0.750000 0.750000 0.500000
O O11 0.652615 0.910788 0.602954
O O12 0.500000 0.500000 0.000000
#
# Coordination Sequence:
#
# PCOD9284457 Si02
#       6
#     8   8   4   8   8   8
#     4  11  25  43  63  97 132 174 225 274 339 415
#     4  10  22  43  68  97 131 179 224 279 336 413
#     4  12  26  42  68  90 138 188 224 266 352 416
#     4  10  21  40  73 102 131 169 230 290 349 398
#     4  11  21  39  63  96 136 171 213 281 342 395
#     4  12  22  38  66 104 135 161 218 290 344 406
#
# _framework density 24.977889999999999
#
# number of rings (size 3 to 8) (size 9 to 14) (size 15 to 20)
#    0.000    1.091    3.636    4.364    0.000    5.091 
#    0.000    1.818    0.000    4.364    0.000    0.000 
#    0.000    0.000    0.000    0.000    0.000    0.000 
#
# Total GULP energy -123096.447420 kJ/mol
# GULP energy per Si atom -5595.293065 kJ/mol
# Density = 2.492104 g / cm^3
# Si number density = 24.977890 Si / 1000 Ang^3
#
#
#
# Elastic Constant Matrix: (Units=GPa)
#
#
# Indices 1 2 3 4 5 6 
#
# 1 148.3632 52.9495 16.2129 0.0000 -9.5802 0.0000
# 2 52.9495 95.1573 3.7084 0.0000 -7.9336 0.0000
# 3 16.2129 3.7084 78.4333 0.0000 -15.8856 0.0000
# 4 0.0000 0.0000 0.0000 31.3751 0.0000 -8.7957
# 5 -9.5802 -7.9336 -15.8856 0.0000 33.2483 0.0000
# 6 0.0000 0.0000 0.0000 -8.7957 0.0000 59.4337
#
#
#
# Elastic Compliance Matrix: (Units=1/GPa)
#
#
# Indices 1 2 3 4 5 6 
#
# 1 0.008609 -0.004678 -0.001419 0.000000 0.000686 0.000000
# 2 -0.004678 0.013264 0.000784 0.000000 0.002192 0.000000
# 3 -0.001419 0.000784 0.014350 0.000000 0.006634 0.000000
# 4 0.000000 0.000000 0.000000 0.033252 0.000000 0.004921
# 5 0.000686 0.002192 0.006634 0.000000 0.033967 0.000000
# 6 0.000000 0.000000 0.000000 0.004921 0.000000 0.017554
#
#
# Mechanical properties :
#
#
# Convention : Reuss Voigt Hill
#
# Bulk Modulus (GPa) = 39.06927 51.96618 45.51772
# Shear Modulus (GPa) = 35.67480 41.41696 38.54588
#
# Velocity S-wave (km/s) = 3.78333 4.07645 3.93262
# Velocity P-wave (km/s) = 5.89578 6.55794 6.23566
#
# Compressibility (1/GPa) = 0.02559556
#
# Stress axis : x y z
#
# Youngs Moduli (GPa) = 116.15525 75.39138 69.68796
#
# Poissons Ratio (x) = 0.35268 0.09892
# Poissons Ratio (y) = 0.54337 -0.05461
# Poissons Ratio (z) = 0.16487 -0.05908
#
# Static dielectric constant tensor:
#      x y z
#    x 1.962000 0.000000 -0.040210 
#    y 0.000000 2.159430 0.000000 
#    z -0.040210 0.000000 1.955320 
# 
# From -- ./inp_files/287868.got.cif
#   From: 2010.05.17/outbox.cif.g08.bks.cpg/sg15_144_cif.got.tgz:287868.got - 2010.06.03 18:47:42.
