data_PCOD9284025
_publ_section_title
;
Structure prediction by ZEFSAII (Michael W. Deem and Ramdas Pophale) SiO2 
 PCOD9284025
Probable space group: C 2/C
;
_chemical_formula_sum "Si O2"
_cell_formula_units_Z 56
_cell_length_a 11.958576
_cell_length_b 13.175735
_cell_length_c 18.148277
_cell_angle_alpha 90.000000
_cell_angle_beta 108.040927
_cell_angle_gamma 90.000000
_cell_volume 2718.911832
_symmetry_space_group_name_H-M "C 2/C"
_symmetry_group_IT_number 15
_symmetry_cell_setting 'monoclinic'
loop_
_space_group_symop_operation_xyz
x,y,z
-x,y,1/2-z
-x,-y,-z
x,-y,1/2+z
1/2+x,1/2+y,z
1/2-x,1/2+y,1/2-z
1/2-x,1/2-y,-z
1/2+x,1/2-y,1/2+z
loop_
_atom_site_type_symbol
_atom_site_label
_atom_site_fract_x
_atom_site_fract_y
_atom_site_fract_z
Si Si1 0.943218 0.704568 0.657413
Si Si2 0.639177 0.425540 0.448761
Si Si3 0.329061 0.262085 0.417857
Si Si4 0.871396 0.534841 0.447960
Si Si5 0.529059 0.246564 0.341956
Si Si6 0.506409 0.622631 0.441910
Si Si7 0.002863 0.522557 0.338835
O O1 0.806331 0.731856 0.629174
O O2 0.008100 0.784832 0.617429
O O3 0.946787 0.587602 0.632391
O O4 0.000000 0.710452 0.750000
O O5 0.768329 0.469011 0.461587
O O6 0.617804 0.329802 0.391378
O O7 0.546889 0.517520 0.412843
O O8 0.602304 0.393687 0.524458
O O9 0.351617 0.153008 0.459470
O O10 0.408818 0.266678 0.361727
O O11 0.383079 0.345666 0.483403
O O12 0.000000 0.500000 0.500000
O O13 0.881015 0.526483 0.360278
O O14 0.500000 0.254411 0.250000
O O15 0.564356 0.130350 0.369138
O O16 0.000000 0.523374 0.250000
#
# Coordination Sequence:
#
# PCOD9284025 Si02
#       7
#     8   8   8   8   8   8   8
#     4  11  22  38  67  96 126 166 226 268 321 387
#     4  10  22  39  65  96 126 165 218 264 319 389
#     4  10  21  40  66  90 125 180 213 264 324 385
#     4  11  22  39  65  93 126 170 212 259 322 386
#     4   9  20  41  64  87 128 169 209 264 333 384
#     4  10  21  41  66  95 127 167 219 266 322 377
#     4   9  21  40  60  88 124 167 211 252 318 386
#
# _framework density 20.596475000000002
#
# number of rings (size 3 to 8) (size 9 to 14) (size 15 to 20)
#    0.000    2.000    1.429    1.286    2.000    2.857 
#    0.000   17.143    3.143    0.000    0.000    0.000 
#    0.000    0.000    0.000    0.000    0.000    0.000 
#
# Total GULP energy -156240.849417 kJ/mol
# GULP energy per Si atom -5580.030336 kJ/mol
# Density = 2.054960 g / cm^3
# Si number density = 20.596475 Si / 1000 Ang^3
#
#
#
# Elastic Constant Matrix: (Units=GPa)
#
#
# Indices 1 2 3 4 5 6 
#
# 1 107.1130 39.2999 32.9089 0.0000 -6.3205 0.0000
# 2 39.2999 168.8801 39.4693 0.0000 0.5710 0.0000
# 3 32.9089 39.4693 78.2776 0.0000 -17.4189 0.0000
# 4 0.0000 0.0000 0.0000 37.2924 0.0000 -5.3774
# 5 -6.3205 0.5710 -17.4189 0.0000 27.5569 0.0000
# 6 0.0000 0.0000 0.0000 -5.3774 0.0000 31.8762
#
#
#
# Elastic Compliance Matrix: (Units=1/GPa)
#
#
# Indices 1 2 3 4 5 6 
#
# 1 0.011135 -0.001710 -0.003774 0.000000 0.000204 0.000000
# 2 -0.001710 0.007146 -0.003496 0.000000 -0.002750 0.000000
# 3 -0.003774 -0.003496 0.018558 0.000000 0.010938 0.000000
# 4 0.000000 0.000000 0.000000 0.027484 0.000000 0.004636
# 5 0.000204 -0.002750 0.010938 0.000000 0.043306 0.000000
# 6 0.000000 0.000000 0.000000 0.004636 0.000000 0.032154
#
#
# Mechanical properties :
#
#
# Convention : Reuss Voigt Hill
#
# Bulk Modulus (GPa) = 52.96780 64.18077 58.57428
# Shear Modulus (GPa) = 30.48138 35.51792 32.99965
#
# Velocity S-wave (km/s) = 3.85116 4.15717 4.00709
# Velocity P-wave (km/s) = 6.74893 7.36692 7.06468
#
# Compressibility (1/GPa) = 0.01887939
#
# Stress axis : x y z
#
# Youngs Moduli (GPa) = 89.80914 139.94519 53.88426
#
# Poissons Ratio (x) = 0.23929 0.20334
# Poissons Ratio (y) = 0.15356 0.18839
# Poissons Ratio (z) = 0.33891 0.48927
#
# Static dielectric constant tensor:
#      x y z
#    x 1.721590 0.000000 -0.045650 
#    y 0.000000 1.781080 0.000000 
#    z -0.045650 0.000000 1.768210 
# 
# From -- ./inp_files/237628.got.cif
#   From: 2010.05.17/outbox.cif.g08.bks.cpg/sg15_119_cif.got.tgz:237628.got - 2010.06.03 18:47:42.
