data_PCOD9284988
_publ_section_title
;
Structure prediction by ZEFSAII (Michael W. Deem and Ramdas Pophale) SiO2 
 PCOD9284988
Probable space group: C 2/C
;
_chemical_formula_sum "Si O2"
_cell_formula_units_Z 36
_cell_length_a 9.921729
_cell_length_b 17.060177
_cell_length_c 10.562092
_cell_angle_alpha 90.000000
_cell_angle_beta 78.365136
_cell_angle_gamma 90.000000
_cell_volume 1751.073249
_symmetry_space_group_name_H-M "C 2/C"
_symmetry_group_IT_number 15
_symmetry_cell_setting 'monoclinic'
loop_
_space_group_symop_operation_xyz
x,y,z
-x,y,1/2-z
-x,-y,-z
x,-y,1/2+z
1/2+x,1/2+y,z
1/2-x,1/2+y,1/2-z
1/2-x,1/2-y,-z
1/2+x,1/2-y,1/2+z
loop_
_atom_site_type_symbol
_atom_site_label
_atom_site_fract_x
_atom_site_fract_y
_atom_site_fract_z
Si Si1 0.360452 0.628464 0.481657
Si Si2 0.772730 0.526703 0.789528
Si Si3 0.500000 0.892941 0.750000
Si Si4 0.587924 0.790241 0.958824
Si Si5 0.500000 0.846164 0.250000
Si Si6 0.000000 0.959997 0.750000
O O1 0.287877 0.556511 0.565805
O O2 0.407508 0.697484 0.567033
O O3 0.240826 0.671800 0.423992
O O4 0.483075 0.595530 0.374600
O O5 0.867691 0.450003 0.777085
O O6 0.874407 0.597182 0.732580
O O7 0.638881 0.509882 0.731610
O O8 0.501565 0.838927 0.874218
O O9 0.540866 0.800731 0.114413
#
# Coordination Sequence:
#
# PCOD9284988 Si02
#       6
#     8   8   4   8   4   4
#     4  10  22  39  61  90 129 167 205 259 318 374
#     4  10  23  37  63  91 127 162 213 258 314 368
#     4  11  22  41  69  96 121 166 216 263 300 381
#     4  10  21  41  66  92 124 164 213 260 313 367
#     4   9  21  40  66  91 121 166 218 253 305 378
#     4  12  21  39  61  89 126 170 204 260 317 381
#
# _framework density 20.558820000000001
#
# number of rings (size 3 to 8) (size 9 to 14) (size 15 to 20)
#    0.000    1.778    2.222    1.333    3.111    3.556 
#    0.000    1.111    0.000    0.000    0.000    0.000 
#    0.000    0.000    0.000    0.000    0.000    0.000 
#
# Total GULP energy -100405.578193 kJ/mol
# GULP energy per Si atom -5578.087677 kJ/mol
# Density = 2.051203 g / cm^3
# Si number density = 20.558820 Si / 1000 Ang^3
#
#
#
# Elastic Constant Matrix: (Units=GPa)
#
#
# Indices 1 2 3 4 5 6 
#
# 1 95.6637 37.9798 17.2922 0.0000 -2.8351 0.0000
# 2 37.9798 64.2177 37.2543 0.0000 -2.8495 0.0000
# 3 17.2922 37.2543 79.1939 0.0000 -10.8160 0.0000
# 4 0.0000 0.0000 0.0000 1.2184 0.0000 -8.3352
# 5 -2.8351 -2.8495 -10.8160 0.0000 23.9954 0.0000
# 6 0.0000 0.0000 0.0000 -8.3352 0.0000 6.4166
#
#
#
# Elastic Compliance Matrix: (Units=1/GPa)
#
#
# Indices 1 2 3 4 5 6 
#
# 1 0.013765 -0.008854 0.001319 0.000000 0.001170 0.000000
# 2 -0.008854 0.027215 -0.011264 0.000000 -0.002892 0.000000
# 3 0.001319 -0.011264 0.018623 0.000000 0.007213 0.000000
# 4 0.000000 0.000000 0.000000 -0.104067 0.000000 -0.135184
# 5 0.001170 -0.002892 0.007213 0.000000 0.044721 0.000000
# 6 0.000000 0.000000 0.000000 -0.135184 0.000000 -0.019760
#
#
# Mechanical properties :
#
#
# Convention : Reuss Voigt Hill
#
# Bulk Modulus (GPa) = 45.44445 47.12532 46.28488
# Shear Modulus (GPa) = 196.62457 16.09600 106.36028
#
# Velocity S-wave (km/s) = 9.79018 2.80111 7.20048
# Velocity P-wave (km/s) = 12.24538 5.78218 9.57557
#
# Compressibility (1/GPa) = 0.02200489
#
# Stress axis : x y z
#
# Youngs Moduli (GPa) = 72.64947 36.74471 53.69717
#
# Poissons Ratio (x) = 0.32535 -0.07085
# Poissons Ratio (y) = 0.64326 0.60484
# Poissons Ratio (z) = -0.09585 0.41389
#
# Static dielectric constant tensor:
#      x y z
#    x 1.766000 0.000000 0.008250 
#    y 0.000000 1.749850 0.000000 
#    z 0.008250 0.000000 1.742450 
# 
# From -- ./inp_files/22570.got.cif
#   From: 2010.05.17/outbox.cif.g08.bks.cpg/sg15_12_cif.got.tgz:22570.got - 2010.06.03 18:47:42.
