data_PCOD9284005
_publ_section_title
;
Structure prediction by ZEFSAII (Michael W. Deem and Ramdas Pophale) SiO2 
 PCOD9284005
Probable space group: C 2/C
;
_chemical_formula_sum "Si O2"
_cell_formula_units_Z 56
_cell_length_a 20.073803
_cell_length_b 7.865991
_cell_length_c 17.124005
_cell_angle_alpha 90.000000
_cell_angle_beta 49.536208
_cell_angle_gamma 90.000000
_cell_volume 2057.160697
_symmetry_space_group_name_H-M "C 2/C"
_symmetry_group_IT_number 15
_symmetry_cell_setting 'monoclinic'
loop_
_space_group_symop_operation_xyz
x,y,z
-x,y,1/2-z
-x,-y,-z
x,-y,1/2+z
1/2+x,1/2+y,z
1/2-x,1/2+y,1/2-z
1/2-x,1/2-y,-z
1/2+x,1/2-y,1/2+z
loop_
_atom_site_type_symbol
_atom_site_label
_atom_site_fract_x
_atom_site_fract_y
_atom_site_fract_z
Si Si1 0.621160 0.685374 0.161160
Si Si2 0.171382 0.312065 0.969420
Si Si3 0.896083 0.191337 0.765710
Si Si4 0.656021 0.805350 0.538190
Si Si5 0.783532 0.671441 0.232380
Si Si6 0.612065 0.826840 0.322448
Si Si7 0.526899 0.327621 0.023658
O O1 0.725185 0.717296 0.093536
O O2 0.596729 0.496281 0.204782
O O3 0.579096 0.804340 0.259419
O O4 0.611794 0.713773 0.076497
O O5 0.164687 0.266356 0.884094
O O6 0.156216 0.510766 0.998440
O O7 0.899788 0.309150 0.838883
O O8 0.803091 0.214450 0.792673
O O9 0.961822 0.219479 0.644107
O O10 0.750000 0.750000 0.500000
O O11 0.617556 0.673260 0.504612
O O12 0.681172 0.673535 0.289055
O O13 0.826092 0.490255 0.218820
O O14 0.540628 0.810489 0.444266
O O15 0.500000 0.500000 0.000000
#
# Coordination Sequence:
#
# PCOD9284005 Si02
#       7
#     8   8   8   8   8   8   8
#     4  10  21  40  66 106 147 190 257 326 392 464
#     4  10  21  41  69 109 146 190 264 331 388 458
#     4  12  25  44  70 106 153 205 257 324 410 486
#     4  12  24  47  77 107 148 206 269 324 393 482
#     4  11  23  43  75 108 147 201 265 338 393 481
#     4  11  22  43  71 106 148 196 264 324 399 477
#     4  12  27  46  75 110 160 205 254 326 415 488
#
# _framework density 27.221988
#
# number of rings (size 3 to 8) (size 9 to 14) (size 15 to 20)
#    0.000    0.857    4.286    3.857    0.000    1.714 
#    0.000    0.000    0.000    0.000    0.000    0.000 
#    0.000    0.000    0.000    0.000    0.000    0.000 
#
# Total GULP energy -156893.689610 kJ/mol
# GULP energy per Si atom -5603.346057 kJ/mol
# Density = 2.716003 g / cm^3
# Si number density = 27.221988 Si / 1000 Ang^3
#
#
#
# Elastic Constant Matrix: (Units=GPa)
#
#
# Indices 1 2 3 4 5 6 
#
# 1 109.7992 5.4775 45.1977 -0.0002 21.8927 0.0002
# 2 5.4775 74.2939 33.2263 -0.0004 14.3166 0.0004
# 3 45.1977 33.2263 224.8111 -0.0001 37.3621 0.0001
# 4 -0.0002 -0.0004 -0.0001 41.0468 0.0001 16.1051
# 5 21.8927 14.3166 37.3621 0.0001 65.6294 0.0000
# 6 0.0002 0.0004 0.0001 16.1051 0.0000 24.7755
#
#
#
# Elastic Compliance Matrix: (Units=1/GPa)
#
#
# Indices 1 2 3 4 5 6 
#
# 1 0.010302 0.000504 -0.001719 0.000000 -0.002568 0.000000
# 2 0.000504 0.014713 -0.001894 0.000000 -0.002300 0.000000
# 3 -0.001719 -0.001894 0.005423 0.000000 -0.002101 0.000000
# 4 0.000000 0.000000 0.000000 0.032703 0.000000 -0.021259
# 5 -0.002568 -0.002300 -0.002101 0.000000 0.017791 0.000000
# 6 0.000000 0.000000 0.000000 -0.021259 0.000000 0.054181
#
#
# Mechanical properties :
#
#
# Convention : Reuss Voigt Hill
#
# Bulk Modulus (GPa) = 41.28719 64.07859 52.68289
# Shear Modulus (GPa) = 33.46621 47.95716 40.71169
#
# Velocity S-wave (km/s) = 3.51006 4.20182 3.87142
# Velocity P-wave (km/s) = 5.62380 6.86519 6.27527
#
# Compressibility (1/GPa) = 0.02422059
#
# Stress axis : x y z
#
# Youngs Moduli (GPa) = 97.06871 67.96742 184.40821
#
# Poissons Ratio (x) = -0.03426 0.31698
# Poissons Ratio (y) = -0.04893 0.34921
# Poissons Ratio (z) = 0.16685 0.12871
#
# Static dielectric constant tensor:
#      x y z
#    x 2.174830 0.000000 -0.061200 
#    y 0.000000 2.085720 0.000000 
#    z -0.061200 0.000000 2.169690 
# 
# From -- ./inp_files/218538.got.cif
#   From: 2010.05.17/outbox.cif.g08.bks.cpg/sg15_110_cif.got.tgz:218538.got - 2010.06.03 18:47:42.
