data_PCOD9284342
_publ_section_title
;
Structure prediction by ZEFSAII (Michael W. Deem and Ramdas Pophale) SiO2 
 PCOD9284342
Probable space group: C 2/C
;
_chemical_formula_sum "Si O2"
_cell_formula_units_Z 56
_cell_length_a 17.186072
_cell_length_b 9.214206
_cell_length_c 24.559837
_cell_angle_alpha 90.000000
_cell_angle_beta 44.309812
_cell_angle_gamma 90.000000
_cell_volume 2716.751783
_symmetry_space_group_name_H-M "C 2/C"
_symmetry_group_IT_number 15
_symmetry_cell_setting 'monoclinic'
loop_
_space_group_symop_operation_xyz
x,y,z
-x,y,1/2-z
-x,-y,-z
x,-y,1/2+z
1/2+x,1/2+y,z
1/2-x,1/2+y,1/2-z
1/2-x,1/2-y,-z
1/2+x,1/2-y,1/2+z
loop_
_atom_site_type_symbol
_atom_site_label
_atom_site_fract_x
_atom_site_fract_y
_atom_site_fract_z
Si Si1 0.412550 0.396637 0.510019
Si Si2 0.509005 0.526978 0.367535
Si Si3 0.500000 0.583097 0.750000
Si Si4 0.047666 0.651979 0.836006
Si Si5 0.697647 0.710068 0.797288
Si Si6 0.681299 0.178098 0.182905
Si Si7 0.533671 0.905578 0.931295
Si Si8 0.000000 0.438627 0.250000
O O1 0.500000 0.500000 0.500000
O O2 0.404000 0.472253 0.455127
O O3 0.298404 0.365630 0.598200
O O4 0.458859 0.237065 0.472962
O O5 0.501603 0.503646 0.306233
O O6 0.527337 0.693550 0.374004
O O7 0.611707 0.424511 0.335882
O O8 0.389217 0.685448 0.805973
O O9 0.178360 0.656063 0.755855
O O10 0.978024 0.649734 0.815401
O O11 0.020327 0.513763 0.886842
O O12 0.694631 0.784942 0.739647
O O13 0.655259 0.830235 0.861946
O O14 0.600706 0.043723 0.213929
O O15 0.500000 0.000000 0.000000
#
# Coordination Sequence:
#
# PCOD9284342 Si02
#       8
#     8   8   4   8   8   8   8   4
#     4  11  24  40  66  97 130 172 224 281 339 398
#     4  10  22  39  64  94 128 170 222 274 333 405
#     4   9  21  42  66  92 128 172 226 268 342 408
#     4  12  23  42  65  98 136 175 224 283 337 402
#     4  10  21  40  69  94 124 184 234 272 327 405
#     4  10  21  43  67  95 127 176 226 277 332 416
#     4  11  23  40  64 101 136 169 226 291 335 397
#     4  11  25  40  68  98 138 166 222 278 346 392
#
# _framework density 20.612850999999999
#
# number of rings (size 3 to 8) (size 9 to 14) (size 15 to 20)
#    0.000    1.429    1.429    3.857    6.000    1.714 
#    0.000    0.714    0.000    0.000    0.000    0.000 
#    0.000    0.000    0.000    0.000    0.000    0.000 
#
# Total GULP energy -156232.340207 kJ/mol
# GULP energy per Si atom -5579.726436 kJ/mol
# Density = 2.056594 g / cm^3
# Si number density = 20.612851 Si / 1000 Ang^3
#
#
#
# Elastic Constant Matrix: (Units=GPa)
#
#
# Indices 1 2 3 4 5 6 
#
# 1 67.8951 32.2816 27.2544 0.0000 9.8971 0.0000
# 2 32.2816 145.0832 50.9841 0.0000 4.0966 0.0001
# 3 27.2544 50.9841 124.6159 0.0000 3.2370 0.0000
# 4 0.0000 0.0000 0.0000 20.4381 0.0000 12.8801
# 5 9.8971 4.0966 3.2370 0.0000 29.2455 0.0000
# 6 0.0000 0.0001 0.0000 12.8801 0.0000 22.3870
#
#
#
# Elastic Compliance Matrix: (Units=1/GPa)
#
#
# Indices 1 2 3 4 5 6 
#
# 1 0.017944 -0.002932 -0.002585 0.000000 -0.005376 0.000000
# 2 -0.002932 0.008546 -0.002858 0.000000 0.000112 0.000000
# 3 -0.002585 -0.002858 0.009754 0.000000 0.000196 0.000000
# 4 0.000000 0.000000 0.000000 0.076759 0.000000 -0.044163
# 5 -0.005376 0.000112 0.000196 0.000000 0.035975 0.000000
# 6 0.000000 0.000000 0.000000 -0.044163 0.000000 0.070077
#
#
# Mechanical properties :
#
#
# Convention : Reuss Voigt Hill
#
# Bulk Modulus (GPa) = 51.29925 62.07050 56.68487
# Shear Modulus (GPa) = 20.63508 29.55238 25.09373
#
# Velocity S-wave (km/s) = 3.16741 3.79051 3.49289
# Velocity P-wave (km/s) = 6.19013 7.02390 6.62016
#
# Compressibility (1/GPa) = 0.01949346
#
# Stress axis : x y z
#
# Youngs Moduli (GPa) = 55.72830 117.00979 102.51879
#
# Poissons Ratio (x) = 0.34312 0.26503
# Poissons Ratio (y) = 0.16342 0.29301
# Poissons Ratio (z) = 0.14407 0.33443
#
# Static dielectric constant tensor:
#      x y z
#    x 1.774860 0.000000 0.046500 
#    y 0.000000 1.765500 0.000000 
#    z 0.046500 0.000000 1.792870 
# 
# From -- ./inp_files/298537.got.cif
#   From: 2010.05.17/outbox.cif.g08.bks.cpg/sg15_150_cif.got.tgz:298537.got - 2010.06.03 18:47:42.
