data_PCOD9284865
_publ_section_title
;
Structure prediction by ZEFSAII (Michael W. Deem and Ramdas Pophale) SiO2 
 PCOD9284865
Probable space group: C 2/C
;
_chemical_formula_sum "Si O2"
_cell_formula_units_Z 48
_cell_length_a 15.020383
_cell_length_b 6.344440
_cell_length_c 25.288795
_cell_angle_alpha 90.000000
_cell_angle_beta 116.888292
_cell_angle_gamma 90.000000
_cell_volume 2149.382526
_symmetry_space_group_name_H-M "C 2/C"
_symmetry_group_IT_number 15
_symmetry_cell_setting 'monoclinic'
loop_
_space_group_symop_operation_xyz
x,y,z
-x,y,1/2-z
-x,-y,-z
x,-y,1/2+z
1/2+x,1/2+y,z
1/2-x,1/2+y,1/2-z
1/2-x,1/2-y,-z
1/2+x,1/2-y,1/2+z
loop_
_atom_site_type_symbol
_atom_site_label
_atom_site_fract_x
_atom_site_fract_y
_atom_site_fract_z
Si Si1 0.749526 0.178480 0.640504
Si Si2 0.392406 0.043290 0.230989
Si Si3 0.044132 0.402336 0.138884
Si Si4 0.993124 0.702822 0.039858
Si Si5 0.172575 0.019489 0.543279
Si Si6 0.350729 0.270180 0.620547
O O1 0.806942 0.283727 0.704893
O O2 0.636435 0.135578 0.625683
O O3 0.737611 0.351689 0.592796
O O4 0.810230 0.984713 0.633951
O O5 0.500000 0.148253 0.250000
O O6 0.406374 0.935369 0.290925
O O7 0.372650 0.877627 0.178193
O O8 0.993148 0.606352 0.098688
O O9 0.956751 0.229627 0.119000
O O10 0.091606 0.842280 0.054344
O O11 0.000000 0.500000 0.000000
O O12 0.898880 0.862257 0.009414
O O13 0.263445 0.184299 0.558349
#
# Coordination Sequence:
#
# PCOD9284865 Si02
#       6
#     8   8   8   8   8   8
#     4  11  22  42  66  94 129 170 215 273 333 397
#     4   9  23  42  59  94 127 161 216 269 322 401
#     4  11  23  41  67  94 129 176 219 268 345 395
#     4  11  21  41  67  94 129 171 222 274 327 399
#     4  10  21  41  65  89 133 166 211 280 322 388
#     4  10  22  44  61  93 133 162 218 278 324 404
#
# _framework density 22.331994000000002
#
# number of rings (size 3 to 8) (size 9 to 14) (size 15 to 20)
#    0.000    1.667    3.333    0.000    2.333    2.667 
#    9.000    3.333    0.000    0.000    0.000    0.000 
#    0.000    0.000    0.000    0.000    0.000    0.000 
#
# Total GULP energy -133720.320611 kJ/mol
# GULP energy per Si atom -5571.680025 kJ/mol
# Density = 2.228117 g / cm^3
# Si number density = 22.331994 Si / 1000 Ang^3
#
#
#
# Elastic Constant Matrix: (Units=GPa)
#
#
# Indices 1 2 3 4 5 6 
#
# 1 72.8232 49.7844 27.6164 0.0000 26.3031 0.0000
# 2 49.7844 86.5341 38.1794 0.0000 17.2151 0.0000
# 3 27.6164 38.1794 107.5047 0.0000 14.1611 0.0000
# 4 0.0000 0.0000 0.0000 23.3344 0.0000 6.6628
# 5 26.3031 17.2151 14.1611 0.0000 33.3338 0.0000
# 6 0.0000 0.0000 0.0000 6.6628 0.0000 11.2957
#
#
#
# Elastic Compliance Matrix: (Units=1/GPa)
#
#
# Indices 1 2 3 4 5 6 
#
# 1 0.028455 -0.013007 -0.000654 0.000000 -0.015458 0.000000
# 2 -0.013007 0.020596 -0.004157 0.000000 0.001393 0.000000
# 3 -0.000654 -0.004157 0.011223 0.000000 -0.002105 0.000000
# 4 0.000000 0.000000 0.000000 0.051535 0.000000 -0.030398
# 5 -0.015458 0.001393 -0.002105 0.000000 0.042373 0.000000
# 6 0.000000 0.000000 0.000000 -0.030398 0.000000 0.106460
#
#
# Mechanical properties :
#
#
# Convention : Reuss Voigt Hill
#
# Bulk Modulus (GPa) = 40.58549 55.33581 47.96065
# Shear Modulus (GPa) = 16.42084 23.67823 20.04954
#
# Velocity S-wave (km/s) = 2.71459 3.25973 2.99957
# Velocity P-wave (km/s) = 5.29514 6.24502 5.78959
#
# Compressibility (1/GPa) = 0.02463935
#
# Stress axis : x y z
#
# Youngs Moduli (GPa) = 35.14285 48.55288 89.09883
#
# Poissons Ratio (x) = 0.63152 0.05829
# Poissons Ratio (y) = 0.45710 0.37036
# Poissons Ratio (z) = 0.02299 0.20182
#
# Static dielectric constant tensor:
#      x y z
#    x 2.061850 0.000000 -0.019960 
#    y 0.000000 2.021030 0.000000 
#    z -0.019960 0.000000 1.843060 
# 
# From -- ./inp_files/312456.got.cif
#   From: 2010.05.17/outbox.cif.g08.bks.cpg/sg15_157_cif.got.tgz:312456.got - 2010.06.03 18:47:42.
