data_PCOD9284425
_publ_section_title
;
Structure prediction by ZEFSAII (Michael W. Deem and Ramdas Pophale) SiO2 
 PCOD9284425
Probable space group: C 2/C
;
_chemical_formula_sum "Si O2"
_cell_formula_units_Z 52
_cell_length_a 16.105566
_cell_length_b 8.875113
_cell_length_c 27.940810
_cell_angle_alpha 90.000000
_cell_angle_beta 34.691577
_cell_angle_gamma 90.000000
_cell_volume 2273.119248
_symmetry_space_group_name_H-M "C 2/C"
_symmetry_group_IT_number 15
_symmetry_cell_setting 'monoclinic'
loop_
_space_group_symop_operation_xyz
x,y,z
-x,y,1/2-z
-x,-y,-z
x,-y,1/2+z
1/2+x,1/2+y,z
1/2-x,1/2+y,1/2-z
1/2-x,1/2-y,-z
1/2+x,1/2-y,1/2+z
loop_
_atom_site_type_symbol
_atom_site_label
_atom_site_fract_x
_atom_site_fract_y
_atom_site_fract_z
Si Si1 0.816629 0.502115 0.623127
Si Si2 0.565442 0.212733 0.514495
Si Si3 0.000000 0.665753 0.250000
Si Si4 0.220553 0.407857 0.128979
Si Si5 0.051534 0.772793 0.626982
Si Si6 0.715399 0.744658 0.800392
Si Si7 0.468937 0.417633 0.191879
O O1 0.854866 0.411660 0.556925
O O2 0.866276 0.398840 0.645113
O O3 0.646145 0.517394 0.714381
O O4 0.898723 0.661507 0.585699
O O5 0.622626 0.376714 0.470578
O O6 0.605826 0.206762 0.551012
O O7 0.856550 0.561888 0.319858
O O8 0.021889 0.768753 0.193045
O O9 0.109805 0.323425 0.144347
O O10 0.245544 0.328438 0.167593
O O11 0.875385 0.772816 0.703250
O O12 0.077401 0.949817 0.625407
O O13 0.621508 0.639368 0.811084
#
# Coordination Sequence:
#
# PCOD9284425 Si02
#       7
#     8   8   4   8   8   8   8
#     4   9  21  40  68 101 132 176 226 271 331 392
#     4  10  21  41  69  99 134 177 221 275 329 407
#     4  12  28  42  64 100 138 168 228 286 332 386
#     4  11  24  43  68  99 132 175 221 276 331 397
#     4  11  22  41  69  98 130 173 228 266 334 395
#     4  10  21  40  71  94 133 172 227 268 319 399
#     4  11  26  42  70  98 134 175 224 280 326 392
#
# _framework density 22.876055000000001
#
# number of rings (size 3 to 8) (size 9 to 14) (size 15 to 20)
#    0.000    1.538    3.077    0.462   12.923    0.000 
#    0.000    9.231    0.000    0.000    0.000    0.000 
#    0.000    0.000    0.000    0.000    0.000    0.000 
#
# Total GULP energy -144993.496936 kJ/mol
# GULP energy per Si atom -5576.672959 kJ/mol
# Density = 2.282399 g / cm^3
# Si number density = 22.876055 Si / 1000 Ang^3
#
#
#
# Elastic Constant Matrix: (Units=GPa)
#
#
# Indices 1 2 3 4 5 6 
#
# 1 79.2771 37.2738 30.7943 0.0000 15.6780 0.0000
# 2 37.2738 93.8702 27.0762 0.0001 5.6252 0.0000
# 3 30.7943 27.0762 81.0093 0.0000 17.5711 0.0000
# 4 0.0000 0.0001 0.0000 23.7419 0.0000 4.8689
# 5 15.6780 5.6252 17.5711 0.0000 29.0843 0.0000
# 6 0.0000 0.0000 0.0000 4.8689 0.0000 37.4996
#
#
#
# Elastic Compliance Matrix: (Units=1/GPa)
#
#
# Indices 1 2 3 4 5 6 
#
# 1 0.017944 -0.005727 -0.003509 0.000000 -0.006445 0.000000
# 2 -0.005727 0.013618 -0.002846 0.000000 0.002173 0.000000
# 3 -0.003509 -0.002846 0.016226 0.000000 -0.007361 0.000000
# 4 0.000000 0.000000 0.000000 0.043272 0.000000 -0.005618
# 5 -0.006445 0.002173 -0.007361 0.000000 0.041884 0.000000
# 6 0.000000 0.000000 0.000000 -0.005618 0.000000 0.027396
#
#
# Mechanical properties :
#
#
# Convention : Reuss Voigt Hill
#
# Bulk Modulus (GPa) = 42.32909 49.38280 45.85595
# Shear Modulus (GPa) = 25.99043 28.66597 27.32820
#
# Velocity S-wave (km/s) = 3.37433 3.54375 3.46008
# Velocity P-wave (km/s) = 5.80735 6.19502 6.00431
#
# Compressibility (1/GPa) = 0.02362442
#
# Stress axis : x y z
#
# Youngs Moduli (GPa) = 55.72805 73.43391 61.62976
#
# Poissons Ratio (x) = 0.42055 0.21626
# Poissons Ratio (y) = 0.31915 0.17538
# Poissons Ratio (z) = 0.19555 0.20898
#
# Static dielectric constant tensor:
#      x y z
#    x 1.868880 0.000000 -0.046200 
#    y 0.000000 1.935360 0.000000 
#    z -0.046200 0.000000 1.937200 
# 
# From -- ./inp_files/298357.got.cif
#   From: 2010.05.17/outbox.cif.g08.bks.cpg/sg15_150_cif.got.tgz:298357.got - 2010.06.03 18:47:42.
