data_PCOD9284964
_publ_section_title
;
Structure prediction by ZEFSAII (Michael W. Deem and Ramdas Pophale) SiO2 
 PCOD9284964
Probable space group: C 2/C
;
_chemical_formula_sum "Si O2"
_cell_formula_units_Z 44
_cell_length_a 9.329069
_cell_length_b 20.943145
_cell_length_c 9.332160
_cell_angle_alpha 90.000000
_cell_angle_beta 92.490376
_cell_angle_gamma 90.000000
_cell_volume 1821.595777
_symmetry_space_group_name_H-M "C 2/C"
_symmetry_group_IT_number 15
_symmetry_cell_setting 'monoclinic'
loop_
_space_group_symop_operation_xyz
x,y,z
-x,y,1/2-z
-x,-y,-z
x,-y,1/2+z
1/2+x,1/2+y,z
1/2-x,1/2+y,1/2-z
1/2-x,1/2-y,-z
1/2+x,1/2-y,1/2+z
loop_
_atom_site_type_symbol
_atom_site_label
_atom_site_fract_x
_atom_site_fract_y
_atom_site_fract_z
Si Si1 0.343355 0.786820 0.812727
Si Si2 0.252398 0.457009 0.431782
Si Si3 0.040721 0.342141 0.400309
Si Si4 0.324505 0.925314 0.748614
Si Si5 0.500000 0.395278 0.250000
Si Si6 0.261877 0.311718 0.104755
O O1 0.500000 0.780889 0.750000
O O2 0.274276 0.851701 0.748392
O O3 0.265996 0.723207 0.761213
O O4 0.376800 0.801123 0.978724
O O5 0.126358 0.407382 0.379313
O O6 0.238631 0.452556 0.603337
O O7 0.224416 0.528059 0.377468
O O8 0.392360 0.433458 0.350602
O O9 0.123628 0.353399 0.055944
O O10 0.000000 0.309721 0.250000
O O11 0.500000 0.924355 0.750000
O O12 0.403121 0.354305 0.132734
O O13 0.250000 0.250000 0.000000
#
# Coordination Sequence:
#
# PCOD9284964 Si02
#       6
#     8   8   8   8   4   8
#     4  10  21  41  66 105 136 177 235 287 344 422
#     4  11  25  46  72 106 138 191 238 299 359 421
#     4  11  22  41  70 102 135 181 238 283 353 416
#     4  10  23  43  74 101 137 180 241 302 343 428
#     4  12  26  44  70 104 154 180 240 298 358 438
#     4  12  23  44  72 100 145 190 227 295 358 427
#
# _framework density 24.154644000000001
#
# number of rings (size 3 to 8) (size 9 to 14) (size 15 to 20)
#    0.000    1.091    4.545    1.091    0.000    5.818 
#    6.545    0.000    0.000    0.000    0.000    0.000 
#    0.000    0.000    0.000    0.000    0.000    0.000 
#
# Total GULP energy -122773.775535 kJ/mol
# GULP energy per Si atom -5580.626161 kJ/mol
# Density = 2.409967 g / cm^3
# Si number density = 24.154644 Si / 1000 Ang^3
#
#
#
# Elastic Constant Matrix: (Units=GPa)
#
#
# Indices 1 2 3 4 5 6 
#
# 1 114.6279 53.5248 10.3031 0.0000 -6.8431 0.0000
# 2 53.5248 88.9314 12.7202 0.0000 -2.2322 0.0000
# 3 10.3031 12.7202 112.8596 0.0000 -16.8960 0.0000
# 4 0.0000 0.0000 0.0000 -100.5898 0.0000 48.7197
# 5 -6.8431 -2.2322 -16.8960 0.0000 37.5606 0.0000
# 6 0.0000 0.0000 0.0000 48.7197 0.0000 -3.1184
#
#
#
# Elastic Compliance Matrix: (Units=1/GPa)
#
#
# Indices 1 2 3 4 5 6 
#
# 1 0.012254 -0.007327 -0.000026 0.000000 0.001786 0.000000
# 2 -0.007327 0.015810 -0.001257 0.000000 -0.000961 0.000000
# 3 -0.000026 -0.001257 0.009642 0.000000 0.004258 0.000000
# 4 0.000000 0.000000 0.000000 0.001514 0.000000 0.023651
# 5 0.001786 -0.000961 0.004258 0.000000 0.028807 0.000000
# 6 0.000000 0.000000 0.000000 0.023651 0.000000 0.048832
#
#
# Mechanical properties :
#
#
# Convention : Reuss Voigt Hill
#
# Bulk Modulus (GPa) = 48.81008 52.16834 50.48921
# Shear Modulus (GPa) = 35.48455 2.76187 19.12321
#
# Velocity S-wave (km/s) = 3.83699 1.07047 2.81677
# Velocity P-wave (km/s) = 6.31515 4.81377 5.61487
#
# Compressibility (1/GPa) = 0.02048757
#
# Stress axis : x y z
#
# Youngs Moduli (GPa) = 81.60627 63.25108 103.71284
#
# Poissons Ratio (x) = 0.46343 0.00265
# Poissons Ratio (y) = 0.59791 0.13035
# Poissons Ratio (z) = 0.00209 0.07950
#
# Static dielectric constant tensor:
#      x y z
#    x 2.089850 0.000000 -0.119910 
#    y 0.000000 1.888410 0.000000 
#    z -0.119910 0.000000 2.086420 
# 
# From -- ./inp_files/30834.got.cif
#   From: 2010.05.17/outbox.cif.g08.bks.cpg/sg15_16_cif.got.tgz:30834.got - 2010.06.03 18:47:42.
