data_PCOD9284999
_publ_section_title
;
Structure prediction by ZEFSAII (Michael W. Deem and Ramdas Pophale) SiO2 
 PCOD9284999
Probable space group: C 2/C
;
_chemical_formula_sum "Si O2"
_cell_formula_units_Z 48
_cell_length_a 11.427669
_cell_length_b 14.510080
_cell_length_c 31.088050
_cell_angle_alpha 90.000000
_cell_angle_beta 152.280337
_cell_angle_gamma 90.000000
_cell_volume 2397.784297
_symmetry_space_group_name_H-M "C 2/C"
_symmetry_group_IT_number 15
_symmetry_cell_setting 'monoclinic'
loop_
_space_group_symop_operation_xyz
x,y,z
-x,y,1/2-z
-x,-y,-z
x,-y,1/2+z
1/2+x,1/2+y,z
1/2-x,1/2+y,1/2-z
1/2-x,1/2-y,-z
1/2+x,1/2-y,1/2+z
loop_
_atom_site_type_symbol
_atom_site_label
_atom_site_fract_x
_atom_site_fract_y
_atom_site_fract_z
Si Si1 0.608889 0.205438 0.832904
Si Si2 0.455030 0.001755 0.558740
Si Si3 0.697544 0.882274 0.564154
Si Si4 0.267296 0.242586 0.885043
Si Si5 0.784411 0.337760 0.305667
Si Si6 0.389191 0.405998 0.984092
O O1 0.500000 0.205873 0.750000
O O2 0.614009 0.308364 0.854645
O O3 0.434288 0.154720 0.810446
O O4 0.879742 0.155113 0.922266
O O5 0.257416 0.061306 0.465251
O O6 0.641665 0.069209 0.645270
O O7 0.619739 0.949506 0.577070
O O8 0.307226 0.935209 0.542986
O O9 0.456190 0.820443 0.473342
O O10 0.363526 0.240344 0.866814
O O11 0.264513 0.341857 0.906555
O O12 0.000791 0.190210 0.797353
O O13 0.500000 0.500000 0.000000
#
# Coordination Sequence:
#
# PCOD9284999 Si02
#       6
#     8   8   8   8   8   8
#     4  11  25  41  61  92 131 167 211 260 319 372
#     4  10  21  41  66  93 121 159 216 260 310 377
#     4   9  22  42  64  90 120 174 206 256 321 373
#     4   9  22  40  67  87 128 171 207 256 325 374
#     4  10  21  43  62  92 126 165 211 255 309 388
#     4  11  23  41  65  96 128 166 211 264 319 370
#
# _framework density 20.018481999999999
#
# number of rings (size 3 to 8) (size 9 to 14) (size 15 to 20)
#    0.000    2.000    1.667    0.000    7.000    3.333 
#   12.000    0.000    0.000    0.000    0.000    0.000 
#    0.000    0.000    0.000    0.000    0.000    0.000 
#
# Total GULP energy -133784.023574 kJ/mol
# GULP energy per Si atom -5574.334316 kJ/mol
# Density = 1.997292 g / cm^3
# Si number density = 20.018482 Si / 1000 Ang^3
#
#
#
# Elastic Constant Matrix: (Units=GPa)
#
#
# Indices 1 2 3 4 5 6 
#
# 1 86.1278 32.1145 39.0401 -0.0002 -23.0996 0.0000
# 2 32.1145 45.4064 11.0120 -0.0001 -19.5385 0.0000
# 3 39.0401 11.0120 80.4015 -0.0003 -26.0801 0.0000
# 4 -0.0002 -0.0001 -0.0003 20.2169 -0.0001 1.4825
# 5 -23.0996 -19.5385 -26.0801 -0.0001 28.4557 0.0000
# 6 0.0000 0.0000 0.0000 1.4825 0.0000 35.1575
#
#
#
# Elastic Compliance Matrix: (Units=1/GPa)
#
#
# Indices 1 2 3 4 5 6 
#
# 1 0.019679 -0.011646 -0.007645 0.000000 0.000971 0.000000
# 2 -0.011646 0.038996 0.008443 0.000000 0.025059 0.000000
# 3 -0.007645 0.008443 0.021148 0.000000 0.018973 0.000000
# 4 0.000000 0.000000 0.000000 0.049617 0.000001 -0.002092
# 5 0.000971 0.025059 0.018973 0.000001 0.070526 0.000000
# 6 0.000000 0.000000 0.000000 -0.002092 0.000000 0.028532
#
#
# Mechanical properties :
#
#
# Convention : Reuss Voigt Hill
#
# Bulk Modulus (GPa) = 17.20427 41.80763 29.50595
# Shear Modulus (GPa) = 18.54797 25.41731 21.98264
#
# Velocity S-wave (km/s) = 3.04722 3.56714 3.31738
# Velocity P-wave (km/s) = 4.58187 6.15596 5.42630
#
# Compressibility (1/GPa) = 0.05812510
#
# Stress axis : x y z
#
# Youngs Moduli (GPa) = 50.81501 25.64363 47.28594
#
# Poissons Ratio (x) = 0.29866 0.36152
# Poissons Ratio (y) = 0.59181 -0.39922
# Poissons Ratio (z) = 0.38850 -0.21650
#
# Static dielectric constant tensor:
#      x y z
#    x 1.720630 0.000000 0.011610 
#    y 0.000000 1.757360 0.000000 
#    z 0.011610 0.000000 1.717050 
# 
# From -- ./inp_files/311246.got.cif
#   From: 2010.05.17/outbox.cif.g08.bks.cpg/sg15_156_cif.got.tgz:311246.got - 2010.06.03 18:47:42.
