data_PCOD9284056
_publ_section_title
;
Structure prediction by ZEFSAII (Michael W. Deem and Ramdas Pophale) SiO2 
 PCOD9284056
Probable space group: C 2/C
;
_chemical_formula_sum "Si O2"
_cell_formula_units_Z 24
_cell_length_a 4.979691
_cell_length_b 17.775580
_cell_length_c 10.638573
_cell_angle_alpha 90.000000
_cell_angle_beta 98.326924
_cell_angle_gamma 90.000000
_cell_volume 931.765979
_symmetry_space_group_name_H-M "C 2/C"
_symmetry_group_IT_number 15
_symmetry_cell_setting 'monoclinic'
loop_
_space_group_symop_operation_xyz
x,y,z
-x,y,1/2-z
-x,-y,-z
x,-y,1/2+z
1/2+x,1/2+y,z
1/2-x,1/2+y,1/2-z
1/2-x,1/2-y,-z
1/2+x,1/2-y,1/2+z
loop_
_atom_site_type_symbol
_atom_site_label
_atom_site_fract_x
_atom_site_fract_y
_atom_site_fract_z
Si Si1 0.334984 0.091660 0.355038
Si Si2 0.502385 0.305720 0.997402
Si Si3 0.822461 0.945273 0.077556
O O1 0.500000 0.125658 0.250000
O O2 0.075543 0.138931 0.384287
O O3 0.553024 0.083237 0.484352
O O4 0.262350 0.004315 0.321858
O O5 0.750000 0.250000 0.000000
O O6 0.486217 0.368297 0.106226
O O7 0.250000 0.250000 0.000000
O O8 0.000000 0.000000 0.000000
#
# Coordination Sequence:
#
# PCOD9284056 Si02
#       3
#     8   8   8
#     4  10  21  40  66  93 124 170 223 261 311 383
#     4  11  21  39  64  88 128 166 203 260 330 375
#     4   9  20  38  64  88 126 168 208 263 318 370
#
# _framework density 25.757542999999998
#
# number of rings (size 3 to 8) (size 9 to 14) (size 15 to 20)
#    0.000    2.000    3.333    0.000    0.000    5.333 
#    0.000    3.333    0.000    0.000    0.000    0.000 
#    0.000    0.000    0.000    0.000    0.000    0.000 
#
# Total GULP energy -66863.359944 kJ/mol
# GULP energy per Si atom -5571.946662 kJ/mol
# Density = 2.569892 g / cm^3
# Si number density = 25.757543 Si / 1000 Ang^3
#
#
#
# Elastic Constant Matrix: (Units=GPa)
#
#
# Indices 1 2 3 4 5 6 
#
# 1 189.8822 57.1683 43.8785 0.0000 -44.7322 0.0000
# 2 57.1683 242.8910 37.4114 0.0000 -40.8460 0.0000
# 3 43.8785 37.4114 104.1829 0.0000 -32.3894 0.0000
# 4 0.0000 0.0000 0.0000 18.5251 0.0000 -32.8640
# 5 -44.7322 -40.8460 -32.3894 0.0000 54.1381 0.0000
# 6 0.0000 0.0000 0.0000 -32.8640 0.0000 65.3917
#
#
#
# Elastic Compliance Matrix: (Units=1/GPa)
#
#
# Indices 1 2 3 4 5 6 
#
# 1 0.006784 -0.000672 -0.001266 0.000000 0.004341 0.000000
# 2 -0.000672 0.004826 -0.000603 0.000000 0.002726 0.000000
# 3 -0.001266 -0.000603 0.012140 0.000000 0.005762 0.000000
# 4 0.000000 0.000000 0.000000 0.497865 0.000000 0.250213
# 5 0.004341 0.002726 0.005762 0.000000 0.027561 0.000000
# 6 0.000000 0.000000 0.000000 0.250213 0.000000 0.141042
#
#
# Mechanical properties :
#
#
# Convention : Reuss Voigt Hill
#
# Bulk Modulus (GPa) = 53.56760 90.43029 71.99894
# Shear Modulus (GPa) = 7.12735 54.17750 30.65243
#
# Velocity S-wave (km/s) = 1.66526 4.59122 3.45343
# Velocity P-wave (km/s) = 4.95373 7.95552 6.62683
#
# Compressibility (1/GPa) = 0.01866800
#
# Stress axis : x y z
#
# Youngs Moduli (GPa) = 147.40777 207.19401 82.37523
#
# Poissons Ratio (x) = 0.13916 0.10432
# Poissons Ratio (y) = 0.09901 0.04966
# Poissons Ratio (z) = 0.18669 0.12490
#
# Static dielectric constant tensor:
#      x y z
#    x 2.376400 0.000000 -0.281670 
#    y 0.000000 2.190460 0.000000 
#    z -0.281670 0.000000 2.898170 
# 
# From -- ./inp_files/71370.got.cif
#   From: 2010.05.17/outbox.cif.g08.bks.cpg/sg15_36_cif.got.tgz:71370.got - 2010.06.03 18:47:42.
