data_PCOD9284383
_publ_section_title
;
Structure prediction by ZEFSAII (Michael W. Deem and Ramdas Pophale) SiO2 
 PCOD9284383
Probable space group: C 2/C
;
_chemical_formula_sum "Si O2"
_cell_formula_units_Z 40
_cell_length_a 25.350565
_cell_length_b 18.779340
_cell_length_c 12.862815
_cell_angle_alpha 90.000000
_cell_angle_beta 15.849756
_cell_angle_gamma 90.000000
_cell_volume 1672.440676
_symmetry_space_group_name_H-M "C 2/C"
_symmetry_group_IT_number 15
_symmetry_cell_setting 'monoclinic'
loop_
_space_group_symop_operation_xyz
x,y,z
-x,y,1/2-z
-x,-y,-z
x,-y,1/2+z
1/2+x,1/2+y,z
1/2-x,1/2+y,1/2-z
1/2-x,1/2-y,-z
1/2+x,1/2-y,1/2+z
loop_
_atom_site_type_symbol
_atom_site_label
_atom_site_fract_x
_atom_site_fract_y
_atom_site_fract_z
Si Si1 0.500000 0.054538 0.750000
Si Si2 0.046420 0.225251 0.935328
Si Si3 0.958463 0.375210 0.134957
Si Si4 0.268190 0.539189 0.598877
Si Si5 0.924394 0.104384 0.776996
Si Si6 0.000000 0.833049 0.750000
O O1 0.611180 0.105904 0.617948
O O2 0.646266 0.003304 0.414627
O O3 0.250000 0.250000 0.500000
O O4 0.990531 0.154576 0.975872
O O5 0.918221 0.296557 0.169287
O O6 0.062215 0.209674 0.028893
O O7 0.870417 0.435457 0.229786
O O8 0.191907 0.382202 0.704359
O O9 0.432265 0.482171 0.252440
O O10 0.340190 0.611801 0.513025
O O11 0.000000 0.123281 0.750000
#
# Coordination Sequence:
#
# PCOD9284383 Si02
#       6
#     4   8   8   8   8   4
#     4  10  21  40  70  91 140 180 236 296 352 421
#     4  10  25  45  71 103 151 190 235 306 362 437
#     4  10  23  42  66  99 134 191 234 281 373 433
#     4  11  25  41  69 106 137 185 244 301 353 440
#     4  10  21  43  69 104 138 186 236 299 365 419
#     4  12  27  42  70 111 136 188 252 292 362 437
#
# _framework density 23.91714
#
# number of rings (size 3 to 8) (size 9 to 14) (size 15 to 20)
#    0.000    1.600    1.000    3.000    8.400    8.000 
#    0.000    0.000    0.000    0.000    0.000    0.000 
#    0.000    0.000    0.000    0.000    0.000    0.000 
#
# Total GULP energy -111703.787161 kJ/mol
# GULP energy per Si atom -5585.189358 kJ/mol
# Density = 2.386270 g / cm^3
# Si number density = 23.917140 Si / 1000 Ang^3
#
#
#
# Elastic Constant Matrix: (Units=GPa)
#
#
# Indices 1 2 3 4 5 6 
#
# 1 167.0623 58.3546 48.6951 -0.0086 7.2088 0.0002
# 2 58.3546 145.6219 38.0954 -0.0024 18.8382 0.0032
# 3 48.6951 38.0954 66.8556 -0.0056 17.9364 0.0088
# 4 -0.0086 -0.0024 -0.0056 8.9077 0.0051 -3.1541
# 5 7.2088 18.8382 17.9364 0.0051 46.3131 -0.0010
# 6 0.0002 0.0032 0.0088 -3.1541 -0.0010 54.2213
#
#
#
# Elastic Compliance Matrix: (Units=1/GPa)
#
#
# Indices 1 2 3 4 5 6 
#
# 1 0.008165 -0.002128 -0.005162 0.000004 0.001594 0.000001
# 2 -0.002128 0.008743 -0.002865 0.000000 -0.002116 0.000000
# 3 -0.005162 -0.002865 0.022120 0.000011 -0.006598 -0.000003
# 4 0.000004 0.000000 0.000011 0.114623 -0.000017 0.006668
# 5 0.001594 -0.002116 -0.006598 -0.000017 0.024760 0.000001
# 6 0.000001 0.000000 -0.000003 0.006668 0.000001 0.018831
#
#
# Mechanical properties :
#
#
# Convention : Reuss Voigt Hill
#
# Bulk Modulus (GPa) = 53.42179 74.42555 63.92367
# Shear Modulus (GPa) = 22.34235 37.51472 29.92854
#
# Velocity S-wave (km/s) = 3.05971 3.96476 3.54127
# Velocity P-wave (km/s) = 5.90484 7.22113 6.59590
#
# Compressibility (1/GPa) = 0.01871895
#
# Stress axis : x y z
#
# Youngs Moduli (GPa) = 122.47606 114.38060 45.20794
#
# Poissons Ratio (x) = 0.24336 0.23337
# Poissons Ratio (y) = 0.26058 0.12950
# Poissons Ratio (z) = 0.63225 0.32764
#
# Static dielectric constant tensor:
#      x y z
#    x 1.942090 0.000000 -0.015040 
#    y 0.000000 1.957330 0.000010 
#    z -0.015040 0.000010 2.136610 
# 
# From -- ./inp_files/119780.got.cif
#   From: 2010.05.17/outbox.cif.g08.bks.cpg/sg15_60_cif.got.tgz:119780.got - 2010.06.03 18:47:42.
