data_PCOD9284716
_publ_section_title
;
Structure prediction by ZEFSAII (Michael W. Deem and Ramdas Pophale) SiO2 
 PCOD9284716
Probable space group: C 2/C
;
_chemical_formula_sum "Si O2"
_cell_formula_units_Z 28
_cell_length_a 7.250610
_cell_length_b 13.629244
_cell_length_c 17.917196
_cell_angle_alpha 90.000000
_cell_angle_beta 129.449206
_cell_angle_gamma 90.000000
_cell_volume 1367.223471
_symmetry_space_group_name_H-M "C 2/C"
_symmetry_group_IT_number 15
_symmetry_cell_setting 'monoclinic'
loop_
_space_group_symop_operation_xyz
x,y,z
-x,y,1/2-z
-x,-y,-z
x,-y,1/2+z
1/2+x,1/2+y,z
1/2-x,1/2+y,1/2-z
1/2-x,1/2-y,-z
1/2+x,1/2-y,1/2+z
loop_
_atom_site_type_symbol
_atom_site_label
_atom_site_fract_x
_atom_site_fract_y
_atom_site_fract_z
Si Si1 0.636836 0.601391 0.599219
Si Si2 0.135203 0.528086 0.458995
Si Si3 0.310211 0.445612 0.758528
Si Si4 0.500000 0.260513 0.750000
O O1 0.350076 0.605269 0.525104
O O2 0.735463 0.566771 0.544392
O O3 0.698462 0.511618 0.671332
O O4 0.783429 0.693822 0.666284
O O5 0.937035 0.561577 0.348959
O O6 0.000000 0.500000 0.500000
O O7 0.500000 0.495064 0.750000
O O8 0.413687 0.335846 0.792302
#
# Coordination Sequence:
#
# PCOD9284716 Si02
#       4
#     8   8   8   4
#     4  11  22  41  68  90 129 172 202 266 323 360
#     4  11  21  39  66  94 128 166 211 263 312 375
#     4  10  21  41  63  95 128 159 220 258 301 394
#     4  10  22  40  70  94 122 174 214 250 324 382
#
# _framework density 20.479462000000002
#
# number of rings (size 3 to 8) (size 9 to 14) (size 15 to 20)
#    0.857    0.571    5.714    0.000    0.000    1.143 
#    0.000   21.429    0.000    0.000    0.000    0.000 
#    0.000    0.000    0.000    0.000    0.000    0.000 
#
# Total GULP energy -78075.935686 kJ/mol
# GULP energy per Si atom -5576.852549 kJ/mol
# Density = 2.043285 g / cm^3
# Si number density = 20.479462 Si / 1000 Ang^3
#
#
#
# Elastic Constant Matrix: (Units=GPa)
#
#
# Indices 1 2 3 4 5 6 
#
# 1 142.6825 26.7447 45.1167 0.0000 3.2595 0.0000
# 2 26.7447 84.5616 30.1594 0.0000 1.9580 0.0000
# 3 45.1167 30.1594 114.5204 0.0000 30.5023 0.0000
# 4 0.0000 0.0000 0.0000 -5.2896 0.0000 3.1030
# 5 3.2595 1.9580 30.5023 0.0000 53.8102 0.0000
# 6 0.0000 0.0000 0.0000 3.1030 0.0000 27.3147
#
#
#
# Elastic Compliance Matrix: (Units=1/GPa)
#
#
# Indices 1 2 3 4 5 6 
#
# 1 0.008281 -0.001496 -0.003238 0.000000 0.001388 0.000000
# 2 -0.001496 0.013461 -0.003356 0.000000 0.001503 0.000000
# 3 -0.003238 -0.003356 0.012729 0.000000 -0.006897 0.000000
# 4 0.000000 0.000000 0.000000 -0.177240 0.000000 0.020135
# 5 0.001388 0.001503 -0.006897 0.000000 0.022355 0.000000
# 6 0.000000 0.000000 0.000000 0.020135 0.000000 0.034323
#
#
# Mechanical properties :
#
#
# Convention : Reuss Voigt Hill
#
# Bulk Modulus (GPa) = 54.67475 60.64512 57.65994
# Shear Modulus (GPa) = -78.35282 31.14998 -23.60142
#
# Velocity S-wave (km/s) = -6.19211 3.90428 -3.39845
# Velocity P-wave (km/s) = 4.93637 7.07117 3.58006
#
# Compressibility (1/GPa) = 0.01828998
#
# Stress axis : x y z
#
# Youngs Moduli (GPa) = 120.75438 74.28847 78.56342
#
# Poissons Ratio (x) = 0.11116 0.25441
# Poissons Ratio (y) = 0.18069 0.26365
# Poissons Ratio (z) = 0.39103 0.24930
#
# Static dielectric constant tensor:
#      x y z
#    x 1.822100 0.000000 -0.009170 
#    y 0.000000 1.714950 0.000000 
#    z -0.009170 0.000000 1.769810 
# 
# From -- ./inp_files/226289.got.cif
#   From: 2010.05.17/outbox.cif.g08.bks.cpg/sg15_114_cif.got.tgz:226289.got - 2010.06.03 18:47:42.
