data_PCOD9284502
_publ_section_title
;
Structure prediction by ZEFSAII (Michael W. Deem and Ramdas Pophale) SiO2 
 PCOD9284502
Probable space group: C 2/C
;
_chemical_formula_sum "Si O2"
_cell_formula_units_Z 48
_cell_length_a 19.053609
_cell_length_b 20.005704
_cell_length_c 5.214252
_cell_angle_alpha 90.000000
_cell_angle_beta 81.652681
_cell_angle_gamma 90.000000
_cell_volume 1966.517183
_symmetry_space_group_name_H-M "C 2/C"
_symmetry_group_IT_number 15
_symmetry_cell_setting 'monoclinic'
loop_
_space_group_symop_operation_xyz
x,y,z
-x,y,1/2-z
-x,-y,-z
x,-y,1/2+z
1/2+x,1/2+y,z
1/2-x,1/2+y,1/2-z
1/2-x,1/2-y,-z
1/2+x,1/2-y,1/2+z
loop_
_atom_site_type_symbol
_atom_site_label
_atom_site_fract_x
_atom_site_fract_y
_atom_site_fract_z
Si Si1 0.177881 0.356567 0.341325
Si Si2 0.918279 0.738911 0.355707
Si Si3 0.893493 0.978480 0.238849
Si Si4 0.922876 0.545090 0.854712
Si Si5 0.804866 0.093634 0.111081
Si Si6 0.842249 0.779624 0.878670
O O1 0.115543 0.333622 0.567984
O O2 0.141195 0.404039 0.155164
O O3 0.237767 0.392164 0.472864
O O4 0.201670 0.285634 0.201294
O O5 0.905875 0.775669 0.633773
O O6 0.000000 0.736286 0.250000
O O7 0.872124 0.767864 0.144690
O O8 0.820655 0.021452 0.226560
O O9 0.872136 0.909036 0.376724
O O10 0.929107 0.978693 0.945831
O O11 0.918918 0.488088 0.635714
O O12 0.000000 0.577410 0.750000
O O13 0.808352 0.149511 0.326873
#
# Coordination Sequence:
#
# PCOD9284502 Si02
#       6
#     8   8   8   8   8   8
#     4  10  25  36  67  85 131 157 205 263 290 373
#     4  10  24  41  61  90 117 162 203 249 307 352
#     4   8  20  33  59  82 127 158 191 242 273 391
#     4  10  24  39  57  83 120 170 213 246 285 337
#     4  10  21  41  59  98 123 161 202 239 327 352
#     4  10  24  39  65  89 123 162 194 266 299 375
#
# _framework density 24.408632000000001
#
# number of rings (size 3 to 8) (size 9 to 14) (size 15 to 20)
#    2.000    0.333    0.000    1.000    9.333    2.667 
#    0.000    0.000    0.000    0.000    0.000   11.667 
#    0.000    0.000    0.000    0.000    0.000    0.000 
#
# Total GULP energy -133801.510806 kJ/mol
# GULP energy per Si atom -5575.062950 kJ/mol
# Density = 2.435308 g / cm^3
# Si number density = 24.408632 Si / 1000 Ang^3
#
#
#
# Elastic Constant Matrix: (Units=GPa)
#
#
# Indices 1 2 3 4 5 6 
#
# 1 32.4783 13.2164 0.4989 0.0000 11.8645 0.0000
# 2 13.2164 73.1535 9.2633 0.0000 7.3671 0.0000
# 3 0.4989 9.2633 127.9141 0.0000 0.0137 0.0000
# 4 0.0000 0.0000 0.0000 36.3952 0.0000 10.5476
# 5 11.8645 7.3671 0.0137 0.0000 39.1896 0.0000
# 6 0.0000 0.0000 0.0000 10.5476 0.0000 2.5326
#
#
#
# Elastic Compliance Matrix: (Units=1/GPa)
#
#
# Indices 1 2 3 4 5 6 
#
# 1 0.036767 -0.005663 0.000268 0.000000 -0.010067 0.000000
# 2 -0.005663 0.014937 -0.001060 0.000000 -0.001093 0.000000
# 3 0.000268 -0.001060 0.007893 0.000000 0.000115 0.000000
# 4 0.000000 0.000000 0.000000 -0.132759 0.000000 0.552902
# 5 -0.010067 -0.001093 0.000115 0.000000 0.028770 0.000000
# 6 0.000000 0.000000 0.000000 0.552902 0.000000 -1.907832
#
#
# Mechanical properties :
#
#
# Convention : Reuss Voigt Hill
#
# Bulk Modulus (GPa) = 21.41833 31.05592 26.23712
# Shear Modulus (GPa) = -2.59909 29.66131 13.53111
#
# Velocity S-wave (km/s) = -1.03302 3.48975 2.35703
# Velocity P-wave (km/s) = 2.71498 5.38412 4.26379
#
# Compressibility (1/GPa) = 0.04668898
#
# Stress axis : x y z
#
# Youngs Moduli (GPa) = 27.19799 66.94687 126.68782
#
# Poissons Ratio (x) = 0.37910 -0.03392
# Poissons Ratio (y) = 0.15402 0.13423
# Poissons Ratio (z) = -0.00728 0.07093
#
# Static dielectric constant tensor:
#      x y z
#    x 2.012490 0.000000 -0.089170 
#    y 0.000000 1.966300 0.000000 
#    z -0.089170 0.000000 1.992710 
# 
# From -- ./inp_files/15749.got.cif
#   From: 2010.05.17/outbox.cif.g08.bks.cpg/sg15_8_cif.got.tgz:15749.got - 2010.06.03 18:47:42.
