data_PCOD9284470
_publ_section_title
;
Structure prediction by ZEFSAII (Michael W. Deem and Ramdas Pophale) SiO2 
 PCOD9284470
Probable space group: C 2/C
;
_chemical_formula_sum "Si O2"
_cell_formula_units_Z 48
_cell_length_a 10.912421
_cell_length_b 21.973735
_cell_length_c 10.412735
_cell_angle_alpha 90.000000
_cell_angle_beta 54.885020
_cell_angle_gamma 90.000000
_cell_volume 2042.409266
_symmetry_space_group_name_H-M "C 2/C"
_symmetry_group_IT_number 15
_symmetry_cell_setting 'monoclinic'
loop_
_space_group_symop_operation_xyz
x,y,z
-x,y,1/2-z
-x,-y,-z
x,-y,1/2+z
1/2+x,1/2+y,z
1/2-x,1/2+y,1/2-z
1/2-x,1/2-y,-z
1/2+x,1/2-y,1/2+z
loop_
_atom_site_type_symbol
_atom_site_label
_atom_site_fract_x
_atom_site_fract_y
_atom_site_fract_z
Si Si1 0.528739 0.654448 0.585416
Si Si2 0.328767 0.007199 0.053011
Si Si3 0.022857 0.288932 0.504826
Si Si4 0.000000 0.562425 0.750000
Si Si5 0.239224 0.133145 0.231650
Si Si6 0.270820 0.883256 0.204055
Si Si7 0.000000 0.776993 0.750000
O O1 0.500000 0.635917 0.750000
O O2 0.536518 0.726887 0.574274
O O3 0.661646 0.629354 0.417904
O O4 0.369628 0.632122 0.622102
O O5 0.255704 0.066592 0.159757
O O6 0.249376 0.944754 0.135962
O O7 0.363403 0.021537 0.884068
O O8 0.500000 0.000000 0.000000
O O9 0.900324 0.334304 0.637196
O O10 0.975867 0.264932 0.390270
O O11 0.181783 0.323676 0.403641
O O12 0.077595 0.604505 0.807648
O O13 0.135602 0.178418 0.209324
#
# Coordination Sequence:
#
# PCOD9284470 Si02
#       7
#     8   8   8   4   8   8   4
#     4  11  27  45  60  97 139 184 224 276 342 403
#     4  10  22  42  66  98 127 174 222 274 334 409
#     4  11  22  41  70  96 136 180 227 281 333 408
#     4  10  21  40  74  98 128 167 228 286 340 394
#     4  11  23  40  68 100 137 173 230 276 347 403
#     4  11  24  44  67  98 135 178 228 281 340 401
#     4  10  23  36  66 110 140 169 218 292 358 390
#
# _framework density 23.501656000000001
#
# number of rings (size 3 to 8) (size 9 to 14) (size 15 to 20)
#    0.000    1.333    3.333    3.000    4.667    6.000 
#    3.000    0.000    0.000    0.000    0.000    0.000 
#    0.000    0.000    0.000    0.000    0.000    0.000 
#
# Total GULP energy -134117.331165 kJ/mol
# GULP energy per Si atom -5588.222132 kJ/mol
# Density = 2.344817 g / cm^3
# Si number density = 23.501656 Si / 1000 Ang^3
#
#
#
# Elastic Constant Matrix: (Units=GPa)
#
#
# Indices 1 2 3 4 5 6 
#
# 1 27.2995 11.6110 23.0205 0.0000 1.4852 0.0000
# 2 11.6110 163.4213 73.0457 0.0000 -3.4721 0.0000
# 3 23.0205 73.0457 176.8355 0.0000 -4.9546 0.0000
# 4 0.0000 0.0000 0.0000 23.4111 0.0000 0.8937
# 5 1.4852 -3.4721 -4.9546 0.0000 31.3223 0.0000
# 6 0.0000 0.0000 0.0000 0.8937 0.0000 22.4214
#
#
#
# Elastic Compliance Matrix: (Units=1/GPa)
#
#
# Indices 1 2 3 4 5 6 
#
# 1 0.041458 -0.000685 -0.005194 0.000000 -0.002863 0.000000
# 2 -0.000685 0.007520 -0.003006 0.000000 0.000391 0.000000
# 3 -0.005194 -0.003006 0.007604 0.000000 0.001116 0.000000
# 4 0.000000 0.000000 0.000000 0.042780 0.000000 -0.001705
# 5 -0.002863 0.000391 0.001116 0.000000 0.032282 0.000000
# 6 0.000000 0.000000 0.000000 -0.001705 0.000000 0.044668
#
#
# Mechanical properties :
#
#
# Convention : Reuss Voigt Hill
#
# Bulk Modulus (GPa) = 25.76554 64.76785 45.26670
# Shear Modulus (GPa) = 24.15234 32.75623 28.45429
#
# Velocity S-wave (km/s) = 3.20923 3.73739 3.48334
# Velocity P-wave (km/s) = 4.97185 6.80021 5.95660
#
# Compressibility (1/GPa) = 0.03881152
#
# Stress axis : x y z
#
# Youngs Moduli (GPa) = 24.12085 132.98279 131.50615
#
# Poissons Ratio (x) = 0.09104 0.68310
# Poissons Ratio (y) = 0.01651 0.39533
# Poissons Ratio (z) = 0.12529 0.39977
#
# Static dielectric constant tensor:
#      x y z
#    x 2.088120 0.000000 0.051500 
#    y 0.000000 1.944150 0.000000 
#    z 0.051500 0.000000 2.019240 
# 
# From -- ./inp_files/89453.got.cif
#   From: 2010.05.17/outbox.cif.g08.bks.cpg/sg15_45_cif.got.tgz:89453.got - 2010.06.03 18:47:42.
