data_PCOD9284634
_publ_section_title
;
Structure prediction by ZEFSAII (Michael W. Deem and Ramdas Pophale) SiO2 
 PCOD9284634
Probable space group: C 2/C
;
_chemical_formula_sum "Si O2"
_cell_formula_units_Z 64
_cell_length_a 6.368216
_cell_length_b 20.875700
_cell_length_c 22.323628
_cell_angle_alpha 90.000000
_cell_angle_beta 73.911558
_cell_angle_gamma 90.000000
_cell_volume 2851.493976
_symmetry_space_group_name_H-M "C 2/C"
_symmetry_group_IT_number 15
_symmetry_cell_setting 'monoclinic'
loop_
_space_group_symop_operation_xyz
x,y,z
-x,y,1/2-z
-x,-y,-z
x,-y,1/2+z
1/2+x,1/2+y,z
1/2-x,1/2+y,1/2-z
1/2-x,1/2-y,-z
1/2+x,1/2-y,1/2+z
loop_
_atom_site_type_symbol
_atom_site_label
_atom_site_fract_x
_atom_site_fract_y
_atom_site_fract_z
Si Si1 0.487241 0.877823 0.918655
Si Si2 0.606185 0.051649 0.805620
Si Si3 0.394969 0.570692 0.317626
Si Si4 0.302989 0.654299 0.488117
Si Si5 0.607790 0.669775 0.683063
Si Si6 0.166306 0.902900 0.393296
Si Si7 0.808475 0.239300 0.066133
Si Si8 0.102460 0.039367 0.418842
O O1 0.707542 0.887166 0.863501
O O2 0.566460 0.855459 0.978047
O O3 0.336885 0.822262 0.904754
O O4 0.334585 0.940444 0.928617
O O5 0.500000 0.037788 0.750000
O O6 0.736926 0.117606 0.798363
O O7 0.399662 0.064317 0.864391
O O8 0.769365 0.995091 0.811076
O O9 0.500000 0.599257 0.250000
O O10 0.587550 0.555335 0.349239
O O11 0.312435 0.651488 0.558534
O O12 0.441298 0.714198 0.452618
O O13 0.428633 0.588898 0.459612
O O14 0.500000 0.704542 0.750000
O O15 0.432947 0.629217 0.657626
O O16 0.741489 0.708798 0.621329
O O17 0.031502 0.965175 0.426988
O O18 0.750000 0.250000 0.000000
#
# Coordination Sequence:
#
# PCOD9284634 Si02
#       8
#     8   8   8   8   8   8   8   8
#     4  10  24  44  64 101 134 172 236 282 336 417
#     4  12  24  39  66 105 135 178 224 276 354 427
#     4  11  22  40  68  98 139 179 220 278 347 428
#     4  10  24  42  68 100 129 179 233 283 343 413
#     4  12  26  47  66  99 140 177 233 297 349 420
#     4  12  22  39  69 100 137 175 216 284 352 419
#     4  11  25  48  73  92 133 190 238 290 350 418
#     4  10  21  41  63 101 141 172 218 277 351 417
#
# _framework density 22.444372999999999
#
# number of rings (size 3 to 8) (size 9 to 14) (size 15 to 20)
#    0.000    1.000    5.000    1.500    1.750    2.000 
#    6.750    0.000    0.000    0.000    0.000    0.000 
#    0.000    0.000    0.000    0.000    0.000    0.000 
#
# Total GULP energy -178667.439048 kJ/mol
# GULP energy per Si atom -5583.357470 kJ/mol
# Density = 2.239329 g / cm^3
# Si number density = 22.444373 Si / 1000 Ang^3
#
#
#
# Elastic Constant Matrix: (Units=GPa)
#
#
# Indices 1 2 3 4 5 6 
#
# 1 99.9132 20.7079 28.8386 0.0000 17.1401 0.0000
# 2 20.7079 68.7798 40.4312 0.0000 2.4434 0.0000
# 3 28.8386 40.4312 93.1115 0.0000 11.0206 0.0000
# 4 0.0000 0.0000 0.0000 21.3669 0.0000 -5.3586
# 5 17.1401 2.4434 11.0206 0.0000 38.2523 0.0000
# 6 0.0000 0.0000 0.0000 -5.3586 0.0000 31.9551
#
#
#
# Elastic Compliance Matrix: (Units=1/GPa)
#
#
# Indices 1 2 3 4 5 6 
#
# 1 0.011866 -0.002104 -0.002224 0.000000 -0.004542 0.000000
# 2 -0.002104 0.019952 -0.008254 0.000000 0.002046 0.000000
# 3 -0.002224 -0.008254 0.015356 0.000000 -0.002900 0.000000
# 4 0.000000 0.000000 0.000000 0.048856 0.000000 0.008193
# 5 -0.004542 0.002046 -0.002900 0.000000 0.028882 0.000000
# 6 0.000000 0.000000 0.000000 0.008193 0.000000 0.032668
#
#
# Mechanical properties :
#
#
# Convention : Reuss Voigt Hill
#
# Bulk Modulus (GPa) = 45.43433 49.08444 47.25938
# Shear Modulus (GPa) = 26.30464 29.76997 28.03731
#
# Velocity S-wave (km/s) = 3.42715 3.64591 3.53822
# Velocity P-wave (km/s) = 5.99563 6.29606 6.14768
#
# Compressibility (1/GPa) = 0.02200979
#
# Stress axis : x y z
#
# Youngs Moduli (GPa) = 84.27591 50.12036 65.12073
#
# Poissons Ratio (x) = 0.10544 0.14483
# Poissons Ratio (y) = 0.17730 0.53752
# Poissons Ratio (z) = 0.18743 0.41370
#
# Static dielectric constant tensor:
#      x y z
#    x 1.868040 0.000000 -0.042300 
#    y 0.000000 1.884420 0.000000 
#    z -0.042300 0.000000 1.936400 
# 
# From -- ./inp_files/261691.got.cif
#   From: 2010.05.17/outbox.cif.g08.bks.cpg/sg15_131_cif.got.tgz:261691.got - 2010.06.03 18:47:42.
