data_PCOD9284176
_publ_section_title
;
Structure prediction by ZEFSAII (Michael W. Deem and Ramdas Pophale) SiO2 
 PCOD9284176
Probable space group: C 2/C
;
_chemical_formula_sum "Si O2"
_cell_formula_units_Z 44
_cell_length_a 25.353795
_cell_length_b 13.461664
_cell_length_c 18.018891
_cell_angle_alpha 90.000000
_cell_angle_beta 158.232046
_cell_angle_gamma 90.000000
_cell_volume 2280.690051
_symmetry_space_group_name_H-M "C 2/C"
_symmetry_group_IT_number 15
_symmetry_cell_setting 'monoclinic'
loop_
_space_group_symop_operation_xyz
x,y,z
-x,y,1/2-z
-x,-y,-z
x,-y,1/2+z
1/2+x,1/2+y,z
1/2-x,1/2+y,1/2-z
1/2-x,1/2-y,-z
1/2+x,1/2-y,1/2+z
loop_
_atom_site_type_symbol
_atom_site_label
_atom_site_fract_x
_atom_site_fract_y
_atom_site_fract_z
Si Si1 0.509238 0.069385 0.614715
Si Si2 0.785042 0.723820 0.287140
Si Si3 0.765616 0.196559 0.599741
Si Si4 0.500000 0.051837 0.250000
Si Si5 0.768688 0.438865 0.215851
Si Si6 0.457474 0.569552 0.514013
O O1 0.432416 0.175796 0.507038
O O2 0.659538 0.072361 0.769853
O O3 0.529668 0.020514 0.720558
O O4 0.392569 0.997525 0.422498
O O5 0.779695 0.730415 0.189783
O O6 0.761103 0.834156 0.284928
O O7 0.659929 0.654276 0.155875
O O8 0.750000 0.250000 0.500000
O O9 0.631735 0.124731 0.437750
O O10 0.904376 0.127486 0.779015
O O11 0.624577 0.501771 0.033464
O O12 0.500000 0.500000 0.500000
#
# Coordination Sequence:
#
# PCOD9284176 Si02
#       6
#     8   8   8   4   8   8
#     4  10  23  40  67  91 136 168 222 262 333 385
#     4  11  21  42  68  97 126 179 222 264 321 397
#     4  12  25  39  67 100 136 165 216 274 330 379
#     4  12  24  46  60  98 136 166 202 286 330 370
#     4  10  21  40  67  94 121 183 220 262 313 409
#     4  11  22  40  63  96 132 169 221 268 319 388
#
# _framework density 19.292406
#
# number of rings (size 3 to 8) (size 9 to 14) (size 15 to 20)
#    0.000    1.091    3.636    3.273    7.636    0.000 
#    0.000    0.909    0.000    0.000    0.000    0.000 
#    0.000    0.000    0.000    0.000    0.000    0.000 
#
# Total GULP energy -122843.338944 kJ/mol
# GULP energy per Si atom -5583.788134 kJ/mol
# Density = 1.924850 g / cm^3
# Si number density = 19.292406 Si / 1000 Ang^3
#
#
#
# Elastic Constant Matrix: (Units=GPa)
#
#
# Indices 1 2 3 4 5 6 
#
# 1 83.6341 23.6246 17.8955 0.0000 17.2214 0.0000
# 2 23.6246 91.5825 20.8828 0.0000 14.6369 0.0000
# 3 17.8955 20.8828 76.0876 0.0000 32.9098 0.0000
# 4 0.0000 0.0000 0.0000 43.4011 0.0000 -3.6866
# 5 17.2214 14.6369 32.9098 0.0000 33.6776 0.0000
# 6 0.0000 0.0000 0.0000 -3.6866 0.0000 23.9488
#
#
#
# Elastic Compliance Matrix: (Units=1/GPa)
#
#
# Indices 1 2 3 4 5 6 
#
# 1 0.013933 -0.002643 0.000058 0.000000 -0.006032 0.000000
# 2 -0.002643 0.012373 -0.001789 0.000000 -0.002278 0.000000
# 3 0.000058 -0.001789 0.023031 0.000000 -0.021758 0.000000
# 4 0.000000 0.000000 0.000000 0.023346 0.000000 0.003594
# 5 -0.006032 -0.002278 -0.021758 0.000000 0.055030 0.000000
# 6 0.000000 0.000000 0.000000 0.003594 0.000000 0.042309
#
#
# Mechanical properties :
#
#
# Convention : Reuss Voigt Hill
#
# Bulk Modulus (GPa) = 24.63783 41.78998 33.21391
# Shear Modulus (GPa) = 26.00088 32.79892 29.39990
#
# Velocity S-wave (km/s) = 3.67512 4.12769 3.90796
# Velocity P-wave (km/s) = 5.55042 6.66525 6.13322
#
# Compressibility (1/GPa) = 0.04058799
#
# Stress axis : x y z
#
# Youngs Moduli (GPa) = 71.77026 80.82174 43.41953
#
# Poissons Ratio (x) = 0.21363 -0.00250
# Poissons Ratio (y) = 0.18971 0.07768
# Poissons Ratio (z) = -0.00413 0.14459
#
# Static dielectric constant tensor:
#      x y z
#    x 1.689360 0.000000 0.016580 
#    y 0.000000 1.672870 0.000000 
#    z 0.016580 0.000000 1.675520 
# 
# From -- ./inp_files/219778.got.cif
#   From: 2010.05.17/outbox.cif.g08.bks.cpg/sg15_110_cif.got.tgz:219778.got - 2010.06.03 18:47:42.
