data_PCOD9284595
_publ_section_title
;
Structure prediction by ZEFSAII (Michael W. Deem and Ramdas Pophale) SiO2 
 PCOD9284595
Probable space group: C 2/C
;
_chemical_formula_sum "Si O2"
_cell_formula_units_Z 40
_cell_length_a 9.096044
_cell_length_b 9.958202
_cell_length_c 18.576470
_cell_angle_alpha 90.000000
_cell_angle_beta 78.937287
_cell_angle_gamma 90.000000
_cell_volume 1651.393539
_symmetry_space_group_name_H-M "C 2/C"
_symmetry_group_IT_number 15
_symmetry_cell_setting 'monoclinic'
loop_
_space_group_symop_operation_xyz
x,y,z
-x,y,1/2-z
-x,-y,-z
x,-y,1/2+z
1/2+x,1/2+y,z
1/2-x,1/2+y,1/2-z
1/2-x,1/2-y,-z
1/2+x,1/2-y,1/2+z
loop_
_atom_site_type_symbol
_atom_site_label
_atom_site_fract_x
_atom_site_fract_y
_atom_site_fract_z
Si Si1 0.677429 0.121055 0.748455
Si Si2 0.659946 0.527831 0.019566
Si Si3 0.158020 0.662557 0.198748
Si Si4 0.915752 0.386561 0.959314
Si Si5 0.778364 0.752247 0.093749
O O1 0.500000 0.126852 0.750000
O O2 0.731164 0.209942 0.810634
O O3 0.718344 0.964076 0.740053
O O4 0.757497 0.196051 0.675278
O O5 0.754809 0.391429 0.014497
O O6 0.753814 0.623249 0.955606
O O7 0.500000 0.500000 0.000000
O O8 0.672914 0.623060 0.088014
O O9 0.126068 0.605876 0.122020
O O10 0.000000 0.701780 0.250000
O O11 0.049411 0.279631 0.940971
O O12 0.000000 0.500000 0.000000
#
# Coordination Sequence:
#
# PCOD9284595 Si02
#       5
#     8   8   8   8   8
#     4  11  25  41  67  95 132 174 220 271 327 394
#     4  10  22  39  64  92 127 167 218 271 323 385
#     4  11  23  45  67  95 133 177 219 272 333 392
#     4  10  21  41  68  91 127 172 215 267 330 385
#     4  10  21  41  62  90 129 168 213 271 326 388
#
# _framework density 24.221969000000001
#
# number of rings (size 3 to 8) (size 9 to 14) (size 15 to 20)
#    0.000    1.600    4.000    0.000    2.800    1.600 
#    3.600    0.000    0.000    0.000    0.000    0.000 
#    0.000    0.000    0.000    0.000    0.000    0.000 
#
# Total GULP energy -111477.943378 kJ/mol
# GULP energy per Si atom -5573.897169 kJ/mol
# Density = 2.416684 g / cm^3
# Si number density = 24.221969 Si / 1000 Ang^3
#
#
#
# Elastic Constant Matrix: (Units=GPa)
#
#
# Indices 1 2 3 4 5 6 
#
# 1 111.9631 31.5945 0.0210 0.0000 18.7367 0.0000
# 2 31.5945 122.6805 10.8621 0.0000 24.3942 0.0000
# 3 0.0210 10.8621 63.0288 0.0000 16.2135 0.0000
# 4 0.0000 0.0000 0.0000 25.5356 0.0000 6.5198
# 5 18.7367 24.3942 16.2135 0.0000 30.2367 0.0000
# 6 0.0000 0.0000 0.0000 6.5198 0.0000 34.0203
#
#
#
# Elastic Compliance Matrix: (Units=1/GPa)
#
#
# Indices 1 2 3 4 5 6 
#
# 1 0.010417 -0.001627 0.001856 0.000000 -0.006138 0.000000
# 2 -0.001627 0.009971 0.000107 0.000000 -0.007094 0.000000
# 3 0.001856 0.000107 0.018751 0.000000 -0.011291 0.000000
# 4 0.000000 0.000000 0.000000 0.041176 0.000000 -0.007891
# 5 -0.006138 -0.007094 -0.011291 0.000000 0.048654 0.000000
# 6 0.000000 0.000000 0.000000 -0.007891 0.000000 0.030907
#
#
# Mechanical properties :
#
#
# Convention : Reuss Voigt Hill
#
# Bulk Modulus (GPa) = 25.11791 42.51418 33.81605
# Shear Modulus (GPa) = 28.98984 34.97151 31.98067
#
# Velocity S-wave (km/s) = 3.46329 3.80385 3.63756
# Velocity P-wave (km/s) = 5.13663 6.07309 5.62438
#
# Compressibility (1/GPa) = 0.03981223
#
# Stress axis : x y z
#
# Youngs Moduli (GPa) = 95.99351 100.28803 53.32988
#
# Poissons Ratio (x) = 0.16313 -0.09897
# Poissons Ratio (y) = 0.15615 -0.00571
# Poissons Ratio (z) = -0.17815 -0.01073
#
# Static dielectric constant tensor:
#      x y z
#    x 1.961830 0.000000 0.040970 
#    y 0.000000 2.038650 0.000000 
#    z 0.040970 0.000000 1.959010 
# 
# From -- ./inp_files/187917.got.cif
#   From: 2010.05.17/outbox.cif.g08.bks.cpg/sg15_94_cif.got.tgz:187917.got - 2010.06.03 18:47:42.
