data_PCOD9284137
_publ_section_title
;
Structure prediction by ZEFSAII (Michael W. Deem and Ramdas Pophale) SiO2 
 PCOD9284137
Probable space group: C 2/C
;
_chemical_formula_sum "Si O2"
_cell_formula_units_Z 56
_cell_length_a 12.038395
_cell_length_b 16.374267
_cell_length_c 11.761026
_cell_angle_alpha 90.000000
_cell_angle_beta 68.513415
_cell_angle_gamma 90.000000
_cell_volume 2157.215885
_symmetry_space_group_name_H-M "C 2/C"
_symmetry_group_IT_number 15
_symmetry_cell_setting 'monoclinic'
loop_
_space_group_symop_operation_xyz
x,y,z
-x,y,1/2-z
-x,-y,-z
x,-y,1/2+z
1/2+x,1/2+y,z
1/2-x,1/2+y,1/2-z
1/2-x,1/2-y,-z
1/2+x,1/2-y,1/2+z
loop_
_atom_site_type_symbol
_atom_site_label
_atom_site_fract_x
_atom_site_fract_y
_atom_site_fract_z
Si Si1 0.000000 0.567499 0.250000
Si Si2 0.000000 0.683339 0.750000
Si Si3 0.268929 0.706813 0.372791
Si Si4 0.370713 0.332092 0.559519
Si Si5 0.000917 0.668696 0.018215
Si Si6 0.396972 0.427344 0.954952
Si Si7 0.246796 0.983763 0.796263
Si Si8 0.888183 0.081737 0.839386
O O1 0.967322 0.613193 0.382800
O O2 0.113382 0.515419 0.243119
O O3 0.879807 0.740652 0.779280
O O4 0.015408 0.644397 0.613629
O O5 0.250000 0.750000 0.500000
O O6 0.130238 0.701220 0.388425
O O7 0.322795 0.620139 0.389378
O O8 0.398096 0.237899 0.532575
O O9 0.503302 0.368126 0.534309
O O10 0.292776 0.387141 0.676349
O O11 0.325491 0.364996 0.456385
O O12 0.310334 0.466234 0.078676
O O13 0.457088 0.506634 0.876821
O O14 0.204459 0.037803 0.706405
O O15 0.000000 0.132103 0.750000
#
# Coordination Sequence:
#
# PCOD9284137 Si02
#       8
#     4   4   8   8   8   8   8   8
#     4  12  30  50  67  99 164 212 244 298 374 462
#     4  10  22  42  75 109 146 202 242 306 386 436
#     4  10  21  40  67 107 146 189 243 308 362 451
#     4  11  22  40  69 107 136 174 249 323 378 416
#     4  11  26  45  71 111 153 196 254 309 376 454
#     4  11  20  37  67 102 135 176 245 297 368 435
#     4  11  25  46  67  98 145 198 247 305 376 445
#     4  11  20  34  67 104 130 175 233 310 371 422
#
# _framework density 25.959385999999999
#
# number of rings (size 3 to 8) (size 9 to 14) (size 15 to 20)
#    0.000    1.143    5.714    1.714    6.000    0.571 
#    0.000   13.571    0.000    0.000    0.000    0.000 
#    0.000    0.000    0.000    0.000    0.000    0.000 
#
# Total GULP energy -156093.842315 kJ/mol
# GULP energy per Si atom -5574.780083 kJ/mol
# Density = 2.590030 g / cm^3
# Si number density = 25.959386 Si / 1000 Ang^3
#
#
#
# Elastic Constant Matrix: (Units=GPa)
#
#
# Indices 1 2 3 4 5 6 
#
# 1 160.5935 38.4155 56.5956 0.0000 0.2206 0.0000
# 2 38.4155 30.0334 40.6053 0.0000 6.8862 0.0000
# 3 56.5956 40.6053 171.5718 0.0000 16.5304 0.0000
# 4 0.0000 0.0000 0.0000 9.7738 0.0000 -2.0438
# 5 0.2206 6.8862 16.5304 0.0000 43.7246 0.0000
# 6 0.0000 0.0000 0.0000 -2.0438 0.0000 5.9762
#
#
#
# Elastic Compliance Matrix: (Units=1/GPa)
#
#
# Indices 1 2 3 4 5 6 
#
# 1 0.009142 -0.011484 -0.000485 0.000000 0.001946 0.000000
# 2 -0.011484 0.063897 -0.010762 0.000000 -0.005936 0.000000
# 3 -0.000485 -0.010762 0.008689 0.000000 -0.001587 0.000000
# 4 0.000000 0.000000 0.000000 0.110195 0.000000 0.037685
# 5 0.001946 -0.005936 -0.001587 0.000000 0.024396 0.000000
# 6 0.000000 0.000000 0.000000 0.037685 0.000000 0.180217
#
#
# Mechanical properties :
#
#
# Convention : Reuss Voigt Hill
#
# Bulk Modulus (GPa) = 27.57488 70.38127 48.97807
# Shear Modulus (GPa) = 11.01112 27.00040 19.00576
#
# Velocity S-wave (km/s) = 2.06177 3.22856 2.70873
# Velocity P-wave (km/s) = 4.03896 6.40851 5.35641
#
# Compressibility (1/GPa) = 0.03626489
#
# Stress axis : x y z
#
# Youngs Moduli (GPa) = 109.38145 15.65026 115.09381
#
# Poissons Ratio (x) = 0.17972 0.05587
# Poissons Ratio (y) = 1.25611 1.23866
# Poissons Ratio (z) = 0.05309 0.16843
#
# Static dielectric constant tensor:
#      x y z
#    x 2.010110 0.000000 0.056390 
#    y 0.000000 2.471160 0.000000 
#    z 0.056390 0.000000 2.191530 
# 
# From -- ./inp_files/89594.got.cif
#   From: 2010.05.17/outbox.cif.g08.bks.cpg/sg15_45_cif.got.tgz:89594.got - 2010.06.03 18:47:42.
