data_PCOD9284015
_publ_section_title
;
Structure prediction by ZEFSAII (Michael W. Deem and Ramdas Pophale) SiO2 
 PCOD9284015
Probable space group: C 2/C
;
_chemical_formula_sum "Si O2"
_cell_formula_units_Z 52
_cell_length_a 8.477326
_cell_length_b 23.893404
_cell_length_c 10.334687
_cell_angle_alpha 90.000000
_cell_angle_beta 90.236051
_cell_angle_gamma 90.000000
_cell_volume 2093.295564
_symmetry_space_group_name_H-M "C 2/C"
_symmetry_group_IT_number 15
_symmetry_cell_setting 'monoclinic'
loop_
_space_group_symop_operation_xyz
x,y,z
-x,y,1/2-z
-x,-y,-z
x,-y,1/2+z
1/2+x,1/2+y,z
1/2-x,1/2+y,1/2-z
1/2-x,1/2-y,-z
1/2+x,1/2-y,1/2+z
loop_
_atom_site_type_symbol
_atom_site_label
_atom_site_fract_x
_atom_site_fract_y
_atom_site_fract_z
Si Si1 0.272728 0.973729 0.104737
Si Si2 0.000000 0.969747 0.750000
Si Si3 0.345061 0.150859 0.187967
Si Si4 0.142550 0.116987 0.434124
Si Si5 0.087525 0.789993 0.495239
Si Si6 0.131339 0.314361 0.145654
Si Si7 0.108634 0.433988 0.043228
O O1 0.462315 0.966657 0.108214
O O2 0.223170 0.913629 0.053129
O O3 0.155866 0.994111 0.216124
O O4 0.260771 0.020231 0.990582
O O5 0.023213 0.928189 0.871828
O O6 0.500000 0.179924 0.250000
O O7 0.255798 0.128797 0.314504
O O8 0.207465 0.182690 0.105353
O O9 0.406850 0.099746 0.095422
O O10 0.064564 0.173016 0.486852
O O11 0.062843 0.725299 0.529733
O O12 0.184916 0.796697 0.362536
O O13 0.141813 0.380908 0.132381
O O14 0.000000 0.301507 0.250000
#
# Coordination Sequence:
#
# PCOD9284015 Si02
#       7
#     8   4   8   8   8   8   8
#     4  11  24  37  59  89 127 163 205 250 305 363
#     4  12  22  36  56  88 124 158 202 252 302 360
#     4  11  19  37  65  89 117 157 205 253 300 359
#     4  12  21  38  63  91 118 164 205 256 304 358
#     4  10  22  40  67  94 119 153 214 255 299 368
#     4  10  21  40  66  89 120 165 199 248 312 366
#     4  10  22  41  57  91 125 159 206 249 303 378
#
# _framework density 24.841213
#
# number of rings (size 3 to 8) (size 9 to 14) (size 15 to 20)
#    0.000    1.231    4.615    2.308    0.000    2.462 
#    0.000    0.769    6.769    0.000    2.000    0.000 
#    0.000    0.000    0.000    0.000    0.000    0.000 
#
# Total GULP energy -144891.581210 kJ/mol
# GULP energy per Si atom -5572.753123 kJ/mol
# Density = 2.478467 g / cm^3
# Si number density = 24.841213 Si / 1000 Ang^3
#
#
#
# Elastic Constant Matrix: (Units=GPa)
#
#
# Indices 1 2 3 4 5 6 
#
# 1 47.2640 -3.1196 16.9096 0.0000 -22.1425 0.0000
# 2 -3.1196 69.0466 -4.7962 0.0000 -8.6891 0.0000
# 3 16.9096 -4.7962 78.6052 0.0000 -30.0547 0.0000
# 4 0.0000 0.0000 0.0000 26.2090 0.0000 -8.1207
# 5 -22.1425 -8.6891 -30.0547 0.0000 40.1593 0.0000
# 6 0.0000 0.0000 0.0000 -8.1207 0.0000 51.2062
#
#
#
# Elastic Compliance Matrix: (Units=1/GPa)
#
#
# Indices 1 2 3 4 5 6 
#
# 1 0.029321 0.003543 0.000537 0.000000 0.017335 0.000000
# 2 0.003543 0.015839 0.003168 0.000000 0.007752 0.000000
# 3 0.000537 0.003168 0.018456 0.000000 0.014793 0.000000
# 4 0.000000 0.000000 0.000000 0.040127 0.000000 0.006364
# 5 0.017335 0.007752 0.014793 0.000000 0.047207 0.000000
# 6 0.000000 0.000000 0.000000 0.006364 0.000000 0.020538
#
#
# Mechanical properties :
#
#
# Convention : Reuss Voigt Hill
#
# Bulk Modulus (GPa) = 12.80223 23.65593 18.22908
# Shear Modulus (GPa) = 27.31826 35.90971 31.61399
#
# Velocity S-wave (km/s) = 3.31979 3.80619 3.57128
# Velocity P-wave (km/s) = 4.45640 5.37212 4.93554
#
# Compressibility (1/GPa) = 0.07811137
#
# Stress axis : x y z
#
# Youngs Moduli (GPa) = 34.10564 63.13682 54.18314
#
# Poissons Ratio (x) = -0.22372 -0.02908
# Poissons Ratio (y) = -0.12085 -0.17165
# Poissons Ratio (z) = -0.01830 -0.20001
#
# Static dielectric constant tensor:
#      x y z
#    x 2.170920 0.000000 0.053210 
#    y 0.000000 1.979580 0.000000 
#    z 0.053210 0.000000 2.035510 
# 
# From -- ./inp_files/80691.got.cif
#   From: 2010.05.17/outbox.cif.g08.bks.cpg/sg15_41_cif.got.tgz:80691.got - 2010.06.03 18:47:42.
