data_PCOD9284117
_publ_section_title
;
Structure prediction by ZEFSAII (Michael W. Deem and Ramdas Pophale) SiO2 
 PCOD9284117
Probable space group: C 2/C
;
_chemical_formula_sum "Si O2"
_cell_formula_units_Z 48
_cell_length_a 19.728751
_cell_length_b 13.475277
_cell_length_c 18.737270
_cell_angle_alpha 90.000000
_cell_angle_beta 155.258560
_cell_angle_gamma 90.000000
_cell_volume 2084.798248
_symmetry_space_group_name_H-M "C 2/C"
_symmetry_group_IT_number 15
_symmetry_cell_setting 'monoclinic'
loop_
_space_group_symop_operation_xyz
x,y,z
-x,y,1/2-z
-x,-y,-z
x,-y,1/2+z
1/2+x,1/2+y,z
1/2-x,1/2+y,1/2-z
1/2-x,1/2-y,-z
1/2+x,1/2-y,1/2+z
loop_
_atom_site_type_symbol
_atom_site_label
_atom_site_fract_x
_atom_site_fract_y
_atom_site_fract_z
Si Si1 0.383196 0.102880 0.248336
Si Si2 0.160061 0.730628 0.054153
Si Si3 0.891180 0.136462 0.860095
Si Si4 0.561720 0.716962 0.887492
Si Si5 0.765651 0.929555 0.746612
Si Si6 0.889178 0.371581 0.213497
O O1 0.543948 0.163292 0.379025
O O2 0.362278 0.099065 0.314231
O O3 0.371877 0.988085 0.213532
O O4 0.231898 0.164390 0.068883
O O5 0.164709 0.786570 0.134082
O O6 0.254723 0.629023 0.161992
O O7 0.223023 0.808994 0.055792
O O8 0.985744 0.688527 0.866863
O O9 0.934889 0.179977 0.825704
O O10 0.766491 0.046645 0.735670
O O11 0.062351 0.097335 0.054021
O O12 0.500000 0.690252 0.750000
O O13 0.000000 0.362069 0.250000
#
# Coordination Sequence:
#
# PCOD9284117 Si02
#       6
#     8   8   8   8   8   8
#     4  11  24  44  68 101 142 177 229 280 333 409
#     4  12  23  45  70  97 136 181 226 282 338 398
#     4  10  21  40  66  99 134 175 229 273 332 403
#     4  11  24  42  70 102 142 181 219 280 349 400
#     4  10  21  40  68  99 131 177 229 278 328 400
#     4  12  28  47  68 101 138 179 231 282 340 407
#
# _framework density 23.023812
#
# number of rings (size 3 to 8) (size 9 to 14) (size 15 to 20)
#    0.000    1.000    5.000    1.500    0.000    3.333 
#    0.000    1.667    0.000    0.000    0.000    0.000 
#    0.000    0.000    0.000    0.000    0.000    0.000 
#
# Total GULP energy -134092.087357 kJ/mol
# GULP energy per Si atom -5587.170307 kJ/mol
# Density = 2.297141 g / cm^3
# Si number density = 23.023812 Si / 1000 Ang^3
#
#
#
# Elastic Constant Matrix: (Units=GPa)
#
#
# Indices 1 2 3 4 5 6 
#
# 1 93.5790 16.1324 9.3726 0.0000 13.6722 -0.0005
# 2 16.1324 134.1996 45.5657 0.0013 11.6520 0.0004
# 3 9.3726 45.5657 48.9264 -0.0007 13.8228 0.0008
# 4 0.0000 0.0013 -0.0007 22.7562 0.0001 16.0743
# 5 13.6722 11.6520 13.8228 0.0001 13.0975 0.0010
# 6 -0.0005 0.0004 0.0008 16.0743 0.0010 32.9802
#
#
#
# Elastic Compliance Matrix: (Units=1/GPa)
#
#
# Indices 1 2 3 4 5 6 
#
# 1 0.012869 -0.001246 0.003102 0.000000 -0.015600 0.000001
# 2 -0.001246 0.011037 -0.010877 -0.000002 0.002961 0.000001
# 3 0.003102 -0.010877 0.040117 0.000003 -0.035901 -0.000001
# 4 0.000000 -0.000002 0.000003 0.067017 0.000000 -0.032663
# 5 -0.015600 0.002961 -0.035901 0.000000 0.127890 -0.000004
# 6 0.000001 0.000001 -0.000001 -0.032663 -0.000004 0.046241
#
#
# Mechanical properties :
#
#
# Convention : Reuss Voigt Hill
#
# Bulk Modulus (GPa) = 21.74720 46.53847 34.14284
# Shear Modulus (GPa) = 14.76924 27.47573 21.12248
#
# Velocity S-wave (km/s) = 2.53549 3.45825 3.03218
# Velocity P-wave (km/s) = 4.24707 6.01690 5.20772
#
# Compressibility (1/GPa) = 0.04598293
#
# Stress axis : x y z
#
# Youngs Moduli (GPa) = 77.70349 90.60039 24.92683
#
# Poissons Ratio (x) = 0.11288 -0.07733
# Poissons Ratio (y) = 0.09681 0.27113
# Poissons Ratio (z) = -0.24107 0.98547
#
# Static dielectric constant tensor:
#      x y z
#    x 1.888410 0.000000 0.036800 
#    y 0.000000 1.920460 0.000000 
#    z 0.036800 0.000000 1.941250 
# 
# From -- ./inp_files/252608.got.cif
#   From: 2010.05.17/outbox.cif.g08.bks.cpg/sg15_127_cif.got.tgz:252608.got - 2010.06.03 18:47:42.
