data_PCOD9284013
_publ_section_title
;
Structure prediction by ZEFSAII (Michael W. Deem and Ramdas Pophale) SiO2 
 PCOD9284013
Probable space group: C 2/C
;
_chemical_formula_sum "Si O2"
_cell_formula_units_Z 52
_cell_length_a 21.631135
_cell_length_b 22.838970
_cell_length_c 5.095733
_cell_angle_alpha 90.000000
_cell_angle_beta 57.178047
_cell_angle_gamma 90.000000
_cell_volume 2115.569679
_symmetry_space_group_name_H-M "C 2/C"
_symmetry_group_IT_number 15
_symmetry_cell_setting 'monoclinic'
loop_
_space_group_symop_operation_xyz
x,y,z
-x,y,1/2-z
-x,-y,-z
x,-y,1/2+z
1/2+x,1/2+y,z
1/2-x,1/2+y,1/2-z
1/2-x,1/2-y,-z
1/2+x,1/2-y,1/2+z
loop_
_atom_site_type_symbol
_atom_site_label
_atom_site_fract_x
_atom_site_fract_y
_atom_site_fract_z
Si Si1 0.500000 0.805921 0.250000
Si Si2 0.580730 0.523775 0.896925
Si Si3 0.661453 0.374405 0.432108
Si Si4 0.800820 0.194666 0.134370
Si Si5 0.642335 0.198854 0.680734
Si Si6 0.073758 0.397926 0.684919
Si Si7 0.787722 0.463408 0.947560
O O1 0.433174 0.773853 0.258868
O O2 0.457579 0.847145 0.554091
O O3 0.615677 0.521073 0.526942
O O4 0.591251 0.585540 0.015812
O O5 0.500000 0.500000 0.000000
O O6 0.671609 0.349980 0.700476
O O7 0.665461 0.321043 0.220899
O O8 0.728895 0.415904 0.184217
O O9 0.712135 0.190649 0.331140
O O10 0.825631 0.258529 0.170959
O O11 0.617390 0.136650 0.856223
O O12 0.130807 0.438714 0.697891
O O13 0.000000 0.428666 0.750000
O O14 0.779265 0.482391 0.667284
#
# Coordination Sequence:
#
# PCOD9284013 Si02
#       7
#     4   8   8   8   8   8   8
#     4  10  22  42  72  88 142 176 226 258 350 404
#     4  10  21  40  66  88 125 178 225 267 334 395
#     4  12  23  43  65 101 133 174 225 282 336 397
#     4  11  25  40  74  99 137 168 230 281 336 395
#     4  10  23  43  67 102 131 180 219 278 338 410
#     4  10  23  42  67  93 135 178 219 265 338 410
#     4  12  26  41  66  97 133 170 223 279 329 393
#
# _framework density 24.579668000000002
#
# number of rings (size 3 to 8) (size 9 to 14) (size 15 to 20)
#    0.000    1.231    1.538    3.692    6.462    1.846 
#    0.000    4.615    0.000    0.000    0.000    0.000 
#    0.000    0.000    0.000    0.000    0.000    0.000 
#
# Total GULP energy -145448.064381 kJ/mol
# GULP energy per Si atom -5594.156322 kJ/mol
# Density = 2.452372 g / cm^3
# Si number density = 24.579668 Si / 1000 Ang^3
#
#
#
# Elastic Constant Matrix: (Units=GPa)
#
#
# Indices 1 2 3 4 5 6 
#
# 1 134.4744 20.7988 50.3293 0.0000 -27.3769 0.0000
# 2 20.7988 46.4418 15.8631 0.0000 -7.9103 0.0000
# 3 50.3293 15.8631 68.7939 0.0000 1.7501 0.0000
# 4 0.0000 0.0000 0.0000 40.0984 0.0000 2.4192
# 5 -27.3769 -7.9103 1.7501 0.0000 50.2700 0.0000
# 6 0.0000 0.0000 0.0000 2.4192 0.0000 45.4257
#
#
#
# Elastic Compliance Matrix: (Units=1/GPa)
#
#
# Indices 1 2 3 4 5 6 
#
# 1 0.012372 -0.001330 -0.008919 0.000000 0.006839 0.000000
# 2 -0.001330 0.024293 -0.004712 0.000000 0.003263 0.000000
# 3 -0.008919 -0.004712 0.022310 0.000000 -0.006375 0.000000
# 4 0.000000 0.000000 0.000000 0.025019 0.000000 -0.001332
# 5 0.006839 0.003263 -0.006375 0.000000 0.024353 0.000000
# 6 0.000000 0.000000 0.000000 -0.001332 0.000000 0.022085
#
#
# Mechanical properties :
#
#
# Convention : Reuss Voigt Hill
#
# Bulk Modulus (GPa) = 34.41836 47.07693 40.74764
# Shear Modulus (GPa) = 29.40518 38.00673 33.70596
#
# Velocity S-wave (km/s) = 3.46254 3.93653 3.70712
# Velocity P-wave (km/s) = 5.47894 6.31316 5.91079
#
# Compressibility (1/GPa) = 0.02905426
#
# Stress axis : x y z
#
# Youngs Moduli (GPa) = 80.82453 41.16417 44.82291
#
# Poissons Ratio (x) = 0.05473 0.39978
# Poissons Ratio (y) = 0.10746 0.21120
# Poissons Ratio (z) = 0.72088 0.19396
#
# Static dielectric constant tensor:
#      x y z
#    x 2.012040 0.000000 -0.075100 
#    y 0.000000 1.967090 0.000000 
#    z -0.075100 0.000000 2.184500 
# 
# From -- ./inp_files/13849.got.cif
#   From: 2010.05.17/outbox.cif.g08.bks.cpg/sg15_7_cif.got.tgz:13849.got - 2010.06.03 18:47:42.
