data_PCOD9284084
_publ_section_title
;
Structure prediction by ZEFSAII (Michael W. Deem and Ramdas Pophale) SiO2 
 PCOD9284084
Probable space group: C 2/C
;
_chemical_formula_sum "Si O2"
_cell_formula_units_Z 40
_cell_length_a 11.649327
_cell_length_b 12.163118
_cell_length_c 16.182823
_cell_angle_alpha 90.000000
_cell_angle_beta 42.887651
_cell_angle_gamma 90.000000
_cell_volume 1560.516460
_symmetry_space_group_name_H-M "C 2/C"
_symmetry_group_IT_number 15
_symmetry_cell_setting 'monoclinic'
loop_
_space_group_symop_operation_xyz
x,y,z
-x,y,1/2-z
-x,-y,-z
x,-y,1/2+z
1/2+x,1/2+y,z
1/2-x,1/2+y,1/2-z
1/2-x,1/2-y,-z
1/2+x,1/2-y,1/2+z
loop_
_atom_site_type_symbol
_atom_site_label
_atom_site_fract_x
_atom_site_fract_y
_atom_site_fract_z
Si Si1 0.384849 0.269721 0.736268
Si Si2 0.786228 0.172220 0.823633
Si Si3 0.147840 0.080522 0.002429
Si Si4 0.537565 0.331414 0.051743
Si Si5 0.825945 0.446452 0.564494
O O1 0.500000 0.226469 0.750000
O O2 0.339701 0.184837 0.688699
O O3 0.500124 0.364076 0.633424
O O4 0.228522 0.343988 0.851128
O O5 0.960776 0.200324 0.682221
O O6 0.797446 0.049321 0.851967
O O7 0.680367 0.247802 0.943570
O O8 0.306690 0.091266 0.979791
O O9 0.117531 0.140556 0.931098
O O10 0.123841 0.950988 0.005589
O O11 0.000000 0.500000 0.500000
#
# Coordination Sequence:
#
# PCOD9284084 Si02
#       5
#     8   8   8   8   8
#     4   9  19  38  62  87 123 174 217 254 316 389
#     4  11  22  37  66  98 128 165 217 272 319 388
#     4   9  20  41  64  83 128 183 210 249 330 399
#     4  10  21  40  66  95 128 172 217 262 326 390
#     4  11  22  38  61  94 132 166 216 275 318 371
#
# _framework density 25.632539999999999
#
# number of rings (size 3 to 8) (size 9 to 14) (size 15 to 20)
#    0.000    2.000    2.000    1.200    0.000    2.400 
#    0.000    8.000    0.000    0.000    0.000    0.000 
#    0.000    0.000    0.000    0.000    0.000    0.000 
#
# Total GULP energy -111708.226517 kJ/mol
# GULP energy per Si atom -5585.411326 kJ/mol
# Density = 2.557420 g / cm^3
# Si number density = 25.632540 Si / 1000 Ang^3
#
#
#
# Elastic Constant Matrix: (Units=GPa)
#
#
# Indices 1 2 3 4 5 6 
#
# 1 97.1547 11.3900 42.6627 0.0000 8.8462 0.0000
# 2 11.3900 136.3355 56.1935 0.0000 23.4384 0.0000
# 3 42.6627 56.1935 162.9364 0.0000 18.8055 0.0000
# 4 0.0000 0.0000 0.0000 37.5748 0.0000 11.0411
# 5 8.8462 23.4384 18.8055 0.0000 51.2587 0.0000
# 6 0.0000 0.0000 0.0000 11.0411 0.0000 23.1604
#
#
#
# Elastic Compliance Matrix: (Units=1/GPa)
#
#
# Indices 1 2 3 4 5 6 
#
# 1 0.011700 0.000493 -0.003106 0.000000 -0.001105 0.000000
# 2 0.000493 0.009022 -0.002876 0.000000 -0.003155 0.000000
# 3 -0.003106 -0.002876 0.008071 0.000000 -0.001110 0.000000
# 4 0.000000 0.000000 0.000000 0.030949 0.000000 -0.014754
# 5 -0.001105 -0.003155 -0.001110 0.000000 0.021549 0.000000
# 6 0.000000 0.000000 0.000000 -0.014754 0.000000 0.050211
#
#
# Mechanical properties :
#
#
# Convention : Reuss Voigt Hill
#
# Bulk Modulus (GPa) = 56.13863 68.54654 62.34259
# Shear Modulus (GPa) = 33.68886 41.47747 37.58316
#
# Velocity S-wave (km/s) = 3.62926 4.02700 3.83329
# Velocity P-wave (km/s) = 6.28577 6.95861 6.63073
#
# Compressibility (1/GPa) = 0.01781305
#
# Stress axis : x y z
#
# Youngs Moduli (GPa) = 85.47368 110.84532 123.90670
#
# Poissons Ratio (x) = -0.05461 0.38482
# Poissons Ratio (y) = -0.04211 0.35638
# Poissons Ratio (z) = 0.26546 0.31881
#
# Static dielectric constant tensor:
#      x y z
#    x 2.169160 0.000000 -0.081380 
#    y 0.000000 1.919130 0.000000 
#    z -0.081380 0.000000 2.131090 
# 
# From -- ./inp_files/85636.got.cif
#   From: 2010.05.17/outbox.cif.g08.bks.cpg/sg15_43_cif.got.tgz:85636.got - 2010.06.03 18:47:42.
