data_PCOD9284724
_publ_section_title
;
Structure prediction by ZEFSAII (Michael W. Deem and Ramdas Pophale) SiO2 
 PCOD9284724
Probable space group: C 2/C
;
_chemical_formula_sum "Si O2"
_cell_formula_units_Z 56
_cell_length_a 12.028672
_cell_length_b 17.892069
_cell_length_c 17.264359
_cell_angle_alpha 90.000000
_cell_angle_beta 50.754759
_cell_angle_gamma 90.000000
_cell_volume 2877.526913
_symmetry_space_group_name_H-M "C 2/C"
_symmetry_group_IT_number 15
_symmetry_cell_setting 'monoclinic'
loop_
_space_group_symop_operation_xyz
x,y,z
-x,y,1/2-z
-x,-y,-z
x,-y,1/2+z
1/2+x,1/2+y,z
1/2-x,1/2+y,1/2-z
1/2-x,1/2-y,-z
1/2+x,1/2-y,1/2+z
loop_
_atom_site_type_symbol
_atom_site_label
_atom_site_fract_x
_atom_site_fract_y
_atom_site_fract_z
Si Si1 0.346309 0.169863 0.278465
Si Si2 0.366981 0.551362 0.657808
Si Si3 0.858699 0.299662 0.404110
Si Si4 0.818392 0.064769 0.038067
Si Si5 0.311661 0.203425 0.746648
Si Si6 0.877678 0.543085 0.962364
Si Si7 0.672252 0.038582 0.338641
O O1 0.500000 0.183024 0.250000
O O2 0.240229 0.137147 0.391379
O O3 0.282553 0.241310 0.263257
O O4 0.357769 0.105175 0.208098
O O5 0.531013 0.574754 0.571942
O O6 0.333091 0.499056 0.598246
O O7 0.267361 0.623730 0.712105
O O8 0.324059 0.498327 0.748757
O O9 0.750000 0.250000 0.500000
O O10 0.834288 0.275382 0.326575
O O11 0.832372 0.387917 0.428508
O O12 0.024947 0.293670 0.356331
O O13 0.704462 0.031211 0.028290
O O14 0.045548 0.522606 0.883258
O O15 0.837739 0.562581 0.068062
#
# Coordination Sequence:
#
# PCOD9284724 Si02
#       7
#     8   8   8   8   8   8   8
#     4  11  23  43  63  95 132 176 217 273 322 396
#     4  10  21  41  63  97 128 167 212 271 328 397
#     4  11  24  40  68  97 131 170 221 274 338 396
#     4  10  22  39  71  93 125 167 221 267 328 387
#     4  11  24  41  64  95 134 178 214 267 336 394
#     4  11  20  40  66  97 122 167 215 274 324 392
#     4  10  22  38  67  93 127 160 224 268 325 386
#
# _framework density 19.461155000000002
#
# number of rings (size 3 to 8) (size 9 to 14) (size 15 to 20)
#    0.000    1.429    4.286    0.857    2.000    1.714 
#    2.571    0.714    0.000    0.000    0.000    0.000 
#    0.000    0.000    0.000    0.000    0.000    0.000 
#
# Total GULP energy -156197.072642 kJ/mol
# GULP energy per Si atom -5578.466880 kJ/mol
# Density = 1.941686 g / cm^3
# Si number density = 19.461155 Si / 1000 Ang^3
#
#
#
# Elastic Constant Matrix: (Units=GPa)
#
#
# Indices 1 2 3 4 5 6 
#
# 1 85.0020 39.7141 49.9353 0.0000 -8.0485 0.0000
# 2 39.7141 74.1177 42.0328 0.0000 -10.9735 0.0000
# 3 49.9353 42.0328 122.4494 0.0000 -25.5715 0.0000
# 4 0.0000 0.0000 0.0000 10.0172 0.0000 0.5739
# 5 -8.0485 -10.9735 -25.5715 0.0000 26.9594 0.0000
# 6 0.0000 0.0000 0.0000 0.5739 0.0000 34.8618
#
#
#
# Elastic Compliance Matrix: (Units=1/GPa)
#
#
# Indices 1 2 3 4 5 6 
#
# 1 0.017978 -0.006897 -0.005523 0.000000 -0.002679 0.000000
# 2 -0.006897 0.019462 -0.003297 0.000000 0.002736 0.000000
# 3 -0.005523 -0.003297 0.013625 0.000000 0.009933 0.000000
# 4 0.000000 0.000000 0.000000 0.099923 0.000000 -0.001645
# 5 -0.002679 0.002736 0.009933 0.000000 0.046828 0.000000
# 6 0.000000 0.000000 0.000000 -0.001645 0.000000 0.028712
#
#
# Mechanical properties :
#
#
# Convention : Reuss Voigt Hill
#
# Bulk Modulus (GPa) = 50.94099 60.54817 55.74458
# Shear Modulus (GPa) = 18.90310 24.36013 21.63161
#
# Velocity S-wave (km/s) = 3.11999 3.54182 3.33758
# Velocity P-wave (km/s) = 6.26192 6.92140 6.59991
#
# Compressibility (1/GPa) = 0.01963056
#
# Stress axis : x y z
#
# Youngs Moduli (GPa) = 55.62334 51.38093 73.39421
#
# Poissons Ratio (x) = 0.35439 0.40539
# Poissons Ratio (y) = 0.38366 0.24196
# Poissons Ratio (z) = 0.30723 0.16939
#
# Static dielectric constant tensor:
#      x y z
#    x 1.668160 0.000000 -0.010420 
#    y 0.000000 1.680000 0.000000 
#    z -0.010420 0.000000 1.686910 
# 
# From -- ./inp_files/199446.got.cif
#   From: 2010.05.17/outbox.cif.g08.bks.cpg/sg15_100_cif.got.tgz:199446.got - 2010.06.03 18:47:42.
