data_PCOD9284322
_publ_section_title
;
Structure prediction by ZEFSAII (Michael W. Deem and Ramdas Pophale) SiO2 
 PCOD9284322
Probable space group: C 2/C
;
_chemical_formula_sum "Si O2"
_cell_formula_units_Z 48
_cell_length_a 10.929376
_cell_length_b 17.529805
_cell_length_c 11.257497
_cell_angle_alpha 90.000000
_cell_angle_beta 100.767242
_cell_angle_gamma 90.000000
_cell_volume 2118.849410
_symmetry_space_group_name_H-M "C 2/C"
_symmetry_group_IT_number 15
_symmetry_cell_setting 'monoclinic'
loop_
_space_group_symop_operation_xyz
x,y,z
-x,y,1/2-z
-x,-y,-z
x,-y,1/2+z
1/2+x,1/2+y,z
1/2-x,1/2+y,1/2-z
1/2-x,1/2-y,-z
1/2+x,1/2-y,1/2+z
loop_
_atom_site_type_symbol
_atom_site_label
_atom_site_fract_x
_atom_site_fract_y
_atom_site_fract_z
Si Si1 0.327399 0.574010 0.400364
Si Si2 0.755485 0.676923 0.645116
Si Si3 0.098315 0.239349 0.158046
Si Si4 0.461361 0.040429 0.116124
Si Si5 0.962026 0.067182 0.864770
Si Si6 0.582755 0.187124 0.043586
O O1 0.334904 0.659129 0.351310
O O2 0.186750 0.552506 0.405205
O O3 0.418062 0.564031 0.530516
O O4 0.394501 0.513345 0.325199
O O5 0.815855 0.689690 0.784963
O O6 0.647278 0.617547 0.601428
O O7 0.693317 0.759851 0.611624
O O8 0.861784 0.655906 0.570424
O O9 0.000000 0.229231 0.250000
O O10 0.029576 0.260391 0.023502
O O11 0.500000 0.003829 0.250000
O O12 0.534345 0.121413 0.119639
O O13 0.500000 0.000000 0.000000
O O14 0.000000 0.106208 0.750000
#
# Coordination Sequence:
#
# PCOD9284322 Si02
#       6
#     8   8   8   8   8   8
#     4  11  25  45  68 100 139 183 236 294 348 424
#     4  10  21  41  69  99 138 177 231 287 351 420
#     4  10  21  40  69 102 136 183 228 287 356 419
#     4  12  29  48  72 102 141 190 239 292 352 416
#     4  11  25  42  68 100 134 182 233 293 356 413
#     4  10  22  42  66  97 134 178 229 283 349 416
#
# _framework density 22.653804000000001
#
# number of rings (size 3 to 8) (size 9 to 14) (size 15 to 20)
#    0.000    1.333    1.667    2.500    4.667    4.667 
#    0.000    0.000    0.000    0.000    0.000    0.000 
#    0.000    0.000    0.000    0.000    0.000    0.000 
#
# Total GULP energy -134033.500479 kJ/mol
# GULP energy per Si atom -5584.729187 kJ/mol
# Density = 2.260224 g / cm^3
# Si number density = 22.653804 Si / 1000 Ang^3
#
#
#
# Elastic Constant Matrix: (Units=GPa)
#
#
# Indices 1 2 3 4 5 6 
#
# 1 130.0343 21.2001 29.7778 0.0000 7.9765 0.0000
# 2 21.2001 36.7377 14.1999 0.0000 -4.1012 0.0000
# 3 29.7778 14.1999 76.1727 0.0000 1.6669 0.0000
# 4 0.0000 0.0000 0.0000 28.4747 0.0000 1.9594
# 5 7.9765 -4.1012 1.6669 0.0000 25.6045 0.0000
# 6 0.0000 0.0000 0.0000 1.9594 0.0000 19.8661
#
#
#
# Elastic Compliance Matrix: (Units=1/GPa)
#
#
# Indices 1 2 3 4 5 6 
#
# 1 0.009284 -0.004711 -0.002675 0.000000 -0.003473 0.000000
# 2 -0.004711 0.032394 -0.004349 0.000000 0.006939 0.000000
# 3 -0.002675 -0.004349 0.015003 0.000000 -0.000840 0.000000
# 4 0.000000 0.000000 0.000000 0.035359 0.000000 -0.003487
# 5 -0.003473 0.006939 -0.000840 0.000000 0.041304 0.000000
# 6 0.000000 0.000000 0.000000 -0.003487 0.000000 0.050681
#
#
# Mechanical properties :
#
#
# Convention : Reuss Voigt Hill
#
# Bulk Modulus (GPa) = 30.11076 41.47779 35.79427
# Shear Modulus (GPa) = 22.87644 26.64019 24.75831
#
# Velocity S-wave (km/s) = 3.18123 3.43296 3.30949
# Velocity P-wave (km/s) = 5.17824 5.83633 5.51711
#
# Compressibility (1/GPa) = 0.03321072
#
# Stress axis : x y z
#
# Youngs Moduli (GPa) = 107.71246 30.86960 66.65361
#
# Poissons Ratio (x) = 0.14543 0.17831
# Poissons Ratio (y) = 0.50745 0.28988
# Poissons Ratio (z) = 0.28814 0.13425
#
# Static dielectric constant tensor:
#      x y z
#    x 1.831740 0.000000 0.013460 
#    y 0.000000 1.888040 0.000000 
#    z 0.013460 0.000000 1.858080 
# 
# From -- ./inp_files/87466.got.cif
#   From: 2010.05.17/outbox.cif.g08.bks.cpg/sg15_44_cif.got.tgz:87466.got - 2010.06.03 18:47:42.
