data_PCOD9284746
_publ_section_title
;
Structure prediction by ZEFSAII (Michael W. Deem and Ramdas Pophale) SiO2 
 PCOD9284746
Probable space group: C 2/C
;
_chemical_formula_sum "Si O2"
_cell_formula_units_Z 44
_cell_length_a 9.324639
_cell_length_b 24.215446
_cell_length_c 11.593120
_cell_angle_alpha 90.000000
_cell_angle_beta 126.653590
_cell_angle_gamma 90.000000
_cell_volume 2100.098567
_symmetry_space_group_name_H-M "C 2/C"
_symmetry_group_IT_number 15
_symmetry_cell_setting 'monoclinic'
loop_
_space_group_symop_operation_xyz
x,y,z
-x,y,1/2-z
-x,-y,-z
x,-y,1/2+z
1/2+x,1/2+y,z
1/2-x,1/2+y,1/2-z
1/2-x,1/2-y,-z
1/2+x,1/2-y,1/2+z
loop_
_atom_site_type_symbol
_atom_site_label
_atom_site_fract_x
_atom_site_fract_y
_atom_site_fract_z
Si Si1 0.378672 0.975110 0.796565
Si Si2 0.658228 0.083840 0.604928
Si Si3 0.139364 0.878825 0.724509
Si Si4 0.577437 0.703366 0.540561
Si Si5 0.099805 0.678193 0.964916
Si Si6 0.000000 0.844805 0.250000
O O1 0.500000 0.993228 0.750000
O O2 0.238028 0.927276 0.704645
O O3 0.283428 0.030100 0.795898
O O4 0.517917 0.944454 0.949582
O O5 0.542134 0.129304 0.618557
O O6 0.828975 0.116480 0.639557
O O7 0.270785 0.843417 0.869627
O O8 0.000000 0.903764 0.750000
O O9 0.041311 0.839358 0.588610
O O10 0.778294 0.693385 0.587092
O O11 0.520527 0.764745 0.475113
O O12 0.552430 0.691077 0.663127
#
# Coordination Sequence:
#
# PCOD9284746 Si02
#       6
#     8   8   8   8   8   4
#     4  10  21  41  64  86 118 171 203 254 304 363
#     4  10  24  41  59  92 127 156 212 249 310 364
#     4   9  19  39  64  89 119 163 208 251 302 366
#     4  10  22  40  64  94 125 161 204 252 311 368
#     4   9  21  42  65  87 121 168 207 249 305 375
#     4  12  26  38  58 102 126 160 196 266 304 366
#
# _framework density 20.951397
#
# number of rings (size 3 to 8) (size 9 to 14) (size 15 to 20)
#    0.000    2.182    0.000    1.091    6.364    0.727 
#    6.545    1.818    0.000    0.000    0.000    0.000 
#    0.000    0.000    0.000    0.000    0.000    0.000 
#
# Total GULP energy -122775.904180 kJ/mol
# GULP energy per Si atom -5580.722917 kJ/mol
# Density = 2.090371 g / cm^3
# Si number density = 20.951397 Si / 1000 Ang^3
#
#
#
# Elastic Constant Matrix: (Units=GPa)
#
#
# Indices 1 2 3 4 5 6 
#
# 1 79.0355 45.3998 18.0726 0.0000 -13.2536 0.0000
# 2 45.3998 128.1235 21.5737 0.0000 -3.5435 0.0000
# 3 18.0726 21.5737 37.3539 0.0000 -13.5326 0.0000
# 4 0.0000 0.0000 0.0000 65.1577 0.0000 1.2691
# 5 -13.2536 -3.5435 -13.5326 0.0000 33.4935 0.0000
# 6 0.0000 0.0000 0.0000 1.2691 0.0000 30.6006
#
#
#
# Elastic Compliance Matrix: (Units=1/GPa)
#
#
# Indices 1 2 3 4 5 6 
#
# 1 0.017399 -0.005440 -0.003503 0.000000 0.004894 0.000000
# 2 -0.005440 0.010395 -0.004396 0.000000 -0.002829 0.000000
# 3 -0.003503 -0.004396 0.035536 0.000000 0.012506 0.000000
# 4 0.000000 0.000000 0.000000 0.015360 0.000000 -0.000637
# 5 0.004894 -0.002829 0.012506 0.000000 0.036547 0.000000
# 6 0.000000 0.000000 0.000000 -0.000637 0.000000 0.032706
#
#
# Mechanical properties :
#
#
# Convention : Reuss Voigt Hill
#
# Bulk Modulus (GPa) = 27.28478 46.06722 36.67600
# Shear Modulus (GPa) = 26.76116 36.48149 31.62132
#
# Velocity S-wave (km/s) = 3.57781 4.17735 3.88915
# Velocity P-wave (km/s) = 5.48806 6.73070 6.14089
#
# Compressibility (1/GPa) = 0.03665047
#
# Stress axis : x y z
#
# Youngs Moduli (GPa) = 57.47404 96.20338 28.14055
#
# Poissons Ratio (x) = 0.52335 0.09858
# Poissons Ratio (y) = 0.31266 0.12372
# Poissons Ratio (z) = 0.20134 0.42295
#
# Static dielectric constant tensor:
#      x y z
#    x 1.747910 0.000000 0.014710 
#    y 0.000000 1.703000 0.000000 
#    z 0.014710 0.000000 1.787400 
# 
# From -- ./inp_files/78103.got.cif
#   From: 2010.05.17/outbox.cif.g08.bks.cpg/sg15_40_cif.got.tgz:78103.got - 2010.06.03 18:47:42.
