data_PCOD9284780
_publ_section_title
;
Structure prediction by ZEFSAII (Michael W. Deem and Ramdas Pophale) SiO2 
 PCOD9284780
Probable space group: C 2/C
;
_chemical_formula_sum "Si O2"
_cell_formula_units_Z 52
_cell_length_a 18.155497
_cell_length_b 8.730132
_cell_length_c 18.887181
_cell_angle_alpha 90.000000
_cell_angle_beta 69.773496
_cell_angle_gamma 90.000000
_cell_volume 2809.009283
_symmetry_space_group_name_H-M "C 2/C"
_symmetry_group_IT_number 15
_symmetry_cell_setting 'monoclinic'
loop_
_space_group_symop_operation_xyz
x,y,z
-x,y,1/2-z
-x,-y,-z
x,-y,1/2+z
1/2+x,1/2+y,z
1/2-x,1/2+y,1/2-z
1/2-x,1/2-y,-z
1/2+x,1/2-y,1/2+z
loop_
_atom_site_type_symbol
_atom_site_label
_atom_site_fract_x
_atom_site_fract_y
_atom_site_fract_z
Si Si1 0.737515 0.901412 0.824422
Si Si2 0.105453 0.381297 0.435791
Si Si3 0.541838 0.024185 0.601363
Si Si4 0.737623 0.673174 0.427618
Si Si5 0.336728 0.689538 0.769931
Si Si6 0.705070 0.829144 0.079471
Si Si7 0.000000 0.688564 0.250000
O O1 0.692854 0.806164 0.779743
O O2 0.783190 0.781890 0.858203
O O3 0.672331 0.994938 0.891427
O O4 0.798053 0.023938 0.771676
O O5 0.070351 0.423808 0.524254
O O6 0.152350 0.222568 0.427081
O O7 0.036726 0.392098 0.400621
O O8 0.613974 0.137112 0.594049
O O9 0.525123 0.920336 0.675788
O O10 0.750000 0.750000 0.500000
O O11 0.800772 0.750134 0.355295
O O12 0.754189 0.493815 0.423051
O O13 0.429241 0.705570 0.746710
O O14 0.750000 0.750000 0.000000
#
# Coordination Sequence:
#
# PCOD9284780 Si02
#       7
#     8   8   8   8   8   8   4
#     4  11  23  41  63  93 127 165 215 261 312 384
#     4  10  21  41  64  92 127 167 214 259 319 374
#     4  11  22  38  66  95 129 169 208 260 327 381
#     4  11  20  39  64  93 122 168 212 260 304 375
#     4  11  23  40  63  92 125 164 210 262 319 375
#     4  12  22  39  64  95 126 170 216 257 313 381
#     4  12  22  40  64  96 126 168 210 264 328 382
#
# _framework density 18.511865
#
# number of rings (size 3 to 8) (size 9 to 14) (size 15 to 20)
#    0.000    0.923    6.154    1.846    0.000    0.000 
#    0.000    6.154    0.000    0.000    0.000    0.000 
#    0.000    0.000    0.000    0.000    0.000    0.000 
#
# Total GULP energy -145226.221074 kJ/mol
# GULP energy per Si atom -5585.623887 kJ/mol
# Density = 1.846973 g / cm^3
# Si number density = 18.511865 Si / 1000 Ang^3
#
#
#
# Elastic Constant Matrix: (Units=GPa)
#
#
# Indices 1 2 3 4 5 6 
#
# 1 173.2348 65.3833 20.1093 0.0000 7.5727 0.0000
# 2 65.3833 110.2400 14.2829 0.0000 8.4749 0.0000
# 3 20.1093 14.2829 71.6237 0.0000 5.7875 0.0000
# 4 0.0000 0.0000 0.0000 28.3492 0.0000 0.1208
# 5 7.5727 8.4749 5.7875 0.0000 25.6320 0.0000
# 6 0.0000 0.0000 0.0000 0.1208 0.0000 32.1244
#
#
#
# Elastic Compliance Matrix: (Units=1/GPa)
#
#
# Indices 1 2 3 4 5 6 
#
# 1 0.007554 -0.004280 -0.001224 0.000000 -0.000540 0.000000
# 2 -0.004280 0.011925 -0.000978 0.000000 -0.002458 0.000000
# 3 -0.001224 -0.000978 0.014714 0.000000 -0.002637 0.000000
# 4 0.000000 0.000000 0.000000 0.035275 0.000000 -0.000133
# 5 -0.000540 -0.002458 -0.002637 0.000000 0.040582 0.000000
# 6 0.000000 0.000000 0.000000 -0.000133 0.000000 0.031130
#
#
# Mechanical properties :
#
#
# Convention : Reuss Voigt Hill
#
# Bulk Modulus (GPa) = 47.10434 61.62772 54.36603
# Shear Modulus (GPa) = 31.01403 34.24265 32.62834
#
# Velocity S-wave (km/s) = 4.09756 4.30556 4.20284
# Velocity P-wave (km/s) = 6.92007 7.62104 7.27900
#
# Compressibility (1/GPa) = 0.02122947
#
# Stress axis : x y z
#
# Youngs Moduli (GPa) = 132.38867 83.85633 67.96472
#
# Poissons Ratio (x) = 0.35890 0.08316
# Poissons Ratio (y) = 0.56661 0.06646
# Poissons Ratio (z) = 0.16199 0.08200
#
# Static dielectric constant tensor:
#      x y z
#    x 1.617230 0.000000 -0.074990 
#    y 0.000000 1.590660 0.000000 
#    z -0.074990 0.000000 1.443680 
# 
# From -- ./inp_files/209035.got.cif
#   From: 2010.05.17/outbox.cif.g08.bks.cpg/sg15_105_cif.got.tgz:209035.got - 2010.06.03 18:47:42.
