data_PCOD9284926
_publ_section_title
;
Structure prediction by ZEFSAII (Michael W. Deem and Ramdas Pophale) SiO2 
 PCOD9284926
Probable space group: C 2/C
;
_chemical_formula_sum "Si O2"
_cell_formula_units_Z 44
_cell_length_a 14.606882
_cell_length_b 15.231532
_cell_length_c 19.281650
_cell_angle_alpha 90.000000
_cell_angle_beta 153.698143
_cell_angle_gamma 90.000000
_cell_volume 1900.847583
_symmetry_space_group_name_H-M "C 2/C"
_symmetry_group_IT_number 15
_symmetry_cell_setting 'monoclinic'
loop_
_space_group_symop_operation_xyz
x,y,z
-x,y,1/2-z
-x,-y,-z
x,-y,1/2+z
1/2+x,1/2+y,z
1/2-x,1/2+y,1/2-z
1/2-x,1/2-y,-z
1/2+x,1/2-y,1/2+z
loop_
_atom_site_type_symbol
_atom_site_label
_atom_site_fract_x
_atom_site_fract_y
_atom_site_fract_z
Si Si1 0.040283 0.857614 0.370082
Si Si2 0.500000 0.486684 0.750000
Si Si3 0.571385 0.401271 0.551929
Si Si4 0.795826 0.329656 0.974450
Si Si5 0.492807 0.159040 0.324107
Si Si6 0.161970 0.682888 0.802245
O O1 0.061711 0.863372 0.467205
O O2 0.271094 0.852761 0.492700
O O3 0.942221 0.762918 0.288376
O O4 0.940973 0.945579 0.271598
O O5 0.320175 0.422165 0.599325
O O6 0.500000 0.500000 0.500000
O O7 0.805265 0.387835 0.735649
O O8 0.387339 0.354910 0.467321
O O9 0.042756 0.338755 0.150305
O O10 0.750000 0.250000 0.000000
O O11 0.701926 0.286013 0.841482
O O12 0.500000 0.124517 0.250000
O O13 0.000000 0.647954 0.750000
#
# Coordination Sequence:
#
# PCOD9284926 Si02
#       6
#     8   4   8   8   8   8
#     4  10  23  42  69  96 132 174 229 278 335 403
#     4  12  22  40  74  98 126 174 236 272 340 424
#     4  11  26  39  65 102 132 175 227 277 335 415
#     4  10  21  41  65  96 125 178 217 275 342 413
#     4   9  20  46  67  91 131 179 219 279 342 390
#     4  10  23  42  65  91 136 178 219 270 359 396
#
# _framework density 23.147569000000001
#
# number of rings (size 3 to 8) (size 9 to 14) (size 15 to 20)
#    0.000    1.818    3.636    0.000   10.182    0.727 
#    0.000    0.909    0.000    0.000    0.000    0.000 
#    0.000    0.000    0.000    0.000    0.000    0.000 
#
# Total GULP energy -122593.235130 kJ/mol
# GULP energy per Si atom -5572.419779 kJ/mol
# Density = 2.309488 g / cm^3
# Si number density = 23.147569 Si / 1000 Ang^3
#
#
#
# Elastic Constant Matrix: (Units=GPa)
#
#
# Indices 1 2 3 4 5 6 
#
# 1 45.9751 4.9556 14.8852 -0.0009 19.6019 0.0003
# 2 4.9556 110.0023 27.2468 -0.0113 20.5797 -0.0015
# 3 14.8852 27.2468 99.7795 -0.0210 21.8867 -0.0014
# 4 -0.0009 -0.0113 -0.0210 34.5627 -0.0009 -4.4330
# 5 19.6019 20.5797 21.8867 -0.0009 44.4333 0.0010
# 6 0.0003 -0.0015 -0.0014 -4.4330 0.0010 26.6540
#
#
#
# Elastic Compliance Matrix: (Units=1/GPa)
#
#
# Indices 1 2 3 4 5 6 
#
# 1 0.027211 0.001436 -0.001875 0.000000 -0.011746 0.000000
# 2 0.001436 0.010366 -0.002077 0.000002 -0.004411 0.000001
# 3 -0.001875 -0.002077 0.011746 0.000007 -0.003996 0.000002
# 4 0.000000 0.000002 0.000007 0.029564 -0.000004 0.004917
# 5 -0.011746 -0.004411 -0.003996 -0.000004 0.031699 -0.000002
# 6 0.000000 0.000001 0.000002 0.004917 -0.000002 0.038336
#
#
# Mechanical properties :
#
#
# Convention : Reuss Voigt Hill
#
# Bulk Modulus (GPa) = 22.57837 38.88135 30.72986
# Shear Modulus (GPa) = 29.63549 35.04129 32.33839
#
# Velocity S-wave (km/s) = 3.58199 3.89501 3.74177
# Velocity P-wave (km/s) = 5.18486 6.08784 5.65440
#
# Compressibility (1/GPa) = 0.04429017
#
# Stress axis : x y z
#
# Youngs Moduli (GPa) = 36.74966 96.47074 85.13789
#
# Poissons Ratio (x) = -0.13854 0.15964
# Poissons Ratio (y) = -0.05277 0.17685
# Poissons Ratio (z) = 0.06891 0.20039
#
# Static dielectric constant tensor:
#      x y z
#    x 2.293170 0.000010 -0.001610 
#    y 0.000010 2.030300 -0.000020 
#    z -0.001610 -0.000020 1.934830 
# 
# From -- ./inp_files/277687.got.cif
#   From: 2010.05.17/outbox.cif.g08.bks.cpg/sg15_139_cif.got.tgz:277687.got - 2010.06.03 18:47:42.
