data_PCOD9284998
_publ_section_title
;
Structure prediction by ZEFSAII (Michael W. Deem and Ramdas Pophale) SiO2 
 PCOD9284998
Probable space group: C 2/C
;
_chemical_formula_sum "Si O2"
_cell_formula_units_Z 48
_cell_length_a 14.242146
_cell_length_b 14.841189
_cell_length_c 19.921468
_cell_angle_alpha 90.000000
_cell_angle_beta 152.833416
_cell_angle_gamma 90.000000
_cell_volume 1922.567155
_symmetry_space_group_name_H-M "C 2/C"
_symmetry_group_IT_number 15
_symmetry_cell_setting 'monoclinic'
loop_
_space_group_symop_operation_xyz
x,y,z
-x,y,1/2-z
-x,-y,-z
x,-y,1/2+z
1/2+x,1/2+y,z
1/2-x,1/2+y,1/2-z
1/2-x,1/2-y,-z
1/2+x,1/2-y,1/2+z
loop_
_atom_site_type_symbol
_atom_site_label
_atom_site_fract_x
_atom_site_fract_y
_atom_site_fract_z
Si Si1 0.500000 0.607899 0.750000
Si Si2 0.756521 0.004148 0.761179
Si Si3 0.291978 0.439814 0.937105
Si Si4 0.747686 0.808367 0.709941
Si Si5 0.308301 0.042053 0.499164
Si Si6 0.793018 0.249317 0.388144
Si Si7 0.500000 0.309678 0.750000
O O1 0.317218 0.542773 0.610478
O O2 0.383753 0.676703 0.724752
O O3 0.770794 0.917213 0.721855
O O4 0.535850 0.050443 0.613168
O O5 0.763194 0.970656 0.842430
O O6 0.967331 0.057746 0.890049
O O7 0.184521 0.510160 0.918722
O O8 0.230871 0.335270 0.895810
O O9 0.827804 0.781794 0.833953
O O10 0.508103 0.786818 0.552047
O O11 0.875539 0.762636 0.730937
O O12 0.171141 0.128905 0.396456
#
# Coordination Sequence:
#
# PCOD9284998 Si02
#       7
#     4   8   8   8   8   8   4
#     4  11  24  38  66 106 135 174 214 272 355 414
#     4  10  21  41  66  92 136 172 219 268 334 396
#     4  10  22  39  64 101 130 172 217 272 331 407
#     4  11  24  46  65  96 133 181 220 282 329 401
#     4  11  22  39  66 100 131 171 221 278 330 401
#     4  11  25  42  70  99 141 174 219 277 349 405
#     4  11  26  42  66  90 131 176 236 268 323 388
#
# _framework density 24.966616999999999
#
# number of rings (size 3 to 8) (size 9 to 14) (size 15 to 20)
#    0.000    1.333    3.333    1.500    4.667    5.333 
#    0.000    0.000    0.000    0.000    0.000    0.000 
#    0.000    0.000    0.000    0.000    0.000    0.000 
#
# Total GULP energy -134346.713592 kJ/mol
# GULP energy per Si atom -5597.779733 kJ/mol
# Density = 2.490979 g / cm^3
# Si number density = 24.966617 Si / 1000 Ang^3
#
#
#
# Elastic Constant Matrix: (Units=GPa)
#
#
# Indices 1 2 3 4 5 6 
#
# 1 50.1304 -18.4642 6.6639 0.0046 4.8017 0.0007
# 2 -18.4642 29.2206 18.0864 0.0131 -4.5675 0.0008
# 3 6.6639 18.0864 134.0087 0.0134 26.3975 0.0031
# 4 0.0046 0.0131 0.0134 21.3289 0.0054 -0.1223
# 5 4.8017 -4.5675 26.3975 0.0054 52.4384 0.0004
# 6 0.0007 0.0008 0.0031 -0.1223 0.0004 20.4294
#
#
#
# Elastic Compliance Matrix: (Units=1/GPa)
#
#
# Indices 1 2 3 4 5 6 
#
# 1 0.028035 0.020725 -0.004486 -0.000016 0.001496 -0.000001
# 2 0.020725 0.054723 -0.009970 -0.000034 0.007888 -0.000002
# 3 -0.004486 -0.009970 0.010125 0.000002 -0.005555 -0.000001
# 4 -0.000016 -0.000034 0.000002 0.046886 -0.000007 0.000281
# 5 0.001496 0.007888 -0.005555 -0.000007 0.022416 0.000000
# 6 -0.000001 -0.000002 -0.000001 0.000281 0.000000 0.048951
#
#
# Mechanical properties :
#
#
# Convention : Reuss Voigt Hill
#
# Bulk Modulus (GPa) = 9.48577 25.10354 17.29465
# Shear Modulus (GPa) = 21.39156 32.64423 27.01789
#
# Velocity S-wave (km/s) = 2.93030 3.61988 3.29319
# Velocity P-wave (km/s) = 3.90596 5.24862 4.62626
#
# Compressibility (1/GPa) = 0.10542111
#
# Stress axis : x y z
#
# Youngs Moduli (GPa) = 35.67018 18.27399 98.76523
#
# Poissons Ratio (x) = -0.37874 0.44307
# Poissons Ratio (y) = -0.73928 0.98468
# Poissons Ratio (z) = 0.16002 0.18219
#
# Static dielectric constant tensor:
#      x y z
#    x 2.045150 0.000000 -0.016630 
#    y 0.000000 1.965080 0.000000 
#    z -0.016630 0.000000 1.919350 
# 
# From -- ./inp_files/244957.got.cif
#   From: 2010.05.17/outbox.cif.g08.bks.cpg/sg15_123_cif.got.tgz:244957.got - 2010.06.03 18:47:42.
