data_PCOD9284429
_publ_section_title
;
Structure prediction by ZEFSAII (Michael W. Deem and Ramdas Pophale) SiO2 
 PCOD9284429
Probable space group: C 2/C
;
_chemical_formula_sum "Si O2"
_cell_formula_units_Z 44
_cell_length_a 21.822820
_cell_length_b 9.463417
_cell_length_c 14.471018
_cell_angle_alpha 90.000000
_cell_angle_beta 141.784677
_cell_angle_gamma 90.000000
_cell_volume 1848.761394
_symmetry_space_group_name_H-M "C 2/C"
_symmetry_group_IT_number 15
_symmetry_cell_setting 'monoclinic'
loop_
_space_group_symop_operation_xyz
x,y,z
-x,y,1/2-z
-x,-y,-z
x,-y,1/2+z
1/2+x,1/2+y,z
1/2-x,1/2+y,1/2-z
1/2-x,1/2-y,-z
1/2+x,1/2-y,1/2+z
loop_
_atom_site_type_symbol
_atom_site_label
_atom_site_fract_x
_atom_site_fract_y
_atom_site_fract_z
Si Si1 0.500000 0.492651 0.250000
Si Si2 0.689417 0.864663 0.210715
Si Si3 0.910334 0.392895 0.783819
Si Si4 0.338543 0.717144 0.035934
Si Si5 0.374969 0.034754 0.046802
Si Si6 0.479348 0.642845 0.530124
O O1 0.590573 0.598920 0.338241
O O2 0.528650 0.399170 0.371568
O O3 0.790064 0.834543 0.383446
O O4 0.631671 0.983040 0.202617
O O5 0.618541 0.726329 0.120295
O O6 0.703332 0.925385 0.124491
O O7 0.852497 0.390269 0.617823
O O8 0.927850 0.251392 0.862615
O O9 0.021265 0.422535 0.877403
O O10 0.250000 0.750000 0.000000
O O11 0.386752 0.868821 0.077738
O O12 0.500000 0.500000 0.500000
#
# Coordination Sequence:
#
# PCOD9284429 Si02
#       6
#     4   8   8   8   8   8
#     4  12  28  46  68 104 150 188 218 308 370 400
#     4  11  24  44  72 103 138 190 245 285 351 436
#     4  10  21  44  73 100 134 193 232 283 357 429
#     4  12  26  45  71 106 142 185 245 294 353 425
#     4  10  21  40  71  96 140 183 233 284 348 421
#     4  11  24  42  72 107 144 179 236 298 359 421
#
# _framework density 23.799717000000001
#
# number of rings (size 3 to 8) (size 9 to 14) (size 15 to 20)
#    0.000    1.091    1.818    6.545    7.636    0.000 
#    0.000    0.909    0.000    0.000    0.000    0.000 
#    0.000    0.000    0.000    0.000    0.000    0.000 
#
# Total GULP energy -123172.279528 kJ/mol
# GULP energy per Si atom -5598.739979 kJ/mol
# Density = 2.374555 g / cm^3
# Si number density = 23.799717 Si / 1000 Ang^3
#
#
#
# Elastic Constant Matrix: (Units=GPa)
#
#
# Indices 1 2 3 4 5 6 
#
# 1 56.5490 31.9015 22.6920 0.0000 -11.6282 0.0000
# 2 31.9015 139.9291 17.6221 0.0000 3.8982 0.0000
# 3 22.6920 17.6221 96.3922 0.0000 -18.5961 0.0000
# 4 0.0000 0.0000 0.0000 39.7303 0.0000 -10.0634
# 5 -11.6282 3.8982 -18.5961 0.0000 32.6871 0.0000
# 6 0.0000 0.0000 0.0000 -10.0634 0.0000 19.2544
#
#
#
# Elastic Compliance Matrix: (Units=1/GPa)
#
#
# Indices 1 2 3 4 5 6 
#
# 1 0.023301 -0.005109 -0.003184 0.000000 0.007087 0.000000
# 2 -0.005109 0.008534 -0.001016 0.000000 -0.003413 0.000000
# 3 -0.003184 -0.001016 0.012485 0.000000 0.006091 0.000000
# 4 0.000000 0.000000 0.000000 0.029010 0.000000 0.015162
# 5 0.007087 -0.003413 0.006091 0.000000 0.036987 0.000000
# 6 0.000000 0.000000 0.000000 0.015162 0.000000 0.059861
#
#
# Mechanical properties :
#
#
# Convention : Reuss Voigt Hill
#
# Bulk Modulus (GPa) = 38.90734 48.58904 43.74819
# Shear Modulus (GPa) = 25.33415 33.04468 29.18942
#
# Velocity S-wave (km/s) = 3.26617 3.73023 3.50589
# Velocity P-wave (km/s) = 5.53237 6.24604 5.90000
#
# Compressibility (1/GPa) = 0.02570209
#
# Stress axis : x y z
#
# Youngs Moduli (GPa) = 42.91705 117.17579 80.09785
#
# Poissons Ratio (x) = 0.59860 0.25504
# Poissons Ratio (y) = 0.21925 0.08138
# Poissons Ratio (z) = 0.13666 0.11905
#
# Static dielectric constant tensor:
#      x y z
#    x 1.887890 0.000000 -0.016690 
#    y 0.000000 2.062640 0.000000 
#    z -0.016690 0.000000 1.986810 
# 
# From -- ./inp_files/176745.got.cif
#   From: 2010.05.17/outbox.cif.g08.bks.cpg/sg15_89_cif.got.tgz:176745.got - 2010.06.03 18:47:42.
