data_PCOD9284090
_publ_section_title
;
Structure prediction by ZEFSAII (Michael W. Deem and Ramdas Pophale) SiO2 
 PCOD9284090
Probable space group: C 2/C
;
_chemical_formula_sum "Si O2"
_cell_formula_units_Z 60
_cell_length_a 22.305344
_cell_length_b 8.409759
_cell_length_c 23.784036
_cell_angle_alpha 90.000000
_cell_angle_beta 35.740400
_cell_angle_gamma 90.000000
_cell_volume 2606.005960
_symmetry_space_group_name_H-M "C 2/C"
_symmetry_group_IT_number 15
_symmetry_cell_setting 'monoclinic'
loop_
_space_group_symop_operation_xyz
x,y,z
-x,y,1/2-z
-x,-y,-z
x,-y,1/2+z
1/2+x,1/2+y,z
1/2-x,1/2+y,1/2-z
1/2-x,1/2-y,-z
1/2+x,1/2-y,1/2+z
loop_
_atom_site_type_symbol
_atom_site_label
_atom_site_fract_x
_atom_site_fract_y
_atom_site_fract_z
Si Si1 0.000000 0.798586 0.250000
Si Si2 0.275018 0.574368 0.337823
Si Si3 0.402632 0.523836 0.927297
Si Si4 0.435148 0.557376 0.114855
Si Si5 0.102956 0.598208 0.906663
Si Si6 0.256537 0.419651 0.185076
Si Si7 0.118385 0.223637 0.141200
Si Si8 0.691211 0.928626 0.621574
O O1 0.028137 0.898968 0.173560
O O2 0.098523 0.691522 0.187954
O O3 0.371685 0.562364 0.221958
O O4 0.188184 0.442194 0.390502
O O5 0.234973 0.746608 0.348891
O O6 0.317316 0.601158 0.368402
O O7 0.457184 0.508626 0.945698
O O8 0.378652 0.344931 0.923804
O O9 0.297164 0.619055 0.011797
O O10 0.432469 0.724029 0.083613
O O11 0.365638 0.445715 0.130226
O O12 0.170309 0.557435 0.799365
O O13 0.000000 0.500000 0.000000
O O14 0.222082 0.537662 0.162375
O O15 0.156747 0.402025 0.121349
O O16 0.000000 0.224036 0.250000
#
# Coordination Sequence:
#
# PCOD9284090 Si02
#       8
#     4   8   8   8   8   8   8   8
#     4  12  26  48  70  98 146 182 240 298 348 414
#     4   9  19  39  65  94 135 172 220 274 336 396
#     4  12  25  44  73 100 136 186 237 287 354 425
#     4  10  21  40  66  95 133 172 218 273 343 406
#     4  10  22  39  64 103 132 171 228 279 342 411
#     4   9  22  43  64  88 140 179 217 280 340 407
#     4  11  20  43  72 100 137 186 231 286 344 415
#     4  11  26  45  68 102 138 186 234 291 354 411
#
# _framework density 23.023738999999999
#
# number of rings (size 3 to 8) (size 9 to 14) (size 15 to 20)
#    0.000    1.600    2.667    0.800    3.733    5.867 
#    4.800    0.000    0.000    0.000    0.000    0.000 
#    0.000    0.000    0.000    0.000    0.000    0.000 
#
# Total GULP energy -167654.591965 kJ/mol
# GULP energy per Si atom -5588.486399 kJ/mol
# Density = 2.297134 g / cm^3
# Si number density = 23.023739 Si / 1000 Ang^3
#
#
#
# Elastic Constant Matrix: (Units=GPa)
#
#
# Indices 1 2 3 4 5 6 
#
# 1 137.6812 52.5278 49.8070 -0.0003 -28.8425 0.0003
# 2 52.5278 61.4815 44.0745 -0.0003 -16.4903 0.0005
# 3 49.8070 44.0745 133.8381 -0.0001 -17.8275 0.0002
# 4 -0.0003 -0.0003 -0.0001 8.6345 0.0000 -5.7845
# 5 -28.8425 -16.4903 -17.8275 0.0000 36.2634 -0.0001
# 6 0.0003 0.0005 0.0002 -5.7845 -0.0001 31.2548
#
#
#
# Elastic Compliance Matrix: (Units=1/GPa)
#
#
# Indices 1 2 3 4 5 6 
#
# 1 0.011751 -0.007854 -0.001089 0.000000 0.005240 0.000000
# 2 -0.007854 0.028164 -0.005862 0.000000 0.003679 0.000000
# 3 -0.001089 -0.005862 0.009991 0.000000 0.001380 0.000000
# 4 0.000000 0.000000 0.000000 0.132207 0.000000 0.024468
# 5 0.005240 0.003679 0.001380 0.000000 0.034095 0.000000
# 6 0.000000 0.000000 0.000000 0.024468 0.000000 0.036524
#
#
# Mechanical properties :
#
#
# Convention : Reuss Voigt Hill
#
# Bulk Modulus (GPa) = 49.26811 69.53549 59.40180
# Shear Modulus (GPa) = 17.29464 27.66996 22.48230
#
# Velocity S-wave (km/s) = 2.74371 3.47046 3.12826
# Velocity P-wave (km/s) = 5.61093 6.80632 6.23733
#
# Compressibility (1/GPa) = 0.02029710
#
# Stress axis : x y z
#
# Youngs Moduli (GPa) = 85.09885 35.50608 100.08838
#
# Poissons Ratio (x) = 0.27886 0.10897
# Poissons Ratio (y) = 0.66835 0.58672
# Poissons Ratio (z) = 0.09265 0.20814
#
# Static dielectric constant tensor:
#      x y z
#    x 1.841390 0.000000 -0.017260 
#    y 0.000000 1.867640 0.000000 
#    z -0.017260 0.000000 1.902820 
# 
# From -- ./inp_files/302049.got.cif
#   From: 2010.05.17/outbox.cif.g08.bks.cpg/sg15_152_cif.got.tgz:302049.got - 2010.06.03 18:47:42.
