data_PCOD9284066
_publ_section_title
;
Structure prediction by ZEFSAII (Michael W. Deem and Ramdas Pophale) SiO2 
 PCOD9284066
Probable space group: C 2/C
;
_chemical_formula_sum "Si O2"
_cell_formula_units_Z 36
_cell_length_a 15.804261
_cell_length_b 10.236120
_cell_length_c 11.765918
_cell_angle_alpha 90.000000
_cell_angle_beta 120.799197
_cell_angle_gamma 90.000000
_cell_volume 1634.977933
_symmetry_space_group_name_H-M "C 2/C"
_symmetry_group_IT_number 15
_symmetry_cell_setting 'monoclinic'
loop_
_space_group_symop_operation_xyz
x,y,z
-x,y,1/2-z
-x,-y,-z
x,-y,1/2+z
1/2+x,1/2+y,z
1/2-x,1/2+y,1/2-z
1/2-x,1/2-y,-z
1/2+x,1/2-y,1/2+z
loop_
_atom_site_type_symbol
_atom_site_label
_atom_site_fract_x
_atom_site_fract_y
_atom_site_fract_z
Si Si1 0.276719 0.390725 0.076108
Si Si2 0.140375 0.584514 0.672552
Si Si3 0.161029 0.347535 0.431589
Si Si4 0.046350 0.678186 0.079343
Si Si5 0.000000 0.127214 0.750000
O O1 0.245439 0.385759 0.188398
O O2 0.392089 0.431049 0.143102
O O3 0.250000 0.250000 0.000000
O O4 0.207784 0.507911 0.982069
O O5 0.120414 0.656264 0.776331
O O6 0.118248 0.432490 0.679465
O O7 0.061928 0.623208 0.522187
O O8 0.250000 0.250000 0.500000
O O9 0.089486 0.303290 0.483198
O O10 0.031037 0.788771 0.160975
#
# Coordination Sequence:
#
# PCOD9284066 Si02
#       5
#     8   8   8   8   4
#     4  11  23  43  67  96 129 175 217 266 321 394
#     4  10  21  40  66  94 126 167 221 267 315 383
#     4  11  24  43  62  95 134 169 210 267 333 387
#     4  10  22  37  67  96 122 169 221 270 313 382
#     4  12  22  42  68  98 132 170 226 266 334 388
#
# _framework density 22.018644999999999
#
# number of rings (size 3 to 8) (size 9 to 14) (size 15 to 20)
#    0.000    1.333    2.222    3.333    6.222    1.778 
#    4.000    2.222    0.000    0.000    0.000    0.000 
#    0.000    0.000    0.000    0.000    0.000    0.000 
#
# Total GULP energy -100362.478157 kJ/mol
# GULP energy per Si atom -5575.693231 kJ/mol
# Density = 2.196853 g / cm^3
# Si number density = 22.018645 Si / 1000 Ang^3
#
#
#
# Elastic Constant Matrix: (Units=GPa)
#
#
# Indices 1 2 3 4 5 6 
#
# 1 170.4276 22.2334 38.2375 0.0000 1.7257 0.0000
# 2 22.2334 45.6851 9.6802 0.0000 -6.2255 0.0000
# 3 38.2375 9.6802 80.8507 0.0000 -16.7576 0.0000
# 4 0.0000 0.0000 0.0000 2.5255 0.0000 -4.3835
# 5 1.7257 -6.2255 -16.7576 0.0000 36.7005 0.0000
# 6 0.0000 0.0000 0.0000 -4.3835 0.0000 30.4232
#
#
#
# Elastic Compliance Matrix: (Units=1/GPa)
#
#
# Indices 1 2 3 4 5 6 
#
# 1 0.007070 -0.003035 -0.003486 0.000000 -0.002439 0.000000
# 2 -0.003035 0.024035 -0.000627 0.000000 0.003933 0.000000
# 3 -0.003486 -0.000627 0.015578 0.000000 0.007171 0.000000
# 4 0.000000 0.000000 0.000000 0.528011 0.000000 0.076077
# 5 -0.002439 0.003933 0.007171 0.000000 0.031304 0.000000
# 6 0.000000 0.000000 0.000000 0.076077 0.000000 0.043831
#
#
# Mechanical properties :
#
#
# Convention : Reuss Voigt Hill
#
# Bulk Modulus (GPa) = 30.87584 48.58508 39.73046
# Shear Modulus (GPa) = 7.40828 29.05066 18.22947
#
# Velocity S-wave (km/s) = 1.83626 3.63625 2.88047
# Velocity P-wave (km/s) = 4.30684 6.30421 5.39870
#
# Compressibility (1/GPa) = 0.03238778
#
# Stress axis : x y z
#
# Youngs Moduli (GPa) = 141.43676 41.60657 64.19112
#
# Poissons Ratio (x) = 0.12626 0.22377
# Poissons Ratio (y) = 0.42920 0.04026
# Poissons Ratio (z) = 0.49305 0.02610
#
# Static dielectric constant tensor:
#      x y z
#    x 1.925440 0.000000 0.011130 
#    y 0.000000 1.839390 0.000000 
#    z 0.011130 0.000000 1.792660 
# 
# From -- ./inp_files/94368.got.cif
#   From: 2010.05.17/outbox.cif.g08.bks.cpg/sg15_48_cif.got.tgz:94368.got - 2010.06.03 18:47:42.
