data_PCOD9284200
_publ_section_title
;
Structure prediction by ZEFSAII (Michael W. Deem and Ramdas Pophale) SiO2 
 PCOD9284200
Probable space group: C 2/C
;
_chemical_formula_sum "Si O2"
_cell_formula_units_Z 64
_cell_length_a 19.261321
_cell_length_b 7.604118
_cell_length_c 32.543903
_cell_angle_alpha 90.000000
_cell_angle_beta 145.760165
_cell_angle_gamma 90.000000
_cell_volume 2681.941256
_symmetry_space_group_name_H-M "C 2/C"
_symmetry_group_IT_number 15
_symmetry_cell_setting 'monoclinic'
loop_
_space_group_symop_operation_xyz
x,y,z
-x,y,1/2-z
-x,-y,-z
x,-y,1/2+z
1/2+x,1/2+y,z
1/2-x,1/2+y,1/2-z
1/2-x,1/2-y,-z
1/2+x,1/2-y,1/2+z
loop_
_atom_site_type_symbol
_atom_site_label
_atom_site_fract_x
_atom_site_fract_y
_atom_site_fract_z
Si Si1 0.126095 0.099136 0.058682
Si Si2 0.448992 0.059114 0.020623
Si Si3 0.044948 0.894257 0.727624
Si Si4 0.794818 0.341353 0.816048
Si Si5 0.725617 0.968054 0.438600
Si Si6 0.014418 0.533167 0.210008
Si Si7 0.808965 0.060383 0.064127
Si Si8 0.776895 0.076977 0.309110
O O1 0.221658 0.970834 0.082089
O O2 0.154240 0.162308 0.118552
O O3 0.107147 0.251602 0.017040
O O4 0.000000 0.000000 0.000000
O O5 0.570396 0.073271 0.109644
O O6 0.500000 0.000000 0.000000
O O7 0.325986 0.969498 0.979965
O O8 0.191342 0.924282 0.795268
O O9 0.032335 0.680004 0.718325
O O10 0.000000 0.947305 0.750000
O O11 0.942614 0.984472 0.648671
O O12 0.808043 0.130937 0.828154
O O13 0.720078 0.363901 0.736310
O O14 0.603254 0.081504 0.374319
O O15 0.806578 0.019508 0.517165
O O16 0.686503 0.772332 0.432055
O O17 0.135485 0.610671 0.250408
O O18 0.000000 0.586565 0.250000
#
# Coordination Sequence:
#
# PCOD9284200 Si02
#       8
#     8   8   8   8   8   8   8   8
#     4  12  25  42  68  96 137 182 223 274 345 415
#     4  12  26  44  69  98 140 182 231 287 340 403
#     4   9  19  36  63  88 122 168 222 269 324 391
#     4  11  25  43  67  97 135 177 226 287 333 405
#     4  10  21  40  67  96 130 172 225 274 336 404
#     4   9  16  35  63  90 119 164 213 264 319 395
#     4  10  22  39  67 101 129 173 227 281 332 401
#     4  11  24  43  68  99 132 177 226 276 342 405
#
# _framework density 23.863309999999998
#
# number of rings (size 3 to 8) (size 9 to 14) (size 15 to 20)
#    0.000    1.500    2.500    2.250    5.250    1.500 
#    0.000    1.250    2.750    0.000    0.000    0.000 
#    0.000    0.000    0.000    0.000    0.000    0.000 
#
# Total GULP energy -178414.799208 kJ/mol
# GULP energy per Si atom -5575.462475 kJ/mol
# Density = 2.380900 g / cm^3
# Si number density = 23.863310 Si / 1000 Ang^3
#
#
#
# Elastic Constant Matrix: (Units=GPa)
#
#
# Indices 1 2 3 4 5 6 
#
# 1 45.2205 -5.2208 -11.9101 0.0003 -4.9612 -0.0005
# 2 -5.2208 32.0102 4.7177 0.0011 -8.4361 -0.0021
# 3 -11.9101 4.7177 132.3578 -0.0001 -6.6445 0.0002
# 4 0.0003 0.0011 -0.0001 18.1345 -0.0002 -9.3959
# 5 -4.9612 -8.4361 -6.6445 -0.0002 39.1341 0.0003
# 6 -0.0005 -0.0021 0.0002 -9.3959 0.0003 34.9654
#
#
#
# Elastic Compliance Matrix: (Units=1/GPa)
#
#
# Indices 1 2 3 4 5 6 
#
# 1 0.023715 0.004703 0.002187 0.000000 0.004391 0.000000
# 2 0.004703 0.034145 -0.000398 -0.000001 0.007889 0.000002
# 3 0.002187 -0.000398 0.007843 0.000000 0.001523 0.000000
# 4 0.000000 -0.000001 0.000000 0.064063 0.000000 0.017215
# 5 0.004391 0.007889 0.001523 0.000000 0.028069 0.000000
# 6 0.000000 0.000002 0.000000 0.017215 0.000000 0.033226
#
#
# Mechanical properties :
#
#
# Convention : Reuss Voigt Hill
#
# Bulk Modulus (GPa) = 12.70876 20.52911 16.61894
# Shear Modulus (GPa) = 24.47321 33.24690 28.86006
#
# Velocity S-wave (km/s) = 3.20591 3.73664 3.48140
# Velocity P-wave (km/s) = 4.36360 5.21901 4.81036
#
# Compressibility (1/GPa) = 0.07868587
#
# Stress axis : x y z
#
# Youngs Moduli (GPa) = 42.16812 29.28698 127.50730
#
# Poissons Ratio (x) = -0.13773 -0.27883
# Poissons Ratio (y) = -0.19831 0.05072
# Poissons Ratio (z) = -0.09221 0.01165
#
# Static dielectric constant tensor:
#      x y z
#    x 1.790230 0.000000 0.137960 
#    y 0.000000 1.925110 0.000000 
#    z 0.137960 0.000000 1.821010 
# 
# From -- ./inp_files/315722.got.cif
#   From: 2010.05.17/outbox.cif.g08.bks.cpg/sg15_158_cif.got.tgz:315722.got - 2010.06.03 18:47:42.
