data_PCOD9284962
_publ_section_title
;
Structure prediction by ZEFSAII (Michael W. Deem and Ramdas Pophale) SiO2 
 PCOD9284962
Probable space group: C 2/C
;
_chemical_formula_sum "Si O2"
_cell_formula_units_Z 44
_cell_length_a 14.048869
_cell_length_b 14.047156
_cell_length_c 11.407395
_cell_angle_alpha 90.000000
_cell_angle_beta 43.762366
_cell_angle_gamma 90.000000
_cell_volume 1557.092904
_symmetry_space_group_name_H-M "C 2/C"
_symmetry_group_IT_number 15
_symmetry_cell_setting 'monoclinic'
loop_
_space_group_symop_operation_xyz
x,y,z
-x,y,1/2-z
-x,-y,-z
x,-y,1/2+z
1/2+x,1/2+y,z
1/2-x,1/2+y,1/2-z
1/2-x,1/2-y,-z
1/2+x,1/2-y,1/2+z
loop_
_atom_site_type_symbol
_atom_site_label
_atom_site_fract_x
_atom_site_fract_y
_atom_site_fract_z
Si Si1 0.279620 0.504375 0.615187
Si Si2 0.727335 0.345021 0.202972
Si Si3 0.501420 0.892651 0.872467
Si Si4 0.500000 0.422389 0.250000
Si Si5 0.432120 0.190801 0.928318
Si Si6 0.841507 0.166640 0.219744
O O1 0.276307 0.610605 0.665161
O O2 0.122140 0.468604 0.742347
O O3 0.384636 0.484563 0.417543
O O4 0.340683 0.437888 0.666746
O O5 0.582552 0.357880 0.269621
O O6 0.782258 0.237441 0.168303
O O7 0.839606 0.409382 0.035726
O O8 0.500000 0.836152 0.750000
O O9 0.535181 0.855744 0.973156
O O10 0.500000 0.149615 0.750000
O O11 0.514227 0.290076 0.869922
O O12 0.268252 0.178844 0.078095
#
# Coordination Sequence:
#
# PCOD9284962 Si02
#       6
#     8   8   8   4   8   8
#     4  11  24  46  68 104 141 186 236 290 353 419
#     4  11  24  46  68 104 141 186 236 290 353 419
#     4  10  21  46  72 101 132 184 242 296 341 407
#     4  12  24  42  70 104 146 188 226 294 362 422
#     4  10  21  41  66 103 139 183 231 287 351 419
#     4  10  23  45  68 100 139 184 239 282 351 420
#
# _framework density 28.257787
#
# number of rings (size 3 to 8) (size 9 to 14) (size 15 to 20)
#    0.000    1.455    1.818    2.727    0.000    0.727 
#   36.000    1.818    0.000    0.000    0.000    0.000 
#    0.000    0.000    0.000    0.000    0.000    0.000 
#
# Total GULP energy -123129.490374 kJ/mol
# GULP energy per Si atom -5596.795017 kJ/mol
# Density = 2.819347 g / cm^3
# Si number density = 28.257787 Si / 1000 Ang^3
#
#
#
# Elastic Constant Matrix: (Units=GPa)
#
#
# Indices 1 2 3 4 5 6 
#
# 1 109.8809 28.2235 50.8635 0.0000 -5.1470 0.0000
# 2 28.2235 71.4144 30.5299 0.0000 -1.7597 0.0000
# 3 50.8635 30.5299 256.9595 0.0000 -13.6186 0.0000
# 4 0.0000 0.0000 0.0000 13.2945 0.0000 -7.3694
# 5 -5.1470 -1.7597 -13.6186 0.0000 67.5727 0.0000
# 6 0.0000 0.0000 0.0000 -7.3694 0.0000 33.5603
#
#
#
# Elastic Compliance Matrix: (Units=1/GPa)
#
#
# Indices 1 2 3 4 5 6 
#
# 1 0.010814 -0.003538 -0.001700 0.000000 0.000389 0.000000
# 2 -0.003538 0.015909 -0.001195 0.000000 -0.000096 0.000000
# 3 -0.001700 -0.001195 0.004409 0.000000 0.000728 0.000000
# 4 0.000000 0.000000 0.000000 0.085644 0.000000 0.018806
# 5 0.000389 -0.000096 0.000728 0.000000 0.014973 0.000000
# 6 0.000000 0.000000 0.000000 0.018806 0.000000 0.033927
#
#
# Mechanical properties :
#
#
# Convention : Reuss Voigt Hill
#
# Bulk Modulus (GPa) = 54.74175 73.05427 63.89801
# Shear Modulus (GPa) = 27.08124 44.79471 35.93798
#
# Velocity S-wave (km/s) = 3.09910 3.98580 3.57009
# Velocity P-wave (km/s) = 5.67629 6.86229 6.29727
#
# Compressibility (1/GPa) = 0.01826759
#
# Stress axis : x y z
#
# Youngs Moduli (GPa) = 92.46879 62.85577 226.82544
#
# Poissons Ratio (x) = 0.22237 0.38554
# Poissons Ratio (y) = 0.32713 0.27107
# Poissons Ratio (z) = 0.15717 0.07512
#
# Static dielectric constant tensor:
#      x y z
#    x 2.225440 0.000000 -0.010580 
#    y 0.000000 2.192330 0.000000 
#    z -0.010580 0.000000 2.212150 
# 
# From -- ./inp_files/106599.got.cif
#   From: 2010.05.17/outbox.cif.g08.bks.cpg/sg15_54_cif.got.tgz:106599.got - 2010.06.03 18:47:42.
