data_PCOD9284128
_publ_section_title
;
Structure prediction by ZEFSAII (Michael W. Deem and Ramdas Pophale) SiO2 
 PCOD9284128
Probable space group: C 2/C
;
_chemical_formula_sum "Si O2"
_cell_formula_units_Z 52
_cell_length_a 21.353517
_cell_length_b 11.167155
_cell_length_c 11.310471
_cell_angle_alpha 90.000000
_cell_angle_beta 60.652886
_cell_angle_gamma 90.000000
_cell_volume 2350.948068
_symmetry_space_group_name_H-M "C 2/C"
_symmetry_group_IT_number 15
_symmetry_cell_setting 'monoclinic'
loop_
_space_group_symop_operation_xyz
x,y,z
-x,y,1/2-z
-x,-y,-z
x,-y,1/2+z
1/2+x,1/2+y,z
1/2-x,1/2+y,1/2-z
1/2-x,1/2-y,-z
1/2+x,1/2-y,1/2+z
loop_
_atom_site_type_symbol
_atom_site_label
_atom_site_fract_x
_atom_site_fract_y
_atom_site_fract_z
Si Si1 0.605347 0.296371 0.346008
Si Si2 0.923923 0.429203 0.277760
Si Si3 0.399935 0.468279 0.956430
Si Si4 0.177811 0.209761 0.135323
Si Si5 0.500000 0.335328 0.250000
Si Si6 0.119646 0.466225 0.921520
Si Si7 0.717506 0.493616 0.260513
O O1 0.566013 0.392092 0.468036
O O2 0.552541 0.264941 0.288414
O O3 0.625180 0.178629 0.401197
O O4 0.674657 0.378092 0.245862
O O5 0.865389 0.329578 0.302969
O O6 0.900105 0.494683 0.423291
O O7 0.929323 0.496027 0.145985
O O8 0.000000 0.377383 0.250000
O O9 0.381133 0.373112 0.874815
O O10 0.447369 0.577105 0.871391
O O11 0.320159 0.502375 0.076985
O O12 0.201463 0.121155 0.216599
O O13 0.250000 0.250000 0.000000
O O14 0.198106 0.520880 0.824631
#
# Coordination Sequence:
#
# PCOD9284128 Si02
#       7
#     8   8   8   8   4   8   8
#     4  10  24  41  69  96 140 174 226 292 350 407
#     4  12  28  46  71 101 139 191 236 278 349 424
#     4  10  21  40  67 101 134 171 230 285 353 403
#     4  12  21  43  73  96 138 181 228 285 342 419
#     4  12  22  40  66 106 138 176 222 294 354 418
#     4  12  26  49  71  96 146 182 233 292 344 415
#     4  10  23  41  69 102 126 178 233 281 350 399
#
# _framework density 22.118735999999998
#
# number of rings (size 3 to 8) (size 9 to 14) (size 15 to 20)
#    0.923    0.000    4.615    1.846    4.308    1.231 
#    2.769    1.538    0.000    0.000    0.000    0.000 
#    0.000    0.000    0.000    0.000    0.000    0.000 
#
# Total GULP energy -144831.565448 kJ/mol
# GULP energy per Si atom -5570.444825 kJ/mol
# Density = 2.206839 g / cm^3
# Si number density = 22.118736 Si / 1000 Ang^3
#
#
#
# Elastic Constant Matrix: (Units=GPa)
#
#
# Indices 1 2 3 4 5 6 
#
# 1 96.4903 2.3889 11.8006 0.0000 11.6269 0.0000
# 2 2.3889 42.4714 5.8684 0.0000 8.8951 0.0000
# 3 11.8006 5.8684 71.3693 0.0000 8.0085 0.0000
# 4 0.0000 0.0000 0.0000 20.7067 0.0000 6.9482
# 5 11.6269 8.8951 8.0085 0.0000 38.2450 0.0000
# 6 0.0000 0.0000 0.0000 6.9482 0.0000 -35.9873
#
#
#
# Elastic Compliance Matrix: (Units=1/GPa)
#
#
# Indices 1 2 3 4 5 6 
#
# 1 0.010908 0.000232 -0.001479 0.000000 -0.003060 0.000000
# 2 0.000232 0.024898 -0.001462 0.000000 -0.005555 0.000000
# 3 -0.001479 -0.001462 0.014632 0.000000 -0.002274 0.000000
# 4 0.000000 0.000000 0.000000 0.045355 0.000000 0.008757
# 5 -0.003060 -0.005555 -0.002274 0.000000 0.028846 0.000000
# 6 0.000000 0.000000 0.000000 0.008757 0.000000 -0.026097
#
#
# Mechanical properties :
#
#
# Convention : Reuss Voigt Hill
#
# Bulk Modulus (GPa) = 22.21346 27.82741 25.02044
# Shear Modulus (GPa) = 42.02879 17.27777 29.65328
#
# Velocity S-wave (km/s) = 4.36379 2.79792 3.66545
# Velocity P-wave (km/s) = 5.95440 4.80063 5.40837
#
# Compressibility (1/GPa) = 0.04501775
#
# Stress axis : x y z
#
# Youngs Moduli (GPa) = 91.67876 40.16439 68.34520
#
# Poissons Ratio (x) = -0.00931 0.10110
# Poissons Ratio (y) = -0.02125 0.09993
# Poissons Ratio (z) = 0.13561 0.05873
#
# Static dielectric constant tensor:
#      x y z
#    x 1.754950 0.000000 -0.030200 
#    y 0.000000 1.717430 0.000000 
#    z -0.030200 0.000000 1.790370 
# 
# From -- ./inp_files/111501.got.cif
#   From: 2010.05.17/outbox.cif.g08.bks.cpg/sg15_56_cif.got.tgz:111501.got - 2010.06.03 18:47:42.
