data_PCOD9284692
_publ_section_title
;
Structure prediction by ZEFSAII (Michael W. Deem and Ramdas Pophale) SiO2 
 PCOD9284692
Probable space group: C 2/C
;
_chemical_formula_sum "Si O2"
_cell_formula_units_Z 60
_cell_length_a 21.258857
_cell_length_b 15.701243
_cell_length_c 14.207114
_cell_angle_alpha 90.000000
_cell_angle_beta 38.264702
_cell_angle_gamma 90.000000
_cell_volume 2936.822462
_symmetry_space_group_name_H-M "C 2/C"
_symmetry_group_IT_number 15
_symmetry_cell_setting 'monoclinic'
loop_
_space_group_symop_operation_xyz
x,y,z
-x,y,1/2-z
-x,-y,-z
x,-y,1/2+z
1/2+x,1/2+y,z
1/2-x,1/2+y,1/2-z
1/2-x,1/2-y,-z
1/2+x,1/2-y,1/2+z
loop_
_atom_site_type_symbol
_atom_site_label
_atom_site_fract_x
_atom_site_fract_y
_atom_site_fract_z
Si Si1 0.436473 0.118821 0.511469
Si Si2 0.703033 0.588883 0.426280
Si Si3 0.500000 0.146921 0.750000
Si Si4 0.944913 0.912517 0.548742
Si Si5 0.097632 0.510814 0.759166
Si Si6 0.076336 0.839507 0.224788
Si Si7 0.960991 0.240324 0.479344
Si Si8 0.761485 0.783812 0.323885
O O1 0.506739 0.058751 0.364422
O O2 0.502071 0.195591 0.480698
O O3 0.335162 0.156917 0.583648
O O4 0.408974 0.060903 0.633896
O O5 0.663064 0.562508 0.369862
O O6 0.797755 0.539681 0.356887
O O7 0.615688 0.587079 0.608411
O O8 0.725675 0.687670 0.379745
O O9 0.534950 0.206495 0.622217
O O10 0.583622 0.081832 0.695029
O O11 0.008261 0.869056 0.390542
O O12 0.962116 0.841163 0.608973
O O13 0.000000 0.000000 0.500000
O O14 0.177225 0.804802 0.153493
O O15 0.000000 0.783181 0.250000
O O16 0.846409 0.212242 0.641023
#
# Coordination Sequence:
#
# PCOD9284692 Si02
#       8
#     8   8   4   8   8   8   8   8
#     4  10  21  41  63  92 128 175 219 268 329 393
#     4  11  21  39  61  97 122 163 217 268 327 385
#     4  10  24  46  64  94 140 172 226 276 334 390
#     4  10  22  42  65  89 128 175 211 268 328 393
#     4  10  23  39  63  95 134 168 221 279 318 400
#     4   9  22  39  57  90 128 153 206 272 313 388
#     4  10  21  44  64  92 129 172 222 269 327 398
#     4  11  21  38  68  88 124 172 211 258 340 392
#
# _framework density 20.430244999999999
#
# number of rings (size 3 to 8) (size 9 to 14) (size 15 to 20)
#    0.000    1.867    2.667    0.400    5.600    0.000 
#    7.200    2.667    0.000    0.000    0.000    0.000 
#    0.000    0.000    0.000    0.000    0.000    0.000 
#
# Total GULP energy -167156.315125 kJ/mol
# GULP energy per Si atom -5571.877171 kJ/mol
# Density = 2.038374 g / cm^3
# Si number density = 20.430245 Si / 1000 Ang^3
#
#
#
# Elastic Constant Matrix: (Units=GPa)
#
#
# Indices 1 2 3 4 5 6 
#
# 1 160.1534 64.9365 39.2361 0.0000 -19.6947 0.0000
# 2 64.9365 94.9243 17.7398 0.0000 -3.9377 0.0000
# 3 39.2361 17.7398 61.7135 0.0000 -12.4281 0.0000
# 4 0.0000 0.0000 0.0000 15.9515 0.0000 -2.8292
# 5 -19.6947 -3.9377 -12.4281 0.0000 32.0216 0.0000
# 6 0.0000 0.0000 0.0000 -2.8292 0.0000 -27.1790
#
#
#
# Elastic Compliance Matrix: (Units=1/GPa)
#
#
# Indices 1 2 3 4 5 6 
#
# 1 0.010140 -0.006041 -0.003910 0.000000 0.003976 0.000000
# 2 -0.006041 0.014733 -0.000843 0.000000 -0.002231 0.000000
# 3 -0.003910 -0.000843 0.019989 0.000000 0.005250 0.000000
# 4 0.000000 0.000000 0.000000 0.061554 0.000000 -0.006407
# 5 0.003976 -0.002231 0.005250 0.000000 0.035438 0.000000
# 6 0.000000 0.000000 0.000000 -0.006407 0.000000 -0.036126
#
#
# Mechanical properties :
#
#
# Convention : Reuss Voigt Hill
#
# Bulk Modulus (GPa) = 42.96719 62.29067 52.62893
# Shear Modulus (GPa) = 37.01678 17.15072 27.08375
#
# Velocity S-wave (km/s) = 4.26121 2.90052 3.64492
# Velocity P-wave (km/s) = 6.72959 6.46320 6.59774
#
# Compressibility (1/GPa) = 0.02327357
#
# Stress axis : x y z
#
# Youngs Moduli (GPa) = 98.61571 67.87699 50.02693
#
# Poissons Ratio (x) = 0.41006 0.19559
# Poissons Ratio (y) = 0.59577 0.04219
# Poissons Ratio (z) = 0.38555 0.05724
#
# Static dielectric constant tensor:
#      x y z
#    x 1.831300 0.000000 0.007090 
#    y 0.000000 2.680300 0.000000 
#    z 0.007090 0.000000 1.729120 
# 
# From -- ./inp_files/168608.got.cif
#   From: 2010.05.17/outbox.cif.g08.bks.cpg/sg15_85_cif.got.tgz:168608.got - 2010.06.03 18:47:42.
