data_PCOD9284611
_publ_section_title
;
Structure prediction by ZEFSAII (Michael W. Deem and Ramdas Pophale) SiO2 
 PCOD9284611
Probable space group: C 2/C
;
_chemical_formula_sum "Si O2"
_cell_formula_units_Z 64
_cell_length_a 19.886793
_cell_length_b 9.688066
_cell_length_c 31.617350
_cell_angle_alpha 90.000000
_cell_angle_beta 35.523923
_cell_angle_gamma 90.000000
_cell_volume 3539.447321
_symmetry_space_group_name_H-M "C 2/C"
_symmetry_group_IT_number 15
_symmetry_cell_setting 'monoclinic'
loop_
_space_group_symop_operation_xyz
x,y,z
-x,y,1/2-z
-x,-y,-z
x,-y,1/2+z
1/2+x,1/2+y,z
1/2-x,1/2+y,1/2-z
1/2-x,1/2-y,-z
1/2+x,1/2-y,1/2+z
loop_
_atom_site_type_symbol
_atom_site_label
_atom_site_fract_x
_atom_site_fract_y
_atom_site_fract_z
Si Si1 0.635176 0.721040 0.170097
Si Si2 0.819348 0.878827 0.947027
Si Si3 0.568277 0.540437 0.355764
Si Si4 0.417171 0.218706 0.152543
Si Si5 0.247904 0.041624 0.185304
Si Si6 0.136630 0.454602 0.667837
Si Si7 0.167161 0.374980 0.553945
Si Si8 0.740049 0.281978 0.822046
O O1 0.500000 0.717068 0.250000
O O2 0.649486 0.657051 0.116700
O O3 0.703358 0.626719 0.168160
O O4 0.669226 0.882996 0.154367
O O5 0.937762 0.915017 0.911312
O O6 0.750000 0.750000 0.000000
O O7 0.727957 0.000160 0.998999
O O8 0.572849 0.378945 0.366220
O O9 0.646961 0.548217 0.272889
O O10 0.628795 0.639729 0.359258
O O11 0.356288 0.122540 0.149336
O O12 0.540780 0.159734 0.101708
O O13 0.336607 0.211812 0.235531
O O14 0.276204 0.881411 0.161526
O O15 0.157388 0.406281 0.609049
O O16 0.210527 0.362990 0.662738
O O17 0.000000 0.441495 0.750000
O O18 0.250000 0.250000 0.500000
#
# Coordination Sequence:
#
# PCOD9284611 Si02
#       8
#     8   8   8   8   8   8   8   8
#     4  11  23  41  65  94 126 167 215 261 308 373
#     4  12  25  42  63  94 131 169 207 256 321 382
#     4  10  21  41  62  92 129 169 206 258 320 370
#     4  10  21  41  62  93 128 167 208 259 316 375
#     4  10  22  37  66  96 123 162 216 266 306 364
#     4  11  23  41  65  95 126 166 216 260 309 371
#     4  12  25  42  65  94 129 172 207 255 325 380
#     4  10  22  37  66  96 124 160 215 268 306 367
#
# _framework density 18.08192
#
# number of rings (size 3 to 8) (size 9 to 14) (size 15 to 20)
#    0.000    1.250    5.000    0.750    3.500    1.500 
#    0.000    2.500    0.000    0.000    0.000    0.000 
#    0.000    0.000    0.000    0.000    0.000    0.000 
#
# Total GULP energy -178682.886539 kJ/mol
# GULP energy per Si atom -5583.840204 kJ/mol
# Density = 1.804076 g / cm^3
# Si number density = 18.081920 Si / 1000 Ang^3
#
#
#
# Elastic Constant Matrix: (Units=GPa)
#
#
# Indices 1 2 3 4 5 6 
#
# 1 150.2077 104.6349 52.1150 -0.0004 -16.1044 0.0025
# 2 104.6349 201.8418 64.1813 -0.0004 -9.3329 0.0003
# 3 52.1150 64.1813 73.9282 -0.0002 -0.8202 0.0008
# 4 -0.0004 -0.0004 -0.0002 35.3027 -0.0001 0.0392
# 5 -16.1044 -9.3329 -0.8202 -0.0001 33.8686 -0.0004
# 6 0.0025 0.0003 0.0008 0.0392 -0.0004 38.0238
#
#
#
# Elastic Compliance Matrix: (Units=1/GPa)
#
#
# Indices 1 2 3 4 5 6 
#
# 1 0.011765 -0.004532 -0.004312 0.000000 0.004241 -0.000001
# 2 -0.004532 0.008693 -0.004351 0.000000 0.000135 0.000000
# 3 -0.004312 -0.004351 0.020314 0.000000 -0.002758 0.000000
# 4 0.000000 0.000000 0.000000 0.028326 0.000000 -0.000029
# 5 0.004241 0.000135 -0.002758 0.000000 0.031513 0.000000
# 6 -0.000001 0.000000 0.000000 -0.000029 0.000000 0.026299
#
#
# Mechanical properties :
#
#
# Convention : Reuss Voigt Hill
#
# Bulk Modulus (GPa) = 69.53378 96.42667 82.98023
# Shear Modulus (GPa) = 31.62642 35.10879 33.36761
#
# Velocity S-wave (km/s) = 4.18672 4.41120 4.30042
# Velocity P-wave (km/s) = 7.86828 8.91001 8.40530
#
# Compressibility (1/GPa) = 0.01438150
#
# Stress axis : x y z
#
# Youngs Moduli (GPa) = 84.99676 115.02899 49.22805
#
# Poissons Ratio (x) = 0.52128 0.21229
# Poissons Ratio (y) = 0.38518 0.21420
# Poissons Ratio (z) = 0.36654 0.50052
#
# Static dielectric constant tensor:
#      x y z
#    x 1.581800 0.000000 -0.007750 
#    y 0.000000 1.593140 0.000000 
#    z -0.007750 0.000000 1.598810 
# 
# From -- ./inp_files/279581.got.cif
#   From: 2010.05.17/outbox.cif.g08.bks.cpg/sg15_140_cif.got.tgz:279581.got - 2010.06.03 18:47:42.
