data_PCOD9284092
_publ_section_title
;
Structure prediction by ZEFSAII (Michael W. Deem and Ramdas Pophale) SiO2 
 PCOD9284092
Probable space group: C 2/C
;
_chemical_formula_sum "Si O2"
_cell_formula_units_Z 40
_cell_length_a 11.424269
_cell_length_b 27.268560
_cell_length_c 5.595948
_cell_angle_alpha 90.000000
_cell_angle_beta 89.591003
_cell_angle_gamma 90.000000
_cell_volume 1743.224135
_symmetry_space_group_name_H-M "C 2/C"
_symmetry_group_IT_number 15
_symmetry_cell_setting 'monoclinic'
loop_
_space_group_symop_operation_xyz
x,y,z
-x,y,1/2-z
-x,-y,-z
x,-y,1/2+z
1/2+x,1/2+y,z
1/2-x,1/2+y,1/2-z
1/2-x,1/2-y,-z
1/2+x,1/2-y,1/2+z
loop_
_atom_site_type_symbol
_atom_site_label
_atom_site_fract_x
_atom_site_fract_y
_atom_site_fract_z
Si Si1 0.636591 0.481920 0.489873
Si Si2 0.500000 0.844084 0.750000
Si Si3 0.792629 0.305397 0.483187
Si Si4 0.183642 0.390184 0.395311
Si Si5 0.500000 0.968180 0.250000
Si Si6 0.364139 0.382898 0.771972
O O1 0.500000 0.500000 0.500000
O O2 0.688034 0.498914 0.238902
O O3 0.644593 0.423706 0.521203
O O4 0.424153 0.810601 0.576726
O O5 0.589232 0.877724 0.603254
O O6 0.750000 0.250000 0.500000
O O7 0.793053 0.339217 0.245781
O O8 0.706497 0.335151 0.658114
O O9 0.113186 0.431444 0.247675
O O10 0.303254 0.403475 0.532700
O O11 0.500000 0.000000 0.500000
O O12 0.500000 0.372621 0.750000
#
# Coordination Sequence:
#
# PCOD9284092 Si02
#       6
#     8   4   8   8   4   8
#     4  10  21  40  66  95 146 200 238 287 367 445
#     4  10  21  48  76 100 152 188 254 319 392 446
#     4  11  26  45  77 107 143 201 252 320 390 448
#     4  11  25  47  76 106 154 196 253 330 376 462
#     4  12  27  48  82 116 150 202 272 323 394 458
#     4  11  26  43  69 109 156 197 248 306 384 465
#
# _framework density 22.945988
#
# number of rings (size 3 to 8) (size 9 to 14) (size 15 to 20)
#    0.000    1.200    4.000    0.600    5.600    8.800 
#    0.000    0.000    0.000    0.000    0.000    0.000 
#    0.000    0.000    0.000    0.000    0.000    0.000 
#
# Total GULP energy -111781.611843 kJ/mol
# GULP energy per Si atom -5589.080592 kJ/mol
# Density = 2.289376 g / cm^3
# Si number density = 22.945988 Si / 1000 Ang^3
#
#
#
# Elastic Constant Matrix: (Units=GPa)
#
#
# Indices 1 2 3 4 5 6 
#
# 1 124.1057 25.3022 29.6588 0.0000 27.4425 0.0000
# 2 25.3022 146.3455 43.4946 0.0000 11.3849 0.0000
# 3 29.6588 43.4946 139.7725 0.0000 7.0022 0.0000
# 4 0.0000 0.0000 0.0000 25.6373 0.0000 -13.4866
# 5 27.4425 11.3849 7.0022 0.0000 39.8093 0.0000
# 6 0.0000 0.0000 0.0000 -13.4866 0.0000 32.0907
#
#
#
# Elastic Compliance Matrix: (Units=1/GPa)
#
#
# Indices 1 2 3 4 5 6 
#
# 1 0.010003 -0.000767 -0.001563 0.000000 -0.006401 0.000000
# 2 -0.000767 0.007712 -0.002172 0.000000 -0.001295 0.000000
# 3 -0.001563 -0.002172 0.008149 0.000000 0.000266 0.000000
# 4 0.000000 0.000000 0.000000 0.050077 0.000000 0.021045
# 5 -0.006401 -0.001295 0.000266 0.000000 0.029856 0.000000
# 6 0.000000 0.000000 0.000000 0.021045 0.000000 0.040006
#
#
# Mechanical properties :
#
#
# Convention : Reuss Voigt Hill
#
# Bulk Modulus (GPa) = 59.31476 67.45943 63.38710
# Shear Modulus (GPa) = 31.16671 40.29199 35.72935
#
# Velocity S-wave (km/s) = 3.68946 4.19495 3.95030
# Velocity P-wave (km/s) = 6.63742 7.27506 6.96354
#
# Compressibility (1/GPa) = 0.01685921
#
# Stress axis : x y z
#
# Youngs Moduli (GPa) = 99.96952 129.66687 122.71649
#
# Poissons Ratio (x) = 0.09944 0.19184
# Poissons Ratio (y) = 0.07666 0.26657
# Poissons Ratio (z) = 0.15628 0.28167
#
# Static dielectric constant tensor:
#      x y z
#    x 1.870520 0.000000 -0.025390 
#    y 0.000000 1.839810 0.000000 
#    z -0.025390 0.000000 1.932850 
# 
# From -- ./inp_files/5100.got.cif
#   From: 2010.05.17/outbox.cif.g08.bks.cpg/sg15_3_cif.got.tgz:5100.got - 2010.06.03 18:47:42.
