data_PCOD9284442
_publ_section_title
;
Structure prediction by ZEFSAII (Michael W. Deem and Ramdas Pophale) SiO2 
 PCOD9284442
Probable space group: C 2/C
;
_chemical_formula_sum "Si O2"
_cell_formula_units_Z 56
_cell_length_a 13.162630
_cell_length_b 15.291380
_cell_length_c 19.798094
_cell_angle_alpha 90.000000
_cell_angle_beta 146.156156
_cell_angle_gamma 90.000000
_cell_volume 2219.291726
_symmetry_space_group_name_H-M "C 2/C"
_symmetry_group_IT_number 15
_symmetry_cell_setting 'monoclinic'
loop_
_space_group_symop_operation_xyz
x,y,z
-x,y,1/2-z
-x,-y,-z
x,-y,1/2+z
1/2+x,1/2+y,z
1/2-x,1/2+y,1/2-z
1/2-x,1/2-y,-z
1/2+x,1/2-y,1/2+z
loop_
_atom_site_type_symbol
_atom_site_label
_atom_site_fract_x
_atom_site_fract_y
_atom_site_fract_z
Si Si1 0.234247 0.766080 0.623120
Si Si2 0.375177 0.459165 0.244166
Si Si3 0.414972 0.445670 0.013464
Si Si4 0.823509 0.845017 0.688963
Si Si5 0.551471 0.998172 0.355715
Si Si6 0.479155 0.812286 0.873868
Si Si7 0.973005 0.632668 0.915219
O O1 0.189784 0.864398 0.577111
O O2 0.422876 0.767477 0.771241
O O3 0.093904 0.728770 0.602312
O O4 0.162594 0.715547 0.515584
O O5 0.500000 0.432881 0.250000
O O6 0.440880 0.416776 0.350581
O O7 0.385482 0.563619 0.256698
O O8 0.168635 0.427098 0.120295
O O9 0.500000 0.500000 0.000000
O O10 0.269354 0.501365 0.975294
O O11 0.689917 0.796972 0.667935
O O12 0.680090 0.874394 0.552689
O O13 0.000000 0.803319 0.750000
O O14 0.500000 0.007786 0.250000
O O15 0.490610 0.084186 0.363473
O O16 0.467746 0.910043 0.339155
#
# Coordination Sequence:
#
# PCOD9284442 Si02
#       7
#     8   8   8   8   8   8   8
#     4  11  26  47  72 109 155 198 244 329 385 454
#     4  11  22  38  68 107 142 194 254 307 374 459
#     4  12  26  47  71 105 150 197 261 315 389 466
#     4  10  21  40  72 104 141 193 252 310 375 454
#     4  12  24  46  77 104 145 208 251 318 385 473
#     4  11  24  47  72 106 158 195 255 312 395 461
#     4  11  24  45  72 108 150 195 258 315 386 464
#
# _framework density 25.233277000000001
#
# number of rings (size 3 to 8) (size 9 to 14) (size 15 to 20)
#    0.000    0.857    2.857    4.714    6.000    0.571 
#    2.571    7.143    0.000    0.857    0.000    0.000 
#    0.000    0.000    0.000    0.000    0.000    0.000 
#
# Total GULP energy -156473.265915 kJ/mol
# GULP energy per Si atom -5588.330926 kJ/mol
# Density = 2.517585 g / cm^3
# Si number density = 25.233277 Si / 1000 Ang^3
#
#
#
# Elastic Constant Matrix: (Units=GPa)
#
#
# Indices 1 2 3 4 5 6 
#
# 1 144.4584 13.5225 22.8090 0.0001 -3.5679 0.0000
# 2 13.5225 24.4346 18.6066 0.0009 -30.1735 0.0002
# 3 22.8090 18.6066 153.0533 0.0017 -24.9733 0.0006
# 4 0.0001 0.0009 0.0017 33.9053 0.0005 -2.8958
# 5 -3.5679 -30.1735 -24.9733 0.0005 47.7151 0.0001
# 6 0.0000 0.0002 0.0006 -2.8958 0.0001 28.4789
#
#
#
# Elastic Compliance Matrix: (Units=1/GPa)
#
#
# Indices 1 2 3 4 5 6 
#
# 1 0.008414 -0.017226 -0.000912 0.000001 -0.010741 0.000000
# 2 -0.017226 0.224044 -0.001927 -0.000009 0.139382 -0.000003
# 3 -0.000912 -0.001927 0.007319 0.000000 0.002544 0.000000
# 4 0.000001 -0.000009 0.000000 0.029752 -0.000006 0.003025
# 5 -0.010741 0.139382 0.002544 -0.000006 0.109626 -0.000002
# 6 0.000000 -0.000003 0.000000 0.003025 -0.000002 0.035421
#
#
# Mechanical properties :
#
#
# Convention : Reuss Voigt Hill
#
# Bulk Modulus (GPa) = 5.00885 47.98028 26.49457
# Shear Modulus (GPa) = 9.59221 39.82041 24.70631
#
# Velocity S-wave (km/s) = 1.95184 3.97683 3.13248
# Velocity P-wave (km/s) = 2.65874 6.33584 4.85859
#
# Compressibility (1/GPa) = 0.19964643
#
# Stress axis : x y z
#
# Youngs Moduli (GPa) = 118.85480 4.46340 136.63100
#
# Poissons Ratio (x) = 0.07688 0.12466
# Poissons Ratio (y) = 2.04734 0.26334
# Poissons Ratio (z) = 0.10844 0.00860
#
# Static dielectric constant tensor:
#      x y z
#    x 2.028050 0.000000 0.161740 
#    y 0.000000 1.984450 0.000000 
#    z 0.161740 0.000000 2.536000 
# 
# From -- ./inp_files/245174.got.cif
#   From: 2010.05.17/outbox.cif.g08.bks.cpg/sg15_123_cif.got.tgz:245174.got - 2010.06.03 18:47:42.
