data_PCOD9284705
_publ_section_title
;
Structure prediction by ZEFSAII (Michael W. Deem and Ramdas Pophale) SiO2 
 PCOD9284705
Probable space group: C 2/C
;
_chemical_formula_sum "Si O2"
_cell_formula_units_Z 64
_cell_length_a 11.683983
_cell_length_b 11.805831
_cell_length_c 24.151170
_cell_angle_alpha 90.000000
_cell_angle_beta 112.909738
_cell_angle_gamma 90.000000
_cell_volume 3068.608721
_symmetry_space_group_name_H-M "C 2/C"
_symmetry_group_IT_number 15
_symmetry_cell_setting 'monoclinic'
loop_
_space_group_symop_operation_xyz
x,y,z
-x,y,1/2-z
-x,-y,-z
x,-y,1/2+z
1/2+x,1/2+y,z
1/2-x,1/2+y,1/2-z
1/2-x,1/2-y,-z
1/2+x,1/2-y,1/2+z
loop_
_atom_site_type_symbol
_atom_site_label
_atom_site_fract_x
_atom_site_fract_y
_atom_site_fract_z
Si Si1 0.918488 0.162607 0.524943
Si Si2 0.267810 0.188509 0.689259
Si Si3 0.158807 0.904066 0.005575
Si Si4 0.108063 0.381998 0.694736
Si Si5 0.654287 0.873847 0.171402
Si Si6 0.677167 0.064735 0.328074
Si Si7 0.114186 0.271136 0.401281
Si Si8 0.758873 0.238676 0.590160
O O1 0.880307 0.207215 0.578164
O O2 0.856356 0.258882 0.473843
O O3 0.058606 0.140728 0.531978
O O4 0.855303 0.038104 0.506545
O O5 0.144217 0.263175 0.674225
O O6 0.325233 0.169866 0.761709
O O7 0.345700 0.249393 0.655090
O O8 0.268203 0.060050 0.666981
O O9 0.125182 0.839222 0.942007
O O10 0.292208 0.861340 0.052145
O O11 0.157048 0.490622 0.671487
O O12 0.177760 0.383058 0.767017
O O13 0.966219 0.418575 0.680335
O O14 0.522779 0.823451 0.126943
O O15 0.751336 0.835170 0.143642
O O16 0.749053 0.135894 0.386349
#
# Coordination Sequence:
#
# PCOD9284705 Si02
#       8
#     8   8   8   8   8   8   8   8
#     4  10  23  41  63  90 124 176 222 275 339 396
#     4  11  22  40  70  96 131 175 216 274 348 401
#     4  10  23  43  62  92 130 169 230 276 335 398
#     4  10  22  38  64  98 129 171 219 267 333 408
#     4  11  22  42  63  99 134 167 221 276 335 412
#     4  10  21  41  63  93 134 172 216 270 330 405
#     4  11  22  40  66  93 129 176 216 281 333 399
#     4  11  22  41  64  89 131 173 216 276 335 399
#
# _framework density 20.856356999999999
#
# number of rings (size 3 to 8) (size 9 to 14) (size 15 to 20)
#    0.000    1.500    3.750    1.125    3.500    0.000 
#    0.000    0.625    0.000    0.000    0.000    0.000 
#    0.000    0.000    0.000    0.000    0.000    0.000 
#
# Total GULP energy -178398.121447 kJ/mol
# GULP energy per Si atom -5574.941295 kJ/mol
# Density = 2.080889 g / cm^3
# Si number density = 20.856357 Si / 1000 Ang^3
#
#
#
# Elastic Constant Matrix: (Units=GPa)
#
#
# Indices 1 2 3 4 5 6 
#
# 1 37.4173 28.7217 28.9497 0.0000 -16.9503 0.0000
# 2 28.7217 95.6904 18.8258 0.0000 -13.2275 0.0000
# 3 28.9497 18.8258 84.4438 0.0000 -19.1207 0.0000
# 4 0.0000 0.0000 0.0000 24.1447 0.0000 -12.0950
# 5 -16.9503 -13.2275 -19.1207 0.0000 35.7263 0.0000
# 6 0.0000 0.0000 0.0000 -12.0950 0.0000 24.7930
#
#
#
# Elastic Compliance Matrix: (Units=1/GPa)
#
#
# Indices 1 2 3 4 5 6 
#
# 1 0.050346 -0.010926 -0.011756 0.000000 0.013550 0.000000
# 2 -0.010926 0.013615 0.000771 0.000000 0.000270 0.000000
# 3 -0.011756 0.000771 0.016502 0.000000 0.003540 0.000000
# 4 0.000000 0.000000 0.000000 0.054812 0.000000 0.026740
# 5 0.013550 0.000270 0.003540 0.000000 0.036414 0.000000
# 6 0.000000 0.000000 0.000000 0.026740 0.000000 0.053379
#
#
# Mechanical properties :
#
#
# Convention : Reuss Voigt Hill
#
# Bulk Modulus (GPa) = 27.29070 41.17178 34.23124
# Shear Modulus (GPa) = 17.78710 26.33641 22.06175
#
# Velocity S-wave (km/s) = 2.92351 3.55738 3.25590
# Velocity P-wave (km/s) = 4.95069 6.05448 5.53019
#
# Compressibility (1/GPa) = 0.03664252
#
# Stress axis : x y z
#
# Youngs Moduli (GPa) = 19.86255 73.44677 60.59837
#
# Poissons Ratio (x) = 0.80245 0.71241
# Poissons Ratio (y) = 0.21701 -0.04675
# Poissons Ratio (z) = 0.23351 -0.05666
#
# Static dielectric constant tensor:
#      x y z
#    x 1.793130 0.000000 0.026690 
#    y 0.000000 1.769470 0.000000 
#    z 0.026690 0.000000 1.799470 
# 
# From -- ./inp_files/268929.got.cif
#   From: 2010.05.17/outbox.cif.g08.bks.cpg/sg15_135_cif.got.tgz:268929.got - 2010.06.03 18:47:42.
