data_PCOD9284039
_publ_section_title
;
Structure prediction by ZEFSAII (Michael W. Deem and Ramdas Pophale) SiO2 
 PCOD9284039
Probable space group: C 2/C
;
_chemical_formula_sum "Si O2"
_cell_formula_units_Z 60
_cell_length_a 27.504799
_cell_length_b 8.575892
_cell_length_c 12.665279
_cell_angle_alpha 90.000000
_cell_angle_beta 108.992251
_cell_angle_gamma 90.000000
_cell_volume 2824.833308
_symmetry_space_group_name_H-M "C 2/C"
_symmetry_group_IT_number 15
_symmetry_cell_setting 'monoclinic'
loop_
_space_group_symop_operation_xyz
x,y,z
-x,y,1/2-z
-x,-y,-z
x,-y,1/2+z
1/2+x,1/2+y,z
1/2-x,1/2+y,1/2-z
1/2-x,1/2-y,-z
1/2+x,1/2-y,1/2+z
loop_
_atom_site_type_symbol
_atom_site_label
_atom_site_fract_x
_atom_site_fract_y
_atom_site_fract_z
Si Si1 0.691500 0.515825 0.499088
Si Si2 0.000000 0.929766 0.750000
Si Si3 0.908912 0.217282 0.059061
Si Si4 0.154634 0.798652 0.661213
Si Si5 0.240022 0.286388 0.656643
Si Si6 0.918485 0.071756 0.836238
Si Si7 0.321637 0.259127 0.167954
Si Si8 0.158137 0.520423 0.506752
O O1 0.638816 0.608326 0.439406
O O2 0.679773 0.404530 0.588702
O O3 0.730316 0.640444 0.573426
O O4 0.704618 0.398990 0.415279
O O5 0.042742 0.822018 0.834843
O O6 0.028760 0.040857 0.686527
O O7 0.922644 0.158921 0.950885
O O8 0.886455 0.392050 0.043060
O O9 0.199250 0.791354 0.780322
O O10 0.143535 0.637460 0.592885
O O11 0.106347 0.899781 0.664069
O O12 0.211719 0.267640 0.750510
O O13 0.207879 0.426179 0.582368
O O14 0.877192 0.174256 0.742026
O O15 0.329677 0.117355 0.091528
#
# Coordination Sequence:
#
# PCOD9284039 Si02
#       8
#     8   4   8   8   8   8   8   8
#     4   9  19  38  63  93 129 171 235 264 318 410
#     4  12  24  42  78  96 124 170 240 276 336 408
#     4  10  21  44  65  99 130 166 218 288 339 393
#     4  10  21  40  66  91 136 182 217 274 330 395
#     4  11  21  42  62  98 144 181 223 275 328 396
#     4  11  23  45  70  93 129 178 228 278 330 401
#     4  11  21  41  68  92 133 185 218 273 333 392
#     4  10  23  38  67 101 141 172 220 275 344 400
#
# _framework density 21.240190999999999
#
# number of rings (size 3 to 8) (size 9 to 14) (size 15 to 20)
#    0.000    1.600    5.333    1.200    0.000    3.200 
#    0.000    3.333    0.000    2.400    0.000    0.000 
#    0.000    0.000    0.000    0.000    0.000    0.000 
#
# Total GULP energy -167815.474021 kJ/mol
# GULP energy per Si atom -5593.849134 kJ/mol
# Density = 2.119185 g / cm^3
# Si number density = 21.240191 Si / 1000 Ang^3
#
#
#
# Elastic Constant Matrix: (Units=GPa)
#
#
# Indices 1 2 3 4 5 6 
#
# 1 100.8427 52.8938 61.7010 0.0000 -14.5283 0.0000
# 2 52.8938 137.2600 69.4910 0.0000 -8.7364 0.0000
# 3 61.7010 69.4910 140.5854 0.0000 -6.8764 0.0000
# 4 0.0000 0.0000 0.0000 18.3248 0.0000 1.4120
# 5 -14.5283 -8.7364 -6.8764 0.0000 38.8771 0.0000
# 6 0.0000 0.0000 0.0000 1.4120 0.0000 26.7619
#
#
#
# Elastic Compliance Matrix: (Units=1/GPa)
#
#
# Indices 1 2 3 4 5 6 
#
# 1 0.015131 -0.003080 -0.004918 0.000000 0.004092 0.000000
# 2 -0.003080 0.010415 -0.003770 0.000000 0.000522 0.000000
# 3 -0.004918 -0.003770 0.011100 0.000000 -0.000722 0.000000
# 4 0.000000 0.000000 0.000000 0.054794 0.000000 -0.002891
# 5 0.004092 0.000522 -0.000722 0.000000 0.027241 0.000000
# 6 0.000000 0.000000 0.000000 -0.002891 0.000000 0.037519
#
#
# Mechanical properties :
#
#
# Convention : Reuss Voigt Hill
#
# Bulk Modulus (GPa) = 76.29028 82.98441 79.63734
# Shear Modulus (GPa) = 27.15829 29.76624 28.46226
#
# Velocity S-wave (km/s) = 3.57967 3.74760 3.66460
# Velocity P-wave (km/s) = 7.28569 7.60792 7.44854
#
# Compressibility (1/GPa) = 0.01310783
#
# Stress axis : x y z
#
# Youngs Moduli (GPa) = 66.09043 96.01901 90.09104
#
# Poissons Ratio (x) = 0.29578 0.44306
# Poissons Ratio (y) = 0.20359 0.33968
# Poissons Ratio (z) = 0.32502 0.36203
#
# Static dielectric constant tensor:
#      x y z
#    x 1.760590 0.000000 -0.026090 
#    y 0.000000 1.781400 0.000000 
#    z -0.026090 0.000000 1.807770 
# 
# From -- ./inp_files/125958.got.cif
#   From: 2010.05.17/outbox.cif.g08.bks.cpg/sg15_63_cif.got.tgz:125958.got - 2010.06.03 18:47:42.
