data_PCOD9284043
_publ_section_title
;
Structure prediction by ZEFSAII (Michael W. Deem and Ramdas Pophale) SiO2 
 PCOD9284043
Probable space group: C 2/C
;
_chemical_formula_sum "Si O2"
_cell_formula_units_Z 56
_cell_length_a 12.147763
_cell_length_b 15.595827
_cell_length_c 14.441162
_cell_angle_alpha 90.000000
_cell_angle_beta 93.117279
_cell_angle_gamma 90.000000
_cell_volume 2731.893500
_symmetry_space_group_name_H-M "C 2/C"
_symmetry_group_IT_number 15
_symmetry_cell_setting 'monoclinic'
loop_
_space_group_symop_operation_xyz
x,y,z
-x,y,1/2-z
-x,-y,-z
x,-y,1/2+z
1/2+x,1/2+y,z
1/2-x,1/2+y,1/2-z
1/2-x,1/2-y,-z
1/2+x,1/2-y,1/2+z
loop_
_atom_site_type_symbol
_atom_site_label
_atom_site_fract_x
_atom_site_fract_y
_atom_site_fract_z
Si Si1 0.398707 0.563349 0.509642
Si Si2 0.966996 0.842761 0.844544
Si Si3 0.511971 0.879800 0.554825
Si Si4 0.809715 0.689247 0.782420
Si Si5 0.334618 0.967547 0.419662
Si Si6 0.430779 0.714115 0.657632
Si Si7 0.653145 0.229101 0.924405
O O1 0.500000 0.500000 0.500000
O O2 0.386721 0.605339 0.407728
O O3 0.289121 0.520974 0.547132
O O4 0.431436 0.641056 0.579463
O O5 0.905804 0.754712 0.815050
O O6 0.000000 0.888003 0.750000
O O7 0.079322 0.813347 0.900115
O O8 0.404666 0.925413 0.507094
O O9 0.479014 0.802199 0.619806
O O10 0.574568 0.838890 0.470298
O O11 0.597398 0.947399 0.602366
O O12 0.829842 0.598558 0.833582
O O13 0.695334 0.724482 0.817405
O O14 0.805358 0.691131 0.671152
O O15 0.500000 0.686505 0.750000
O O16 0.750000 0.250000 0.000000
#
# Coordination Sequence:
#
# PCOD9284043 Si02
#       7
#     8   8   8   8   8   8   8
#     4  11  24  42  66  91 132 174 221 276 338 395
#     4  10  21  40  66  92 122 171 222 266 327 405
#     4  11  22  41  66  95 133 172 224 272 338 398
#     4  10  21  41  67  96 129 175 222 273 337 409
#     4  10  23  41  63  96 132 175 218 277 337 406
#     4  11  23  42  66  96 130 175 221 274 336 408
#     4  11  22  37  69  95 129 168 220 277 330 396
#
# _framework density 20.498602999999999
#
# number of rings (size 3 to 8) (size 9 to 14) (size 15 to 20)
#    0.000    1.429    2.857    1.714    2.000    2.857 
#    5.143    1.429    0.000    0.000    0.000    0.000 
#    0.000    0.000    0.000    0.000    0.000    0.000 
#
# Total GULP energy -156473.076590 kJ/mol
# GULP energy per Si atom -5588.324164 kJ/mol
# Density = 2.045195 g / cm^3
# Si number density = 20.498603 Si / 1000 Ang^3
#
#
#
# Elastic Constant Matrix: (Units=GPa)
#
#
# Indices 1 2 3 4 5 6 
#
# 1 126.8306 48.6080 49.8342 0.0000 -6.4375 0.0000
# 2 48.6080 67.2272 30.1592 0.0000 -13.5334 0.0000
# 3 49.8342 30.1592 114.8745 0.0000 -14.5591 0.0000
# 4 0.0000 0.0000 0.0000 -3.7934 0.0000 4.4722
# 5 -6.4375 -13.5334 -14.5591 0.0000 39.0476 0.0000
# 6 0.0000 0.0000 0.0000 4.4722 0.0000 29.8588
#
#
#
# Elastic Compliance Matrix: (Units=1/GPa)
#
#
# Indices 1 2 3 4 5 6 
#
# 1 0.012045 -0.007530 -0.003492 0.000000 -0.001926 0.000000
# 2 -0.007530 0.022321 -0.001858 0.000000 0.005802 0.000000
# 3 -0.003492 -0.001858 0.011077 0.000000 0.002910 0.000000
# 4 0.000000 0.000000 0.000000 -0.224055 0.000000 0.033558
# 5 -0.001926 0.005802 0.002910 0.000000 0.028388 0.000000
# 6 0.000000 0.000000 0.000000 0.033558 0.000000 0.028465
#
#
# Mechanical properties :
#
#
# Convention : Reuss Voigt Hill
#
# Bulk Modulus (GPa) = 50.80899 62.90391 56.85645
# Shear Modulus (GPa) = -55.90488 25.04467 -15.43011
#
# Velocity S-wave (km/s) = -5.22798 3.49918 -2.74659
# Velocity P-wave (km/s) = 3.40616 6.86143 4.21173
#
# Compressibility (1/GPa) = 0.01968156
#
# Stress axis : x y z
#
# Youngs Moduli (GPa) = 83.02285 44.80089 90.27758
#
# Poissons Ratio (x) = 0.33735 0.31529
# Poissons Ratio (y) = 0.62516 0.16776
# Poissons Ratio (z) = 0.28995 0.08325
#
# Static dielectric constant tensor:
#      x y z
#    x 1.737770 0.000000 0.027330 
#    y 0.000000 1.807050 0.000000 
#    z 0.027330 0.000000 1.681290 
# 
# From -- ./inp_files/144253.got.cif
#   From: 2010.05.17/outbox.cif.g08.bks.cpg/sg15_73_cif.got.tgz:144253.got - 2010.06.03 18:47:42.
