data_PCOD9284337
_publ_section_title
;
Structure prediction by ZEFSAII (Michael W. Deem and Ramdas Pophale) SiO2 
 PCOD9284337
Probable space group: C 2/C
;
_chemical_formula_sum "Si O2"
_cell_formula_units_Z 36
_cell_length_a 19.687447
_cell_length_b 5.877268
_cell_length_c 23.710918
_cell_angle_alpha 90.000000
_cell_angle_beta 147.330882
_cell_angle_gamma 90.000000
_cell_volume 1480.933045
_symmetry_space_group_name_H-M "C 2/C"
_symmetry_group_IT_number 15
_symmetry_cell_setting 'monoclinic'
loop_
_space_group_symop_operation_xyz
x,y,z
-x,y,1/2-z
-x,-y,-z
x,-y,1/2+z
1/2+x,1/2+y,z
1/2-x,1/2+y,1/2-z
1/2-x,1/2-y,-z
1/2+x,1/2-y,1/2+z
loop_
_atom_site_type_symbol
_atom_site_label
_atom_site_fract_x
_atom_site_fract_y
_atom_site_fract_z
Si Si1 0.892136 0.307521 0.919482
Si Si2 0.260709 0.567145 0.606370
Si Si3 0.000000 0.359801 0.750000
Si Si4 0.460097 0.429863 0.060255
Si Si5 0.591675 0.719309 0.366662
O O1 0.767693 0.430255 0.855861
O O2 0.920081 0.109607 0.984039
O O3 0.000000 0.500000 0.000000
O O4 0.911623 0.191080 0.872177
O O5 0.278505 0.380527 0.568413
O O6 0.381801 0.728215 0.692833
O O7 0.145019 0.733371 0.512138
O O8 0.063296 0.513323 0.843659
O O9 0.454195 0.575959 0.112665
O O10 0.500000 0.657690 0.250000
#
# Coordination Sequence:
#
# PCOD9284337 Si02
#       5
#     8   8   4   8   8
#     4   9  21  39  66  92 126 165 219 264 328 402
#     4  11  20  39  66  96 126 168 219 274 326 390
#     4  10  22  36  58  98 140 166 212 282 330 394
#     4  10  21  40  69  93 126 173 219 273 327 398
#     4  10  23  40  62  95 131 167 217 274 333 385
#
# _framework density 24.309000999999999
#
# number of rings (size 3 to 8) (size 9 to 14) (size 15 to 20)
#    0.667    1.333    1.111    2.000    0.000    7.111 
#    0.000    0.000   14.667    0.000    0.000    0.000 
#    0.000    0.000    0.000    0.000    0.000    0.000 
#
# Total GULP energy -100436.961141 kJ/mol
# GULP energy per Si atom -5579.831174 kJ/mol
# Density = 2.425367 g / cm^3
# Si number density = 24.309001 Si / 1000 Ang^3
#
#
#
# Elastic Constant Matrix: (Units=GPa)
#
#
# Indices 1 2 3 4 5 6 
#
# 1 227.0731 92.9222 51.6676 0.0002 18.3069 -0.0002
# 2 92.9222 133.8509 28.7148 0.0012 19.6423 0.0025
# 3 51.6676 28.7148 42.1676 -0.0001 7.8273 0.0002
# 4 0.0002 0.0012 -0.0001 -1.1469 -0.0002 -7.6329
# 5 18.3069 19.6423 7.8273 -0.0002 21.4453 0.0002
# 6 -0.0002 0.0025 0.0002 -7.6329 0.0002 75.9835
#
#
#
# Elastic Compliance Matrix: (Units=1/GPa)
#
#
# Indices 1 2 3 4 5 6 
#
# 1 0.007436 -0.003680 -0.006493 -0.000002 -0.000607 0.000000
# 2 -0.003680 0.011432 -0.002054 0.000009 -0.006580 0.000001
# 3 -0.006493 -0.002054 0.033994 -0.000003 -0.004984 0.000000
# 4 -0.000002 0.000009 -0.000003 -0.522555 -0.000012 -0.052493
# 5 -0.000607 -0.006580 -0.004984 -0.000012 0.054994 -0.000001
# 6 0.000000 0.000001 0.000000 -0.052493 -0.000001 0.007888
#
#
# Mechanical properties :
#
#
# Convention : Reuss Voigt Hill
#
# Bulk Modulus (GPa) = 35.20100 83.30010 59.25055
# Shear Modulus (GPa) = -13.40886 34.57552 10.58333
#
# Velocity S-wave (km/s) = -2.35117 3.77548 2.08881
# Velocity P-wave (km/s) = 2.67235 7.30392 5.49948
#
# Compressibility (1/GPa) = 0.02840828
#
# Stress axis : x y z
#
# Youngs Moduli (GPa) = 134.47700 87.47210 29.41701
#
# Poissons Ratio (x) = 0.32193 0.19099
# Poissons Ratio (y) = 0.49493 0.06042
# Poissons Ratio (z) = 0.87310 0.17967
#
# Static dielectric constant tensor:
#      x y z
#    x 1.979930 0.000000 0.035160 
#    y 0.000000 2.048130 0.000000 
#    z 0.035160 0.000000 2.383350 
# 
# From -- ./inp_files/299800.got.cif
#   From: 2010.05.17/outbox.cif.g08.bks.cpg/sg15_150_cif.got.tgz:299800.got - 2010.06.03 18:47:42.
