data_PCOD9284364
_publ_section_title
;
Structure prediction by ZEFSAII (Michael W. Deem and Ramdas Pophale) SiO2 
 PCOD9284364
Probable space group: C 2/C
;
_chemical_formula_sum "Si O2"
_cell_formula_units_Z 48
_cell_length_a 29.257006
_cell_length_b 12.635658
_cell_length_c 14.835767
_cell_angle_alpha 90.000000
_cell_angle_beta 152.369223
_cell_angle_gamma 90.000000
_cell_volume 2543.561680
_symmetry_space_group_name_H-M "C 2/C"
_symmetry_group_IT_number 15
_symmetry_cell_setting 'monoclinic'
loop_
_space_group_symop_operation_xyz
x,y,z
-x,y,1/2-z
-x,-y,-z
x,-y,1/2+z
1/2+x,1/2+y,z
1/2-x,1/2+y,1/2-z
1/2-x,1/2-y,-z
1/2+x,1/2-y,1/2+z
loop_
_atom_site_type_symbol
_atom_site_label
_atom_site_fract_x
_atom_site_fract_y
_atom_site_fract_z
Si Si1 0.022084 0.840956 0.435791
Si Si2 0.315537 0.328092 0.174769
Si Si3 0.305617 0.634194 0.860947
Si Si4 0.266726 0.701708 0.126603
Si Si5 0.500000 0.522812 0.250000
Si Si6 0.000000 0.343051 0.750000
Si Si7 0.185110 0.490593 0.026798
O O1 0.123935 0.846143 0.668674
O O2 0.924871 0.833946 0.327125
O O3 0.009070 0.944819 0.351293
O O4 0.025337 0.737927 0.375735
O O5 0.320377 0.305073 0.290867
O O6 0.253697 0.437444 0.069432
O O7 0.250000 0.250000 0.000000
O O8 0.244482 0.706376 0.820077
O O9 0.246002 0.530108 0.725224
O O10 0.404855 0.596737 0.081094
O O11 0.183839 0.613422 0.003435
O O12 0.250000 0.750000 0.000000
O O13 0.912116 0.419908 0.629952
#
# Coordination Sequence:
#
# PCOD9284364 Si02
#       7
#     8   8   8   8   4   4   8
#     4  11  21  41  72  99 125 182 227 273 331 406
#     4  10  21  40  70 100 129 168 233 276 328 406
#     4  10  24  41  64 100 132 174 226 280 340 395
#     4  12  27  45  65  98 143 176 223 286 339 403
#     4  11  24  39  74  98 132 175 228 287 334 396
#     4  11  20  43  70  96 132 175 230 259 334 418
#     4  10  23  43  64 100 132 175 223 279 336 395
#
# _framework density 18.871175000000001
#
# number of rings (size 3 to 8) (size 9 to 14) (size 15 to 20)
#    1.000    0.333    5.000    0.000    7.000    2.000 
#    0.000    0.833    0.000    0.000    0.000    0.000 
#    0.000    0.000    0.000    0.000    0.000    0.000 
#
# Total GULP energy -133736.635085 kJ/mol
# GULP energy per Si atom -5572.359795 kJ/mol
# Density = 1.882822 g / cm^3
# Si number density = 18.871175 Si / 1000 Ang^3
#
#
#
# Elastic Constant Matrix: (Units=GPa)
#
#
# Indices 1 2 3 4 5 6 
#
# 1 111.6012 24.9882 34.0964 0.0000 1.8049 0.0000
# 2 24.9882 57.6356 22.4707 0.0000 0.5760 0.0000
# 3 34.0964 22.4707 107.1973 0.0000 8.9673 0.0000
# 4 0.0000 0.0000 0.0000 30.7833 0.0000 -1.0123
# 5 1.8049 0.5760 8.9673 0.0000 32.0129 0.0000
# 6 0.0000 0.0000 0.0000 -1.0123 0.0000 22.9182
#
#
#
# Elastic Compliance Matrix: (Units=1/GPa)
#
#
# Indices 1 2 3 4 5 6 
#
# 1 0.010556 -0.003553 -0.002630 0.000000 0.000205 0.000000
# 2 -0.003553 0.020110 -0.003145 0.000000 0.000720 0.000000
# 3 -0.002630 -0.003145 0.011067 0.000000 -0.002895 0.000000
# 4 0.000000 0.000000 0.000000 0.032532 0.000000 0.001437
# 5 0.000205 0.000720 -0.002895 0.000000 0.032024 0.000000
# 6 0.000000 0.000000 0.000000 0.001437 0.000000 0.043697
#
#
# Mechanical properties :
#
#
# Convention : Reuss Voigt Hill
#
# Bulk Modulus (GPa) = 43.33624 48.83831 46.08727
# Shear Modulus (GPa) = 28.35503 30.13482 29.24492
#
# Velocity S-wave (km/s) = 3.88049 4.00042 3.94091
# Velocity P-wave (km/s) = 6.56443 6.87560 6.72181
#
# Compressibility (1/GPa) = 0.02307538
#
# Stress axis : x y z
#
# Youngs Moduli (GPa) = 94.73020 49.72622 90.36171
#
# Poissons Ratio (x) = 0.17670 0.23765
# Poissons Ratio (y) = 0.33662 0.28423
# Poissons Ratio (z) = 0.24914 0.15641
#
# Static dielectric constant tensor:
#      x y z
#    x 1.650480 0.000000 0.015710 
#    y 0.000000 1.681120 0.000000 
#    z 0.015710 0.000000 1.746550 
# 
# From -- ./inp_files/181836.got.cif
#   From: 2010.05.17/outbox.cif.g08.bks.cpg/sg15_91_cif.got.tgz:181836.got - 2010.06.03 18:47:42.
