data_PCOD9284646
_publ_section_title
;
Structure prediction by ZEFSAII (Michael W. Deem and Ramdas Pophale) SiO2 
 PCOD9284646
Probable space group: C 2/C
;
_chemical_formula_sum "Si O2"
_cell_formula_units_Z 48
_cell_length_a 12.675293
_cell_length_b 14.255483
_cell_length_c 19.377887
_cell_angle_alpha 90.000000
_cell_angle_beta 32.211741
_cell_angle_gamma 90.000000
_cell_volume 1866.440022
_symmetry_space_group_name_H-M "C 2/C"
_symmetry_group_IT_number 15
_symmetry_cell_setting 'monoclinic'
loop_
_space_group_symop_operation_xyz
x,y,z
-x,y,1/2-z
-x,-y,-z
x,-y,1/2+z
1/2+x,1/2+y,z
1/2-x,1/2+y,1/2-z
1/2-x,1/2-y,-z
1/2+x,1/2-y,1/2+z
loop_
_atom_site_type_symbol
_atom_site_label
_atom_site_fract_x
_atom_site_fract_y
_atom_site_fract_z
Si Si1 0.109621 0.374408 0.580811
Si Si2 0.802223 0.861198 0.117597
Si Si3 0.769012 0.582291 0.692448
Si Si4 0.000000 0.500988 0.250000
Si Si5 0.240251 0.455501 0.930185
Si Si6 0.000000 0.794327 0.750000
Si Si7 0.337513 0.748059 0.066376
O O1 0.954321 0.434929 0.709627
O O2 0.260162 0.451707 0.466255
O O3 0.205279 0.309107 0.585830
O O4 0.039246 0.316138 0.554187
O O5 0.821051 0.908786 0.182141
O O6 0.688426 0.935325 0.132731
O O7 0.649892 0.774180 0.206703
O O8 0.011642 0.820622 0.979374
O O9 0.716057 0.496640 0.671014
O O10 0.724713 0.681001 0.678508
O O11 0.009372 0.574180 0.563810
O O12 0.369593 0.363523 0.869370
#
# Coordination Sequence:
#
# PCOD9284646 Si02
#       7
#     8   8   8   4   8   4   8
#     4  10  23  43  62  89 122 156 198 247 297 354
#     4  11  24  39  61  91 122 158 199 244 298 352
#     4  10  21  41  63  86 122 157 195 244 295 354
#     4  11  24  40  61  90 124 156 197 248 298 349
#     4  10  21  41  63  87 120 158 196 243 294 356
#     4  11  24  38  61  92 120 160 201 240 298 353
#     4  10  23  43  62  90 120 157 199 244 300 354
#
# _framework density 25.717410000000001
#
# number of rings (size 3 to 8) (size 9 to 14) (size 15 to 20)
#    0.000    1.667    3.333    0.000    4.667    2.667 
#    0.000    0.000    0.000    0.000    0.000    0.000 
#    0.000    0.000    0.000    0.000    0.000    0.000 
#
# Total GULP energy -134251.838460 kJ/mol
# GULP energy per Si atom -5593.826602 kJ/mol
# Density = 2.565888 g / cm^3
# Si number density = 25.717410 Si / 1000 Ang^3
#
#
#
# Elastic Constant Matrix: (Units=GPa)
#
#
# Indices 1 2 3 4 5 6 
#
# 1 63.3606 22.0453 -2.7762 0.0000 -3.5856 0.0001
# 2 22.0453 89.1642 12.7818 -0.0013 -1.6634 0.0005
# 3 -2.7762 12.7818 26.5142 -0.0040 -1.4188 0.0010
# 4 0.0000 -0.0013 -0.0040 33.7354 0.0007 7.6375
# 5 -3.5856 -1.6634 -1.4188 0.0007 30.8743 0.0001
# 6 0.0001 0.0005 0.0010 7.6375 0.0001 31.3016
#
#
#
# Elastic Compliance Matrix: (Units=1/GPa)
#
#
# Indices 1 2 3 4 5 6 
#
# 1 0.017827 -0.004999 0.004384 0.000000 0.002003 0.000000
# 2 -0.004999 0.013454 -0.007019 0.000000 -0.000178 0.000000
# 3 0.004384 -0.007019 0.041668 0.000005 0.002046 -0.000003
# 4 0.000000 0.000000 0.000005 0.031376 0.000000 -0.007656
# 5 0.002003 -0.000178 0.002046 0.000000 0.032706 0.000000
# 6 0.000000 0.000000 -0.000003 -0.007656 0.000000 0.033815
#
#
# Mechanical properties :
#
#
# Convention : Reuss Voigt Hill
#
# Bulk Modulus (GPa) = 17.33672 27.01566 22.17619
# Shear Modulus (GPa) = 24.34973 28.98147 26.66560
#
# Velocity S-wave (km/s) = 3.08038 3.36061 3.22354
# Velocity P-wave (km/s) = 4.40540 5.05824 4.74307
#
# Compressibility (1/GPa) = 0.05768104
#
# Stress axis : x y z
#
# Youngs Moduli (GPa) = 56.09377 74.32739 23.99941
#
# Poissons Ratio (x) = 0.37154 -0.10520
# Poissons Ratio (y) = 0.28040 0.16845
# Poissons Ratio (z) = -0.24589 0.52169
#
# Static dielectric constant tensor:
#      x y z
#    x 1.993610 0.000000 0.005050 
#    y 0.000000 2.054220 0.000000 
#    z 0.005050 0.000000 2.046630 
# 
# From -- ./inp_files/96257.got.cif
#   From: 2010.05.17/outbox.cif.g08.bks.cpg/sg15_49_cif.got.tgz:96257.got - 2010.06.03 18:47:42.
