data_PCOD9284784
_publ_section_title
;
Structure prediction by ZEFSAII (Michael W. Deem and Ramdas Pophale) SiO2 
 PCOD9284784
Probable space group: C 2/C
;
_chemical_formula_sum "Si O2"
_cell_formula_units_Z 64
_cell_length_a 14.339285
_cell_length_b 12.455944
_cell_length_c 16.816782
_cell_angle_alpha 90.000000
_cell_angle_beta 86.695520
_cell_angle_gamma 90.000000
_cell_volume 2998.640077
_symmetry_space_group_name_H-M "C 2/C"
_symmetry_group_IT_number 15
_symmetry_cell_setting 'monoclinic'
loop_
_space_group_symop_operation_xyz
x,y,z
-x,y,1/2-z
-x,-y,-z
x,-y,1/2+z
1/2+x,1/2+y,z
1/2-x,1/2+y,1/2-z
1/2-x,1/2-y,-z
1/2+x,1/2-y,1/2+z
loop_
_atom_site_type_symbol
_atom_site_label
_atom_site_fract_x
_atom_site_fract_y
_atom_site_fract_z
Si Si1 0.668020 0.532312 0.536456
Si Si2 0.000866 0.352038 0.932307
Si Si3 0.218612 0.874954 0.306494
Si Si4 0.877738 0.559896 0.576208
Si Si5 0.624526 0.716002 0.657613
Si Si6 0.208845 0.890196 0.857094
Si Si7 0.347842 0.694816 0.518541
Si Si8 0.896587 0.720960 0.722344
O O1 0.772608 0.522970 0.566181
O O2 0.619172 0.621197 0.592820
O O3 0.676620 0.578703 0.446950
O O4 0.629277 0.411579 0.533322
O O5 0.965003 0.289040 0.856793
O O6 0.056908 0.458958 0.908468
O O7 0.068935 0.279419 0.982644
O O8 0.915150 0.385917 0.993264
O O9 0.148877 0.841162 0.239167
O O10 0.170115 0.843638 0.390754
O O11 0.315856 0.812011 0.288634
O O12 0.241397 0.001371 0.311592
O O13 0.882561 0.642039 0.648173
O O14 0.711529 0.798611 0.641323
O O15 0.126237 0.838592 0.809686
O O16 0.250000 0.750000 0.500000
O O17 0.000000 0.710829 0.750000
#
# Coordination Sequence:
#
# PCOD9284784 Si02
#       8
#     8   8   8   8   8   8   8   8
#     4  11  20  42  70  91 128 171 218 264 324 395
#     4  11  25  40  68  99 130 170 216 274 318 388
#     4  10  25  43  64  93 133 172 214 261 330 387
#     4  11  22  41  68 102 125 164 226 273 322 382
#     4  11  22  41  68  96 126 170 220 268 325 382
#     4  10  21  41  64  92 128 173 207 264 325 385
#     4  11  25  43  64  93 136 177 210 260 330 387
#     4  11  25  41  65  98 130 167 219 274 323 379
#
# _framework density 21.343008999999999
#
# number of rings (size 3 to 8) (size 9 to 14) (size 15 to 20)
#    0.000    1.250    5.000    1.125    3.500    5.000 
#    4.500    0.000    0.000    0.000    0.000    0.000 
#    0.000    0.000    0.000    0.000    0.000    0.000 
#
# Total GULP energy -178920.608876 kJ/mol
# GULP energy per Si atom -5591.269027 kJ/mol
# Density = 2.129443 g / cm^3
# Si number density = 21.343009 Si / 1000 Ang^3
#
#
#
# Elastic Constant Matrix: (Units=GPa)
#
#
# Indices 1 2 3 4 5 6 
#
# 1 48.1227 -3.5566 4.8829 0.0000 20.0897 0.0000
# 2 -3.5566 86.1484 20.9075 0.0000 13.0995 0.0000
# 3 4.8829 20.9075 57.1307 0.0000 18.3292 0.0000
# 4 0.0000 0.0000 0.0000 16.6150 0.0000 9.8915
# 5 20.0897 13.0995 18.3292 0.0000 24.2116 0.0000
# 6 0.0000 0.0000 0.0000 9.8915 0.0000 12.3971
#
#
#
# Elastic Compliance Matrix: (Units=1/GPa)
#
#
# Indices 1 2 3 4 5 6 
#
# 1 0.036817 0.005697 0.007341 0.000000 -0.039189 0.000000
# 2 0.005697 0.013993 -0.002195 0.000000 -0.010636 0.000000
# 3 0.007341 -0.002195 0.025429 0.000000 -0.024155 0.000000
# 4 0.000000 0.000000 0.000000 0.114644 0.000000 -0.091474
# 5 -0.039189 -0.010636 -0.024155 0.000000 0.097860 0.000000
# 6 0.000000 0.000000 0.000000 -0.091474 0.000000 0.153651
#
#
# Mechanical properties :
#
#
# Convention : Reuss Voigt Hill
#
# Bulk Modulus (GPa) = 10.21188 26.20770 18.20979
# Shear Modulus (GPa) = 11.02901 21.92260 16.47580
#
# Velocity S-wave (km/s) = 2.27568 3.20840 2.78142
# Velocity P-wave (km/s) = 3.42053 5.10207 4.34345
#
# Compressibility (1/GPa) = 0.09792516
#
# Stress axis : x y z
#
# Youngs Moduli (GPa) = 27.16173 71.46317 39.32477
#
# Poissons Ratio (x) = -0.40714 -0.28870
# Poissons Ratio (y) = -0.15475 0.08634
# Poissons Ratio (z) = -0.19940 0.15690
#
# Static dielectric constant tensor:
#      x y z
#    x 1.781110 0.000000 -0.018300 
#    y 0.000000 1.778690 0.000000 
#    z -0.018300 0.000000 1.770920 
# 
# From -- ./inp_files/204458.got.cif
#   From: 2010.05.17/outbox.cif.g08.bks.cpg/sg15_103_cif.got.tgz:204458.got - 2010.06.03 18:47:42.
