data_PCOD9284286
_publ_section_title
;
Structure prediction by ZEFSAII (Michael W. Deem and Ramdas Pophale) SiO2 
 PCOD9284286
Probable space group: C 2/C
;
_chemical_formula_sum "Si O2"
_cell_formula_units_Z 60
_cell_length_a 24.343320
_cell_length_b 20.667191
_cell_length_c 9.546639
_cell_angle_alpha 90.000000
_cell_angle_beta 145.407537
_cell_angle_gamma 90.000000
_cell_volume 2726.828235
_symmetry_space_group_name_H-M "C 2/C"
_symmetry_group_IT_number 15
_symmetry_cell_setting 'monoclinic'
loop_
_space_group_symop_operation_xyz
x,y,z
-x,y,1/2-z
-x,-y,-z
x,-y,1/2+z
1/2+x,1/2+y,z
1/2-x,1/2+y,1/2-z
1/2-x,1/2-y,-z
1/2+x,1/2-y,1/2+z
loop_
_atom_site_type_symbol
_atom_site_label
_atom_site_fract_x
_atom_site_fract_y
_atom_site_fract_z
Si Si1 0.788330 0.028029 0.541984
Si Si2 0.143151 0.641770 0.647474
Si Si3 0.206120 0.705540 0.033372
Si Si4 0.000000 0.248042 0.750000
Si Si5 0.152345 0.169217 0.914267
Si Si6 0.667745 0.684920 0.628144
Si Si7 0.069622 0.498784 0.513028
Si Si8 0.107835 0.046957 0.460835
O O1 0.840680 0.092321 0.592344
O O2 0.816674 0.022951 0.763296
O O3 0.674036 0.032038 0.270172
O O4 0.840665 0.968750 0.576008
O O5 0.071221 0.701917 0.475834
O O6 0.231117 0.659205 0.727543
O O7 0.098541 0.571698 0.524938
O O8 0.171213 0.644350 0.871166
O O9 0.279471 0.686467 0.310801
O O10 0.135284 0.753355 0.969662
O O11 0.250000 0.750000 0.000000
O O12 0.948092 0.201551 0.752117
O O13 0.179775 0.196611 0.818505
O O14 0.600774 0.623300 0.468723
O O15 0.000000 0.500000 0.500000
O O16 0.000000 0.467505 0.250000
O O17 0.000000 0.018662 0.250000
#
# Coordination Sequence:
#
# PCOD9284286 Si02
#       8
#     8   8   8   4   8   8   8   8
#     4  11  26  45  70 101 143 190 239 306 355 429
#     4  11  24  45  72 100 140 188 235 305 369 431
#     4  10  21  40  68  96 129 183 222 282 367 417
#     4  12  24  44  68 108 140 188 244 294 366 450
#     4  11  25  41  71  99 146 183 240 291 369 432
#     4  10  22  45  69  95 139 192 232 295 366 430
#     4  12  27  48  75 106 144 192 251 304 373 444
#     4  11  24  43  69 102 140 191 237 291 365 431
#
# _framework density 22.003585999999999
#
# number of rings (size 3 to 8) (size 9 to 14) (size 15 to 20)
#    0.000    1.067    4.667    1.600    6.533    2.133 
#    0.000    0.000    0.000    0.000    0.000    0.000 
#    0.000    0.000    0.000    0.000    0.000    0.000 
#
# Total GULP energy -167388.974984 kJ/mol
# GULP energy per Si atom -5579.632499 kJ/mol
# Density = 2.195350 g / cm^3
# Si number density = 22.003586 Si / 1000 Ang^3
#
#
#
# Elastic Constant Matrix: (Units=GPa)
#
#
# Indices 1 2 3 4 5 6 
#
# 1 119.6727 8.7877 50.3928 0.0000 -5.7141 0.0000
# 2 8.7877 42.7504 7.1972 0.0000 5.3330 0.0000
# 3 50.3928 7.1972 91.8774 0.0000 12.3911 0.0000
# 4 0.0000 0.0000 0.0000 36.7822 0.0000 1.0029
# 5 -5.7141 5.3330 12.3911 0.0000 41.5882 0.0000
# 6 0.0000 0.0000 0.0000 1.0029 0.0000 36.7537
#
#
#
# Elastic Compliance Matrix: (Units=1/GPa)
#
#
# Indices 1 2 3 4 5 6 
#
# 1 0.011469 -0.001707 -0.006667 0.000000 0.003781 0.000000
# 2 -0.001707 0.024229 -0.000533 0.000000 -0.003183 0.000000
# 3 -0.006667 -0.000533 0.015312 0.000000 -0.005410 0.000000
# 4 0.000000 0.000000 0.000000 0.027207 0.000000 -0.000742
# 5 0.003781 -0.003183 -0.005410 0.000000 0.026585 0.000000
# 6 0.000000 0.000000 0.000000 -0.000742 0.000000 0.027228
#
#
# Mechanical properties :
#
#
# Convention : Reuss Voigt Hill
#
# Bulk Modulus (GPa) = 30.12244 43.00623 36.56433
# Shear Modulus (GPa) = 31.07330 35.55301 33.31315
#
# Velocity S-wave (km/s) = 3.76199 4.02404 3.89522
# Velocity P-wave (km/s) = 5.70873 6.41701 6.07321
#
# Compressibility (1/GPa) = 0.03319784
#
# Stress axis : x y z
#
# Youngs Moduli (GPa) = 87.18872 41.27259 65.30797
#
# Poissons Ratio (x) = 0.07045 0.43540
# Poissons Ratio (y) = 0.14882 0.03478
# Poissons Ratio (z) = 0.58128 0.02198
#
# Static dielectric constant tensor:
#      x y z
#    x 1.779860 0.000000 -0.005520 
#    y 0.000000 1.865320 0.000000 
#    z -0.005520 0.000000 1.893750 
# 
# From -- ./inp_files/58759.got.cif
#   From: 2010.05.17/outbox.cif.g08.bks.cpg/sg15_30_cif.got.tgz:58759.got - 2010.06.03 18:47:42.
