data_PCOD9284195
_publ_section_title
;
Structure prediction by ZEFSAII (Michael W. Deem and Ramdas Pophale) SiO2 
 PCOD9284195
Probable space group: C 2/C
;
_chemical_formula_sum "Si O2"
_cell_formula_units_Z 56
_cell_length_a 16.714201
_cell_length_b 18.670597
_cell_length_c 9.340709
_cell_angle_alpha 90.000000
_cell_angle_beta 71.181580
_cell_angle_gamma 90.000000
_cell_volume 2759.085835
_symmetry_space_group_name_H-M "C 2/C"
_symmetry_group_IT_number 15
_symmetry_cell_setting 'monoclinic'
loop_
_space_group_symop_operation_xyz
x,y,z
-x,y,1/2-z
-x,-y,-z
x,-y,1/2+z
1/2+x,1/2+y,z
1/2-x,1/2+y,1/2-z
1/2-x,1/2-y,-z
1/2+x,1/2-y,1/2+z
loop_
_atom_site_type_symbol
_atom_site_label
_atom_site_fract_x
_atom_site_fract_y
_atom_site_fract_z
Si Si1 0.938846 0.492673 0.402813
Si Si2 0.769240 0.202428 0.629362
Si Si3 0.115366 0.354826 0.687033
Si Si4 0.131702 0.236945 0.430338
Si Si5 0.746565 0.550954 0.006829
Si Si6 0.959032 0.763661 0.122130
Si Si7 0.291430 0.587240 0.160226
O O1 0.915813 0.572883 0.365915
O O2 0.846954 0.458742 0.480704
O O3 0.000000 0.456454 0.250000
O O4 0.000000 0.500000 0.500000
O O5 0.750000 0.250000 0.500000
O O6 0.697367 0.228110 0.781972
O O7 0.760384 0.119968 0.589914
O O8 0.865324 0.211106 0.633764
O O9 0.137063 0.290111 0.564487
O O10 0.052921 0.320349 0.837364
O O11 0.199689 0.376656 0.718422
O O12 0.154366 0.153092 0.432071
O O13 0.030925 0.232704 0.460334
O O14 0.694584 0.563184 0.183871
O O15 0.714141 0.480724 0.941303
O O16 0.000000 0.793971 0.250000
#
# Coordination Sequence:
#
# PCOD9284195 Si02
#       7
#     8   8   8   8   8   8   8
#     4  11  23  39  60  96 142 178 226 276 348 433
#     4  12  25  46  67 101 145 181 238 299 361 418
#     4  10  21  40  67  95 141 176 232 284 348 434
#     4  11  23  40  73  98 131 186 232 293 354 417
#     4  11  26  42  65  95 141 188 224 292 357 428
#     4  10  23  41  69 104 131 176 242 294 350 418
#     4  11  23  44  64  99 135 183 230 281 357 421
#
# _framework density 20.296576999999999
#
# number of rings (size 3 to 8) (size 9 to 14) (size 15 to 20)
#    0.000    1.143    2.857    3.429    8.000    2.857 
#    0.000    0.714    0.000    0.000    0.000    0.000 
#    0.000    0.000    0.000    0.000    0.000    0.000 
#
# Total GULP energy -156097.798716 kJ/mol
# GULP energy per Si atom -5574.921383 kJ/mol
# Density = 2.025038 g / cm^3
# Si number density = 20.296577 Si / 1000 Ang^3
#
#
#
# Elastic Constant Matrix: (Units=GPa)
#
#
# Indices 1 2 3 4 5 6 
#
# 1 132.7484 36.2374 39.1854 0.0000 -12.5352 0.0000
# 2 36.2374 102.3190 16.4848 0.0000 -17.0685 0.0000
# 3 39.1854 16.4848 73.2492 0.0000 -14.0751 0.0000
# 4 0.0000 0.0000 0.0000 32.8854 0.0000 -1.8015
# 5 -12.5352 -17.0685 -14.0751 0.0000 25.6637 0.0000
# 6 0.0000 0.0000 0.0000 -1.8015 0.0000 28.2681
#
#
#
# Elastic Compliance Matrix: (Units=1/GPa)
#
#
# Indices 1 2 3 4 5 6 
#
# 1 0.009606 -0.002597 -0.004454 0.000000 0.000522 0.000000
# 2 -0.002597 0.011790 -0.000001 0.000000 0.006572 0.000000
# 3 -0.004454 -0.000001 0.017457 0.000000 0.007398 0.000000
# 4 0.000000 0.000000 0.000000 0.030515 0.000000 0.001945
# 5 0.000522 0.006572 0.007398 0.000000 0.047648 0.000000
# 6 0.000000 0.000000 0.000000 0.001945 0.000000 0.035499
#
#
# Mechanical properties :
#
#
# Convention : Reuss Voigt Hill
#
# Bulk Modulus (GPa) = 40.40835 54.68131 47.54483
# Shear Modulus (GPa) = 28.59273 31.79071 30.19172
#
# Velocity S-wave (km/s) = 3.75740 3.96196 3.86103
# Velocity P-wave (km/s) = 6.22706 6.92308 6.58427
#
# Compressibility (1/GPa) = 0.02474736
#
# Stress axis : x y z
#
# Youngs Moduli (GPa) = 104.09997 84.81952 57.28521
#
# Poissons Ratio (x) = 0.22032 0.25515
# Poissons Ratio (y) = 0.27040 0.00005
# Poissons Ratio (z) = 0.46367 0.00008
#
# Static dielectric constant tensor:
#      x y z
#    x 1.814290 0.000000 0.009000 
#    y 0.000000 1.726610 0.000000 
#    z 0.009000 0.000000 1.769790 
# 
# From -- ./inp_files/48992.got.cif
#   From: 2010.05.17/outbox.cif.g08.bks.cpg/sg15_25_cif.got.tgz:48992.got - 2010.06.03 18:47:42.
