data_PCOD9284965
_publ_section_title
;
Structure prediction by ZEFSAII (Michael W. Deem and Ramdas Pophale) SiO2 
 PCOD9284965
Probable space group: C 2/C
;
_chemical_formula_sum "Si O2"
_cell_formula_units_Z 36
_cell_length_a 12.351246
_cell_length_b 14.999914
_cell_length_c 20.223845
_cell_angle_alpha 90.000000
_cell_angle_beta 156.239012
_cell_angle_gamma 90.000000
_cell_volume 1509.678551
_symmetry_space_group_name_H-M "C 2/C"
_symmetry_group_IT_number 15
_symmetry_cell_setting 'monoclinic'
loop_
_space_group_symop_operation_xyz
x,y,z
-x,y,1/2-z
-x,-y,-z
x,-y,1/2+z
1/2+x,1/2+y,z
1/2-x,1/2+y,1/2-z
1/2-x,1/2-y,-z
1/2+x,1/2-y,1/2+z
loop_
_atom_site_type_symbol
_atom_site_label
_atom_site_fract_x
_atom_site_fract_y
_atom_site_fract_z
Si Si1 0.076190 0.599780 0.972282
Si Si2 0.406348 0.701759 0.870230
Si Si3 0.500000 0.273268 0.750000
Si Si4 0.732267 0.431793 0.629626
Si Si5 0.526720 0.098245 0.102384
O O1 0.794376 0.647041 0.791846
O O2 0.115928 0.499197 0.966488
O O3 0.326161 0.666148 0.101616
O O4 0.085302 0.591803 0.057205
O O5 0.209840 0.718293 0.823500
O O6 0.542894 0.796954 0.929496
O O7 0.652299 0.643480 0.033142
O O8 0.500000 0.500000 0.500000
O O9 0.754917 0.403332 0.717911
O O10 0.000000 0.473641 0.750000
#
# Coordination Sequence:
#
# PCOD9284965 Si02
#       5
#     8   8   4   8   8
#     4  10  21  41  66 105 142 185 232 297 359 413
#     4  11  23  45  72 105 142 190 242 297 360 428
#     4  10  22  38  74 110 142 184 246 302 354 420
#     4  12  28  49  74 105 145 191 237 297 365 428
#     4  10  22  43  67  99 146 182 235 289 356 426
#
# _framework density 23.846135
#
# number of rings (size 3 to 8) (size 9 to 14) (size 15 to 20)
#    0.000    1.333    2.222    3.333    1.556    6.222 
#    2.000    0.000    0.000    0.000    0.000    0.000 
#    0.000    0.000    0.000    0.000    0.000    0.000 
#
# Total GULP energy -100227.571188 kJ/mol
# GULP energy per Si atom -5568.198399 kJ/mol
# Density = 2.379186 g / cm^3
# Si number density = 23.846135 Si / 1000 Ang^3
#
#
#
# Elastic Constant Matrix: (Units=GPa)
#
#
# Indices 1 2 3 4 5 6 
#
# 1 85.6917 23.4838 31.2139 -0.0002 -11.3971 0.0011
# 2 23.4838 124.3961 25.5626 0.0002 -6.9987 0.0007
# 3 31.2139 25.5626 87.8587 0.0252 -23.1501 -0.0067
# 4 -0.0002 0.0002 0.0252 8.5817 0.0029 1.5306
# 5 -11.3971 -6.9987 -23.1501 0.0029 43.3691 -0.0013
# 6 0.0011 0.0007 -0.0067 1.5306 -0.0013 27.1576
#
#
#
# Elastic Compliance Matrix: (Units=1/GPa)
#
#
# Indices 1 2 3 4 5 6 
#
# 1 0.013781 -0.001694 -0.004097 0.000012 0.001161 -0.000002
# 2 -0.001694 0.008758 -0.001968 0.000006 -0.000082 -0.000001
# 3 -0.004097 -0.001968 0.015177 -0.000048 0.006707 0.000007
# 4 0.000012 0.000006 -0.000048 0.117711 -0.000030 -0.006634
# 5 0.001161 -0.000082 0.006707 -0.000030 0.026930 0.000005
# 6 -0.000002 -0.000001 0.000007 -0.006634 0.000005 0.037196
#
#
# Mechanical properties :
#
#
# Convention : Reuss Voigt Hill
#
# Bulk Modulus (GPa) = 45.04933 50.94081 47.99507
# Shear Modulus (GPa) = 20.62091 30.33408 25.47750
#
# Velocity S-wave (km/s) = 2.94385 3.57049 3.27220
# Velocity P-wave (km/s) = 5.52157 6.19730 5.86916
#
# Compressibility (1/GPa) = 0.02219789
#
# Stress axis : x y z
#
# Youngs Moduli (GPa) = 72.56422 114.17502 65.88725
#
# Poissons Ratio (x) = 0.19345 0.26994
# Poissons Ratio (y) = 0.12295 0.12967
# Poissons Ratio (z) = 0.29730 0.22470
#
# Static dielectric constant tensor:
#      x y z
#    x 1.858410 0.000000 0.007360 
#    y 0.000000 2.278870 0.000010 
#    z 0.007360 0.000010 1.946740 
# 
# From -- ./inp_files/95486.got.cif
#   From: 2010.05.17/outbox.cif.g08.bks.cpg/sg15_48_cif.got.tgz:95486.got - 2010.06.03 18:47:42.
