data_PCOD9284744
_publ_section_title
;
Structure prediction by ZEFSAII (Michael W. Deem and Ramdas Pophale) SiO2 
 PCOD9284744
Probable space group: C 2/C
;
_chemical_formula_sum "Si O2"
_cell_formula_units_Z 64
_cell_length_a 13.287317
_cell_length_b 12.219545
_cell_length_c 29.309938
_cell_angle_alpha 90.000000
_cell_angle_beta 42.478754
_cell_angle_gamma 90.000000
_cell_volume 3213.769800
_symmetry_space_group_name_H-M "C 2/C"
_symmetry_group_IT_number 15
_symmetry_cell_setting 'monoclinic'
loop_
_space_group_symop_operation_xyz
x,y,z
-x,y,1/2-z
-x,-y,-z
x,-y,1/2+z
1/2+x,1/2+y,z
1/2-x,1/2+y,1/2-z
1/2-x,1/2-y,-z
1/2+x,1/2-y,1/2+z
loop_
_atom_site_type_symbol
_atom_site_label
_atom_site_fract_x
_atom_site_fract_y
_atom_site_fract_z
Si Si1 0.172538 0.894016 0.529488
Si Si2 0.826129 0.719894 0.112828
Si Si3 0.704838 0.818293 0.326163
Si Si4 0.165596 0.582525 0.211305
Si Si5 0.020596 0.212800 0.167854
Si Si6 0.764158 0.057477 0.280858
Si Si7 0.058011 0.682959 0.520297
Si Si8 0.557730 0.463009 0.430487
O O1 0.127566 0.804718 0.506226
O O2 0.347693 0.896911 0.478155
O O3 0.108079 0.839907 0.596431
O O4 0.084824 0.004008 0.551770
O O5 0.652868 0.747707 0.157423
O O6 0.826328 0.640733 0.156250
O O7 0.904761 0.836906 0.089695
O O8 0.907852 0.658858 0.043337
O O9 0.811647 0.713827 0.293933
O O10 0.594438 0.795189 0.319184
O O11 0.605970 0.816098 0.405195
O O12 0.775788 0.936678 0.297275
O O13 0.195041 0.545994 0.253464
O O14 0.298061 0.532120 0.135314
O O15 0.000000 0.553766 0.250000
O O16 0.921644 0.117781 0.222598
O O17 0.500000 0.500000 0.500000
#
# Coordination Sequence:
#
# PCOD9284744 Si02
#       8
#     8   8   8   8   8   8   8   8
#     4   9  16  33  60  89 124 156 198 255 311 376
#     4  11  23  35  64  95 122 157 210 264 309 372
#     4  10  21  41  64  85 129 168 204 257 316 383
#     4  11  26  42  60  92 128 170 210 261 334 383
#     4   9  20  39  58  90 119 159 209 252 311 371
#     4  11  24  39  60  90 125 163 211 261 308 380
#     4   9  17  36  59  91 121 159 209 247 312 379
#     4  12  22  38  65  99 128 160 211 276 316 369
#
# _framework density 19.914307000000001
#
# number of rings (size 3 to 8) (size 9 to 14) (size 15 to 20)
#    0.000    1.750    5.000    1.125    5.250    1.500 
#    0.000    1.250    0.000    3.750    0.000    0.000 
#    0.000    0.000    0.000    0.000    0.000    0.000 
#
# Total GULP energy -178381.873787 kJ/mol
# GULP energy per Si atom -5574.433556 kJ/mol
# Density = 1.986898 g / cm^3
# Si number density = 19.914307 Si / 1000 Ang^3
#
#
#
# Elastic Constant Matrix: (Units=GPa)
#
#
# Indices 1 2 3 4 5 6 
#
# 1 48.6870 4.4359 10.5788 0.0000 1.3086 0.0000
# 2 4.4359 87.6502 24.4534 0.0000 4.4688 0.0000
# 3 10.5788 24.4534 85.5753 -0.0001 19.0916 0.0000
# 4 0.0000 0.0000 -0.0001 19.0731 0.0000 -1.3430
# 5 1.3086 4.4688 19.0916 0.0000 20.7104 0.0000
# 6 0.0000 0.0000 0.0000 -1.3430 0.0000 12.9849
#
#
#
# Elastic Compliance Matrix: (Units=1/GPa)
#
#
# Indices 1 2 3 4 5 6 
#
# 1 0.021146 -0.000354 -0.002810 0.000000 0.001330 0.000000
# 2 -0.000354 0.012412 -0.003664 0.000000 0.000722 0.000000
# 3 -0.002810 -0.003664 0.016195 0.000000 -0.013961 0.000000
# 4 0.000000 0.000000 0.000000 0.052814 0.000000 0.005463
# 5 0.001330 0.000722 -0.013961 0.000000 0.060915 0.000000
# 6 0.000000 0.000000 0.000000 0.005463 0.000000 0.077577
#
#
# Mechanical properties :
#
#
# Convention : Reuss Voigt Hill
#
# Bulk Modulus (GPa) = 27.70288 33.42764 30.56526
# Shear Modulus (GPa) = 18.74429 22.71665 20.73047
#
# Velocity S-wave (km/s) = 3.07130 3.38112 3.22993
# Velocity P-wave (km/s) = 5.14961 5.66258 5.41217
#
# Compressibility (1/GPa) = 0.03609734
#
# Stress axis : x y z
#
# Youngs Moduli (GPa) = 47.28945 80.56490 61.74918
#
# Poissons Ratio (x) = 0.02853 0.17350
# Poissons Ratio (y) = 0.01675 0.22626
# Poissons Ratio (z) = 0.13287 0.29520
#
# Static dielectric constant tensor:
#      x y z
#    x 1.778400 0.000000 0.022970 
#    y 0.000000 1.711210 0.000000 
#    z 0.022970 0.000000 1.744380 
# 
# From -- ./inp_files/313581.got.cif
#   From: 2010.05.17/outbox.cif.g08.bks.cpg/sg15_157_cif.got.tgz:313581.got - 2010.06.03 18:47:42.
