data_PCOD9284653
_publ_section_title
;
Structure prediction by ZEFSAII (Michael W. Deem and Ramdas Pophale) SiO2 
 PCOD9284653
Probable space group: C 2/C
;
_chemical_formula_sum "Si O2"
_cell_formula_units_Z 56
_cell_length_a 14.395269
_cell_length_b 24.983991
_cell_length_c 11.646665
_cell_angle_alpha 90.000000
_cell_angle_beta 138.285315
_cell_angle_gamma 90.000000
_cell_volume 2787.277064
_symmetry_space_group_name_H-M "C 2/C"
_symmetry_group_IT_number 15
_symmetry_cell_setting 'monoclinic'
loop_
_space_group_symop_operation_xyz
x,y,z
-x,y,1/2-z
-x,-y,-z
x,-y,1/2+z
1/2+x,1/2+y,z
1/2-x,1/2+y,1/2-z
1/2-x,1/2-y,-z
1/2+x,1/2-y,1/2+z
loop_
_atom_site_type_symbol
_atom_site_label
_atom_site_fract_x
_atom_site_fract_y
_atom_site_fract_z
Si Si1 0.963671 0.813537 0.835517
Si Si2 0.140906 0.109424 0.079489
Si Si3 0.921073 0.443526 0.405899
Si Si4 0.057656 0.649925 0.178982
Si Si5 0.000000 0.620717 0.750000
Si Si6 0.850700 0.004214 0.297617
Si Si7 0.359666 0.208890 0.469185
Si Si8 0.000000 0.043780 0.750000
O O1 0.959978 0.852504 0.940923
O O2 0.806996 0.789434 0.694357
O O3 0.000000 0.843365 0.750000
O O4 0.074402 0.765647 0.939872
O O5 0.278870 0.136195 0.156753
O O6 0.198672 0.063788 0.219700
O O7 0.059376 0.081161 0.903018
O O8 0.950143 0.416528 0.309181
O O9 0.758961 0.460049 0.263604
O O10 0.000000 0.500000 0.500000
O O11 0.971509 0.401128 0.549479
O O12 0.064344 0.691651 0.079625
O O13 0.000000 0.666586 0.250000
O O14 0.891348 0.662288 0.591237
O O15 0.000000 0.000000 0.500000
O O16 0.880424 0.993443 0.192296
#
# Coordination Sequence:
#
# PCOD9284653 Si02
#       8
#     8   8   8   8   4   8   8   4
#     4  11  23  42  69  90 126 162 207 270 315 370
#     4  10  22  41  59  96 120 163 216 247 315 381
#     4  11  22  37  63  90 120 168 201 250 307 366
#     4  10  21  41  63  87 127 159 207 260 307 372
#     4  10  24  40  65  94 131 154 218 258 308 380
#     4  10  22  39  56  89 126 163 206 247 306 371
#     4  10  23  44  62  95 123 160 212 261 317 376
#     4  10  22  40  59  82 135 162 200 260 300 378
#
# _framework density 20.091294000000001
#
# number of rings (size 3 to 8) (size 9 to 14) (size 15 to 20)
#    0.000    1.714    2.143    1.286    2.000    4.571 
#    9.000    1.429    0.000    0.000    0.000    0.000 
#    0.000    0.000    0.000    0.000    0.000    0.000 
#
# Total GULP energy -156192.338415 kJ/mol
# GULP energy per Si atom -5578.297801 kJ/mol
# Density = 2.004556 g / cm^3
# Si number density = 20.091294 Si / 1000 Ang^3
#
#
#
# Elastic Constant Matrix: (Units=GPa)
#
#
# Indices 1 2 3 4 5 6 
#
# 1 115.5887 22.2950 18.8524 0.0000 -25.0199 0.0000
# 2 22.2950 43.0513 6.2525 0.0000 -19.1884 0.0000
# 3 18.8524 6.2525 54.1966 0.0000 -13.7424 0.0000
# 4 0.0000 0.0000 0.0000 24.7041 0.0000 -5.3292
# 5 -25.0199 -19.1884 -13.7424 0.0000 31.5369 0.0000
# 6 0.0000 0.0000 0.0000 -5.3292 0.0000 20.3348
#
#
#
# Elastic Compliance Matrix: (Units=1/GPa)
#
#
# Indices 1 2 3 4 5 6 
#
# 1 0.010791 -0.002559 -0.001891 0.000000 0.006180 0.000000
# 2 -0.002559 0.032572 0.001847 0.000000 0.018593 0.000000
# 3 -0.001891 0.001847 0.021136 0.000000 0.008833 0.000000
# 4 0.000000 0.000000 0.000000 0.042905 0.000000 0.011244
# 5 0.006180 0.018593 0.008833 0.000000 0.051773 0.000000
# 6 0.000000 0.000000 0.000000 0.011244 0.000000 0.052124
#
#
# Mechanical properties :
#
#
# Convention : Reuss Voigt Hill
#
# Bulk Modulus (GPa) = 16.86575 34.18182 25.52379
# Shear Modulus (GPa) = 21.16199 26.34428 23.75314
#
# Velocity S-wave (km/s) = 3.24897 3.62502 3.44213
# Velocity P-wave (km/s) = 4.74206 5.87973 5.34127
#
# Compressibility (1/GPa) = 0.05929175
#
# Stress axis : x y z
#
# Youngs Moduli (GPa) = 92.66844 30.70099 47.31255
#
# Poissons Ratio (x) = 0.07857 0.08949
# Poissons Ratio (y) = 0.23717 -0.08738
# Poissons Ratio (z) = 0.17528 -0.05670
#
# Static dielectric constant tensor:
#      x y z
#    x 1.735000 0.000000 -0.002930 
#    y 0.000000 1.730670 0.000000 
#    z -0.002930 0.000000 1.752680 
# 
# From -- ./inp_files/92120.got.cif
#   From: 2010.05.17/outbox.cif.g08.bks.cpg/sg15_47_cif.got.tgz:92120.got - 2010.06.03 18:47:42.
