data_PCOD9284340
_publ_section_title
;
Structure prediction by ZEFSAII (Michael W. Deem and Ramdas Pophale) SiO2 
 PCOD9284340
Probable space group: C 2/C
;
_chemical_formula_sum "Si O2"
_cell_formula_units_Z 52
_cell_length_a 27.689457
_cell_length_b 4.945483
_cell_length_c 16.337872
_cell_angle_alpha 90.000000
_cell_angle_beta 74.410790
_cell_angle_gamma 90.000000
_cell_volume 2154.969184
_symmetry_space_group_name_H-M "C 2/C"
_symmetry_group_IT_number 15
_symmetry_cell_setting 'monoclinic'
loop_
_space_group_symop_operation_xyz
x,y,z
-x,y,1/2-z
-x,-y,-z
x,-y,1/2+z
1/2+x,1/2+y,z
1/2-x,1/2+y,1/2-z
1/2-x,1/2-y,-z
1/2+x,1/2-y,1/2+z
loop_
_atom_site_type_symbol
_atom_site_label
_atom_site_fract_x
_atom_site_fract_y
_atom_site_fract_z
Si Si1 0.872700 0.339116 0.506117
Si Si2 0.178410 0.365111 0.605248
Si Si3 0.483850 0.214697 0.936083
Si Si4 0.403720 0.321432 0.232137
Si Si5 0.500000 0.655501 0.250000
Si Si6 0.778852 0.953656 0.048404
Si Si7 0.090080 0.723731 0.879436
O O1 0.852530 0.395176 0.424473
O O2 0.926824 0.198661 0.476294
O O3 0.825233 0.196119 0.568892
O O4 0.886152 0.612031 0.548918
O O5 0.138415 0.235834 0.682346
O O6 0.231732 0.439947 0.621908
O O7 0.196345 0.180315 0.520801
O O8 0.484849 0.165200 0.836560
O O9 0.536064 0.375422 0.916855
O O10 0.500000 0.000000 0.000000
O O11 0.452752 0.460786 0.250762
O O12 0.415094 0.046934 0.175207
O O13 0.381121 0.551771 0.183400
O O14 0.750000 0.750000 0.000000
#
# Coordination Sequence:
#
# PCOD9284340 Si02
#       7
#     8   8   8   8   4   8   8
#     4  10  21  40  69  93 135 182 223 284 352 407
#     4  10  22  37  70  95 124 174 232 284 338 412
#     4   9  20  40  63 103 139 182 227 281 340 418
#     4  11  25  41  67  98 138 179 228 283 343 416
#     4  10  22  38  66  98 144 190 236 278 352 426
#     4   9  20  39  66  95 124 164 237 285 336 410
#     4  10  25  43  62 100 145 176 225 283 341 422
#
# _framework density 24.130272999999999
#
# number of rings (size 3 to 8) (size 9 to 14) (size 15 to 20)
#    0.000    2.154    0.000    0.923   12.923    0.615 
#    0.000    3.846   10.154    0.000    0.000    0.000 
#    0.000    0.000    0.000    0.000    0.000    0.000 
#
# Total GULP energy -144829.614004 kJ/mol
# GULP energy per Si atom -5570.369769 kJ/mol
# Density = 2.407535 g / cm^3
# Si number density = 24.130273 Si / 1000 Ang^3
#
#
#
# Elastic Constant Matrix: (Units=GPa)
#
#
# Indices 1 2 3 4 5 6 
#
# 1 171.2710 28.3789 80.7135 0.0000 -21.5706 0.0000
# 2 28.3789 70.4901 24.6373 0.0000 -0.2228 0.0000
# 3 80.7135 24.6373 102.7345 0.0000 -16.1464 0.0000
# 4 0.0000 0.0000 0.0000 36.0386 0.0000 6.4617
# 5 -21.5706 -0.2228 -16.1464 0.0000 36.3023 0.0000
# 6 0.0000 0.0000 0.0000 6.4617 0.0000 47.8897
#
#
#
# Elastic Compliance Matrix: (Units=1/GPa)
#
#
# Indices 1 2 3 4 5 6 
#
# 1 0.009618 -0.001496 -0.006775 0.000000 0.002693 0.000000
# 2 -0.001496 0.015812 -0.002947 0.000000 -0.002103 0.000000
# 3 -0.006775 -0.002947 0.016265 0.000000 0.003191 0.000000
# 4 0.000000 0.000000 0.000000 0.028436 0.000000 -0.003837
# 5 0.002693 -0.002103 0.003191 0.000000 0.030553 0.000000
# 6 0.000000 0.000000 0.000000 -0.003837 0.000000 0.021399
#
#
# Mechanical properties :
#
#
# Convention : Reuss Voigt Hill
#
# Bulk Modulus (GPa) = 51.92262 67.99499 59.95880
# Shear Modulus (GPa) = 33.12616 38.09718 35.61167
#
# Velocity S-wave (km/s) = 3.70916 3.97774 3.84579
# Velocity P-wave (km/s) = 6.31729 7.02396 6.67998
#
# Compressibility (1/GPa) = 0.01925943
#
# Stress axis : x y z
#
# Youngs Moduli (GPa) = 103.96763 63.24290 61.48320
#
# Poissons Ratio (x) = 0.09461 0.41653
# Poissons Ratio (y) = 0.15553 0.18120
# Poissons Ratio (z) = 0.70435 0.18639
#
# Static dielectric constant tensor:
#      x y z
#    x 1.988990 0.000000 -0.012780 
#    y 0.000000 2.054280 0.000000 
#    z -0.012780 0.000000 2.078310 
# 
# From -- ./inp_files/220869.got.cif
#   From: 2010.05.17/outbox.cif.g08.bks.cpg/sg15_111_cif.got.tgz:220869.got - 2010.06.03 18:47:42.
