data_PCOD9284095
_publ_section_title
;
Structure prediction by ZEFSAII (Michael W. Deem and Ramdas Pophale) SiO2 
 PCOD9284095
Probable space group: C 2/C
;
_chemical_formula_sum "Si O2"
_cell_formula_units_Z 64
_cell_length_a 20.860160
_cell_length_b 7.778642
_cell_length_c 15.423312
_cell_angle_alpha 90.000000
_cell_angle_beta 81.722220
_cell_angle_gamma 90.000000
_cell_volume 2476.570628
_symmetry_space_group_name_H-M "C 2/C"
_symmetry_group_IT_number 15
_symmetry_cell_setting 'monoclinic'
loop_
_space_group_symop_operation_xyz
x,y,z
-x,y,1/2-z
-x,-y,-z
x,-y,1/2+z
1/2+x,1/2+y,z
1/2-x,1/2+y,1/2-z
1/2-x,1/2-y,-z
1/2+x,1/2-y,1/2+z
loop_
_atom_site_type_symbol
_atom_site_label
_atom_site_fract_x
_atom_site_fract_y
_atom_site_fract_z
Si Si1 0.458825 0.708825 0.459552
Si Si2 0.147380 0.007079 0.248224
Si Si3 0.057812 0.673870 0.804654
Si Si4 0.175169 0.751038 0.487141
Si Si5 0.548500 0.219422 0.335488
Si Si6 0.775307 0.068910 0.112429
Si Si7 0.916743 0.146530 0.897510
Si Si8 0.828737 0.604330 0.513649
O O1 0.521858 0.782109 0.401544
O O2 0.387269 0.768958 0.438325
O O3 0.455541 0.770188 0.558499
O O4 0.452908 0.507167 0.440118
O O5 0.215095 0.020640 0.288310
O O6 0.114733 0.193564 0.270961
O O7 0.099524 0.866941 0.300858
O O8 0.140661 0.940294 0.150152
O O9 0.000000 0.716005 0.750000
O O10 0.069677 0.470463 0.801309
O O11 0.250000 0.750000 0.500000
O O12 0.326453 0.563051 0.557532
O O13 0.168112 0.574037 0.435962
O O14 0.472897 0.265078 0.329866
O O15 0.709815 0.056826 0.068621
O O16 0.795082 0.261376 0.084076
O O17 0.888887 0.291740 0.964920
#
# Coordination Sequence:
#
# PCOD9284095 Si02
#       8
#     8   8   8   8   8   8   8   8
#     4  12  23  41  65 101 131 175 224 283 332 405
#     4  12  24  43  66  96 139 177 216 282 348 404
#     4  12  25  42  64  99 139 176 217 273 355 413
#     4  10  21  40  66  96 127 166 225 286 324 383
#     4  12  25  41  67  96 131 175 227 274 334 420
#     4  10  22  41  67  96 128 173 223 278 333 393
#     4  12  23  43  67  96 139 179 218 281 345 412
#     4  10  22  41  69  94 127 172 226 274 329 398
#
# _framework density 25.842185000000001
#
# number of rings (size 3 to 8) (size 9 to 14) (size 15 to 20)
#    0.000    0.750    5.000    2.625    3.500    0.000 
#    0.000    2.500    0.000    0.000    0.000    0.000 
#    0.000    0.000    0.000    0.000    0.000    0.000 
#
# Total GULP energy -178554.729235 kJ/mol
# GULP energy per Si atom -5579.835289 kJ/mol
# Density = 2.578337 g / cm^3
# Si number density = 25.842185 Si / 1000 Ang^3
#
#
#
# Elastic Constant Matrix: (Units=GPa)
#
#
# Indices 1 2 3 4 5 6 
#
# 1 79.0043 14.1664 12.5045 0.0000 33.4599 0.0000
# 2 14.1664 184.8194 -11.1727 0.0000 -0.1073 0.0000
# 3 12.5045 -11.1727 66.9475 0.0000 34.2681 0.0000
# 4 0.0000 0.0000 0.0000 19.8229 0.0000 -14.4777
# 5 33.4599 -0.1073 34.2681 0.0000 45.2308 0.0000
# 6 0.0000 0.0000 0.0000 -14.4777 0.0000 17.2369
#
#
#
# Elastic Compliance Matrix: (Units=1/GPa)
#
#
# Indices 1 2 3 4 5 6 
#
# 1 0.020166 -0.001194 0.005997 0.000000 -0.019465 0.000000
# 2 -0.001194 0.005571 0.001133 0.000000 0.000038 0.000000
# 3 0.005997 0.001133 0.026585 0.000000 -0.024576 0.000000
# 4 0.000000 0.000000 0.000000 0.130501 0.000000 0.109611
# 5 -0.019465 0.000038 -0.024576 0.000000 0.055127 0.000000
# 6 0.000000 0.000000 0.000000 0.109611 0.000000 0.150080
#
#
# Mechanical properties :
#
#
# Convention : Reuss Voigt Hill
#
# Bulk Modulus (GPa) = 15.57771 40.19641 27.88706
# Shear Modulus (GPa) = 12.57684 37.47632 25.02658
#
# Velocity S-wave (km/s) = 2.20847 3.81228 3.11535
# Velocity P-wave (km/s) = 3.54178 5.91323 4.87394
#
# Compressibility (1/GPa) = 0.06419428
#
# Stress axis : x y z
#
# Youngs Moduli (GPa) = 49.58806 179.50834 37.61453
#
# Poissons Ratio (x) = 0.21442 -0.22558
# Poissons Ratio (y) = 0.05923 -0.04262
# Poissons Ratio (z) = -0.29739 -0.20342
#
# Static dielectric constant tensor:
#      x y z
#    x 2.211100 0.000000 0.129990 
#    y 0.000000 1.947040 0.000000 
#    z 0.129990 0.000000 2.191560 
# 
# From -- ./inp_files/172405.got.cif
#   From: 2010.05.17/outbox.cif.g08.bks.cpg/sg15_87_cif.got.tgz:172405.got - 2010.06.03 18:47:42.
