data_PCOD9284116
_publ_section_title
;
Structure prediction by ZEFSAII (Michael W. Deem and Ramdas Pophale) SiO2 
 PCOD9284116
Probable space group: C 2/C
;
_chemical_formula_sum "Si O2"
_cell_formula_units_Z 40
_cell_length_a 9.962630
_cell_length_b 10.209860
_cell_length_c 19.336183
_cell_angle_alpha 90.000000
_cell_angle_beta 107.323378
_cell_angle_gamma 90.000000
_cell_volume 1877.603489
_symmetry_space_group_name_H-M "C 2/C"
_symmetry_group_IT_number 15
_symmetry_cell_setting 'monoclinic'
loop_
_space_group_symop_operation_xyz
x,y,z
-x,y,1/2-z
-x,-y,-z
x,-y,1/2+z
1/2+x,1/2+y,z
1/2-x,1/2+y,1/2-z
1/2-x,1/2-y,-z
1/2+x,1/2-y,1/2+z
loop_
_atom_site_type_symbol
_atom_site_label
_atom_site_fract_x
_atom_site_fract_y
_atom_site_fract_z
Si Si1 0.180701 0.821599 0.926049
Si Si2 0.649121 0.388529 0.411586
Si Si3 0.341030 0.760109 0.228882
Si Si4 0.357428 0.519371 0.808938
Si Si5 0.136049 0.155978 0.071239
O O1 0.211924 0.760693 0.857067
O O2 0.012899 0.816342 0.914797
O O3 0.227127 0.972479 0.928201
O O4 0.250000 0.750000 0.000000
O O5 0.512421 0.418409 0.343642
O O6 0.749897 0.271035 0.404322
O O7 0.606901 0.362286 0.485352
O O8 0.500000 0.810429 0.250000
O O9 0.348516 0.617650 0.265872
O O10 0.240211 0.872728 0.241800
O O11 0.311258 0.472595 0.879402
#
# Coordination Sequence:
#
# PCOD9284116 Si02
#       5
#     8   8   8   8   8
#     4  11  22  40  65  96 135 173 223 279 329 395
#     4  10  21  40  67  95 133 177 218 272 338 393
#     4  12  25  43  67  99 131 178 222 276 342 394
#     4  11  25  43  67  92 138 172 224 278 333 401
#     4  10  21  40  66  99 132 175 220 272 336 399
#
# _framework density 21.303751999999999
#
# number of rings (size 3 to 8) (size 9 to 14) (size 15 to 20)
#    0.000    1.200    4.000    4.800    2.800    2.400 
#    0.000    0.000    0.000    0.000    0.000    0.000 
#    0.000    0.000    0.000    0.000    0.000    0.000 
#
# Total GULP energy -111696.919354 kJ/mol
# GULP energy per Si atom -5584.845968 kJ/mol
# Density = 2.125526 g / cm^3
# Si number density = 21.303752 Si / 1000 Ang^3
#
#
#
# Elastic Constant Matrix: (Units=GPa)
#
#
# Indices 1 2 3 4 5 6 
#
# 1 49.7409 55.3897 17.8032 0.0000 10.8561 0.0000
# 2 55.3897 131.6931 39.8156 0.0000 27.8584 0.0000
# 3 17.8032 39.8156 109.6928 0.0000 17.9512 0.0000
# 4 0.0000 0.0000 0.0000 48.8536 0.0000 5.3505
# 5 10.8561 27.8584 17.9512 0.0000 33.4483 0.0000
# 6 0.0000 0.0000 0.0000 5.3505 0.0000 41.2250
#
#
#
# Elastic Compliance Matrix: (Units=1/GPa)
#
#
# Indices 1 2 3 4 5 6 
#
# 1 0.037882 -0.016059 -0.000544 0.000000 0.001372 0.000000
# 2 -0.016059 0.016582 -0.002198 0.000000 -0.007419 0.000000
# 3 -0.000544 -0.002198 0.010605 0.000000 -0.003684 0.000000
# 4 0.000000 0.000000 0.000000 0.020764 0.000000 -0.002695
# 5 0.001372 -0.007419 -0.003684 0.000000 0.037608 0.000000
# 6 0.000000 0.000000 0.000000 -0.002695 0.000000 0.024607
#
#
# Mechanical properties :
#
#
# Convention : Reuss Voigt Hill
#
# Bulk Modulus (GPa) = 36.40702 57.46042 46.93372
# Shear Modulus (GPa) = 25.66658 36.57994 31.12326
#
# Velocity S-wave (km/s) = 3.47478 4.14824 3.82636
# Velocity P-wave (km/s) = 5.76414 7.06926 6.44980
#
# Compressibility (1/GPa) = 0.02746723
#
# Stress axis : x y z
#
# Youngs Moduli (GPa) = 26.39781 60.30759 94.29071
#
# Poissons Ratio (x) = 0.96847 0.05128
# Poissons Ratio (y) = 0.42392 0.20728
# Poissons Ratio (z) = 0.01436 0.13257
#
# Static dielectric constant tensor:
#      x y z
#    x 1.786030 0.000000 -0.028180 
#    y 0.000000 1.787450 0.000000 
#    z -0.028180 0.000000 1.839310 
# 
# From -- ./inp_files/235919.got.cif
#   From: 2010.05.17/outbox.cif.g08.bks.cpg/sg15_118_cif.got.tgz:235919.got - 2010.06.03 18:47:42.
