data_PCOD9284942
_publ_section_title
;
Structure prediction by ZEFSAII (Michael W. Deem and Ramdas Pophale) SiO2 
 PCOD9284942
Probable space group: C 2/C
;
_chemical_formula_sum "Si O2"
_cell_formula_units_Z 48
_cell_length_a 18.731417
_cell_length_b 25.840001
_cell_length_c 5.098164
_cell_angle_alpha 90.000000
_cell_angle_beta 64.006407
_cell_angle_gamma 90.000000
_cell_volume 2217.996366
_symmetry_space_group_name_H-M "C 2/C"
_symmetry_group_IT_number 15
_symmetry_cell_setting 'monoclinic'
loop_
_space_group_symop_operation_xyz
x,y,z
-x,y,1/2-z
-x,-y,-z
x,-y,1/2+z
1/2+x,1/2+y,z
1/2-x,1/2+y,1/2-z
1/2-x,1/2-y,-z
1/2+x,1/2-y,1/2+z
loop_
_atom_site_type_symbol
_atom_site_label
_atom_site_fract_x
_atom_site_fract_y
_atom_site_fract_z
Si Si1 0.945881 0.593608 0.086257
Si Si2 0.324831 0.176606 0.490726
Si Si3 0.791685 0.117384 0.438905
Si Si4 0.209179 0.533362 0.229081
Si Si5 0.411312 0.464578 0.960983
Si Si6 0.194072 0.779926 0.797322
O O1 0.891073 0.642764 0.244928
O O2 0.883097 0.548909 0.118679
O O3 0.000000 0.580940 0.250000
O O4 0.000000 0.604209 0.750000
O O5 0.252055 0.195850 0.425001
O O6 0.359671 0.232247 0.524639
O O7 0.283985 0.140264 0.778586
O O8 0.758038 0.082895 0.252911
O O9 0.848774 0.080197 0.508404
O O10 0.840091 0.168491 0.275771
O O11 0.225170 0.488583 0.415526
O O12 0.500000 0.445236 0.750000
O O13 0.402546 0.511444 0.764209
O O14 0.250000 0.750000 0.500000
#
# Coordination Sequence:
#
# PCOD9284942 Si02
#       6
#     8   8   8   8   8   8
#     4  12  26  43  67  91 134 182 218 268 334 392
#     4  10  21  41  65  98 125 166 222 268 324 388
#     4  11  21  38  69  96 128 172 217 274 321 391
#     4  12  25  40  62  95 129 168 227 273 312 378
#     4  10  23  41  64  95 135 175 211 261 331 395
#     4   9  20  37  69  93 124 158 212 273 328 377
#
# _framework density 21.641155999999999
#
# number of rings (size 3 to 8) (size 9 to 14) (size 15 to 20)
#    0.000    1.333    1.667    4.000    4.667    2.000 
#    0.000    0.000   11.000    0.000    0.000    0.000 
#    0.000    0.000    0.000    0.000    0.000    0.000 
#
# Total GULP energy -134130.190213 kJ/mol
# GULP energy per Si atom -5588.757926 kJ/mol
# Density = 2.159190 g / cm^3
# Si number density = 21.641156 Si / 1000 Ang^3
#
#
#
# Elastic Constant Matrix: (Units=GPa)
#
#
# Indices 1 2 3 4 5 6 
#
# 1 87.5515 46.1724 26.3876 0.0000 1.5603 0.0000
# 2 46.1724 148.9791 40.8994 0.0000 -3.7043 0.0000
# 3 26.3876 40.8994 79.1400 0.0000 7.2940 0.0000
# 4 0.0000 0.0000 0.0000 25.3630 0.0000 17.1597
# 5 1.5603 -3.7043 7.2940 0.0000 33.2877 0.0000
# 6 0.0000 0.0000 0.0000 17.1597 0.0000 18.2221
#
#
#
# Elastic Compliance Matrix: (Units=1/GPa)
#
#
# Indices 1 2 3 4 5 6 
#
# 1 0.014196 -0.003640 -0.002811 0.000000 -0.000455 0.000000
# 2 -0.003640 0.008861 -0.003544 0.000000 0.001933 0.000000
# 3 -0.002811 -0.003544 0.015747 0.000000 -0.003713 0.000000
# 4 0.000000 0.000000 0.000000 0.108652 0.000000 -0.102317
# 5 -0.000455 0.001933 -0.003713 0.000000 0.031091 0.000000
# 6 0.000000 0.000000 0.000000 -0.102317 0.000000 0.151230
#
#
# Mechanical properties :
#
#
# Convention : Reuss Voigt Hill
#
# Bulk Modulus (GPa) = 53.14675 60.28772 56.71723
# Shear Modulus (GPa) = 14.04340 28.85529 21.44935
#
# Velocity S-wave (km/s) = 2.55016 3.65547 3.15165
# Velocity P-wave (km/s) = 5.76910 6.76277 6.28560
#
# Compressibility (1/GPa) = 0.01881583
#
# Stress axis : x y z
#
# Youngs Moduli (GPa) = 70.43992 112.84900 63.50463
#
# Poissons Ratio (x) = 0.41072 0.17849
# Poissons Ratio (y) = 0.25637 0.22507
# Poissons Ratio (z) = 0.19799 0.39996
#
# Static dielectric constant tensor:
#      x y z
#    x 1.871900 0.000000 0.012850 
#    y 0.000000 1.827430 0.000000 
#    z 0.012850 0.000000 1.855650 
# 
# From -- ./inp_files/11182.got.cif
#   From: 2010.05.17/outbox.cif.g08.bks.cpg/sg15_6_cif.got.tgz:11182.got - 2010.06.03 18:47:42.
