data_PCOD9284929
_publ_section_title
;
Structure prediction by ZEFSAII (Michael W. Deem and Ramdas Pophale) SiO2 
 PCOD9284929
Probable space group: C 2/C
;
_chemical_formula_sum "Si O2"
_cell_formula_units_Z 40
_cell_length_a 26.046526
_cell_length_b 8.664356
_cell_length_c 18.412177
_cell_angle_alpha 90.000000
_cell_angle_beta 25.735255
_cell_angle_gamma 90.000000
_cell_volume 1804.240833
_symmetry_space_group_name_H-M "C 2/C"
_symmetry_group_IT_number 15
_symmetry_cell_setting 'monoclinic'
loop_
_space_group_symop_operation_xyz
x,y,z
-x,y,1/2-z
-x,-y,-z
x,-y,1/2+z
1/2+x,1/2+y,z
1/2-x,1/2+y,1/2-z
1/2-x,1/2-y,-z
1/2+x,1/2-y,1/2+z
loop_
_atom_site_type_symbol
_atom_site_label
_atom_site_fract_x
_atom_site_fract_y
_atom_site_fract_z
Si Si1 0.398502 0.699768 0.015863
Si Si2 0.195570 0.142935 0.507845
Si Si3 0.420242 0.856671 0.623235
Si Si4 0.859138 0.194138 0.415131
Si Si5 0.683817 0.651965 0.865617
O O1 0.390318 0.725112 0.940297
O O2 0.362400 0.523274 0.079107
O O3 0.308682 0.819833 0.167901
O O4 0.521239 0.739020 0.895060
O O5 0.250000 0.250000 0.500000
O O6 0.302861 0.093622 0.316318
O O7 0.134252 0.987543 0.613906
O O8 0.397824 0.763215 0.578237
O O9 0.500000 0.000000 0.500000
O O10 0.750000 0.250000 0.500000
O O11 0.810922 0.207945 0.558480
O O12 0.000000 0.245927 0.250000
#
# Coordination Sequence:
#
# PCOD9284929 Si02
#       5
#     8   8   8   8   8
#     4  10  21  41  65  96 129 176 231 287 344 418
#     4  10  25  43  65  99 137 181 232 286 355 418
#     4  11  23  40  69  96 132 179 236 288 345 424
#     4  11  27  46  69 101 142 184 229 289 354 423
#     4  10  23  41  66  96 133 176 233 285 350 415
#
# _framework density 22.169989000000001
#
# number of rings (size 3 to 8) (size 9 to 14) (size 15 to 20)
#    0.000    1.600    0.000    4.200   11.200    4.800 
#    0.000    0.000    0.000    0.000    0.000    0.000 
#    0.000    0.000    0.000    0.000    0.000    0.000 
#
# Total GULP energy -111454.868995 kJ/mol
# GULP energy per Si atom -5572.743450 kJ/mol
# Density = 2.211953 g / cm^3
# Si number density = 22.169989 Si / 1000 Ang^3
#
#
#
# Elastic Constant Matrix: (Units=GPa)
#
#
# Indices 1 2 3 4 5 6 
#
# 1 199.3992 52.3581 37.4952 0.0008 -17.3910 -0.0001
# 2 52.3581 66.5949 32.1032 0.0043 -13.8628 -0.0013
# 3 37.4952 32.1032 83.6182 0.0079 -5.8165 -0.0019
# 4 0.0008 0.0043 0.0079 33.1249 -0.0016 -11.2949
# 5 -17.3910 -13.8628 -5.8165 -0.0016 35.0109 0.0002
# 6 -0.0001 -0.0013 -0.0019 -11.2949 0.0002 46.1553
#
#
#
# Elastic Compliance Matrix: (Units=1/GPa)
#
#
# Indices 1 2 3 4 5 6 
#
# 1 0.006466 -0.004236 -0.001180 0.000001 0.001338 0.000000
# 2 -0.004236 0.022632 -0.006386 -0.000001 0.005796 0.000000
# 3 -0.001180 -0.006386 0.014896 -0.000003 -0.000640 0.000000
# 4 0.000001 -0.000001 -0.000003 0.032937 0.000001 0.008060
# 5 0.001338 0.005796 -0.000640 0.000001 0.031416 0.000000
# 6 0.000000 0.000000 0.000000 0.008060 0.000000 0.023638
#
#
# Mechanical properties :
#
#
# Convention : Reuss Voigt Hill
#
# Bulk Modulus (GPa) = 49.04691 65.94724 57.49708
# Shear Modulus (GPa) = 30.79080 38.03529 34.41305
#
# Velocity S-wave (km/s) = 3.73077 4.14650 3.94412
# Velocity P-wave (km/s) = 6.38195 7.26191 6.83611
#
# Compressibility (1/GPa) = 0.02038864
#
# Stress axis : x y z
#
# Youngs Moduli (GPa) = 154.65431 44.18533 67.13431
#
# Poissons Ratio (x) = 0.18718 0.07921
# Poissons Ratio (y) = 0.65516 0.42874
# Poissons Ratio (z) = 0.18248 0.28218
#
# Static dielectric constant tensor:
#      x y z
#    x 1.865330 0.000000 -0.084190 
#    y 0.000000 1.767490 0.000000 
#    z -0.084190 0.000000 1.928440 
# 
# From -- ./inp_files/102704.got.cif
#   From: 2010.05.17/outbox.cif.g08.bks.cpg/sg15_52_cif.got.tgz:102704.got - 2010.06.03 18:47:42.
