data_PCOD9284305
_publ_section_title
;
Structure prediction by ZEFSAII (Michael W. Deem and Ramdas Pophale) SiO2 
 PCOD9284305
Probable space group: C 2/C
;
_chemical_formula_sum "Si O2"
_cell_formula_units_Z 56
_cell_length_a 10.403866
_cell_length_b 18.785151
_cell_length_c 12.488490
_cell_angle_alpha 90.000000
_cell_angle_beta 95.765113
_cell_angle_gamma 90.000000
_cell_volume 2428.382866
_symmetry_space_group_name_H-M "C 2/C"
_symmetry_group_IT_number 15
_symmetry_cell_setting 'monoclinic'
loop_
_space_group_symop_operation_xyz
x,y,z
-x,y,1/2-z
-x,-y,-z
x,-y,1/2+z
1/2+x,1/2+y,z
1/2-x,1/2+y,1/2-z
1/2-x,1/2-y,-z
1/2+x,1/2-y,1/2+z
loop_
_atom_site_type_symbol
_atom_site_label
_atom_site_fract_x
_atom_site_fract_y
_atom_site_fract_z
Si Si1 0.954597 0.924068 0.365269
Si Si2 0.642312 0.274106 0.869645
Si Si3 0.500000 0.148334 0.750000
Si Si4 0.263996 0.584027 0.211838
Si Si5 0.890178 0.459327 0.422038
Si Si6 0.500000 0.838952 0.750000
Si Si7 0.676418 0.456089 0.554447
Si Si8 0.558893 0.736255 0.583126
O O1 0.940094 0.840226 0.363287
O O2 0.000000 0.947970 0.250000
O O3 0.065237 0.941563 0.460279
O O4 0.828282 0.960531 0.408904
O O5 0.609307 0.205879 0.793108
O O6 0.648996 0.357547 0.840352
O O7 0.794295 0.263834 0.904475
O O8 0.536215 0.268457 0.955073
O O9 0.549311 0.095666 0.658610
O O10 0.213478 0.513698 0.144034
O O11 0.338738 0.574745 0.329237
O O12 0.124715 0.616109 0.232376
O O13 0.803579 0.426412 0.508892
O O14 0.000000 0.500000 0.500000
O O15 0.473573 0.788635 0.645871
#
# Coordination Sequence:
#
# PCOD9284305 Si02
#       8
#     8   8   4   8   8   4   8   8
#     4  11  24  43  69  99 135 183 243 295 360 439
#     4  10  26  43  69  99 147 189 239 299 370 442
#     4  12  29  44  74 115 144 190 254 314 367 448
#     4  11  24  46  67 102 144 187 237 297 370 441
#     4  12  27  46  74 106 148 194 247 308 373 448
#     4  10  21  40  68  99 126 184 226 284 351 434
#     4  11  26  42  69 100 137 185 235 300 362 433
#     4  10  22  42  68  94 138 186 229 290 368 429
#
# _framework density 23.060614000000001
#
# number of rings (size 3 to 8) (size 9 to 14) (size 15 to 20)
#    0.000    1.143    0.714    3.857   16.000    1.143 
#    0.000    1.429    0.000    0.000    0.000    0.000 
#    0.000    0.000    0.000    0.000    0.000    0.000 
#
# Total GULP energy -156032.794697 kJ/mol
# GULP energy per Si atom -5572.599811 kJ/mol
# Density = 2.300813 g / cm^3
# Si number density = 23.060614 Si / 1000 Ang^3
#
#
#
# Elastic Constant Matrix: (Units=GPa)
#
#
# Indices 1 2 3 4 5 6 
#
# 1 34.2870 -1.5656 7.8026 0.0000 -9.7150 0.0000
# 2 -1.5656 66.9775 29.1735 0.0000 -9.4058 0.0000
# 3 7.8026 29.1735 119.1853 0.0000 -1.9472 0.0000
# 4 0.0000 0.0000 0.0000 -311.8845 0.0000 327.3818
# 5 -9.7150 -9.4058 -1.9472 0.0000 30.6876 0.0000
# 6 0.0000 0.0000 0.0000 327.3818 0.0000 -280.0489
#
#
#
# Elastic Compliance Matrix: (Units=1/GPa)
#
#
# Indices 1 2 3 4 5 6 
#
# 1 0.033232 0.003639 -0.002879 0.000000 0.011453 0.000000
# 2 0.003639 0.017870 -0.004509 0.000000 0.006343 0.000000
# 3 -0.002879 -0.004509 0.009655 0.000000 -0.001681 0.000000
# 4 0.000000 0.000000 0.000000 0.014118 0.000000 0.016504
# 5 0.011453 0.006343 -0.001681 0.000000 0.038050 0.000000
# 6 0.000000 0.000000 0.000000 0.016504 0.000000 0.015723
#
#
# Mechanical properties :
#
#
# Convention : Reuss Voigt Hill
#
# Bulk Modulus (GPa) = 18.77582 32.36342 25.56962
# Shear Modulus (GPa) = 32.48873 -99.91322 -33.71225
#
# Velocity S-wave (km/s) = 3.75752 -6.58942 -3.82762
# Velocity P-wave (km/s) = 5.19470 6.62037 2.90210
#
# Compressibility (1/GPa) = 0.05326000
#
# Stress axis : x y z
#
# Youngs Moduli (GPa) = 30.09126 55.95924 103.57366
#
# Poissons Ratio (x) = -0.20366 0.29822
# Poissons Ratio (y) = -0.10951 0.46699
# Poissons Ratio (z) = 0.08664 0.25231
#
# Static dielectric constant tensor:
#      x y z
#    x 1.887360 0.000000 0.017000 
#    y 0.000000 2.011460 0.000000 
#    z 0.017000 0.000000 1.991580 
# 
# From -- ./inp_files/89083.got.cif
#   From: 2010.05.17/outbox.cif.g08.bks.cpg/sg15_45_cif.got.tgz:89083.got - 2010.06.03 18:47:42.
