data_PCOD9284710
_publ_section_title
;
Structure prediction by ZEFSAII (Michael W. Deem and Ramdas Pophale) SiO2 
 PCOD9284710
Probable space group: C 2/C
;
_chemical_formula_sum "Si O2"
_cell_formula_units_Z 64
_cell_length_a 28.235703
_cell_length_b 13.486971
_cell_length_c 9.102747
_cell_angle_alpha 90.000000
_cell_angle_beta 51.703378
_cell_angle_gamma 90.000000
_cell_volume 2720.518222
_symmetry_space_group_name_H-M "C 2/C"
_symmetry_group_IT_number 15
_symmetry_cell_setting 'monoclinic'
loop_
_space_group_symop_operation_xyz
x,y,z
-x,y,1/2-z
-x,-y,-z
x,-y,1/2+z
1/2+x,1/2+y,z
1/2-x,1/2+y,1/2-z
1/2-x,1/2-y,-z
1/2+x,1/2-y,1/2+z
loop_
_atom_site_type_symbol
_atom_site_label
_atom_site_fract_x
_atom_site_fract_y
_atom_site_fract_z
Si Si1 0.494572 0.671016 0.584481
Si Si2 0.071292 0.361262 0.914290
Si Si3 0.341713 0.892232 0.171807
Si Si4 0.797157 0.139310 0.521177
Si Si5 0.406802 0.034661 0.834030
Si Si6 0.378396 0.444082 0.342276
Si Si7 0.686225 0.733475 0.700982
Si Si8 0.873646 0.185985 0.129463
O O1 0.500000 0.690535 0.750000
O O2 0.465423 0.763366 0.556919
O O3 0.448682 0.576951 0.662428
O O4 0.564206 0.669240 0.402354
O O5 0.057506 0.448102 0.822804
O O6 0.141149 0.325793 0.767656
O O7 0.062756 0.399381 0.097551
O O8 0.270781 0.896890 0.335505
O O9 0.376603 0.905576 0.259108
O O10 0.370193 0.790713 0.052271
O O11 0.357737 0.977131 0.026127
O O12 0.808100 0.210001 0.638042
O O13 0.813669 0.195129 0.340652
O O14 0.845020 0.048744 0.413722
O O15 0.342028 0.366903 0.311672
O O16 0.372054 0.402629 0.518972
O O17 0.750000 0.750000 0.500000
#
# Coordination Sequence:
#
# PCOD9284710 Si02
#       8
#     8   8   8   8   8   8   8   8
#     4   9  20  43  69  91 132 178 222 272 332 399
#     4  10  21  41  63  94 128 169 219 262 330 388
#     4  11  24  40  62  95 131 171 215 271 336 391
#     4  12  25  39  65  99 133 167 225 277 328 397
#     4  10  22  39  64  94 130 167 214 271 324 394
#     4  10  23  40  65  96 129 174 219 268 331 393
#     4  11  23  40  62  92 132 179 211 264 338 405
#     4  11  23  44  66  93 132 177 222 277 329 392
#
# _framework density 23.524930999999999
#
# number of rings (size 3 to 8) (size 9 to 14) (size 15 to 20)
#    0.000    1.500    0.000    5.625    7.000    0.500 
#    0.000   16.250    0.000    0.000    0.000    0.000 
#    0.000    0.000    0.000    0.000    0.000    0.000 
#
# Total GULP energy -178843.647543 kJ/mol
# GULP energy per Si atom -5588.863986 kJ/mol
# Density = 2.347139 g / cm^3
# Si number density = 23.524931 Si / 1000 Ang^3
#
#
#
# Elastic Constant Matrix: (Units=GPa)
#
#
# Indices 1 2 3 4 5 6 
#
# 1 52.0311 19.3725 38.1337 0.0000 -5.2955 0.0000
# 2 19.3725 85.2774 15.7926 0.0000 -4.4951 0.0000
# 3 38.1337 15.7926 96.9101 0.0000 -15.7666 0.0000
# 4 0.0000 0.0000 0.0000 18.6119 0.0000 12.4481
# 5 -5.2955 -4.4951 -15.7666 0.0000 50.8755 0.0000
# 6 0.0000 0.0000 0.0000 12.4481 0.0000 16.6673
#
#
#
# Elastic Compliance Matrix: (Units=1/GPa)
#
#
# Indices 1 2 3 4 5 6 
#
# 1 0.028652 -0.004575 -0.010646 0.000000 -0.000721 0.000000
# 2 -0.004575 0.012833 -0.000194 0.000000 0.000598 0.000000
# 3 -0.010646 -0.000194 0.015119 0.000000 0.003560 0.000000
# 4 0.000000 0.000000 0.000000 0.107355 0.000000 -0.080179
# 5 -0.000721 0.000598 0.003560 0.000000 0.020737 0.000000
# 6 0.000000 0.000000 0.000000 -0.080179 0.000000 0.119881
#
#
# Mechanical properties :
#
#
# Convention : Reuss Voigt Hill
#
# Bulk Modulus (GPa) = 38.79940 42.31291 40.55615
# Shear Modulus (GPa) = 14.53495 27.95892 21.24694
#
# Velocity S-wave (km/s) = 2.48836 3.45117 3.00853
# Velocity P-wave (km/s) = 4.97841 5.82291 5.41714
#
# Compressibility (1/GPa) = 0.02577359
#
# Stress axis : x y z
#
# Youngs Moduli (GPa) = 34.90160 77.92302 66.14257
#
# Poissons Ratio (x) = 0.35652 0.70417
# Poissons Ratio (y) = 0.15969 0.01281
# Poissons Ratio (z) = 0.37157 0.01509
#
# Static dielectric constant tensor:
#      x y z
#    x 1.914140 0.000000 -0.003200 
#    y 0.000000 1.879460 0.000000 
#    z -0.003200 0.000000 1.887000 
# 
# From -- ./inp_files/70130.got.cif
#   From: 2010.05.17/outbox.cif.g08.bks.cpg/sg15_36_cif.got.tgz:70130.got - 2010.06.03 18:47:42.
