data_PCOD9284440
_publ_section_title
;
Structure prediction by ZEFSAII (Michael W. Deem and Ramdas Pophale) SiO2 
 PCOD9284440
Probable space group: C 2/C
;
_chemical_formula_sum "Si O2"
_cell_formula_units_Z 32
_cell_length_a 12.322687
_cell_length_b 6.657010
_cell_length_c 22.314410
_cell_angle_alpha 90.000000
_cell_angle_beta 133.487323
_cell_angle_gamma 90.000000
_cell_volume 1328.077466
_symmetry_space_group_name_H-M "C 2/C"
_symmetry_group_IT_number 15
_symmetry_cell_setting 'monoclinic'
loop_
_space_group_symop_operation_xyz
x,y,z
-x,y,1/2-z
-x,-y,-z
x,-y,1/2+z
1/2+x,1/2+y,z
1/2-x,1/2+y,1/2-z
1/2-x,1/2-y,-z
1/2+x,1/2-y,1/2+z
loop_
_atom_site_type_symbol
_atom_site_label
_atom_site_fract_x
_atom_site_fract_y
_atom_site_fract_z
Si Si1 0.552564 0.330288 0.703506
Si Si2 0.558469 0.753895 0.505435
Si Si3 0.693428 0.527752 0.969685
Si Si4 0.870365 0.504685 0.857328
O O1 0.500000 0.292589 0.750000
O O2 0.440692 0.481218 0.627173
O O3 0.712187 0.437140 0.771024
O O4 0.552921 0.116831 0.669418
O O5 0.250000 0.750000 0.500000
O O6 0.374153 0.454040 0.491966
O O7 0.578806 0.815650 0.582069
O O8 0.397222 0.816983 0.417045
O O9 0.829626 0.399173 0.992313
#
# Coordination Sequence:
#
# PCOD9284440 Si02
#       4
#     8   8   8   8
#     4  11  23  44  67 103 145 185 246 300 360 428
#     4   9  20  43  65  98 141 183 236 293 355 430
#     4  10  21  40  72 102 137 189 238 293 362 428
#     4  10  22  42  66  99 140 190 236 296 360 424
#
# _framework density 24.094978999999999
#
# number of rings (size 3 to 8) (size 9 to 14) (size 15 to 20)
#    0.000    2.000    2.500    0.000    3.500    0.000 
#    4.500    5.000    0.000    0.000    0.000    0.000 
#    0.000    0.000    0.000    0.000    0.000    0.000 
#
# Total GULP energy -89252.274926 kJ/mol
# GULP energy per Si atom -5578.267183 kJ/mol
# Density = 2.404014 g / cm^3
# Si number density = 24.094979 Si / 1000 Ang^3
#
#
#
# Elastic Constant Matrix: (Units=GPa)
#
#
# Indices 1 2 3 4 5 6 
#
# 1 115.3963 56.9735 45.2386 0.0000 -39.1230 0.0000
# 2 56.9735 150.5907 51.5409 0.0000 -20.1840 0.0000
# 3 45.2386 51.5409 158.9540 0.0000 -16.2047 0.0000
# 4 0.0000 0.0000 0.0000 9.5340 0.0000 -8.5155
# 5 -39.1230 -20.1840 -16.2047 0.0000 38.0207 0.0000
# 6 0.0000 0.0000 0.0000 -8.5155 0.0000 45.6114
#
#
#
# Elastic Compliance Matrix: (Units=1/GPa)
#
#
# Indices 1 2 3 4 5 6 
#
# 1 0.015729 -0.003464 -0.001977 0.000000 0.013504 0.000000
# 2 -0.003464 0.008591 -0.001775 0.000000 0.000239 0.000000
# 3 -0.001977 -0.001775 0.007450 0.000000 0.000199 0.000000
# 4 0.000000 0.000000 0.000000 0.125878 0.000000 0.023501
# 5 0.013504 0.000239 0.000199 0.000000 0.040408 0.000000
# 6 0.000000 0.000000 0.000000 0.023501 0.000000 0.026312
#
#
# Mechanical properties :
#
#
# Convention : Reuss Voigt Hill
#
# Bulk Modulus (GPa) = 57.67954 81.38300 69.53127
# Shear Modulus (GPa) = 20.44326 36.71244 28.57785
#
# Velocity S-wave (km/s) = 2.91597 3.90764 3.44764
# Velocity P-wave (km/s) = 5.94370 7.36266 6.69090
#
# Compressibility (1/GPa) = 0.01733717
#
# Stress axis : x y z
#
# Youngs Moduli (GPa) = 63.57537 116.40249 134.23634
#
# Poissons Ratio (x) = 0.40328 0.26533
# Poissons Ratio (y) = 0.22026 0.23830
# Poissons Ratio (z) = 0.12566 0.20664
#
# Static dielectric constant tensor:
#      x y z
#    x 2.045970 0.000000 0.212090 
#    y 0.000000 2.044940 0.000000 
#    z 0.212090 0.000000 3.174300 
# 
# From -- ./inp_files/235568.got.cif
#   From: 2010.05.17/outbox.cif.g08.bks.cpg/sg15_118_cif.got.tgz:235568.got - 2010.06.03 18:47:42.
