data_PCOD9284837
_publ_section_title
;
Structure prediction by ZEFSAII (Michael W. Deem and Ramdas Pophale) SiO2 
 PCOD9284837
Probable space group: C 2/C
;
_chemical_formula_sum "Si O2"
_cell_formula_units_Z 52
_cell_length_a 19.012871
_cell_length_b 17.906668
_cell_length_c 9.401835
_cell_angle_alpha 90.000000
_cell_angle_beta 49.802562
_cell_angle_gamma 90.000000
_cell_volume 2444.943989
_symmetry_space_group_name_H-M "C 2/C"
_symmetry_group_IT_number 15
_symmetry_cell_setting 'monoclinic'
loop_
_space_group_symop_operation_xyz
x,y,z
-x,y,1/2-z
-x,-y,-z
x,-y,1/2+z
1/2+x,1/2+y,z
1/2-x,1/2+y,1/2-z
1/2-x,1/2-y,-z
1/2+x,1/2-y,1/2+z
loop_
_atom_site_type_symbol
_atom_site_label
_atom_site_fract_x
_atom_site_fract_y
_atom_site_fract_z
Si Si1 0.000000 0.954178 0.750000
Si Si2 0.000000 0.815331 0.250000
Si Si3 0.637938 0.956871 0.188798
Si Si4 0.807584 0.746518 0.569546
Si Si5 0.697548 0.074663 0.908877
Si Si6 0.411859 0.572180 0.649269
Si Si7 0.000000 0.351997 0.250000
Si Si8 0.798073 0.687692 0.037219
O O1 0.070570 0.918065 0.544058
O O2 0.054504 0.001036 0.800377
O O3 0.033197 0.863679 0.340876
O O4 0.911085 0.771094 0.411765
O O5 0.676368 0.969978 0.293732
O O6 0.542031 0.910059 0.311718
O O7 0.705207 0.896657 0.020782
O O8 0.636414 0.034526 0.107680
O O9 0.750000 0.750000 0.500000
O O10 0.816061 0.661293 0.608814
O O11 0.754693 0.800228 0.747425
O O12 0.803472 0.072061 0.814786
O O13 0.909748 0.304012 0.408197
O O14 0.750000 0.750000 0.000000
#
# Coordination Sequence:
#
# PCOD9284837 Si02
#       8
#     4   4   8   8   8   8   4   8
#     4   9  20  38  67  95 134 181 226 296 351 433
#     4  11  26  45  66 101 140 187 244 296 357 431
#     4  10  25  43  72 105 143 182 237 295 349 428
#     4  12  26  44  70 104 143 193 235 304 357 428
#     4  12  24  43  69 104 142 189 236 283 372 414
#     4  10  21  41  64  99 138 180 239 287 360 424
#     4   8  22  47  73 110 136 188 244 296 358 422
#     4  10  22  49  73 102 143 181 245 294 359 423
#
# _framework density 21.268381999999999
#
# number of rings (size 3 to 8) (size 9 to 14) (size 15 to 20)
#    0.923    0.615    3.077    0.923    2.154    8.615 
#    0.000    0.000    0.000    0.000    0.000    0.000 
#    0.000    0.000    0.000    0.000    0.000    0.000 
#
# Total GULP energy -144794.075371 kJ/mol
# GULP energy per Si atom -5569.002899 kJ/mol
# Density = 2.121997 g / cm^3
# Si number density = 21.268382 Si / 1000 Ang^3
#
#
#
# Elastic Constant Matrix: (Units=GPa)
#
#
# Indices 1 2 3 4 5 6 
#
# 1 112.6787 2.6528 36.6723 0.0000 -16.1252 0.0000
# 2 2.6528 25.9975 -2.1514 0.0000 -10.4689 0.0000
# 3 36.6723 -2.1514 92.1679 0.0000 -2.1691 0.0000
# 4 0.0000 0.0000 0.0000 18.7501 0.0000 15.2576
# 5 -16.1252 -10.4689 -2.1691 0.0000 49.9851 0.0000
# 6 0.0000 0.0000 0.0000 15.2576 0.0000 20.7884
#
#
#
# Elastic Compliance Matrix: (Units=1/GPa)
#
#
# Indices 1 2 3 4 5 6 
#
# 1 0.010704 -0.000132 -0.004186 0.000000 0.003244 0.000000
# 2 -0.000132 0.042140 0.001244 0.000000 0.008837 0.000000
# 3 -0.004186 0.001244 0.012531 0.000000 -0.000546 0.000000
# 4 0.000000 0.000000 0.000000 0.132419 0.000000 -0.097189
# 5 0.003244 0.008837 -0.000546 0.000000 0.022880 0.000000
# 6 0.000000 0.000000 0.000000 -0.097189 0.000000 0.119436
#
#
# Mechanical properties :
#
#
# Convention : Reuss Voigt Hill
#
# Bulk Modulus (GPa) = 16.88380 33.91017 25.39699
# Shear Modulus (GPa) = 13.66115 30.81607 22.23861
#
# Velocity S-wave (km/s) = 2.53716 3.81059 3.23711
# Velocity P-wave (km/s) = 4.06676 5.94469 5.09303
#
# Compressibility (1/GPa) = 0.05922836
#
# Stress axis : x y z
#
# Youngs Moduli (GPa) = 93.41876 23.73018 79.79905
#
# Poissons Ratio (x) = 0.00314 0.33403
# Poissons Ratio (y) = 0.01237 -0.09929
# Poissons Ratio (z) = 0.39104 -0.02953
#
# Static dielectric constant tensor:
#      x y z
#    x 1.892490 0.000000 -0.177350 
#    y 0.000000 1.834140 0.000000 
#    z -0.177350 0.000000 1.987910 
# 
# From -- ./inp_files/48969.got.cif
#   From: 2010.05.17/outbox.cif.g08.bks.cpg/sg15_25_cif.got.tgz:48969.got - 2010.06.03 18:47:42.
