data_PCOD9284152
_publ_section_title
;
Structure prediction by ZEFSAII (Michael W. Deem and Ramdas Pophale) SiO2 
 PCOD9284152
Probable space group: C 2/C
;
_chemical_formula_sum "Si O2"
_cell_formula_units_Z 56
_cell_length_a 11.883355
_cell_length_b 28.264668
_cell_length_c 11.722967
_cell_angle_alpha 90.000000
_cell_angle_beta 130.368700
_cell_angle_gamma 90.000000
_cell_volume 2999.950305
_symmetry_space_group_name_H-M "C 2/C"
_symmetry_group_IT_number 15
_symmetry_cell_setting 'monoclinic'
loop_
_space_group_symop_operation_xyz
x,y,z
-x,y,1/2-z
-x,-y,-z
x,-y,1/2+z
1/2+x,1/2+y,z
1/2-x,1/2+y,1/2-z
1/2-x,1/2-y,-z
1/2+x,1/2-y,1/2+z
loop_
_atom_site_type_symbol
_atom_site_label
_atom_site_fract_x
_atom_site_fract_y
_atom_site_fract_z
Si Si1 0.000000 0.464811 0.250000
Si Si2 0.073144 0.355111 0.681449
Si Si3 0.297656 0.077920 0.424766
Si Si4 0.080864 0.258318 0.921099
Si Si5 0.274466 0.505887 0.313431
Si Si6 0.500000 0.635237 0.250000
Si Si7 0.915721 0.167679 0.438905
Si Si8 0.006983 0.931004 0.392560
O O1 0.888525 0.495838 0.250548
O O2 0.102297 0.435281 0.402923
O O3 0.105596 0.391798 0.602125
O O4 0.236919 0.336074 0.820542
O O5 0.000000 0.374887 0.750000
O O6 0.969007 0.311122 0.576245
O O7 0.237430 0.033359 0.313585
O O8 0.148910 0.104860 0.363505
O O9 0.000000 0.249663 0.750000
O O10 0.250000 0.250000 0.000000
O O11 0.037154 0.217635 0.979763
O O12 0.363744 0.457501 0.350092
O O13 0.360283 0.538222 0.462841
O O14 0.471428 0.663403 0.346661
O O15 0.973700 0.122449 0.548862
O O16 0.000000 0.932446 0.250000
#
# Coordination Sequence:
#
# PCOD9284152 Si02
#       8
#     4   8   8   8   8   4   8   8
#     4  12  26  40  59 100 130 166 223 268 324 382
#     4  10  21  40  67  91 127 169 208 257 337 378
#     4  11  24  44  66  88 134 175 212 270 323 387
#     4  11  21  41  67  97 129 158 213 270 322 383
#     4  11  24  41  63  91 134 176 211 274 328 379
#     4  10  22  44  67  84 126 178 217 244 334 398
#     4  11  21  41  64  95 124 172 205 270 316 385
#     4  11  23  39  65  97 125 168 231 258 319 392
#
# _framework density 18.666975999999998
#
# number of rings (size 3 to 8) (size 9 to 14) (size 15 to 20)
#    0.000    1.143    5.714    2.571    4.000    1.143 
#    5.143    3.571    0.000    0.000    0.000    0.000 
#    0.000    0.000    0.000    0.000    0.000    0.000 
#
# Total GULP energy -156324.656071 kJ/mol
# GULP energy per Si atom -5583.023431 kJ/mol
# Density = 1.862449 g / cm^3
# Si number density = 18.666976 Si / 1000 Ang^3
#
#
#
# Elastic Constant Matrix: (Units=GPa)
#
#
# Indices 1 2 3 4 5 6 
#
# 1 104.8670 17.0349 10.8465 0.0000 5.1604 0.0000
# 2 17.0349 65.9997 12.6530 0.0000 3.5842 0.0000
# 3 10.8465 12.6530 81.7839 0.0000 -4.7138 0.0000
# 4 0.0000 0.0000 0.0000 -4.6657 0.0000 1.7845
# 5 5.1604 3.5842 -4.7138 0.0000 32.5116 0.0000
# 6 0.0000 0.0000 0.0000 1.7845 0.0000 23.3547
#
#
#
# Elastic Compliance Matrix: (Units=1/GPa)
#
#
# Indices 1 2 3 4 5 6 
#
# 1 0.010097 -0.002320 -0.001067 0.000000 -0.001502 0.000000
# 2 -0.002320 0.016290 -0.002314 0.000000 -0.001763 0.000000
# 3 -0.001067 -0.002314 0.012859 0.000000 0.002289 0.000000
# 4 0.000000 0.000000 0.000000 -0.208244 0.000000 0.015911
# 5 -0.001502 -0.001763 0.002289 0.000000 0.031523 0.000000
# 6 0.000000 0.000000 0.000000 0.015911 0.000000 0.041602
#
#
# Mechanical properties :
#
#
# Convention : Reuss Voigt Hill
#
# Bulk Modulus (GPa) = 35.91476 37.07996 36.49736
# Shear Modulus (GPa) = -66.49802 24.38119 -21.05842
#
# Velocity S-wave (km/s) = -5.97501 3.61794 -3.36238
# Velocity P-wave (km/s) = 5.32160 6.11226 2.12606
#
# Compressibility (1/GPa) = 0.02784371
#
# Stress axis : x y z
#
# Youngs Moduli (GPa) = 99.03943 61.38806 77.76797
#
# Poissons Ratio (x) = 0.14242 0.08296
# Poissons Ratio (y) = 0.22978 0.17997
# Poissons Ratio (z) = 0.10565 0.14206
#
# Static dielectric constant tensor:
#      x y z
#    x 1.619510 0.000000 0.015690 
#    y 0.000000 1.668750 0.000000 
#    z 0.015690 0.000000 1.614020 
# 
# From -- ./inp_files/92128.got.cif
#   From: 2010.05.17/outbox.cif.g08.bks.cpg/sg15_47_cif.got.tgz:92128.got - 2010.06.03 18:47:42.
