data_PCOD9284443
_publ_section_title
;
Structure prediction by ZEFSAII (Michael W. Deem and Ramdas Pophale) SiO2 
 PCOD9284443
Probable space group: C 2/C
;
_chemical_formula_sum "Si O2"
_cell_formula_units_Z 40
_cell_length_a 18.349472
_cell_length_b 15.637800
_cell_length_c 10.121889
_cell_angle_alpha 90.000000
_cell_angle_beta 145.849084
_cell_angle_gamma 90.000000
_cell_volume 1630.472878
_symmetry_space_group_name_H-M "C 2/C"
_symmetry_group_IT_number 15
_symmetry_cell_setting 'monoclinic'
loop_
_space_group_symop_operation_xyz
x,y,z
-x,y,1/2-z
-x,-y,-z
x,-y,1/2+z
1/2+x,1/2+y,z
1/2-x,1/2+y,1/2-z
1/2-x,1/2-y,-z
1/2+x,1/2-y,1/2+z
loop_
_atom_site_type_symbol
_atom_site_label
_atom_site_fract_x
_atom_site_fract_y
_atom_site_fract_z
Si Si1 0.729855 0.884832 0.824561
Si Si2 0.011276 0.719005 0.116212
Si Si3 0.633574 0.490249 0.278546
Si Si4 0.827739 0.176255 0.189200
Si Si5 0.617149 0.957350 0.028314
O O1 0.652166 0.817563 0.795374
O O2 0.760826 0.846107 0.728955
O O3 0.635036 0.966457 0.659371
O O4 0.854109 0.923807 0.084158
O O5 0.000000 0.749199 0.250000
O O6 0.967118 0.787024 0.941931
O O7 0.914328 0.636708 0.964199
O O8 0.664186 0.586555 0.374073
O O9 0.748370 0.461235 0.351696
O O10 0.500000 0.500000 0.000000
O O11 0.750000 0.250000 0.000000
O O12 0.500000 0.976343 0.750000
#
# Coordination Sequence:
#
# PCOD9284443 Si02
#       5
#     8   8   8   8   8
#     4  11  24  44  76 100 152 198 252 308 378 454
#     4  11  23  42  74 108 145 192 255 308 382 445
#     4  11  25  46  72 106 150 204 250 305 381 461
#     4  11  28  45  70 113 152 185 254 319 384 445
#     4  10  21  40  72 106 139 192 258 297 361 460
#
# _framework density 24.53276
#
# number of rings (size 3 to 8) (size 9 to 14) (size 15 to 20)
#    0.000    1.200    4.000    1.800    8.400    4.800 
#    0.000    4.000    0.000    0.000    0.000    0.000 
#    0.000    0.000    0.000    0.000    0.000    0.000 
#
# Total GULP energy -112046.946070 kJ/mol
# GULP energy per Si atom -5602.347303 kJ/mol
# Density = 2.447692 g / cm^3
# Si number density = 24.532760 Si / 1000 Ang^3
#
#
#
# Elastic Constant Matrix: (Units=GPa)
#
#
# Indices 1 2 3 4 5 6 
#
# 1 73.3081 40.3503 41.8936 0.0000 -4.3182 0.0000
# 2 40.3503 137.9009 46.0727 0.0000 -2.4555 0.0000
# 3 41.8936 46.0727 139.1997 0.0000 4.2511 0.0000
# 4 0.0000 0.0000 0.0000 60.4622 0.0000 -13.4450
# 5 -4.3182 -2.4555 4.2511 0.0000 35.6868 0.0000
# 6 0.0000 0.0000 0.0000 -13.4450 0.0000 39.4179
#
#
#
# Elastic Compliance Matrix: (Units=1/GPa)
#
#
# Indices 1 2 3 4 5 6 
#
# 1 0.018402 -0.003896 -0.004325 0.000000 0.002474 0.000000
# 2 -0.003896 0.009006 -0.001819 0.000000 0.000365 0.000000
# 3 -0.004325 -0.001819 0.009141 0.000000 -0.001737 0.000000
# 4 0.000000 0.000000 0.000000 0.017897 0.000000 0.006104
# 5 0.002474 0.000365 -0.001737 0.000000 0.028553 0.000000
# 6 0.000000 0.000000 0.000000 0.006104 0.000000 0.027451
#
#
# Mechanical properties :
#
#
# Convention : Reuss Voigt Hill
#
# Bulk Modulus (GPa) = 60.71818 67.44909 64.08364
# Shear Modulus (GPa) = 36.75949 41.91952 39.33951
#
# Velocity S-wave (km/s) = 3.87510 4.13815 4.00878
# Velocity P-wave (km/s) = 6.69518 7.09827 6.89967
#
# Compressibility (1/GPa) = 0.01646953
#
# Stress axis : x y z
#
# Youngs Moduli (GPa) = 54.34065 111.03865 109.40069
#
# Poissons Ratio (x) = 0.43258 0.47311
# Poissons Ratio (y) = 0.21170 0.19905
# Poissons Ratio (z) = 0.23500 0.20203
#
# Static dielectric constant tensor:
#      x y z
#    x 1.958450 0.000000 -0.003210 
#    y 0.000000 1.966870 0.000000 
#    z -0.003210 0.000000 1.976590 
# 
# From -- ./inp_files/113741.got.cif
#   From: 2010.05.17/outbox.cif.g08.bks.cpg/sg15_57_cif.got.tgz:113741.got - 2010.06.03 18:47:42.
