data_PCOD9284042
_publ_section_title
;
Structure prediction by ZEFSAII (Michael W. Deem and Ramdas Pophale) SiO2 
 PCOD9284042
Probable space group: C 2/C
;
_chemical_formula_sum "Si O2"
_cell_formula_units_Z 48
_cell_length_a 8.264313
_cell_length_b 27.130137
_cell_length_c 14.597663
_cell_angle_alpha 90.000000
_cell_angle_beta 37.215291
_cell_angle_gamma 90.000000
_cell_volume 1979.530692
_symmetry_space_group_name_H-M "C 2/C"
_symmetry_group_IT_number 15
_symmetry_cell_setting 'monoclinic'
loop_
_space_group_symop_operation_xyz
x,y,z
-x,y,1/2-z
-x,-y,-z
x,-y,1/2+z
1/2+x,1/2+y,z
1/2-x,1/2+y,1/2-z
1/2-x,1/2-y,-z
1/2+x,1/2-y,1/2+z
loop_
_atom_site_type_symbol
_atom_site_label
_atom_site_fract_x
_atom_site_fract_y
_atom_site_fract_z
Si Si1 0.217933 0.802839 0.331061
Si Si2 0.455282 0.359705 0.914607
Si Si3 0.036043 0.703504 0.343550
Si Si4 0.388971 0.142968 0.572253
Si Si5 0.435782 0.470594 0.938682
Si Si6 0.352225 0.033572 0.640409
O O1 0.500000 0.786812 0.250000
O O2 0.037886 0.754671 0.398213
O O3 0.259047 0.824773 0.211473
O O4 0.118796 0.843133 0.448696
O O5 0.670588 0.320681 0.784499
O O6 0.557042 0.415881 0.871578
O O7 0.200119 0.357844 0.963331
O O8 0.860858 0.665695 0.483759
O O9 0.000000 0.708567 0.250000
O O10 0.294933 0.087053 0.624959
O O11 0.595758 0.505514 0.795408
O O12 0.500000 0.500000 0.000000
O O13 0.114347 0.460886 0.087750
O O14 0.500000 0.000000 0.500000
#
# Coordination Sequence:
#
# PCOD9284042 Si02
#       6
#     8   8   8   8   8   8
#     4  10  21  40  66  92 120 164 218 266 322 396
#     4  10  22  41  65  92 124 170 217 263 322 401
#     4  12  25  39  60  93 130 167 213 273 336 391
#     4  10  22  42  65  89 124 170 222 269 319 395
#     4  11  23  41  67  98 133 169 217 274 332 397
#     4  11  23  41  65  96 132 174 219 268 327 394
#
# _framework density 24.248172
#
# number of rings (size 3 to 8) (size 9 to 14) (size 15 to 20)
#    0.000    1.333    0.000    5.500    0.000   13.333 
#    0.000    3.333    0.000    0.000    0.000    0.000 
#    0.000    0.000    0.000    0.000    0.000    0.000 
#
# Total GULP energy -134200.896006 kJ/mol
# GULP energy per Si atom -5591.704000 kJ/mol
# Density = 2.419298 g / cm^3
# Si number density = 24.248172 Si / 1000 Ang^3
#
#
#
# Elastic Constant Matrix: (Units=GPa)
#
#
# Indices 1 2 3 4 5 6 
#
# 1 92.1330 47.0981 44.2900 0.0000 17.7523 0.0000
# 2 47.0981 165.8750 32.0956 0.0000 13.1576 0.0000
# 3 44.2900 32.0956 103.9500 0.0000 20.8363 0.0000
# 4 0.0000 0.0000 0.0000 43.3918 0.0000 2.0534
# 5 17.7523 13.1576 20.8363 0.0000 55.0428 0.0000
# 6 0.0000 0.0000 0.0000 2.0534 0.0000 32.8696
#
#
#
# Elastic Compliance Matrix: (Units=1/GPa)
#
#
# Indices 1 2 3 4 5 6 
#
# 1 0.015383 -0.003199 -0.005113 0.000000 -0.002261 0.000000
# 2 -0.003199 0.007114 -0.000757 0.000000 -0.000382 0.000000
# 3 -0.005113 -0.000757 0.012623 0.000000 -0.002948 0.000000
# 4 0.000000 0.000000 0.000000 0.023114 0.000000 -0.001444
# 5 -0.002261 -0.000382 -0.002948 0.000000 0.020104 0.000000
# 6 0.000000 0.000000 0.000000 -0.001444 0.000000 0.030513
#
#
# Mechanical properties :
#
#
# Convention : Reuss Voigt Hill
#
# Bulk Modulus (GPa) = 58.88686 67.65836 63.27261
# Shear Modulus (GPa) = 37.69297 42.15912 39.92604
#
# Velocity S-wave (km/s) = 3.94695 4.17424 4.06218
# Velocity P-wave (km/s) = 6.71632 7.15509 6.93918
#
# Compressibility (1/GPa) = 0.01698172
#
# Stress axis : x y z
#
# Youngs Moduli (GPa) = 65.00725 140.57336 79.21857
#
# Poissons Ratio (x) = 0.44970 0.40507
# Poissons Ratio (y) = 0.20796 0.05995
# Poissons Ratio (z) = 0.33240 0.10638
#
# Static dielectric constant tensor:
#      x y z
#    x 2.225950 0.000000 -0.174180 
#    y 0.000000 1.793900 0.000000 
#    z -0.174180 0.000000 2.026020 
# 
# From -- ./inp_files/138881.got.cif
#   From: 2010.05.17/outbox.cif.g08.bks.cpg/sg15_70_cif.got.tgz:138881.got - 2010.06.03 18:47:42.
