data_PCOD9284343
_publ_section_title
;
Structure prediction by ZEFSAII (Michael W. Deem and Ramdas Pophale) SiO2 
 PCOD9284343
Probable space group: C 2/C
;
_chemical_formula_sum "Si O2"
_cell_formula_units_Z 44
_cell_length_a 8.179352
_cell_length_b 17.427240
_cell_length_c 20.004547
_cell_angle_alpha 90.000000
_cell_angle_beta 127.550613
_cell_angle_gamma 90.000000
_cell_volume 2260.727619
_symmetry_space_group_name_H-M "C 2/C"
_symmetry_group_IT_number 15
_symmetry_cell_setting 'monoclinic'
loop_
_space_group_symop_operation_xyz
x,y,z
-x,y,1/2-z
-x,-y,-z
x,-y,1/2+z
1/2+x,1/2+y,z
1/2-x,1/2+y,1/2-z
1/2-x,1/2-y,-z
1/2+x,1/2-y,1/2+z
loop_
_atom_site_type_symbol
_atom_site_label
_atom_site_fract_x
_atom_site_fract_y
_atom_site_fract_z
Si Si1 0.500000 0.189438 0.750000
Si Si2 0.989951 0.635737 0.600544
Si Si3 0.440280 0.558212 0.044714
Si Si4 0.599703 0.442045 0.345708
Si Si5 0.455137 0.715710 0.874677
Si Si6 0.138530 0.790091 0.570217
O O1 0.505202 0.138713 0.684320
O O2 0.714942 0.235979 0.807799
O O3 0.771231 0.602135 0.525210
O O4 0.167765 0.585083 0.611058
O O5 0.032238 0.722707 0.586396
O O6 0.413853 0.509993 0.105121
O O7 0.606631 0.625943 0.091704
O O8 0.500000 0.500000 0.000000
O O9 0.500000 0.461215 0.250000
O O10 0.485979 0.368006 0.349406
O O11 0.621196 0.769861 0.879892
O O12 0.528982 0.711582 0.969937
#
# Coordination Sequence:
#
# PCOD9284343 Si02
#       6
#     4   8   8   8   8   8
#     4  12  20  38  68 100 126 174 230 270 330 384
#     4  11  24  40  70  94 131 175 228 267 324 400
#     4  12  23  42  67  98 130 175 214 275 335 394
#     4  11  22  42  67  98 132 174 222 272 334 397
#     4  10  21  40  69  94 125 173 222 271 317 406
#     4  10  22  42  65  96 127 169 226 267 325 395
#
# _framework density 19.462761
#
# number of rings (size 3 to 8) (size 9 to 14) (size 15 to 20)
#    0.000    1.091    5.455    1.091    0.000    0.000 
#    1.636    0.000    4.000    0.000    0.000    0.000 
#    0.000    0.000    0.000    0.000    0.000    0.000 
#
# Total GULP energy -122961.705099 kJ/mol
# GULP energy per Si atom -5589.168414 kJ/mol
# Density = 1.941846 g / cm^3
# Si number density = 19.462761 Si / 1000 Ang^3
#
#
#
# Elastic Constant Matrix: (Units=GPa)
#
#
# Indices 1 2 3 4 5 6 
#
# 1 132.6308 76.8716 53.0527 0.0000 8.5733 0.0000
# 2 76.8716 133.6780 44.5010 0.0000 -11.0767 0.0000
# 3 53.0527 44.5010 92.3100 0.0001 -10.3645 0.0002
# 4 0.0000 0.0000 0.0001 9.7839 0.0000 -26.4454
# 5 8.5733 -11.0767 -10.3645 0.0000 55.3118 0.0001
# 6 0.0000 0.0000 0.0002 -26.4454 0.0001 -2.0013
#
#
#
# Elastic Compliance Matrix: (Units=1/GPa)
#
#
# Indices 1 2 3 4 5 6 
#
# 1 0.013675 -0.006489 -0.005225 0.000000 -0.004398 0.000000
# 2 -0.006489 0.012044 -0.001730 0.000000 0.003094 0.000000
# 3 -0.005225 -0.001730 0.015038 0.000000 0.003281 0.000000
# 4 0.000000 0.000000 0.000000 0.002784 0.000000 -0.036784
# 5 -0.004398 0.003094 0.003281 0.000000 0.019995 0.000000
# 6 0.000000 0.000000 0.000000 -0.036784 0.000000 -0.013609
#
#
# Mechanical properties :
#
#
# Convention : Reuss Voigt Hill
#
# Bulk Modulus (GPa) = 72.09570 78.60771 75.35170
# Shear Modulus (GPa) = 61.39651 24.89847 43.14749
#
# Velocity S-wave (km/s) = 5.62264 3.58059 4.71353
# Velocity P-wave (km/s) = 8.90368 7.58753 8.27182
#
# Compressibility (1/GPa) = 0.01387045
#
# Stress axis : x y z
#
# Youngs Moduli (GPa) = 73.12683 83.02761 66.49714
#
# Poissons Ratio (x) = 0.53875 0.34744
# Poissons Ratio (y) = 0.47451 0.11502
# Poissons Ratio (z) = 0.38208 0.14361
#
# Static dielectric constant tensor:
#      x y z
#    x 1.718390 0.000000 0.011590 
#    y 0.000000 1.652720 0.000000 
#    z 0.011590 0.000000 1.673080 
# 
# From -- ./inp_files/134364.got.cif
#   From: 2010.05.17/outbox.cif.g08.bks.cpg/sg15_68_cif.got.tgz:134364.got - 2010.06.03 18:47:42.
