data_PCOD9284306
_publ_section_title
;
Structure prediction by ZEFSAII (Michael W. Deem and Ramdas Pophale) SiO2 
 PCOD9284306
Probable space group: C 2/C
;
_chemical_formula_sum "Si O2"
_cell_formula_units_Z 64
_cell_length_a 12.294650
_cell_length_b 30.891171
_cell_length_c 14.546010
_cell_angle_alpha 90.000000
_cell_angle_beta 36.224541
_cell_angle_gamma 90.000000
_cell_volume 3264.721055
_symmetry_space_group_name_H-M "C 2/C"
_symmetry_group_IT_number 15
_symmetry_cell_setting 'monoclinic'
loop_
_space_group_symop_operation_xyz
x,y,z
-x,y,1/2-z
-x,-y,-z
x,-y,1/2+z
1/2+x,1/2+y,z
1/2-x,1/2+y,1/2-z
1/2-x,1/2-y,-z
1/2+x,1/2-y,1/2+z
loop_
_atom_site_type_symbol
_atom_site_label
_atom_site_fract_x
_atom_site_fract_y
_atom_site_fract_z
Si Si1 0.054978 0.755465 0.945105
Si Si2 0.130129 0.393718 0.248989
Si Si3 0.818536 0.699329 0.808706
Si Si4 0.931329 0.696781 0.192026
Si Si5 0.697232 0.535212 0.277643
Si Si6 0.503608 0.894548 0.543703
Si Si7 0.776333 0.030426 0.896082
Si Si8 0.795162 0.021460 0.555345
O O1 0.859801 0.773301 0.041353
O O2 0.024410 0.734203 0.065915
O O3 0.120106 0.718283 0.831150
O O4 0.213712 0.791766 0.838716
O O5 0.248694 0.350121 0.158942
O O6 0.215183 0.440381 0.171647
O O7 0.000000 0.389588 0.250000
O O8 0.034604 0.390671 0.413012
O O9 0.000000 0.702309 0.750000
O O10 0.979060 0.651087 0.111189
O O11 0.000000 0.697230 0.250000
O O12 0.823434 0.576421 0.182291
O O13 0.768181 0.495980 0.165943
O O14 0.487726 0.541003 0.388729
O O15 0.681896 0.519242 0.392739
O O16 0.673235 0.923797 0.465673
O O17 0.000000 0.035841 0.750000
O O18 0.703188 0.999277 0.028155
#
# Coordination Sequence:
#
# PCOD9284306 Si02
#       8
#     8   8   8   8   8   8   8   8
#     4  10  22  45  70  91 132 170 208 265 331 381
#     4  11  23  39  63  93 126 162 210 259 319 375
#     4  10  21  40  68  99 127 164 210 261 322 395
#     4  11  25  44  66  99 127 171 218 265 321 390
#     4  10  22  38  59  83 124 164 213 259 304 372
#     4  12  24  41  63  96 127 163 218 268 310 380
#     4  10  22  41  60  90 126 172 217 262 317 372
#     4  10  22  38  60  86 121 169 208 255 318 367
#
# _framework density 19.603513
#
# number of rings (size 3 to 8) (size 9 to 14) (size 15 to 20)
#    0.000    1.500    2.500    1.875    5.250    0.000 
#    2.250    0.625    0.000    0.000    0.000    0.000 
#    0.000    0.000    0.000    0.000    0.000    0.000 
#
# Total GULP energy -178399.097678 kJ/mol
# GULP energy per Si atom -5574.971802 kJ/mol
# Density = 1.955889 g / cm^3
# Si number density = 19.603513 Si / 1000 Ang^3
#
#
#
# Elastic Constant Matrix: (Units=GPa)
#
#
# Indices 1 2 3 4 5 6 
#
# 1 84.6230 26.1994 34.6771 0.0000 14.2046 0.0000
# 2 26.1994 92.6524 34.5003 0.0000 7.4660 0.0000
# 3 34.6771 34.5003 78.8097 0.0000 9.9782 0.0000
# 4 0.0000 0.0000 0.0000 20.5107 0.0000 11.8690
# 5 14.2046 7.4660 9.9782 0.0000 24.0193 0.0000
# 6 0.0000 0.0000 0.0000 11.8690 0.0000 21.5045
#
#
#
# Elastic Compliance Matrix: (Units=1/GPa)
#
#
# Indices 1 2 3 4 5 6 
#
# 1 0.015645 -0.001964 -0.005204 0.000000 -0.006480 0.000000
# 2 -0.001964 0.013212 -0.004799 0.000000 -0.000951 0.000000
# 3 -0.005204 -0.004799 0.017417 0.000000 -0.002666 0.000000
# 4 0.000000 0.000000 0.000000 0.071634 0.000000 -0.039537
# 5 -0.006480 -0.000951 -0.002666 0.000000 0.046869 0.000000
# 6 0.000000 0.000000 0.000000 -0.039537 0.000000 0.068324
#
#
# Mechanical properties :
#
#
# Convention : Reuss Voigt Hill
#
# Bulk Modulus (GPa) = 44.76213 49.64874 47.20543
# Shear Modulus (GPa) = 18.90484 23.92079 21.41282
#
# Velocity S-wave (km/s) = 3.10878 3.49697 3.30857
# Velocity P-wave (km/s) = 5.98075 6.45651 6.22318
#
# Compressibility (1/GPa) = 0.02234031
#
# Stress axis : x y z
#
# Youngs Moduli (GPa) = 63.91646 75.68808 57.41517
#
# Poissons Ratio (x) = 0.14867 0.29878
# Poissons Ratio (y) = 0.12554 0.27554
# Poissons Ratio (z) = 0.33261 0.36323
#
# Static dielectric constant tensor:
#      x y z
#    x 2.136040 0.000000 -0.085440 
#    y 0.000000 1.727270 0.000000 
#    z -0.085440 0.000000 1.722660 
# 
# From -- ./inp_files/148747.got.cif
#   From: 2010.05.17/outbox.cif.g08.bks.cpg/sg15_75_cif.got.tgz:148747.got - 2010.06.03 18:47:42.
