data_PCOD9284288
_publ_section_title
;
Structure prediction by ZEFSAII (Michael W. Deem and Ramdas Pophale) SiO2 
 PCOD9284288
Probable space group: C 2/C
;
_chemical_formula_sum "Si O2"
_cell_formula_units_Z 56
_cell_length_a 5.293009
_cell_length_b 31.014857
_cell_length_c 14.185506
_cell_angle_alpha 90.000000
_cell_angle_beta 100.929644
_cell_angle_gamma 90.000000
_cell_volume 2286.478621
_symmetry_space_group_name_H-M "C 2/C"
_symmetry_group_IT_number 15
_symmetry_cell_setting 'monoclinic'
loop_
_space_group_symop_operation_xyz
x,y,z
-x,y,1/2-z
-x,-y,-z
x,-y,1/2+z
1/2+x,1/2+y,z
1/2-x,1/2+y,1/2-z
1/2-x,1/2-y,-z
1/2+x,1/2-y,1/2+z
loop_
_atom_site_type_symbol
_atom_site_label
_atom_site_fract_x
_atom_site_fract_y
_atom_site_fract_z
Si Si1 0.839067 0.680212 0.642480
Si Si2 0.185559 0.775856 0.856750
Si Si3 0.500000 0.996504 0.250000
Si Si4 0.565183 0.361543 0.614758
Si Si5 0.734245 0.961593 0.081254
Si Si6 0.500000 0.179612 0.250000
Si Si7 0.603110 0.543199 0.113753
Si Si8 0.194581 0.133788 0.913395
O O1 0.829878 0.728785 0.600511
O O2 0.550097 0.662504 0.635641
O O3 0.000000 0.684256 0.750000
O O4 0.023741 0.647469 0.600869
O O5 0.463665 0.787795 0.834339
O O6 0.000000 0.774727 0.750000
O O7 0.112928 0.819543 0.904907
O O8 0.538484 0.969342 0.155433
O O9 0.265808 0.028490 0.214460
O O10 0.468840 0.410394 0.614597
O O11 0.710652 0.361548 0.526355
O O12 0.761021 0.351181 0.713148
O O13 0.864151 0.915897 0.116405
O O14 0.702584 0.955471 0.964720
O O15 0.902642 0.004609 0.089821
#
# Coordination Sequence:
#
# PCOD9284288 Si02
#       8
#     8   8   4   8   8   4   8   8
#     4  11  26  45  71  98 138 184 234 282 349 405
#     4   9  22  40  65  96 136 178 227 288 339 410
#     4  12  23  38  70 100 128 180 232 276 341 420
#     4  10  23  43  67 100 136 178 229 283 350 409
#     4  10  25  45  64  97 140 175 224 290 342 410
#     4  10  21  40  68  96 138 180 226 284 347 412
#     4  10  23  44  65  96 137 177 224 283 352 408
#     4  11  27  45  71 104 137 183 231 288 339 413
#
# _framework density 24.491809
#
# number of rings (size 3 to 8) (size 9 to 14) (size 15 to 20)
#    0.000    1.714    0.000    1.714   11.000    6.857 
#    5.143    0.000    0.000    0.000    0.000    0.000 
#    0.000    0.000    0.000    0.000    0.000    0.000 
#
# Total GULP energy -156112.713561 kJ/mol
# GULP energy per Si atom -5575.454056 kJ/mol
# Density = 2.443606 g / cm^3
# Si number density = 24.491809 Si / 1000 Ang^3
#
#
#
# Elastic Constant Matrix: (Units=GPa)
#
#
# Indices 1 2 3 4 5 6 
#
# 1 59.5484 34.5208 1.9479 0.0000 -6.4543 0.0000
# 2 34.5208 194.6681 24.8171 0.0000 -2.0717 0.0000
# 3 1.9479 24.8171 57.9820 0.0000 -14.3118 0.0000
# 4 0.0000 0.0000 0.0000 32.4880 0.0000 -4.6428
# 5 -6.4543 -2.0717 -14.3118 0.0000 43.0780 0.0000
# 6 0.0000 0.0000 0.0000 -4.6428 0.0000 29.3455
#
#
#
# Elastic Compliance Matrix: (Units=1/GPa)
#
#
# Indices 1 2 3 4 5 6 
#
# 1 0.019167 -0.003580 0.001694 0.000000 0.003262 0.000000
# 2 -0.003580 0.006114 -0.002785 0.000000 -0.001168 0.000000
# 3 0.001694 -0.002785 0.020056 0.000000 0.006783 0.000000
# 4 0.000000 0.000000 0.000000 0.031493 0.000000 0.004982
# 5 0.003262 -0.001168 0.006783 0.000000 0.025900 0.000000
# 6 0.000000 0.000000 0.000000 0.004982 0.000000 0.034865
#
#
# Mechanical properties :
#
#
# Convention : Reuss Voigt Hill
#
# Bulk Modulus (GPa) = 27.78211 48.30778 38.04494
# Shear Modulus (GPa) = 31.45927 37.70980 34.58454
#
# Velocity S-wave (km/s) = 3.58785 3.92815 3.76185
# Velocity P-wave (km/s) = 5.34150 6.35143 5.86823
#
# Compressibility (1/GPa) = 0.03599439
#
# Stress axis : x y z
#
# Youngs Moduli (GPa) = 52.17406 163.54780 49.86004
#
# Poissons Ratio (x) = 0.58551 -0.08444
# Poissons Ratio (y) = 0.18679 0.13886
# Poissons Ratio (z) = -0.08836 0.45548
#
# Static dielectric constant tensor:
#      x y z
#    x 1.962130 0.000000 -0.045130 
#    y 0.000000 1.932170 0.000000 
#    z -0.045130 0.000000 2.037800 
# 
# From -- ./inp_files/130811.got.cif
#   From: 2010.05.17/outbox.cif.g08.bks.cpg/sg15_66_cif.got.tgz:130811.got - 2010.06.03 18:47:42.
