data_PCOD9284254
_publ_section_title
;
Structure prediction by ZEFSAII (Michael W. Deem and Ramdas Pophale) SiO2 
 PCOD9284254
Probable space group: C 2/C
;
_chemical_formula_sum "Si O2"
_cell_formula_units_Z 44
_cell_length_a 12.022318
_cell_length_b 32.164820
_cell_length_c 12.020033
_cell_angle_alpha 90.000000
_cell_angle_beta 155.877511
_cell_angle_gamma 90.000000
_cell_volume 1899.624012
_symmetry_space_group_name_H-M "C 2/C"
_symmetry_group_IT_number 15
_symmetry_cell_setting 'monoclinic'
loop_
_space_group_symop_operation_xyz
x,y,z
-x,y,1/2-z
-x,-y,-z
x,-y,1/2+z
1/2+x,1/2+y,z
1/2-x,1/2+y,1/2-z
1/2-x,1/2-y,-z
1/2+x,1/2-y,1/2+z
loop_
_atom_site_type_symbol
_atom_site_label
_atom_site_fract_x
_atom_site_fract_y
_atom_site_fract_z
Si Si1 0.891772 0.618712 0.349352
Si Si2 0.676355 0.636604 0.571363
Si Si3 0.256692 0.470754 0.738597
Si Si4 0.273640 0.694722 0.449744
Si Si5 0.968073 0.774617 0.545747
Si Si6 0.500000 0.573699 0.250000
O O1 0.823969 0.570455 0.263628
O O2 0.853467 0.652023 0.217031
O O3 0.165181 0.624557 0.671104
O O4 0.646728 0.632344 0.205349
O O5 0.696604 0.685000 0.564300
O O6 0.713045 0.603130 0.509245
O O7 0.344236 0.453602 0.698286
O O8 0.000000 0.500000 0.500000
O O9 0.500000 0.500000 0.000000
O O10 0.435458 0.716386 0.494744
O O11 0.000000 0.716764 0.250000
O O12 0.500000 0.686470 0.750000
O O13 0.254944 0.762897 0.861208
#
# Coordination Sequence:
#
# PCOD9284254 Si02
#       6
#     8   8   8   8   8   4
#     4  10  21  41  62  86 129 171 221 269 322 402
#     4  10  21  40  68  90 121 179 221 260 329 405
#     4  11  24  43  68 101 137 167 217 283 348 393
#     4  11  22  37  59  87 123 175 231 266 335 416
#     4  11  22  38  59  90 132 167 218 294 344 373
#     4  10  24  46  74  98 134 184 230 262 336 442
#
# _framework density 23.162478
#
# number of rings (size 3 to 8) (size 9 to 14) (size 15 to 20)
#    0.000    1.455    0.000    7.636    0.000    8.727 
#    4.909    0.909    0.000    0.000    0.000    0.000 
#    0.000    0.000    0.000    0.000    0.000    0.000 
#
# Total GULP energy -122861.219029 kJ/mol
# GULP energy per Si atom -5584.600865 kJ/mol
# Density = 2.310976 g / cm^3
# Si number density = 23.162478 Si / 1000 Ang^3
#
#
#
# Elastic Constant Matrix: (Units=GPa)
#
#
# Indices 1 2 3 4 5 6 
#
# 1 86.3071 31.8307 43.5749 0.0000 -3.9649 0.0000
# 2 31.8307 147.4184 51.4339 0.0000 -4.4555 0.0000
# 3 43.5749 51.4339 128.3633 0.0000 3.9408 0.0000
# 4 0.0000 0.0000 0.0000 27.6212 0.0000 -14.8534
# 5 -3.9649 -4.4555 3.9408 0.0000 28.9140 0.0000
# 6 0.0000 0.0000 0.0000 -14.8534 0.0000 29.9902
#
#
#
# Elastic Compliance Matrix: (Units=1/GPa)
#
#
# Indices 1 2 3 4 5 6 
#
# 1 0.014464 -0.001528 -0.004370 0.000000 0.002344 0.000000
# 2 -0.001528 0.008127 -0.002781 0.000000 0.001422 0.000000
# 3 -0.004370 -0.002781 0.010464 0.000000 -0.002454 0.000000
# 4 0.000000 0.000000 0.000000 0.049347 0.000000 0.024441
# 5 0.002344 0.001422 -0.002454 0.000000 0.035460 0.000000
# 6 0.000000 0.000000 0.000000 0.024441 0.000000 0.045449
#
#
# Mechanical properties :
#
#
# Convention : Reuss Voigt Hill
#
# Bulk Modulus (GPa) = 63.70839 68.41863 66.06351
# Shear Modulus (GPa) = 26.89615 32.98836 29.94226
#
# Velocity S-wave (km/s) = 3.41133 3.77797 3.59932
# Velocity P-wave (km/s) = 6.56361 6.97377 6.77179
#
# Compressibility (1/GPa) = 0.01569652
#
# Stress axis : x y z
#
# Youngs Moduli (GPa) = 69.13801 123.05228 95.56947
#
# Poissons Ratio (x) = 0.18797 0.41762
# Poissons Ratio (y) = 0.10561 0.26581
# Poissons Ratio (z) = 0.30212 0.34225
#
# Static dielectric constant tensor:
#      x y z
#    x 1.744300 0.000000 -0.205900 
#    y 0.000000 1.995740 0.000000 
#    z -0.205900 0.000000 1.628650 
# 
# From -- ./inp_files/157573.got.cif
#   From: 2010.05.17/outbox.cif.g08.bks.cpg/sg15_79_cif.got.tgz:157573.got - 2010.06.03 18:47:42.
