data_PCOD9284554
_publ_section_title
;
Structure prediction by ZEFSAII (Michael W. Deem and Ramdas Pophale) SiO2 
 PCOD9284554
Probable space group: C 2/C
;
_chemical_formula_sum "Si O2"
_cell_formula_units_Z 48
_cell_length_a 12.309119
_cell_length_b 13.825397
_cell_length_c 22.675796
_cell_angle_alpha 90.000000
_cell_angle_beta 39.132314
_cell_angle_gamma 90.000000
_cell_volume 2435.423624
_symmetry_space_group_name_H-M "C 2/C"
_symmetry_group_IT_number 15
_symmetry_cell_setting 'monoclinic'
loop_
_space_group_symop_operation_xyz
x,y,z
-x,y,1/2-z
-x,-y,-z
x,-y,1/2+z
1/2+x,1/2+y,z
1/2-x,1/2+y,1/2-z
1/2-x,1/2-y,-z
1/2+x,1/2-y,1/2+z
loop_
_atom_site_type_symbol
_atom_site_label
_atom_site_fract_x
_atom_site_fract_y
_atom_site_fract_z
Si Si1 0.262814 0.120487 0.256712
Si Si2 0.144119 0.877373 0.592420
Si Si3 0.642286 0.334271 0.241493
Si Si4 0.724258 0.082379 0.703843
Si Si5 0.838972 0.347503 0.393807
Si Si6 0.667701 0.990352 0.890169
O O1 0.319116 0.223781 0.257647
O O2 0.340756 0.084858 0.160994
O O3 0.057186 0.121554 0.336262
O O4 0.304695 0.031935 0.282074
O O5 0.186885 0.767546 0.592964
O O6 0.259571 0.894987 0.485772
O O7 0.186623 0.950163 0.627152
O O8 0.500000 0.336193 0.250000
O O9 0.627690 0.386538 0.311997
O O10 0.789570 0.403283 0.152170
O O11 0.756104 0.115175 0.624327
O O12 0.542610 0.131083 0.800280
O O13 0.500000 0.000000 0.000000
#
# Coordination Sequence:
#
# PCOD9284554 Si02
#       6
#     8   8   8   8   8   8
#     4  11  23  39  66  91 130 169 215 264 331 384
#     4  11  21  39  66  97 121 170 211 274 317 389
#     4  11  23  42  62  95 132 171 216 263 330 397
#     4  10  21  41  61  92 122 169 208 268 320 380
#     4  10  22  37  69  94 126 153 229 267 317 380
#     4  11  24  42  69  97 132 171 222 270 328 393
#
# _framework density 19.709095999999999
#
# number of rings (size 3 to 8) (size 9 to 14) (size 15 to 20)
#    0.000    1.333    1.667    5.500    7.000    0.667 
#    0.000    0.833    0.000    0.000    0.000    0.000 
#    0.000    0.000    0.000    0.000    0.000    0.000 
#
# Total GULP energy -133924.186225 kJ/mol
# GULP energy per Si atom -5580.174426 kJ/mol
# Density = 1.966424 g / cm^3
# Si number density = 19.709096 Si / 1000 Ang^3
#
#
#
# Elastic Constant Matrix: (Units=GPa)
#
#
# Indices 1 2 3 4 5 6 
#
# 1 107.6204 42.2735 26.0258 0.0000 23.1327 0.0000
# 2 42.2735 132.4138 43.4361 0.0001 25.8078 0.0000
# 3 26.0258 43.4361 80.0119 0.0001 26.3625 0.0000
# 4 0.0000 0.0001 0.0001 23.8772 0.0000 3.4931
# 5 23.1327 25.8078 26.3625 0.0000 28.7791 0.0000
# 6 0.0000 0.0000 0.0000 3.4931 0.0000 27.1429
#
#
#
# Elastic Compliance Matrix: (Units=1/GPa)
#
#
# Indices 1 2 3 4 5 6 
#
# 1 0.011797 -0.002286 -0.000211 0.000000 -0.007239 0.000000
# 2 -0.002286 0.010222 -0.003424 0.000000 -0.004192 0.000000
# 3 -0.000211 -0.003424 0.019133 0.000000 -0.014286 0.000000
# 4 0.000000 0.000000 0.000000 0.042685 0.000000 -0.005493
# 5 -0.007239 -0.004192 -0.014286 0.000000 0.057412 0.000000
# 6 0.000000 0.000000 0.000000 -0.005493 0.000000 0.037549
#
#
# Mechanical properties :
#
#
# Convention : Reuss Voigt Hill
#
# Bulk Modulus (GPa) = 34.11947 60.39078 47.25513
# Shear Modulus (GPa) = 24.94883 29.84722 27.39803
#
# Velocity S-wave (km/s) = 3.56174 3.89574 3.73248
# Velocity P-wave (km/s) = 5.85353 7.13746 6.52714
#
# Compressibility (1/GPa) = 0.02930878
#
# Stress axis : x y z
#
# Youngs Moduli (GPa) = 84.76773 97.82448 52.26657
#
# Poissons Ratio (x) = 0.22363 0.01103
# Poissons Ratio (y) = 0.19378 0.17899
# Poissons Ratio (z) = 0.01789 0.33500
#
# Static dielectric constant tensor:
#      x y z
#    x 1.739210 0.000000 0.002960 
#    y 0.000000 1.699940 0.000000 
#    z 0.002960 0.000000 1.688460 
# 
# From -- ./inp_files/143806.got.cif
#   From: 2010.05.17/outbox.cif.g08.bks.cpg/sg15_72_cif.got.tgz:143806.got - 2010.06.03 18:47:42.
