data_PCOD9284903
_publ_section_title
;
Structure prediction by ZEFSAII (Michael W. Deem and Ramdas Pophale) SiO2 
 PCOD9284903
Probable space group: C 2/C
;
_chemical_formula_sum "Si O2"
_cell_formula_units_Z 56
_cell_length_a 29.390237
_cell_length_b 8.070525
_cell_length_c 11.872041
_cell_angle_alpha 90.000000
_cell_angle_beta 62.754509
_cell_angle_gamma 90.000000
_cell_volume 2503.559970
_symmetry_space_group_name_H-M "C 2/C"
_symmetry_group_IT_number 15
_symmetry_cell_setting 'monoclinic'
loop_
_space_group_symop_operation_xyz
x,y,z
-x,y,1/2-z
-x,-y,-z
x,-y,1/2+z
1/2+x,1/2+y,z
1/2-x,1/2+y,1/2-z
1/2-x,1/2-y,-z
1/2+x,1/2-y,1/2+z
loop_
_atom_site_type_symbol
_atom_site_label
_atom_site_fract_x
_atom_site_fract_y
_atom_site_fract_z
Si Si1 0.372938 0.830208 0.914154
Si Si2 0.294204 0.374041 0.408768
Si Si3 0.957412 0.066050 0.896414
Si Si4 0.959301 0.486877 0.706436
Si Si5 0.212441 0.496482 0.837833
Si Si6 0.023118 0.247679 0.011352
Si Si7 0.729361 0.344225 0.413882
O O1 0.343500 0.740295 0.844955
O O2 0.411575 0.688890 0.915130
O O3 0.406395 0.983675 0.832236
O O4 0.331821 0.899436 0.049977
O O5 0.250000 0.250000 0.500000
O O6 0.267904 0.465359 0.334210
O O7 0.304451 0.507839 0.496373
O O8 0.000000 0.043652 0.750000
O O9 0.942823 0.883373 0.959295
O O10 0.986318 0.151734 0.967387
O O11 0.951200 0.381311 0.601225
O O12 0.000000 0.410141 0.750000
O O13 0.986268 0.654031 0.637858
O O14 0.223245 0.565625 0.702025
O O15 0.205369 0.300322 0.863815
O O16 0.750000 0.250000 0.500000
#
# Coordination Sequence:
#
# PCOD9284903 Si02
#       7
#     8   8   8   8   8   8   8
#     4  11  21  41  65  97 130 170 230 276 330 405
#     4   9  20  40  64  92 129 169 214 272 333 392
#     4  11  21  44  63  93 133 171 218 281 326 401
#     4  11  21  44  63  94 131 171 218 278 331 406
#     4  10  21  41  65  93 135 176 215 282 335 398
#     4  10  22  40  67  87 127 180 211 269 350 382
#     4  10  21  44  68  94 131 182 224 272 346 400
#
# _framework density 22.368148000000001
#
# number of rings (size 3 to 8) (size 9 to 14) (size 15 to 20)
#    0.000    1.714    2.857    2.143    0.000    0.000 
#   23.143    0.000    0.000    0.000    0.000    0.000 
#    0.000    0.000    0.000    0.000    0.000    0.000 
#
# Total GULP energy -156132.084067 kJ/mol
# GULP energy per Si atom -5576.145860 kJ/mol
# Density = 2.231724 g / cm^3
# Si number density = 22.368148 Si / 1000 Ang^3
#
#
#
# Elastic Constant Matrix: (Units=GPa)
#
#
# Indices 1 2 3 4 5 6 
#
# 1 55.9954 12.8545 24.8930 0.0000 -4.3557 0.0000
# 2 12.8545 106.8637 33.3620 0.0000 8.7300 0.0000
# 3 24.8930 33.3620 110.4671 0.0000 2.6669 0.0000
# 4 0.0000 0.0000 0.0000 46.7439 0.0000 13.0414
# 5 -4.3557 8.7300 2.6669 0.0000 22.6542 0.0000
# 6 0.0000 0.0000 0.0000 13.0414 0.0000 37.8374
#
#
#
# Elastic Compliance Matrix: (Units=1/GPa)
#
#
# Indices 1 2 3 4 5 6 
#
# 1 0.020506 -0.001543 -0.004277 0.000000 0.005041 0.000000
# 2 -0.001543 0.010754 -0.002801 0.000000 -0.004111 0.000000
# 3 -0.004277 -0.002801 0.010887 0.000000 -0.001025 0.000000
# 4 0.000000 0.000000 0.000000 0.023669 0.000000 -0.008158
# 5 0.005041 -0.004111 -0.001025 0.000000 0.046816 0.000000
# 6 0.000000 0.000000 0.000000 -0.008158 0.000000 0.029241
#
#
# Mechanical properties :
#
#
# Convention : Reuss Voigt Hill
#
# Bulk Modulus (GPa) = 40.15196 46.17170 43.16183
# Shear Modulus (GPa) = 29.86589 34.92822 32.39706
#
# Velocity S-wave (km/s) = 3.65800 3.95589 3.80986
# Velocity P-wave (km/s) = 5.98588 6.44608 6.22024
#
# Compressibility (1/GPa) = 0.02490538
#
# Stress axis : x y z
#
# Youngs Moduli (GPa) = 48.76584 92.99266 91.85528
#
# Poissons Ratio (x) = 0.14352 0.39282
# Poissons Ratio (y) = 0.07526 0.25725
# Poissons Ratio (z) = 0.20855 0.26044
#
# Static dielectric constant tensor:
#      x y z
#    x 1.832810 0.000000 0.060050 
#    y 0.000000 1.896180 0.000000 
#    z 0.060050 0.000000 1.870970 
# 
# From -- ./inp_files/125838.got.cif
#   From: 2010.05.17/outbox.cif.g08.bks.cpg/sg15_63_cif.got.tgz:125838.got - 2010.06.03 18:47:42.
