data_PCOD9284282
_publ_section_title
;
Structure prediction by ZEFSAII (Michael W. Deem and Ramdas Pophale) SiO2 
 PCOD9284282
Probable space group: C 2/C
;
_chemical_formula_sum "Si O2"
_cell_formula_units_Z 56
_cell_length_a 11.207615
_cell_length_b 8.569890
_cell_length_c 29.126153
_cell_angle_alpha 90.000000
_cell_angle_beta 119.848568
_cell_angle_gamma 90.000000
_cell_volume 2426.402763
_symmetry_space_group_name_H-M "C 2/C"
_symmetry_group_IT_number 15
_symmetry_cell_setting 'monoclinic'
loop_
_space_group_symop_operation_xyz
x,y,z
-x,y,1/2-z
-x,-y,-z
x,-y,1/2+z
1/2+x,1/2+y,z
1/2-x,1/2+y,1/2-z
1/2-x,1/2-y,-z
1/2+x,1/2-y,1/2+z
loop_
_atom_site_type_symbol
_atom_site_label
_atom_site_fract_x
_atom_site_fract_y
_atom_site_fract_z
Si Si1 0.908983 0.321968 0.969608
Si Si2 0.343433 0.879613 0.218064
Si Si3 0.713464 0.126637 0.531955
Si Si4 0.618556 0.812468 0.721746
Si Si5 0.673445 0.276292 0.359772
Si Si6 0.422302 0.020450 0.877002
Si Si7 0.288309 0.920788 0.104398
O O1 0.817833 0.443787 0.981764
O O2 0.925404 0.408894 0.922686
O O3 0.834902 0.159536 0.946332
O O4 0.061893 0.313404 0.019326
O O5 0.500000 0.822098 0.250000
O O6 0.244372 0.800330 0.235613
O O7 0.294579 0.850158 0.156947
O O8 0.350547 0.063697 0.232146
O O9 0.750000 0.250000 0.500000
O O10 0.831598 0.131883 0.592816
O O11 0.472032 0.723854 0.693770
O O12 0.601648 0.917455 0.672776
O O13 0.796504 0.360195 0.357048
O O14 0.716846 0.104563 0.385566
O O15 0.568419 0.102116 0.895148
#
# Coordination Sequence:
#
# PCOD9284282 Si02
#       7
#     8   8   8   8   8   8   8
#     4  10  22  42  65  95 130 171 216 264 320 386
#     4  12  25  43  65  93 126 169 215 264 323 380
#     4  10  21  40  68  95 129 172 216 263 323 386
#     4  11  25  43  64  92 129 166 214 269 317 386
#     4  10  23  42  65  96 132 170 211 268 326 378
#     4  10  21  43  64  92 134 166 211 269 319 382
#     4  11  23  41  65  94 131 169 212 265 321 375
#
# _framework density 23.079433000000002
#
# number of rings (size 3 to 8) (size 9 to 14) (size 15 to 20)
#    0.000    1.429    4.286    1.714    2.000    2.857 
#    2.571   10.000    0.000    0.000    0.000    0.000 
#    0.000    0.000    0.000    0.000    0.000    0.000 
#
# Total GULP energy -156427.457271 kJ/mol
# GULP energy per Si atom -5586.694903 kJ/mol
# Density = 2.302690 g / cm^3
# Si number density = 23.079433 Si / 1000 Ang^3
#
#
#
# Elastic Constant Matrix: (Units=GPa)
#
#
# Indices 1 2 3 4 5 6 
#
# 1 103.6544 36.3718 26.6308 0.0000 12.2323 0.0000
# 2 36.3718 38.5626 8.1618 0.0000 18.3315 0.0000
# 3 26.6308 8.1618 88.2165 0.0000 3.7123 0.0000
# 4 0.0000 0.0000 0.0000 40.3194 0.0000 6.7351
# 5 12.2323 18.3315 3.7123 0.0000 41.2775 0.0000
# 6 0.0000 0.0000 0.0000 6.7351 0.0000 40.0925
#
#
#
# Elastic Compliance Matrix: (Units=1/GPa)
#
#
# Indices 1 2 3 4 5 6 
#
# 1 0.015521 -0.015059 -0.003393 0.000000 0.002393 0.000000
# 2 -0.015059 0.048012 0.000816 0.000000 -0.016933 0.000000
# 3 -0.003393 0.000816 0.012304 0.000000 -0.000464 0.000000
# 4 0.000000 0.000000 0.000000 0.025518 0.000000 -0.004287
# 5 0.002393 -0.016933 -0.000464 0.000000 0.031079 0.000000
# 6 0.000000 0.000000 0.000000 -0.004287 0.000000 0.025662
#
#
# Mechanical properties :
#
#
# Convention : Reuss Voigt Hill
#
# Bulk Modulus (GPa) = 24.65100 41.41802 33.03451
# Shear Modulus (GPa) = 24.16772 34.95583 29.56178
#
# Velocity S-wave (km/s) = 3.23949 3.89599 3.58281
# Velocity P-wave (km/s) = 4.96956 6.18249 5.60891
#
# Compressibility (1/GPa) = 0.04056630
#
# Stress axis : x y z
#
# Youngs Moduli (GPa) = 64.43022 20.82829 81.27455
#
# Poissons Ratio (x) = 0.31364 0.27576
# Poissons Ratio (y) = 0.97022 -0.06635
# Poissons Ratio (z) = 0.21860 -0.01700
#
# Static dielectric constant tensor:
#      x y z
#    x 1.892050 0.000000 -0.052330 
#    y 0.000000 1.871550 0.000000 
#    z -0.052330 0.000000 1.942030 
# 
# From -- ./inp_files/310371.got.cif
#   From: 2010.05.17/outbox.cif.g08.bks.cpg/sg15_156_cif.got.tgz:310371.got - 2010.06.03 18:47:42.
