data_PCOD9284299
_publ_section_title
;
Structure prediction by ZEFSAII (Michael W. Deem and Ramdas Pophale) SiO2 
 PCOD9284299
Probable space group: C 2/C
;
_chemical_formula_sum "Si O2"
_cell_formula_units_Z 40
_cell_length_a 10.232581
_cell_length_b 9.094448
_cell_length_c 28.003606
_cell_angle_alpha 90.000000
_cell_angle_beta 137.903889
_cell_angle_gamma 90.000000
_cell_volume 1747.004876
_symmetry_space_group_name_H-M "C 2/C"
_symmetry_group_IT_number 15
_symmetry_cell_setting 'monoclinic'
loop_
_space_group_symop_operation_xyz
x,y,z
-x,y,1/2-z
-x,-y,-z
x,-y,1/2+z
1/2+x,1/2+y,z
1/2-x,1/2+y,1/2-z
1/2-x,1/2-y,-z
1/2+x,1/2-y,1/2+z
loop_
_atom_site_type_symbol
_atom_site_label
_atom_site_fract_x
_atom_site_fract_y
_atom_site_fract_z
Si Si1 0.285078 0.576634 0.505234
Si Si2 0.123104 0.543913 0.869155
Si Si3 0.550963 0.364399 0.819134
Si Si4 0.149528 0.904529 0.642369
Si Si5 0.397306 0.072310 0.896195
O O1 0.250000 0.750000 0.500000
O O2 0.278558 0.524315 0.448360
O O3 0.480726 0.520090 0.582371
O O4 0.093213 0.491828 0.473102
O O5 0.150746 0.716122 0.866400
O O6 0.153687 0.460969 0.828271
O O7 0.928933 0.527864 0.848549
O O8 0.500000 0.341220 0.750000
O O9 0.370918 0.388382 0.806374
O O10 0.702264 0.498965 0.862149
O O11 0.104357 0.747386 0.605885
#
# Coordination Sequence:
#
# PCOD9284299 Si02
#       5
#     8   8   8   8   8
#     4  10  21  40  68  98 134 163 202 268 337 392
#     4   9  23  42  63  95 128 165 211 256 329 383
#     4  11  25  44  63  89 129 176 223 267 310 376
#     4  11  22  40  67  98 130 165 209 264 329 389
#     4   9  23  39  61  97 128 163 212 259 322 385
#
# _framework density 22.896329999999999
#
# number of rings (size 3 to 8) (size 9 to 14) (size 15 to 20)
#    1.200    0.800    0.000    2.400    2.800    4.000 
#    0.000    1.000    0.000    0.000    0.000    0.000 
#    0.000    0.000    0.000    0.000    0.000    0.000 
#
# Total GULP energy -111556.634288 kJ/mol
# GULP energy per Si atom -5577.831714 kJ/mol
# Density = 2.284422 g / cm^3
# Si number density = 22.896330 Si / 1000 Ang^3
#
#
#
# Elastic Constant Matrix: (Units=GPa)
#
#
# Indices 1 2 3 4 5 6 
#
# 1 120.8702 19.7089 -1.4344 0.0000 -35.7063 0.0000
# 2 19.7089 114.2611 26.2991 0.0000 -9.8709 0.0000
# 3 -1.4344 26.2991 79.4879 0.0000 -23.5410 0.0000
# 4 0.0000 0.0000 0.0000 -6.6072 0.0000 -29.1584
# 5 -35.7063 -9.8709 -23.5410 0.0000 29.0135 0.0000
# 6 0.0000 0.0000 0.0000 -29.1584 0.0000 13.4744
#
#
#
# Elastic Compliance Matrix: (Units=1/GPa)
#
#
# Indices 1 2 3 4 5 6 
#
# 1 0.016964 -0.002700 0.009359 0.000000 0.027553 0.000000
# 2 -0.002700 0.009921 -0.004364 0.000000 -0.003489 0.000000
# 3 0.009359 -0.004364 0.022594 0.000000 0.028366 0.000000
# 4 0.000000 0.000000 0.000000 -0.014346 0.000000 -0.031045
# 5 0.027553 -0.003489 0.028366 0.000000 0.090204 0.000000
# 6 0.000000 0.000000 0.000000 -0.031045 0.000000 0.007035
#
#
# Mechanical properties :
#
#
# Convention : Reuss Voigt Hill
#
# Bulk Modulus (GPa) = 18.49483 44.86294 31.67888
# Shear Modulus (GPa) = 34.29239 25.17918 29.73578
#
# Velocity S-wave (km/s) = 3.87424 3.31978 3.60768
# Velocity P-wave (km/s) = 5.30172 5.85927 5.58745
#
# Compressibility (1/GPa) = 0.05406916
#
# Stress axis : x y z
#
# Youngs Moduli (GPa) = 58.94810 100.79887 44.25896
#
# Poissons Ratio (x) = 0.27217 -0.41424
# Poissons Ratio (y) = 0.15917 0.19316
# Poissons Ratio (z) = -0.55172 0.43992
#
# Static dielectric constant tensor:
#      x y z
#    x 1.910060 0.000000 -0.044290 
#    y 0.000000 1.797250 0.000000 
#    z -0.044290 0.000000 1.846960 
# 
# From -- ./inp_files/195187.got.cif
#   From: 2010.05.17/outbox.cif.g08.bks.cpg/sg15_98_cif.got.tgz:195187.got - 2010.06.03 18:47:42.
