data_PCOD9284341
_publ_section_title
;
Structure prediction by ZEFSAII (Michael W. Deem and Ramdas Pophale) SiO2 
 PCOD9284341
Probable space group: C 2/C
;
_chemical_formula_sum "Si O2"
_cell_formula_units_Z 40
_cell_length_a 14.138076
_cell_length_b 13.868788
_cell_length_c 17.613192
_cell_angle_alpha 90.000000
_cell_angle_beta 148.766658
_cell_angle_gamma 90.000000
_cell_volume 1790.755627
_symmetry_space_group_name_H-M "C 2/C"
_symmetry_group_IT_number 15
_symmetry_cell_setting 'monoclinic'
loop_
_space_group_symop_operation_xyz
x,y,z
-x,y,1/2-z
-x,-y,-z
x,-y,1/2+z
1/2+x,1/2+y,z
1/2-x,1/2+y,1/2-z
1/2-x,1/2-y,-z
1/2+x,1/2-y,1/2+z
loop_
_atom_site_type_symbol
_atom_site_label
_atom_site_fract_x
_atom_site_fract_y
_atom_site_fract_z
Si Si1 0.815773 0.662719 0.385972
Si Si2 0.854200 0.615563 0.098159
Si Si3 0.488869 0.703061 0.877019
Si Si4 0.044567 0.291867 0.359775
Si Si5 0.310951 0.535413 0.664705
O O1 0.914209 0.734007 0.394700
O O2 0.941885 0.659920 0.548359
O O3 0.613733 0.711124 0.251879
O O4 0.769365 0.550821 0.340366
O O5 0.000000 0.563871 0.250000
O O6 0.941558 0.717867 0.134794
O O7 0.667299 0.637542 0.014755
O O8 0.815077 0.562689 0.992714
O O9 0.349774 0.630294 0.741047
O O10 0.250000 0.250000 0.500000
O O11 0.000000 0.346348 0.250000
O O12 0.500000 0.507723 0.750000
#
# Coordination Sequence:
#
# PCOD9284341 Si02
#       5
#     8   8   8   8   8
#     4  11  23  40  71  97 135 173 229 276 329 402
#     4  10  21  40  69  93 137 178 221 273 347 392
#     4  10  22  40  66  99 137 176 217 281 340 387
#     4   9  20  40  63  90 132 184 211 264 342 397
#     4  10  22  43  70  98 134 182 223 273 340 406
#
# _framework density 22.336939000000001
#
# number of rings (size 3 to 8) (size 9 to 14) (size 15 to 20)
#    0.000    2.000    0.000    4.800    5.600    1.600 
#    0.000    3.000    0.000    0.000    0.000    0.000 
#    0.000    0.000    0.000    0.000    0.000    0.000 
#
# Total GULP energy -111495.709447 kJ/mol
# GULP energy per Si atom -5574.785472 kJ/mol
# Density = 2.228610 g / cm^3
# Si number density = 22.336939 Si / 1000 Ang^3
#
#
#
# Elastic Constant Matrix: (Units=GPa)
#
#
# Indices 1 2 3 4 5 6 
#
# 1 107.5940 48.8394 53.3614 0.0004 -3.2167 0.0001
# 2 48.8394 129.6991 51.8583 0.0004 -9.3127 0.0003
# 3 53.3614 51.8583 179.1440 0.0011 -20.6086 0.0006
# 4 0.0004 0.0004 0.0011 0.0923 0.0008 -11.2848
# 5 -3.2167 -9.3127 -20.6086 0.0008 29.0721 0.0004
# 6 0.0001 0.0003 0.0006 -11.2848 0.0004 12.8067
#
#
#
# Elastic Compliance Matrix: (Units=1/GPa)
#
#
# Indices 1 2 3 4 5 6 
#
# 1 0.012284 -0.003629 -0.002815 0.000000 -0.001799 0.000000
# 2 -0.003629 0.009824 -0.001575 0.000000 0.001629 0.000000
# 3 -0.002815 -0.001575 0.007385 0.000002 0.004419 0.000001
# 4 0.000000 0.000000 0.000002 -0.101509 0.000005 -0.089446
# 5 -0.001799 0.001629 0.004419 0.000005 0.037852 0.000003
# 6 0.000000 0.000000 0.000001 -0.089446 0.000003 -0.000732
#
#
# Mechanical properties :
#
#
# Convention : Reuss Voigt Hill
#
# Bulk Modulus (GPa) = 74.33373 80.50615 77.41994
# Shear Modulus (GPa) = -347.90549 25.88611 -161.00969
#
# Velocity S-wave (km/s) = -12.49366 3.40794 -8.49934
# Velocity P-wave (km/s) = 13.22012 7.18369 7.84749
#
# Compressibility (1/GPa) = 0.01345284
#
# Stress axis : x y z
#
# Youngs Moduli (GPa) = 81.40603 101.79616 135.40724
#
# Poissons Ratio (x) = 0.36943 0.38123
# Poissons Ratio (y) = 0.29543 0.21331
# Poissons Ratio (z) = 0.22920 0.16036
#
# Static dielectric constant tensor:
#      x y z
#    x 1.918740 0.000000 0.020410 
#    y 0.000000 1.825520 0.000000 
#    z 0.020410 0.000000 1.865180 
# 
# From -- ./inp_files/61752.got.cif
#   From: 2010.05.17/outbox.cif.g08.bks.cpg/sg15_31_cif.got.tgz:61752.got - 2010.06.03 18:47:42.
