data_PCOD9284163
_publ_section_title
;
Structure prediction by ZEFSAII (Michael W. Deem and Ramdas Pophale) SiO2 
 PCOD9284163
Probable space group: C 2/C
;
_chemical_formula_sum "Si O2"
_cell_formula_units_Z 44
_cell_length_a 10.588940
_cell_length_b 15.657201
_cell_length_c 15.237444
_cell_angle_alpha 90.000000
_cell_angle_beta 59.616272
_cell_angle_gamma 90.000000
_cell_volume 2179.300221
_symmetry_space_group_name_H-M "C 2/C"
_symmetry_group_IT_number 15
_symmetry_cell_setting 'monoclinic'
loop_
_space_group_symop_operation_xyz
x,y,z
-x,y,1/2-z
-x,-y,-z
x,-y,1/2+z
1/2+x,1/2+y,z
1/2-x,1/2+y,1/2-z
1/2-x,1/2-y,-z
1/2+x,1/2-y,1/2+z
loop_
_atom_site_type_symbol
_atom_site_label
_atom_site_fract_x
_atom_site_fract_y
_atom_site_fract_z
Si Si1 0.644561 0.368406 0.302392
Si Si2 0.405077 0.900648 0.940410
Si Si3 0.453578 0.084171 0.622119
Si Si4 0.593781 0.489845 0.055562
Si Si5 0.762348 0.158064 0.537903
Si Si6 0.500000 0.777146 0.750000
O O1 0.801172 0.406852 0.224477
O O2 0.516432 0.439507 0.342067
O O3 0.651510 0.338171 0.400860
O O4 0.617574 0.287601 0.249982
O O5 0.441140 0.834164 0.851154
O O6 0.506812 0.984205 0.894809
O O7 0.433387 0.875718 0.031675
O O8 0.237059 0.931471 0.992263
O O9 0.596468 0.127019 0.613397
O O10 0.500000 0.500000 0.000000
O O11 0.659521 0.584737 0.049526
O O12 0.750000 0.250000 0.500000
#
# Coordination Sequence:
#
# PCOD9284163 Si02
#       6
#     8   8   8   8   8   4
#     4  11  23  39  62  96 129 170 211 267 332 388
#     4  10  23  41  64  93 126 172 217 269 331 394
#     4  10  22  42  66  89 130 173 218 269 331 400
#     4   9  21  39  63  90 125 173 206 262 327 388
#     4  10  21  40  67  92 128 170 221 271 323 389
#     4  12  26  38  66 100 130 168 224 280 326 394
#
# _framework density 20.189966999999999
#
# number of rings (size 3 to 8) (size 9 to 14) (size 15 to 20)
#    0.000    1.818    0.000    2.727    7.636    5.818 
#    0.000    0.000   12.000    0.000    0.000    0.000 
#    0.000    0.000    0.000    0.000    0.000    0.000 
#
# Total GULP energy -122770.145077 kJ/mol
# GULP energy per Si atom -5580.461140 kJ/mol
# Density = 2.014401 g / cm^3
# Si number density = 20.189967 Si / 1000 Ang^3
#
#
#
# Elastic Constant Matrix: (Units=GPa)
#
#
# Indices 1 2 3 4 5 6 
#
# 1 105.9610 42.4598 39.3665 0.0000 -2.3462 0.0000
# 2 42.4598 109.4117 60.0764 0.0000 -15.9276 0.0000
# 3 39.3665 60.0764 90.5512 0.0000 -0.0499 0.0000
# 4 0.0000 0.0000 0.0000 26.3198 0.0000 12.6475
# 5 -2.3462 -15.9276 -0.0499 0.0000 36.5346 0.0000
# 6 0.0000 0.0000 0.0000 12.6475 0.0000 25.9109
#
#
#
# Elastic Compliance Matrix: (Units=1/GPa)
#
#
# Indices 1 2 3 4 5 6 
#
# 1 0.011772 -0.002881 -0.003207 0.000000 -0.000504 0.000000
# 2 -0.002881 0.016670 -0.009803 0.000000 0.007069 0.000000
# 3 -0.003207 -0.009803 0.018939 0.000000 -0.004454 0.000000
# 4 0.000000 0.000000 0.000000 0.049637 0.000000 -0.024229
# 5 -0.000504 0.007069 -0.004454 0.000000 0.030415 0.000000
# 6 0.000000 0.000000 0.000000 -0.024229 0.000000 0.050420
#
#
# Mechanical properties :
#
#
# Convention : Reuss Voigt Hill
#
# Bulk Modulus (GPa) = 64.10655 65.52547 64.81601
# Shear Modulus (GPa) = 23.27384 28.68781 25.98082
#
# Velocity S-wave (km/s) = 3.39889 3.77356 3.59112
# Velocity P-wave (km/s) = 6.87196 7.17714 7.02621
#
# Compressibility (1/GPa) = 0.01559903
#
# Stress axis : x y z
#
# Youngs Moduli (GPa) = 84.94671 59.98927 52.80140
#
# Poissons Ratio (x) = 0.17284 0.16931
# Poissons Ratio (y) = 0.24475 0.51761
# Poissons Ratio (z) = 0.27239 0.58808
#
# Static dielectric constant tensor:
#      x y z
#    x 1.726850 0.000000 0.038270 
#    y 0.000000 1.704510 0.000000 
#    z 0.038270 0.000000 1.755200 
# 
# From -- ./inp_files/143337.got.cif
#   From: 2010.05.17/outbox.cif.g08.bks.cpg/sg15_72_cif.got.tgz:143337.got - 2010.06.03 18:47:42.
