data_PCOD9284536
_publ_section_title
;
Structure prediction by ZEFSAII (Michael W. Deem and Ramdas Pophale) SiO2 
 PCOD9284536
Probable space group: C 2/C
;
_chemical_formula_sum "Si O2"
_cell_formula_units_Z 56
_cell_length_a 11.222309
_cell_length_b 11.131895
_cell_length_c 24.273432
_cell_angle_alpha 90.000000
_cell_angle_beta 106.681012
_cell_angle_gamma 90.000000
_cell_volume 2904.762943
_symmetry_space_group_name_H-M "C 2/C"
_symmetry_group_IT_number 15
_symmetry_cell_setting 'monoclinic'
loop_
_space_group_symop_operation_xyz
x,y,z
-x,y,1/2-z
-x,-y,-z
x,-y,1/2+z
1/2+x,1/2+y,z
1/2-x,1/2+y,1/2-z
1/2-x,1/2-y,-z
1/2+x,1/2-y,1/2+z
loop_
_atom_site_type_symbol
_atom_site_label
_atom_site_fract_x
_atom_site_fract_y
_atom_site_fract_z
Si Si1 0.209852 0.332940 0.165468
Si Si2 0.516370 0.306854 0.906588
Si Si3 0.802589 0.618068 0.625882
Si Si4 0.570968 0.578650 0.877233
Si Si5 0.357639 0.708262 0.794563
Si Si6 0.954648 0.126565 0.970572
Si Si7 0.021299 0.533595 0.187464
O O1 0.123003 0.228089 0.129755
O O2 0.295893 0.390759 0.129871
O O3 0.298816 0.287583 0.226312
O O4 0.118964 0.434289 0.178922
O O5 0.607271 0.217860 0.886943
O O6 0.551778 0.441033 0.892479
O O7 0.534954 0.289884 0.974698
O O8 0.748507 0.666482 0.676674
O O9 0.684128 0.608258 0.570519
O O10 0.886828 0.499222 0.643737
O O11 0.467599 0.612196 0.817903
O O12 0.536892 0.655005 0.927631
O O13 0.420162 0.836367 0.816590
O O14 0.000000 0.000000 0.000000
O O15 0.000000 0.523055 0.250000
#
# Coordination Sequence:
#
# PCOD9284536 Si02
#       7
#     8   8   8   8   8   8   8
#     4  11  23  38  59  89 123 159 204 250 307 371
#     4  10  22  39  63  88 117 164 201 254 306 356
#     4  10  21  41  61  88 123 152 208 250 306 369
#     4  10  22  39  57  89 121 156 207 247 307 367
#     4  11  23  37  60  88 122 163 196 250 309 368
#     4   9  20  38  63  86 117 160 201 254 306 357
#     4  11  22  38  59  85 122 160 198 250 306 365
#
# _framework density 19.278682
#
# number of rings (size 3 to 8) (size 9 to 14) (size 15 to 20)
#    0.000    1.714    1.429    2.571    2.000    5.143 
#    2.571    4.286    0.000   15.429    0.000    0.000 
#    0.000    0.000    0.000    0.000    0.000    0.000 
#
# Total GULP energy -156269.126562 kJ/mol
# GULP energy per Si atom -5581.040234 kJ/mol
# Density = 1.923480 g / cm^3
# Si number density = 19.278682 Si / 1000 Ang^3
#
#
#
# Elastic Constant Matrix: (Units=GPa)
#
#
# Indices 1 2 3 4 5 6 
#
# 1 122.2539 35.8164 50.4077 0.0000 -14.1209 0.0000
# 2 35.8164 65.3670 12.9586 0.0000 3.0947 0.0000
# 3 50.4077 12.9586 88.1286 0.0000 12.4379 0.0000
# 4 0.0000 0.0000 0.0000 -29.3028 0.0000 -13.2970
# 5 -14.1209 3.0947 12.4379 0.0000 25.4495 0.0000
# 6 0.0000 0.0000 0.0000 -13.2970 0.0000 24.3371
#
#
#
# Elastic Compliance Matrix: (Units=1/GPa)
#
#
# Indices 1 2 3 4 5 6 
#
# 1 0.016494 -0.007686 -0.010449 0.000000 0.015193 0.000000
# 2 -0.007686 0.019356 0.002668 0.000000 -0.007922 0.000000
# 3 -0.010449 0.002668 0.019113 0.000000 -0.015463 0.000000
# 4 0.000000 0.000000 0.000000 -0.027347 0.000000 -0.014941
# 5 0.015193 -0.007922 -0.015463 0.000000 0.056244 0.000000
# 6 0.000000 0.000000 0.000000 -0.014941 0.000000 0.032926
#
#
# Mechanical properties :
#
#
# Convention : Reuss Voigt Hill
#
# Bulk Modulus (GPa) = 41.61297 52.67942 47.14619
# Shear Modulus (GPa) = 32.10686 15.86790 23.98738
#
# Velocity S-wave (km/s) = 4.08537 2.87205 3.53121
# Velocity P-wave (km/s) = 6.62461 6.19538 6.41359
#
# Compressibility (1/GPa) = 0.02403097
#
# Stress axis : x y z
#
# Youngs Moduli (GPa) = 60.62672 51.66481 52.31909
#
# Poissons Ratio (x) = 0.39708 0.54666
# Poissons Ratio (y) = 0.46595 -0.13959
# Poissons Ratio (z) = 0.63346 -0.13784
#
# Static dielectric constant tensor:
#      x y z
#    x 1.678740 0.000000 -0.003190 
#    y 0.000000 1.668100 0.000000 
#    z -0.003190 0.000000 1.702540 
# 
# From -- ./inp_files/237122.got.cif
#   From: 2010.05.17/outbox.cif.g08.bks.cpg/sg15_119_cif.got.tgz:237122.got - 2010.06.03 18:47:42.
