data_PCOD9284404
_publ_section_title
;
Structure prediction by ZEFSAII (Michael W. Deem and Ramdas Pophale) SiO2 
 PCOD9284404
Probable space group: C 2/C
;
_chemical_formula_sum "Si O2"
_cell_formula_units_Z 40
_cell_length_a 24.727533
_cell_length_b 6.976890
_cell_length_c 13.791737
_cell_angle_alpha 90.000000
_cell_angle_beta 139.212299
_cell_angle_gamma 90.000000
_cell_volume 1554.341462
_symmetry_space_group_name_H-M "C 2/C"
_symmetry_group_IT_number 15
_symmetry_cell_setting 'monoclinic'
loop_
_space_group_symop_operation_xyz
x,y,z
-x,y,1/2-z
-x,-y,-z
x,-y,1/2+z
1/2+x,1/2+y,z
1/2-x,1/2+y,1/2-z
1/2-x,1/2-y,-z
1/2+x,1/2-y,1/2+z
loop_
_atom_site_type_symbol
_atom_site_label
_atom_site_fract_x
_atom_site_fract_y
_atom_site_fract_z
Si Si1 0.903509 0.620034 0.141455
Si Si2 0.809158 0.044117 0.425685
Si Si3 0.625241 0.717656 0.333739
Si Si4 0.962410 0.139251 0.030206
Si Si5 0.874468 0.461704 0.815425
O O1 0.878927 0.398489 0.100391
O O2 0.884143 0.660365 0.228489
O O3 0.000000 0.645737 0.250000
O O4 0.848438 0.750664 0.999723
O O5 0.716283 0.062841 0.263937
O O6 0.810590 0.929644 0.532156
O O7 0.874356 0.938755 0.445730
O O8 0.534930 0.626379 0.207143
O O9 0.628554 0.820349 0.231853
O O10 0.944740 0.362301 0.976341
O O11 0.000000 0.000000 0.000000
#
# Coordination Sequence:
#
# PCOD9284404 Si02
#       5
#     8   8   8   8   8
#     4  10  21  40  70  97 128 176 231 270 327 412
#     4  12  23  45  69  99 138 177 227 283 343 401
#     4  10  24  44  71  94 132 179 240 267 333 414
#     4  12  25  45  68 101 142 182 223 280 348 409
#     4  10  25  43  66 103 137 171 223 291 342 391
#
# _framework density 25.734370999999999
#
# number of rings (size 3 to 8) (size 9 to 14) (size 15 to 20)
#    1.200    0.000    0.000    7.200    0.000    1.600 
#   10.800    0.000    0.000    0.000    0.000    0.000 
#    0.000    0.000    0.000    0.000    0.000    0.000 
#
# Total GULP energy -111764.880641 kJ/mol
# GULP energy per Si atom -5588.244032 kJ/mol
# Density = 2.567580 g / cm^3
# Si number density = 25.734371 Si / 1000 Ang^3
#
#
#
# Elastic Constant Matrix: (Units=GPa)
#
#
# Indices 1 2 3 4 5 6 
#
# 1 63.6921 -7.9148 -16.1849 0.0000 14.6460 0.0000
# 2 -7.9148 94.6492 15.6420 0.0000 -1.4322 0.0000
# 3 -16.1849 15.6420 78.5202 0.0000 14.7852 0.0000
# 4 0.0000 0.0000 0.0000 47.7371 0.0000 -8.7414
# 5 14.6460 -1.4322 14.7852 0.0000 39.8366 0.0000
# 6 0.0000 0.0000 0.0000 -8.7414 0.0000 2.5583
#
#
#
# Elastic Compliance Matrix: (Units=1/GPa)
#
#
# Indices 1 2 3 4 5 6 
#
# 1 0.019293 0.000551 0.005589 0.000000 -0.009148 0.000000
# 2 0.000551 0.011003 -0.002273 0.000000 0.001037 0.000000
# 3 0.005589 -0.002273 0.015851 0.000000 -0.008020 0.000000
# 4 0.000000 0.000000 0.000000 0.055963 0.000000 0.191221
# 5 -0.009148 0.001037 -0.008020 0.000000 0.031479 0.000000
# 6 0.000000 0.000000 0.000000 0.191221 0.000000 1.044270
#
#
# Mechanical properties :
#
#
# Convention : Reuss Voigt Hill
#
# Bulk Modulus (GPa) = 18.55954 24.43845 21.49899
# Shear Modulus (GPa) = 4.20845 34.38101 19.29473
#
# Velocity S-wave (km/s) = 1.28019 3.65909 2.74115
# Velocity P-wave (km/s) = 3.06803 5.23154 4.28846
#
# Compressibility (1/GPa) = 0.05388064
#
# Stress axis : x y z
#
# Youngs Moduli (GPa) = 51.83259 90.88572 63.08884
#
# Poissons Ratio (x) = -0.05009 -0.35263
# Poissons Ratio (y) = -0.02857 0.14343
# Poissons Ratio (z) = -0.28971 0.20663
#
# Static dielectric constant tensor:
#      x y z
#    x 2.151990 0.000000 -0.091010 
#    y 0.000000 2.022990 0.000000 
#    z -0.091010 0.000000 1.959320 
# 
# From -- ./inp_files/172146.got.cif
#   From: 2010.05.17/outbox.cif.g08.bks.cpg/sg15_87_cif.got.tgz:172146.got - 2010.06.03 18:47:42.
