data_PCOD9284718
_publ_section_title
;
Structure prediction by ZEFSAII (Michael W. Deem and Ramdas Pophale) SiO2 
 PCOD9284718
Probable space group: C 2/C
;
_chemical_formula_sum "Si O2"
_cell_formula_units_Z 48
_cell_length_a 29.627033
_cell_length_b 6.725300
_cell_length_c 14.646078
_cell_angle_alpha 90.000000
_cell_angle_beta 129.788522
_cell_angle_gamma 90.000000
_cell_volume 2242.410704
_symmetry_space_group_name_H-M "C 2/C"
_symmetry_group_IT_number 15
_symmetry_cell_setting 'monoclinic'
loop_
_space_group_symop_operation_xyz
x,y,z
-x,y,1/2-z
-x,-y,-z
x,-y,1/2+z
1/2+x,1/2+y,z
1/2-x,1/2+y,1/2-z
1/2-x,1/2-y,-z
1/2+x,1/2-y,1/2+z
loop_
_atom_site_type_symbol
_atom_site_label
_atom_site_fract_x
_atom_site_fract_y
_atom_site_fract_z
Si Si1 0.064629 0.768945 0.870772
Si Si2 0.686997 0.059352 0.292764
Si Si3 0.621768 0.346308 0.510214
Si Si4 0.066610 0.495166 0.052571
Si Si5 0.219837 0.171891 0.683520
Si Si6 0.670908 0.970644 0.468613
O O1 0.114642 0.669324 0.873008
O O2 0.000000 0.736146 0.750000
O O3 0.078374 0.999832 0.903899
O O4 0.071260 0.651438 0.975079
O O5 0.616942 0.058999 0.189235
O O6 0.716031 0.893498 0.265200
O O7 0.712332 0.256284 0.277437
O O8 0.704797 0.013931 0.418928
O O9 0.586200 0.221065 0.540020
O O10 0.674584 0.490178 0.610832
O O11 0.647660 0.179175 0.476881
O O12 0.000000 0.500000 0.000000
O O13 0.202319 0.345948 0.589342
#
# Coordination Sequence:
#
# PCOD9284718 Si02
#       6
#     8   8   8   8   8   8
#     4  10  21  41  63  95 136 176 224 282 330 394
#     4  12  23  44  70  97 134 180 217 281 339 392
#     4  10  21  45  64  93 140 171 226 281 326 404
#     4  11  23  42  66  96 136 175 224 272 336 406
#     4  11  24  46  66 101 138 171 228 279 331 404
#     4  10  23  44  66  96 134 177 227 275 338 397
#
# _framework density 21.405533999999999
#
# number of rings (size 3 to 8) (size 9 to 14) (size 15 to 20)
#    0.000    1.333    5.000    2.500    0.000    5.333 
#   15.000    0.000    0.000    0.000    0.000    0.000 
#    0.000    0.000    0.000    0.000    0.000    0.000 
#
# Total GULP energy -134084.414660 kJ/mol
# GULP energy per Si atom -5586.850611 kJ/mol
# Density = 2.135681 g / cm^3
# Si number density = 21.405534 Si / 1000 Ang^3
#
#
#
# Elastic Constant Matrix: (Units=GPa)
#
#
# Indices 1 2 3 4 5 6 
#
# 1 114.1446 26.4036 17.0527 0.0000 -3.5642 0.0000
# 2 26.4036 129.2391 20.5733 0.0000 -10.9110 0.0000
# 3 17.0527 20.5733 54.0982 0.0000 3.7069 0.0000
# 4 0.0000 0.0000 0.0000 19.8952 0.0000 8.0135
# 5 -3.5642 -10.9110 3.7069 0.0000 41.0728 0.0000
# 6 0.0000 0.0000 0.0000 8.0135 0.0000 28.4667
#
#
#
# Elastic Compliance Matrix: (Units=1/GPa)
#
#
# Indices 1 2 3 4 5 6 
#
# 1 0.009495 -0.001492 -0.002470 0.000000 0.000651 0.000000
# 2 -0.001492 0.008731 -0.003019 0.000000 0.002462 0.000000
# 3 -0.002470 -0.003019 0.020609 0.000000 -0.002876 0.000000
# 4 0.000000 0.000000 0.000000 0.056691 0.000000 -0.015959
# 5 0.000651 0.002462 -0.002876 0.000000 0.025317 0.000000
# 6 0.000000 0.000000 0.000000 -0.015959 0.000000 0.039621
#
#
# Mechanical properties :
#
#
# Convention : Reuss Voigt Hill
#
# Bulk Modulus (GPa) = 40.20417 47.28235 43.74326
# Shear Modulus (GPa) = 27.36471 33.45043 30.40757
#
# Velocity S-wave (km/s) = 3.57934 3.95739 3.77310
# Velocity P-wave (km/s) = 5.99209 6.55881 6.28185
#
# Compressibility (1/GPa) = 0.02487304
#
# Stress axis : x y z
#
# Youngs Moduli (GPa) = 105.31581 114.53715 48.52318
#
# Poissons Ratio (x) = 0.17086 0.11987
# Poissons Ratio (y) = 0.15710 0.14648
# Poissons Ratio (z) = 0.26017 0.34576
#
# Static dielectric constant tensor:
#      x y z
#    x 1.795090 0.000000 0.009000 
#    y 0.000000 1.786260 0.000000 
#    z 0.009000 0.000000 1.801720 
# 
# From -- ./inp_files/179962.got.cif
#   From: 2010.05.17/outbox.cif.g08.bks.cpg/sg15_90_cif.got.tgz:179962.got - 2010.06.03 18:47:42.
