data_PCOD9284485
_publ_section_title
;
Structure prediction by ZEFSAII (Michael W. Deem and Ramdas Pophale) SiO2 
 PCOD9284485
Probable space group: C 2/C
;
_chemical_formula_sum "Si O2"
_cell_formula_units_Z 44
_cell_length_a 15.837515
_cell_length_b 26.962790
_cell_length_c 12.214178
_cell_angle_alpha 90.000000
_cell_angle_beta 153.996512
_cell_angle_gamma 90.000000
_cell_volume 2286.716248
_symmetry_space_group_name_H-M "C 2/C"
_symmetry_group_IT_number 15
_symmetry_cell_setting 'monoclinic'
loop_
_space_group_symop_operation_xyz
x,y,z
-x,y,1/2-z
-x,-y,-z
x,-y,1/2+z
1/2+x,1/2+y,z
1/2-x,1/2+y,1/2-z
1/2-x,1/2-y,-z
1/2+x,1/2-y,1/2+z
loop_
_atom_site_type_symbol
_atom_site_label
_atom_site_fract_x
_atom_site_fract_y
_atom_site_fract_z
Si Si1 0.292651 0.379324 0.736391
Si Si2 0.001345 0.440716 0.986763
Si Si3 0.591593 0.679420 0.478304
Si Si4 0.492489 0.792390 0.109158
Si Si5 0.228800 0.944907 0.999588
Si Si6 0.000000 0.534791 0.250000
O O1 0.510582 0.361855 0.966937
O O2 0.234044 0.406244 0.554646
O O3 0.205651 0.417002 0.724027
O O4 0.180686 0.328097 0.624391
O O5 0.160338 0.426228 0.262705
O O6 0.045006 0.433443 0.910215
O O7 0.000000 0.500000 0.000000
O O8 0.500000 0.670475 0.250000
O O9 0.524663 0.734387 0.437452
O O10 0.816614 0.685381 0.721299
O O11 0.500000 0.793943 0.250000
O O12 0.000000 0.950031 0.750000
O O13 0.324402 0.997018 0.073719
#
# Coordination Sequence:
#
# PCOD9284485 Si02
#       6
#     8   8   8   8   8   4
#     4  12  21  33  55  81 115 150 187 224 285 342
#     4  10  21  41  58  79 113 151 192 238 280 331
#     4  11  20  30  48  75 117 152 178 221 274 349
#     4  11  19  32  45  76 118 153 179 217 277 343
#     4  11  22  34  58  87 111 149 186 230 285 342
#     4  10  22  46  56  76 116 150 196 244 276 322
#
# _framework density 19.241565999999999
#
# number of rings (size 3 to 8) (size 9 to 14) (size 15 to 20)
#    0.000    1.091    7.273    2.727    2.545    0.727 
#    0.000    0.000    0.000    0.000    0.000    1.273 
#    0.000    0.000    0.000    0.000    0.000    0.000 
#
# Total GULP energy -122719.169255 kJ/mol
# GULP energy per Si atom -5578.144057 kJ/mol
# Density = 1.919777 g / cm^3
# Si number density = 19.241566 Si / 1000 Ang^3
#
#
#
# Elastic Constant Matrix: (Units=GPa)
#
#
# Indices 1 2 3 4 5 6 
#
# 1 134.1762 38.4122 51.9908 0.0000 14.7572 0.0000
# 2 38.4122 82.1037 1.4066 0.0000 13.7304 0.0000
# 3 51.9908 1.4066 49.5932 0.0000 24.3030 0.0000
# 4 0.0000 0.0000 0.0000 -5.0690 0.0000 25.4112
# 5 14.7572 13.7304 24.3030 0.0000 45.7255 0.0000
# 6 0.0000 0.0000 0.0000 25.4112 0.0000 43.7708
#
#
#
# Elastic Compliance Matrix: (Units=1/GPa)
#
#
# Indices 1 2 3 4 5 6 
#
# 1 0.018391 -0.009805 -0.023712 0.000000 0.009612 0.000000
# 2 -0.009805 0.018209 0.014727 0.000000 -0.010131 0.000000
# 3 -0.023712 0.014727 0.058173 0.000000 -0.027689 0.000000
# 4 0.000000 0.000000 0.000000 -0.050450 0.000000 0.029289
# 5 0.009612 -0.010131 -0.027689 0.000000 0.036526 0.000000
# 6 0.000000 0.000000 0.000000 0.029289 0.000000 0.005843
#
#
# Mechanical properties :
#
#
# Convention : Reuss Voigt Hill
#
# Bulk Modulus (GPa) = 17.48451 49.94359 33.71405
# Shear Modulus (GPa) = 34.88314 28.48970 31.68642
#
# Velocity S-wave (km/s) = 4.26244 3.85207 4.06244
# Velocity P-wave (km/s) = 5.77331 6.76735 6.29000
#
# Compressibility (1/GPa) = 0.05719348
#
# Stress axis : x y z
#
# Youngs Moduli (GPa) = 54.37505 54.91783 17.19000
#
# Poissons Ratio (x) = 0.53849 0.40761
# Poissons Ratio (y) = 0.53316 -0.25317
# Poissons Ratio (z) = 1.28934 -0.80880
#
# Static dielectric constant tensor:
#      x y z
#    x 1.820640 0.000000 0.199460 
#    y 0.000000 1.740270 0.000000 
#    z 0.199460 0.000000 1.952460 
# 
# From -- ./inp_files/101572.got.cif
#   From: 2010.05.17/outbox.cif.g08.bks.cpg/sg15_51_cif.got.tgz:101572.got - 2010.06.03 18:47:42.
