data_PCOD9284054
_publ_section_title
;
Structure prediction by ZEFSAII (Michael W. Deem and Ramdas Pophale) SiO2 
 PCOD9284054
Probable space group: C 2/C
;
_chemical_formula_sum "Si O2"
_cell_formula_units_Z 64
_cell_length_a 27.816350
_cell_length_b 8.623945
_cell_length_c 16.453460
_cell_angle_alpha 90.000000
_cell_angle_beta 128.635558
_cell_angle_gamma 90.000000
_cell_volume 3083.105764
_symmetry_space_group_name_H-M "C 2/C"
_symmetry_group_IT_number 15
_symmetry_cell_setting 'monoclinic'
loop_
_space_group_symop_operation_xyz
x,y,z
-x,y,1/2-z
-x,-y,-z
x,-y,1/2+z
1/2+x,1/2+y,z
1/2-x,1/2+y,1/2-z
1/2-x,1/2-y,-z
1/2+x,1/2-y,1/2+z
loop_
_atom_site_type_symbol
_atom_site_label
_atom_site_fract_x
_atom_site_fract_y
_atom_site_fract_z
Si Si1 0.556760 0.613200 0.075558
Si Si2 0.934622 0.341750 0.717116
Si Si3 0.232845 0.341786 0.349093
Si Si4 0.142153 0.116733 0.753793
Si Si5 0.247778 0.323409 0.786902
Si Si6 0.908556 0.316705 0.240982
Si Si7 0.376055 0.717013 0.503155
Si Si8 0.347248 0.579089 0.075906
O O1 0.613647 0.499287 0.157716
O O2 0.553364 0.724870 0.150228
O O3 0.573232 0.713467 0.013797
O O4 0.500000 0.500000 0.000000
O O5 0.910099 0.225266 0.760119
O O6 0.935935 0.516394 0.750658
O O7 0.888894 0.330748 0.591457
O O8 0.000000 0.291763 0.750000
O O9 0.240554 0.498974 0.304879
O O10 0.247957 0.201525 0.304604
O O11 0.162386 0.336710 0.303589
O O12 0.284453 0.353358 0.473045
O O13 0.192187 0.226661 0.766614
O O14 0.166435 0.014402 0.855090
O O15 0.310545 0.258547 0.892235
O O16 0.898178 0.206806 0.152075
O O17 0.373721 0.546255 0.541092
#
# Coordination Sequence:
#
# PCOD9284054 Si02
#       8
#     8   8   8   8   8   8   8   8
#     4  11  23  44  67  88 126 171 226 261 308 389
#     4  11  24  42  62  90 131 167 214 268 320 371
#     4  11  22  38  59  94 131 160 205 258 325 387
#     4  10  21  40  66  93 123 172 211 260 327 379
#     4  11  22  37  64  92 131 160 205 265 327 393
#     4  11  23  42  59  95 125 165 214 266 315 384
#     4  10  22  41  62  94 121 167 212 260 322 387
#     4   9  22  36  63  88 125 163 209 252 321 392
#
# _framework density 20.758288
#
# number of rings (size 3 to 8) (size 9 to 14) (size 15 to 20)
#    0.000    1.500    2.500    2.625    3.500    3.500 
#    0.000    5.000    0.000    0.000    0.000    0.000 
#    0.000    0.000    0.000    0.000    0.000    0.000 
#
# Total GULP energy -178899.039124 kJ/mol
# GULP energy per Si atom -5590.594973 kJ/mol
# Density = 2.071104 g / cm^3
# Si number density = 20.758288 Si / 1000 Ang^3
#
#
#
# Elastic Constant Matrix: (Units=GPa)
#
#
# Indices 1 2 3 4 5 6 
#
# 1 55.4342 -5.2176 -5.4733 0.0000 1.3757 0.0000
# 2 -5.2176 67.3183 15.8268 0.0000 -3.8686 0.0000
# 3 -5.4733 15.8268 75.5184 0.0000 0.9728 0.0000
# 4 0.0000 0.0000 0.0000 32.9225 0.0000 -4.5056
# 5 1.3757 -3.8686 0.9728 0.0000 20.3046 0.0000
# 6 0.0000 0.0000 0.0000 -4.5056 0.0000 21.5274
#
#
#
# Elastic Compliance Matrix: (Units=1/GPa)
#
#
# Indices 1 2 3 4 5 6 
#
# 1 0.018279 0.001094 0.001110 0.000000 -0.001083 0.000000
# 2 0.001094 0.015892 -0.003291 0.000000 0.003111 0.000000
# 3 0.001110 -0.003291 0.014030 0.000000 -0.001374 0.000000
# 4 0.000000 0.000000 0.000000 0.031270 0.000000 0.006545
# 5 -0.001083 0.003111 -0.001374 0.000000 0.049982 0.000000
# 6 0.000000 0.000000 0.000000 0.006545 0.000000 0.047822
#
#
# Mechanical properties :
#
#
# Convention : Reuss Voigt Hill
#
# Bulk Modulus (GPa) = 21.72774 23.17141 22.44957
# Shear Modulus (GPa) = 25.66828 27.82656 26.74742
#
# Velocity S-wave (km/s) = 3.52025 3.66526 3.59349
# Velocity P-wave (km/s) = 5.19737 5.39434 5.29677
#
# Compressibility (1/GPa) = 0.04602413
#
# Stress axis : x y z
#
# Youngs Moduli (GPa) = 54.70830 62.92392 71.27723
#
# Poissons Ratio (x) = -0.06881 -0.07908
# Poissons Ratio (y) = -0.05983 0.23460
# Poissons Ratio (z) = -0.06070 0.20711
#
# Static dielectric constant tensor:
#      x y z
#    x 1.733800 0.000000 -0.002540 
#    y 0.000000 1.737650 0.000000 
#    z -0.002540 0.000000 1.747020 
# 
# From -- ./inp_files/180830.got.cif
#   From: 2010.05.17/outbox.cif.g08.bks.cpg/sg15_91_cif.got.tgz:180830.got - 2010.06.03 18:47:42.
