data_PCOD9284001
_publ_section_title
;
Structure prediction by ZEFSAII (Michael W. Deem and Ramdas Pophale) SiO2 
 PCOD9284001
Probable space group: C 2/C
;
_chemical_formula_sum "Si O2"
_cell_formula_units_Z 60
_cell_length_a 19.194888
_cell_length_b 29.839584
_cell_length_c 12.841079
_cell_angle_alpha 90.000000
_cell_angle_beta 26.253556
_cell_angle_gamma 90.000000
_cell_volume 3253.421645
_symmetry_space_group_name_H-M "C 2/C"
_symmetry_group_IT_number 15
_symmetry_cell_setting 'monoclinic'
loop_
_space_group_symop_operation_xyz
x,y,z
-x,y,1/2-z
-x,-y,-z
x,-y,1/2+z
1/2+x,1/2+y,z
1/2-x,1/2+y,1/2-z
1/2-x,1/2-y,-z
1/2+x,1/2-y,1/2+z
loop_
_atom_site_type_symbol
_atom_site_label
_atom_site_fract_x
_atom_site_fract_y
_atom_site_fract_z
Si Si1 0.403551 0.115346 0.487135
Si Si2 0.058229 0.548842 0.446058
Si Si3 0.702579 0.355605 0.616349
Si Si4 0.658790 0.192984 0.773107
Si Si5 0.410549 0.523222 0.975911
Si Si6 0.500000 0.081649 0.750000
Si Si7 0.630145 0.220426 0.484330
Si Si8 0.934325 0.926427 0.036571
O O1 0.500000 0.116844 0.250000
O O2 0.489807 0.084868 0.458345
O O3 0.377356 0.162584 0.579089
O O4 0.230967 0.093967 0.705745
O O5 0.011233 0.555936 0.628052
O O6 0.000000 0.500000 0.500000
O O7 0.243499 0.546381 0.189576
O O8 0.740496 0.333967 0.451649
O O9 0.845671 0.388835 0.446449
O O10 0.741177 0.316409 0.648881
O O11 0.545898 0.386210 0.841481
O O12 0.768445 0.234483 0.659682
O O13 0.488394 0.206539 0.950572
O O14 0.500000 0.531156 0.750000
O O15 0.487980 0.548375 0.969714
O O16 0.403026 0.469063 0.002490
O O17 0.500000 0.226065 0.750000
#
# Coordination Sequence:
#
# PCOD9284001 Si02
#       8
#     8   8   8   8   8   4   8   8
#     4  12  27  46  66  94 131 180 227 267 326 399
#     4  12  25  42  66  91 131 184 219 277 326 391
#     4  11  20  40  68  98 133 163 215 272 336 387
#     4  11  24  41  68 101 129 171 208 273 328 403
#     4  11  25  43  61  91 129 171 225 273 323 380
#     4  12  22  42  66  96 132 176 222 266 334 390
#     4  10  21  40  66 103 135 163 204 271 341 396
#     4  11  26  41  64  96 129 170 221 279 319 386
#
# _framework density 18.442122000000001
#
# number of rings (size 3 to 8) (size 9 to 14) (size 15 to 20)
#    0.000    0.800    6.000    2.400    8.400    0.000 
#    0.000    0.667    0.000    0.000    0.000    0.000 
#    0.000    0.000    0.000    0.000    0.000    0.000 
#
# Total GULP energy -167370.341786 kJ/mol
# GULP energy per Si atom -5579.011393 kJ/mol
# Density = 1.840015 g / cm^3
# Si number density = 18.442122 Si / 1000 Ang^3
#
#
#
# Elastic Constant Matrix: (Units=GPa)
#
#
# Indices 1 2 3 4 5 6 
#
# 1 173.2425 85.6043 -4.0286 -0.0073 17.3559 0.0036
# 2 85.6043 143.5096 49.1012 -0.0018 9.4737 0.0020
# 3 -4.0286 49.1012 132.7001 -0.0038 -6.0768 -0.0069
# 4 -0.0073 -0.0018 -0.0038 38.5686 0.0030 -7.6865
# 5 17.3559 9.4737 -6.0768 0.0030 37.3653 0.0036
# 6 0.0036 0.0020 -0.0069 -7.6865 0.0036 39.4181
#
#
#
# Elastic Compliance Matrix: (Units=1/GPa)
#
#
# Indices 1 2 3 4 5 6 
#
# 1 0.009063 -0.006085 0.002423 0.000002 -0.002273 0.000001
# 2 -0.006085 0.012307 -0.004788 -0.000001 -0.001072 -0.000001
# 3 0.002423 -0.004788 0.009455 0.000001 0.001626 0.000002
# 4 0.000002 -0.000001 0.000001 0.026976 -0.000003 0.005260
# 5 -0.002273 -0.001072 0.001626 -0.000003 0.028355 -0.000003
# 6 0.000001 -0.000001 0.000002 0.005260 -0.000003 0.026395
#
#
# Mechanical properties :
#
#
# Convention : Reuss Voigt Hill
#
# Bulk Modulus (GPa) = 71.81214 78.97846 75.39530
# Shear Modulus (GPa) = 37.28763 44.32210 40.80486
#
# Velocity S-wave (km/s) = 4.50140 4.90767 4.70892
# Velocity P-wave (km/s) = 8.12653 8.66208 8.39858
#
# Compressibility (1/GPa) = 0.01392522
#
# Stress axis : x y z
#
# Youngs Moduli (GPa) = 110.33761 81.25610 105.76093
#
# Poissons Ratio (x) = 0.49445 -0.25622
# Poissons Ratio (y) = 0.67141 0.50634
# Poissons Ratio (z) = -0.26731 0.38902
#
# Static dielectric constant tensor:
#      x y z
#    x 1.497480 0.000000 -0.019890 
#    y 0.000000 1.663360 0.000000 
#    z -0.019890 0.000000 1.575800 
# 
# From -- ./inp_files/108405.got.cif
#   From: 2010.05.17/outbox.cif.g08.bks.cpg/sg15_55_cif.got.tgz:108405.got - 2010.06.03 18:47:42.
