data_PCOD9284289
_publ_section_title
;
Structure prediction by ZEFSAII (Michael W. Deem and Ramdas Pophale) SiO2 
 PCOD9284289
Probable space group: C 2/C
;
_chemical_formula_sum "Si O2"
_cell_formula_units_Z 60
_cell_length_a 9.710970
_cell_length_b 19.144379
_cell_length_c 15.879862
_cell_angle_alpha 90.000000
_cell_angle_beta 74.402291
_cell_angle_gamma 90.000000
_cell_volume 2843.511987
_symmetry_space_group_name_H-M "C 2/C"
_symmetry_group_IT_number 15
_symmetry_cell_setting 'monoclinic'
loop_
_space_group_symop_operation_xyz
x,y,z
-x,y,1/2-z
-x,-y,-z
x,-y,1/2+z
1/2+x,1/2+y,z
1/2-x,1/2+y,1/2-z
1/2-x,1/2-y,-z
1/2+x,1/2-y,1/2+z
loop_
_atom_site_type_symbol
_atom_site_label
_atom_site_fract_x
_atom_site_fract_y
_atom_site_fract_z
Si Si1 0.044636 0.152047 0.149929
Si Si2 0.844135 0.141826 0.552480
Si Si3 0.283501 0.951316 0.033730
Si Si4 0.500000 0.158410 0.250000
Si Si5 0.214052 0.103773 0.368695
Si Si6 0.522223 0.469806 0.344870
Si Si7 0.433555 0.905473 0.461639
Si Si8 0.646383 0.793590 0.888037
O O1 0.181831 0.198903 0.150456
O O2 0.000000 0.120507 0.250000
O O3 0.886080 0.169066 0.141327
O O4 0.106358 0.120656 0.050328
O O5 0.915728 0.094254 0.611169
O O6 0.672323 0.132497 0.585466
O O7 0.881264 0.222674 0.557487
O O8 0.397024 0.914066 0.076717
O O9 0.140636 0.979280 0.098696
O O10 0.237201 0.902376 0.964167
O O11 0.367807 0.017097 0.980678
O O12 0.367418 0.111043 0.301129
O O13 0.438487 0.204704 0.184718
O O14 0.125418 0.035365 0.351496
O O15 0.500000 0.456629 0.250000
O O16 0.409370 0.860971 0.551038
#
# Coordination Sequence:
#
# PCOD9284289 Si02
#       8
#     8   8   8   4   8   8   8   8
#     4  11  21  40  72  99 125 172 227 271 334 398
#     4  11  24  45  66  95 143 180 223 272 336 406
#     4  11  22  41  68  99 133 168 222 285 343 404
#     4  12  26  42  70 102 132 168 240 284 330 404
#     4  12  23  43  69 100 132 167 224 293 339 401
#     4  12  26  42  65  96 136 182 222 274 346 398
#     4  10  21  40  68  97 127 175 218 276 349 393
#     4  11  24  43  65  96 138 180 225 275 324 404
#
# _framework density 21.100667000000001
#
# number of rings (size 3 to 8) (size 9 to 14) (size 15 to 20)
#    0.000    0.800    5.333    4.000    2.800    0.000 
#    0.000    6.667    0.000    0.000    0.000    0.000 
#    0.000    0.000    0.000    0.000    0.000    0.000 
#
# Total GULP energy -167040.069084 kJ/mol
# GULP energy per Si atom -5568.002303 kJ/mol
# Density = 2.105264 g / cm^3
# Si number density = 21.100667 Si / 1000 Ang^3
#
#
#
# Elastic Constant Matrix: (Units=GPa)
#
#
# Indices 1 2 3 4 5 6 
#
# 1 183.1917 30.0913 56.2454 0.0000 -1.0325 0.0000
# 2 30.0913 41.8576 20.1841 0.0000 5.9065 0.0000
# 3 56.2454 20.1841 85.4335 0.0000 6.4730 0.0000
# 4 0.0000 0.0000 0.0000 9.4967 0.0000 -0.9942
# 5 -1.0325 5.9065 6.4730 0.0000 44.9929 0.0000
# 6 0.0000 0.0000 0.0000 -0.9942 0.0000 5.3291
#
#
#
# Elastic Compliance Matrix: (Units=1/GPa)
#
#
# Indices 1 2 3 4 5 6 
#
# 1 0.007281 -0.003441 -0.004072 0.000000 0.001205 0.000000
# 2 -0.003441 0.028905 -0.004317 0.000000 -0.003252 0.000000
# 3 -0.004072 -0.004317 0.015539 0.000000 -0.001762 0.000000
# 4 0.000000 0.000000 0.000000 0.107397 0.000000 0.020036
# 5 0.001205 -0.003252 -0.001762 0.000000 0.022934 0.000000
# 6 0.000000 0.000000 0.000000 0.020036 0.000000 0.191386
#
#
# Mechanical properties :
#
#
# Convention : Reuss Voigt Hill
#
# Bulk Modulus (GPa) = 35.63119 58.16938 46.90029
# Shear Modulus (GPa) = 12.30144 25.56123 18.93133
#
# Velocity S-wave (km/s) = 2.41713 3.48428 2.99856
# Velocity P-wave (km/s) = 4.97122 6.61924 5.85352
#
# Compressibility (1/GPa) = 0.02806530
#
# Stress axis : x y z
#
# Youngs Moduli (GPa) = 137.34597 34.59629 64.35352
#
# Poissons Ratio (x) = 0.11904 0.26203
# Poissons Ratio (y) = 0.47257 0.27783
# Poissons Ratio (z) = 0.55924 0.14936
#
# Static dielectric constant tensor:
#      x y z
#    x 1.816290 0.000000 -0.009790 
#    y 0.000000 1.785980 0.000000 
#    z -0.009790 0.000000 1.788190 
# 
# From -- ./inp_files/137803.got.cif
#   From: 2010.05.17/outbox.cif.g08.bks.cpg/sg15_69_cif.got.tgz:137803.got - 2010.06.03 18:47:42.
