data_PCOD9284255
_publ_section_title
;
Structure prediction by ZEFSAII (Michael W. Deem and Ramdas Pophale) SiO2 
 PCOD9284255
Probable space group: C 2/C
;
_chemical_formula_sum "Si O2"
_cell_formula_units_Z 60
_cell_length_a 14.596304
_cell_length_b 11.200327
_cell_length_c 18.233101
_cell_angle_alpha 90.000000
_cell_angle_beta 68.688912
_cell_angle_gamma 90.000000
_cell_volume 2776.983945
_symmetry_space_group_name_H-M "C 2/C"
_symmetry_group_IT_number 15
_symmetry_cell_setting 'monoclinic'
loop_
_space_group_symop_operation_xyz
x,y,z
-x,y,1/2-z
-x,-y,-z
x,-y,1/2+z
1/2+x,1/2+y,z
1/2-x,1/2+y,1/2-z
1/2-x,1/2-y,-z
1/2+x,1/2-y,1/2+z
loop_
_atom_site_type_symbol
_atom_site_label
_atom_site_fract_x
_atom_site_fract_y
_atom_site_fract_z
Si Si1 0.098895 0.359773 0.818456
Si Si2 0.816902 0.610607 0.057066
Si Si3 0.000000 0.840035 0.250000
Si Si4 0.787957 0.798142 0.670985
Si Si5 0.907390 0.617985 0.735762
Si Si6 0.612907 0.464843 0.970863
Si Si7 0.821267 0.112470 0.891880
Si Si8 0.785543 0.354456 0.411088
O O1 0.104015 0.359133 0.904471
O O2 0.039370 0.249915 0.801589
O O3 0.209882 0.346453 0.753479
O O4 0.061768 0.489244 0.804208
O O5 0.764522 0.485504 0.088214
O O6 0.734379 0.714106 0.087103
O O7 0.851223 0.615125 0.962883
O O8 0.911406 0.914575 0.310484
O O9 0.856493 0.700388 0.690244
O O10 0.853680 0.895648 0.611619
O O11 0.722622 0.735711 0.626173
O O12 0.829053 0.598226 0.823386
O O13 0.000000 0.676353 0.750000
O O14 0.681655 0.581554 0.955511
O O15 0.500000 0.500000 0.000000
O O16 0.638638 0.389855 0.036894
#
# Coordination Sequence:
#
# PCOD9284255 Si02
#       8
#     8   8   4   8   8   8   8   8
#     4  11  21  41  66  93 127 179 212 271 333 395
#     4  10  21  40  68  90 126 181 214 259 344 385
#     4  10  24  40  66  98 134 172 226 280 320 398
#     4  11  23  42  68  90 131 176 219 269 333 393
#     4  12  24  42  65  98 131 168 225 274 329 392
#     4  11  25  42  68 100 135 173 220 277 332 395
#     4  10  23  42  66  98 132 174 222 272 331 394
#     4  10  23  43  65  92 138 176 211 277 332 393
#
# _framework density 21.606173999999999
#
# number of rings (size 3 to 8) (size 9 to 14) (size 15 to 20)
#    0.000    1.333    4.667    0.400    1.867    4.267 
#    1.200    0.667    0.000    0.000    0.000    0.000 
#    0.000    0.000    0.000    0.000    0.000    0.000 
#
# Total GULP energy -167686.915251 kJ/mol
# GULP energy per Si atom -5589.563842 kJ/mol
# Density = 2.155700 g / cm^3
# Si number density = 21.606174 Si / 1000 Ang^3
#
#
#
# Elastic Constant Matrix: (Units=GPa)
#
#
# Indices 1 2 3 4 5 6 
#
# 1 93.0139 -4.8997 21.9394 0.0000 22.6498 0.0000
# 2 -4.8997 32.0959 11.3399 0.0000 10.3276 0.0000
# 3 21.9394 11.3399 52.7030 0.0000 19.7559 0.0000
# 4 0.0000 0.0000 0.0000 25.1210 0.0000 3.8683
# 5 22.6498 10.3276 19.7559 0.0000 41.5422 0.0000
# 6 0.0000 0.0000 0.0000 3.8683 0.0000 10.3880
#
#
#
# Elastic Compliance Matrix: (Units=1/GPa)
#
#
# Indices 1 2 3 4 5 6 
#
# 1 0.013777 0.005876 -0.004425 0.000000 -0.006868 0.000000
# 2 0.005876 0.037503 -0.007082 0.000000 -0.009159 0.000000
# 3 -0.004425 -0.007082 0.025283 0.000000 -0.007850 0.000000
# 4 0.000000 0.000000 0.000000 0.042229 0.000000 -0.015725
# 5 -0.006868 -0.009159 -0.007850 0.000000 0.033827 0.000000
# 6 0.000000 0.000000 0.000000 -0.015725 0.000000 0.102121
#
#
# Mechanical properties :
#
#
# Convention : Reuss Voigt Hill
#
# Bulk Modulus (GPa) = 15.31359 26.06353 20.68856
# Shear Modulus (GPa) = 17.37507 25.37243 21.37375
#
# Velocity S-wave (km/s) = 2.83887 3.43054 3.14864
# Velocity P-wave (km/s) = 4.22475 5.27074 4.77647
#
# Compressibility (1/GPa) = 0.06530149
#
# Stress axis : x y z
#
# Youngs Moduli (GPa) = 72.58577 26.66435 39.55245
#
# Poissons Ratio (x) = -0.15669 0.17502
# Poissons Ratio (y) = -0.42655 0.28012
# Poissons Ratio (z) = 0.32119 0.18884
#
# Static dielectric constant tensor:
#      x y z
#    x 1.804670 0.000000 0.016640 
#    y 0.000000 1.763140 0.000000 
#    z 0.016640 0.000000 1.792860 
# 
# From -- ./inp_files/243689.got.cif
#   From: 2010.05.17/outbox.cif.g08.bks.cpg/sg15_122_cif.got.tgz:243689.got - 2010.06.03 18:47:42.
