data_PCOD9284235
_publ_section_title
;
Structure prediction by ZEFSAII (Michael W. Deem and Ramdas Pophale) SiO2 
 PCOD9284235
Probable space group: C 2/C
;
_chemical_formula_sum "Si O2"
_cell_formula_units_Z 40
_cell_length_a 19.460025
_cell_length_b 10.028251
_cell_length_c 10.345468
_cell_angle_alpha 90.000000
_cell_angle_beta 47.269734
_cell_angle_gamma 90.000000
_cell_volume 1483.009031
_symmetry_space_group_name_H-M "C 2/C"
_symmetry_group_IT_number 15
_symmetry_cell_setting 'monoclinic'
loop_
_space_group_symop_operation_xyz
x,y,z
-x,y,1/2-z
-x,-y,-z
x,-y,1/2+z
1/2+x,1/2+y,z
1/2-x,1/2+y,1/2-z
1/2-x,1/2-y,-z
1/2+x,1/2-y,1/2+z
loop_
_atom_site_type_symbol
_atom_site_label
_atom_site_fract_x
_atom_site_fract_y
_atom_site_fract_z
Si Si1 0.045722 0.800484 0.400250
Si Si2 0.354668 0.250718 0.710974
Si Si3 0.087993 0.511745 0.227435
Si Si4 0.164202 0.858104 0.474574
Si Si5 0.218930 0.096550 0.541901
O O1 0.071189 0.653880 0.316262
O O2 0.071175 0.822700 0.517263
O O3 0.118914 0.900343 0.240173
O O4 0.935193 0.818087 0.522748
O O5 0.344490 0.317115 0.864908
O O6 0.397610 0.105034 0.688380
O O7 0.249159 0.224609 0.799931
O O8 0.000000 0.483185 0.250000
O O9 0.187133 0.523931 0.024642
O O10 0.198759 0.010928 0.438276
O O11 0.250000 0.250000 0.500000
#
# Coordination Sequence:
#
# PCOD9284235 Si02
#       5
#     8   8   8   8   8
#     4  11  22  40  71  95 131 185 220 275 348 400
#     4  10  22  41  65 103 132 180 224 279 333 406
#     4  10  21  40  68 101 135 170 232 284 323 400
#     4  10  22  43  65  95 141 171 230 281 340 404
#     4   9  22  44  62  97 132 176 223 289 331 399
#
# _framework density 26.972190999999999
#
# number of rings (size 3 to 8) (size 9 to 14) (size 15 to 20)
#    0.000    2.000    0.000    2.400    2.800    0.800 
#   28.800    8.000    4.400    0.000    0.000    0.000 
#    0.000    0.000    0.000    0.000    0.000    0.000 
#
# Total GULP energy -111909.230865 kJ/mol
# GULP energy per Si atom -5595.461543 kJ/mol
# Density = 2.691080 g / cm^3
# Si number density = 26.972191 Si / 1000 Ang^3
#
#
#
# Elastic Constant Matrix: (Units=GPa)
#
#
# Indices 1 2 3 4 5 6 
#
# 1 83.0819 36.7781 15.3163 0.0000 -30.1310 0.0000
# 2 36.7781 76.4538 36.3387 0.0000 -10.9557 0.0000
# 3 15.3163 36.3387 174.2005 0.0000 -48.1721 0.0000
# 4 0.0000 0.0000 0.0000 32.8943 0.0000 -0.6632
# 5 -30.1310 -10.9557 -48.1721 0.0000 52.6693 0.0000
# 6 0.0000 0.0000 0.0000 -0.6632 0.0000 30.0874
#
#
#
# Elastic Compliance Matrix: (Units=1/GPa)
#
#
# Indices 1 2 3 4 5 6 
#
# 1 0.020454 -0.009799 0.003906 0.000000 0.013235 0.000000
# 2 -0.009799 0.019218 -0.004808 0.000000 -0.006006 0.000000
# 3 0.003906 -0.004808 0.009024 0.000000 0.009487 0.000000
# 4 0.000000 0.000000 0.000000 0.030414 0.000000 0.000670
# 5 0.013235 -0.006006 0.009487 0.000000 0.033986 0.000000
# 6 0.000000 0.000000 0.000000 0.000670 0.000000 0.033251
#
#
# Mechanical properties :
#
#
# Convention : Reuss Voigt Hill
#
# Bulk Modulus (GPa) = 36.63991 56.73358 46.68675
# Shear Modulus (GPa) = 28.27274 39.48373 33.87824
#
# Velocity S-wave (km/s) = 3.24113 3.83020 3.54791
# Velocity P-wave (km/s) = 5.25551 6.37498 5.84212
#
# Compressibility (1/GPa) = 0.02729265
#
# Stress axis : x y z
#
# Youngs Moduli (GPa) = 48.88987 52.03330 110.81903
#
# Poissons Ratio (x) = 0.50989 -0.43283
# Poissons Ratio (y) = 0.47908 0.53285
# Poissons Ratio (z) = -0.19095 0.25019
#
# Static dielectric constant tensor:
#      x y z
#    x 2.023640 0.000000 0.033200 
#    y 0.000000 2.103700 0.000000 
#    z 0.033200 0.000000 2.180400 
# 
# From -- ./inp_files/111387.got.cif
#   From: 2010.05.17/outbox.cif.g08.bks.cpg/sg15_56_cif.got.tgz:111387.got - 2010.06.03 18:47:42.
