data_PCOD9284105
_publ_section_title
;
Structure prediction by ZEFSAII (Michael W. Deem and Ramdas Pophale) SiO2 
 PCOD9284105
Probable space group: C 2/C
;
_chemical_formula_sum "Si O2"
_cell_formula_units_Z 40
_cell_length_a 15.863687
_cell_length_b 24.373444
_cell_length_c 4.899873
_cell_angle_alpha 90.000000
_cell_angle_beta 73.304811
_cell_angle_gamma 90.000000
_cell_volume 1814.687415
_symmetry_space_group_name_H-M "C 2/C"
_symmetry_group_IT_number 15
_symmetry_cell_setting 'monoclinic'
loop_
_space_group_symop_operation_xyz
x,y,z
-x,y,1/2-z
-x,-y,-z
x,-y,1/2+z
1/2+x,1/2+y,z
1/2-x,1/2+y,1/2-z
1/2-x,1/2-y,-z
1/2+x,1/2-y,1/2+z
loop_
_atom_site_type_symbol
_atom_site_label
_atom_site_fract_x
_atom_site_fract_y
_atom_site_fract_z
Si Si1 0.500000 0.669070 0.750000
Si Si2 0.762539 0.371764 0.403940
Si Si3 0.605265 0.037602 0.659606
Si Si4 0.500000 0.592079 0.250000
Si Si5 0.299589 0.695110 0.044907
Si Si6 0.837080 0.967386 0.685168
O O1 0.468688 0.632515 0.520611
O O2 0.592471 0.698015 0.567511
O O3 0.856926 0.402333 0.305117
O O4 0.740410 0.320932 0.623620
O O5 0.713276 0.419609 0.614489
O O6 0.730459 0.352571 0.138659
O O7 0.500000 0.041418 0.750000
O O8 0.632533 0.009481 0.350078
O O9 0.564816 0.552354 0.350005
O O10 0.250000 0.750000 0.000000
O O11 0.821663 0.978832 0.384560
#
# Coordination Sequence:
#
# PCOD9284105 Si02
#       6
#     4   8   8   4   8   8
#     4  12  22  47  66  90 126 172 204 269 338 366
#     4  12  23  43  65  95 131 163 215 264 319 381
#     4  10  21  40  66  96 134 175 212 257 320 383
#     4  12  22  39  62  88 136 170 204 249 298 376
#     4  12  26  46  69  92 124 165 219 273 328 384
#     4  12  22  35  58  92 129 169 203 240 293 369
#
# _framework density 22.042363999999999
#
# number of rings (size 3 to 8) (size 9 to 14) (size 15 to 20)
#    0.000    0.400    4.000    6.000    0.000    0.000 
#    3.600    0.000    0.000    0.000    0.000    0.000 
#    0.000    0.000    0.000    0.000    0.000    0.000 
#
# Total GULP energy -111592.482048 kJ/mol
# GULP energy per Si atom -5579.624102 kJ/mol
# Density = 2.199220 g / cm^3
# Si number density = 22.042364 Si / 1000 Ang^3
#
#
#
# Elastic Constant Matrix: (Units=GPa)
#
#
# Indices 1 2 3 4 5 6 
#
# 1 107.5900 28.3831 2.9941 0.0000 -7.2391 0.0000
# 2 28.3831 76.7504 1.9749 0.0000 -5.6842 0.0000
# 3 2.9941 1.9749 92.4934 0.0000 12.7967 0.0000
# 4 0.0000 0.0000 0.0000 25.7386 0.0000 -5.5667
# 5 -7.2391 -5.6842 12.7967 0.0000 25.0415 0.0000
# 6 0.0000 0.0000 0.0000 -5.5667 0.0000 2.6644
#
#
#
# Elastic Compliance Matrix: (Units=1/GPa)
#
#
# Indices 1 2 3 4 5 6 
#
# 1 0.010446 -0.003662 -0.000606 0.000000 0.002498 0.000000
# 2 -0.003662 0.014585 -0.000543 0.000000 0.002529 0.000000
# 3 -0.000606 -0.000543 0.011712 0.000000 -0.006283 0.000000
# 4 0.000000 0.000000 0.000000 0.070883 0.000000 0.148098
# 5 0.002498 0.002529 -0.006283 0.000000 0.044441 0.000000
# 6 0.000000 0.000000 0.000000 0.148098 0.000000 0.684749
#
#
# Mechanical properties :
#
#
# Convention : Reuss Voigt Hill
#
# Bulk Modulus (GPa) = 36.87134 38.17089 37.52111
# Shear Modulus (GPa) = 5.84469 26.92102 16.38285
#
# Velocity S-wave (km/s) = 1.63013 3.49855 2.72921
# Velocity P-wave (km/s) = 4.50632 5.80297 5.19525
#
# Compressibility (1/GPa) = 0.02712133
#
# Stress axis : x y z
#
# Youngs Moduli (GPa) = 95.73411 68.56409 85.38191
#
# Poissons Ratio (x) = 0.25110 0.05170
# Poissons Ratio (y) = 0.35061 0.04635
# Poissons Ratio (z) = 0.05797 0.03722
#
# Static dielectric constant tensor:
#      x y z
#    x 2.131700 0.000000 -0.135480 
#    y 0.000000 1.934470 0.000000 
#    z -0.135480 0.000000 1.828360 
# 
# From -- ./inp_files/9828.got.cif
#   From: 2010.05.17/outbox.cif.g08.bks.cpg/sg15_5_cif.got.tgz:9828.got - 2010.06.03 18:47:42.
