data_PCOD9284073
_publ_section_title
;
Structure prediction by ZEFSAII (Michael W. Deem and Ramdas Pophale) SiO2 
 PCOD9284073
Probable space group: C 2/C
;
_chemical_formula_sum "Si O2"
_cell_formula_units_Z 40
_cell_length_a 25.143938
_cell_length_b 8.728162
_cell_length_c 13.019287
_cell_angle_alpha 90.000000
_cell_angle_beta 39.300493
_cell_angle_gamma 90.000000
_cell_volume 1809.725917
_symmetry_space_group_name_H-M "C 2/C"
_symmetry_group_IT_number 15
_symmetry_cell_setting 'monoclinic'
loop_
_space_group_symop_operation_xyz
x,y,z
-x,y,1/2-z
-x,-y,-z
x,-y,1/2+z
1/2+x,1/2+y,z
1/2-x,1/2+y,1/2-z
1/2-x,1/2-y,-z
1/2+x,1/2-y,1/2+z
loop_
_atom_site_type_symbol
_atom_site_label
_atom_site_fract_x
_atom_site_fract_y
_atom_site_fract_z
Si Si1 0.680724 0.300408 0.185237
Si Si2 0.902897 0.966259 0.369326
Si Si3 0.325231 0.795774 0.464159
Si Si4 0.902577 0.523614 0.668943
Si Si5 0.703932 0.750323 0.317981
O O1 0.620396 0.412851 0.212226
O O2 0.735490 0.351188 0.199708
O O3 0.635049 0.145082 0.285069
O O4 0.750000 0.250000 0.000000
O O5 0.878418 0.144368 0.410876
O O6 0.000000 0.943250 0.250000
O O7 0.848756 0.864771 0.530706
O O8 0.250000 0.750000 0.500000
O O9 0.381006 0.916371 0.316982
O O10 0.271425 0.834164 0.644628
O O11 0.857884 0.644140 0.658262
O O12 0.000000 0.500000 0.500000
#
# Coordination Sequence:
#
# PCOD9284073 Si02
#       5
#     8   8   8   8   8
#     4  10  22  41  66  94 127 175 218 258 323 396
#     4  11  24  43  66  98 132 170 220 278 328 380
#     4  10  23  43  65  92 128 173 219 263 323 400
#     4  11  24  43  67 100 131 168 220 278 327 380
#     4  10  21  40  66  94 130 176 217 261 322 394
#
# _framework density 22.102793999999999
#
# number of rings (size 3 to 8) (size 9 to 14) (size 15 to 20)
#    0.000    1.600    0.000    6.000    0.000   14.400 
#    0.000   11.000    0.000    0.000    0.000    0.000 
#    0.000    0.000    0.000    0.000    0.000    0.000 
#
# Total GULP energy -111696.081507 kJ/mol
# GULP energy per Si atom -5584.804075 kJ/mol
# Density = 2.205249 g / cm^3
# Si number density = 22.102794 Si / 1000 Ang^3
#
#
#
# Elastic Constant Matrix: (Units=GPa)
#
#
# Indices 1 2 3 4 5 6 
#
# 1 131.6647 44.6473 85.0917 0.0000 -8.1434 0.0000
# 2 44.6473 125.6242 58.2940 0.0000 -9.6465 -0.0001
# 3 85.0917 58.2940 164.6029 0.0000 -15.9250 0.0000
# 4 0.0000 0.0000 0.0000 54.5143 0.0000 11.1218
# 5 -8.1434 -9.6465 -15.9250 0.0000 36.8382 0.0000
# 6 0.0000 -0.0001 0.0000 11.1218 0.0000 52.1034
#
#
#
# Elastic Compliance Matrix: (Units=1/GPa)
#
#
# Indices 1 2 3 4 5 6 
#
# 1 0.011674 -0.001622 -0.005481 0.000000 -0.000214 0.000000
# 2 -0.001622 0.009792 -0.002522 0.000000 0.001116 0.000000
# 3 -0.005481 -0.002522 0.010041 0.000000 0.002469 0.000000
# 4 0.000000 0.000000 0.000000 0.019179 0.000000 -0.004094
# 5 -0.000214 0.001116 0.002469 0.000000 0.028458 0.000000
# 6 0.000000 0.000000 0.000000 -0.004094 0.000000 0.020066
#
#
# Mechanical properties :
#
#
# Convention : Reuss Voigt Hill
#
# Bulk Modulus (GPa) = 81.58128 88.66196 85.12162
# Shear Modulus (GPa) = 40.80095 44.28177 42.54136
#
# Velocity S-wave (km/s) = 4.30113 4.48084 4.39191
# Velocity P-wave (km/s) = 7.85216 8.18359 8.01959
#
# Compressibility (1/GPa) = 0.01225771
#
# Stress axis : x y z
#
# Youngs Moduli (GPa) = 85.65853 102.11922 99.59548
#
# Poissons Ratio (x) = 0.16563 0.54591
# Poissons Ratio (y) = 0.13894 0.25114
# Poissons Ratio (z) = 0.46952 0.25750
#
# Static dielectric constant tensor:
#      x y z
#    x 1.885070 0.000000 0.059310 
#    y 0.000000 1.823810 0.000000 
#    z 0.059310 0.000000 1.785400 
# 
# From -- ./inp_files/181006.got.cif
#   From: 2010.05.17/outbox.cif.g08.bks.cpg/sg15_91_cif.got.tgz:181006.got - 2010.06.03 18:47:42.
