data_PCOD9284475
_publ_section_title
;
Structure prediction by ZEFSAII (Michael W. Deem and Ramdas Pophale) SiO2 
 PCOD9284475
Probable space group: C 2/C
;
_chemical_formula_sum "Si O2"
_cell_formula_units_Z 56
_cell_length_a 9.335724
_cell_length_b 28.801248
_cell_length_c 10.478784
_cell_angle_alpha 90.000000
_cell_angle_beta 106.996043
_cell_angle_gamma 90.000000
_cell_volume 2694.484461
_symmetry_space_group_name_H-M "C 2/C"
_symmetry_group_IT_number 15
_symmetry_cell_setting 'monoclinic'
loop_
_space_group_symop_operation_xyz
x,y,z
-x,y,1/2-z
-x,-y,-z
x,-y,1/2+z
1/2+x,1/2+y,z
1/2-x,1/2+y,1/2-z
1/2-x,1/2-y,-z
1/2+x,1/2-y,1/2+z
loop_
_atom_site_type_symbol
_atom_site_label
_atom_site_fract_x
_atom_site_fract_y
_atom_site_fract_z
Si Si1 0.890493 0.670939 0.363817
Si Si2 0.769750 0.344524 0.498663
Si Si3 0.159046 0.668903 0.856964
Si Si4 0.327277 0.267031 0.210899
Si Si5 0.328955 0.404715 0.259381
Si Si6 0.396883 0.504628 0.347951
Si Si7 0.353619 0.607720 0.301493
O O1 0.867556 0.683944 0.505716
O O2 0.840036 0.713430 0.258487
O O3 0.784494 0.627489 0.313050
O O4 0.063585 0.656068 0.401170
O O5 0.739645 0.293500 0.430989
O O6 0.762142 0.382074 0.381996
O O7 0.648069 0.360553 0.571444
O O8 0.230227 0.710786 0.797292
O O9 0.278309 0.627409 0.864611
O O10 0.000000 0.656380 0.750000
O O11 0.500000 0.283007 0.250000
O O12 0.500000 0.401575 0.250000
O O13 0.304151 0.457710 0.297209
O O14 0.500000 0.507845 0.250000
O O15 0.500000 0.500000 0.500000
O O16 0.322083 0.554960 0.335943
O O17 0.500000 0.610975 0.250000
#
# Coordination Sequence:
#
# PCOD9284475 Si02
#       7
#     8   8   8   8   8   8   8
#     4  12  26  44  66  95 142 171 220 282 336 394
#     4  11  23  48  66  94 138 181 220 268 349 402
#     4  11  22  44  66 101 134 172 221 277 334 394
#     4  11  25  43  70  91 126 183 227 268 325 408
#     4  10  21  40  76  96 130 186 222 265 327 415
#     4  10  22  41  67 104 140 171 225 282 333 393
#     4  11  26  41  69 103 132 171 223 289 330 387
#
# _framework density 20.783196
#
# number of rings (size 3 to 8) (size 9 to 14) (size 15 to 20)
#    0.000    1.143    2.857    5.143    8.000    2.857 
#    0.000    2.143    0.000    0.000    0.000    0.000 
#    0.000    0.000    0.000    0.000    0.000    0.000 
#
# Total GULP energy -156105.995784 kJ/mol
# GULP energy per Si atom -5575.214135 kJ/mol
# Density = 2.073589 g / cm^3
# Si number density = 20.783196 Si / 1000 Ang^3
#
#
#
# Elastic Constant Matrix: (Units=GPa)
#
#
# Indices 1 2 3 4 5 6 
#
# 1 111.3880 50.2029 27.6014 0.0000 -0.6024 0.0000
# 2 50.2029 165.9473 61.1791 0.0000 13.5156 0.0000
# 3 27.6014 61.1791 103.6076 0.0000 -0.8119 0.0000
# 4 0.0000 0.0000 0.0000 121.7697 0.0000 -16.7103
# 5 -0.6024 13.5156 -0.8119 0.0000 48.9319 0.0000
# 6 0.0000 0.0000 0.0000 -16.7103 0.0000 22.1603
#
#
#
# Elastic Compliance Matrix: (Units=1/GPa)
#
#
# Indices 1 2 3 4 5 6 
#
# 1 0.010545 -0.002851 -0.001119 0.000000 0.000899 0.000000
# 2 -0.002851 0.008719 -0.004409 0.000000 -0.002516 0.000000
# 3 -0.001119 -0.004409 0.012564 0.000000 0.001412 0.000000
# 4 0.000000 0.000000 0.000000 0.009160 0.000000 0.006907
# 5 0.000899 -0.002516 0.001412 0.000000 0.021166 0.000000
# 6 0.000000 0.000000 0.000000 0.006907 0.000000 0.050334
#
#
# Mechanical properties :
#
#
# Convention : Reuss Voigt Hill
#
# Bulk Modulus (GPa) = 66.35133 73.21218 69.78176
# Shear Modulus (GPa) = 37.23911 54.70303 45.97107
#
# Velocity S-wave (km/s) = 4.23755 5.13595 4.70822
# Velocity P-wave (km/s) = 7.47912 8.39486 7.95018
#
# Compressibility (1/GPa) = 0.01507129
#
# Stress axis : x y z
#
# Youngs Moduli (GPa) = 94.83590 114.69672 79.59191
#
# Poissons Ratio (x) = 0.32697 0.08904
# Poissons Ratio (y) = 0.27035 0.35088
# Poissons Ratio (z) = 0.10610 0.50565
#
# Static dielectric constant tensor:
#      x y z
#    x 1.734390 0.000000 -0.023060 
#    y 0.000000 1.779340 0.000000 
#    z -0.023060 0.000000 1.812040 
# 
# From -- ./inp_files/81394.got.cif
#   From: 2010.05.17/outbox.cif.g08.bks.cpg/sg15_41_cif.got.tgz:81394.got - 2010.06.03 18:47:42.
