data_PCOD9284566
_publ_section_title
;
Structure prediction by ZEFSAII (Michael W. Deem and Ramdas Pophale) SiO2 
 PCOD9284566
Probable space group: C 2/C
;
_chemical_formula_sum "Si O2"
_cell_formula_units_Z 52
_cell_length_a 8.795139
_cell_length_b 17.452050
_cell_length_c 17.332798
_cell_angle_alpha 90.000000
_cell_angle_beta 126.023897
_cell_angle_gamma 90.000000
_cell_volume 2151.710383
_symmetry_space_group_name_H-M "C 2/C"
_symmetry_group_IT_number 15
_symmetry_cell_setting 'monoclinic'
loop_
_space_group_symop_operation_xyz
x,y,z
-x,y,1/2-z
-x,-y,-z
x,-y,1/2+z
1/2+x,1/2+y,z
1/2-x,1/2+y,1/2-z
1/2-x,1/2-y,-z
1/2+x,1/2-y,1/2+z
loop_
_atom_site_type_symbol
_atom_site_label
_atom_site_fract_x
_atom_site_fract_y
_atom_site_fract_z
Si Si1 0.219273 0.875193 0.498562
Si Si2 0.325577 0.552798 0.359269
Si Si3 0.908685 0.238196 0.944495
Si Si4 0.000000 0.428549 0.250000
Si Si5 0.148436 0.366493 0.675988
Si Si6 0.415477 0.858654 0.073666
Si Si7 0.772629 0.018294 0.088869
O O1 0.128774 0.926883 0.539359
O O2 0.425570 0.860535 0.595108
O O3 0.076073 0.805101 0.450599
O O4 0.242426 0.927937 0.430210
O O5 0.220852 0.622792 0.283579
O O6 0.513924 0.538222 0.368184
O O7 0.179623 0.482806 0.316492
O O8 0.784250 0.291968 0.850891
O O9 0.774423 0.178724 0.947749
O O10 0.987344 0.295952 0.033806
O O11 0.035687 0.379325 0.184097
O O12 0.215523 0.444020 0.652522
O O13 0.357937 0.935646 0.010911
#
# Coordination Sequence:
#
# PCOD9284566 Si02
#       7
#     8   8   8   4   8   8   8
#     4  12  21  41  68  93 126 173 218 270 331 395
#     4  12  22  39  65  96 125 164 224 272 325 381
#     4  10  23  40  62  91 131 173 214 257 345 404
#     4  12  22  38  66  98 124 164 222 286 322 384
#     4  11  24  40  60  98 133 169 215 272 332 390
#     4  10  21  41  61  95 125 167 220 269 324 399
#     4  11  22  41  68  89 128 171 218 269 325 396
#
# _framework density 24.166820999999999
#
# number of rings (size 3 to 8) (size 9 to 14) (size 15 to 20)
#    0.000    0.923    4.615    2.769    0.000    2.462 
#    0.000    0.000    0.000    1.846    0.000    0.000 
#    0.000    0.000    0.000    0.000    0.000    0.000 
#
# Total GULP energy -145514.711900 kJ/mol
# GULP energy per Si atom -5596.719688 kJ/mol
# Density = 2.411182 g / cm^3
# Si number density = 24.166821 Si / 1000 Ang^3
#
#
#
# Elastic Constant Matrix: (Units=GPa)
#
#
# Indices 1 2 3 4 5 6 
#
# 1 87.9851 27.3904 -4.9988 0.0000 5.1285 0.0000
# 2 27.3904 111.3130 23.9298 0.0000 -8.2448 0.0000
# 3 -4.9988 23.9298 71.0053 0.0000 -18.0450 0.0000
# 4 0.0000 0.0000 0.0000 18.9465 0.0000 -4.5833
# 5 5.1285 -8.2448 -18.0450 0.0000 36.9515 0.0000
# 6 0.0000 0.0000 0.0000 -4.5833 0.0000 35.4041
#
#
#
# Elastic Compliance Matrix: (Units=1/GPa)
#
#
# Indices 1 2 3 4 5 6 
#
# 1 0.012686 -0.003609 0.001664 0.000000 -0.001753 0.000000
# 2 -0.003609 0.010726 -0.003577 0.000000 0.001147 0.000000
# 3 0.001664 -0.003577 0.017290 0.000000 0.007415 0.000000
# 4 0.000000 0.000000 0.000000 0.054487 0.000000 0.007054
# 5 -0.001753 0.001147 0.007415 0.000000 0.031183 0.000000
# 6 0.000000 0.000000 0.000000 0.007054 0.000000 0.029158
#
#
# Mechanical properties :
#
#
# Convention : Reuss Voigt Hill
#
# Bulk Modulus (GPa) = 33.71900 40.32736 37.02318
# Shear Modulus (GPa) = 28.33492 33.19255 30.76373
#
# Velocity S-wave (km/s) = 3.42785 3.71006 3.57175
# Velocity P-wave (km/s) = 5.44516 5.92251 5.68884
#
# Compressibility (1/GPa) = 0.02965687
#
# Stress axis : x y z
#
# Youngs Moduli (GPa) = 78.82809 93.23351 57.83527
#
# Poissons Ratio (x) = 0.33649 -0.09623
# Poissons Ratio (y) = 0.28450 0.20689
# Poissons Ratio (z) = -0.13115 0.33352
#
# Static dielectric constant tensor:
#      x y z
#    x 2.004080 0.000000 -0.025980 
#    y 0.000000 1.985560 0.000000 
#    z -0.025980 0.000000 1.904660 
# 
# From -- ./inp_files/191115.got.cif
#   From: 2010.05.17/outbox.cif.g08.bks.cpg/sg15_96_cif.got.tgz:191115.got - 2010.06.03 18:47:42.
