data_PCOD9284555
_publ_section_title
;
Structure prediction by ZEFSAII (Michael W. Deem and Ramdas Pophale) SiO2 
 PCOD9284555
Probable space group: C 2/C
;
_chemical_formula_sum "Si O2"
_cell_formula_units_Z 56
_cell_length_a 17.174235
_cell_length_b 27.094967
_cell_length_c 8.412807
_cell_angle_alpha 90.000000
_cell_angle_beta 47.615123
_cell_angle_gamma 90.000000
_cell_volume 2891.584135
_symmetry_space_group_name_H-M "C 2/C"
_symmetry_group_IT_number 15
_symmetry_cell_setting 'monoclinic'
loop_
_space_group_symop_operation_xyz
x,y,z
-x,y,1/2-z
-x,-y,-z
x,-y,1/2+z
1/2+x,1/2+y,z
1/2-x,1/2+y,1/2-z
1/2-x,1/2-y,-z
1/2+x,1/2-y,1/2+z
loop_
_atom_site_type_symbol
_atom_site_label
_atom_site_fract_x
_atom_site_fract_y
_atom_site_fract_z
Si Si1 0.612669 0.974368 0.866585
Si Si2 0.122607 0.889997 0.111534
Si Si3 0.672824 0.285813 0.205390
Si Si4 0.315754 0.157574 0.742013
Si Si5 0.282240 0.058662 0.597759
Si Si6 0.967118 0.703419 0.979039
Si Si7 0.193048 0.379191 0.888220
O O1 0.643389 0.953082 0.653501
O O2 0.621027 0.928465 0.976996
O O3 0.698924 0.014272 0.806073
O O4 0.500000 0.000000 0.000000
O O5 0.140868 0.835027 0.155648
O O6 0.169346 0.929265 0.174352
O O7 0.000000 0.898166 0.250000
O O8 0.198664 0.891730 0.852028
O O9 0.732841 0.304315 0.281436
O O10 0.572308 0.253633 0.390594
O O11 0.750000 0.250000 0.000000
O O12 0.315755 0.108884 0.635648
O O13 0.430596 0.181572 0.578567
O O14 0.291079 0.140333 0.955510
O O15 0.000000 0.710371 0.750000
O O16 0.872015 0.663744 0.112154
#
# Coordination Sequence:
#
# PCOD9284555 Si02
#       7
#     8   8   8   8   8   8   8
#     4  11  21  36  65  93 128 161 197 250 317 382
#     4  10  23  42  63  87 124 167 211 260 307 364
#     4  11  23  39  58  89 120 162 216 253 309 371
#     4  10  23  40  62  87 128 162 200 260 315 371
#     4  10  22  40  59  94 124 158 207 249 310 377
#     4  10  22  37  60  90 124 163 202 252 317 371
#     4  10  21  41  61  92 127 160 208 254 309 379
#
# _framework density 19.366546
#
# number of rings (size 3 to 8) (size 9 to 14) (size 15 to 20)
#    0.000    1.714    1.429    2.143    2.000    6.857 
#    0.000    5.000    0.000    0.000    0.000    0.000 
#    0.000    0.000    0.000    0.000    0.000    0.000 
#
# Total GULP energy -156405.573378 kJ/mol
# GULP energy per Si atom -5585.913335 kJ/mol
# Density = 1.932247 g / cm^3
# Si number density = 19.366546 Si / 1000 Ang^3
#
#
#
# Elastic Constant Matrix: (Units=GPa)
#
#
# Indices 1 2 3 4 5 6 
#
# 1 129.7233 44.0551 49.8725 0.0000 -8.6509 0.0000
# 2 44.0551 87.1898 25.0223 0.0000 -0.7270 0.0000
# 3 49.8725 25.0223 74.1373 0.0000 -17.5621 0.0000
# 4 0.0000 0.0000 0.0000 32.4681 0.0000 -0.1640
# 5 -8.6509 -0.7270 -17.5621 0.0000 21.7112 0.0000
# 6 0.0000 0.0000 0.0000 -0.1640 0.0000 25.9679
#
#
#
# Elastic Compliance Matrix: (Units=1/GPa)
#
#
# Indices 1 2 3 4 5 6 
#
# 1 0.011540 -0.003929 -0.006654 0.000000 -0.000916 0.000000
# 2 -0.003929 0.014290 -0.003015 0.000000 -0.003526 0.000000
# 3 -0.006654 -0.003015 0.022675 0.000000 0.015590 0.000000
# 4 0.000000 0.000000 0.000000 0.030800 0.000000 0.000195
# 5 -0.000916 -0.003526 0.015590 0.000000 0.058187 0.000000
# 6 0.000000 0.000000 0.000000 0.000195 0.000000 0.038510
#
#
# Mechanical properties :
#
#
# Convention : Reuss Voigt Hill
#
# Bulk Modulus (GPa) = 46.92819 58.77226 52.85023
# Shear Modulus (GPa) = 23.77519 27.50280 25.63899
#
# Velocity S-wave (km/s) = 3.50757 3.77254 3.64246
# Velocity P-wave (km/s) = 6.37874 7.02775 6.71109
#
# Compressibility (1/GPa) = 0.02130915
#
# Stress axis : x y z
#
# Youngs Moduli (GPa) = 86.65452 69.97669 44.10076
#
# Poissons Ratio (x) = 0.27494 0.29344
# Poissons Ratio (y) = 0.34047 0.13298
# Poissons Ratio (z) = 0.57659 0.21101
#
# Static dielectric constant tensor:
#      x y z
#    x 1.693450 0.000000 0.017440 
#    y 0.000000 1.678100 0.000000 
#    z 0.017440 0.000000 1.664190 
# 
# From -- ./inp_files/42717.got.cif
#   From: 2010.05.17/outbox.cif.g08.bks.cpg/sg15_22_cif.got.tgz:42717.got - 2010.06.03 18:47:42.
