data_PCOD9284447
_publ_section_title
;
Structure prediction by ZEFSAII (Michael W. Deem and Ramdas Pophale) SiO2 
 PCOD9284447
Probable space group: C 2/C
;
_chemical_formula_sum "Si O2"
_cell_formula_units_Z 44
_cell_length_a 18.481530
_cell_length_b 14.031116
_cell_length_c 12.928419
_cell_angle_alpha 90.000000
_cell_angle_beta 151.379656
_cell_angle_gamma 90.000000
_cell_volume 1605.884508
_symmetry_space_group_name_H-M "C 2/C"
_symmetry_group_IT_number 15
_symmetry_cell_setting 'monoclinic'
loop_
_space_group_symop_operation_xyz
x,y,z
-x,y,1/2-z
-x,-y,-z
x,-y,1/2+z
1/2+x,1/2+y,z
1/2-x,1/2+y,1/2-z
1/2-x,1/2-y,-z
1/2+x,1/2-y,1/2+z
loop_
_atom_site_type_symbol
_atom_site_label
_atom_site_fract_x
_atom_site_fract_y
_atom_site_fract_z
Si Si1 0.872049 0.762014 0.502949
Si Si2 0.500000 0.784498 0.750000
Si Si3 0.891487 0.091334 0.855757
Si Si4 0.657936 0.056233 0.065542
Si Si5 0.185076 0.563805 0.850922
Si Si6 0.226880 0.133011 0.018209
O O1 0.936798 0.824275 0.489048
O O2 0.793942 0.666890 0.360301
O O3 0.761507 0.836971 0.419555
O O4 0.000000 0.737656 0.750000
O O5 0.401995 0.844782 0.709496
O O6 0.636424 0.716935 0.961187
O O7 0.864318 0.124937 0.704828
O O8 0.732625 0.043768 0.690969
O O9 0.000000 0.000000 0.000000
O O10 0.678110 0.050381 0.966615
O O11 0.489162 0.060830 0.895375
O O12 0.277109 0.469068 0.933427
#
# Coordination Sequence:
#
# PCOD9284447 Si02
#       6
#     8   4   8   8   8   8
#     4  12  24  41  71 101 130 184 229 271 340 413
#     4  10  22  42  72  96 130 188 230 268 348 428
#     4  11  26  42  63  98 142 168 225 292 336 388
#     4  10  22  43  66  98 135 176 219 290 334 402
#     4  10  21  40  72  94 134 172 231 277 343 400
#     4  10  22  43  67  97 135 180 228 284 339 408
#
# _framework density 27.399231
#
# number of rings (size 3 to 8) (size 9 to 14) (size 15 to 20)
#    0.000    1.455    1.818    4.909    6.364    2.182 
#    3.273    0.000    0.000    0.000    0.000    0.000 
#    0.000    0.000    0.000    0.000    0.000    0.000 
#
# Total GULP energy -123106.674913 kJ/mol
# GULP energy per Si atom -5595.757951 kJ/mol
# Density = 2.733687 g / cm^3
# Si number density = 27.399231 Si / 1000 Ang^3
#
#
#
# Elastic Constant Matrix: (Units=GPa)
#
#
# Indices 1 2 3 4 5 6 
#
# 1 65.5077 1.0667 12.7167 0.0000 -12.1954 0.0000
# 2 1.0667 158.5160 7.6030 0.0000 -2.1980 0.0000
# 3 12.7167 7.6030 69.7502 0.0000 16.9443 0.0000
# 4 0.0000 0.0000 0.0000 45.2803 0.0000 29.4004
# 5 -12.1954 -2.1980 16.9443 0.0000 47.5364 0.0000
# 6 0.0000 0.0000 0.0000 29.4004 0.0000 38.1586
#
#
#
# Elastic Compliance Matrix: (Units=1/GPa)
#
#
# Indices 1 2 3 4 5 6 
#
# 1 0.017304 0.000192 -0.004660 0.000000 0.006109 0.000000
# 2 0.000192 0.006359 -0.000888 0.000000 0.000660 0.000000
# 3 -0.004660 -0.000888 0.017061 0.000000 -0.007318 0.000000
# 4 0.000000 0.000000 0.000000 0.044193 0.000000 -0.034050
# 5 0.006109 0.000660 -0.007318 0.000000 0.025243 0.000000
# 6 0.000000 0.000000 0.000000 -0.034050 0.000000 0.052441
#
#
# Mechanical properties :
#
#
# Convention : Reuss Voigt Hill
#
# Bulk Modulus (GPa) = 33.32094 37.39408 35.35751
# Shear Modulus (GPa) = 27.27494 44.35424 35.81459
#
# Velocity S-wave (km/s) = 3.15852 4.02781 3.61936
# Velocity P-wave (km/s) = 5.04870 5.94210 5.51352
#
# Compressibility (1/GPa) = 0.03001116
#
# Stress axis : x y z
#
# Youngs Moduli (GPa) = 57.78935 157.25787 58.61307
#
# Poissons Ratio (x) = -0.03016 0.27313
# Poissons Ratio (y) = -0.01108 0.05207
# Poissons Ratio (z) = 0.26929 0.13971
#
# Static dielectric constant tensor:
#      x y z
#    x 2.213180 0.000000 -0.027530 
#    y 0.000000 2.151140 0.000000 
#    z -0.027530 0.000000 2.200670 
# 
# From -- ./inp_files/219784.got.cif
#   From: 2010.05.17/outbox.cif.g08.bks.cpg/sg15_110_cif.got.tgz:219784.got - 2010.06.03 18:47:42.
