data_PCOD9284737
_publ_section_title
;
Structure prediction by ZEFSAII (Michael W. Deem and Ramdas Pophale) SiO2 
 PCOD9284737
Probable space group: C 2/C
;
_chemical_formula_sum "Si O2"
_cell_formula_units_Z 64
_cell_length_a 22.744419
_cell_length_b 21.254744
_cell_length_c 16.261429
_cell_angle_alpha 90.000000
_cell_angle_beta 21.059912
_cell_angle_gamma 90.000000
_cell_volume 2824.878582
_symmetry_space_group_name_H-M "C 2/C"
_symmetry_group_IT_number 15
_symmetry_cell_setting 'monoclinic'
loop_
_space_group_symop_operation_xyz
x,y,z
-x,y,1/2-z
-x,-y,-z
x,-y,1/2+z
1/2+x,1/2+y,z
1/2-x,1/2+y,1/2-z
1/2-x,1/2-y,-z
1/2+x,1/2-y,1/2+z
loop_
_atom_site_type_symbol
_atom_site_label
_atom_site_fract_x
_atom_site_fract_y
_atom_site_fract_z
Si Si1 0.588126 0.651654 0.445778
Si Si2 0.312499 0.036405 0.160914
Si Si3 0.243618 0.855781 0.047185
Si Si4 0.319597 0.685572 0.524894
Si Si5 0.707616 0.044790 0.658101
Si Si6 0.180513 0.492142 0.524635
Si Si7 0.997627 0.245105 0.071110
Si Si8 0.732501 0.723987 0.398406
O O1 0.739459 0.605713 0.251417
O O2 0.422222 0.619939 0.693096
O O3 0.566295 0.680264 0.384504
O O4 0.609876 0.705261 0.486605
O O5 0.246637 0.003079 0.329116
O O6 0.509214 0.041016 0.911776
O O7 0.256382 0.000522 0.150780
O O8 0.297864 0.794956 0.029952
O O9 0.220095 0.825829 0.988107
O O10 0.344501 0.919847 0.914118
O O11 0.500000 0.686547 0.250000
O O12 0.268722 0.613600 0.603300
O O13 0.158892 0.716732 0.692810
O O14 0.358028 0.727565 0.554932
O O15 0.767687 0.026004 0.487888
O O16 0.000000 0.521984 0.750000
O O17 0.088369 0.279325 0.876962
#
# Coordination Sequence:
#
# PCOD9284737 Si02
#       8
#     8   8   8   8   8   8   8   8
#     4  11  22  39  65  95 139 174 235 277 347 409
#     4  10  23  43  70  97 139 191 229 291 351 420
#     4  10  23  37  66 101 137 177 223 285 350 421
#     4  12  27  47  71 102 137 178 236 299 348 418
#     4  10  24  44  69 101 136 185 236 284 356 421
#     4  10  23  42  63  99 136 183 239 288 354 422
#     4  11  25  45  68 101 131 181 229 280 358 416
#     4  10  21  41  64 101 138 181 218 285 350 427
#
# _framework density 22.655840000000001
#
# number of rings (size 3 to 8) (size 9 to 14) (size 15 to 20)
#    0.000    1.500    1.250    2.250    5.250    6.500 
#    0.000    0.000    0.000    0.000    0.000    0.000 
#    0.000    0.000    0.000    0.000    0.000    0.000 
#
# Total GULP energy -178574.374323 kJ/mol
# GULP energy per Si atom -5580.449198 kJ/mol
# Density = 2.260427 g / cm^3
# Si number density = 22.655840 Si / 1000 Ang^3
#
#
#
# Elastic Constant Matrix: (Units=GPa)
#
#
# Indices 1 2 3 4 5 6 
#
# 1 63.9575 7.4016 -2.2487 0.0066 -1.4616 -0.0044
# 2 7.4016 47.6800 4.4323 0.0253 -6.7735 -0.0143
# 3 -2.2487 4.4323 47.4674 0.0279 2.5944 -0.0158
# 4 0.0066 0.0253 0.0279 33.1551 -0.0102 -6.9937
# 5 -1.4616 -6.7735 2.5944 -0.0102 24.8221 0.0015
# 6 -0.0044 -0.0143 -0.0158 -6.9937 0.0015 31.2050
#
#
#
# Elastic Compliance Matrix: (Units=1/GPa)
#
#
# Indices 1 2 3 4 5 6 
#
# 1 0.015968 -0.002551 0.000987 -0.000002 0.000141 0.000001
# 2 -0.002551 0.022496 -0.002563 -0.000011 0.006257 0.000006
# 3 0.000987 -0.002563 0.021511 -0.000016 -0.002890 0.000006
# 4 -0.000002 -0.000011 -0.000016 0.031658 0.000011 0.007095
# 5 0.000141 0.006257 -0.002890 0.000011 0.042304 0.000002
# 6 0.000001 0.000006 0.000006 0.007095 0.000002 0.033636
#
#
# Mechanical properties :
#
#
# Convention : Reuss Voigt Hill
#
# Bulk Modulus (GPa) = 19.33420 19.80837 19.57128
# Shear Modulus (GPa) = 25.89746 27.80442 26.85094
#
# Velocity S-wave (km/s) = 3.38462 3.50702 3.44636
# Velocity P-wave (km/s) = 4.88125 5.01608 4.94912
#
# Compressibility (1/GPa) = 0.05172182
#
# Stress axis : x y z
#
# Youngs Moduli (GPa) = 62.62339 44.45188 46.48754
#
# Poissons Ratio (x) = 0.11338 -0.04588
# Poissons Ratio (y) = 0.15972 0.11917
# Poissons Ratio (z) = -0.06180 0.11395
#
# Static dielectric constant tensor:
#      x y z
#    x 1.890390 -0.000010 0.021530 
#    y -0.000010 1.805300 0.000010 
#    z 0.021530 0.000010 1.892730 
# 
# From -- ./inp_files/220240.got.cif
#   From: 2010.05.17/outbox.cif.g08.bks.cpg/sg15_111_cif.got.tgz:220240.got - 2010.06.03 18:47:42.
