data_PCOD9284914
_publ_section_title
;
Structure prediction by ZEFSAII (Michael W. Deem and Ramdas Pophale) SiO2 
 PCOD9284914
Probable space group: C 2/C
;
_chemical_formula_sum "Si O2"
_cell_formula_units_Z 36
_cell_length_a 7.717972
_cell_length_b 9.677040
_cell_length_c 19.254908
_cell_angle_alpha 90.000000
_cell_angle_beta 80.717213
_cell_angle_gamma 90.000000
_cell_volume 1419.260740
_symmetry_space_group_name_H-M "C 2/C"
_symmetry_group_IT_number 15
_symmetry_cell_setting 'monoclinic'
loop_
_space_group_symop_operation_xyz
x,y,z
-x,y,1/2-z
-x,-y,-z
x,-y,1/2+z
1/2+x,1/2+y,z
1/2-x,1/2+y,1/2-z
1/2-x,1/2-y,-z
1/2+x,1/2-y,1/2+z
loop_
_atom_site_type_symbol
_atom_site_label
_atom_site_fract_x
_atom_site_fract_y
_atom_site_fract_z
Si Si1 0.621299 0.213756 0.806157
Si Si2 0.500000 0.211003 0.250000
Si Si3 0.954854 0.220837 0.974737
Si Si4 0.512889 0.031387 0.110352
Si Si5 0.572086 0.465921 0.899009
O O1 0.500000 0.172861 0.750000
O O2 0.822371 0.204488 0.771406
O O3 0.576410 0.371121 0.830789
O O4 0.581137 0.113797 0.873498
O O5 0.476069 0.116221 0.183451
O O6 0.039868 0.366853 0.948865
O O7 0.750000 0.250000 0.000000
O O8 0.016138 0.132341 0.036663
O O9 0.982528 0.114439 0.908926
O O10 0.722956 0.010569 0.095168
#
# Coordination Sequence:
#
# PCOD9284914 Si02
#       5
#     8   4   8   8   8
#     4  11  24  45  68 101 135 177 222 275 333 401
#     4  10  24  44  62  98 142 174 218 276 330 390
#     4   9  19  41  67  93 134 173 218 283 328 390
#     4  10  21  41  65  94 135 170 221 278 325 395
#     4   9  21  43  65  94 134 173 223 276 330 395
#
# _framework density 25.365317999999998
#
# number of rings (size 3 to 8) (size 9 to 14) (size 15 to 20)
#    0.000    2.222    1.111    0.000    3.111    0.889 
#   16.000   10.000    0.000    0.000    0.000    0.000 
#    0.000    0.000    0.000    0.000    0.000    0.000 
#
# Total GULP energy -100779.003260 kJ/mol
# GULP energy per Si atom -5598.833514 kJ/mol
# Density = 2.530759 g / cm^3
# Si number density = 25.365318 Si / 1000 Ang^3
#
#
#
# Elastic Constant Matrix: (Units=GPa)
#
#
# Indices 1 2 3 4 5 6 
#
# 1 81.4023 51.7258 44.4356 0.0000 -15.7607 0.0000
# 2 51.7258 157.3436 39.6369 0.0000 -28.7818 0.0000
# 3 44.4356 39.6369 80.1622 0.0000 -27.4552 0.0000
# 4 0.0000 0.0000 0.0000 52.2086 0.0000 -14.9310
# 5 -15.7607 -28.7818 -27.4552 0.0000 33.4680 0.0000
# 6 0.0000 0.0000 0.0000 -14.9310 0.0000 26.9752
#
#
#
# Elastic Compliance Matrix: (Units=1/GPa)
#
#
# Indices 1 2 3 4 5 6 
#
# 1 0.019997 -0.004590 -0.009654 0.000000 -0.002450 0.000000
# 2 -0.004590 0.008858 0.000046 0.000000 0.005494 0.000000
# 3 -0.009654 0.000046 0.022614 0.000000 0.014044 0.000000
# 4 0.000000 0.000000 0.000000 0.022756 0.000000 0.012596
# 5 -0.002450 0.005494 0.014044 0.000000 0.044971 0.000000
# 6 0.000000 0.000000 0.000000 0.012596 0.000000 0.044043
#
#
# Mechanical properties :
#
#
# Convention : Reuss Voigt Hill
#
# Bulk Modulus (GPa) = 43.34286 65.61162 54.47724
# Shear Modulus (GPa) = 25.08460 34.73769 29.91114
#
# Velocity S-wave (km/s) = 3.14814 3.70468 3.43769
# Velocity P-wave (km/s) = 5.50808 6.64999 6.10579
#
# Compressibility (1/GPa) = 0.02307185
#
# Stress axis : x y z
#
# Youngs Moduli (GPa) = 50.00749 112.89498 44.22129
#
# Poissons Ratio (x) = 0.51819 0.42693
# Poissons Ratio (y) = 0.22954 -0.00204
# Poissons Ratio (z) = 0.48279 -0.00521
#
# Static dielectric constant tensor:
#      x y z
#    x 1.931480 0.000000 0.041710 
#    y 0.000000 2.011590 0.000000 
#    z 0.041710 0.000000 2.066420 
# 
# From -- ./inp_files/229323.got.cif
#   From: 2010.05.17/outbox.cif.g08.bks.cpg/sg15_115_cif.got.tgz:229323.got - 2010.06.03 18:47:42.
