data_PCOD9284068
_publ_section_title
;
Structure prediction by ZEFSAII (Michael W. Deem and Ramdas Pophale) SiO2 
 PCOD9284068
Probable space group: C 2/C
;
_chemical_formula_sum "Si O2"
_cell_formula_units_Z 44
_cell_length_a 23.124638
_cell_length_b 14.537480
_cell_length_c 17.243498
_cell_angle_alpha 90.000000
_cell_angle_beta 21.082964
_cell_angle_gamma 90.000000
_cell_volume 2085.226791
_symmetry_space_group_name_H-M "C 2/C"
_symmetry_group_IT_number 15
_symmetry_cell_setting 'monoclinic'
loop_
_space_group_symop_operation_xyz
x,y,z
-x,y,1/2-z
-x,-y,-z
x,-y,1/2+z
1/2+x,1/2+y,z
1/2-x,1/2+y,1/2-z
1/2-x,1/2-y,-z
1/2+x,1/2-y,1/2+z
loop_
_atom_site_type_symbol
_atom_site_label
_atom_site_fract_x
_atom_site_fract_y
_atom_site_fract_z
Si Si1 0.500000 0.429853 0.750000
Si Si2 0.020677 0.337429 0.314200
Si Si3 0.326729 0.032945 0.379055
Si Si4 0.985459 0.694395 0.428774
Si Si5 0.236898 0.692498 0.935448
Si Si6 0.277215 0.298017 0.118297
O O1 0.650767 0.492780 0.583015
O O2 0.574514 0.365501 0.588620
O O3 0.854057 0.296425 0.554068
O O4 0.000000 0.311669 0.250000
O O5 0.055571 0.445672 0.270982
O O6 0.168130 0.292682 0.177011
O O7 0.304775 0.089288 0.486418
O O8 0.396167 0.107781 0.232162
O O9 0.899667 0.718362 0.454648
O O10 0.848693 0.667832 0.660548
O O11 0.093495 0.782236 0.316351
O O12 0.250000 0.750000 0.000000
#
# Coordination Sequence:
#
# PCOD9284068 Si02
#       6
#     4   8   8   8   8   8
#     4  10  24  40  64  92 124 172 220 252 320 378
#     4  11  22  41  66  88 124 168 215 253 312 378
#     4  10  23  40  66  94 125 167 213 262 310 386
#     4  11  23  42  65  97 131 161 213 264 321 373
#     4  10  21  40  66  94 126 169 202 256 321 384
#     4  11  24  42  63  95 126 169 212 260 318 382
#
# _framework density 21.100822999999998
#
# number of rings (size 3 to 8) (size 9 to 14) (size 15 to 20)
#    0.000    1.455    0.909    4.909    7.636    2.909 
#    3.273    0.909    0.000    0.000    0.000    0.000 
#    0.000    0.000    0.000    0.000    0.000    0.000 
#
# Total GULP energy -122608.696277 kJ/mol
# GULP energy per Si atom -5573.122558 kJ/mol
# Density = 2.105280 g / cm^3
# Si number density = 21.100823 Si / 1000 Ang^3
#
#
#
# Elastic Constant Matrix: (Units=GPa)
#
#
# Indices 1 2 3 4 5 6 
#
# 1 78.7790 28.3940 35.1779 -0.0001 -16.6860 0.0001
# 2 28.3940 107.0182 75.7366 0.0000 -21.2230 0.0000
# 3 35.1779 75.7366 154.7188 0.0003 6.0706 0.0000
# 4 -0.0001 0.0000 0.0003 49.4005 -0.0003 -13.2613
# 5 -16.6860 -21.2230 6.0706 -0.0003 35.7190 0.0001
# 6 0.0001 0.0000 0.0000 -13.2613 0.0001 20.2418
#
#
#
# Elastic Compliance Matrix: (Units=1/GPa)
#
#
# Indices 1 2 3 4 5 6 
#
# 1 0.016245 0.000348 -0.004198 0.000000 0.008509 0.000000
# 2 0.000348 0.018718 -0.009750 0.000000 0.012941 0.000000
# 3 -0.004198 -0.009750 0.012578 0.000000 -0.009892 0.000000
# 4 0.000000 0.000000 0.000000 0.024562 0.000000 0.016092
# 5 0.008509 0.012941 -0.009892 0.000000 0.041342 0.000000
# 6 0.000000 0.000000 0.000000 0.016092 0.000000 0.059945
#
#
# Mechanical properties :
#
#
# Convention : Reuss Voigt Hill
#
# Bulk Modulus (GPa) = 49.15721 68.79257 58.97489
# Shear Modulus (GPa) = 24.11141 34.48609 29.29875
#
# Velocity S-wave (km/s) = 3.38402 4.04709 3.73032
# Velocity P-wave (km/s) = 6.21415 7.38317 6.82374
#
# Compressibility (1/GPa) = 0.02034290
#
# Stress axis : x y z
#
# Youngs Moduli (GPa) = 61.55708 53.42441 79.50097
#
# Poissons Ratio (x) = -0.01860 0.33374
# Poissons Ratio (y) = -0.02143 0.77510
# Poissons Ratio (z) = 0.25841 0.52087
#
# Static dielectric constant tensor:
#      x y z
#    x 1.799310 0.000000 0.039190 
#    y 0.000000 1.800270 0.000000 
#    z 0.039190 0.000000 1.852890 
# 
# From -- ./inp_files/219654.got.cif
#   From: 2010.05.17/outbox.cif.g08.bks.cpg/sg15_110_cif.got.tgz:219654.got - 2010.06.03 18:47:42.
