data_PCOD9284976
_publ_section_title
;
Structure prediction by ZEFSAII (Michael W. Deem and Ramdas Pophale) SiO2 
 PCOD9284976
Probable space group: C 2/C
;
_chemical_formula_sum "Si O2"
_cell_formula_units_Z 56
_cell_length_a 15.562394
_cell_length_b 9.431226
_cell_length_c 22.117885
_cell_angle_alpha 90.000000
_cell_angle_beta 112.783791
_cell_angle_gamma 90.000000
_cell_volume 2992.996685
_symmetry_space_group_name_H-M "C 2/C"
_symmetry_group_IT_number 15
_symmetry_cell_setting 'monoclinic'
loop_
_space_group_symop_operation_xyz
x,y,z
-x,y,1/2-z
-x,-y,-z
x,-y,1/2+z
1/2+x,1/2+y,z
1/2-x,1/2+y,1/2-z
1/2-x,1/2-y,-z
1/2+x,1/2-y,1/2+z
loop_
_atom_site_type_symbol
_atom_site_label
_atom_site_fract_x
_atom_site_fract_y
_atom_site_fract_z
Si Si1 0.838065 0.328506 0.996410
Si Si2 0.727348 0.490358 0.375747
Si Si3 0.483595 0.667608 0.488104
Si Si4 0.350575 0.740185 0.562365
Si Si5 0.931003 0.524960 0.635068
Si Si6 0.383621 0.169609 0.848607
Si Si7 0.106004 0.231416 0.280149
O O1 0.887875 0.393698 0.067026
O O2 0.912883 0.230893 0.984385
O O3 0.750000 0.250000 0.000000
O O4 0.803936 0.448392 0.942321
O O5 0.658122 0.395332 0.396647
O O6 0.787791 0.395707 0.346718
O O7 0.673276 0.622247 0.332064
O O8 0.500000 0.500000 0.500000
O O9 0.424980 0.721458 0.529313
O O10 0.430531 0.728880 0.413255
O O11 0.250000 0.750000 0.500000
O O12 0.385206 0.870457 0.614194
O O13 0.902237 0.617794 0.686052
O O14 0.041462 0.547453 0.651685
O O15 0.365110 0.250994 0.781264
O O16 0.000000 0.174983 0.250000
#
# Coordination Sequence:
#
# PCOD9284976 Si02
#       7
#     8   8   8   8   8   8   8
#     4  11  20  36  66  96 123 165 208 264 322 378
#     4  12  23  41  65  96 128 164 213 265 323 377
#     4  11  24  39  65 100 130 164 214 271 326 376
#     4  12  23  38  64 100 133 156 208 274 325 373
#     4  10  21  41  66  89 129 168 208 260 324 382
#     4  10  23  44  63  91 130 171 215 259 318 385
#     4  10  24  44  65  84 126 181 216 253 314 392
#
# _framework density 18.710345
#
# number of rings (size 3 to 8) (size 9 to 14) (size 15 to 20)
#    0.000    1.143    4.286    1.714    4.000    3.429 
#    2.571    3.571    0.000    0.000    0.000    0.000 
#    0.000    0.000    0.000    0.000    0.000    0.000 
#
# Total GULP energy -156138.123633 kJ/mol
# GULP energy per Si atom -5576.361558 kJ/mol
# Density = 1.866776 g / cm^3
# Si number density = 18.710345 Si / 1000 Ang^3
#
#
#
# Elastic Constant Matrix: (Units=GPa)
#
#
# Indices 1 2 3 4 5 6 
#
# 1 115.5090 42.0004 41.9590 0.0000 -19.9210 0.0000
# 2 42.0004 93.8657 32.9980 0.0000 -11.7792 0.0000
# 3 41.9590 32.9980 86.4407 0.0000 -21.2823 0.0000
# 4 0.0000 0.0000 0.0000 -4.1959 0.0000 11.1984
# 5 -19.9210 -11.7792 -21.2823 0.0000 33.0335 0.0000
# 6 0.0000 0.0000 0.0000 11.1984 0.0000 28.2513
#
#
#
# Elastic Compliance Matrix: (Units=1/GPa)
#
#
# Indices 1 2 3 4 5 6 
#
# 1 0.011867 -0.003631 -0.003483 0.000000 0.003617 0.000000
# 2 -0.003631 0.013489 -0.003258 0.000000 0.000521 0.000000
# 3 -0.003483 -0.003258 0.016283 0.000000 0.007228 0.000000
# 4 0.000000 0.000000 0.000000 -0.115811 0.000000 0.045906
# 5 0.003617 0.000521 0.007228 0.000000 0.037296 0.000000
# 6 0.000000 0.000000 0.000000 0.045906 0.000000 0.017200
#
#
# Mechanical properties :
#
#
# Convention : Reuss Voigt Hill
#
# Bulk Modulus (GPa) = 47.86397 58.85891 53.36144
# Shear Modulus (GPa) = 622.22104 23.34164 322.78134
#
# Velocity S-wave (km/s) = 18.25586 3.53586 13.14874
# Velocity P-wave (km/s) = 21.67962 6.94234 16.09661
#
# Compressibility (1/GPa) = 0.02089254
#
# Stress axis : x y z
#
# Youngs Moduli (GPa) = 84.26744 74.13319 61.41385
#
# Poissons Ratio (x) = 0.26921 0.21393
# Poissons Ratio (y) = 0.30601 0.20012
# Poissons Ratio (z) = 0.29354 0.24156
#
# Static dielectric constant tensor:
#      x y z
#    x 1.527300 0.000000 0.100650 
#    y 0.000000 1.682160 0.000000 
#    z 0.100650 0.000000 1.639810 
# 
# From -- ./inp_files/272822.got.cif
#   From: 2010.05.17/outbox.cif.g08.bks.cpg/sg15_137_cif.got.tgz:272822.got - 2010.06.03 18:47:42.
