data_PCOD9284758
_publ_section_title
;
Structure prediction by ZEFSAII (Michael W. Deem and Ramdas Pophale) SiO2 
 PCOD9284758
Probable space group: C 2/C
;
_chemical_formula_sum "Si O2"
_cell_formula_units_Z 60
_cell_length_a 21.594677
_cell_length_b 28.917283
_cell_length_c 15.332210
_cell_angle_alpha 90.000000
_cell_angle_beta 19.404437
_cell_angle_gamma 90.000000
_cell_volume 3180.923756
_symmetry_space_group_name_H-M "C 2/C"
_symmetry_group_IT_number 15
_symmetry_cell_setting 'monoclinic'
loop_
_space_group_symop_operation_xyz
x,y,z
-x,y,1/2-z
-x,-y,-z
x,-y,1/2+z
1/2+x,1/2+y,z
1/2-x,1/2+y,1/2-z
1/2-x,1/2-y,-z
1/2+x,1/2-y,1/2+z
loop_
_atom_site_type_symbol
_atom_site_label
_atom_site_fract_x
_atom_site_fract_y
_atom_site_fract_z
Si Si1 0.912502 0.498816 0.209953
Si Si2 0.495273 0.448563 0.461216
Si Si3 0.896269 0.591810 0.475963
Si Si4 0.997233 0.762884 0.501706
Si Si5 0.000000 0.026554 0.750000
Si Si6 0.098878 0.405936 0.027835
Si Si7 0.598670 0.806403 0.524080
Si Si8 0.909574 0.304239 0.466573
O O1 0.690725 0.498550 0.504467
O O2 0.990032 0.451827 0.145187
O O3 0.000000 0.500000 0.000000
O O4 0.989081 0.546725 0.146926
O O5 0.500000 0.500000 0.500000
O O6 0.685335 0.423928 0.238443
O O7 0.485717 0.449816 0.366563
O O8 0.314203 0.421603 0.737147
O O9 0.907332 0.641395 0.508087
O O10 0.000000 0.603968 0.250000
O O11 0.988406 0.729265 0.429420
O O12 0.184605 0.793067 0.251094
O O13 0.004171 0.731845 0.579837
O O14 0.809891 0.793005 0.750169
O O15 0.075114 0.356215 0.014338
O O16 0.000000 0.395696 0.250000
O O17 0.500000 0.801836 0.750000
O O18 0.000000 0.299454 0.250000
#
# Coordination Sequence:
#
# PCOD9284758 Si02
#       8
#     8   8   8   8   4   8   8   8
#     4  12  23  39  60  89 130 165 208 257 301 370
#     4  12  22  40  62  88 126 168 209 255 303 366
#     4  11  22  39  62  88 126 165 206 251 312 366
#     4  10  21  41  64  90 124 156 205 256 309 367
#     4  12  24  38  62  90 118 174 212 248 310 358
#     4  11  23  39  63  90 126 167 207 254 311 363
#     4  10  22  38  64  92 125 160 202 250 313 371
#     4  10  22  40  66  91 122 159 206 252 313 364
#
# _framework density 18.862445000000001
#
# number of rings (size 3 to 8) (size 9 to 14) (size 15 to 20)
#    0.000    1.067    4.000    2.800    1.867    0.000 
#    0.000    0.000    5.867    0.000    0.000    0.000 
#    0.000    0.000    0.000    0.000    0.000    0.000 
#
# Total GULP energy -167075.862800 kJ/mol
# GULP energy per Si atom -5569.195427 kJ/mol
# Density = 1.881951 g / cm^3
# Si number density = 18.862445 Si / 1000 Ang^3
#
#
#
# Elastic Constant Matrix: (Units=GPa)
#
#
# Indices 1 2 3 4 5 6 
#
# 1 60.6732 21.8449 21.3175 0.0401 6.5160 -0.0375
# 2 21.8449 119.0525 32.8114 -0.0009 -6.4236 0.0376
# 3 21.3175 32.8114 129.6487 0.0024 -10.2027 0.0146
# 4 0.0401 -0.0009 0.0024 -86.2370 -0.0938 101.9171
# 5 6.5160 -6.4236 -10.2027 -0.0938 37.1000 0.0888
# 6 -0.0375 0.0376 0.0146 101.9171 0.0888 -52.3287
#
#
#
# Elastic Compliance Matrix: (Units=1/GPa)
#
#
# Indices 1 2 3 4 5 6 
#
# 1 0.019011 -0.002984 -0.002733 0.000012 -0.004607 -0.000002
# 2 -0.002984 0.009531 -0.001789 -0.000008 0.001682 -0.000004
# 3 -0.002733 -0.001789 0.008820 -0.000004 0.002596 0.000000
# 4 0.000012 -0.000008 -0.000004 0.008908 -0.000023 0.017349
# 5 -0.004607 0.001682 0.002596 -0.000023 0.028768 0.000008
# 6 -0.000002 -0.000004 0.000000 0.017349 0.000008 0.014680
#
#
# Mechanical properties :
#
#
# Convention : Reuss Voigt Hill
#
# Bulk Modulus (GPa) = 44.74369 51.25799 48.00084
# Shear Modulus (GPa) = 44.57116 -4.73309 19.91903
#
# Velocity S-wave (km/s) = 4.86630 -1.58579 3.25316
# Velocity P-wave (km/s) = 7.43956 4.88679 6.29395
#
# Compressibility (1/GPa) = 0.02234952
#
# Stress axis : x y z
#
# Youngs Moduli (GPa) = 52.60075 104.92107 113.38317
#
# Poissons Ratio (x) = 0.31304 0.30992
# Poissons Ratio (y) = 0.15694 0.20286
# Poissons Ratio (z) = 0.14378 0.18772
#
# Static dielectric constant tensor:
#      x y z
#    x 1.674980 0.000000 0.006720 
#    y 0.000000 1.414030 0.000030 
#    z 0.006720 0.000030 1.621480 
# 
# From -- ./inp_files/170034.got.cif
#   From: 2010.05.17/outbox.cif.g08.bks.cpg/sg15_86_cif.got.tgz:170034.got - 2010.06.03 18:47:42.
