data_PCOD9284291
_publ_section_title
;
Structure prediction by ZEFSAII (Michael W. Deem and Ramdas Pophale) SiO2 
 PCOD9284291
Probable space group: C 2/C
;
_chemical_formula_sum "Si O2"
_cell_formula_units_Z 56
_cell_length_a 5.634853
_cell_length_b 27.840992
_cell_length_c 18.455612
_cell_angle_alpha 90.000000
_cell_angle_beta 56.572997
_cell_angle_gamma 90.000000
_cell_volume 2416.395717
_symmetry_space_group_name_H-M "C 2/C"
_symmetry_group_IT_number 15
_symmetry_cell_setting 'monoclinic'
loop_
_space_group_symop_operation_xyz
x,y,z
-x,y,1/2-z
-x,-y,-z
x,-y,1/2+z
1/2+x,1/2+y,z
1/2-x,1/2+y,1/2-z
1/2-x,1/2-y,-z
1/2+x,1/2-y,1/2+z
loop_
_atom_site_type_symbol
_atom_site_label
_atom_site_fract_x
_atom_site_fract_y
_atom_site_fract_z
Si Si1 0.664431 0.639843 0.298523
Si Si2 0.984813 0.783116 0.567608
Si Si3 0.272341 0.562160 0.097151
Si Si4 0.275032 0.811637 0.156330
Si Si5 0.288549 0.640869 0.983614
Si Si6 0.602166 0.027116 0.555130
Si Si7 0.603959 0.891556 0.155162
O O1 0.500000 0.637938 0.250000
O O2 0.472779 0.675370 0.380101
O O3 0.683880 0.588094 0.334089
O O4 0.000000 0.656342 0.250000
O O5 0.250000 0.750000 0.500000
O O6 0.869208 0.813095 0.519170
O O7 0.776535 0.744455 0.639456
O O8 0.096727 0.513685 0.118104
O O9 0.146591 0.602767 0.062820
O O10 0.583733 0.545461 0.018827
O O11 0.524353 0.835408 0.160679
O O12 0.000000 0.824954 0.250000
O O13 0.328936 0.836501 0.069560
O O14 0.559761 0.610546 0.910089
O O15 0.471955 0.074554 0.614477
O O16 0.500000 0.000000 0.500000
O O17 0.500000 0.908966 0.250000
#
# Coordination Sequence:
#
# PCOD9284291 Si02
#       7
#     8   8   8   8   8   8   8
#     4  11  27  48  72 103 145 184 233 293 359 417
#     4  11  24  42  67 100 127 179 231 279 333 421
#     4   9  22  42  66  96 129 178 226 284 343 411
#     4  12  23  37  64  92 130 173 212 276 347 397
#     4  10  21  41  62  90 126 164 222 267 330 404
#     4  10  21  40  68  97 130 173 231 282 339 416
#     4  11  22  39  60  92 129 166 210 279 332 399
#
# _framework density 23.175013
#
# number of rings (size 3 to 8) (size 9 to 14) (size 15 to 20)
#    0.000    1.429    2.857    1.714    2.000    5.714 
#    0.000    0.000    0.000    0.000    0.000    0.000 
#    0.000    0.000    0.000    0.000    0.000    0.000 
#
# Total GULP energy -156058.642864 kJ/mol
# GULP energy per Si atom -5573.522959 kJ/mol
# Density = 2.312227 g / cm^3
# Si number density = 23.175013 Si / 1000 Ang^3
#
#
#
# Elastic Constant Matrix: (Units=GPa)
#
#
# Indices 1 2 3 4 5 6 
#
# 1 51.1582 31.1410 36.6964 0.0000 26.5133 0.0000
# 2 31.1410 135.7170 33.6547 0.0000 22.2723 0.0000
# 3 36.6964 33.6547 90.3272 0.0000 28.3668 0.0000
# 4 0.0000 0.0000 0.0000 29.5310 0.0000 -2.6173
# 5 26.5133 22.2723 28.3668 0.0000 43.7551 0.0000
# 6 0.0000 0.0000 0.0000 -2.6173 0.0000 22.5368
#
#
#
# Elastic Compliance Matrix: (Units=1/GPa)
#
#
# Indices 1 2 3 4 5 6 
#
# 1 0.035080 -0.003658 -0.008536 0.000000 -0.013861 0.000000
# 2 -0.003658 0.008767 -0.001350 0.000000 -0.001371 0.000000
# 3 -0.008536 -0.001350 0.016576 0.000000 -0.004887 0.000000
# 4 0.000000 0.000000 0.000000 0.034215 0.000000 0.003974
# 5 -0.013861 -0.001371 -0.004887 0.000000 0.035120 0.000000
# 6 0.000000 0.000000 0.000000 0.003974 0.000000 0.044833
#
#
# Mechanical properties :
#
#
# Convention : Reuss Voigt Hill
#
# Bulk Modulus (GPa) = 29.99706 53.35406 41.67556
# Shear Modulus (GPa) = 23.49711 30.87861 27.18786
#
# Velocity S-wave (km/s) = 3.18763 3.65418 3.42885
# Velocity P-wave (km/s) = 5.14974 6.39345 5.80500
#
# Compressibility (1/GPa) = 0.03333660
#
# Stress axis : x y z
#
# Youngs Moduli (GPa) = 28.50592 114.05925 60.32663
#
# Poissons Ratio (x) = 0.41722 0.51494
# Poissons Ratio (y) = 0.10427 0.08144
# Poissons Ratio (z) = 0.24332 0.15397
#
# Static dielectric constant tensor:
#      x y z
#    x 1.924610 0.000000 -0.013900 
#    y 0.000000 1.915240 0.000000 
#    z -0.013900 0.000000 2.025270 
# 
# From -- ./inp_files/130776.got.cif
#   From: 2010.05.17/outbox.cif.g08.bks.cpg/sg15_66_cif.got.tgz:130776.got - 2010.06.03 18:47:42.
