data_PCOD9284224
_publ_section_title
;
Structure prediction by ZEFSAII (Michael W. Deem and Ramdas Pophale) SiO2 
 PCOD9284224
Probable space group: C 2/C
;
_chemical_formula_sum "Si O2"
_cell_formula_units_Z 28
_cell_length_a 19.358933
_cell_length_b 7.141961
_cell_length_c 13.922871
_cell_angle_alpha 90.000000
_cell_angle_beta 28.702480
_cell_angle_gamma 90.000000
_cell_volume 924.496839
_symmetry_space_group_name_H-M "C 2/C"
_symmetry_group_IT_number 15
_symmetry_cell_setting 'monoclinic'
loop_
_space_group_symop_operation_xyz
x,y,z
-x,y,1/2-z
-x,-y,-z
x,-y,1/2+z
1/2+x,1/2+y,z
1/2-x,1/2+y,1/2-z
1/2-x,1/2-y,-z
1/2+x,1/2-y,1/2+z
loop_
_atom_site_type_symbol
_atom_site_label
_atom_site_fract_x
_atom_site_fract_y
_atom_site_fract_z
Si Si1 0.651684 0.630429 0.246806
Si Si2 0.500000 0.487657 0.250000
Si Si3 0.198444 0.461684 0.668561
Si Si4 0.389483 0.887085 0.029767
O O1 0.537157 0.595089 0.303074
O O2 0.736109 0.817670 0.112809
O O3 0.595560 0.704043 0.418581
O O4 0.750820 0.447591 0.136112
O O5 0.352707 0.374993 0.454792
O O6 0.144920 0.452268 0.844308
O O7 0.049631 0.423132 0.795795
#
# Coordination Sequence:
#
# PCOD9284224 Si02
#       4
#     8   4   8   8
#     4  10  21  40  67  99 124 172 212 279 307 402
#     4  12  22  36  66 106 128 156 230 270 328 360
#     4   9  21  38  61  96 129 168 210 274 311 392
#     4   9  21  41  63  93 134 169 220 252 338 382
#
# _framework density 30.286742
#
# number of rings (size 3 to 8) (size 9 to 14) (size 15 to 20)
#    1.714    0.571    0.000    2.571    0.000    2.286 
#    0.000    0.000    0.000    8.571    0.000    0.000 
#    0.000    0.000    0.000    0.000    0.000    0.000 
#
# Total GULP energy -78116.053776 kJ/mol
# GULP energy per Si atom -5579.718127 kJ/mol
# Density = 3.021781 g / cm^3
# Si number density = 30.286742 Si / 1000 Ang^3
#
#
#
# Elastic Constant Matrix: (Units=GPa)
#
#
# Indices 1 2 3 4 5 6 
#
# 1 236.3490 57.5461 69.9518 0.0000 -48.8121 -0.0001
# 2 57.5461 127.5055 48.8262 -0.0018 -6.5861 0.0018
# 3 69.9518 48.8262 205.9741 -0.0007 -45.9638 0.0009
# 4 0.0000 -0.0018 -0.0007 49.1754 0.0003 -7.7412
# 5 -48.8121 -6.5861 -45.9638 0.0003 68.5698 0.0000
# 6 -0.0001 0.0018 0.0009 -7.7412 0.0000 15.3521
#
#
#
# Elastic Compliance Matrix: (Units=1/GPa)
#
#
# Indices 1 2 3 4 5 6 
#
# 1 0.005638 -0.002117 -0.000662 0.000000 0.003366 0.000000
# 2 -0.002117 0.009445 -0.001945 0.000000 -0.001903 -0.000001
# 3 -0.000662 -0.001945 0.006343 0.000000 0.003594 0.000000
# 4 0.000000 0.000000 0.000000 0.022089 0.000000 0.011138
# 5 0.003366 -0.001903 0.003594 0.000000 0.019206 0.000000
# 6 0.000000 -0.000001 0.000000 0.011138 0.000000 0.070754
#
#
# Mechanical properties :
#
#
# Convention : Reuss Voigt Hill
#
# Bulk Modulus (GPa) = 83.48458 102.49742 92.99100
# Shear Modulus (GPa) = 34.03375 52.85309 43.44342
#
# Velocity S-wave (km/s) = 3.35583 4.18196 3.79146
# Velocity P-wave (km/s) = 6.52993 7.56533 7.06662
#
# Compressibility (1/GPa) = 0.01197826
#
# Stress axis : x y z
#
# Youngs Moduli (GPa) = 177.38227 105.87994 157.66414
#
# Poissons Ratio (x) = 0.22416 0.10429
# Poissons Ratio (y) = 0.37555 0.30660
# Poissons Ratio (z) = 0.11734 0.20590
#
# Static dielectric constant tensor:
#      x y z
#    x 3.126110 0.000000 0.204590 
#    y 0.000000 2.621040 0.000000 
#    z 0.204590 0.000000 2.434710 
# 
# From -- ./inp_files/45582.got.cif
#   From: 2010.05.17/outbox.cif.g08.bks.cpg/sg15_23_cif.got.tgz:45582.got - 2010.06.03 18:47:42.
