data_PCOD9284522
_publ_section_title
;
Structure prediction by ZEFSAII (Michael W. Deem and Ramdas Pophale) SiO2 
 PCOD9284522
Probable space group: C 2/C
;
_chemical_formula_sum "Si O2"
_cell_formula_units_Z 56
_cell_length_a 8.156882
_cell_length_b 12.015635
_cell_length_c 24.947967
_cell_angle_alpha 90.000000
_cell_angle_beta 67.518706
_cell_angle_gamma 90.000000
_cell_volume 2259.332334
_symmetry_space_group_name_H-M "C 2/C"
_symmetry_group_IT_number 15
_symmetry_cell_setting 'monoclinic'
loop_
_space_group_symop_operation_xyz
x,y,z
-x,y,1/2-z
-x,-y,-z
x,-y,1/2+z
1/2+x,1/2+y,z
1/2-x,1/2+y,1/2-z
1/2-x,1/2-y,-z
1/2+x,1/2-y,1/2+z
loop_
_atom_site_type_symbol
_atom_site_label
_atom_site_fract_x
_atom_site_fract_y
_atom_site_fract_z
Si Si1 0.671273 0.471377 0.919663
Si Si2 0.500000 0.010719 0.750000
Si Si3 0.975515 0.549600 0.562170
Si Si4 0.245149 0.868338 0.632708
Si Si5 0.617226 0.410490 0.319191
Si Si6 0.000000 0.905710 0.750000
Si Si7 0.544499 0.820032 0.658745
Si Si8 0.433747 0.709770 0.451340
O O1 0.840030 0.523201 0.929292
O O2 0.599496 0.556804 0.884155
O O3 0.517027 0.400290 0.967908
O O4 0.758995 0.365749 0.875615
O O5 0.473561 0.923175 0.704270
O O6 0.670589 0.087080 0.718003
O O7 0.948497 0.680439 0.561409
O O8 0.000000 0.500000 0.500000
O O9 0.805258 0.494088 0.611950
O O10 0.441279 0.817281 0.614586
O O11 0.124757 0.822339 0.601238
O O12 0.154724 0.841220 0.700746
O O13 0.559305 0.515308 0.290840
O O14 0.505255 0.302603 0.314911
O O15 0.250000 0.750000 0.500000
#
# Coordination Sequence:
#
# PCOD9284522 Si02
#       8
#     8   4   8   8   8   4   8   8
#     4  10  25  44  70 102 139 180 239 290 353 430
#     4  10  21  41  60  96 136 178 235 279 332 420
#     4  11  25  49  73 103 141 187 240 308 354 422
#     4  11  24  47  65 104 144 180 243 290 354 433
#     4  11  22  42  66  99 141 188 227 288 350 417
#     4  12  23  41  70 100 146 184 231 295 346 436
#     4  10  22  42  64  95 141 182 232 283 348 417
#     4  12  25  46  74 104 139 185 235 295 364 428
#
# _framework density 24.786085
#
# number of rings (size 3 to 8) (size 9 to 14) (size 15 to 20)
#    0.000    1.143    4.286    1.286    2.000    1.714 
#    2.571    0.000    0.000    0.000    0.000    0.000 
#    0.000    0.000    0.000    0.000    0.000    0.000 
#
# Total GULP energy -156307.060992 kJ/mol
# GULP energy per Si atom -5582.395035 kJ/mol
# Density = 2.472967 g / cm^3
# Si number density = 24.786085 Si / 1000 Ang^3
#
#
#
# Elastic Constant Matrix: (Units=GPa)
#
#
# Indices 1 2 3 4 5 6 
#
# 1 65.1454 13.0091 7.4751 0.0000 15.9316 0.0000
# 2 13.0091 152.5454 26.1350 0.0000 -2.4965 0.0000
# 3 7.4751 26.1350 63.5619 0.0000 7.0267 0.0000
# 4 0.0000 0.0000 0.0000 14.2766 0.0000 8.3005
# 5 15.9316 -2.4965 7.0267 0.0000 47.7224 0.0000
# 6 0.0000 0.0000 0.0000 8.3005 0.0000 29.9040
#
#
#
# Elastic Compliance Matrix: (Units=1/GPa)
#
#
# Indices 1 2 3 4 5 6 
#
# 1 0.017111 -0.001414 -0.000804 0.000000 -0.005668 0.000000
# 2 -0.001414 0.007200 -0.002936 0.000000 0.001281 0.000000
# 3 -0.000804 -0.002936 0.017303 0.000000 -0.002433 0.000000
# 4 0.000000 0.000000 0.000000 0.083524 0.000000 -0.023184
# 5 -0.005668 0.001281 -0.002433 0.000000 0.023272 0.000000
# 6 0.000000 0.000000 0.000000 -0.023184 0.000000 0.039876
#
#
# Mechanical properties :
#
#
# Convention : Reuss Voigt Hill
#
# Bulk Modulus (GPa) = 31.94277 41.61012 36.77644
# Shear Modulus (GPa) = 23.92009 34.02285 28.97147
#
# Velocity S-wave (km/s) = 3.10991 3.70896 3.42257
# Velocity P-wave (km/s) = 5.08043 5.93009 5.52163
#
# Compressibility (1/GPa) = 0.03130599
#
# Stress axis : x y z
#
# Youngs Moduli (GPa) = 58.44159 138.88962 57.79241
#
# Poissons Ratio (x) = 0.19642 0.04648
# Poissons Ratio (y) = 0.08265 0.16966
# Poissons Ratio (z) = 0.04700 0.40774
#
# Static dielectric constant tensor:
#      x y z
#    x 2.108240 0.000000 -0.153000 
#    y 0.000000 2.073360 0.000000 
#    z -0.153000 0.000000 2.112920 
# 
# From -- ./inp_files/287998.got.cif
#   From: 2010.05.17/outbox.cif.g08.bks.cpg/sg15_144_cif.got.tgz:287998.got - 2010.06.03 18:47:42.
