data_PCOD9284670
_publ_section_title
;
Structure prediction by ZEFSAII (Michael W. Deem and Ramdas Pophale) SiO2 
 PCOD9284670
Probable space group: C 2/C
;
_chemical_formula_sum "Si O2"
_cell_formula_units_Z 32
_cell_length_a 6.951008
_cell_length_b 12.905454
_cell_length_c 13.897449
_cell_angle_alpha 90.000000
_cell_angle_beta 76.846925
_cell_angle_gamma 90.000000
_cell_volume 1213.977368
_symmetry_space_group_name_H-M "C 2/C"
_symmetry_group_IT_number 15
_symmetry_cell_setting 'monoclinic'
loop_
_space_group_symop_operation_xyz
x,y,z
-x,y,1/2-z
-x,-y,-z
x,-y,1/2+z
1/2+x,1/2+y,z
1/2-x,1/2+y,1/2-z
1/2-x,1/2-y,-z
1/2+x,1/2-y,1/2+z
loop_
_atom_site_type_symbol
_atom_site_label
_atom_site_fract_x
_atom_site_fract_y
_atom_site_fract_z
Si Si1 0.737213 0.917664 0.982164
Si Si2 0.294126 0.376605 0.571239
Si Si3 0.763159 0.029687 0.276202
Si Si4 0.430084 0.813132 0.155898
O O1 0.969082 0.893102 0.967363
O O2 0.693508 0.901917 0.874687
O O3 0.615724 0.849240 0.070546
O O4 0.708986 0.041777 0.003549
O O5 0.212729 0.426583 0.678713
O O6 0.291306 0.255355 0.600643
O O7 0.682178 0.914698 0.296528
O O8 0.000000 0.023195 0.250000
O O9 0.500000 0.760908 0.250000
#
# Coordination Sequence:
#
# PCOD9284670 Si02
#       4
#     8   8   8   8
#     4  10  21  41  63  89 132 165 213 268 313 377
#     4  10  22  40  64  94 127 163 215 268 311 378
#     4  10  22  43  59  91 133 163 210 272 313 377
#     4  12  22  39  67  95 123 176 216 252 329 380
#
# _framework density 26.359635000000001
#
# number of rings (size 3 to 8) (size 9 to 14) (size 15 to 20)
#    0.000    1.500    2.500    3.750    0.000    1.000 
#    4.500    0.000    0.000    0.000    0.000    0.000 
#    0.000    0.000    0.000    0.000    0.000    0.000 
#
# Total GULP energy -89550.599200 kJ/mol
# GULP energy per Si atom -5596.912450 kJ/mol
# Density = 2.629964 g / cm^3
# Si number density = 26.359635 Si / 1000 Ang^3
#
#
#
# Elastic Constant Matrix: (Units=GPa)
#
#
# Indices 1 2 3 4 5 6 
#
# 1 72.5003 3.1953 44.2247 0.0000 -2.1366 0.0000
# 2 3.1953 136.6042 28.8296 0.0000 -24.0378 0.0000
# 3 44.2247 28.8296 167.3673 0.0000 -12.7989 0.0000
# 4 0.0000 0.0000 0.0000 37.3151 0.0000 -13.7708
# 5 -2.1366 -24.0378 -12.7989 0.0000 48.3354 0.0000
# 6 0.0000 0.0000 0.0000 -13.7708 0.0000 29.1860
#
#
#
# Elastic Compliance Matrix: (Units=1/GPa)
#
#
# Indices 1 2 3 4 5 6 
#
# 1 0.016485 0.000522 -0.004461 0.000000 -0.000193 0.000000
# 2 0.000522 0.008242 -0.001268 0.000000 0.003786 0.000000
# 3 -0.004461 -0.001268 0.007460 0.000000 0.001147 0.000000
# 4 0.000000 0.000000 0.000000 0.032449 0.000000 0.015310
# 5 -0.000193 0.003786 0.001147 0.000000 0.022867 0.000000
# 6 0.000000 0.000000 0.000000 0.015310 0.000000 0.041487
#
#
# Mechanical properties :
#
#
# Convention : Reuss Voigt Hill
#
# Bulk Modulus (GPa) = 45.92778 58.77459 52.35119
# Shear Modulus (GPa) = 34.09205 42.98210 38.53708
#
# Velocity S-wave (km/s) = 3.60021 4.04245 3.82772
# Velocity P-wave (km/s) = 5.89435 6.64336 6.28003
#
# Compressibility (1/GPa) = 0.02177331
#
# Stress axis : x y z
#
# Youngs Moduli (GPa) = 60.65994 121.32864 134.05285
#
# Poissons Ratio (x) = -0.06331 0.59797
# Poissons Ratio (y) = -0.03166 0.16999
# Poissons Ratio (z) = 0.27059 0.15385
#
# Static dielectric constant tensor:
#      x y z
#    x 2.117040 0.000000 0.068820 
#    y 0.000000 2.121890 0.000000 
#    z 0.068820 0.000000 2.026260 
# 
# From -- ./inp_files/75295.got.cif
#   From: 2010.05.17/outbox.cif.g08.bks.cpg/sg15_38_cif.got.tgz:75295.got - 2010.06.03 18:47:42.
