data_PCOD9284825
_publ_section_title
;
Structure prediction by ZEFSAII (Michael W. Deem and Ramdas Pophale) SiO2 
 PCOD9284825
Probable space group: C 2/C
;
_chemical_formula_sum "Si O2"
_cell_formula_units_Z 52
_cell_length_a 8.063013
_cell_length_b 23.912647
_cell_length_c 12.953708
_cell_angle_alpha 90.000000
_cell_angle_beta 111.769016
_cell_angle_gamma 90.000000
_cell_volume 2319.467310
_symmetry_space_group_name_H-M "C 2/C"
_symmetry_group_IT_number 15
_symmetry_cell_setting 'monoclinic'
loop_
_space_group_symop_operation_xyz
x,y,z
-x,y,1/2-z
-x,-y,-z
x,-y,1/2+z
1/2+x,1/2+y,z
1/2-x,1/2+y,1/2-z
1/2-x,1/2-y,-z
1/2+x,1/2-y,1/2+z
loop_
_atom_site_type_symbol
_atom_site_label
_atom_site_fract_x
_atom_site_fract_y
_atom_site_fract_z
Si Si1 0.813744 0.006619 0.395054
Si Si2 0.404480 0.297341 0.024516
Si Si3 0.088020 0.298791 0.659035
Si Si4 0.000000 0.947969 0.750000
Si Si5 0.914385 0.395570 0.124619
Si Si6 0.167465 0.393451 0.999545
Si Si7 0.130263 0.153874 0.408590
O O1 0.858419 0.018086 0.285117
O O2 0.713901 0.058154 0.429072
O O3 0.698348 0.950911 0.376804
O O4 0.000000 0.000000 0.500000
O O5 0.565642 0.263411 0.110091
O O6 0.250000 0.250000 0.000000
O O7 0.340762 0.354862 0.061298
O O8 0.464063 0.315505 0.923948
O O9 0.285391 0.315991 0.670848
O O10 0.000000 0.296311 0.750000
O O11 0.969091 0.348530 0.581247
O O12 0.084641 0.907430 0.855655
O O13 0.000000 0.372917 0.250000
O O14 0.780690 0.353946 0.032509
O O15 0.071918 0.412394 0.081528
#
# Coordination Sequence:
#
# PCOD9284825 Si02
#       7
#     8   8   8   4   8   8   8
#     4  12  24  43  66 102 134 178 232 281 351 408
#     4  10  21  41  64  97 136 176 223 289 343 413
#     4  10  22  38  67  99 131 178 227 284 344 405
#     4  12  24  40  76  96 136 180 228 282 352 400
#     4  11  26  43  67  97 138 189 228 286 351 412
#     4  10  22  43  62  91 141 172 229 285 337 413
#     4  11  23  45  68 102 141 181 233 285 346 413
#
# _framework density 22.418941
#
# number of rings (size 3 to 8) (size 9 to 14) (size 15 to 20)
#    0.000    1.231    3.077    1.846    4.308    4.308 
#    0.000    0.000    3.385    0.000    0.000    0.000 
#    0.000    0.000    0.000    0.000    0.000    0.000 
#
# Total GULP energy -145128.669057 kJ/mol
# GULP energy per Si atom -5581.871887 kJ/mol
# Density = 2.236791 g / cm^3
# Si number density = 22.418941 Si / 1000 Ang^3
#
#
#
# Elastic Constant Matrix: (Units=GPa)
#
#
# Indices 1 2 3 4 5 6 
#
# 1 119.5258 45.8467 45.2873 0.0000 -50.3282 0.0000
# 2 45.8467 53.7108 32.3566 0.0000 -27.2370 0.0000
# 3 45.2873 32.3566 125.9531 0.0000 -30.8511 0.0000
# 4 0.0000 0.0000 0.0000 33.8217 0.0000 -20.3567
# 5 -50.3282 -27.2370 -30.8511 0.0000 54.5553 0.0000
# 6 0.0000 0.0000 0.0000 -20.3567 0.0000 34.5066
#
#
#
# Elastic Compliance Matrix: (Units=1/GPa)
#
#
# Indices 1 2 3 4 5 6 
#
# 1 0.016194 -0.007820 -0.001289 0.000000 0.010306 0.000000
# 2 -0.007820 0.030469 -0.003548 0.000000 0.005991 0.000000
# 3 -0.001289 -0.003548 0.009970 0.000000 0.002677 0.000000
# 4 0.000000 0.000000 0.000000 0.045845 0.000000 0.027046
# 5 0.010306 0.005991 0.002677 0.000000 0.032343 0.000000
# 6 0.000000 0.000000 0.000000 0.027046 0.000000 0.044935
#
#
# Mechanical properties :
#
#
# Convention : Reuss Voigt Hill
#
# Bulk Modulus (GPa) = 31.93029 60.68569 46.30799
# Shear Modulus (GPa) = 23.20079 36.29000 29.74539
#
# Velocity S-wave (km/s) = 3.22044 4.02770 3.64647
# Velocity P-wave (km/s) = 5.30111 6.98266 6.19916
#
# Compressibility (1/GPa) = 0.03131823
#
# Stress axis : x y z
#
# Youngs Moduli (GPa) = 61.75170 32.82043 100.29743
#
# Poissons Ratio (x) = 0.25665 0.12932
# Poissons Ratio (y) = 0.48290 0.35586
# Poissons Ratio (z) = 0.07962 0.11645
#
# Static dielectric constant tensor:
#      x y z
#    x 1.934920 0.000000 0.037020 
#    y 0.000000 1.824100 0.000000 
#    z 0.037020 0.000000 1.884250 
# 
# From -- ./inp_files/80781.got.cif
#   From: 2010.05.17/outbox.cif.g08.bks.cpg/sg15_41_cif.got.tgz:80781.got - 2010.06.03 18:47:42.
