data_PCOD9284153
_publ_section_title
;
Structure prediction by ZEFSAII (Michael W. Deem and Ramdas Pophale) SiO2 
 PCOD9284153
Probable space group: C 2/C
;
_chemical_formula_sum "Si O2"
_cell_formula_units_Z 60
_cell_length_a 10.827103
_cell_length_b 27.836494
_cell_length_c 8.694940
_cell_angle_alpha 90.000000
_cell_angle_beta 87.562286
_cell_angle_gamma 90.000000
_cell_volume 2618.184214
_symmetry_space_group_name_H-M "C 2/C"
_symmetry_group_IT_number 15
_symmetry_cell_setting 'monoclinic'
loop_
_space_group_symop_operation_xyz
x,y,z
-x,y,1/2-z
-x,-y,-z
x,-y,1/2+z
1/2+x,1/2+y,z
1/2-x,1/2+y,1/2-z
1/2-x,1/2-y,-z
1/2+x,1/2-y,1/2+z
loop_
_atom_site_type_symbol
_atom_site_label
_atom_site_fract_x
_atom_site_fract_y
_atom_site_fract_z
Si Si1 0.925892 0.097120 0.413860
Si Si2 0.000000 0.936564 0.250000
Si Si3 0.775312 0.345557 0.019941
Si Si4 0.667711 0.953591 0.997770
Si Si5 0.288844 0.684338 0.296078
Si Si6 0.938484 0.642146 0.045344
Si Si7 0.355252 0.209255 0.790536
Si Si8 0.767960 0.451658 0.159507
O O1 0.980694 0.090345 0.584719
O O2 0.799635 0.066221 0.429260
O O3 0.879218 0.151340 0.390861
O O4 0.000000 0.084625 0.250000
O O5 0.126561 0.965371 0.213043
O O6 0.766542 0.308316 0.159224
O O7 0.757556 0.400225 0.076886
O O8 0.921370 0.342796 0.974855
O O9 0.690262 0.329001 0.883925
O O10 0.570736 0.915104 0.938626
O O11 0.663394 0.948607 0.181487
O O12 0.665233 0.008395 0.945999
O O13 0.147933 0.667109 0.325983
O O14 0.304088 0.739201 0.340383
O O15 0.867769 0.662726 0.898592
O O16 0.500000 0.219686 0.750000
#
# Coordination Sequence:
#
# PCOD9284153 Si02
#       8
#     8   4   8   8   8   8   8   8
#     4  10  22  40  64  94 135 171 215 274 326 394
#     4  10  24  42  64  98 134 174 218 270 340 392
#     4  11  23  41  67  93 132 173 216 267 330 390
#     4  10  24  39  63  95 127 170 217 268 328 386
#     4  11  22  39  66  97 127 167 220 270 321 391
#     4  10  22  43  62  92 132 173 212 266 326 389
#     4  10  21  40  67  91 127 173 212 267 332 392
#     4  11  24  40  64  95 128 169 217 270 326 394
#
# _framework density 22.916646
#
# number of rings (size 3 to 8) (size 9 to 14) (size 15 to 20)
#    0.000    1.600    1.333    2.400    6.533    1.600 
#    0.000    0.000    0.000    0.000    0.000    0.000 
#    0.000    0.000    0.000    0.000    0.000    0.000 
#
# Total GULP energy -167358.150035 kJ/mol
# GULP energy per Si atom -5578.605001 kJ/mol
# Density = 2.286449 g / cm^3
# Si number density = 22.916646 Si / 1000 Ang^3
#
#
#
# Elastic Constant Matrix: (Units=GPa)
#
#
# Indices 1 2 3 4 5 6 
#
# 1 22.5012 -1.4779 13.5627 0.0000 4.3549 0.0000
# 2 -1.4779 137.4232 33.6148 0.0000 5.3613 0.0000
# 3 13.5627 33.6148 112.1736 0.0000 6.4486 0.0000
# 4 0.0000 0.0000 0.0000 23.7798 0.0000 -21.3298
# 5 4.3549 5.3613 6.4486 0.0000 15.8035 0.0000
# 6 0.0000 0.0000 0.0000 -21.3298 0.0000 61.0271
#
#
#
# Elastic Compliance Matrix: (Units=1/GPa)
#
#
# Indices 1 2 3 4 5 6 
#
# 1 0.050720 0.002539 -0.006185 0.000000 -0.012314 0.000000
# 2 0.002539 0.008027 -0.002576 0.000000 -0.002372 0.000000
# 3 -0.006185 -0.002576 0.010533 0.000000 -0.001720 0.000000
# 4 0.000000 0.000000 0.000000 0.061257 0.000000 0.021410
# 5 -0.012314 -0.002372 -0.001720 0.000000 0.068177 0.000000
# 6 0.000000 0.000000 0.000000 0.021410 0.000000 0.023869
#
#
# Mechanical properties :
#
#
# Convention : Reuss Voigt Hill
#
# Bulk Modulus (GPa) = 17.59466 40.38860 28.99163
# Shear Modulus (GPa) = 19.68708 35.21529 27.45119
#
# Velocity S-wave (km/s) = 2.93418 3.92429 3.46478
# Velocity P-wave (km/s) = 4.37876 6.18027 5.35581
#
# Compressibility (1/GPa) = 0.05683542
#
# Stress axis : x y z
#
# Youngs Moduli (GPa) = 19.71597 124.58383 94.93593
#
# Poissons Ratio (x) = -0.31630 0.58722
# Poissons Ratio (y) = -0.05006 0.24455
# Poissons Ratio (z) = 0.12195 0.32093
#
# Static dielectric constant tensor:
#      x y z
#    x 1.863150 0.000000 -0.021680 
#    y 0.000000 1.818730 0.000000 
#    z -0.021680 0.000000 2.043240 
# 
# From -- ./inp_files/34270.got.cif
#   From: 2010.05.17/outbox.cif.g08.bks.cpg/sg15_18_cif.got.tgz:34270.got - 2010.06.03 18:47:42.
