data_PCOD9284855
_publ_section_title
;
Structure prediction by ZEFSAII (Michael W. Deem and Ramdas Pophale) SiO2 
 PCOD9284855
Probable space group: C 2/C
;
_chemical_formula_sum "Si O2"
_cell_formula_units_Z 64
_cell_length_a 23.872160
_cell_length_b 17.503873
_cell_length_c 15.777825
_cell_angle_alpha 90.000000
_cell_angle_beta 151.179136
_cell_angle_gamma 90.000000
_cell_volume 3178.231910
_symmetry_space_group_name_H-M "C 2/C"
_symmetry_group_IT_number 15
_symmetry_cell_setting 'monoclinic'
loop_
_space_group_symop_operation_xyz
x,y,z
-x,y,1/2-z
-x,-y,-z
x,-y,1/2+z
1/2+x,1/2+y,z
1/2-x,1/2+y,1/2-z
1/2-x,1/2-y,-z
1/2+x,1/2-y,1/2+z
loop_
_atom_site_type_symbol
_atom_site_label
_atom_site_fract_x
_atom_site_fract_y
_atom_site_fract_z
Si Si1 0.330299 0.493348 0.323745
Si Si2 0.678690 0.134455 0.053090
Si Si3 0.531073 0.396926 0.131549
Si Si4 0.139698 0.613046 0.637178
Si Si5 0.778224 0.168933 0.494270
Si Si6 0.406678 0.883915 0.234027
Si Si7 0.840608 0.220968 0.388886
Si Si8 0.936395 0.441132 0.756579
O O1 0.251353 0.556758 0.170181
O O2 0.390072 0.434542 0.337324
O O3 0.428982 0.539955 0.505360
O O4 0.248018 0.443195 0.273316
O O5 0.741942 0.198584 0.191368
O O6 0.668512 0.153360 0.940287
O O7 0.544811 0.125711 0.903373
O O8 0.613789 0.374094 0.318415
O O9 0.460180 0.319202 0.016727
O O10 0.123156 0.639428 0.711047
O O11 0.150251 0.688313 0.593445
O O12 0.030086 0.567655 0.455267
O O13 0.750000 0.250000 0.500000
O O14 0.807506 0.184817 0.435333
O O15 0.664952 0.118245 0.359997
O O16 0.385922 0.974094 0.193501
O O17 0.000000 0.430155 0.750000
#
# Coordination Sequence:
#
# PCOD9284855 Si02
#       8
#     8   8   8   8   8   8   8   8
#     4  10  21  41  65  87 132 167 216 268 318 396
#     4  10  21  43  62  91 125 168 212 267 334 373
#     4  10  22  40  62  89 127 180 209 256 326 390
#     4  12  24  39  64  98 126 167 221 268 329 381
#     4  12  24  39  63  98 138 173 210 260 337 403
#     4  11  22  38  66  95 120 161 222 280 317 377
#     4  11  25  41  62  91 135 175 212 263 324 400
#     4  12  22  38  67  99 131 160 212 278 328 386
#
# _framework density 20.136983000000001
#
# number of rings (size 3 to 8) (size 9 to 14) (size 15 to 20)
#    0.000    1.000    2.500    5.250    3.500    1.500 
#    2.250    0.000    0.000    3.000    0.000    0.000 
#    0.000    0.000    0.000    0.000    0.000    0.000 
#
# Total GULP energy -178848.370703 kJ/mol
# GULP energy per Si atom -5589.011584 kJ/mol
# Density = 2.009115 g / cm^3
# Si number density = 20.136983 Si / 1000 Ang^3
#
#
#
# Elastic Constant Matrix: (Units=GPa)
#
#
# Indices 1 2 3 4 5 6 
#
# 1 59.4524 5.4865 49.1507 0.0000 -11.1148 0.0000
# 2 5.4865 31.7266 23.4364 0.0000 -0.0587 0.0000
# 3 49.1507 23.4364 116.2875 0.0000 -7.8352 0.0000
# 4 0.0000 0.0000 0.0000 16.4435 0.0000 -9.6035
# 5 -11.1148 -0.0587 -7.8352 0.0000 32.9855 0.0000
# 6 0.0000 0.0000 0.0000 -9.6035 0.0000 18.9282
#
#
#
# Elastic Compliance Matrix: (Units=1/GPa)
#
#
# Indices 1 2 3 4 5 6 
#
# 1 0.027630 0.004159 -0.012082 0.000000 0.006448 0.000000
# 2 0.004159 0.037756 -0.009419 0.000000 -0.000769 0.000000
# 3 -0.012082 -0.009419 0.015578 0.000000 -0.000388 0.000000
# 4 0.000000 0.000000 0.000000 0.086423 0.000000 0.043848
# 5 0.006448 -0.000769 -0.000388 0.000000 0.032396 0.000000
# 6 0.000000 0.000000 0.000000 0.043848 0.000000 0.075078
#
#
# Mechanical properties :
#
#
# Convention : Reuss Voigt Hill
#
# Bulk Modulus (GPa) = 21.60734 40.40153 31.00443
# Shear Modulus (GPa) = 15.38590 22.29763 18.84176
#
# Velocity S-wave (km/s) = 2.76717 3.33122 3.06221
# Velocity P-wave (km/s) = 4.57854 5.90787 5.28517
#
# Compressibility (1/GPa) = 0.04628058
#
# Stress axis : x y z
#
# Youngs Moduli (GPa) = 36.19202 26.48553 64.19206
#
# Poissons Ratio (x) = -0.11015 0.77558
# Poissons Ratio (y) = -0.15052 0.60462
# Poissons Ratio (z) = 0.43728 0.24947
#
# Static dielectric constant tensor:
#      x y z
#    x 1.729530 0.000000 0.009460 
#    y 0.000000 1.709730 0.000000 
#    z 0.009460 0.000000 1.713900 
# 
# From -- ./inp_files/174244.got.cif
#   From: 2010.05.17/outbox.cif.g08.bks.cpg/sg15_88_cif.got.tgz:174244.got - 2010.06.03 18:47:42.
