data_PCOD9284345
_publ_section_title
;
Structure prediction by ZEFSAII (Michael W. Deem and Ramdas Pophale) SiO2 
 PCOD9284345
Probable space group: C 2/C
;
_chemical_formula_sum "Si O2"
_cell_formula_units_Z 44
_cell_length_a 17.293877
_cell_length_b 11.156382
_cell_length_c 28.390608
_cell_angle_alpha 90.000000
_cell_angle_beta 22.693395
_cell_angle_gamma 90.000000
_cell_volume 2113.256971
_symmetry_space_group_name_H-M "C 2/C"
_symmetry_group_IT_number 15
_symmetry_cell_setting 'monoclinic'
loop_
_space_group_symop_operation_xyz
x,y,z
-x,y,1/2-z
-x,-y,-z
x,-y,1/2+z
1/2+x,1/2+y,z
1/2-x,1/2+y,1/2-z
1/2-x,1/2-y,-z
1/2+x,1/2-y,1/2+z
loop_
_atom_site_type_symbol
_atom_site_label
_atom_site_fract_x
_atom_site_fract_y
_atom_site_fract_z
Si Si1 0.066836 0.603485 0.127551
Si Si2 0.733513 0.356416 0.472964
Si Si3 0.500000 0.719351 0.250000
Si Si4 0.852003 0.591595 0.109034
Si Si5 0.072371 0.212580 0.536522
Si Si6 0.823750 0.971878 0.689831
O O1 0.187048 0.480595 0.049330
O O2 0.067920 0.699413 0.084455
O O3 0.838520 0.560735 0.258787
O O4 0.200774 0.662487 0.093390
O O5 0.750000 0.250000 0.500000
O O6 0.506212 0.379017 0.585811
O O7 0.870543 0.309676 0.354176
O O8 0.654867 0.634618 0.191594
O O9 0.778942 0.539902 0.200828
O O10 0.987683 0.708622 0.042205
O O11 0.000000 0.500000 0.000000
O O12 0.920999 0.102217 0.629052
#
# Coordination Sequence:
#
# PCOD9284345 Si02
#       6
#     8   8   4   8   8   8
#     4   9  20  37  66  92 125 172 224 273 329 400
#     4  11  23  42  66  95 133 180 225 271 343 407
#     4  12  26  42  66 102 140 172 230 286 328 414
#     4  11  25  39  63 100 136 173 229 283 339 403
#     4   9  20  40  63  94 128 172 226 274 338 406
#     4  10  21  40  69  94 128 185 222 272 344 411
#
# _framework density 20.820941999999999
#
# number of rings (size 3 to 8) (size 9 to 14) (size 15 to 20)
#    0.000    1.818    1.818    1.091    7.636    1.455 
#    0.000   11.818    0.000    0.000    0.000    0.000 
#    0.000    0.000    0.000    0.000    0.000    0.000 
#
# Total GULP energy -122752.546598 kJ/mol
# GULP energy per Si atom -5579.661209 kJ/mol
# Density = 2.077355 g / cm^3
# Si number density = 20.820942 Si / 1000 Ang^3
#
#
#
# Elastic Constant Matrix: (Units=GPa)
#
#
# Indices 1 2 3 4 5 6 
#
# 1 85.7093 48.9542 62.6665 -0.0024 -38.3587 0.0022
# 2 48.9542 121.9825 53.4372 -0.0057 -23.3722 0.0046
# 3 62.6665 53.4372 145.9055 -0.0233 -25.3098 0.0158
# 4 -0.0024 -0.0057 -0.0233 14.6177 0.0022 -13.0371
# 5 -38.3587 -23.3722 -25.3098 0.0022 60.8640 -0.0037
# 6 0.0022 0.0046 0.0158 -13.0371 -0.0037 33.0198
#
#
#
# Elastic Compliance Matrix: (Units=1/GPa)
#
#
# Indices 1 2 3 4 5 6 
#
# 1 0.023975 -0.004640 -0.006775 -0.000011 0.010511 -0.000001
# 2 -0.004640 0.011010 -0.001954 0.000000 0.000491 0.000000
# 3 -0.006775 -0.001954 0.010355 0.000017 -0.000714 0.000002
# 4 -0.000011 0.000000 0.000017 0.105593 -0.000001 0.041691
# 5 0.010511 0.000491 -0.000714 -0.000001 0.022946 0.000002
# 6 -0.000001 0.000000 0.000002 0.041691 0.000002 0.046745
#
#
# Mechanical properties :
#
#
# Convention : Reuss Voigt Hill
#
# Bulk Modulus (GPa) = 53.75584 75.96814 64.86199
# Shear Modulus (GPa) = 19.71890 34.26959 26.99425
#
# Velocity S-wave (km/s) = 3.08079 4.06139 3.60459
# Velocity P-wave (km/s) = 6.20719 7.65238 6.96736
#
# Compressibility (1/GPa) = 0.01860263
#
# Stress axis : x y z
#
# Youngs Moduli (GPa) = 41.71045 90.82431 96.56808
#
# Poissons Ratio (x) = 0.42142 0.65420
# Poissons Ratio (y) = 0.19353 0.18873
# Poissons Ratio (z) = 0.28257 0.17751
#
# Static dielectric constant tensor:
#      x y z
#    x 1.742440 0.000000 -0.043380 
#    y 0.000000 1.720640 0.000010 
#    z -0.043380 0.000010 1.722130 
# 
# From -- ./inp_files/316156.got.cif
#   From: 2010.05.17/outbox.cif.g08.bks.cpg/sg15_159_cif.got.tgz:316156.got - 2010.06.03 18:47:42.
