data_PCOD9284414
_publ_section_title
;
Structure prediction by ZEFSAII (Michael W. Deem and Ramdas Pophale) SiO2 
 PCOD9284414
Probable space group: C 2/C
;
_chemical_formula_sum "Si O2"
_cell_formula_units_Z 52
_cell_length_a 12.064040
_cell_length_b 14.769482
_cell_length_c 21.083572
_cell_angle_alpha 90.000000
_cell_angle_beta 33.997659
_cell_angle_gamma 90.000000
_cell_volume 2100.571973
_symmetry_space_group_name_H-M "C 2/C"
_symmetry_group_IT_number 15
_symmetry_cell_setting 'monoclinic'
loop_
_space_group_symop_operation_xyz
x,y,z
-x,y,1/2-z
-x,-y,-z
x,-y,1/2+z
1/2+x,1/2+y,z
1/2-x,1/2+y,1/2-z
1/2-x,1/2-y,-z
1/2+x,1/2-y,1/2+z
loop_
_atom_site_type_symbol
_atom_site_label
_atom_site_fract_x
_atom_site_fract_y
_atom_site_fract_z
Si Si1 0.880080 0.637596 0.175509
Si Si2 0.098001 0.078029 0.495163
Si Si3 0.382560 0.730519 0.520491
Si Si4 0.500000 0.869670 0.750000
Si Si5 0.949910 0.268931 0.190308
Si Si6 0.099297 0.597419 0.957369
Si Si7 0.301990 0.436399 0.241379
O O1 0.726976 0.699668 0.209397
O O2 0.787825 0.537139 0.225545
O O3 0.907852 0.680216 0.232516
O O4 0.081615 0.629517 0.038628
O O5 0.011427 0.171210 0.507633
O O6 0.328690 0.075258 0.367484
O O7 0.013272 0.067459 0.606179
O O8 0.000000 0.000000 0.500000
O O9 0.149169 0.711540 0.635197
O O10 0.455128 0.712097 0.414312
O O11 0.448429 0.833953 0.495126
O O12 0.840873 0.362691 0.224696
O O13 0.288950 0.589896 0.821936
O O14 0.000000 0.500000 0.000000
#
# Coordination Sequence:
#
# PCOD9284414 Si02
#       7
#     8   8   8   4   8   8   8
#     4  11  22  44  66  98 144 176 221 281 346 398
#     4  12  24  42  69 103 139 175 227 279 348 407
#     4  10  21  40  71 105 133 173 229 285 345 399
#     4  12  26  44  68  96 144 180 218 286 352 398
#     4  10  21  40  72 104 135 172 226 291 338 407
#     4   9  21  42  66  93 139 180 218 280 330 406
#     4  10  22  41  68  99 135 174 228 271 342 410
#
# _framework density 24.755163
#
# number of rings (size 3 to 8) (size 9 to 14) (size 15 to 20)
#    0.000    1.538    3.077    0.923    2.154    2.462 
#    5.538    3.846    0.000    0.000    0.000    0.000 
#    0.000    0.000    0.000    0.000    0.000    0.000 
#
# Total GULP energy -145134.388862 kJ/mol
# GULP energy per Si atom -5582.091879 kJ/mol
# Density = 2.469882 g / cm^3
# Si number density = 24.755163 Si / 1000 Ang^3
#
#
#
# Elastic Constant Matrix: (Units=GPa)
#
#
# Indices 1 2 3 4 5 6 
#
# 1 69.2448 11.3577 50.4560 0.0000 -9.5047 -0.0002
# 2 11.3577 133.2621 17.8876 -0.0012 -20.1378 0.0002
# 3 50.4560 17.8876 221.5795 -0.0021 0.8631 0.0007
# 4 0.0000 -0.0012 -0.0021 29.3739 0.0001 6.1279
# 5 -9.5047 -20.1378 0.8631 0.0001 53.1650 0.0000
# 6 -0.0002 0.0002 0.0007 6.1279 0.0000 14.8549
#
#
#
# Elastic Compliance Matrix: (Units=1/GPa)
#
#
# Indices 1 2 3 4 5 6 
#
# 1 0.017895 -0.000519 -0.004045 0.000000 0.003069 0.000001
# 2 -0.000519 0.008071 -0.000545 0.000000 0.002973 0.000000
# 3 -0.004045 -0.000545 0.005482 0.000000 -0.001019 0.000000
# 4 0.000000 0.000000 0.000000 0.037249 0.000000 -0.015366
# 5 0.003069 0.002973 -0.001019 0.000000 0.020501 0.000000
# 6 0.000001 0.000000 0.000000 -0.015366 0.000000 0.073656
#
#
# Mechanical properties :
#
#
# Convention : Reuss Voigt Hill
#
# Bulk Modulus (GPa) = 47.10134 64.83212 55.96673
# Shear Modulus (GPa) = 27.75487 42.43777 35.09632
#
# Velocity S-wave (km/s) = 3.35203 4.14490 3.76937
# Velocity P-wave (km/s) = 5.83521 7.01093 6.44991
#
# Compressibility (1/GPa) = 0.02123082
#
# Stress axis : x y z
#
# Youngs Moduli (GPa) = 55.88083 123.90587 182.41131
#
# Poissons Ratio (x) = 0.06425 0.73786
# Poissons Ratio (y) = 0.02898 0.09942
# Poissons Ratio (z) = 0.22604 0.06753
#
# Static dielectric constant tensor:
#      x y z
#    x 2.037620 0.000000 0.121580 
#    y 0.000000 1.871170 0.000000 
#    z 0.121580 0.000000 2.235980 
# 
# From -- ./inp_files/277461.got.cif
#   From: 2010.05.17/outbox.cif.g08.bks.cpg/sg15_139_cif.got.tgz:277461.got - 2010.06.03 18:47:42.
