data_PCOD9284219
_publ_section_title
;
Structure prediction by ZEFSAII (Michael W. Deem and Ramdas Pophale) SiO2 
 PCOD9284219
Probable space group: C 2/C
;
_chemical_formula_sum "Si O2"
_cell_formula_units_Z 40
_cell_length_a 22.001677
_cell_length_b 10.830923
_cell_length_c 11.600438
_cell_angle_alpha 90.000000
_cell_angle_beta 33.756822
_cell_angle_gamma 90.000000
_cell_volume 1536.073469
_symmetry_space_group_name_H-M "C 2/C"
_symmetry_group_IT_number 15
_symmetry_cell_setting 'monoclinic'
loop_
_space_group_symop_operation_xyz
x,y,z
-x,y,1/2-z
-x,-y,-z
x,-y,1/2+z
1/2+x,1/2+y,z
1/2-x,1/2+y,1/2-z
1/2-x,1/2-y,-z
1/2+x,1/2-y,1/2+z
loop_
_atom_site_type_symbol
_atom_site_label
_atom_site_fract_x
_atom_site_fract_y
_atom_site_fract_z
Si Si1 0.098140 0.906214 0.023103
Si Si2 0.793862 0.295234 0.276396
Si Si3 0.899836 0.851965 0.083174
Si Si4 0.515648 0.875023 0.907158
Si Si5 0.255071 0.025215 0.483041
O O1 0.000000 0.840228 0.250000
O O2 0.157376 0.841215 0.821344
O O3 0.040473 0.031632 0.068858
O O4 0.197496 0.933879 0.953449
O O5 0.679784 0.299675 0.389952
O O6 0.781366 0.379084 0.412301
O O7 0.894195 0.360736 0.047195
O O8 0.966327 0.742067 0.036437
O O9 0.825957 0.918068 0.295521
O O10 0.632638 0.901738 0.667749
O O11 0.500000 0.000000 0.000000
#
# Coordination Sequence:
#
# PCOD9284219 Si02
#       5
#     8   8   8   8   8
#     4  11  24  41  66  97 134 183 225 277 349 406
#     4  10  23  39  67 101 133 179 230 276 345 417
#     4  11  23  42  68  98 140 174 227 294 335 407
#     4  10  21  40  67  98 133 177 226 273 344 413
#     4  10  22  41  64  98 134 175 229 283 338 413
#
# _framework density 26.040420000000001
#
# number of rings (size 3 to 8) (size 9 to 14) (size 15 to 20)
#    0.000    1.600    2.000    1.800    2.800    4.000 
#    0.000    6.000    0.000    0.000    0.000    0.000 
#    0.000    0.000    0.000    0.000    0.000    0.000 
#
# Total GULP energy -111442.785531 kJ/mol
# GULP energy per Si atom -5572.139277 kJ/mol
# Density = 2.598115 g / cm^3
# Si number density = 26.040420 Si / 1000 Ang^3
#
#
#
# Elastic Constant Matrix: (Units=GPa)
#
#
# Indices 1 2 3 4 5 6 
#
# 1 39.6410 -18.4874 2.0370 0.0000 -4.8985 0.0000
# 2 -18.4874 99.7977 5.8499 0.0000 24.6443 0.0000
# 3 2.0370 5.8499 105.8406 0.0000 13.7057 0.0000
# 4 0.0000 0.0000 0.0000 31.9111 0.0000 -5.3113
# 5 -4.8985 24.6443 13.7057 0.0000 42.4508 0.0000
# 6 0.0000 0.0000 0.0000 -5.3113 0.0000 18.2492
#
#
#
# Elastic Compliance Matrix: (Units=1/GPa)
#
#
# Indices 1 2 3 4 5 6 
#
# 1 0.027693 0.005046 -0.000883 0.000000 0.000552 0.000000
# 2 0.005046 0.012622 0.000082 0.000000 -0.006772 0.000000
# 3 -0.000883 0.000082 0.009894 0.000000 -0.003344 0.000000
# 4 0.000000 0.000000 0.000000 0.032932 0.000000 0.009585
# 5 0.000552 -0.006772 -0.003344 0.000000 0.028631 0.000000
# 6 0.000000 0.000000 0.000000 0.009585 0.000000 0.057587
#
#
# Mechanical properties :
#
#
# Convention : Reuss Voigt Hill
#
# Bulk Modulus (GPa) = 17.03622 24.89757 20.96690
# Shear Modulus (GPa) = 27.71057 35.58088 31.64573
#
# Velocity S-wave (km/s) = 3.26565 3.70046 3.48983
# Velocity P-wave (km/s) = 4.55804 5.27634 4.93029
#
# Compressibility (1/GPa) = 0.05869846
#
# Stress axis : x y z
#
# Youngs Moduli (GPa) = 36.11007 79.22369 101.07507
#
# Poissons Ratio (x) = -0.39974 0.08928
# Poissons Ratio (y) = -0.18220 -0.00831
# Poissons Ratio (z) = 0.03189 -0.00651
#
# Static dielectric constant tensor:
#      x y z
#    x 2.192180 0.000000 0.108830 
#    y 0.000000 2.285600 0.000000 
#    z 0.108830 0.000000 2.212060 
# 
# From -- ./inp_files/111371.got.cif
#   From: 2010.05.17/outbox.cif.g08.bks.cpg/sg15_56_cif.got.tgz:111371.got - 2010.06.03 18:47:42.
