data_PCOD9284569
_publ_section_title
;
Structure prediction by ZEFSAII (Michael W. Deem and Ramdas Pophale) SiO2 
 PCOD9284569
Probable space group: C 2/C
;
_chemical_formula_sum "Si O2"
_cell_formula_units_Z 52
_cell_length_a 26.745173
_cell_length_b 15.309736
_cell_length_c 16.597453
_cell_angle_alpha 90.000000
_cell_angle_beta 157.123805
_cell_angle_gamma 90.000000
_cell_volume 2641.892346
_symmetry_space_group_name_H-M "C 2/C"
_symmetry_group_IT_number 15
_symmetry_cell_setting 'monoclinic'
loop_
_space_group_symop_operation_xyz
x,y,z
-x,y,1/2-z
-x,-y,-z
x,-y,1/2+z
1/2+x,1/2+y,z
1/2-x,1/2+y,1/2-z
1/2-x,1/2-y,-z
1/2+x,1/2-y,1/2+z
loop_
_atom_site_type_symbol
_atom_site_label
_atom_site_fract_x
_atom_site_fract_y
_atom_site_fract_z
Si Si1 0.919794 0.499530 0.799230
Si Si2 0.000000 0.560438 0.250000
Si Si3 0.255907 0.321358 0.126751
Si Si4 0.294233 0.361326 0.004818
Si Si5 0.027014 0.140801 0.421598
Si Si6 0.500000 0.791860 0.250000
Si Si7 0.236467 0.349346 0.511114
Si Si8 0.000000 0.998184 0.250000
O O1 0.996862 0.492430 0.829450
O O2 0.840974 0.410003 0.689565
O O3 0.824788 0.582808 0.644479
O O4 0.000000 0.500000 0.000000
O O5 0.129515 0.618587 0.444279
O O6 0.211550 0.220660 0.063257
O O7 0.360627 0.347624 0.347774
O O8 0.321851 0.330248 0.136688
O O9 0.391741 0.434828 0.122480
O O10 0.884366 0.124704 0.247531
O O11 0.021441 0.228220 0.358342
O O12 0.051021 0.061442 0.395940
O O13 0.631283 0.844236 0.426298
O O14 0.250000 0.250000 0.500000
#
# Coordination Sequence:
#
# PCOD9284569 Si02
#       8
#     8   4   8   8   8   4   8   4
#     4  11  24  41  67  95 134 181 219 278 341 401
#     4  10  24  44  66  94 136 168 230 276 326 416
#     4  10  23  45  64  96 133 180 218 279 340 404
#     4  10  23  43  63  93 132 169 232 272 328 416
#     4  10  22  40  66  95 133 169 219 279 341 391
#     4   9  21  38  61  95 132 172 212 266 340 411
#     4  10  21  41  61  96 137 166 217 279 324 409
#     4  11  21  42  67  99 130 170 222 284 336 403
#
# _framework density 19.682860999999999
#
# number of rings (size 3 to 8) (size 9 to 14) (size 15 to 20)
#    0.000    1.846    1.538    0.923    6.462    0.615 
#    8.308    0.000    0.000    0.000    0.000    0.000 
#    0.000    0.000    0.000    0.000    0.000    0.000 
#
# Total GULP energy -145002.437012 kJ/mol
# GULP energy per Si atom -5577.016808 kJ/mol
# Density = 1.963806 g / cm^3
# Si number density = 19.682861 Si / 1000 Ang^3
#
#
#
# Elastic Constant Matrix: (Units=GPa)
#
#
# Indices 1 2 3 4 5 6 
#
# 1 92.6375 25.5084 60.5677 0.0000 -8.1077 0.0000
# 2 25.5084 90.0690 40.2848 0.0000 -22.9001 0.0000
# 3 60.5677 40.2848 148.2754 0.0000 -30.8912 0.0000
# 4 0.0000 0.0000 0.0000 16.2342 0.0000 16.0256
# 5 -8.1077 -22.9001 -30.8912 0.0000 27.5596 0.0000
# 6 0.0000 0.0000 0.0000 16.0256 0.0000 33.1304
#
#
#
# Elastic Compliance Matrix: (Units=1/GPa)
#
#
# Indices 1 2 3 4 5 6 
#
# 1 0.015432 -0.002711 -0.006642 0.000000 -0.005157 0.000000
# 2 -0.002711 0.014935 -0.000693 0.000000 0.010836 0.000000
# 3 -0.006642 -0.000693 0.011897 0.000000 0.010805 0.000000
# 4 0.000000 0.000000 0.000000 0.117891 0.000000 -0.057026
# 5 -0.005157 0.010836 0.010805 0.000000 0.055883 0.000000
# 6 0.000000 0.000000 0.000000 -0.057026 0.000000 0.057768
#
#
# Mechanical properties :
#
#
# Convention : Reuss Voigt Hill
#
# Bulk Modulus (GPa) = 45.09998 64.85598 54.97798
# Shear Modulus (GPa) = 16.59535 29.02621 22.81078
#
# Velocity S-wave (km/s) = 2.90683 3.84434 3.40798
# Velocity P-wave (km/s) = 5.85058 7.26136 6.59381
#
# Compressibility (1/GPa) = 0.02217296
#
# Stress axis : x y z
#
# Youngs Moduli (GPa) = 64.79875 66.95505 84.05794
#
# Poissons Ratio (x) = 0.18153 0.55829
# Poissons Ratio (y) = 0.17569 0.05823
# Poissons Ratio (z) = 0.43038 0.04638
#
# Static dielectric constant tensor:
#      x y z
#    x 1.732810 0.000000 0.018490 
#    y 0.000000 1.720730 0.000000 
#    z 0.018490 0.000000 1.636620 
# 
# From -- ./inp_files/144352.got.cif
#   From: 2010.05.17/outbox.cif.g08.bks.cpg/sg15_73_cif.got.tgz:144352.got - 2010.06.03 18:47:42.
