data_PCOD9284902
_publ_section_title
;
Structure prediction by ZEFSAII (Michael W. Deem and Ramdas Pophale) SiO2 
 PCOD9284902
Probable space group: C 2/C
;
_chemical_formula_sum "Si O2"
_cell_formula_units_Z 40
_cell_length_a 7.789996
_cell_length_b 28.408329
_cell_length_c 11.007692
_cell_angle_alpha 90.000000
_cell_angle_beta 52.112593
_cell_angle_gamma 90.000000
_cell_volume 1922.546127
_symmetry_space_group_name_H-M "C 2/C"
_symmetry_group_IT_number 15
_symmetry_cell_setting 'monoclinic'
loop_
_space_group_symop_operation_xyz
x,y,z
-x,y,1/2-z
-x,-y,-z
x,-y,1/2+z
1/2+x,1/2+y,z
1/2-x,1/2+y,1/2-z
1/2-x,1/2-y,-z
1/2+x,1/2-y,1/2+z
loop_
_atom_site_type_symbol
_atom_site_label
_atom_site_fract_x
_atom_site_fract_y
_atom_site_fract_z
Si Si1 0.790278 0.699501 0.926382
Si Si2 0.556749 0.106222 0.541381
Si Si3 0.571529 0.964823 0.857560
Si Si4 0.017348 0.051134 0.052077
Si Si5 0.410106 0.370397 0.156044
O O1 0.607903 0.675984 0.919357
O O2 0.000000 0.703883 0.750000
O O3 0.750000 0.750000 0.000000
O O4 0.841772 0.658312 0.001412
O O5 0.487489 0.085287 0.442470
O O6 0.337119 0.109873 0.715996
O O7 0.747160 0.071128 0.507864
O O8 0.500000 0.977734 0.750000
O O9 0.828790 0.954819 0.733032
O O10 0.500000 0.000000 0.000000
O O11 0.963126 0.089519 0.972299
O O12 0.000000 0.000000 0.000000
O O13 0.500000 0.360905 0.250000
#
# Coordination Sequence:
#
# PCOD9284902 Si02
#       5
#     8   8   8   8   8
#     4   9  20  39  64  90 124 166 214 270 335 401
#     4  10  22  41  61  90 129 170 217 271 329 395
#     4  12  25  40  60  91 130 173 219 270 323 389
#     4  11  22  37  61  90 124 173 219 266 326 390
#     4  10  21  41  65  93 130 174 222 281 336 393
#
# _framework density 20.805743
#
# number of rings (size 3 to 8) (size 9 to 14) (size 15 to 20)
#    0.000    1.600    0.000    6.000    0.000    7.200 
#    0.000    5.000    0.000    0.000    0.000    0.000 
#    0.000    0.000    0.000    0.000    0.000    0.000 
#
# Total GULP energy -111375.175769 kJ/mol
# GULP energy per Si atom -5568.758788 kJ/mol
# Density = 2.075839 g / cm^3
# Si number density = 20.805743 Si / 1000 Ang^3
#
#
#
# Elastic Constant Matrix: (Units=GPa)
#
#
# Indices 1 2 3 4 5 6 
#
# 1 139.5020 62.1369 47.7985 0.0000 6.6441 0.0000
# 2 62.1369 198.9077 73.9986 0.0000 21.0426 0.0000
# 3 47.7985 73.9986 116.2656 0.0000 12.2404 0.0000
# 4 0.0000 0.0000 0.0000 46.7726 0.0000 9.6958
# 5 6.6441 21.0426 12.2404 0.0000 43.1130 0.0000
# 6 0.0000 0.0000 0.0000 9.6958 0.0000 23.6765
#
#
#
# Elastic Compliance Matrix: (Units=1/GPa)
#
#
# Indices 1 2 3 4 5 6 
#
# 1 0.008834 -0.001868 -0.002470 0.000000 0.000251 0.000000
# 2 -0.001868 0.007169 -0.003564 0.000000 -0.002200 0.000000
# 3 -0.002470 -0.003564 0.012021 0.000000 -0.001293 0.000000
# 4 0.000000 0.000000 0.000000 0.023363 0.000000 -0.009568
# 5 0.000251 -0.002200 -0.001293 0.000000 0.024597 0.000000
# 6 0.000000 0.000000 0.000000 -0.009568 0.000000 0.046154
#
#
# Mechanical properties :
#
#
# Convention : Reuss Voigt Hill
#
# Bulk Modulus (GPa) = 81.81705 91.39371 86.60538
# Shear Modulus (GPa) = 35.20759 40.76182 37.98471
#
# Velocity S-wave (km/s) = 4.11811 4.43104 4.27744
# Velocity P-wave (km/s) = 7.87536 8.37863 8.13089
#
# Compressibility (1/GPa) = 0.01222239
#
# Stress axis : x y z
#
# Youngs Moduli (GPa) = 113.19276 139.48303 83.19048
#
# Poissons Ratio (x) = 0.26049 0.20546
# Poissons Ratio (y) = 0.21139 0.29646
# Poissons Ratio (z) = 0.27956 0.49707
#
# Static dielectric constant tensor:
#      x y z
#    x 1.944960 0.000000 -0.086220 
#    y 0.000000 1.747370 0.000000 
#    z -0.086220 0.000000 2.111920 
# 
# From -- ./inp_files/80468.got.cif
#   From: 2010.05.17/outbox.cif.g08.bks.cpg/sg15_41_cif.got.tgz:80468.got - 2010.06.03 18:47:42.
