data_PCOD9284713
_publ_section_title
;
Structure prediction by ZEFSAII (Michael W. Deem and Ramdas Pophale) SiO2 
 PCOD9284713
Probable space group: C 2/C
;
_chemical_formula_sum "Si O2"
_cell_formula_units_Z 52
_cell_length_a 13.117426
_cell_length_b 9.072173
_cell_length_c 20.967792
_cell_angle_alpha 90.000000
_cell_angle_beta 122.574324
_cell_angle_gamma 90.000000
_cell_volume 2102.724718
_symmetry_space_group_name_H-M "C 2/C"
_symmetry_group_IT_number 15
_symmetry_cell_setting 'monoclinic'
loop_
_space_group_symop_operation_xyz
x,y,z
-x,y,1/2-z
-x,-y,-z
x,-y,1/2+z
1/2+x,1/2+y,z
1/2-x,1/2+y,1/2-z
1/2-x,1/2-y,-z
1/2+x,1/2-y,1/2+z
loop_
_atom_site_type_symbol
_atom_site_label
_atom_site_fract_x
_atom_site_fract_y
_atom_site_fract_z
Si Si1 0.568192 0.544965 0.670052
Si Si2 0.000000 0.197264 0.250000
Si Si3 0.497310 0.058752 0.595865
Si Si4 0.144004 0.962977 0.486620
Si Si5 0.155593 0.546423 0.776665
Si Si6 0.250000 0.250000 0.500000
Si Si7 0.660506 0.854925 0.034895
Si Si8 0.500000 0.211184 0.250000
O O1 0.530045 0.404992 0.700072
O O2 0.494603 0.537197 0.579575
O O3 0.708939 0.545004 0.701649
O O4 0.531596 0.685126 0.700881
O O5 0.115969 0.303421 0.298472
O O6 0.565567 0.048561 0.685237
O O7 0.388380 0.176000 0.553441
O O8 0.602389 0.096132 0.580786
O O9 0.434871 0.906997 0.551475
O O10 0.216942 0.940249 0.443088
O O11 0.176136 0.818881 0.536488
O O12 0.194110 0.117286 0.526028
O O13 0.114270 0.397886 0.798355
#
# Coordination Sequence:
#
# PCOD9284713 Si02
#       8
#     8   4   8   8   8   4   8   4
#     4  11  23  42  67  99 129 176 221 280 340 406
#     4  10  24  40  62 100 134 176 216 268 346 390
#     4  10  21  41  63  94 131 171 218 276 337 403
#     4  10  21  42  63  94 128 166 225 273 334 412
#     4  11  23  44  65  99 135 172 221 282 336 410
#     4  10  22  40  60  90 132 170 216 274 330 394
#     4   9  21  40  66  90 124 176 216 267 336 401
#     4  10  24  40  62  98 128 178 220 260 354 394
#
# _framework density 24.729818000000002
#
# number of rings (size 3 to 8) (size 9 to 14) (size 15 to 20)
#    0.000    1.846    0.000    2.769    4.308    0.615 
#   13.846    0.000    0.000    0.000    0.000    0.000 
#    0.000    0.000    0.000    0.000    0.000    0.000 
#
# Total GULP energy -145077.137300 kJ/mol
# GULP energy per Si atom -5579.889896 kJ/mol
# Density = 2.467353 g / cm^3
# Si number density = 24.729818 Si / 1000 Ang^3
#
#
#
# Elastic Constant Matrix: (Units=GPa)
#
#
# Indices 1 2 3 4 5 6 
#
# 1 144.3628 42.2122 40.7667 0.0000 19.4320 0.0000
# 2 42.2122 117.1762 22.4590 0.0000 4.3262 0.0000
# 3 40.7667 22.4590 74.3354 0.0000 19.4192 0.0000
# 4 0.0000 0.0000 0.0000 85.9377 0.0000 58.9795
# 5 19.4320 4.3262 19.4192 0.0000 28.7852 0.0000
# 6 0.0000 0.0000 0.0000 58.9795 0.0000 82.0726
#
#
#
# Elastic Compliance Matrix: (Units=1/GPa)
#
#
# Indices 1 2 3 4 5 6 
#
# 1 0.009063 -0.002504 -0.003295 0.000000 -0.003519 0.000000
# 2 -0.002504 0.009759 -0.001983 0.000000 0.001561 0.000000
# 3 -0.003295 -0.001983 0.018452 0.000000 -0.009926 0.000000
# 4 0.000000 0.000000 0.000000 0.022960 0.000000 -0.016500
# 5 -0.003519 0.001561 -0.009926 0.000000 0.043577 0.000000
# 6 0.000000 0.000000 0.000000 -0.016500 0.000000 0.024042
#
#
# Mechanical properties :
#
#
# Convention : Reuss Voigt Hill
#
# Bulk Modulus (GPa) = 46.06085 60.75004 53.40544
# Shear Modulus (GPa) = 33.18909 54.72153 43.95531
#
# Velocity S-wave (km/s) = 3.66740 4.70912 4.22052
# Velocity P-wave (km/s) = 6.04972 7.36115 6.73742
#
# Compressibility (1/GPa) = 0.02171041
#
# Stress axis : x y z
#
# Youngs Moduli (GPa) = 110.33731 102.47443 54.19607
#
# Poissons Ratio (x) = 0.25655 0.17855
# Poissons Ratio (y) = 0.27623 0.10748
# Poissons Ratio (z) = 0.36351 0.20323
#
# Static dielectric constant tensor:
#      x y z
#    x 1.935200 0.000000 -0.024370 
#    y 0.000000 2.048100 0.000000 
#    z -0.024370 0.000000 1.985360 
# 
# From -- ./inp_files/291713.got.cif
#   From: 2010.05.17/outbox.cif.g08.bks.cpg/sg15_146_cif.got.tgz:291713.got - 2010.06.03 18:47:42.
