data_PCOD9284802
_publ_section_title
;
Structure prediction by ZEFSAII (Michael W. Deem and Ramdas Pophale) SiO2 
 PCOD9284802
Probable space group: C 2/C
;
_chemical_formula_sum "Si O2"
_cell_formula_units_Z 52
_cell_length_a 26.491004
_cell_length_b 13.427265
_cell_length_c 8.300723
_cell_angle_alpha 90.000000
_cell_angle_beta 48.021719
_cell_angle_gamma 90.000000
_cell_volume 2194.944445
_symmetry_space_group_name_H-M "C 2/C"
_symmetry_group_IT_number 15
_symmetry_cell_setting 'monoclinic'
loop_
_space_group_symop_operation_xyz
x,y,z
-x,y,1/2-z
-x,-y,-z
x,-y,1/2+z
1/2+x,1/2+y,z
1/2-x,1/2+y,1/2-z
1/2-x,1/2-y,-z
1/2+x,1/2-y,1/2+z
loop_
_atom_site_type_symbol
_atom_site_label
_atom_site_fract_x
_atom_site_fract_y
_atom_site_fract_z
Si Si1 0.278777 0.828410 0.701283
Si Si2 0.074141 0.115588 0.600573
Si Si3 0.875053 0.799601 0.830827
Si Si4 0.500000 0.770517 0.250000
Si Si5 0.298217 0.527069 0.643806
Si Si6 0.807151 0.666570 0.493969
Si Si7 0.952426 0.681611 0.196314
O O1 0.329563 0.798933 0.451351
O O2 0.313039 0.798558 0.797318
O O3 0.256683 0.941025 0.763967
O O4 0.212681 0.757196 0.844564
O O5 0.086659 0.181412 0.415098
O O6 0.068749 0.199987 0.749777
O O7 0.000000 0.066504 0.750000
O O8 0.132454 0.033696 0.479361
O O9 0.933779 0.793540 0.840865
O O10 0.821591 0.890356 0.965091
O O11 0.483409 0.831766 0.450846
O O12 0.258059 0.594197 0.858486
O O13 0.881077 0.624511 0.374576
O O14 0.000000 0.661735 0.250000
#
# Coordination Sequence:
#
# PCOD9284802 Si02
#       7
#     8   8   8   4   8   8   8
#     4  10  21  41  64  93 139 181 232 279 339 413
#     4  11  23  41  63 102 142 176 225 288 342 413
#     4  11  24  40  67  99 132 190 225 279 351 406
#     4  12  22  42  70 100 138 180 228 276 356 414
#     4  11  24  40  66 104 140 179 235 281 344 416
#     4  10  21  41  67  95 136 185 226 284 343 405
#     4  11  22  43  73 101 133 181 231 286 343 414
#
# _framework density 23.690802000000001
#
# number of rings (size 3 to 8) (size 9 to 14) (size 15 to 20)
#    0.000    1.231    6.154    0.923    1.077    2.462 
#    2.769    0.000    1.692    1.846    2.000    0.000 
#    0.000    0.000    0.000    0.000    0.000    0.000 
#
# Total GULP energy -144987.502336 kJ/mol
# GULP energy per Si atom -5576.442398 kJ/mol
# Density = 2.363688 g / cm^3
# Si number density = 23.690802 Si / 1000 Ang^3
#
#
#
# Elastic Constant Matrix: (Units=GPa)
#
#
# Indices 1 2 3 4 5 6 
#
# 1 84.2152 5.6925 37.1059 0.0000 -11.3022 0.0000
# 2 5.6925 38.8734 21.2754 0.0000 -8.7235 0.0000
# 3 37.1059 21.2754 148.5116 0.0000 -1.8180 0.0000
# 4 0.0000 0.0000 0.0000 24.3173 0.0000 -17.6067
# 5 -11.3022 -8.7235 -1.8180 0.0000 44.7940 0.0000
# 6 0.0000 0.0000 0.0000 -17.6067 0.0000 20.3478
#
#
#
# Elastic Compliance Matrix: (Units=1/GPa)
#
#
# Indices 1 2 3 4 5 6 
#
# 1 0.013844 0.000677 -0.003513 0.000000 0.003482 0.000000
# 2 0.000677 0.029251 -0.004290 0.000000 0.005693 0.000000
# 3 -0.003513 -0.004290 0.008209 0.000000 -0.001389 0.000000
# 4 0.000000 0.000000 0.000000 0.110102 0.000000 0.095270
# 5 0.003482 0.005693 -0.001389 0.000000 0.024255 0.000000
# 6 0.000000 0.000000 0.000000 0.095270 0.000000 0.131581
#
#
# Mechanical properties :
#
#
# Convention : Reuss Voigt Hill
#
# Bulk Modulus (GPa) = 26.98960 44.41643 35.70302
# Shear Modulus (GPa) = 14.54146 31.72692 23.13419
#
# Velocity S-wave (km/s) = 2.48019 3.66349 3.12830
# Velocity P-wave (km/s) = 4.42933 6.05673 5.30580
#
# Compressibility (1/GPa) = 0.03705130
#
# Stress axis : x y z
#
# Youngs Moduli (GPa) = 72.23393 34.18708 121.82000
#
# Poissons Ratio (x) = -0.02315 0.42799
# Poissons Ratio (y) = -0.04890 0.52259
# Poissons Ratio (z) = 0.25378 0.14666
#
# Static dielectric constant tensor:
#      x y z
#    x 1.999150 0.000000 -0.016630 
#    y 0.000000 1.911270 0.000000 
#    z -0.016630 0.000000 1.940210 
# 
# From -- ./inp_files/70090.got.cif
#   From: 2010.05.17/outbox.cif.g08.bks.cpg/sg15_36_cif.got.tgz:70090.got - 2010.06.03 18:47:42.
