data_PCOD9284187
_publ_section_title
;
Structure prediction by ZEFSAII (Michael W. Deem and Ramdas Pophale) SiO2 
 PCOD9284187
Probable space group: C 2/C
;
_chemical_formula_sum "Si O2"
_cell_formula_units_Z 48
_cell_length_a 7.525299
_cell_length_b 19.104434
_cell_length_c 21.066071
_cell_angle_alpha 90.000000
_cell_angle_beta 141.497708
_cell_angle_gamma 90.000000
_cell_volume 1885.440738
_symmetry_space_group_name_H-M "C 2/C"
_symmetry_group_IT_number 15
_symmetry_cell_setting 'monoclinic'
loop_
_space_group_symop_operation_xyz
x,y,z
-x,y,1/2-z
-x,-y,-z
x,-y,1/2+z
1/2+x,1/2+y,z
1/2-x,1/2+y,1/2-z
1/2-x,1/2-y,-z
1/2+x,1/2-y,1/2+z
loop_
_atom_site_type_symbol
_atom_site_label
_atom_site_fract_x
_atom_site_fract_y
_atom_site_fract_z
Si Si1 0.393531 0.611656 0.515303
Si Si2 0.698323 0.966101 0.130665
Si Si3 0.184456 0.235995 0.567570
Si Si4 0.211765 0.486392 0.866140
Si Si5 0.193691 0.310867 0.132412
Si Si6 0.254620 0.386531 0.628708
O O1 0.545126 0.683664 0.578817
O O2 0.575648 0.548302 0.596250
O O3 0.386759 0.581041 0.440455
O O4 0.060381 0.624515 0.431597
O O5 0.664478 0.888255 0.093383
O O6 0.000000 0.958702 0.250000
O O7 0.471054 0.985642 0.123304
O O8 0.732890 0.034475 0.095496
O O9 0.444040 0.189856 0.614668
O O10 0.314051 0.312737 0.612629
O O11 0.919382 0.251013 0.446236
O O12 0.000000 0.468605 0.750000
O O13 0.500000 0.299718 0.250000
O O14 0.500000 0.392562 0.750000
#
# Coordination Sequence:
#
# PCOD9284187 Si02
#       6
#     8   8   8   8   8   8
#     4  10  22  41  61  94 133 155 222 268 312 396
#     4   9  19  42  62  92 127 162 218 263 308 388
#     4  11  23  41  62  97 126 171 214 261 330 387
#     4  10  21  40  67  95 124 176 211 265 329 380
#     4  10  23  41  64  88 132 172 212 266 321 387
#     4  10  23  41  65  93 128 166 210 270 324 379
#
# _framework density 25.458238000000001
#
# number of rings (size 3 to 8) (size 9 to 14) (size 15 to 20)
#    0.000    2.000    1.667    0.500    2.333    4.667 
#   15.000    0.000    0.000    0.000    0.000    0.000 
#    0.000    0.000    0.000    0.000    0.000    0.000 
#
# Total GULP energy -133829.551112 kJ/mol
# GULP energy per Si atom -5576.231296 kJ/mol
# Density = 2.540029 g / cm^3
# Si number density = 25.458238 Si / 1000 Ang^3
#
#
#
# Elastic Constant Matrix: (Units=GPa)
#
#
# Indices 1 2 3 4 5 6 
#
# 1 51.5584 13.4326 12.5050 0.0019 19.7232 0.0001
# 2 13.4326 135.8672 43.7723 0.0017 10.1879 -0.0002
# 3 12.5050 43.7723 134.5529 0.0070 5.2343 -0.0021
# 4 0.0019 0.0017 0.0070 7.3621 0.0020 11.6645
# 5 19.7232 10.1879 5.2343 0.0020 32.8747 -0.0005
# 6 0.0001 -0.0002 -0.0021 11.6645 -0.0005 24.5238
#
#
#
# Elastic Compliance Matrix: (Units=1/GPa)
#
#
# Indices 1 2 3 4 5 6 
#
# 1 0.025700 -0.000940 -0.001504 0.000000 -0.014888 0.000000
# 2 -0.000940 0.008408 -0.002584 0.000006 -0.001630 -0.000003
# 3 -0.001504 -0.002584 0.008398 -0.000033 0.000366 0.000017
# 4 0.000000 0.000006 -0.000033 0.551257 -0.000033 -0.262199
# 5 -0.014888 -0.001630 0.000366 -0.000033 0.039798 0.000017
# 6 0.000000 -0.000003 0.000017 -0.262199 0.000017 0.165489
#
#
# Mechanical properties :
#
#
# Convention : Reuss Voigt Hill
#
# Bulk Modulus (GPa) = 30.81617 51.26649 41.04133
# Shear Modulus (GPa) = 6.09813 29.77004 17.93408
#
# Velocity S-wave (km/s) = 1.54937 3.42331 2.65703
# Velocity P-wave (km/s) = 3.91556 5.98386 5.05659
#
# Compressibility (1/GPa) = 0.03245050
#
# Stress axis : x y z
#
# Youngs Moduli (GPa) = 38.90981 118.93520 119.07180
#
# Poissons Ratio (x) = 0.11181 0.17903
# Poissons Ratio (y) = 0.03658 0.30774
# Poissons Ratio (z) = 0.05850 0.30738
#
# Static dielectric constant tensor:
#      x y z
#    x 2.095950 0.000000 -0.034530 
#    y 0.000000 2.069070 0.000000 
#    z -0.034530 0.000000 1.978810 
# 
# From -- ./inp_files/290148.got.cif
#   From: 2010.05.17/outbox.cif.g08.bks.cpg/sg15_146_cif.got.tgz:290148.got - 2010.06.03 18:47:42.
