data_PCOD9284843
_publ_section_title
;
Structure prediction by ZEFSAII (Michael W. Deem and Ramdas Pophale) SiO2 
 PCOD9284843
Probable space group: C 2/C
;
_chemical_formula_sum "Si O2"
_cell_formula_units_Z 56
_cell_length_a 20.696809
_cell_length_b 12.290929
_cell_length_c 11.879048
_cell_angle_alpha 90.000000
_cell_angle_beta 59.873445
_cell_angle_gamma 90.000000
_cell_volume 2613.636111
_symmetry_space_group_name_H-M "C 2/C"
_symmetry_group_IT_number 15
_symmetry_cell_setting 'monoclinic'
loop_
_space_group_symop_operation_xyz
x,y,z
-x,y,1/2-z
-x,-y,-z
x,-y,1/2+z
1/2+x,1/2+y,z
1/2-x,1/2+y,1/2-z
1/2-x,1/2-y,-z
1/2+x,1/2-y,1/2+z
loop_
_atom_site_type_symbol
_atom_site_label
_atom_site_fract_x
_atom_site_fract_y
_atom_site_fract_z
Si Si1 0.500000 0.860092 0.750000
Si Si2 0.292485 0.832258 0.380781
Si Si3 0.141728 0.534189 0.062496
Si Si4 0.466000 0.328957 0.421391
Si Si5 0.277005 0.562556 0.767010
Si Si6 0.384583 0.358559 0.714336
Si Si7 0.331763 0.744880 0.876018
Si Si8 0.000000 0.967354 0.750000
O O1 0.445649 0.937640 0.870662
O O2 0.480049 0.767811 0.670304
O O3 0.250000 0.750000 0.500000
O O4 0.240895 0.904694 0.344782
O O5 0.341583 0.753913 0.261342
O O6 0.342154 0.915011 0.408215
O O7 0.155117 0.625785 0.148946
O O8 0.199696 0.553260 0.908486
O O9 0.448086 0.338232 0.566530
O O10 0.388754 0.299352 0.422195
O O11 0.492266 0.446891 0.358288
O O12 0.325513 0.452828 0.734024
O O13 0.324896 0.660249 0.780980
O O14 0.426916 0.396302 0.790400
O O15 0.250000 0.750000 0.000000
#
# Coordination Sequence:
#
# PCOD9284843 Si02
#       8
#     4   8   8   8   8   8   8   4
#     4   9  20  43  72  92 138 179 239 280 338 446
#     4  12  27  43  65 106 140 174 234 296 353 416
#     4  10  22  43  68  97 130 182 228 282 346 414
#     4  10  21  41  65 102 132 176 239 281 345 422
#     4  11  24  41  70  98 134 184 228 299 347 412
#     4  12  25  43  68 102 148 183 231 296 363 416
#     4   9  18  36  67  95 122 170 232 276 337 405
#     4  11  24  43  66 100 136 189 225 290 352 426
#
# _framework density 21.426089000000001
#
# number of rings (size 3 to 8) (size 9 to 14) (size 15 to 20)
#    0.000    1.429    2.857    3.000    8.000    0.571 
#    0.000    4.286    0.000    0.000    0.000    0.000 
#    0.000    0.000    0.000    0.000    0.000    0.000 
#
# Total GULP energy -155984.423309 kJ/mol
# GULP energy per Si atom -5570.872261 kJ/mol
# Density = 2.137732 g / cm^3
# Si number density = 21.426089 Si / 1000 Ang^3
#
#
#
# Elastic Constant Matrix: (Units=GPa)
#
#
# Indices 1 2 3 4 5 6 
#
# 1 50.3304 9.5879 -10.8348 0.0000 -1.5069 0.0000
# 2 9.5879 97.4154 11.3033 0.0000 0.5938 0.0000
# 3 -10.8348 11.3033 75.2265 0.0000 -6.0413 0.0000
# 4 0.0000 0.0000 0.0000 10.9307 0.0000 -2.6744
# 5 -1.5069 0.5938 -6.0413 0.0000 20.6315 0.0000
# 6 0.0000 0.0000 0.0000 -2.6744 0.0000 14.9920
#
#
#
# Elastic Compliance Matrix: (Units=1/GPa)
#
#
# Indices 1 2 3 4 5 6 
#
# 1 0.021217 -0.002528 0.003652 0.000000 0.002692 0.000000
# 2 -0.002528 0.010761 -0.002069 0.000000 -0.001100 0.000000
# 3 0.003652 -0.002069 0.014497 0.000000 0.004571 0.000000
# 4 0.000000 0.000000 0.000000 0.095661 0.000000 0.017065
# 5 0.002692 -0.001100 0.004571 0.000000 0.050036 0.000000
# 6 0.000000 0.000000 0.000000 0.017065 0.000000 0.069746
#
#
# Mechanical properties :
#
#
# Convention : Reuss Voigt Hill
#
# Bulk Modulus (GPa) = 22.42977 27.00946 24.71961
# Shear Modulus (GPa) = 17.94222 23.50523 20.72373
#
# Velocity S-wave (km/s) = 2.89693 3.31575 3.11339
# Velocity P-wave (km/s) = 4.65626 5.22419 4.94838
#
# Compressibility (1/GPa) = 0.04458361
#
# Stress axis : x y z
#
# Youngs Moduli (GPa) = 47.13175 92.92817 68.97859
#
# Poissons Ratio (x) = 0.23496 -0.25191
# Poissons Ratio (y) = 0.11917 0.14275
# Poissons Ratio (z) = -0.17212 0.19231
#
# Static dielectric constant tensor:
#      x y z
#    x 2.024570 0.000000 -0.092190 
#    y 0.000000 1.773660 0.000000 
#    z -0.092190 0.000000 1.811110 
# 
# From -- ./inp_files/111620.got.cif
#   From: 2010.05.17/outbox.cif.g08.bks.cpg/sg15_56_cif.got.tgz:111620.got - 2010.06.03 18:47:42.
