data_PCOD9284281
_publ_section_title
;
Structure prediction by ZEFSAII (Michael W. Deem and Ramdas Pophale) SiO2 
 PCOD9284281
Probable space group: C 2/C
;
_chemical_formula_sum "Si O2"
_cell_formula_units_Z 48
_cell_length_a 21.294984
_cell_length_b 11.009587
_cell_length_c 12.829750
_cell_angle_alpha 90.000000
_cell_angle_beta 128.684053
_cell_angle_gamma 90.000000
_cell_volume 2347.996981
_symmetry_space_group_name_H-M "C 2/C"
_symmetry_group_IT_number 15
_symmetry_cell_setting 'monoclinic'
loop_
_space_group_symop_operation_xyz
x,y,z
-x,y,1/2-z
-x,-y,-z
x,-y,1/2+z
1/2+x,1/2+y,z
1/2-x,1/2+y,1/2-z
1/2-x,1/2-y,-z
1/2+x,1/2-y,1/2+z
loop_
_atom_site_type_symbol
_atom_site_label
_atom_site_fract_x
_atom_site_fract_y
_atom_site_fract_z
Si Si1 0.904800 0.509495 0.667586
Si Si2 0.343882 0.737041 0.614904
Si Si3 0.663972 0.791158 0.275721
Si Si4 0.089790 0.130686 0.610021
Si Si5 0.095607 0.875062 0.528267
Si Si6 0.151504 0.735351 0.990242
O O1 0.885348 0.368374 0.645229
O O2 0.871204 0.574420 0.738127
O O3 0.857171 0.589800 0.531603
O O4 0.000000 0.529449 0.750000
O O5 0.250000 0.750000 0.500000
O O6 0.358169 0.688199 0.745069
O O7 0.378457 0.647553 0.562755
O O8 0.630097 0.731204 0.137348
O O9 0.760625 0.779821 0.382234
O O10 0.636988 0.722486 0.355507
O O11 0.088491 0.215125 0.506874
O O12 0.000472 0.120197 0.562687
O O13 0.123667 0.002232 0.606145
#
# Coordination Sequence:
#
# PCOD9284281 Si02
#       6
#     8   8   8   8   8   8
#     4  10  21  40  68  95 129 167 220 279 330 401
#     4  12  28  44  66  98 134 173 226 284 347 396
#     4   9  21  40  66  97 132 174 219 267 329 400
#     4  11  25  42  67  95 135 178 222 276 329 406
#     4  11  25  42  67  95 135 178 222 276 329 406
#     4   9  21  40  66  97 132 174 219 267 329 400
#
# _framework density 20.442957
#
# number of rings (size 3 to 8) (size 9 to 14) (size 15 to 20)
#    1.000    0.667    0.000    3.500    7.000    1.333 
#    0.000    3.333    0.000    0.000    0.000    0.000 
#    0.000    0.000    0.000    0.000    0.000    0.000 
#
# Total GULP energy -133891.537833 kJ/mol
# GULP energy per Si atom -5578.814076 kJ/mol
# Density = 2.039643 g / cm^3
# Si number density = 20.442957 Si / 1000 Ang^3
#
#
#
# Elastic Constant Matrix: (Units=GPa)
#
#
# Indices 1 2 3 4 5 6 
#
# 1 74.2355 20.9108 -8.5653 0.0000 -7.1523 0.0000
# 2 20.9108 74.1482 -0.1443 0.0000 12.6545 0.0000
# 3 -8.5653 -0.1443 39.0461 0.0000 7.5656 0.0000
# 4 0.0000 0.0000 0.0000 21.6143 0.0000 -8.6220
# 5 -7.1523 12.6545 7.5656 0.0000 24.9857 0.0000
# 6 0.0000 0.0000 0.0000 -8.6220 0.0000 29.7791
#
#
#
# Elastic Compliance Matrix: (Units=1/GPa)
#
#
# Indices 1 2 3 4 5 6 
#
# 1 0.015967 -0.005656 0.002168 0.000000 0.006778 0.000000
# 2 -0.005656 0.016860 0.000839 0.000000 -0.010412 0.000000
# 3 0.002168 0.000839 0.027675 0.000000 -0.008184 0.000000
# 4 0.000000 0.000000 0.000000 0.052307 0.000000 0.015144
# 5 0.006778 -0.010412 -0.008184 0.000000 0.049715 0.000000
# 6 0.000000 0.000000 0.000000 0.015144 0.000000 0.037965
#
#
# Mechanical properties :
#
#
# Convention : Reuss Voigt Hill
#
# Bulk Modulus (GPa) = 18.11390 23.53689 20.82540
# Shear Modulus (GPa) = 22.30274 26.95772 24.63023
#
# Velocity S-wave (km/s) = 3.30657 3.63530 3.47483
# Velocity P-wave (km/s) = 4.84333 5.39991 5.12917
#
# Compressibility (1/GPa) = 0.05520622
#
# Stress axis : x y z
#
# Youngs Moduli (GPa) = 62.62937 59.31182 36.13325
#
# Poissons Ratio (x) = 0.33544 -0.07835
# Poissons Ratio (y) = 0.35420 -0.03032
# Poissons Ratio (z) = -0.13580 -0.04977
#
# Static dielectric constant tensor:
#      x y z
#    x 1.719090 0.000000 0.010010 
#    y 0.000000 1.588950 0.000000 
#    z 0.010010 0.000000 1.691440 
# 
# From -- ./inp_files/167935.got.cif
#   From: 2010.05.17/outbox.cif.g08.bks.cpg/sg15_84_cif.got.tgz:167935.got - 2010.06.03 18:47:42.
