data_PCOD9284585
_publ_section_title
;
Structure prediction by ZEFSAII (Michael W. Deem and Ramdas Pophale) SiO2 
 PCOD9284585
Probable space group: C 2/C
;
_chemical_formula_sum "Si O2"
_cell_formula_units_Z 64
_cell_length_a 18.246018
_cell_length_b 21.603257
_cell_length_c 7.404921
_cell_angle_alpha 90.000000
_cell_angle_beta 61.569956
_cell_angle_gamma 90.000000
_cell_volume 2566.810180
_symmetry_space_group_name_H-M "C 2/C"
_symmetry_group_IT_number 15
_symmetry_cell_setting 'monoclinic'
loop_
_space_group_symop_operation_xyz
x,y,z
-x,y,1/2-z
-x,-y,-z
x,-y,1/2+z
1/2+x,1/2+y,z
1/2-x,1/2+y,1/2-z
1/2-x,1/2-y,-z
1/2+x,1/2-y,1/2+z
loop_
_atom_site_type_symbol
_atom_site_label
_atom_site_fract_x
_atom_site_fract_y
_atom_site_fract_z
Si Si1 0.345112 0.444465 0.297255
Si Si2 0.060870 0.302264 0.046181
Si Si3 0.422168 0.351990 0.474684
Si Si4 0.314432 0.903638 0.533070
Si Si5 0.123957 0.918288 0.643875
Si Si6 0.341224 0.030071 0.387645
Si Si7 0.654771 0.232568 0.072834
Si Si8 0.564442 0.126038 0.027246
O O1 0.358747 0.398341 0.446384
O O2 0.389623 0.509647 0.287198
O O3 0.247510 0.461635 0.407471
O O4 0.374691 0.416368 0.073636
O O5 0.000000 0.263389 0.250000
O O6 0.140232 0.338282 0.034491
O O7 0.102284 0.268635 0.823604
O O8 0.993119 0.356130 0.071802
O O9 0.500000 0.354518 0.250000
O O10 0.434454 0.377331 0.660923
O O11 0.385329 0.283793 0.509248
O O12 0.217573 0.899663 0.598188
O O13 0.351586 0.956411 0.357954
O O14 0.333162 0.931590 0.711178
O O15 0.412667 0.058738 0.427834
O O16 0.645510 0.167784 0.976049
O O17 0.750000 0.250000 0.000000
O O18 0.500000 0.152103 0.250000
#
# Coordination Sequence:
#
# PCOD9284585 Si02
#       8
#     8   8   8   8   8   8   8   8
#     4  11  22  42  66  96 138 178 221 277 330 402
#     4  11  25  42  63  96 137 168 215 284 346 390
#     4  12  25  43  71  98 129 174 220 281 347 405
#     4  11  21  37  63  95 134 183 225 270 320 401
#     4  11  22  43  66  97 137 178 225 270 332 402
#     4  11  20  36  63  94 132 180 231 266 323 392
#     4  11  23  49  74  89 123 178 231 271 337 411
#     4  10  21  41  62  87 130 176 206 271 341 389
#
# _framework density 24.933671
#
# number of rings (size 3 to 8) (size 9 to 14) (size 15 to 20)
#    0.000    1.000    5.000    4.875    3.500    2.000 
#    4.500    0.625    0.000    0.000    0.000    0.000 
#    0.000    0.000    0.000    0.000    0.000    0.000 
#
# Total GULP energy -178813.542812 kJ/mol
# GULP energy per Si atom -5587.923213 kJ/mol
# Density = 2.487692 g / cm^3
# Si number density = 24.933671 Si / 1000 Ang^3
#
#
#
# Elastic Constant Matrix: (Units=GPa)
#
#
# Indices 1 2 3 4 5 6 
#
# 1 66.9586 -12.2128 13.4924 0.0000 2.9265 0.0000
# 2 -12.2128 51.6370 -5.4040 0.0000 0.0611 0.0000
# 3 13.4924 -5.4040 139.2712 0.0000 19.5667 0.0000
# 4 0.0000 0.0000 0.0000 20.5274 0.0000 -9.7643
# 5 2.9265 0.0611 19.5667 0.0000 38.1006 0.0000
# 6 0.0000 0.0000 0.0000 -9.7643 0.0000 7.7159
#
#
#
# Elastic Compliance Matrix: (Units=1/GPa)
#
#
# Indices 1 2 3 4 5 6 
#
# 1 0.015885 0.003619 -0.001322 0.000000 -0.000547 0.000000
# 2 0.003619 0.020277 0.000517 0.000000 -0.000576 0.000000
# 3 -0.001322 0.000517 0.007883 0.000000 -0.003948 0.000000
# 4 0.000000 0.000000 0.000000 0.122385 0.000000 0.154875
# 5 -0.000547 -0.000576 -0.003948 0.000000 0.028317 0.000000
# 6 0.000000 0.000000 0.000000 0.154875 0.000000 0.325593
#
#
# Mechanical properties :
#
#
# Convention : Reuss Voigt Hill
#
# Bulk Modulus (GPa) = 20.13112 27.73532 23.93322
# Shear Modulus (GPa) = 9.41145 30.73487 20.07316
#
# Velocity S-wave (km/s) = 1.94494 3.51474 2.84044
# Velocity P-wave (km/s) = 3.62424 5.25538 4.51410
#
# Compressibility (1/GPa) = 0.04967435
#
# Stress axis : x y z
#
# Youngs Moduli (GPa) = 62.95263 49.31747 126.85607
#
# Poissons Ratio (x) = -0.17850 0.16765
# Poissons Ratio (y) = -0.22785 -0.06559
# Poissons Ratio (z) = 0.08320 -0.02550
#
# Static dielectric constant tensor:
#      x y z
#    x 1.999370 0.000000 0.043590 
#    y 0.000000 1.969600 0.000000 
#    z 0.043590 0.000000 2.142890 
# 
# From -- ./inp_files/57862.got.cif
#   From: 2010.05.17/outbox.cif.g08.bks.cpg/sg15_29_cif.got.tgz:57862.got - 2010.06.03 18:47:42.
