data_PCOD9284358
_publ_section_title
;
Structure prediction by ZEFSAII (Michael W. Deem and Ramdas Pophale) SiO2 
 PCOD9284358
Probable space group: C 2/C
;
_chemical_formula_sum "Si O2"
_cell_formula_units_Z 52
_cell_length_a 5.575773
_cell_length_b 26.623250
_cell_length_c 16.884585
_cell_angle_alpha 90.000000
_cell_angle_beta 66.827610
_cell_angle_gamma 90.000000
_cell_volume 2304.229051
_symmetry_space_group_name_H-M "C 2/C"
_symmetry_group_IT_number 15
_symmetry_cell_setting 'monoclinic'
loop_
_space_group_symop_operation_xyz
x,y,z
-x,y,1/2-z
-x,-y,-z
x,-y,1/2+z
1/2+x,1/2+y,z
1/2-x,1/2+y,1/2-z
1/2-x,1/2-y,-z
1/2+x,1/2-y,1/2+z
loop_
_atom_site_type_symbol
_atom_site_label
_atom_site_fract_x
_atom_site_fract_y
_atom_site_fract_z
Si Si1 0.221052 0.480940 0.566761
Si Si2 0.309712 0.851604 0.202202
Si Si3 0.456531 0.080335 0.958754
Si Si4 0.867997 0.741820 0.862643
Si Si5 0.000000 0.173355 0.250000
Si Si6 0.576630 0.295135 0.991591
Si Si7 0.901042 0.113801 0.105021
O O1 0.500000 0.500000 0.500000
O O2 0.077774 0.533458 0.598180
O O3 0.258115 0.439583 0.629237
O O4 0.098453 0.447860 0.512235
O O5 0.500000 0.869841 0.250000
O O6 0.396534 0.876911 0.108422
O O7 0.381462 0.792434 0.188335
O O8 0.000000 0.859538 0.250000
O O9 0.187638 0.101822 0.030738
O O10 0.793482 0.785790 0.810884
O O11 0.936398 0.774439 0.931024
O O12 0.643365 0.701702 0.912026
O O13 0.089816 0.139681 0.311006
O O14 0.710358 0.346236 0.945042
O O15 0.750000 0.250000 0.000000
#
# Coordination Sequence:
#
# PCOD9284358 Si02
#       7
#     8   8   8   8   4   8   8
#     4   9  21  41  73  98 127 180 232 299 361 435
#     4  12  28  44  71 106 147 189 234 300 361 426
#     4  10  22  44  70  99 136 178 241 297 367 436
#     4  10  22  40  58  93 143 179 231 286 354 414
#     4  10  22  42  60  98 144 180 234 284 354 422
#     4  10  22  36  64  96 127 183 240 289 344 432
#     4  10  21  40  69  98 140 184 239 290 364 432
#
# _framework density 22.567202999999999
#
# number of rings (size 3 to 8) (size 9 to 14) (size 15 to 20)
#    0.000    1.846    2.308    0.000    8.615    0.000 
#    0.000   12.308    0.000    0.000    0.000    0.000 
#    0.000    0.000    0.000    0.000    0.000    0.000 
#
# Total GULP energy -144924.338286 kJ/mol
# GULP energy per Si atom -5574.013011 kJ/mol
# Density = 2.251584 g / cm^3
# Si number density = 22.567203 Si / 1000 Ang^3
#
#
#
# Elastic Constant Matrix: (Units=GPa)
#
#
# Indices 1 2 3 4 5 6 
#
# 1 59.5942 19.8024 25.3269 0.0000 -6.8938 0.0000
# 2 19.8024 139.1424 43.8850 0.0000 16.1309 0.0000
# 3 25.3269 43.8850 84.5667 0.0000 13.0751 0.0000
# 4 0.0000 0.0000 0.0000 37.7699 0.0000 15.9067
# 5 -6.8938 16.1309 13.0751 0.0000 18.4365 0.0000
# 6 0.0000 0.0000 0.0000 15.9067 0.0000 41.3335
#
#
#
# Elastic Compliance Matrix: (Units=1/GPa)
#
#
# Indices 1 2 3 4 5 6 
#
# 1 0.023035 -0.002658 -0.008099 0.000000 0.016683 0.000000
# 2 -0.002658 0.009312 -0.002946 0.000000 -0.007052 0.000000
# 3 -0.008099 -0.002946 0.017801 0.000000 -0.013075 0.000000
# 4 0.000000 0.000000 0.000000 0.031597 0.000000 -0.012160
# 5 0.016683 -0.007052 -0.013075 0.000000 0.075921 0.000000
# 6 0.000000 0.000000 0.000000 -0.012160 0.000000 0.028873
#
#
# Mechanical properties :
#
#
# Convention : Reuss Voigt Hill
#
# Bulk Modulus (GPa) = 43.97080 51.25912 47.61496
# Shear Modulus (GPa) = 22.57079 32.46058 27.51569
#
# Velocity S-wave (km/s) = 3.16596 3.79673 3.49560
# Velocity P-wave (km/s) = 5.73508 6.47947 6.11860
#
# Compressibility (1/GPa) = 0.02274236
#
# Stress axis : x y z
#
# Youngs Moduli (GPa) = 43.41196 107.39015 56.17716
#
# Poissons Ratio (x) = 0.28544 0.45497
# Poissons Ratio (y) = 0.11539 0.16549
# Poissons Ratio (z) = 0.35159 0.31636
#
# Static dielectric constant tensor:
#      x y z
#    x 1.921110 0.000000 0.003480 
#    y 0.000000 1.857220 0.000000 
#    z 0.003480 0.000000 1.923040 
# 
# From -- ./inp_files/185788.got.cif
#   From: 2010.05.17/outbox.cif.g08.bks.cpg/sg15_93_cif.got.tgz:185788.got - 2010.06.03 18:47:42.
