data_PCOD9284352
_publ_section_title
;
Structure prediction by ZEFSAII (Michael W. Deem and Ramdas Pophale) SiO2 
 PCOD9284352
Probable space group: C 2/C
;
_chemical_formula_sum "Si O2"
_cell_formula_units_Z 44
_cell_length_a 6.313896
_cell_length_b 29.134881
_cell_length_c 11.247522
_cell_angle_alpha 90.000000
_cell_angle_beta 95.827407
_cell_angle_gamma 90.000000
_cell_volume 2058.341271
_symmetry_space_group_name_H-M "C 2/C"
_symmetry_group_IT_number 15
_symmetry_cell_setting 'monoclinic'
loop_
_space_group_symop_operation_xyz
x,y,z
-x,y,1/2-z
-x,-y,-z
x,-y,1/2+z
1/2+x,1/2+y,z
1/2-x,1/2+y,1/2-z
1/2-x,1/2-y,-z
1/2+x,1/2-y,1/2+z
loop_
_atom_site_type_symbol
_atom_site_label
_atom_site_fract_x
_atom_site_fract_y
_atom_site_fract_z
Si Si1 0.444007 0.214592 0.991240
Si Si2 0.689985 0.365016 0.539053
Si Si3 0.133284 0.795676 0.874617
Si Si4 0.000000 0.596304 0.250000
Si Si5 0.512331 0.553696 0.884902
Si Si6 0.692620 0.030858 0.056419
O O1 0.581081 0.242729 0.905327
O O2 0.250000 0.250000 0.000000
O O3 0.335702 0.166331 0.962289
O O4 0.612226 0.203819 0.106323
O O5 0.474460 0.334822 0.547346
O O6 0.650720 0.412990 0.474645
O O7 0.819199 0.375226 0.668377
O O8 0.000000 0.803825 0.750000
O O9 0.882980 0.565093 0.343986
O O10 0.500000 0.570793 0.750000
O O11 0.621371 0.503457 0.887435
O O12 0.290336 0.553101 0.942975
O O13 0.500000 0.000000 0.000000
#
# Coordination Sequence:
#
# PCOD9284352 Si02
#       6
#     8   8   8   4   8   8
#     4   9  21  43  60  93 135 167 222 270 345 417
#     4  11  24  40  64 102 132 171 231 286 339 409
#     4  10  21  40  69  96 132 177 218 283 348 410
#     4  12  24  42  74 102 136 178 234 300 340 402
#     4  11  26  44  64  96 136 180 224 278 344 417
#     4  11  24  46  67  95 135 179 232 280 350 407
#
# _framework density 21.376438
#
# number of rings (size 3 to 8) (size 9 to 14) (size 15 to 20)
#    0.000    1.455    1.818    2.182    7.636    2.182 
#    9.818    0.000    0.000    0.000    0.000    0.000 
#    0.000    0.000    0.000    0.000    0.000    0.000 
#
# Total GULP energy -122620.581038 kJ/mol
# GULP energy per Si atom -5573.662774 kJ/mol
# Density = 2.132778 g / cm^3
# Si number density = 21.376438 Si / 1000 Ang^3
#
#
#
# Elastic Constant Matrix: (Units=GPa)
#
#
# Indices 1 2 3 4 5 6 
#
# 1 113.2906 36.8954 38.1828 0.0000 1.7257 0.0000
# 2 36.8954 85.4641 22.4218 0.0000 -8.8352 0.0000
# 3 38.1828 22.4218 88.0969 0.0000 -3.2692 0.0000
# 4 0.0000 0.0000 0.0000 31.6668 0.0000 -1.1821
# 5 1.7257 -8.8352 -3.2692 0.0000 30.0074 0.0000
# 6 0.0000 0.0000 0.0000 -1.1821 0.0000 32.9989
#
#
#
# Elastic Compliance Matrix: (Units=1/GPa)
#
#
# Indices 1 2 3 4 5 6 
#
# 1 0.011588 -0.004183 -0.004045 0.000000 -0.002339 0.000000
# 2 -0.004183 0.014394 -0.001691 0.000000 0.004295 0.000000
# 3 -0.004045 -0.001691 0.013580 0.000000 0.001214 0.000000
# 4 0.000000 0.000000 0.000000 0.031621 0.000000 0.001133
# 5 -0.002339 0.004295 0.001214 0.000000 0.034856 0.000000
# 6 0.000000 0.000000 0.000000 0.001133 0.000000 0.030345
#
#
# Mechanical properties :
#
#
# Convention : Reuss Voigt Hill
#
# Bulk Modulus (GPa) = 50.69925 53.53905 52.11915
# Shear Modulus (GPa) = 30.71315 31.55804 31.13560
#
# Velocity S-wave (km/s) = 3.79460 3.84643 3.82060
# Velocity P-wave (km/s) = 6.55496 6.69529 6.62550
#
# Compressibility (1/GPa) = 0.01972416
#
# Stress axis : x y z
#
# Youngs Moduli (GPa) = 86.29614 69.47144 73.63999
#
# Poissons Ratio (x) = 0.29062 0.29784
# Poissons Ratio (y) = 0.36100 0.12453
# Poissons Ratio (z) = 0.34903 0.11748
#
# Static dielectric constant tensor:
#      x y z
#    x 1.897480 0.000000 0.015130 
#    y 0.000000 1.793480 0.000000 
#    z 0.015130 0.000000 1.822940 
# 
# From -- ./inp_files/73973.got.cif
#   From: 2010.05.17/outbox.cif.g08.bks.cpg/sg15_37_cif.got.tgz:73973.got - 2010.06.03 18:47:42.
