data_PCOD9284390
_publ_section_title
;
Structure prediction by ZEFSAII (Michael W. Deem and Ramdas Pophale) SiO2 
 PCOD9284390
Probable space group: C 2/C
;
_chemical_formula_sum "Si O2"
_cell_formula_units_Z 60
_cell_length_a 11.594091
_cell_length_b 10.769791
_cell_length_c 27.699846
_cell_angle_alpha 90.000000
_cell_angle_beta 61.566363
_cell_angle_gamma 90.000000
_cell_volume 3041.533343
_symmetry_space_group_name_H-M "C 2/C"
_symmetry_group_IT_number 15
_symmetry_cell_setting 'monoclinic'
loop_
_space_group_symop_operation_xyz
x,y,z
-x,y,1/2-z
-x,-y,-z
x,-y,1/2+z
1/2+x,1/2+y,z
1/2-x,1/2+y,1/2-z
1/2-x,1/2-y,-z
1/2+x,1/2-y,1/2+z
loop_
_atom_site_type_symbol
_atom_site_label
_atom_site_fract_x
_atom_site_fract_y
_atom_site_fract_z
Si Si1 0.452052 0.571903 0.057160
Si Si2 0.037447 0.580798 0.153896
Si Si3 0.136473 0.984546 0.270336
Si Si4 0.758693 0.255490 0.940811
Si Si5 0.265311 0.074007 0.837170
Si Si6 0.000000 0.766368 0.250000
Si Si7 0.620724 0.510171 0.111096
Si Si8 0.261930 0.136408 0.166876
O O1 0.378220 0.698395 0.055906
O O2 0.342973 0.490429 0.107185
O O3 0.570311 0.576147 0.072268
O O4 0.500000 0.500000 0.000000
O O5 0.137193 0.639298 0.095370
O O6 0.096950 0.456054 0.165064
O O7 0.034811 0.680497 0.198011
O O8 0.896410 0.574800 0.157890
O O9 0.253383 0.983817 0.285970
O O10 0.117251 0.858123 0.243536
O O11 0.006360 0.993337 0.328980
O O12 0.157526 0.093428 0.228049
O O13 0.815063 0.123373 0.912282
O O14 0.750000 0.250000 0.000000
O O15 0.229443 0.216364 0.837155
O O16 0.720637 0.589166 0.122797
#
# Coordination Sequence:
#
# PCOD9284390 Si02
#       8
#     8   8   8   8   8   4   8   8
#     4  10  21  40  70  94 119 167 229 273 327 387
#     4  11  23  40  62  96 130 168 222 268 330 403
#     4  11  21  41  64  88 125 175 217 268 323 385
#     4  11  21  40  74  92 121 172 225 274 323 397
#     4  10  24  40  62  94 131 169 216 275 321 399
#     4  12  18  40  64  88 120 168 224 262 312 388
#     4  11  22  41  62  96 125 167 219 268 329 399
#     4  12  23  41  62  92 141 171 208 276 340 399
#
# _framework density 19.726891999999999
#
# number of rings (size 3 to 8) (size 9 to 14) (size 15 to 20)
#    0.000    1.067    5.333    1.600    0.000    1.067 
#    9.600    1.333    0.000    0.000    0.000    0.000 
#    0.000    0.000    0.000    0.000    0.000    0.000 
#
# Total GULP energy -167521.103720 kJ/mol
# GULP energy per Si atom -5584.036791 kJ/mol
# Density = 1.968199 g / cm^3
# Si number density = 19.726892 Si / 1000 Ang^3
#
#
#
# Elastic Constant Matrix: (Units=GPa)
#
#
# Indices 1 2 3 4 5 6 
#
# 1 145.6959 28.1551 41.7413 0.0000 35.5496 0.0000
# 2 28.1551 27.0601 9.1847 0.0000 10.2898 0.0000
# 3 41.7413 9.1847 98.4932 0.0000 27.4148 0.0000
# 4 0.0000 0.0000 0.0000 17.6539 0.0000 2.6666
# 5 35.5496 10.2898 27.4148 0.0000 30.9498 0.0000
# 6 0.0000 0.0000 0.0000 2.6666 0.0000 29.9963
#
#
#
# Elastic Compliance Matrix: (Units=1/GPa)
#
#
# Indices 1 2 3 4 5 6 
#
# 1 0.010849 -0.007493 -0.001492 0.000000 -0.008649 0.000000
# 2 -0.007493 0.047478 0.000990 0.000000 -0.008055 0.000000
# 3 -0.001492 0.000990 0.013680 0.000000 -0.010734 0.000000
# 4 0.000000 0.000000 0.000000 0.057416 0.000000 -0.005104
# 5 -0.008649 -0.008055 -0.010734 0.000000 0.054431 0.000000
# 6 0.000000 0.000000 0.000000 -0.005104 0.000000 0.033791
#
#
# Mechanical properties :
#
#
# Convention : Reuss Voigt Hill
#
# Bulk Modulus (GPa) = 17.85118 47.71238 32.78178
# Shear Modulus (GPa) = 19.81705 28.53119 24.17412
#
# Velocity S-wave (km/s) = 3.17293 3.80716 3.50443
# Velocity P-wave (km/s) = 4.74259 6.60038 5.74705
#
# Compressibility (1/GPa) = 0.05601871
#
# Stress axis : x y z
#
# Youngs Moduli (GPa) = 92.17084 21.06237 73.09681
#
# Poissons Ratio (x) = 0.15782 0.10904
# Poissons Ratio (y) = 0.69065 -0.07239
# Poissons Ratio (z) = 0.13750 -0.02086
#
# Static dielectric constant tensor:
#      x y z
#    x 1.755940 0.000000 -0.012060 
#    y 0.000000 1.684480 0.000000 
#    z -0.012060 0.000000 1.688480 
# 
# From -- ./inp_files/310287.got.cif
#   From: 2010.05.17/outbox.cif.g08.bks.cpg/sg15_156_cif.got.tgz:310287.got - 2010.06.03 18:47:42.
