data_PCOD9284021
_publ_section_title
;
Structure prediction by ZEFSAII (Michael W. Deem and Ramdas Pophale) SiO2 
 PCOD9284021
Probable space group: C 2/C
;
_chemical_formula_sum "Si O2"
_cell_formula_units_Z 64
_cell_length_a 11.156522
_cell_length_b 16.345233
_cell_length_c 18.005339
_cell_angle_alpha 90.000000
_cell_angle_beta 102.156850
_cell_angle_gamma 90.000000
_cell_volume 3209.750151
_symmetry_space_group_name_H-M "C 2/C"
_symmetry_group_IT_number 15
_symmetry_cell_setting 'monoclinic'
loop_
_space_group_symop_operation_xyz
x,y,z
-x,y,1/2-z
-x,-y,-z
x,-y,1/2+z
1/2+x,1/2+y,z
1/2-x,1/2+y,1/2-z
1/2-x,1/2-y,-z
1/2+x,1/2-y,1/2+z
loop_
_atom_site_type_symbol
_atom_site_label
_atom_site_fract_x
_atom_site_fract_y
_atom_site_fract_z
Si Si1 0.012950 0.276160 0.582004
Si Si2 0.314536 0.133307 0.292888
Si Si3 0.689196 0.126556 0.384366
Si Si4 0.986123 0.488013 0.335571
Si Si5 0.057121 0.937957 0.593926
Si Si6 0.593942 0.844075 0.437957
Si Si7 0.563374 0.692130 0.328388
Si Si8 0.874739 0.103724 0.943569
O O1 0.080611 0.305367 0.665372
O O2 0.065480 0.330433 0.520629
O O3 0.051258 0.184204 0.569877
O O4 0.872581 0.299890 0.578593
O O5 0.300935 0.141674 0.202844
O O6 0.193890 0.158580 0.320637
O O7 0.363446 0.043037 0.321172
O O8 0.824739 0.104134 0.428694
O O9 0.595749 0.049409 0.375507
O O10 0.000000 0.466834 0.250000
O O11 0.001299 0.408864 0.388531
O O12 0.021267 0.884088 0.659751
O O13 0.937847 0.931320 0.526372
O O14 0.102050 0.030506 0.611817
O O15 0.577096 0.756045 0.396691
O O16 0.733096 0.873716 0.439521
O O17 0.500000 0.735250 0.250000
#
# Coordination Sequence:
#
# PCOD9284021 Si02
#       8
#     8   8   8   8   8   8   8   8
#     4  11  22  39  64  95 123 164 210 257 312 371
#     4  10  21  40  66  90 124 163 209 258 313 374
#     4  10  21  41  64  88 128 164 207 257 315 368
#     4   9  20  39  63  91 122 161 203 255 312 362
#     4  11  23  42  61  89 123 172 199 254 320 373
#     4  12  22  41  64  96 124 162 212 264 302 371
#     4  12  23  40  67  94 124 164 212 255 315 376
#     4  11  23  41  63  88 130 162 205 254 318 368
#
# _framework density 19.939247000000002
#
# number of rings (size 3 to 8) (size 9 to 14) (size 15 to 20)
#    0.000    1.250    5.000    2.625    0.000    2.500 
#    4.500    1.250    2.750    0.000    0.000    0.000 
#    0.000    0.000    0.000    0.000    0.000    0.000 
#
# Total GULP energy -178602.646978 kJ/mol
# GULP energy per Si atom -5581.332718 kJ/mol
# Density = 1.989386 g / cm^3
# Si number density = 19.939247 Si / 1000 Ang^3
#
#
#
# Elastic Constant Matrix: (Units=GPa)
#
#
# Indices 1 2 3 4 5 6 
#
# 1 74.9533 13.9871 4.1037 0.0000 -3.9854 0.0000
# 2 13.9871 79.4998 19.3154 0.0000 -15.1283 0.0000
# 3 4.1037 19.3154 48.5813 0.0000 3.4304 0.0000
# 4 0.0000 0.0000 0.0000 23.9565 0.0000 -0.5104
# 5 -3.9854 -15.1283 3.4304 0.0000 26.6389 0.0000
# 6 0.0000 0.0000 0.0000 -0.5104 0.0000 23.4649
#
#
#
# Elastic Compliance Matrix: (Units=1/GPa)
#
#
# Indices 1 2 3 4 5 6 
#
# 1 0.013814 -0.002175 -0.000364 0.000000 0.000879 0.000000
# 2 -0.002175 0.016598 -0.007123 0.000000 0.010018 0.000000
# 3 -0.000364 -0.007123 0.023954 0.000000 -0.007184 0.000000
# 4 0.000000 0.000000 0.000000 0.041762 0.000000 0.000908
# 5 0.000879 0.010018 -0.007184 0.000000 0.044285 0.000000
# 6 0.000000 0.000000 0.000000 0.000908 0.000000 0.042637
#
#
# Mechanical properties :
#
#
# Convention : Reuss Voigt Hill
#
# Bulk Modulus (GPa) = 28.53675 30.87187 29.70431
# Shear Modulus (GPa) = 23.35854 25.85396 24.60625
#
# Velocity S-wave (km/s) = 3.42641 3.60479 3.51673
# Velocity P-wave (km/s) = 5.47692 5.73085 5.60532
#
# Compressibility (1/GPa) = 0.03504253
#
# Stress axis : x y z
#
# Youngs Moduli (GPa) = 72.38961 60.24733 41.74647
#
# Poissons Ratio (x) = 0.13102 0.01521
# Poissons Ratio (y) = 0.15743 0.29736
# Poissons Ratio (z) = 0.02637 0.42914
#
# Static dielectric constant tensor:
#      x y z
#    x 1.721930 0.000000 0.038750 
#    y 0.000000 1.730310 0.000000 
#    z 0.038750 0.000000 1.712270 
# 
# From -- ./inp_files/198334.got.cif
#   From: 2010.05.17/outbox.cif.g08.bks.cpg/sg15_100_cif.got.tgz:198334.got - 2010.06.03 18:47:42.
