data_PCOD9284139
_publ_section_title
;
Structure prediction by ZEFSAII (Michael W. Deem and Ramdas Pophale) SiO2 
 PCOD9284139
Probable space group: C 2/C
;
_chemical_formula_sum "Si O2"
_cell_formula_units_Z 48
_cell_length_a 21.013227
_cell_length_b 12.148897
_cell_length_c 12.155670
_cell_angle_alpha 90.000000
_cell_angle_beta 54.655522
_cell_angle_gamma 90.000000
_cell_volume 2531.238000
_symmetry_space_group_name_H-M "C 2/C"
_symmetry_group_IT_number 15
_symmetry_cell_setting 'monoclinic'
loop_
_space_group_symop_operation_xyz
x,y,z
-x,y,1/2-z
-x,-y,-z
x,-y,1/2+z
1/2+x,1/2+y,z
1/2-x,1/2+y,1/2-z
1/2-x,1/2-y,-z
1/2+x,1/2-y,1/2+z
loop_
_atom_site_type_symbol
_atom_site_label
_atom_site_fract_x
_atom_site_fract_y
_atom_site_fract_z
Si Si1 0.591265 0.082680 0.133414
Si Si2 0.155996 0.654481 0.507847
Si Si3 0.844002 0.154478 0.319835
Si Si4 0.157249 0.774280 0.925236
Si Si5 0.157244 0.725719 0.260278
Si Si6 0.591264 0.417319 0.184063
O O1 0.500000 0.089319 0.250000
O O2 0.636702 0.129508 0.194494
O O3 0.616648 0.960055 0.078835
O O4 0.613484 0.166172 0.012973
O O5 0.135328 0.750002 0.614676
O O6 0.249999 0.639677 0.417334
O O7 0.135142 0.691668 0.405372
O O8 0.864854 0.191666 0.175652
O O9 0.883349 0.039941 0.312125
O O10 0.250003 0.753225 0.835750
O O11 0.136705 0.870488 0.032108
O O12 0.113477 0.833824 0.260072
O O13 0.500000 0.410686 0.250000
#
# Coordination Sequence:
#
# PCOD9284139 Si02
#       6
#     8   8   8   8   8   8
#     4  11  23  41  61  92 127 161 199 251 314 371
#     4  10  23  41  63  91 121 159 211 257 298 357
#     4  10  23  41  63  91 121 159 211 257 298 357
#     4  10  21  40  67  89 118 164 210 254 297 361
#     4  10  21  40  67  89 118 164 210 254 297 361
#     4  11  23  41  61  92 127 161 199 251 314 371
#
# _framework density 18.963052999999999
#
# number of rings (size 3 to 8) (size 9 to 14) (size 15 to 20)
#    0.000    1.667    0.000    6.000    4.667    2.000 
#    6.000    0.000    0.000    0.000    0.000    0.000 
#    0.000    0.000    0.000    0.000    0.000    0.000 
#
# Total GULP energy -134183.803892 kJ/mol
# GULP energy per Si atom -5590.991829 kJ/mol
# Density = 1.891989 g / cm^3
# Si number density = 18.963053 Si / 1000 Ang^3
#
#
#
# Elastic Constant Matrix: (Units=GPa)
#
#
# Indices 1 2 3 4 5 6 
#
# 1 76.9725 91.5105 77.3589 0.0000 9.4847 0.0000
# 2 91.5105 200.7152 101.2226 0.0000 17.9208 0.0000
# 3 77.3589 101.2226 94.3305 0.0000 22.5355 0.0000
# 4 0.0000 0.0000 0.0000 14.1782 0.0000 1.2859
# 5 9.4847 17.9208 22.5355 0.0000 26.3953 0.0000
# 6 0.0000 0.0000 0.0000 1.2859 0.0000 13.5071
#
#
#
# Elastic Compliance Matrix: (Units=1/GPa)
#
#
# Indices 1 2 3 4 5 6 
#
# 1 0.107472 -0.006931 -0.091199 0.000000 0.043950 0.000000
# 2 -0.006931 0.011530 -0.006800 0.000000 0.000468 0.000000
# 3 -0.091199 -0.006800 0.105218 0.000000 -0.052444 0.000000
# 4 0.000000 0.000000 0.000000 0.071145 0.000000 -0.006773
# 5 0.043950 0.000468 -0.052444 0.000000 0.066550 0.000000
# 6 0.000000 0.000000 0.000000 -0.006773 0.000000 0.074680
#
#
# Mechanical properties :
#
#
# Convention : Reuss Voigt Hill
#
# Bulk Modulus (GPa) = 69.63741 101.35580 85.49660
# Shear Modulus (GPa) = 7.67765 17.61120 12.64442
#
# Velocity S-wave (km/s) = 2.01433 3.05078 2.58503
# Velocity P-wave (km/s) = 6.49711 8.12249 7.35484
#
# Compressibility (1/GPa) = 0.01436010
#
# Stress axis : x y z
#
# Youngs Moduli (GPa) = 9.30472 86.73343 9.50411
#
# Poissons Ratio (x) = 0.60111 0.86676
# Poissons Ratio (y) = 0.06449 0.06463
# Poissons Ratio (z) = 0.84858 0.58981
#
# Static dielectric constant tensor:
#      x y z
#    x 1.643120 0.000000 -0.000700 
#    y 0.000000 1.617620 0.000000 
#    z -0.000700 0.000000 1.642750 
# 
# From -- ./inp_files/111208.got.cif
#   From: 2010.05.17/outbox.cif.g08.bks.cpg/sg15_56_cif.got.tgz:111208.got - 2010.06.03 18:47:42.
