data_PCOD9284154
_publ_section_title
;
Structure prediction by ZEFSAII (Michael W. Deem and Ramdas Pophale) SiO2 
 PCOD9284154
Probable space group: C 2/C
;
_chemical_formula_sum "Si O2"
_cell_formula_units_Z 40
_cell_length_a 11.779309
_cell_length_b 15.998498
_cell_length_c 16.832017
_cell_angle_alpha 90.000000
_cell_angle_beta 149.864117
_cell_angle_gamma 90.000000
_cell_volume 1592.517776
_symmetry_space_group_name_H-M "C 2/C"
_symmetry_group_IT_number 15
_symmetry_cell_setting 'monoclinic'
loop_
_space_group_symop_operation_xyz
x,y,z
-x,y,1/2-z
-x,-y,-z
x,-y,1/2+z
1/2+x,1/2+y,z
1/2-x,1/2+y,1/2-z
1/2-x,1/2-y,-z
1/2+x,1/2-y,1/2+z
loop_
_atom_site_type_symbol
_atom_site_label
_atom_site_fract_x
_atom_site_fract_y
_atom_site_fract_z
Si Si1 0.722943 0.381363 0.215100
Si Si2 0.240486 0.176208 0.892196
Si Si3 0.710824 0.108932 0.978557
Si Si4 0.321870 0.752815 0.916674
Si Si5 0.757697 0.568381 0.058871
O O1 0.711640 0.389947 0.302955
O O2 0.798068 0.286293 0.233864
O O3 0.948499 0.423874 0.320632
O O4 0.473050 0.404239 0.033948
O O5 0.000000 0.221858 0.750000
O O6 0.437946 0.232073 0.978569
O O7 0.287247 0.132885 0.003547
O O8 0.774581 0.178156 0.950715
O O9 0.822575 0.021504 0.025230
O O10 0.745630 0.160144 0.082039
O O11 0.000000 0.567633 0.250000
#
# Coordination Sequence:
#
# PCOD9284154 Si02
#       5
#     8   8   8   8   8
#     4  10  22  42  65  95 134 170 214 277 330 387
#     4   9  22  43  65  96 133 168 216 276 327 388
#     4  10  23  43  64  96 134 170 218 274 328 392
#     4  10  21  40  67  91 127 173 214 265 329 384
#     4  11  24  42  67  96 132 176 220 267 331 396
#
# _framework density 25.117459
#
# number of rings (size 3 to 8) (size 9 to 14) (size 15 to 20)
#    0.000    2.000    0.000    1.800    0.000   13.600 
#    0.000   22.000    0.000    0.000    0.000    0.000 
#    0.000    0.000    0.000    0.000    0.000    0.000 
#
# Total GULP energy -111379.188489 kJ/mol
# GULP energy per Si atom -5568.959424 kJ/mol
# Density = 2.506029 g / cm^3
# Si number density = 25.117459 Si / 1000 Ang^3
#
#
#
# Elastic Constant Matrix: (Units=GPa)
#
#
# Indices 1 2 3 4 5 6 
#
# 1 152.3914 46.8057 49.7202 0.0011 22.7006 0.0011
# 2 46.8057 123.9541 35.5743 -0.0059 1.3432 -0.0010
# 3 49.7202 35.5743 87.1560 -0.0079 20.6466 -0.0019
# 4 0.0011 -0.0059 -0.0079 79.2248 0.0007 30.8781
# 5 22.7006 1.3432 20.6466 0.0007 56.6350 0.0005
# 6 0.0011 -0.0010 -0.0019 30.8781 0.0005 44.0547
#
#
#
# Elastic Compliance Matrix: (Units=1/GPa)
#
#
# Indices 1 2 3 4 5 6 
#
# 1 0.008734 -0.002255 -0.003552 -0.000001 -0.002152 0.000000
# 2 -0.002255 0.009802 -0.003145 0.000001 0.001818 0.000000
# 3 -0.003552 -0.003145 0.015793 0.000002 -0.004259 0.000000
# 4 -0.000001 0.000001 0.000002 0.017366 0.000000 -0.012172
# 5 -0.002152 0.001818 -0.004259 0.000000 0.020029 0.000000
# 6 0.000000 0.000000 0.000000 -0.012172 0.000000 0.031231
#
#
# Mechanical properties :
#
#
# Convention : Reuss Voigt Hill
#
# Bulk Modulus (GPa) = 60.88644 69.74465 65.31554
# Shear Modulus (GPa) = 39.57727 51.40965 45.49346
#
# Velocity S-wave (km/s) = 3.97380 4.52903 4.26047
# Velocity P-wave (km/s) = 6.73410 7.42813 7.08961
#
# Compressibility (1/GPa) = 0.01642402
#
# Stress axis : x y z
#
# Youngs Moduli (GPa) = 114.49012 102.01996 63.32029
#
# Poissons Ratio (x) = 0.23009 0.22493
# Poissons Ratio (y) = 0.25821 0.19914
# Poissons Ratio (z) = 0.40670 0.32085
#
# Static dielectric constant tensor:
#      x y z
#    x 2.023090 0.000000 -0.009700 
#    y 0.000000 1.981320 0.000000 
#    z -0.009700 0.000000 2.108270 
# 
# From -- ./inp_files/199741.got.cif
#   From: 2010.05.17/outbox.cif.g08.bks.cpg/sg15_100_cif.got.tgz:199741.got - 2010.06.03 18:47:42.
