data_PCOD9284226
_publ_section_title
;
Structure prediction by ZEFSAII (Michael W. Deem and Ramdas Pophale) SiO2 
 PCOD9284226
Probable space group: C 2/C
;
_chemical_formula_sum "Si O2"
_cell_formula_units_Z 56
_cell_length_a 8.427922
_cell_length_b 22.126011
_cell_length_c 15.413773
_cell_angle_alpha 90.000000
_cell_angle_beta 115.520321
_cell_angle_gamma 90.000000
_cell_volume 2593.864806
_symmetry_space_group_name_H-M "C 2/C"
_symmetry_group_IT_number 15
_symmetry_cell_setting 'monoclinic'
loop_
_space_group_symop_operation_xyz
x,y,z
-x,y,1/2-z
-x,-y,-z
x,-y,1/2+z
1/2+x,1/2+y,z
1/2-x,1/2+y,1/2-z
1/2-x,1/2-y,-z
1/2+x,1/2-y,1/2+z
loop_
_atom_site_type_symbol
_atom_site_label
_atom_site_fract_x
_atom_site_fract_y
_atom_site_fract_z
Si Si1 0.326802 0.003222 0.900112
Si Si2 0.234744 0.800934 0.889376
Si Si3 0.808994 0.865513 0.951906
Si Si4 0.037741 0.920235 0.863850
Si Si5 0.671714 0.630868 0.849076
Si Si6 0.572015 0.885066 0.672064
Si Si7 0.554442 0.239552 0.585752
O O1 0.279819 0.069295 0.855533
O O2 0.150720 0.979940 0.907272
O O3 0.354111 0.950599 0.835134
O O4 0.500000 0.000000 0.000000
O O5 0.165261 0.863502 0.916001
O O6 0.299062 0.828299 0.813478
O O7 0.069731 0.756881 0.861463
O O8 0.404601 0.776183 0.978922
O O9 0.604218 0.875571 0.925102
O O10 0.877678 0.910532 0.892518
O O11 0.843512 0.798699 0.923577
O O12 0.894350 0.871569 0.066353
O O13 0.000000 0.917032 0.750000
O O14 0.500000 0.636204 0.750000
O O15 0.805979 0.686604 0.868961
O O16 0.500000 0.883353 0.750000
#
# Coordination Sequence:
#
# PCOD9284226 Si02
#       7
#     8   8   8   8   8   8   8
#     4  11  22  45  68  89 135 181 229 287 354 413
#     4   9  19  39  68  95 129 173 214 287 348 397
#     4  11  22  41  67 100 136 176 231 292 348 411
#     4  10  21  40  67  99 127 166 229 292 349 405
#     4  12  25  42  65 100 145 192 226 279 356 434
#     4  11  22  40  73 103 126 169 243 300 340 400
#     4  10  21  42  68  95 138 180 228 279 348 424
#
# _framework density 21.589407000000001
#
# number of rings (size 3 to 8) (size 9 to 14) (size 15 to 20)
#    0.000    1.429    2.857    3.429    0.000    1.143 
#    7.714    0.000    3.143    0.000    0.000    0.000 
#    0.000    0.000    0.000    0.000    0.000    0.000 
#
# Total GULP energy -156211.472719 kJ/mol
# GULP energy per Si atom -5578.981169 kJ/mol
# Density = 2.154027 g / cm^3
# Si number density = 21.589407 Si / 1000 Ang^3
#
#
#
# Elastic Constant Matrix: (Units=GPa)
#
#
# Indices 1 2 3 4 5 6 
#
# 1 130.2283 71.5841 46.3568 0.0000 -3.6306 0.0000
# 2 71.5841 139.9220 45.8512 0.0000 6.3909 0.0000
# 3 46.3568 45.8512 117.1170 0.0000 1.3613 0.0000
# 4 0.0000 0.0000 0.0000 11.9260 0.0000 10.0512
# 5 -3.6306 6.3909 1.3613 0.0000 44.4024 0.0000
# 6 0.0000 0.0000 0.0000 10.0512 0.0000 38.4823
#
#
#
# Elastic Compliance Matrix: (Units=1/GPa)
#
#
# Indices 1 2 3 4 5 6 
#
# 1 0.011436 -0.005094 -0.002553 0.000000 0.001747 0.000000
# 2 -0.005094 0.010520 -0.002081 0.000000 -0.001867 0.000000
# 3 -0.002553 -0.002081 0.010366 0.000000 -0.000227 0.000000
# 4 0.000000 0.000000 0.000000 0.107519 0.000000 -0.028083
# 5 0.001747 -0.001867 -0.000227 0.000000 0.022940 0.000000
# 6 0.000000 0.000000 0.000000 -0.028083 0.000000 0.033321
#
#
# Mechanical properties :
#
#
# Convention : Reuss Voigt Hill
#
# Bulk Modulus (GPa) = 77.71361 79.42795 78.57078
# Shear Modulus (GPa) = 22.74324 33.86048 28.30186
#
# Velocity S-wave (km/s) = 3.24920 3.96458 3.62458
# Velocity P-wave (km/s) = 7.08172 7.60443 7.34772
#
# Compressibility (1/GPa) = 0.01286776
#
# Stress axis : x y z
#
# Youngs Moduli (GPa) = 87.44093 95.05677 96.46906
#
# Poissons Ratio (x) = 0.48423 0.24625
# Poissons Ratio (y) = 0.44543 0.20071
# Poissons Ratio (z) = 0.22320 0.19777
#
# Static dielectric constant tensor:
#      x y z
#    x 1.886630 0.000000 0.048420 
#    y 0.000000 1.779510 0.000000 
#    z 0.048420 0.000000 1.924430 
# 
# From -- ./inp_files/192256.got.cif
#   From: 2010.05.17/outbox.cif.g08.bks.cpg/sg15_97_cif.got.tgz:192256.got - 2010.06.03 18:47:42.
