data_PCOD9284361
_publ_section_title
;
Structure prediction by ZEFSAII (Michael W. Deem and Ramdas Pophale) SiO2 
 PCOD9284361
Probable space group: C 2/C
;
_chemical_formula_sum "Si O2"
_cell_formula_units_Z 56
_cell_length_a 19.004338
_cell_length_b 8.725319
_cell_length_c 26.828563
_cell_angle_alpha 90.000000
_cell_angle_beta 33.644902
_cell_angle_gamma 90.000000
_cell_volume 2464.766762
_symmetry_space_group_name_H-M "C 2/C"
_symmetry_group_IT_number 15
_symmetry_cell_setting 'monoclinic'
loop_
_space_group_symop_operation_xyz
x,y,z
-x,y,1/2-z
-x,-y,-z
x,-y,1/2+z
1/2+x,1/2+y,z
1/2-x,1/2+y,1/2-z
1/2-x,1/2-y,-z
1/2+x,1/2-y,1/2+z
loop_
_atom_site_type_symbol
_atom_site_label
_atom_site_fract_x
_atom_site_fract_y
_atom_site_fract_z
Si Si1 0.878619 0.457711 0.209186
Si Si2 0.770436 0.354239 0.693005
Si Si3 0.618515 0.362746 0.982033
Si Si4 0.900320 0.745928 0.916101
Si Si5 0.586480 0.717441 0.976665
Si Si6 0.620095 0.817950 0.706321
Si Si7 0.474649 0.445601 0.167245
O O1 0.882795 0.565114 0.157846
O O2 0.786529 0.310443 0.256751
O O3 0.827256 0.574911 0.280719
O O4 0.011300 0.393284 0.153325
O O5 0.811612 0.322152 0.612018
O O6 0.656931 0.472235 0.768928
O O7 0.628635 0.541112 0.959383
O O8 0.759069 0.291673 0.900510
O O9 0.534124 0.283956 0.988936
O O10 0.543820 0.368849 0.078760
O O11 0.750000 0.750000 0.000000
O O12 0.937723 0.736800 0.952630
O O13 0.942655 0.906355 0.867051
O O14 0.500000 0.891452 0.750000
O O15 0.559595 0.671200 0.769254
#
# Coordination Sequence:
#
# PCOD9284361 Si02
#       7
#     8   8   8   8   8   8   8
#     4  11  24  40  69 101 138 180 226 295 352 414
#     4  11  22  43  71 105 134 175 239 292 349 412
#     4  10  22  44  69  98 136 181 230 284 364 409
#     4  10  25  45  68  97 143 188 228 285 367 428
#     4  10  21  40  69  99 129 183 226 286 344 429
#     4  12  27  44  70 101 138 189 236 284 358 428
#     4  10  25  46  69  99 142 182 230 304 346 417
#
# _framework density 22.720203000000001
#
# number of rings (size 3 to 8) (size 9 to 14) (size 15 to 20)
#    0.000    1.429    1.429    2.571   12.000    2.286 
#    5.143    2.857    0.000    0.000    0.000    0.000 
#    0.000    0.000    0.000    0.000    0.000    0.000 
#
# Total GULP energy -156221.817120 kJ/mol
# GULP energy per Si atom -5579.350611 kJ/mol
# Density = 2.266849 g / cm^3
# Si number density = 22.720203 Si / 1000 Ang^3
#
#
#
# Elastic Constant Matrix: (Units=GPa)
#
#
# Indices 1 2 3 4 5 6 
#
# 1 27.5301 34.7131 15.0009 0.0013 4.2485 -0.0016
# 2 34.7131 72.3639 43.0391 0.0003 4.8615 -0.0004
# 3 15.0009 43.0391 132.5558 0.0002 1.3960 -0.0004
# 4 0.0013 0.0003 0.0002 19.1780 -0.0005 12.6745
# 5 4.2485 4.8615 1.3960 -0.0005 38.7460 0.0007
# 6 -0.0016 -0.0004 -0.0004 12.6745 0.0007 19.7941
#
#
#
# Elastic Compliance Matrix: (Units=1/GPa)
#
#
# Indices 1 2 3 4 5 6 
#
# 1 0.095309 -0.048367 0.004966 -0.000018 -0.004561 0.000019
# 2 -0.048367 0.041820 -0.008109 0.000009 0.000348 -0.000009
# 3 0.004966 -0.008109 0.009613 -0.000001 0.000126 0.000001
# 4 -0.000018 0.000009 -0.000001 0.090397 0.000003 -0.057883
# 5 -0.004561 0.000348 0.000126 0.000003 0.026261 -0.000003
# 6 0.000019 -0.000009 0.000001 -0.057883 -0.000003 0.087583
#
#
# Mechanical properties :
#
#
# Convention : Reuss Voigt Hill
#
# Bulk Modulus (GPa) = 22.87099 46.43955 34.65527
# Shear Modulus (GPa) = 10.67063 24.85672 17.76367
#
# Velocity S-wave (km/s) = 2.16950 3.31121 2.79918
# Velocity P-wave (km/s) = 4.04523 5.92477 5.07281
#
# Compressibility (1/GPa) = 0.04372351
#
# Stress axis : x y z
#
# Youngs Moduli (GPa) = 10.49224 23.91193 104.02174
#
# Poissons Ratio (x) = 1.15655 -0.51662
# Poissons Ratio (y) = 0.50748 0.84347
# Poissons Ratio (z) = -0.05211 0.19389
#
# Static dielectric constant tensor:
#      x y z
#    x 1.859490 0.000000 -0.015560 
#    y 0.000000 1.865800 0.000000 
#    z -0.015560 0.000000 1.936370 
# 
# From -- ./inp_files/317492.got.cif
#   From: 2010.05.17/outbox.cif.g08.bks.cpg/sg15_159_cif.got.tgz:317492.got - 2010.06.03 18:47:42.
