data_PCOD9284873
_publ_section_title
;
Structure prediction by ZEFSAII (Michael W. Deem and Ramdas Pophale) SiO2 
 PCOD9284873
Probable space group: C 2/C
;
_chemical_formula_sum "Si O2"
_cell_formula_units_Z 64
_cell_length_a 7.794974
_cell_length_b 26.302588
_cell_length_c 13.868089
_cell_angle_alpha 90.000000
_cell_angle_beta 87.341505
_cell_angle_gamma 90.000000
_cell_volume 2840.286218
_symmetry_space_group_name_H-M "C 2/C"
_symmetry_group_IT_number 15
_symmetry_cell_setting 'monoclinic'
loop_
_space_group_symop_operation_xyz
x,y,z
-x,y,1/2-z
-x,-y,-z
x,-y,1/2+z
1/2+x,1/2+y,z
1/2-x,1/2+y,1/2-z
1/2-x,1/2-y,-z
1/2+x,1/2-y,1/2+z
loop_
_atom_site_type_symbol
_atom_site_label
_atom_site_fract_x
_atom_site_fract_y
_atom_site_fract_z
Si Si1 0.888213 0.858536 0.065381
Si Si2 0.248633 0.671266 0.165076
Si Si3 0.346040 0.442490 0.423764
Si Si4 0.808146 0.364930 0.228238
Si Si5 0.629848 0.058271 0.119876
Si Si6 0.260974 0.461798 0.818605
Si Si7 0.119072 0.223655 0.651724
Si Si8 0.651491 0.348940 0.636424
O O1 0.795345 0.865743 0.169191
O O2 0.990087 0.911059 0.043434
O O3 0.018648 0.811833 0.079327
O O4 0.777681 0.846146 0.973740
O O5 0.154229 0.618753 0.141181
O O6 0.168706 0.720397 0.117765
O O7 0.245694 0.679222 0.281719
O O8 0.451803 0.666876 0.138252
O O9 0.264512 0.405030 0.346028
O O10 0.218860 0.451415 0.516099
O O11 0.370109 0.495155 0.367862
O O12 0.783181 0.309443 0.181352
O O13 0.000000 0.376987 0.250000
O O14 0.430454 0.042899 0.130265
O O15 0.725093 0.030194 0.206126
O O16 0.345546 0.407232 0.830103
O O17 0.000000 0.226992 0.750000
#
# Coordination Sequence:
#
# PCOD9284873 Si02
#       8
#     8   8   8   8   8   8   8   8
#     4  10  22  46  62  96 130 164 220 259 324 393
#     4  10  21  41  65  90 132 167 209 262 321 368
#     4  11  22  43  66  90 129 179 208 264 325 379
#     4  10  24  42  64  96 125 163 219 270 312 390
#     4  10  22  42  61  95 132 166 221 262 314 386
#     4  10  24  39  63  95 133 169 215 267 320 373
#     4   9  21  41  67  89 129 173 204 258 329 379
#     4  10  22  39  61  93 129 164 214 267 304 383
#
# _framework density 22.53294
#
# number of rings (size 3 to 8) (size 9 to 14) (size 15 to 20)
#    0.000    2.000    1.250    1.500    8.750    2.000 
#    9.000    2.500    0.000    0.000    0.000    0.000 
#    0.000    0.000    0.000    0.000    0.000    0.000 
#
# Total GULP energy -178963.496367 kJ/mol
# GULP energy per Si atom -5592.609261 kJ/mol
# Density = 2.248165 g / cm^3
# Si number density = 22.532940 Si / 1000 Ang^3
#
#
#
# Elastic Constant Matrix: (Units=GPa)
#
#
# Indices 1 2 3 4 5 6 
#
# 1 42.3122 5.0410 12.5622 0.0000 -5.2957 0.0000
# 2 5.0410 82.5552 10.9751 0.0000 -0.4990 0.0000
# 3 12.5622 10.9751 129.4969 0.0000 -8.5633 0.0000
# 4 0.0000 0.0000 0.0000 10.8520 0.0000 -4.0276
# 5 -5.2957 -0.4990 -8.5633 0.0000 22.7599 0.0000
# 6 0.0000 0.0000 0.0000 -4.0276 0.0000 10.1691
#
#
#
# Elastic Compliance Matrix: (Units=1/GPa)
#
#
# Indices 1 2 3 4 5 6 
#
# 1 0.025002 -0.001232 -0.001988 0.000000 0.005043 0.000000
# 2 -0.001232 0.012312 -0.000949 0.000000 -0.000374 0.000000
# 3 -0.001988 -0.000949 0.008167 0.000000 0.002589 0.000000
# 4 0.000000 0.000000 0.000000 0.108029 0.000000 0.042786
# 5 0.005043 -0.000374 0.002589 0.000000 0.046076 0.000000
# 6 0.000000 0.000000 0.000000 0.042786 0.000000 0.115283
#
#
# Mechanical properties :
#
#
# Convention : Reuss Voigt Hill
#
# Bulk Modulus (GPa) = 26.92200 34.61343 30.76772
# Shear Modulus (GPa) = 14.89929 23.80858 19.35393
#
# Velocity S-wave (km/s) = 2.57421 3.25408 2.93391
# Velocity P-wave (km/s) = 4.56171 5.43262 5.01610
#
# Compressibility (1/GPa) = 0.03714434
#
# Stress axis : x y z
#
# Youngs Moduli (GPa) = 39.99707 81.22025 122.44952
#
# Poissons Ratio (x) = 0.10006 0.24337
# Poissons Ratio (y) = 0.04928 0.11617
# Poissons Ratio (z) = 0.07949 0.07705
#
# Static dielectric constant tensor:
#      x y z
#    x 1.828390 0.000000 -0.035000 
#    y 0.000000 1.808360 0.000000 
#    z -0.035000 0.000000 1.887000 
# 
# From -- ./inp_files/137814.got.cif
#   From: 2010.05.17/outbox.cif.g08.bks.cpg/sg15_69_cif.got.tgz:137814.got - 2010.06.03 18:47:42.
