data_PCOD9284242
_publ_section_title
;
Structure prediction by ZEFSAII (Michael W. Deem and Ramdas Pophale) SiO2 
 PCOD9284242
Probable space group: C 2/C
;
_chemical_formula_sum "Si O2"
_cell_formula_units_Z 52
_cell_length_a 19.654869
_cell_length_b 20.286124
_cell_length_c 8.402142
_cell_angle_alpha 90.000000
_cell_angle_beta 46.218927
_cell_angle_gamma 90.000000
_cell_volume 2418.742998
_symmetry_space_group_name_H-M "C 2/C"
_symmetry_group_IT_number 15
_symmetry_cell_setting 'monoclinic'
loop_
_space_group_symop_operation_xyz
x,y,z
-x,y,1/2-z
-x,-y,-z
x,-y,1/2+z
1/2+x,1/2+y,z
1/2-x,1/2+y,1/2-z
1/2-x,1/2-y,-z
1/2+x,1/2-y,1/2+z
loop_
_atom_site_type_symbol
_atom_site_label
_atom_site_fract_x
_atom_site_fract_y
_atom_site_fract_z
Si Si1 0.774063 0.227686 0.709213
Si Si2 0.575854 0.445760 0.930337
Si Si3 0.296878 0.497464 0.530838
Si Si4 0.616600 0.696451 0.283149
Si Si5 0.963159 0.693612 0.973365
Si Si6 0.206278 0.590755 0.939797
Si Si7 0.000000 0.620854 0.250000
O O1 0.682949 0.271643 0.811607
O O2 0.814479 0.193098 0.482106
O O3 0.858084 0.276002 0.629666
O O4 0.742439 0.166320 0.870392
O O5 0.612165 0.459367 0.047825
O O6 0.667231 0.459018 0.672730
O O7 0.560914 0.369159 0.923969
O O8 0.500000 0.500000 0.000000
O O9 0.261601 0.547369 0.720810
O O10 0.225679 0.443045 0.578569
O O11 0.536267 0.746692 0.363960
O O12 0.000000 0.657485 0.750000
O O13 0.978109 0.658294 0.118802
O O14 0.097875 0.584169 0.066613
#
# Coordination Sequence:
#
# PCOD9284242 Si02
#       7
#     8   8   8   8   8   8   4
#     4  10  21  41  71  96 142 184 226 292 352 430
#     4  11  23  40  65 100 140 184 231 279 345 440
#     4  10  25  42  64  94 134 183 227 283 359 421
#     4  10  21  40  68 102 138 187 231 284 362 423
#     4  10  24  41  66 106 140 184 227 289 367 424
#     4  11  24  47  66  98 132 177 239 296 353 430
#     4  12  26  46  70 100 138 172 246 306 344 426
#
# _framework density 21.498768999999999
#
# number of rings (size 3 to 8) (size 9 to 14) (size 15 to 20)
#    0.000    1.538    3.077    0.462    6.462    3.692 
#    2.769    0.000    0.000    0.000    0.000    0.000 
#    0.000    0.000    0.000    0.000    0.000    0.000 
#
# Total GULP energy -144980.151640 kJ/mol
# GULP energy per Si atom -5576.159678 kJ/mol
# Density = 2.144984 g / cm^3
# Si number density = 21.498769 Si / 1000 Ang^3
#
#
#
# Elastic Constant Matrix: (Units=GPa)
#
#
# Indices 1 2 3 4 5 6 
#
# 1 126.1107 18.6281 3.4246 0.0000 -9.7996 0.0000
# 2 18.6281 51.4753 8.0663 0.0000 4.2862 0.0000
# 3 3.4246 8.0663 47.1756 0.0000 6.0393 0.0000
# 4 0.0000 0.0000 0.0000 28.2959 0.0000 -11.2904
# 5 -9.7996 4.2862 6.0393 0.0000 42.8060 0.0000
# 6 0.0000 0.0000 0.0000 -11.2904 0.0000 27.9835
#
#
#
# Elastic Compliance Matrix: (Units=1/GPa)
#
#
# Indices 1 2 3 4 5 6 
#
# 1 0.008602 -0.003251 -0.000369 0.000000 0.002347 0.000000
# 2 -0.003251 0.021291 -0.003092 0.000000 -0.002440 0.000000
# 3 -0.000369 -0.003092 0.022124 0.000000 -0.002896 0.000000
# 4 0.000000 0.000000 0.000000 0.042122 0.000000 0.016995
# 5 0.002347 -0.002440 -0.002896 0.000000 0.024551 0.000000
# 6 0.000000 0.000000 0.000000 0.016995 0.000000 0.042592
#
#
# Mechanical properties :
#
#
# Convention : Reuss Voigt Hill
#
# Bulk Modulus (GPa) = 25.91137 31.66662 28.78899
# Shear Modulus (GPa) = 26.65674 32.79326 29.72500
#
# Velocity S-wave (km/s) = 3.52507 3.90982 3.72242
# Velocity P-wave (km/s) = 5.35227 5.92821 5.64759
#
# Compressibility (1/GPa) = 0.03859310
#
# Stress axis : x y z
#
# Youngs Moduli (GPa) = 116.25108 46.96866 45.20053
#
# Poissons Ratio (x) = 0.15267 0.01668
# Poissons Ratio (y) = 0.37788 0.13976
# Poissons Ratio (z) = 0.04291 0.14523
#
# Static dielectric constant tensor:
#      x y z
#    x 1.802640 0.000000 0.046260 
#    y 0.000000 1.774000 0.000000 
#    z 0.046260 0.000000 1.883900 
# 
# From -- ./inp_files/50591.got.cif
#   From: 2010.05.17/outbox.cif.g08.bks.cpg/sg15_26_cif.got.tgz:50591.got - 2010.06.03 18:47:42.
