data_PCOD9284471
_publ_section_title
;
Structure prediction by ZEFSAII (Michael W. Deem and Ramdas Pophale) SiO2 
 PCOD9284471
Probable space group: C 2/C
;
_chemical_formula_sum "Si O2"
_cell_formula_units_Z 48
_cell_length_a 9.239594
_cell_length_b 16.442961
_cell_length_c 13.376074
_cell_angle_alpha 90.000000
_cell_angle_beta 73.730707
_cell_angle_gamma 90.000000
_cell_volume 1950.799845
_symmetry_space_group_name_H-M "C 2/C"
_symmetry_group_IT_number 15
_symmetry_cell_setting 'monoclinic'
loop_
_space_group_symop_operation_xyz
x,y,z
-x,y,1/2-z
-x,-y,-z
x,-y,1/2+z
1/2+x,1/2+y,z
1/2-x,1/2+y,1/2-z
1/2-x,1/2-y,-z
1/2+x,1/2-y,1/2+z
loop_
_atom_site_type_symbol
_atom_site_label
_atom_site_fract_x
_atom_site_fract_y
_atom_site_fract_z
Si Si1 0.679699 0.699335 0.814296
Si Si2 0.984445 0.470568 0.372199
Si Si3 0.670969 0.815941 0.414049
Si Si4 0.361992 0.563349 0.532800
Si Si5 0.935838 0.199945 0.362768
Si Si6 0.982690 0.648092 0.372826
O O1 0.692565 0.694204 0.691379
O O2 0.621620 0.615625 0.869130
O O3 0.838617 0.724607 0.836075
O O4 0.585672 0.774942 0.873269
O O5 0.805876 0.472817 0.429861
O O6 0.041574 0.559652 0.394277
O O7 0.000000 0.464106 0.250000
O O8 0.081902 0.396764 0.395093
O O9 0.565111 0.740762 0.403851
O O10 0.669316 0.830065 0.534491
O O11 0.500000 0.500000 0.500000
O O12 0.362231 0.630917 0.444784
O O13 0.000000 0.159102 0.250000
O O14 0.000000 0.642552 0.250000
#
# Coordination Sequence:
#
# PCOD9284471 Si02
#       6
#     8   8   8   8   8   8
#     4  11  22  45  73  97 133 179 237 280 331 407
#     4  11  22  43  69 103 137 174 228 282 340 403
#     4  11  20  42  74  98 131 181 233 283 333 400
#     4  12  24  43  69 104 142 175 221 289 338 401
#     4  10  21  40  75 102 127 174 237 283 330 396
#     4  11  26  42  63  99 142 181 222 273 348 413
#
# _framework density 24.605291000000001
#
# number of rings (size 3 to 8) (size 9 to 14) (size 15 to 20)
#    0.000    1.000    5.000    2.500    0.000    6.000 
#    6.000    0.000    0.000    0.000    0.000    0.000 
#    0.000    0.000    0.000    0.000    0.000    0.000 
#
# Total GULP energy -134052.186117 kJ/mol
# GULP energy per Si atom -5585.507755 kJ/mol
# Density = 2.454929 g / cm^3
# Si number density = 24.605291 Si / 1000 Ang^3
#
#
#
# Elastic Constant Matrix: (Units=GPa)
#
#
# Indices 1 2 3 4 5 6 
#
# 1 65.1164 50.2336 25.5549 0.0000 -11.7563 0.0000
# 2 50.2336 110.2554 40.1315 0.0000 -17.7857 0.0000
# 3 25.5549 40.1315 208.6476 0.0000 -16.3410 0.0000
# 4 0.0000 0.0000 0.0000 35.9013 0.0000 -10.1749
# 5 -11.7563 -17.7857 -16.3410 0.0000 37.8633 0.0000
# 6 0.0000 0.0000 0.0000 -10.1749 0.0000 29.8329
#
#
#
# Elastic Compliance Matrix: (Units=1/GPa)
#
#
# Indices 1 2 3 4 5 6 
#
# 1 0.024013 -0.010287 -0.000784 0.000000 0.002286 0.000000
# 2 -0.010287 0.014750 -0.001330 0.000000 0.003161 0.000000
# 3 -0.000784 -0.001330 0.005254 0.000000 0.001400 0.000000
# 4 0.000000 0.000000 0.000000 0.030835 0.000000 0.010517
# 5 0.002286 0.003161 0.001400 0.000000 0.029209 0.000000
# 6 0.000000 0.000000 0.000000 0.010517 0.000000 0.037107
#
#
# Mechanical properties :
#
#
# Convention : Reuss Voigt Hill
#
# Bulk Modulus (GPa) = 52.03507 68.42882 60.23194
# Shear Modulus (GPa) = 29.00675 38.59281 33.79978
#
# Velocity S-wave (km/s) = 3.43721 3.96470 3.71034
# Velocity P-wave (km/s) = 6.07835 6.98780 6.54889
#
# Compressibility (1/GPa) = 0.01921781
#
# Stress axis : x y z
#
# Youngs Moduli (GPa) = 41.64446 67.79467 190.32750
#
# Poissons Ratio (x) = 0.69738 0.14912
# Poissons Ratio (y) = 0.42838 0.25307
# Poissons Ratio (z) = 0.03263 0.09014
#
# Static dielectric constant tensor:
#      x y z
#    x 2.028320 0.000000 -0.006260 
#    y 0.000000 1.919970 0.000000 
#    z -0.006260 0.000000 2.059650 
# 
# From -- ./inp_files/143412.got.cif
#   From: 2010.05.17/outbox.cif.g08.bks.cpg/sg15_72_cif.got.tgz:143412.got - 2010.06.03 18:47:42.
