data_PCOD9284228
_publ_section_title
;
Structure prediction by ZEFSAII (Michael W. Deem and Ramdas Pophale) SiO2 
 PCOD9284228
Probable space group: C 2/C
;
_chemical_formula_sum "Si O2"
_cell_formula_units_Z 52
_cell_length_a 5.672601
_cell_length_b 25.876702
_cell_length_c 17.014471
_cell_angle_alpha 90.000000
_cell_angle_beta 65.726564
_cell_angle_gamma 90.000000
_cell_volume 2276.727513
_symmetry_space_group_name_H-M "C 2/C"
_symmetry_group_IT_number 15
_symmetry_cell_setting 'monoclinic'
loop_
_space_group_symop_operation_xyz
x,y,z
-x,y,1/2-z
-x,-y,-z
x,-y,1/2+z
1/2+x,1/2+y,z
1/2-x,1/2+y,1/2-z
1/2-x,1/2-y,-z
1/2+x,1/2-y,1/2+z
loop_
_atom_site_type_symbol
_atom_site_label
_atom_site_fract_x
_atom_site_fract_y
_atom_site_fract_z
Si Si1 0.721996 0.519372 0.565433
Si Si2 0.477036 0.620033 0.844311
Si Si3 0.000000 0.339796 0.250000
Si Si4 0.886585 0.930139 0.583456
Si Si5 0.599812 0.206789 0.904786
Si Si6 0.500000 0.661566 0.250000
Si Si7 0.569276 0.313429 0.569760
Si Si8 0.500000 0.900188 0.750000
O O1 0.681285 0.566668 0.629935
O O2 0.567403 0.467983 0.609057
O O3 0.604596 0.547377 0.504535
O O4 0.000000 0.500000 0.500000
O O5 0.500000 0.632527 0.750000
O O6 0.781024 0.623882 0.821638
O O7 0.316894 0.666832 0.905018
O O8 0.079494 0.303853 0.313441
O O9 0.607838 0.932140 0.661813
O O10 0.973575 0.871183 0.567245
O O11 0.635876 0.267487 0.917426
O O12 0.328688 0.194320 0.984417
O O13 0.386602 0.690108 0.342009
O O14 0.749457 0.630796 0.251447
#
# Coordination Sequence:
#
# PCOD9284228 Si02
#       8
#     8   8   4   8   8   4   8   4
#     4  11  24  41  67  93 129 178 227 294 352 422
#     4  10  23  41  65  95 130 173 229 287 345 421
#     4  10  21  43  64  96 134 178 229 289 344 424
#     4  10  24  42  60  95 129 173 225 282 348 419
#     4  10  21  40  67  99 130 181 228 285 353 422
#     4  10  23  44  66 102 143 187 226 295 354 432
#     4  10  21  43  66  98 139 177 231 286 358 432
#     4  10  24  41  70  96 137 183 225 284 350 424
#
# _framework density 22.8398
#
# number of rings (size 3 to 8) (size 9 to 14) (size 15 to 20)
#    0.000    1.846    0.000    2.308    6.462    5.538 
#   23.538    2.308    0.000    0.000    0.000    0.000 
#    0.000    0.000    0.000    0.000    0.000    0.000 
#
# Total GULP energy -144855.347584 kJ/mol
# GULP energy per Si atom -5571.359522 kJ/mol
# Density = 2.278782 g / cm^3
# Si number density = 22.839800 Si / 1000 Ang^3
#
#
#
# Elastic Constant Matrix: (Units=GPa)
#
#
# Indices 1 2 3 4 5 6 
#
# 1 60.9285 41.3027 10.3154 0.0000 -25.4017 0.0000
# 2 41.3027 155.1164 30.9953 0.0000 -43.4100 0.0000
# 3 10.3154 30.9953 108.0268 0.0000 -18.7702 0.0000
# 4 0.0000 0.0000 0.0000 15.3492 0.0000 3.6104
# 5 -25.4017 -43.4100 -18.7702 0.0000 38.5314 0.0000
# 6 0.0000 0.0000 0.0000 3.6104 0.0000 17.9170
#
#
#
# Elastic Compliance Matrix: (Units=1/GPa)
#
#
# Indices 1 2 3 4 5 6 
#
# 1 0.023496 -0.002878 0.000776 0.000000 0.012625 0.000000
# 2 -0.002878 0.009856 -0.001042 0.000000 0.008699 0.000000
# 3 0.000776 -0.001042 0.010233 0.000000 0.004323 0.000000
# 4 0.000000 0.000000 0.000000 0.068392 0.000000 -0.013781
# 5 0.012625 0.008699 0.004323 0.000000 0.046182 0.000000
# 6 0.000000 0.000000 0.000000 -0.013781 0.000000 0.058590
#
#
# Mechanical properties :
#
#
# Convention : Reuss Voigt Hill
#
# Bulk Modulus (GPa) = 26.81196 54.36649 40.58923
# Shear Modulus (GPa) = 21.23436 30.45674 25.84555
#
# Velocity S-wave (km/s) = 3.05242 3.65567 3.36758
# Velocity P-wave (km/s) = 4.91809 6.45551 5.73852
#
# Compressibility (1/GPa) = 0.03729679
#
# Stress axis : x y z
#
# Youngs Moduli (GPa) = 42.56063 101.46511 97.72464
#
# Poissons Ratio (x) = 0.29203 -0.07582
# Poissons Ratio (y) = 0.12249 0.10178
# Poissons Ratio (z) = -0.03302 0.10568
#
# Static dielectric constant tensor:
#      x y z
#    x 2.070190 0.000000 0.025530 
#    y 0.000000 1.957210 0.000000 
#    z 0.025530 0.000000 2.001260 
# 
# From -- ./inp_files/186070.got.cif
#   From: 2010.05.17/outbox.cif.g08.bks.cpg/sg15_94_cif.got.tgz:186070.got - 2010.06.03 18:47:42.
