data_PCOD9284525
_publ_section_title
;
Structure prediction by ZEFSAII (Michael W. Deem and Ramdas Pophale) SiO2 
 PCOD9284525
Probable space group: C 2/C
;
_chemical_formula_sum "Si O2"
_cell_formula_units_Z 52
_cell_length_a 26.422645
_cell_length_b 13.182996
_cell_length_c 8.037778
_cell_angle_alpha 90.000000
_cell_angle_beta 121.107989
_cell_angle_gamma 90.000000
_cell_volume 2397.171644
_symmetry_space_group_name_H-M "C 2/C"
_symmetry_group_IT_number 15
_symmetry_cell_setting 'monoclinic'
loop_
_space_group_symop_operation_xyz
x,y,z
-x,y,1/2-z
-x,-y,-z
x,-y,1/2+z
1/2+x,1/2+y,z
1/2-x,1/2+y,1/2-z
1/2-x,1/2-y,-z
1/2+x,1/2-y,1/2+z
loop_
_atom_site_type_symbol
_atom_site_label
_atom_site_fract_x
_atom_site_fract_y
_atom_site_fract_z
Si Si1 0.402056 0.644856 0.311433
Si Si2 0.000000 0.229210 0.250000
Si Si3 0.657815 0.801134 0.079711
Si Si4 0.224779 0.663154 0.230647
Si Si5 0.895647 0.245901 0.854280
Si Si6 0.635686 0.540302 0.577175
Si Si7 0.769302 0.473652 0.430279
O O1 0.463839 0.664198 0.325115
O O2 0.375142 0.752915 0.318761
O O3 0.395969 0.568131 0.455816
O O4 0.365319 0.583771 0.110251
O O5 0.049555 0.286428 0.443971
O O6 0.717212 0.732340 0.162994
O O7 0.682412 0.914614 0.101019
O O8 0.613822 0.783065 0.848579
O O9 0.165739 0.726023 0.159087
O O10 0.220311 0.594063 0.059172
O O11 0.228839 0.584243 0.391483
O O12 0.898358 0.124152 0.871045
O O13 0.703279 0.537020 0.748195
#
# Coordination Sequence:
#
# PCOD9284525 Si02
#       7
#     8   4   8   8   8   8   8
#     4  11  24  36  60  86 124 164 205 244 294 350
#     4  10  26  44  58  86 118 172 212 252 278 348
#     4  11  21  38  62  92 120 159 194 252 311 361
#     4  11  21  36  60  92 124 159 188 253 306 369
#     4  10  21  41  61  81 124 158 204 243 302 350
#     4  11  19  35  57  89 122 157 195 244 296 372
#     4  11  21  35  60  94 129 151 191 242 320 366
#
# _framework density 21.692229000000001
#
# number of rings (size 3 to 8) (size 9 to 14) (size 15 to 20)
#    0.000    1.231    4.615    2.769    0.000    6.154 
#    0.000    0.000    0.000    8.308    0.000    0.000 
#    0.000    0.000    0.000    0.000    0.000    0.000 
#
# Total GULP energy -145185.812406 kJ/mol
# GULP energy per Si atom -5584.069708 kJ/mol
# Density = 2.164286 g / cm^3
# Si number density = 21.692229 Si / 1000 Ang^3
#
#
#
# Elastic Constant Matrix: (Units=GPa)
#
#
# Indices 1 2 3 4 5 6 
#
# 1 92.8942 2.9199 44.0642 0.0000 12.9132 0.0000
# 2 2.9199 44.1229 16.2282 0.0000 10.1776 0.0000
# 3 44.0642 16.2282 91.4203 0.0000 11.4348 0.0000
# 4 0.0000 0.0000 0.0000 22.7076 0.0000 -7.3671
# 5 12.9132 10.1776 11.4348 0.0000 29.3693 0.0000
# 6 0.0000 0.0000 0.0000 -7.3671 0.0000 17.5220
#
#
#
# Elastic Compliance Matrix: (Units=1/GPa)
#
#
# Indices 1 2 3 4 5 6 
#
# 1 0.014617 0.002655 -0.006936 0.000000 -0.004647 0.000000
# 2 0.002655 0.026212 -0.004889 0.000000 -0.008348 0.000000
# 3 -0.006936 -0.004889 0.015301 0.000000 -0.001214 0.000000
# 4 0.000000 0.000000 0.000000 0.050994 0.000000 0.021440
# 5 -0.004647 -0.008348 -0.001214 0.000000 0.039458 0.000000
# 6 0.000000 0.000000 0.000000 0.021440 0.000000 0.066086
#
#
# Mechanical properties :
#
#
# Convention : Reuss Voigt Hill
#
# Bulk Modulus (GPa) = 26.46037 39.42912 32.94474
# Shear Modulus (GPa) = 20.52522 24.93481 22.73001
#
# Velocity S-wave (km/s) = 3.07938 3.39408 3.24055
# Velocity P-wave (km/s) = 4.98678 5.79446 5.40573
#
# Compressibility (1/GPa) = 0.03779236
#
# Stress axis : x y z
#
# Youngs Moduli (GPa) = 68.41195 38.15075 65.35495
#
# Poissons Ratio (x) = -0.10131 0.45328
# Poissons Ratio (y) = -0.18166 0.31950
# Poissons Ratio (z) = 0.47448 0.18651
#
# Static dielectric constant tensor:
#      x y z
#    x 1.816130 0.000000 -0.068700 
#    y 0.000000 1.837660 0.000000 
#    z -0.068700 0.000000 1.868470 
# 
# From -- ./inp_files/55375.got.cif
#   From: 2010.05.17/outbox.cif.g08.bks.cpg/sg15_28_cif.got.tgz:55375.got - 2010.06.03 18:47:42.
