data_PCOD9284273
_publ_section_title
;
Structure prediction by ZEFSAII (Michael W. Deem and Ramdas Pophale) SiO2 
 PCOD9284273
Probable space group: C 2/C
;
_chemical_formula_sum "Si O2"
_cell_formula_units_Z 56
_cell_length_a 9.799787
_cell_length_b 14.989498
_cell_length_c 22.005417
_cell_angle_alpha 90.000000
_cell_angle_beta 119.829697
_cell_angle_gamma 90.000000
_cell_volume 2804.185188
_symmetry_space_group_name_H-M "C 2/C"
_symmetry_group_IT_number 15
_symmetry_cell_setting 'monoclinic'
loop_
_space_group_symop_operation_xyz
x,y,z
-x,y,1/2-z
-x,-y,-z
x,-y,1/2+z
1/2+x,1/2+y,z
1/2-x,1/2+y,1/2-z
1/2-x,1/2-y,-z
1/2+x,1/2-y,1/2+z
loop_
_atom_site_type_symbol
_atom_site_label
_atom_site_fract_x
_atom_site_fract_y
_atom_site_fract_z
Si Si1 0.182456 0.205126 0.271930
Si Si2 0.832445 0.134535 0.872679
Si Si3 0.696311 0.976997 0.918525
Si Si4 0.898886 0.997749 0.084359
Si Si5 0.635062 0.336953 0.624580
Si Si6 0.591094 0.232112 0.002878
Si Si7 0.133281 0.570606 0.099775
O O1 0.241465 0.301714 0.306706
O O2 0.198618 0.190528 0.203950
O O3 0.282999 0.132697 0.331530
O O4 0.000000 0.195107 0.250000
O O5 0.904714 0.197520 0.941009
O O6 0.721020 0.062823 0.881389
O O7 0.973303 0.078025 0.875055
O O8 0.739881 0.889518 0.888985
O O9 0.524093 0.970533 0.908241
O O10 0.822231 0.983748 0.001128
O O11 0.760963 0.001987 0.102664
O O12 0.993134 0.091492 0.103781
O O13 0.556767 0.254676 0.571871
O O14 0.592798 0.135166 0.033640
O O15 0.750000 0.250000 0.000000
#
# Coordination Sequence:
#
# PCOD9284273 Si02
#       7
#     8   8   8   8   8   8   8
#     4  11  23  44  66  90 127 186 225 261 327 410
#     4  10  21  40  68  94 123 164 229 265 322 394
#     4  11  22  40  69 103 130 163 217 288 337 376
#     4  11  19  41  69 100 126 170 215 278 331 387
#     4  11  20  39  71  90 134 176 220 265 329 388
#     4  11  18  37  67  97 119 171 225 262 309 395
#     4  11  24  38  70  97 135 170 219 270 335 391
#
# _framework density 19.970151000000001
#
# number of rings (size 3 to 8) (size 9 to 14) (size 15 to 20)
#    0.000    1.143    5.714    2.143    0.000    1.143 
#    5.143    0.000    6.286    0.000    0.000    0.000 
#    0.000    0.000    0.000    0.000    0.000    0.000 
#
# Total GULP energy -156628.522226 kJ/mol
# GULP energy per Si atom -5593.875794 kJ/mol
# Density = 1.992470 g / cm^3
# Si number density = 19.970151 Si / 1000 Ang^3
#
#
#
# Elastic Constant Matrix: (Units=GPa)
#
#
# Indices 1 2 3 4 5 6 
#
# 1 136.0222 37.2726 25.9950 0.0000 -4.7456 0.0000
# 2 37.2726 62.1092 39.7744 0.0000 0.6222 0.0000
# 3 25.9950 39.7744 125.3782 0.0000 -10.2370 0.0000
# 4 0.0000 0.0000 0.0000 36.6153 0.0000 1.1294
# 5 -4.7456 0.6222 -10.2370 0.0000 23.6975 0.0000
# 6 0.0000 0.0000 0.0000 1.1294 0.0000 18.8672
#
#
#
# Elastic Compliance Matrix: (Units=1/GPa)
#
#
# Indices 1 2 3 4 5 6 
#
# 1 0.008885 -0.005362 0.000016 0.000000 0.001927 0.000000
# 2 -0.005362 0.023712 -0.006789 0.000000 -0.004629 0.000000
# 3 0.000016 -0.006789 0.010512 0.000000 0.004722 0.000000
# 4 0.000000 0.000000 0.000000 0.027361 0.000000 -0.001638
# 5 0.001927 -0.004629 0.004722 0.000000 0.044746 0.000000
# 6 0.000000 0.000000 0.000000 -0.001638 0.000000 0.053100
#
#
# Mechanical properties :
#
#
# Convention : Reuss Voigt Hill
#
# Bulk Modulus (GPa) = 53.07726 58.84374 55.96050
# Shear Modulus (GPa) = 25.14271 30.53385 27.83828
#
# Velocity S-wave (km/s) = 3.55211 3.91445 3.73767
# Velocity P-wave (km/s) = 6.59237 7.06827 6.83446
#
# Compressibility (1/GPa) = 0.01884046
#
# Stress axis : x y z
#
# Youngs Moduli (GPa) = 112.54798 42.17270 95.13224
#
# Poissons Ratio (x) = 0.22612 -0.00153
# Poissons Ratio (y) = 0.60345 0.64581
# Poissons Ratio (z) = -0.00181 0.28629
#
# Static dielectric constant tensor:
#      x y z
#    x 1.698550 0.000000 -0.002840 
#    y 0.000000 1.706690 0.000000 
#    z -0.002840 0.000000 1.686120 
# 
# From -- ./inp_files/232789.got.cif
#   From: 2010.05.17/outbox.cif.g08.bks.cpg/sg15_117_cif.got.tgz:232789.got - 2010.06.03 18:47:42.
