data_PCOD9284897
_publ_section_title
;
Structure prediction by ZEFSAII (Michael W. Deem and Ramdas Pophale) SiO2 
 PCOD9284897
Probable space group: C 2/C
;
_chemical_formula_sum "Si O2"
_cell_formula_units_Z 52
_cell_length_a 20.349320
_cell_length_b 5.366687
_cell_length_c 18.945287
_cell_angle_alpha 90.000000
_cell_angle_beta 113.268914
_cell_angle_gamma 90.000000
_cell_volume 1900.695584
_symmetry_space_group_name_H-M "C 2/C"
_symmetry_group_IT_number 15
_symmetry_cell_setting 'monoclinic'
loop_
_space_group_symop_operation_xyz
x,y,z
-x,y,1/2-z
-x,-y,-z
x,-y,1/2+z
1/2+x,1/2+y,z
1/2-x,1/2+y,1/2-z
1/2-x,1/2-y,-z
1/2+x,1/2-y,1/2+z
loop_
_atom_site_type_symbol
_atom_site_label
_atom_site_fract_x
_atom_site_fract_y
_atom_site_fract_z
Si Si1 0.712554 0.279346 0.593066
Si Si2 0.108216 0.948234 0.241776
Si Si3 0.637040 0.960808 0.174070
Si Si4 0.500000 0.000000 0.500000
Si Si5 0.946288 0.212329 0.643301
Si Si6 0.898148 0.074469 0.003343
Si Si7 0.167588 0.454387 0.434662
O O1 0.706843 0.089847 0.654681
O O2 0.646503 0.469371 0.579623
O O3 0.778458 0.454884 0.602199
O O4 0.690245 0.125475 0.512601
O O5 0.147608 0.714508 0.222547
O O6 0.106908 0.936473 0.326700
O O7 0.025927 0.861307 0.193458
O O8 0.124846 0.220835 0.219512
O O9 0.567971 0.981543 0.092249
O O10 0.456660 0.223372 0.516456
O O11 0.911701 0.484888 0.630266
O O12 0.938797 0.154044 0.556924
O O13 0.839061 0.186235 0.032276
#
# Coordination Sequence:
#
# PCOD9284897 Si02
#       7
#     8   8   8   4   8   8   8
#     4  10  23  39  62  97 134 170 228 274 347 397
#     4  11  26  43  68  98 136 177 227 281 341 405
#     4  12  25  42  65  99 138 176 220 284 343 409
#     4  12  22  38  68 100 144 168 220 278 368 404
#     4  10  24  42  66  95 130 178 231 276 337 409
#     4  11  21  39  67 100 135 180 221 288 338 418
#     4  10  21  41  65  93 128 181 222 279 332 411
#
# _framework density 27.358408000000001
#
# number of rings (size 3 to 8) (size 9 to 14) (size 15 to 20)
#    0.000    1.231    3.077    2.308    4.308    2.462 
#    0.000    1.538    0.000    0.000    0.000    0.000 
#    0.000    0.000    0.000    0.000    0.000    0.000 
#
# Total GULP energy -144860.832029 kJ/mol
# GULP energy per Si atom -5571.570463 kJ/mol
# Density = 2.729614 g / cm^3
# Si number density = 27.358408 Si / 1000 Ang^3
#
#
#
# Elastic Constant Matrix: (Units=GPa)
#
#
# Indices 1 2 3 4 5 6 
#
# 1 83.9349 16.1009 7.1256 0.0000 -9.8978 0.0000
# 2 16.1009 94.9708 10.7828 0.0002 5.6306 -0.0001
# 3 7.1256 10.7828 76.1318 0.0000 -9.1757 0.0000
# 4 0.0000 0.0002 0.0000 37.6529 0.0000 1.6139
# 5 -9.8978 5.6306 -9.1757 0.0000 40.9983 0.0000
# 6 0.0000 -0.0001 0.0000 1.6139 0.0000 28.5802
#
#
#
# Elastic Compliance Matrix: (Units=1/GPa)
#
#
# Indices 1 2 3 4 5 6 
#
# 1 0.012786 -0.002310 -0.000472 0.000000 0.003298 0.000000
# 2 -0.002310 0.011259 -0.001677 0.000000 -0.002479 0.000000
# 3 -0.000472 -0.001677 0.013803 0.000000 0.003206 0.000000
# 4 0.000000 0.000000 0.000000 0.026623 0.000000 -0.001503
# 5 0.003298 -0.002479 0.003206 0.000000 0.026245 0.000000
# 6 0.000000 0.000000 0.000000 -0.001503 0.000000 0.035074
#
#
# Mechanical properties :
#
#
# Convention : Reuss Voigt Hill
#
# Bulk Modulus (GPa) = 34.56624 35.89512 35.23068
# Shear Modulus (GPa) = 34.63770 36.18151 35.40960
#
# Velocity S-wave (km/s) = 3.56205 3.64057 3.60152
# Velocity P-wave (km/s) = 5.43872 5.55161 5.49545
#
# Compressibility (1/GPa) = 0.02892997
#
# Stress axis : x y z
#
# Youngs Moduli (GPa) = 78.21010 88.82147 72.44688
#
# Poissons Ratio (x) = 0.20515 0.03420
# Poissons Ratio (y) = 0.18064 0.12151
# Poissons Ratio (z) = 0.03692 0.14897
#
# Static dielectric constant tensor:
#      x y z
#    x 1.669930 0.000000 0.609450 
#    y 0.000000 1.942700 0.000000 
#    z 0.609450 0.000000 1.630630 
# 
# From -- ./inp_files/251089.got.cif
#   From: 2010.05.17/outbox.cif.g08.bks.cpg/sg15_126_cif.got.tgz:251089.got - 2010.06.03 18:47:42.
