data_PCOD9284688
_publ_section_title
;
Structure prediction by ZEFSAII (Michael W. Deem and Ramdas Pophale) SiO2 
 PCOD9284688
Probable space group: C 2/C
;
_chemical_formula_sum "Si O2"
_cell_formula_units_Z 60
_cell_length_a 23.235927
_cell_length_b 7.429486
_cell_length_c 16.064576
_cell_angle_alpha 90.000000
_cell_angle_beta 116.340134
_cell_angle_gamma 90.000000
_cell_volume 2485.314062
_symmetry_space_group_name_H-M "C 2/C"
_symmetry_group_IT_number 15
_symmetry_cell_setting 'monoclinic'
loop_
_space_group_symop_operation_xyz
x,y,z
-x,y,1/2-z
-x,-y,-z
x,-y,1/2+z
1/2+x,1/2+y,z
1/2-x,1/2+y,1/2-z
1/2-x,1/2-y,-z
1/2+x,1/2-y,1/2+z
loop_
_atom_site_type_symbol
_atom_site_label
_atom_site_fract_x
_atom_site_fract_y
_atom_site_fract_z
Si Si1 0.080705 0.166945 0.598430
Si Si2 0.975133 0.771377 0.911326
Si Si3 0.500000 0.591309 0.250000
Si Si4 0.271856 0.497349 0.672819
Si Si5 0.807674 0.825566 0.460711
Si Si6 0.828088 0.552346 0.611758
Si Si7 0.112292 0.798882 0.309132
Si Si8 0.338358 0.802543 0.302673
O O1 0.138790 0.127811 0.571845
O O2 0.099145 0.242398 0.701668
O O3 0.030536 0.280703 0.510672
O O4 0.043549 0.982007 0.591578
O O5 0.907809 0.675338 0.886465
O O6 0.992880 0.777231 0.824996
O O7 0.559507 0.449206 0.300017
O O8 0.232495 0.338111 0.605882
O O9 0.318405 0.607441 0.644228
O O10 0.319659 0.402021 0.768753
O O11 0.219912 0.621044 0.682684
O O12 0.839383 0.726001 0.560422
O O13 0.750548 0.969011 0.442270
O O14 0.874748 0.381164 0.628354
O O15 0.840742 0.603526 0.714909
#
# Coordination Sequence:
#
# PCOD9284688 Si02
#       8
#     8   8   4   8   8   8   8   8
#     4  10  21  41  63  91 128 164 223 261 323 386
#     4  10  23  39  66  95 123 184 216 267 320 403
#     4  10  22  42  64  94 138 172 232 260 338 394
#     4  11  22  37  67  95 125 163 225 270 335 387
#     4  10  23  41  63  97 129 166 212 284 328 400
#     4  10  23  40  63  94 130 164 213 271 339 378
#     4  11  22  44  66  94 127 179 213 274 329 399
#     4  11  21  40  66  97 123 174 218 273 333 394
#
# _framework density 24.141818000000001
#
# number of rings (size 3 to 8) (size 9 to 14) (size 15 to 20)
#    0.000    1.600    2.667    3.200    3.733    1.600 
#    9.600    1.333    0.000    0.000    0.000    0.000 
#    0.000    0.000    0.000    0.000    0.000    0.000 
#
# Total GULP energy -167509.508470 kJ/mol
# GULP energy per Si atom -5583.650282 kJ/mol
# Density = 2.408687 g / cm^3
# Si number density = 24.141818 Si / 1000 Ang^3
#
#
#
# Elastic Constant Matrix: (Units=GPa)
#
#
# Indices 1 2 3 4 5 6 
#
# 1 67.3208 -9.5528 17.0744 0.0000 0.6960 0.0000
# 2 -9.5528 46.0795 11.9735 0.0000 5.6449 0.0000
# 3 17.0744 11.9735 76.5638 0.0000 24.6515 0.0000
# 4 0.0000 0.0000 0.0000 49.9879 0.0000 2.5186
# 5 0.6960 5.6449 24.6515 0.0000 24.4468 0.0000
# 6 0.0000 0.0000 0.0000 2.5186 0.0000 11.0388
#
#
#
# Elastic Compliance Matrix: (Units=1/GPa)
#
#
# Indices 1 2 3 4 5 6 
#
# 1 0.016948 0.004506 -0.005914 0.000000 0.004440 0.000000
# 2 0.004506 0.023919 -0.004333 0.000000 -0.001282 0.000000
# 3 -0.005914 -0.004333 0.021739 0.000000 -0.020752 0.000000
# 4 0.000000 0.000000 0.000000 0.020237 0.000000 -0.004617
# 5 0.004440 -0.001282 -0.020752 0.000000 0.062001 0.000000
# 6 0.000000 0.000000 0.000000 -0.004617 0.000000 0.091643
#
#
# Mechanical properties :
#
#
# Convention : Reuss Voigt Hill
#
# Bulk Modulus (GPa) = 19.55990 25.43935 22.49963
# Shear Modulus (GPa) = 18.86726 28.45931 23.66329
#
# Velocity S-wave (km/s) = 2.79860 3.43715 3.13418
# Velocity P-wave (km/s) = 4.30843 5.12955 4.73682
#
# Compressibility (1/GPa) = 0.05112501
#
# Stress axis : x y z
#
# Youngs Moduli (GPa) = 59.00510 41.80826 46.00002
#
# Poissons Ratio (x) = -0.18840 0.27204
# Poissons Ratio (y) = -0.26589 0.19930
# Poissons Ratio (z) = 0.34895 0.18114
#
# Static dielectric constant tensor:
#      x y z
#    x 1.960500 0.000000 -0.008240 
#    y 0.000000 1.975380 0.000000 
#    z -0.008240 0.000000 2.030820 
# 
# From -- ./inp_files/218622.got.cif
#   From: 2010.05.17/outbox.cif.g08.bks.cpg/sg15_110_cif.got.tgz:218622.got - 2010.06.03 18:47:42.
