data_PCOD9284192
_publ_section_title
;
Structure prediction by ZEFSAII (Michael W. Deem and Ramdas Pophale) SiO2 
 PCOD9284192
Probable space group: C 2/C
;
_chemical_formula_sum "Si O2"
_cell_formula_units_Z 60
_cell_length_a 13.253555
_cell_length_b 13.410324
_cell_length_c 15.852744
_cell_angle_alpha 90.000000
_cell_angle_beta 113.315191
_cell_angle_gamma 90.000000
_cell_volume 2587.499661
_symmetry_space_group_name_H-M "C 2/C"
_symmetry_group_IT_number 15
_symmetry_cell_setting 'monoclinic'
loop_
_space_group_symop_operation_xyz
x,y,z
-x,y,1/2-z
-x,-y,-z
x,-y,1/2+z
1/2+x,1/2+y,z
1/2-x,1/2+y,1/2-z
1/2-x,1/2-y,-z
1/2+x,1/2-y,1/2+z
loop_
_atom_site_type_symbol
_atom_site_label
_atom_site_fract_x
_atom_site_fract_y
_atom_site_fract_z
Si Si1 0.176550 0.055029 0.238549
Si Si2 0.726927 0.798460 0.081803
Si Si3 0.388268 0.804645 0.759432
Si Si4 0.000000 0.379691 0.250000
Si Si5 0.471670 0.285546 0.881918
Si Si6 0.239620 0.524886 0.055662
Si Si7 0.263233 0.081055 0.631494
Si Si8 0.140992 0.733035 0.067070
O O1 0.287729 0.118627 0.249545
O O2 0.070034 0.116519 0.177733
O O3 0.177077 0.039865 0.338886
O O4 0.190999 0.958119 0.185161
O O5 0.828362 0.776090 0.179004
O O6 0.623695 0.741930 0.085102
O O7 0.696626 0.914304 0.060503
O O8 0.750000 0.750000 0.000000
O O9 0.500000 0.838980 0.750000
O O10 0.420298 0.767357 0.863719
O O11 0.022710 0.306716 0.179683
O O12 0.109506 0.440041 0.307334
O O13 0.580576 0.291353 0.972702
O O14 0.160062 0.620417 0.042405
O O15 0.270800 0.529689 0.967599
O O16 0.249931 0.201015 0.619521
#
# Coordination Sequence:
#
# PCOD9284192 Si02
#       8
#     8   8   8   4   8   8   8   8
#     4  10  24  43  67 101 140 178 229 288 346 423
#     4  11  23  44  68  97 140 180 228 290 350 417
#     4  10  21  40  67  95 133 180 225 282 347 414
#     4  12  24  42  70  96 140 176 230 292 350 410
#     4  11  24  43  68 100 136 179 225 286 348 417
#     4  11  22  42  69  95 131 180 224 281 343 412
#     4  12  25  44  66  99 137 178 229 292 343 410
#     4  11  24  42  68  98 137 177 234 282 342 416
#
# _framework density 23.188409
#
# number of rings (size 3 to 8) (size 9 to 14) (size 15 to 20)
#    0.000    1.067    1.333    6.800    2.800    1.067 
#    2.400    1.333    2.933    0.000    0.000    0.000 
#    0.000    0.000    0.000    0.000    0.000    0.000 
#
# Total GULP energy -167664.724059 kJ/mol
# GULP energy per Si atom -5588.824135 kJ/mol
# Density = 2.313563 g / cm^3
# Si number density = 23.188409 Si / 1000 Ang^3
#
#
#
# Elastic Constant Matrix: (Units=GPa)
#
#
# Indices 1 2 3 4 5 6 
#
# 1 48.2257 2.5913 25.3394 0.0000 -6.8251 0.0000
# 2 2.5913 71.1596 27.7468 0.0000 14.8752 0.0000
# 3 25.3394 27.7468 161.5067 0.0000 -12.3608 0.0000
# 4 0.0000 0.0000 0.0000 19.7729 0.0000 1.7279
# 5 -6.8251 14.8752 -12.3608 0.0000 37.1365 0.0000
# 6 0.0000 0.0000 0.0000 1.7279 0.0000 19.6309
#
#
#
# Elastic Compliance Matrix: (Units=1/GPa)
#
#
# Indices 1 2 3 4 5 6 
#
# 1 0.022943 -0.000209 -0.003319 0.000000 0.003196 0.000000
# 2 -0.000209 0.017123 -0.003527 0.000000 -0.008071 0.000000
# 3 -0.003319 -0.003527 0.007573 0.000000 0.003323 0.000000
# 4 0.000000 0.000000 0.000000 0.050966 0.000000 -0.004486
# 5 0.003196 -0.008071 0.003323 0.000000 0.031854 0.000000
# 6 0.000000 0.000000 0.000000 -0.004486 0.000000 0.051335
#
#
# Mechanical properties :
#
#
# Convention : Reuss Voigt Hill
#
# Bulk Modulus (GPa) = 29.82517 43.58300 36.70409
# Shear Modulus (GPa) = 24.14522 30.32234 27.23378
#
# Velocity S-wave (km/s) = 3.23036 3.62007 3.43075
# Velocity P-wave (km/s) = 5.17723 6.02571 5.61751
#
# Compressibility (1/GPa) = 0.03352873
#
# Stress axis : x y z
#
# Youngs Moduli (GPa) = 43.58568 58.40189 132.05456
#
# Poissons Ratio (x) = 0.01222 0.43830
# Poissons Ratio (y) = 0.00912 0.46569
# Poissons Ratio (z) = 0.14467 0.20596
#
# Static dielectric constant tensor:
#      x y z
#    x 1.853310 0.000000 0.053510 
#    y 0.000000 1.869730 0.000000 
#    z 0.053510 0.000000 1.949730 
# 
# From -- ./inp_files/154291.got.cif
#   From: 2010.05.17/outbox.cif.g08.bks.cpg/sg15_78_cif.got.tgz:154291.got - 2010.06.03 18:47:42.
