data_PCOD9284123
_publ_section_title
;
Structure prediction by ZEFSAII (Michael W. Deem and Ramdas Pophale) SiO2 
 PCOD9284123
Probable space group: C 2/C
;
_chemical_formula_sum "Si O2"
_cell_formula_units_Z 48
_cell_length_a 26.470261
_cell_length_b 10.611668
_cell_length_c 22.024265
_cell_angle_alpha 90.000000
_cell_angle_beta 19.284750
_cell_angle_gamma 90.000000
_cell_volume 2043.165069
_symmetry_space_group_name_H-M "C 2/C"
_symmetry_group_IT_number 15
_symmetry_cell_setting 'monoclinic'
loop_
_space_group_symop_operation_xyz
x,y,z
-x,y,1/2-z
-x,-y,-z
x,-y,1/2+z
1/2+x,1/2+y,z
1/2-x,1/2+y,1/2-z
1/2-x,1/2-y,-z
1/2+x,1/2-y,1/2+z
loop_
_atom_site_type_symbol
_atom_site_label
_atom_site_fract_x
_atom_site_fract_y
_atom_site_fract_z
Si Si1 0.934611 0.495838 0.757111
Si Si2 0.668140 0.235450 0.707683
Si Si3 0.528981 0.350548 0.461257
Si Si4 0.017243 0.874606 0.661197
Si Si5 0.143359 0.140381 0.553855
Si Si6 0.360397 0.195649 0.551021
O O1 0.885658 0.619677 0.774312
O O2 0.000000 0.520589 0.750000
O O3 0.047151 0.419839 0.583802
O O4 0.780263 0.411885 0.938971
O O5 0.562252 0.269504 0.884661
O O6 0.842409 0.204586 0.526079
O O7 0.639523 0.354935 0.696459
O O8 0.500000 0.500000 0.500000
O O9 0.465618 0.289621 0.470853
O O10 0.711806 0.339213 0.258283
O O11 0.000000 0.832123 0.750000
O O12 0.068432 0.018317 0.606736
O O13 0.204254 0.229670 0.433390
O O14 0.000000 0.202969 0.750000
#
# Coordination Sequence:
#
# PCOD9284123 Si02
#       6
#     8   8   8   8   8   8
#     4  11  26  45  73 108 144 189 235 304 368 434
#     4  11  24  44  67 102 143 185 239 290 359 429
#     4  12  29  48  74 104 147 200 249 303 360 436
#     4  10  21  40  67 100 137 183 230 294 359 422
#     4  10  23  44  69 103 144 183 234 304 360 431
#     4  12  26  47  72 105 145 194 249 295 369 434
#
# _framework density 23.492961000000001
#
# number of rings (size 3 to 8) (size 9 to 14) (size 15 to 20)
#    0.000    1.000    1.667    3.500    7.000    6.000 
#    0.000    0.000    0.000    0.000    0.000    0.000 
#    0.000    0.000    0.000    0.000    0.000    0.000 
#
# Total GULP energy -134238.400701 kJ/mol
# GULP energy per Si atom -5593.266696 kJ/mol
# Density = 2.343949 g / cm^3
# Si number density = 23.492961 Si / 1000 Ang^3
#
#
#
# Elastic Constant Matrix: (Units=GPa)
#
#
# Indices 1 2 3 4 5 6 
#
# 1 87.9206 22.0270 19.1960 0.0004 4.7247 0.0000
# 2 22.0270 74.0671 34.2582 0.0002 -9.6235 0.0000
# 3 19.1960 34.2582 143.5170 0.0011 10.0021 -0.0003
# 4 0.0004 0.0002 0.0011 33.4000 -0.0005 1.7496
# 5 4.7247 -9.6235 10.0021 -0.0005 35.2212 0.0001
# 6 0.0000 0.0000 -0.0003 1.7496 0.0001 35.5977
#
#
#
# Elastic Compliance Matrix: (Units=1/GPa)
#
#
# Indices 1 2 3 4 5 6 
#
# 1 0.012594 -0.003801 -0.000599 0.000000 -0.002558 0.000000
# 2 -0.003801 0.017352 -0.004080 0.000000 0.006410 0.000000
# 3 -0.000599 -0.004080 0.008257 0.000000 -0.003379 0.000000
# 4 0.000000 0.000000 0.000000 0.030017 0.000001 -0.001475
# 5 -0.002558 0.006410 -0.003379 0.000001 0.031446 0.000000
# 6 0.000000 0.000000 0.000000 -0.001475 0.000000 0.028164
#
#
# Mechanical properties :
#
#
# Convention : Reuss Voigt Hill
#
# Bulk Modulus (GPa) = 47.07352 50.71856 48.89604
# Shear Modulus (GPa) = 32.92241 36.17867 34.55054
#
# Velocity S-wave (km/s) = 3.74755 3.92851 3.83910
# Velocity P-wave (km/s) = 6.22947 6.49718 6.36473
#
# Compressibility (1/GPa) = 0.02124337
#
# Stress axis : x y z
#
# Youngs Moduli (GPa) = 79.40062 57.63152 121.10300
#
# Poissons Ratio (x) = 0.21904 0.07254
# Poissons Ratio (y) = 0.30178 0.49413
# Poissons Ratio (z) = 0.04756 0.23515
#
# Static dielectric constant tensor:
#      x y z
#    x 1.900950 0.000000 0.030820 
#    y 0.000000 1.890500 0.000000 
#    z 0.030820 0.000000 1.906140 
# 
# From -- ./inp_files/257584.got.cif
#   From: 2010.05.17/outbox.cif.g08.bks.cpg/sg15_129_cif.got.tgz:257584.got - 2010.06.03 18:47:42.
