data_PCOD9284683
_publ_section_title
;
Structure prediction by ZEFSAII (Michael W. Deem and Ramdas Pophale) SiO2 
 PCOD9284683
Probable space group: C 2/C
;
_chemical_formula_sum "Si O2"
_cell_formula_units_Z 60
_cell_length_a 10.261171
_cell_length_b 19.558145
_cell_length_c 28.916928
_cell_angle_alpha 90.000000
_cell_angle_beta 151.783558
_cell_angle_gamma 90.000000
_cell_volume 2743.832281
_symmetry_space_group_name_H-M "C 2/C"
_symmetry_group_IT_number 15
_symmetry_cell_setting 'monoclinic'
loop_
_space_group_symop_operation_xyz
x,y,z
-x,y,1/2-z
-x,-y,-z
x,-y,1/2+z
1/2+x,1/2+y,z
1/2-x,1/2+y,1/2-z
1/2-x,1/2-y,-z
1/2+x,1/2-y,1/2+z
loop_
_atom_site_type_symbol
_atom_site_label
_atom_site_fract_x
_atom_site_fract_y
_atom_site_fract_z
Si Si1 0.179775 0.765855 0.531469
Si Si2 0.972652 0.273329 0.187121
Si Si3 0.000000 0.494049 0.750000
Si Si4 0.006901 0.608851 0.628592
Si Si5 0.846880 0.631480 0.928259
Si Si6 0.488957 0.363663 0.646197
Si Si7 0.632660 0.384073 0.586444
Si Si8 0.391418 0.480239 0.298489
O O1 0.250000 0.750000 0.500000
O O2 0.283972 0.699516 0.591531
O O3 0.847970 0.769284 0.427623
O O4 0.250024 0.833641 0.583609
O O5 0.078398 0.336705 0.190493
O O6 0.088293 0.199693 0.207840
O O7 0.000000 0.283045 0.250000
O O8 0.164080 0.446369 0.837908
O O9 0.228684 0.536948 0.794969
O O10 0.679340 0.594133 0.525136
O O11 0.104957 0.639657 0.611041
O O12 0.189321 0.542430 0.694527
O O13 0.668841 0.563904 0.882259
O O14 0.157474 0.628713 0.044653
O O15 0.583578 0.350909 0.622409
O O16 0.580720 0.438523 0.690654
#
# Coordination Sequence:
#
# PCOD9284683 Si02
#       8
#     8   8   4   8   8   8   8   8
#     4  10  22  38  61  93 127 161 210 265 315 372
#     4  10  22  38  62  92 125 168 203 263 324 368
#     4  10  24  42  64  90 126 172 210 266 310 388
#     4  10  22  39  65  91 127 164 211 266 321 375
#     4  10  21  41  63  91 124 166 214 264 318 376
#     4   9  20  42  66  89 126 170 216 263 312 381
#     4   9  20  43  64  90 124 167 216 257 319 377
#     4  11  23  38  61  95 126 165 211 258 319 377
#
# _framework density 21.867225000000001
#
# number of rings (size 3 to 8) (size 9 to 14) (size 15 to 20)
#    0.000    2.133    0.000    1.600    2.800    8.000 
#    2.400    8.000    0.000    0.000    0.000    0.000 
#    0.000    0.000    0.000    0.000    0.000    0.000 
#
# Total GULP energy -167447.418124 kJ/mol
# GULP energy per Si atom -5581.580604 kJ/mol
# Density = 2.181745 g / cm^3
# Si number density = 21.867225 Si / 1000 Ang^3
#
#
#
# Elastic Constant Matrix: (Units=GPa)
#
#
# Indices 1 2 3 4 5 6 
#
# 1 89.9052 39.5591 31.6587 0.0015 -1.8942 -0.0005
# 2 39.5591 95.3945 46.7722 0.0002 -17.5766 0.0005
# 3 31.6587 46.7722 89.6151 0.0014 -9.4225 0.0019
# 4 0.0015 0.0002 0.0014 17.8412 0.0001 -6.2888
# 5 -1.8942 -17.5766 -9.4225 0.0001 32.1449 0.0010
# 6 -0.0005 0.0005 0.0019 -6.2888 0.0010 22.8013
#
#
#
# Elastic Compliance Matrix: (Units=1/GPa)
#
#
# Indices 1 2 3 4 5 6 
#
# 1 0.014249 -0.005111 -0.002653 -0.000001 -0.002733 0.000001
# 2 -0.005111 0.017022 -0.006327 0.000001 0.007152 0.000000
# 3 -0.002653 -0.006327 0.015496 -0.000002 0.000926 -0.000002
# 4 -0.000001 0.000001 -0.000002 0.062086 -0.000001 0.017124
# 5 -0.002733 0.007152 0.000926 -0.000001 0.035130 -0.000002
# 6 0.000001 0.000000 -0.000002 0.017124 -0.000002 0.048580
#
#
# Mechanical properties :
#
#
# Convention : Reuss Voigt Hill
#
# Bulk Modulus (GPa) = 53.81012 56.76608 55.28810
# Shear Modulus (GPa) = 22.03233 25.01914 23.52574
#
# Velocity S-wave (km/s) = 3.17764 3.38618 3.28357
# Velocity P-wave (km/s) = 6.17448 6.42683 6.30192
#
# Compressibility (1/GPa) = 0.01858386
#
# Stress axis : x y z
#
# Youngs Moduli (GPa) = 70.18228 58.74725 64.53471
#
# Poissons Ratio (x) = 0.30028 0.17123
# Poissons Ratio (y) = 0.35873 0.40828
# Poissons Ratio (z) = 0.18621 0.37167
#
# Static dielectric constant tensor:
#      x y z
#    x 1.879250 0.000000 0.014140 
#    y 0.000000 1.808580 0.000000 
#    z 0.014140 0.000000 1.806210 
# 
# From -- ./inp_files/266266.got.cif
#   From: 2010.05.17/outbox.cif.g08.bks.cpg/sg15_134_cif.got.tgz:266266.got - 2010.06.03 18:47:42.
