data_PCOD9284711
_publ_section_title
;
Structure prediction by ZEFSAII (Michael W. Deem and Ramdas Pophale) SiO2 
 PCOD9284711
Probable space group: C 2/C
;
_chemical_formula_sum "Si O2"
_cell_formula_units_Z 40
_cell_length_a 23.972962
_cell_length_b 5.037068
_cell_length_c 14.599849
_cell_angle_alpha 90.000000
_cell_angle_beta 106.294505
_cell_angle_gamma 90.000000
_cell_volume 1692.166888
_symmetry_space_group_name_H-M "C 2/C"
_symmetry_group_IT_number 15
_symmetry_cell_setting 'monoclinic'
loop_
_space_group_symop_operation_xyz
x,y,z
-x,y,1/2-z
-x,-y,-z
x,-y,1/2+z
1/2+x,1/2+y,z
1/2-x,1/2+y,1/2-z
1/2-x,1/2-y,-z
1/2+x,1/2-y,1/2+z
loop_
_atom_site_type_symbol
_atom_site_label
_atom_site_fract_x
_atom_site_fract_y
_atom_site_fract_z
Si Si1 0.946691 0.696690 0.960881
Si Si2 0.517753 0.450791 0.851395
Si Si3 0.234287 0.023197 0.799441
Si Si4 0.327162 0.185031 0.987415
Si Si5 0.856251 0.200123 0.114443
O O1 0.881404 0.603777 0.946282
O O2 0.960775 0.817199 0.868563
O O3 0.000000 0.500000 0.000000
O O4 0.957630 0.889413 0.051676
O O5 0.500000 0.597966 0.750000
O O6 0.573827 0.273448 0.851573
O O7 0.233135 0.267426 0.728429
O O8 0.269949 0.133567 0.902865
O O9 0.172581 0.914351 0.806919
O O10 0.337128 0.483728 0.027990
O O11 0.330581 0.982785 0.073898
#
# Coordination Sequence:
#
# PCOD9284711 Si02
#       5
#     8   8   8   8   8
#     4  10  21  41  63  94 130 173 217 263 339 392
#     4  10  23  39  64  96 131 170 219 274 326 397
#     4  12  26  42  65 100 129 168 223 278 329 385
#     4  11  23  43  69  89 131 176 214 269 324 404
#     4  11  23  44  65  93 128 176 219 260 337 396
#
# _framework density 23.638332999999999
#
# number of rings (size 3 to 8) (size 9 to 14) (size 15 to 20)
#    0.000    1.200    2.000    3.600    2.800    2.400 
#    0.000    0.000    0.000    0.000    0.000    0.000 
#    0.000    0.000    0.000    0.000    0.000    0.000 
#
# Total GULP energy -111704.706512 kJ/mol
# GULP energy per Si atom -5585.235326 kJ/mol
# Density = 2.358453 g / cm^3
# Si number density = 23.638333 Si / 1000 Ang^3
#
#
#
# Elastic Constant Matrix: (Units=GPa)
#
#
# Indices 1 2 3 4 5 6 
#
# 1 123.8993 5.9410 19.8196 0.0000 -21.1811 0.0000
# 2 5.9410 68.5660 10.7300 0.0000 -8.3397 0.0000
# 3 19.8196 10.7300 95.1957 0.0000 -15.1367 0.0000
# 4 0.0000 0.0000 0.0000 23.2517 0.0000 -6.1358
# 5 -21.1811 -8.3397 -15.1367 0.0000 31.3365 0.0000
# 6 0.0000 0.0000 0.0000 -6.1358 0.0000 31.9684
#
#
#
# Elastic Compliance Matrix: (Units=1/GPa)
#
#
# Indices 1 2 3 4 5 6 
#
# 1 0.009214 0.000060 -0.001010 0.000000 0.005756 0.000000
# 2 0.000060 0.015190 -0.001165 0.000000 0.003520 0.000000
# 3 -0.001010 -0.001165 0.011578 0.000000 0.004600 0.000000
# 4 0.000000 0.000000 0.000000 0.045302 0.000000 0.008695
# 5 0.005756 0.003520 0.004600 0.000000 0.038961 0.000000
# 6 0.000000 0.000000 0.000000 0.008695 0.000000 0.032950
#
#
# Mechanical properties :
#
#
# Convention : Reuss Voigt Hill
#
# Bulk Modulus (GPa) = 31.49462 40.07136 35.78299
# Shear Modulus (GPa) = 29.76061 34.05603 31.90832
#
# Velocity S-wave (km/s) = 3.55209 3.79979 3.67802
# Velocity P-wave (km/s) = 5.49323 6.01995 5.76261
#
# Compressibility (1/GPa) = 0.03175146
#
# Stress axis : x y z
#
# Youngs Moduli (GPa) = 108.53361 65.83383 86.37355
#
# Poissons Ratio (x) = -0.00394 0.08722
# Poissons Ratio (y) = -0.00649 0.10061
# Poissons Ratio (z) = 0.10960 0.07668
#
# Static dielectric constant tensor:
#      x y z
#    x 3.872280 0.000000 -2.267710 
#    y 0.000000 1.974270 0.000000 
#    z -2.267710 0.000000 4.453870 
# 
# From -- ./inp_files/120717.got.cif
#   From: 2010.05.17/outbox.cif.g08.bks.cpg/sg15_61_cif.got.tgz:120717.got - 2010.06.03 18:47:42.
