data_PCOD9284520
_publ_section_title
;
Structure prediction by ZEFSAII (Michael W. Deem and Ramdas Pophale) SiO2 
 PCOD9284520
Probable space group: C 2/C
;
_chemical_formula_sum "Si O2"
_cell_formula_units_Z 48
_cell_length_a 16.209940
_cell_length_b 26.694052
_cell_length_c 9.492242
_cell_angle_alpha 90.000000
_cell_angle_beta 148.754873
_cell_angle_gamma 90.000000
_cell_volume 2130.499401
_symmetry_space_group_name_H-M "C 2/C"
_symmetry_group_IT_number 15
_symmetry_cell_setting 'monoclinic'
loop_
_space_group_symop_operation_xyz
x,y,z
-x,y,1/2-z
-x,-y,-z
x,-y,1/2+z
1/2+x,1/2+y,z
1/2-x,1/2+y,1/2-z
1/2-x,1/2-y,-z
1/2+x,1/2-y,1/2+z
loop_
_atom_site_type_symbol
_atom_site_label
_atom_site_fract_x
_atom_site_fract_y
_atom_site_fract_z
Si Si1 0.752067 0.567898 0.679770
Si Si2 0.345338 0.801213 0.623526
Si Si3 0.005320 0.363248 0.423489
Si Si4 0.319637 0.005800 0.504956
Si Si5 0.312691 0.422458 0.898947
Si Si6 0.411570 0.386988 0.328437
O O1 0.768953 0.524225 0.587140
O O2 0.594374 0.589043 0.526077
O O3 0.840075 0.615499 0.740808
O O4 0.835598 0.547093 0.945103
O O5 0.500000 0.798134 0.750000
O O6 0.250000 0.750000 0.500000
O O7 0.217123 0.843147 0.382107
O O8 0.421626 0.817512 0.883533
O O9 0.130384 0.406975 0.644096
O O10 0.000000 0.354697 0.250000
O O11 0.500000 0.026086 0.750000
O O12 0.189308 0.032653 0.214281
O O13 0.372368 0.427366 0.145970
O O14 0.408821 0.377021 0.962049
#
# Coordination Sequence:
#
# PCOD9284520 Si02
#       6
#     8   8   8   8   8   8
#     4  12  23  40  63  98 130 182 234 273 328 386
#     4  11  25  44  75 105 130 168 223 278 345 422
#     4  11  22  44  70  99 133 177 223 277 340 402
#     4  12  24  36  63  96 131 174 235 278 314 383
#     4  10  21  41  60  94 130 176 222 275 329 386
#     4  10  24  41  68  91 132 179 219 275 344 402
#
# _framework density 22.529928999999999
#
# number of rings (size 3 to 8) (size 9 to 14) (size 15 to 20)
#    0.000    1.000    5.000    1.500    9.333    1.333 
#    0.000    0.833    3.667    0.000    0.000    0.000 
#    0.000    0.000    0.000    0.000    0.000    0.000 
#
# Total GULP energy -133657.836074 kJ/mol
# GULP energy per Si atom -5569.076503 kJ/mol
# Density = 2.247865 g / cm^3
# Si number density = 22.529929 Si / 1000 Ang^3
#
#
#
# Elastic Constant Matrix: (Units=GPa)
#
#
# Indices 1 2 3 4 5 6 
#
# 1 188.2754 26.7710 32.6646 0.0000 -30.1793 0.0000
# 2 26.7710 76.6565 16.3112 0.0000 -15.4254 0.0000
# 3 32.6646 16.3112 50.8348 0.0000 -26.4707 0.0000
# 4 0.0000 0.0000 0.0000 34.1372 0.0000 5.6166
# 5 -30.1793 -15.4254 -26.4707 0.0000 45.0956 0.0000
# 6 0.0000 0.0000 0.0000 5.6166 0.0000 22.0171
#
#
#
# Elastic Compliance Matrix: (Units=1/GPa)
#
#
# Indices 1 2 3 4 5 6 
#
# 1 0.006282 -0.001202 -0.002413 0.000000 0.002376 0.000000
# 2 -0.001202 0.014539 -0.002480 0.000000 0.002713 0.000000
# 3 -0.002413 -0.002480 0.029863 0.000000 0.015066 0.000000
# 4 0.000000 0.000000 0.000000 0.030577 0.000000 -0.007800
# 5 0.002376 0.002713 0.015066 0.000000 0.033537 0.000000
# 6 0.000000 0.000000 0.000000 -0.007800 0.000000 0.047409
#
#
# Mechanical properties :
#
#
# Convention : Reuss Voigt Hill
#
# Bulk Modulus (GPa) = 25.97886 51.91781 38.94833
# Shear Modulus (GPa) = 26.70533 36.25130 31.47832
#
# Velocity S-wave (km/s) = 3.44659 4.01562 3.74194
# Velocity P-wave (km/s) = 5.23398 6.67789 5.99953
#
# Compressibility (1/GPa) = 0.03849284
#
# Stress axis : x y z
#
# Youngs Moduli (GPa) = 159.18725 68.78234 33.48599
#
# Poissons Ratio (x) = 0.08269 0.08082
# Poissons Ratio (y) = 0.19137 0.08304
# Poissons Ratio (z) = 0.38420 0.17057
#
# Static dielectric constant tensor:
#      x y z
#    x 1.929450 0.000000 0.093620 
#    y 0.000000 1.908990 0.000000 
#    z 0.093620 0.000000 1.948000 
# 
# From -- ./inp_files/33812.got.cif
#   From: 2010.05.17/outbox.cif.g08.bks.cpg/sg15_17_cif.got.tgz:33812.got - 2010.06.03 18:47:42.
