data_PCOD9284774
_publ_section_title
;
Structure prediction by ZEFSAII (Michael W. Deem and Ramdas Pophale) SiO2 
 PCOD9284774
Probable space group: C 2/C
;
_chemical_formula_sum "Si O2"
_cell_formula_units_Z 56
_cell_length_a 13.529723
_cell_length_b 14.289489
_cell_length_c 15.057947
_cell_angle_alpha 90.000000
_cell_angle_beta 79.709017
_cell_angle_gamma 90.000000
_cell_volume 2864.363556
_symmetry_space_group_name_H-M "C 2/C"
_symmetry_group_IT_number 15
_symmetry_cell_setting 'monoclinic'
loop_
_space_group_symop_operation_xyz
x,y,z
-x,y,1/2-z
-x,-y,-z
x,-y,1/2+z
1/2+x,1/2+y,z
1/2-x,1/2+y,1/2-z
1/2-x,1/2-y,-z
1/2+x,1/2-y,1/2+z
loop_
_atom_site_type_symbol
_atom_site_label
_atom_site_fract_x
_atom_site_fract_y
_atom_site_fract_z
Si Si1 0.800811 0.945950 0.434608
Si Si2 0.874156 0.139360 0.467573
Si Si3 0.194741 0.318811 0.120045
Si Si4 0.089196 0.667892 0.166257
Si Si5 0.910042 0.216207 0.015468
Si Si6 0.406263 0.988673 0.449090
Si Si7 0.733162 0.799529 0.316410
O O1 0.836144 0.868296 0.499623
O O2 0.692076 0.984509 0.478591
O O3 0.792714 0.889635 0.344377
O O4 0.872444 0.035381 0.428259
O O5 0.822696 0.213161 0.409412
O O6 0.802473 0.144914 0.566011
O O7 0.985176 0.173985 0.470376
O O8 0.112234 0.385123 0.086417
O O9 0.192814 0.320079 0.225778
O O10 0.091402 0.560553 0.133894
O O11 0.190333 0.711449 0.192270
O O12 0.000000 0.682733 0.250000
O O13 0.073780 0.723647 0.076243
O O14 0.854779 0.276641 0.099343
O O15 0.500000 0.000000 0.500000
#
# Coordination Sequence:
#
# PCOD9284774 Si02
#       7
#     8   8   8   8   8   8   8
#     4  10  21  41  64  91 124 167 206 260 315 385
#     4  10  22  42  63  90 128 163 212 257 319 373
#     4  10  24  40  63  93 127 167 210 262 316 379
#     4  11  22  39  64  93 124 167 214 255 320 382
#     4  11  20  41  68  91 126 167 207 265 321 378
#     4  11  22  40  62  92 124 167 213 258 319 376
#     4  11  22  40  66  92 130 162 210 267 319 381
#
# _framework density 19.550591000000001
#
# number of rings (size 3 to 8) (size 9 to 14) (size 15 to 20)
#    0.000    1.429    2.857    3.000    0.000    5.143 
#    0.000    0.000    9.429    0.000    0.000    0.000 
#    0.000    0.000    0.000    0.000    0.000    0.000 
#
# Total GULP energy -156431.340075 kJ/mol
# GULP energy per Si atom -5586.833574 kJ/mol
# Density = 1.950609 g / cm^3
# Si number density = 19.550591 Si / 1000 Ang^3
#
#
#
# Elastic Constant Matrix: (Units=GPa)
#
#
# Indices 1 2 3 4 5 6 
#
# 1 62.4802 -12.8758 15.2121 0.0000 -1.0256 0.0000
# 2 -12.8758 91.7643 28.5642 0.0000 0.7893 0.0000
# 3 15.2121 28.5642 99.8691 0.0000 3.8415 0.0000
# 4 0.0000 0.0000 0.0000 13.8819 0.0000 1.3136
# 5 -1.0256 0.7893 3.8415 0.0000 24.8418 0.0000
# 6 0.0000 0.0000 0.0000 1.3136 0.0000 26.8003
#
#
#
# Elastic Compliance Matrix: (Units=1/GPa)
#
#
# Indices 1 2 3 4 5 6 
#
# 1 0.017699 0.003652 -0.003787 0.000000 0.001200 0.000000
# 2 0.003652 0.012717 -0.004209 0.000000 0.000398 0.000000
# 3 -0.003787 -0.004209 0.011865 0.000000 -0.001857 0.000000
# 4 0.000000 0.000000 0.000000 0.072372 0.000000 -0.003547
# 5 0.001200 0.000398 -0.001857 0.000000 0.040579 0.000000
# 6 0.000000 0.000000 0.000000 -0.003547 0.000000 0.037487
#
#
# Mechanical properties :
#
#
# Convention : Reuss Voigt Hill
#
# Bulk Modulus (GPa) = 29.76727 35.10162 32.43445
# Shear Modulus (GPa) = 23.51798 27.98568 25.75183
#
# Velocity S-wave (km/s) = 3.47209 3.78755 3.63325
# Velocity P-wave (km/s) = 5.59756 6.09267 5.85036
#
# Compressibility (1/GPa) = 0.03359394
#
# Stress axis : x y z
#
# Youngs Moduli (GPa) = 56.49953 78.63779 84.28091
#
# Poissons Ratio (x) = -0.28717 0.31914
# Poissons Ratio (y) = -0.20633 0.35471
# Poissons Ratio (z) = 0.21394 0.33096
#
# Static dielectric constant tensor:
#      x y z
#    x 1.684420 0.000000 -0.007380 
#    y 0.000000 1.713810 0.000000 
#    z -0.007380 0.000000 1.648310 
# 
# From -- ./inp_files/144225.got.cif
#   From: 2010.05.17/outbox.cif.g08.bks.cpg/sg15_73_cif.got.tgz:144225.got - 2010.06.03 18:47:42.
