data_PCOD9284898
_publ_section_title
;
Structure prediction by ZEFSAII (Michael W. Deem and Ramdas Pophale) SiO2 
 PCOD9284898
Probable space group: C 2/C
;
_chemical_formula_sum "Si O2"
_cell_formula_units_Z 64
_cell_length_a 12.228471
_cell_length_b 27.298462
_cell_length_c 14.922116
_cell_angle_alpha 90.000000
_cell_angle_beta 31.599438
_cell_angle_gamma 90.000000
_cell_volume 2610.077665
_symmetry_space_group_name_H-M "C 2/C"
_symmetry_group_IT_number 15
_symmetry_cell_setting 'monoclinic'
loop_
_space_group_symop_operation_xyz
x,y,z
-x,y,1/2-z
-x,-y,-z
x,-y,1/2+z
1/2+x,1/2+y,z
1/2-x,1/2+y,1/2-z
1/2-x,1/2-y,-z
1/2+x,1/2-y,1/2+z
loop_
_atom_site_type_symbol
_atom_site_label
_atom_site_fract_x
_atom_site_fract_y
_atom_site_fract_z
Si Si1 0.247774 0.998929 0.599286
Si Si2 0.964552 0.318216 0.513881
Si Si3 0.855763 0.876225 0.520326
Si Si4 0.694514 0.085522 0.574975
Si Si5 0.912886 0.216289 0.093136
Si Si6 0.445406 0.899739 0.920214
Si Si7 0.164560 0.036913 0.845314
Si Si8 0.829739 0.818188 0.940271
O O1 0.369071 0.044584 0.472560
O O2 0.271750 0.008246 0.688631
O O3 0.000000 0.003116 0.750000
O O4 0.313502 0.947759 0.508007
O O5 0.774588 0.302463 0.712609
O O6 0.878289 0.321141 0.473257
O O7 0.119839 0.272317 0.411088
O O8 0.040673 0.370780 0.495823
O O9 0.926764 0.823311 0.505015
O O10 0.671170 0.895565 0.715661
O O11 0.733219 0.872586 0.512682
O O12 0.043209 0.915373 0.391774
O O13 0.500000 0.116060 0.750000
O O14 0.718540 0.051577 0.645420
O O15 0.875860 0.125315 0.436311
O O16 0.128109 0.213076 0.000882
O O17 0.000000 0.000000 0.000000
O O18 0.000000 0.801163 0.750000
#
# Coordination Sequence:
#
# PCOD9284898 Si02
#       8
#     8   8   8   8   8   8   8   8
#     4  12  25  43  66  96 134 175 222 272 332 397
#     4  10  23  39  64  97 125 172 216 273 339 395
#     4  10  21  42  68  91 128 176 217 276 332 395
#     4  12  28  44  65 102 135 176 226 276 334 403
#     4  10  21  41  65  93 129 168 219 275 335 396
#     4  10  23  41  64  95 131 169 223 270 335 397
#     4  12  25  43  67  95 131 178 224 270 339 397
#     4  10  22  43  66  92 133 172 221 275 333 396
#
# _framework density 24.520344000000001
#
# number of rings (size 3 to 8) (size 9 to 14) (size 15 to 20)
#    0.000    1.250    3.750    0.750    5.250    3.000 
#    0.000    0.000    0.000    0.000    0.000    0.000 
#    0.000    0.000    0.000    0.000    0.000    0.000 
#
# Total GULP energy -178846.766936 kJ/mol
# GULP energy per Si atom -5588.961467 kJ/mol
# Density = 2.446453 g / cm^3
# Si number density = 24.520344 Si / 1000 Ang^3
#
#
#
# Elastic Constant Matrix: (Units=GPa)
#
#
# Indices 1 2 3 4 5 6 
#
# 1 94.6177 23.4824 23.7348 0.0001 16.3328 0.0001
# 2 23.4824 101.4295 27.6311 0.0000 6.2048 0.0000
# 3 23.7348 27.6311 58.7403 0.0002 0.4514 0.0000
# 4 0.0001 0.0000 0.0002 35.1214 -0.0001 -2.1575
# 5 16.3328 6.2048 0.4514 -0.0001 21.6834 0.0001
# 6 0.0001 0.0000 0.0000 -2.1575 0.0001 24.7209
#
#
#
# Elastic Compliance Matrix: (Units=1/GPa)
#
#
# Indices 1 2 3 4 5 6 
#
# 1 0.013834 -0.001252 -0.004924 0.000000 -0.009960 0.000000
# 2 -0.001252 0.011637 -0.004951 0.000000 -0.002284 0.000000
# 3 -0.004924 -0.004951 0.021307 0.000000 0.004682 0.000000
# 4 0.000000 0.000000 0.000000 0.028626 0.000000 0.002498
# 5 -0.009960 -0.002284 0.004682 0.000000 0.054176 0.000000
# 6 0.000000 0.000000 0.000000 0.002498 0.000000 0.040670
#
#
# Mechanical properties :
#
#
# Convention : Reuss Voigt Hill
#
# Bulk Modulus (GPa) = 40.77663 44.94270 42.85966
# Shear Modulus (GPa) = 24.91544 28.30109 26.60827
#
# Velocity S-wave (km/s) = 3.19111 3.40102 3.29774
# Velocity P-wave (km/s) = 5.49940 5.81301 5.65838
#
# Compressibility (1/GPa) = 0.02452385
#
# Stress axis : x y z
#
# Youngs Moduli (GPa) = 72.28535 85.93069 46.93379
#
# Poissons Ratio (x) = 0.10759 0.23112
# Poissons Ratio (y) = 0.09051 0.23235
# Poissons Ratio (z) = 0.35596 0.42541
#
# Static dielectric constant tensor:
#      x y z
#    x 1.938230 0.000000 0.030210 
#    y 0.000000 1.890850 0.000000 
#    z 0.030210 0.000000 1.920150 
# 
# From -- ./inp_files/148764.got.cif
#   From: 2010.05.17/outbox.cif.g08.bks.cpg/sg15_75_cif.got.tgz:148764.got - 2010.06.03 18:47:42.
