data_PCOD9284750
_publ_section_title
;
Structure prediction by ZEFSAII (Michael W. Deem and Ramdas Pophale) SiO2 
 PCOD9284750
Probable space group: C 2/C
;
_chemical_formula_sum "Si O2"
_cell_formula_units_Z 40
_cell_length_a 14.860355
_cell_length_b 18.987588
_cell_length_c 7.529554
_cell_angle_alpha 90.000000
_cell_angle_beta 91.667030
_cell_angle_gamma 90.000000
_cell_volume 2123.657076
_symmetry_space_group_name_H-M "C 2/C"
_symmetry_group_IT_number 15
_symmetry_cell_setting 'monoclinic'
loop_
_space_group_symop_operation_xyz
x,y,z
-x,y,1/2-z
-x,-y,-z
x,-y,1/2+z
1/2+x,1/2+y,z
1/2-x,1/2+y,1/2-z
1/2-x,1/2-y,-z
1/2+x,1/2-y,1/2+z
loop_
_atom_site_type_symbol
_atom_site_label
_atom_site_fract_x
_atom_site_fract_y
_atom_site_fract_z
Si Si1 0.695092 0.584220 0.933474
Si Si2 0.000000 0.527018 0.750000
Si Si3 0.399656 0.089851 0.062723
Si Si4 0.500000 0.213434 0.250000
Si Si5 0.603650 0.440613 0.795937
Si Si6 0.084556 0.848034 0.144056
O O1 0.800269 0.587078 0.980401
O O2 0.661702 0.509241 0.851960
O O3 0.644000 0.407627 0.618550
O O4 0.666137 0.641709 0.785869
O O5 0.027947 0.573906 0.586616
O O6 0.917597 0.474488 0.699906
O O7 0.427622 0.162788 0.154241
O O8 0.552185 0.267473 0.122514
O O9 0.500000 0.459441 0.750000
O O10 0.602651 0.387870 0.962987
O O11 0.000000 0.880561 0.250000
#
# Coordination Sequence:
#
# PCOD9284750 Si02
#       6
#     8   4   8   4   8   8
#     4  12  22  34  64  94 119 152 207 257 289 351
#     4   9  20  40  66  88 113 158 200 248 315 342
#     4  10  21  41  64  89 118 153 201 255 297 353
#     4   9  22  46  58  76 131 160 198 242 299 364
#     4  12  21  36  59  93 127 159 191 246 315 345
#     4  10  22  41  58  85 125 165 197 238 299 365
#
# _framework density 18.835431
#
# number of rings (size 3 to 8) (size 9 to 14) (size 15 to 20)
#    0.600    0.800    4.000    2.400    0.000    0.800 
#    5.400    1.000    0.000    0.000    0.000    0.000 
#    0.000    0.000    0.000    0.000    0.000    0.000 
#
# Total GULP energy -111556.596416 kJ/mol
# GULP energy per Si atom -5577.829821 kJ/mol
# Density = 1.879256 g / cm^3
# Si number density = 18.835431 Si / 1000 Ang^3
#
#
#
# Elastic Constant Matrix: (Units=GPa)
#
#
# Indices 1 2 3 4 5 6 
#
# 1 80.5583 30.9469 28.1909 0.0000 39.7311 0.0000
# 2 30.9469 82.6879 26.3945 0.0000 4.6584 0.0000
# 3 28.1909 26.3945 95.8579 0.0000 9.2783 0.0000
# 4 0.0000 0.0000 0.0000 17.9709 0.0000 0.9795
# 5 39.7311 4.6584 9.2783 0.0000 47.3710 0.0000
# 6 0.0000 0.0000 0.0000 0.9795 0.0000 1.5399
#
#
#
# Elastic Compliance Matrix: (Units=1/GPa)
#
#
# Indices 1 2 3 4 5 6 
#
# 1 0.027275 -0.007789 -0.003809 0.000000 -0.021364 0.000000
# 2 -0.007789 0.015500 -0.002510 0.000000 0.005500 0.000000
# 3 -0.003809 -0.002510 0.012140 0.000000 0.001063 0.000000
# 4 0.000000 0.000000 0.000000 0.057644 0.000000 -0.036664
# 5 -0.021364 0.005500 0.001063 0.000000 0.038279 0.000000
# 6 0.000000 0.000000 0.000000 -0.036664 0.000000 0.672699
#
#
# Mechanical properties :
#
#
# Convention : Reuss Voigt Hill
#
# Bulk Modulus (GPa) = 37.45171 47.79654 42.62413
# Shear Modulus (GPa) = 5.80955 24.94783 15.37869
#
# Velocity S-wave (km/s) = 1.75814 3.64334 2.86051
# Velocity P-wave (km/s) = 4.90390 6.56731 5.79559
#
# Compressibility (1/GPa) = 0.02670105
#
# Stress axis : x y z
#
# Youngs Moduli (GPa) = 36.66352 64.51647 82.36991
#
# Poissons Ratio (x) = 0.50249 0.31373
# Poissons Ratio (y) = 0.28556 0.20672
# Poissons Ratio (z) = 0.13965 0.16192
#
# Static dielectric constant tensor:
#      x y z
#    x 1.654880 0.000000 0.008500 
#    y 0.000000 1.649090 0.000000 
#    z 0.008500 0.000000 1.679090 
# 
# From -- ./inp_files/40049.got.cif
#   From: 2010.05.17/outbox.cif.g08.bks.cpg/sg15_21_cif.got.tgz:40049.got - 2010.06.03 18:47:42.
