data_PCOD9284884
_publ_section_title
;
Structure prediction by ZEFSAII (Michael W. Deem and Ramdas Pophale) SiO2 
 PCOD9284884
Probable space group: C 2/C
;
_chemical_formula_sum "Si O2"
_cell_formula_units_Z 44
_cell_length_a 17.004509
_cell_length_b 18.556183
_cell_length_c 11.329570
_cell_angle_alpha 90.000000
_cell_angle_beta 30.225291
_cell_angle_gamma 90.000000
_cell_volume 1799.619075
_symmetry_space_group_name_H-M "C 2/C"
_symmetry_group_IT_number 15
_symmetry_cell_setting 'monoclinic'
loop_
_space_group_symop_operation_xyz
x,y,z
-x,y,1/2-z
-x,-y,-z
x,-y,1/2+z
1/2+x,1/2+y,z
1/2-x,1/2+y,1/2-z
1/2-x,1/2-y,-z
1/2+x,1/2-y,1/2+z
loop_
_atom_site_type_symbol
_atom_site_label
_atom_site_fract_x
_atom_site_fract_y
_atom_site_fract_z
Si Si1 0.047279 0.209359 0.826918
Si Si2 0.174751 0.149526 0.989032
Si Si3 0.500000 0.090654 0.750000
Si Si4 0.337063 0.008304 0.776764
Si Si5 0.227812 0.692643 0.373311
Si Si6 0.651027 0.863600 0.633372
O O1 0.205124 0.163433 0.632939
O O2 0.094106 0.293533 0.781211
O O3 0.000000 0.205065 0.750000
O O4 0.896939 0.184206 0.095269
O O5 0.253558 0.174777 0.010627
O O6 0.000000 0.130890 0.250000
O O7 0.245619 0.076669 0.842194
O O8 0.178656 0.224800 0.914026
O O9 0.370656 0.038375 0.864055
O O10 0.582270 0.138954 0.542283
O O11 0.500000 0.000000 0.500000
O O12 0.281556 0.927405 0.872073
O O13 0.500000 0.884534 0.750000
#
# Coordination Sequence:
#
# PCOD9284884 Si02
#       6
#     8   8   4   8   8   8
#     4  10  23  39  67  97 125 171 212 267 320 375
#     4  10  22  40  63  95 120 165 210 270 318 366
#     4  10  22  42  62  92 122 166 208 256 318 366
#     4  11  23  39  63  88 126 171 208 251 317 384
#     4  10  21  41  65  92 127 157 214 267 313 381
#     4  10  22  43  59  92 131 169 216 254 320 382
#
# _framework density 24.449618000000001
#
# number of rings (size 3 to 8) (size 9 to 14) (size 15 to 20)
#    0.000    1.818    1.818    1.091    2.545    6.545 
#    0.000    1.818    0.000    0.000    0.000    0.000 
#    0.000    0.000    0.000    0.000    0.000    0.000 
#
# Total GULP energy -122833.114230 kJ/mol
# GULP energy per Si atom -5583.323374 kJ/mol
# Density = 2.439397 g / cm^3
# Si number density = 24.449618 Si / 1000 Ang^3
#
#
#
# Elastic Constant Matrix: (Units=GPa)
#
#
# Indices 1 2 3 4 5 6 
#
# 1 30.8089 18.0467 3.2043 0.0006 3.4613 0.0001
# 2 18.0467 179.0032 67.8346 -0.0004 -2.4024 0.0006
# 3 3.2043 67.8346 166.3328 0.0004 -7.6609 0.0013
# 4 0.0006 -0.0004 0.0004 -56.1440 -0.0003 31.7896
# 5 3.4613 -2.4024 -7.6609 -0.0003 36.4284 -0.0009
# 6 0.0001 0.0006 0.0013 31.7896 -0.0009 16.3192
#
#
#
# Elastic Compliance Matrix: (Units=1/GPa)
#
#
# Indices 1 2 3 4 5 6 
#
# 1 0.035026 -0.003858 0.000741 0.000000 -0.003427 -0.000001
# 2 -0.003858 0.007033 -0.002783 0.000000 0.000245 0.000000
# 3 0.000741 -0.002783 0.007191 0.000000 0.001258 0.000000
# 4 0.000000 0.000000 0.000000 -0.008470 0.000000 0.016499
# 5 -0.003427 0.000245 0.001258 0.000000 0.028058 0.000001
# 6 -0.000001 0.000000 0.000000 0.016499 0.000001 0.029138
#
#
# Mechanical properties :
#
#
# Convention : Reuss Voigt Hill
#
# Bulk Modulus (GPa) = 26.70226 61.59068 44.14647
# Shear Modulus (GPa) = 40.89670 18.45800 29.67735
#
# Velocity S-wave (km/s) = 4.09429 2.75060 3.48777
# Velocity P-wave (km/s) = 5.77027 5.94418 5.85787
#
# Compressibility (1/GPa) = 0.03745002
#
# Stress axis : x y z
#
# Youngs Moduli (GPa) = 28.55026 142.18150 139.07069
#
# Poissons Ratio (x) = 0.54853 -0.10302
# Poissons Ratio (y) = 0.11015 0.38700
# Poissons Ratio (z) = -0.02115 0.39565
#
# Static dielectric constant tensor:
#      x y z
#    x 2.207860 0.000000 -0.008950 
#    y 0.000000 1.999660 0.000000 
#    z -0.008950 0.000000 1.930820 
# 
# From -- ./inp_files/174190.got.cif
#   From: 2010.05.17/outbox.cif.g08.bks.cpg/sg15_88_cif.got.tgz:174190.got - 2010.06.03 18:47:42.
