data_PCOD9284360
_publ_section_title
;
Structure prediction by ZEFSAII (Michael W. Deem and Ramdas Pophale) SiO2 
 PCOD9284360
Probable space group: C 2/C
;
_chemical_formula_sum "Si O2"
_cell_formula_units_Z 56
_cell_length_a 8.711497
_cell_length_b 30.297959
_cell_length_c 16.538161
_cell_angle_alpha 90.000000
_cell_angle_beta 35.550710
_cell_angle_gamma 90.000000
_cell_volume 2537.965926
_symmetry_space_group_name_H-M "C 2/C"
_symmetry_group_IT_number 15
_symmetry_cell_setting 'monoclinic'
loop_
_space_group_symop_operation_xyz
x,y,z
-x,y,1/2-z
-x,-y,-z
x,-y,1/2+z
1/2+x,1/2+y,z
1/2-x,1/2+y,1/2-z
1/2-x,1/2-y,-z
1/2+x,1/2-y,1/2+z
loop_
_atom_site_type_symbol
_atom_site_label
_atom_site_fract_x
_atom_site_fract_y
_atom_site_fract_z
Si Si1 0.500000 0.710171 0.750000
Si Si2 0.011823 0.928022 0.951233
Si Si3 0.740202 0.282737 0.764640
Si Si4 0.500000 0.774923 0.250000
Si Si5 0.137703 0.493894 0.603986
Si Si6 0.407567 0.154638 0.487977
Si Si7 0.998664 0.164360 0.516736
Si Si8 0.282965 0.069079 0.171202
O O1 0.448738 0.744711 0.699807
O O2 0.752153 0.679124 0.626442
O O3 0.162109 0.954045 0.958693
O O4 0.218388 0.916642 0.791771
O O5 0.892594 0.882457 0.030899
O O6 0.800943 0.963254 0.009230
O O7 0.499298 0.256530 0.828301
O O8 0.862446 0.314099 0.644389
O O9 0.659554 0.310997 0.876866
O O10 0.243058 0.804861 0.357224
O O11 0.000000 0.503650 0.750000
O O12 0.938332 0.476314 0.621778
O O13 0.535035 0.106624 0.447196
O O14 0.193156 0.153639 0.507406
O O15 0.000000 0.065056 0.250000
#
# Coordination Sequence:
#
# PCOD9284360 Si02
#       8
#     4   8   8   4   8   8   8   8
#     4  12  24  42  68  92 140 184 232 272 342 400
#     4  10  21  40  69  99 127 174 219 271 330 404
#     4  12  24  43  68  95 131 187 228 282 337 399
#     4  12  28  40  60 106 140 170 232 284 338 396
#     4   9  20  40  70 101 131 164 219 272 330 405
#     4  12  24  44  68  97 134 182 230 280 337 405
#     4  12  23  43  70  96 135 178 227 283 336 399
#     4  11  24  42  69 101 135 176 220 270 337 407
#
# _framework density 22.064913000000001
#
# number of rings (size 3 to 8) (size 9 to 14) (size 15 to 20)
#    0.000    0.857    5.714    1.714    2.000    1.714 
#    0.000    0.000    1.571    0.000    0.000    0.000 
#    0.000    0.000    0.000    0.000    0.000    0.000 
#
# Total GULP energy -156518.451408 kJ/mol
# GULP energy per Si atom -5589.944693 kJ/mol
# Density = 2.201469 g / cm^3
# Si number density = 22.064913 Si / 1000 Ang^3
#
#
#
# Elastic Constant Matrix: (Units=GPa)
#
#
# Indices 1 2 3 4 5 6 
#
# 1 76.8133 28.3959 -6.5000 0.0000 -28.8097 0.0000
# 2 28.3959 100.3105 28.7264 0.0000 -12.8997 0.0000
# 3 -6.5000 28.7264 74.0332 0.0000 -8.5916 0.0000
# 4 0.0000 0.0000 0.0000 36.3314 0.0000 -11.9172
# 5 -28.8097 -12.8997 -8.5916 0.0000 29.3162 0.0000
# 6 0.0000 0.0000 0.0000 -11.9172 0.0000 22.2426
#
#
#
# Elastic Compliance Matrix: (Units=1/GPa)
#
#
# Indices 1 2 3 4 5 6 
#
# 1 0.024826 -0.006047 0.007297 0.000000 0.023875 0.000000
# 2 -0.006047 0.013110 -0.005837 0.000000 -0.001884 0.000000
# 3 0.007297 -0.005837 0.017544 0.000000 0.009744 0.000000
# 4 0.000000 0.000000 0.000000 0.033393 0.000000 0.017891
# 5 0.023875 -0.001884 0.009744 0.000000 0.059599 0.000000
# 6 0.000000 0.000000 0.000000 0.017891 0.000000 0.054545
#
#
# Mechanical properties :
#
#
# Convention : Reuss Voigt Hill
#
# Bulk Modulus (GPa) = 21.59561 39.15573 30.37567
# Shear Modulus (GPa) = 21.96588 30.94700 26.45644
#
# Velocity S-wave (km/s) = 3.15860 3.74912 3.46645
# Velocity P-wave (km/s) = 4.80738 6.04363 5.46060
#
# Compressibility (1/GPa) = 0.04630571
#
# Stress axis : x y z
#
# Youngs Moduli (GPa) = 40.28038 76.27774 57.00079
#
# Poissons Ratio (x) = 0.46126 -0.41592
# Poissons Ratio (y) = 0.24358 0.33269
# Poissons Ratio (z) = -0.29392 0.44520
#
# Static dielectric constant tensor:
#      x y z
#    x 1.862090 0.000000 0.006230 
#    y 0.000000 1.783560 0.000000 
#    z 0.006230 0.000000 1.804750 
# 
# From -- ./inp_files/193881.got.cif
#   From: 2010.05.17/outbox.cif.g08.bks.cpg/sg15_97_cif.got.tgz:193881.got - 2010.06.03 18:47:42.
