data_PCOD9284267
_publ_section_title
;
Structure prediction by ZEFSAII (Michael W. Deem and Ramdas Pophale) SiO2 
 PCOD9284267
Probable space group: C 2/C
;
_chemical_formula_sum "Si O2"
_cell_formula_units_Z 32
_cell_length_a 15.665644
_cell_length_b 13.182030
_cell_length_c 11.972252
_cell_angle_alpha 90.000000
_cell_angle_beta 149.789655
_cell_angle_gamma 90.000000
_cell_volume 1244.016972
_symmetry_space_group_name_H-M "C 2/C"
_symmetry_group_IT_number 15
_symmetry_cell_setting 'monoclinic'
loop_
_space_group_symop_operation_xyz
x,y,z
-x,y,1/2-z
-x,-y,-z
x,-y,1/2+z
1/2+x,1/2+y,z
1/2-x,1/2+y,1/2-z
1/2-x,1/2-y,-z
1/2+x,1/2-y,1/2+z
loop_
_atom_site_type_symbol
_atom_site_label
_atom_site_fract_x
_atom_site_fract_y
_atom_site_fract_z
Si Si1 0.432657 0.641867 0.407332
Si Si2 0.352433 0.448928 0.171199
Si Si3 0.163121 0.464536 0.757635
Si Si4 0.632170 0.171796 0.803867
O O1 0.388270 0.562579 0.257823
O O2 0.602457 0.615685 0.668466
O O3 0.276274 0.610965 0.312406
O O4 0.445482 0.756092 0.379095
O O5 0.500000 0.425860 0.250000
O O6 0.181514 0.426788 0.907833
O O7 0.230942 0.578452 0.861604
O O8 0.000000 0.500000 0.500000
O O9 0.500000 0.135636 0.750000
O O10 0.750000 0.250000 0.000000
#
# Coordination Sequence:
#
# PCOD9284267 Si02
#       4
#     8   8   8   8
#     4  10  21  40  68  93 130 178 226 266 327 406
#     4   9  19  37  63  89 126 175 219 259 327 401
#     4  11  24  41  63 101 139 168 214 289 344 376
#     4  12  25  42  71 103 129 173 237 280 320 403
#
# _framework density 25.723122
#
# number of rings (size 3 to 8) (size 9 to 14) (size 15 to 20)
#    0.000    1.500    2.500    2.250    7.000    0.000 
#    0.000    1.250   11.000    0.000    0.000    0.000 
#    0.000    0.000    0.000    0.000    0.000    0.000 
#
# Total GULP energy -89173.413871 kJ/mol
# GULP energy per Si atom -5573.338367 kJ/mol
# Density = 2.566458 g / cm^3
# Si number density = 25.723122 Si / 1000 Ang^3
#
#
#
# Elastic Constant Matrix: (Units=GPa)
#
#
# Indices 1 2 3 4 5 6 
#
# 1 125.0444 21.8358 41.8493 0.0000 -5.9712 0.0000
# 2 21.8358 79.1803 -9.5321 0.0000 -6.9405 0.0000
# 3 41.8493 -9.5321 208.4710 0.0000 -37.3354 0.0000
# 4 0.0000 0.0000 0.0000 36.1179 0.0000 -2.1657
# 5 -5.9712 -6.9405 -37.3354 0.0000 42.8596 0.0000
# 6 0.0000 0.0000 0.0000 -2.1657 0.0000 19.5335
#
#
#
# Elastic Compliance Matrix: (Units=1/GPa)
#
#
# Indices 1 2 3 4 5 6 
#
# 1 0.009175 -0.002885 -0.002166 0.000000 -0.001076 0.000000
# 2 -0.002885 0.013949 0.001836 0.000000 0.003456 0.000000
# 3 -0.002166 0.001836 0.006297 0.000000 0.005481 0.000000
# 4 0.000000 0.000000 0.000000 0.027872 0.000000 0.003090
# 5 -0.001076 0.003456 0.005481 0.000000 0.028516 0.000000
# 6 0.000000 0.000000 0.000000 0.003090 0.000000 0.051537
#
#
# Mechanical properties :
#
#
# Convention : Reuss Voigt Hill
#
# Bulk Modulus (GPa) = 43.49791 57.88909 50.69350
# Shear Modulus (GPa) = 33.01613 43.60505 38.31059
#
# Velocity S-wave (km/s) = 3.58651 4.12171 3.86339
# Velocity P-wave (km/s) = 5.83931 6.72346 6.29692
#
# Compressibility (1/GPa) = 0.02298961
#
# Stress axis : x y z
#
# Youngs Moduli (GPa) = 108.99593 71.68941 158.79819
#
# Poissons Ratio (x) = 0.20684 0.34402
# Poissons Ratio (y) = 0.31448 -0.29155
# Poissons Ratio (z) = 0.23613 -0.13162
#
# Static dielectric constant tensor:
#      x y z
#    x 2.251060 0.000000 0.129660 
#    y 0.000000 2.064770 0.000000 
#    z 0.129660 0.000000 2.376750 
# 
# From -- ./inp_files/105094.got.cif
#   From: 2010.05.17/outbox.cif.g08.bks.cpg/sg15_53_cif.got.tgz:105094.got - 2010.06.03 18:47:42.
