data_PCOD9284699
_publ_section_title
;
Structure prediction by ZEFSAII (Michael W. Deem and Ramdas Pophale) SiO2 
 PCOD9284699
Probable space group: C 2/C
;
_chemical_formula_sum "Si O2"
_cell_formula_units_Z 48
_cell_length_a 13.355467
_cell_length_b 10.492348
_cell_length_c 24.639006
_cell_angle_alpha 90.000000
_cell_angle_beta 135.108193
_cell_angle_gamma 90.000000
_cell_volume 2436.791164
_symmetry_space_group_name_H-M "C 2/C"
_symmetry_group_IT_number 15
_symmetry_cell_setting 'monoclinic'
loop_
_space_group_symop_operation_xyz
x,y,z
-x,y,1/2-z
-x,-y,-z
x,-y,1/2+z
1/2+x,1/2+y,z
1/2-x,1/2+y,1/2-z
1/2-x,1/2-y,-z
1/2+x,1/2-y,1/2+z
loop_
_atom_site_type_symbol
_atom_site_label
_atom_site_fract_x
_atom_site_fract_y
_atom_site_fract_z
Si Si1 0.258665 0.092682 0.454225
Si Si2 0.164450 0.028951 0.808772
Si Si3 0.309517 0.128008 0.054107
Si Si4 0.269006 0.827387 0.664484
Si Si5 0.108696 0.471153 0.690585
Si Si6 0.987619 0.730625 0.603600
O O1 0.131284 0.192948 0.409542
O O2 0.406429 0.164610 0.521641
O O3 0.246274 0.015417 0.394168
O O4 0.246830 0.995094 0.499889
O O5 0.173238 0.182403 0.808363
O O6 0.000000 0.991635 0.750000
O O7 0.249138 0.968302 0.791040
O O8 0.271981 0.133888 0.103017
O O9 0.480718 0.114134 0.117221
O O10 0.250000 0.250000 0.000000
O O11 0.357877 0.921153 0.736836
O O12 0.110993 0.818954 0.628019
O O13 0.053344 0.616214 0.664396
#
# Coordination Sequence:
#
# PCOD9284699 Si02
#       6
#     8   8   8   8   8   8
#     4  10  21  41  63  93 127 166 215 253 321 380
#     4  11  22  38  65  90 126 167 214 262 314 389
#     4  11  22  37  64  96 126 166 211 268 316 374
#     4  11  22  40  63  94 131 162 217 266 315 379
#     4  10  23  40  61  90 128 168 210 265 319 373
#     4   9  22  41  63  90 129 171 206 260 318 385
#
# _framework density 19.698035000000001
#
# number of rings (size 3 to 8) (size 9 to 14) (size 15 to 20)
#    0.000    1.667    1.667    2.500    2.333    2.667 
#    0.000   20.000    0.000    0.000    0.000    0.000 
#    0.000    0.000    0.000    0.000    0.000    0.000 
#
# Total GULP energy -134058.398680 kJ/mol
# GULP energy per Si atom -5585.766612 kJ/mol
# Density = 1.965320 g / cm^3
# Si number density = 19.698035 Si / 1000 Ang^3
#
#
#
# Elastic Constant Matrix: (Units=GPa)
#
#
# Indices 1 2 3 4 5 6 
#
# 1 73.0069 39.8910 54.7815 0.0000 -8.0414 0.0000
# 2 39.8910 55.7752 48.1299 0.0000 -1.9036 0.0000
# 3 54.7815 48.1299 111.2952 0.0000 -17.3363 0.0000
# 4 0.0000 0.0000 0.0000 30.3960 0.0000 -1.4003
# 5 -8.0414 -1.9036 -17.3363 0.0000 37.4295 0.0000
# 6 0.0000 0.0000 0.0000 -1.4003 0.0000 30.7814
#
#
#
# Elastic Compliance Matrix: (Units=1/GPa)
#
#
# Indices 1 2 3 4 5 6 
#
# 1 0.026038 -0.012324 -0.007235 0.000000 0.001616 0.000000
# 2 -0.012324 0.035193 -0.010009 0.000000 -0.005494 0.000000
# 3 -0.007235 -0.010009 0.017840 0.000000 0.006200 0.000000
# 4 0.000000 0.000000 0.000000 0.032968 0.000000 0.001500
# 5 0.001616 -0.005494 0.006200 0.000000 0.029656 0.000000
# 6 0.000000 0.000000 0.000000 0.001500 0.000000 0.032555
#
#
# Mechanical properties :
#
#
# Convention : Reuss Voigt Hill
#
# Bulk Modulus (GPa) = 50.16234 58.40911 54.28572
# Shear Modulus (GPa) = 20.83048 26.20638 23.51843
#
# Velocity S-wave (km/s) = 3.25544 3.65143 3.45910
# Velocity P-wave (km/s) = 6.29694 6.89158 6.60096
#
# Compressibility (1/GPa) = 0.01993527
#
# Stress axis : x y z
#
# Youngs Moduli (GPa) = 38.40497 28.41476 56.05265
#
# Poissons Ratio (x) = 0.35019 0.40554
# Poissons Ratio (y) = 0.47332 0.56102
# Poissons Ratio (z) = 0.27786 0.28440
#
# Static dielectric constant tensor:
#      x y z
#    x 1.686780 0.000000 0.029050 
#    y 0.000000 1.690350 0.000000 
#    z 0.029050 0.000000 1.685800 
# 
# From -- ./inp_files/237240.got.cif
#   From: 2010.05.17/outbox.cif.g08.bks.cpg/sg15_119_cif.got.tgz:237240.got - 2010.06.03 18:47:42.
