data_PCOD9284869
_publ_section_title
;
Structure prediction by ZEFSAII (Michael W. Deem and Ramdas Pophale) SiO2 
 PCOD9284869
Probable space group: C 2/C
;
_chemical_formula_sum "Si O2"
_cell_formula_units_Z 40
_cell_length_a 13.435254
_cell_length_b 12.110915
_cell_length_c 13.403651
_cell_angle_alpha 90.000000
_cell_angle_beta 50.278466
_cell_angle_gamma 90.000000
_cell_volume 1677.499177
_symmetry_space_group_name_H-M "C 2/C"
_symmetry_group_IT_number 15
_symmetry_cell_setting 'monoclinic'
loop_
_space_group_symop_operation_xyz
x,y,z
-x,y,1/2-z
-x,-y,-z
x,-y,1/2+z
1/2+x,1/2+y,z
1/2-x,1/2+y,1/2-z
1/2-x,1/2-y,-z
1/2+x,1/2-y,1/2+z
loop_
_atom_site_type_symbol
_atom_site_label
_atom_site_fract_x
_atom_site_fract_y
_atom_site_fract_z
Si Si1 0.510562 0.032020 0.130583
Si Si2 0.734301 0.395050 0.592235
Si Si3 0.118297 0.659896 0.888983
Si Si4 0.907315 0.816337 0.006203
Si Si5 0.893594 0.902108 0.232832
O O1 0.500000 0.067289 0.250000
O O2 0.396389 0.948333 0.171951
O O3 0.639591 0.960867 0.028263
O O4 0.528211 0.131412 0.042622
O O5 0.793038 0.277658 0.589830
O O6 0.642648 0.384674 0.555232
O O7 0.660720 0.474097 0.715946
O O8 0.264480 0.673486 0.829275
O O9 0.041108 0.758282 0.888867
O O10 0.930796 0.879500 0.094581
O O11 0.000000 0.880111 0.250000
#
# Coordination Sequence:
#
# PCOD9284869 Si02
#       5
#     8   8   8   8   8
#     4   9  16  33  62  88 115 149 191 249 303 354
#     4   9  21  40  65  94 119 157 208 251 305 369
#     4   9  20  36  56  87 118 154 203 241 294 370
#     4  10  21  41  65  90 124 161 204 254 303 369
#     4  11  24  40  60  90 126 162 204 257 310 356
#
# _framework density 23.845018
#
# number of rings (size 3 to 8) (size 9 to 14) (size 15 to 20)
#    0.000    2.400    0.000    2.400    0.000    4.000 
#    0.000    6.000    0.000    0.000    0.000    0.000 
#    0.000    0.000    0.000    0.000    0.000    0.000 
#
# Total GULP energy -111798.315865 kJ/mol
# GULP energy per Si atom -5589.915793 kJ/mol
# Density = 2.379075 g / cm^3
# Si number density = 23.845018 Si / 1000 Ang^3
#
#
#
# Elastic Constant Matrix: (Units=GPa)
#
#
# Indices 1 2 3 4 5 6 
#
# 1 189.6373 28.1556 17.5057 0.0000 7.9624 0.0000
# 2 28.1556 44.5785 6.4772 0.0000 4.9879 0.0000
# 3 17.5057 6.4772 37.8433 0.0000 18.7119 0.0000
# 4 0.0000 0.0000 0.0000 24.9645 0.0000 8.7807
# 5 7.9624 4.9879 18.7119 0.0000 42.5001 0.0000
# 6 0.0000 0.0000 0.0000 8.7807 0.0000 33.6634
#
#
#
# Elastic Compliance Matrix: (Units=1/GPa)
#
#
# Indices 1 2 3 4 5 6 
#
# 1 0.005992 -0.003481 -0.002330 0.000000 0.000312 0.000000
# 2 -0.003481 0.025077 -0.001980 0.000000 -0.001419 0.000000
# 3 -0.002330 -0.001980 0.035167 0.000000 -0.014814 0.000000
# 4 0.000000 0.000000 0.000000 0.044103 0.000000 -0.011504
# 5 0.000312 -0.001419 -0.014814 0.000000 0.030160 0.000000
# 6 0.000000 0.000000 0.000000 -0.011504 0.000000 0.032707
#
#
# Mechanical properties :
#
#
# Convention : Reuss Voigt Hill
#
# Bulk Modulus (GPa) = 19.74211 41.81510 30.77860
# Shear Modulus (GPa) = 24.31046 34.88696 29.59871
#
# Velocity S-wave (km/s) = 3.19646 3.82916 3.52702
# Velocity P-wave (km/s) = 4.68192 6.09297 5.43345
#
# Compressibility (1/GPa) = 0.05065316
#
# Stress axis : x y z
#
# Youngs Moduli (GPa) = 166.88800 39.87663 28.43607
#
# Poissons Ratio (x) = 0.13880 0.06626
# Poissons Ratio (y) = 0.58091 0.05631
# Poissons Ratio (z) = 0.38889 0.07897
#
# Static dielectric constant tensor:
#      x y z
#    x 1.923690 0.000000 -0.046050 
#    y 0.000000 1.965000 0.000000 
#    z -0.046050 0.000000 1.896670 
# 
# From -- ./inp_files/85960.got.cif
#   From: 2010.05.17/outbox.cif.g08.bks.cpg/sg15_43_cif.got.tgz:85960.got - 2010.06.03 18:47:42.
