data_PCOD9284227
_publ_section_title
;
Structure prediction by ZEFSAII (Michael W. Deem and Ramdas Pophale) SiO2 
 PCOD9284227
Probable space group: C 2/C
;
_chemical_formula_sum "Si O2"
_cell_formula_units_Z 40
_cell_length_a 13.904840
_cell_length_b 13.107283
_cell_length_c 9.567811
_cell_angle_alpha 90.000000
_cell_angle_beta 101.515842
_cell_angle_gamma 90.000000
_cell_volume 1708.675211
_symmetry_space_group_name_H-M "C 2/C"
_symmetry_group_IT_number 15
_symmetry_cell_setting 'monoclinic'
loop_
_space_group_symop_operation_xyz
x,y,z
-x,y,1/2-z
-x,-y,-z
x,-y,1/2+z
1/2+x,1/2+y,z
1/2-x,1/2+y,1/2-z
1/2-x,1/2-y,-z
1/2+x,1/2-y,1/2+z
loop_
_atom_site_type_symbol
_atom_site_label
_atom_site_fract_x
_atom_site_fract_y
_atom_site_fract_z
Si Si1 0.935441 0.743329 0.091667
Si Si2 0.386712 0.542146 0.467609
Si Si3 0.385865 0.181277 0.546339
Si Si4 0.700291 0.381338 0.848281
Si Si5 0.428374 0.031447 0.106630
O O1 0.871683 0.637951 0.070236
O O2 0.000000 0.761082 0.250000
O O3 0.012646 0.718933 0.989651
O O4 0.883861 0.849239 0.044839
O O5 0.500000 0.500000 0.500000
O O6 0.325436 0.457839 0.532933
O O7 0.341983 0.565918 0.302057
O O8 0.349955 0.273633 0.630775
O O9 0.314586 0.149559 0.395988
O O10 0.383349 0.076759 0.633292
O O11 0.500000 0.060852 0.250000
O O12 0.500000 0.000000 0.000000
#
# Coordination Sequence:
#
# PCOD9284227 Si02
#       5
#     8   8   8   8   8
#     4  10  21  40  67  99 129 169 228 280 327 409
#     4  12  24  42  69  98 133 182 233 275 336 408
#     4  10  23  44  65  95 136 175 220 275 351 399
#     4  11  26  43  67  97 136 178 220 287 338 401
#     4   9  20  35  62  91 120 164 213 264 321 399
#
# _framework density 23.409949999999998
#
# number of rings (size 3 to 8) (size 9 to 14) (size 15 to 20)
#    0.000    1.600    2.000    1.800    5.600    4.800 
#    3.600    2.000    0.000    0.000    0.000    0.000 
#    0.000    0.000    0.000    0.000    0.000    0.000 
#
# Total GULP energy -111583.292284 kJ/mol
# GULP energy per Si atom -5579.164614 kJ/mol
# Density = 2.335667 g / cm^3
# Si number density = 23.409950 Si / 1000 Ang^3
#
#
#
# Elastic Constant Matrix: (Units=GPa)
#
#
# Indices 1 2 3 4 5 6 
#
# 1 45.7567 28.9526 6.7377 0.0000 4.6447 0.0000
# 2 28.9526 215.7682 20.1165 0.0000 1.5732 0.0000
# 3 6.7377 20.1165 104.9173 0.0000 9.6061 0.0000
# 4 0.0000 0.0000 0.0000 36.0236 0.0000 10.0998
# 5 4.6447 1.5732 9.6061 0.0000 17.3803 0.0000
# 6 0.0000 0.0000 0.0000 10.0998 0.0000 12.0893
#
#
#
# Elastic Compliance Matrix: (Units=1/GPa)
#
#
# Indices 1 2 3 4 5 6 
#
# 1 0.024562 -0.003214 -0.000407 0.000000 -0.006048 0.000000
# 2 -0.003214 0.005140 -0.000859 0.000000 0.000868 0.000000
# 3 -0.000407 -0.000859 0.010222 0.000000 -0.005463 0.000000
# 4 0.000000 0.000000 0.000000 0.036250 0.000000 -0.030285
# 5 -0.006048 0.000868 -0.005463 0.000000 0.062094 0.000000
# 6 0.000000 0.000000 0.000000 -0.030285 0.000000 0.108019
#
#
# Mechanical properties :
#
#
# Convention : Reuss Voigt Hill
#
# Bulk Modulus (GPa) = 32.29496 53.11730 42.70613
# Shear Modulus (GPa) = 18.82756 33.80768 26.31762
#
# Velocity S-wave (km/s) = 2.83901 3.80433 3.35656
# Velocity P-wave (km/s) = 4.95702 6.48356 5.77099
#
# Compressibility (1/GPa) = 0.03096458
#
# Stress axis : x y z
#
# Youngs Moduli (GPa) = 40.71302 194.56953 97.82526
#
# Poissons Ratio (x) = 0.62530 0.03986
# Poissons Ratio (y) = 0.13084 0.08399
# Poissons Ratio (z) = 0.01659 0.16705
#
# Static dielectric constant tensor:
#      x y z
#    x 1.961940 0.000000 0.051290 
#    y 0.000000 1.989830 0.000000 
#    z 0.051290 0.000000 1.905400 
# 
# From -- ./inp_files/103366.got.cif
#   From: 2010.05.17/outbox.cif.g08.bks.cpg/sg15_52_cif.got.tgz:103366.got - 2010.06.03 18:47:42.
