data_PCOD9284294
_publ_section_title
;
Structure prediction by ZEFSAII (Michael W. Deem and Ramdas Pophale) SiO2 
 PCOD9284294
Probable space group: C 2/C
;
_chemical_formula_sum "Si O2"
_cell_formula_units_Z 64
_cell_length_a 19.904197
_cell_length_b 11.109767
_cell_length_c 28.135769
_cell_angle_alpha 90.000000
_cell_angle_beta 28.445518
_cell_angle_gamma 90.000000
_cell_volume 2963.533566
_symmetry_space_group_name_H-M "C 2/C"
_symmetry_group_IT_number 15
_symmetry_cell_setting 'monoclinic'
loop_
_space_group_symop_operation_xyz
x,y,z
-x,y,1/2-z
-x,-y,-z
x,-y,1/2+z
1/2+x,1/2+y,z
1/2-x,1/2+y,1/2-z
1/2-x,1/2-y,-z
1/2+x,1/2-y,1/2+z
loop_
_atom_site_type_symbol
_atom_site_label
_atom_site_fract_x
_atom_site_fract_y
_atom_site_fract_z
Si Si1 0.921086 0.919690 0.748790
Si Si2 0.151140 0.716750 0.431897
Si Si3 0.966908 0.594372 0.375376
Si Si4 0.884324 0.196638 0.444323
Si Si5 0.715300 0.566974 0.463364
Si Si6 0.591699 0.310512 0.240874
Si Si7 0.592625 0.205718 0.993306
Si Si8 0.116611 0.577042 0.714467
O O1 0.756781 0.894346 0.859040
O O2 0.000000 0.908051 0.750000
O O3 0.986543 0.823062 0.671723
O O4 0.946239 0.056392 0.716705
O O5 0.096197 0.727301 0.520007
O O6 0.255926 0.830869 0.358089
O O7 0.024967 0.716382 0.473526
O O8 0.056935 0.706899 0.299879
O O9 0.038903 0.474430 0.309152
O O10 0.813922 0.605777 0.445707
O O11 0.948483 0.604249 0.442855
O O12 0.750000 0.250000 0.500000
O O13 0.848997 0.061405 0.483391
O O14 0.610163 0.670074 0.512161
O O15 0.818932 0.536742 0.354525
O O16 0.500000 0.290323 0.250000
O O17 0.754322 0.313983 0.124536
O O18 0.000000 0.627835 0.750000
#
# Coordination Sequence:
#
# PCOD9284294 Si02
#       8
#     8   8   8   8   8   8   8   8
#     4  11  24  43  69  97 134 177 227 283 336 400
#     4  11  26  45  64 101 141 177 224 276 343 414
#     4  11  21  40  69 100 125 175 228 276 338 391
#     4  11  24  43  72  98 134 182 234 276 333 405
#     4  10  21  40  68  98 126 175 230 279 327 395
#     4  11  23  43  66  98 136 171 228 286 332 408
#     4  12  25  41  67 101 143 175 216 283 352 411
#     4   9  19  40  70  92 126 169 231 283 312 388
#
# _framework density 21.595841
#
# number of rings (size 3 to 8) (size 9 to 14) (size 15 to 20)
#    0.000    1.250    3.750    1.875    7.000    3.500 
#    4.500    0.000    0.000    0.000    0.000    0.000 
#    0.000    0.000    0.000    0.000    0.000    0.000 
#
# Total GULP energy -179044.509136 kJ/mol
# GULP energy per Si atom -5595.140910 kJ/mol
# Density = 2.154669 g / cm^3
# Si number density = 21.595841 Si / 1000 Ang^3
#
#
#
# Elastic Constant Matrix: (Units=GPa)
#
#
# Indices 1 2 3 4 5 6 
#
# 1 129.1260 3.7209 54.3082 0.0000 -16.9959 0.0000
# 2 3.7209 60.2955 6.4664 -0.0001 -2.4165 0.0002
# 3 54.3082 6.4664 104.5547 -0.0004 -5.2375 -0.0003
# 4 0.0000 -0.0001 -0.0004 32.7355 0.0001 5.5218
# 5 -16.9959 -2.4165 -5.2375 0.0001 36.5529 -0.0002
# 6 0.0000 0.0002 -0.0003 5.5218 -0.0002 65.5608
#
#
#
# Elastic Compliance Matrix: (Units=1/GPa)
#
#
# Indices 1 2 3 4 5 6 
#
# 1 0.010493 0.000081 -0.005249 0.000000 0.004132 0.000000
# 2 0.000081 0.016730 -0.001027 0.000000 0.000997 0.000000
# 3 -0.005249 -0.001027 0.012317 0.000000 -0.000743 0.000000
# 4 0.000000 0.000000 0.000000 0.030988 0.000000 -0.002610
# 5 0.004132 0.000997 -0.000743 0.000000 0.029238 0.000000
# 6 0.000000 0.000000 0.000000 -0.002610 0.000000 0.015473
#
#
# Mechanical properties :
#
#
# Convention : Reuss Voigt Hill
#
# Bulk Modulus (GPa) = 36.83040 46.99635 41.91338
# Shear Modulus (GPa) = 36.58209 42.26856 39.42532
#
# Velocity S-wave (km/s) = 4.12022 4.42889 4.27734
# Velocity P-wave (km/s) = 6.30288 6.92549 6.62151
#
# Compressibility (1/GPa) = 0.02715148
#
# Stress axis : x y z
#
# Youngs Moduli (GPa) = 95.29795 59.77268 81.18959
#
# Poissons Ratio (x) = -0.00484 0.42613
# Poissons Ratio (y) = -0.00771 0.08337
# Poissons Ratio (z) = 0.50017 0.06138
#
# Static dielectric constant tensor:
#      x y z
#    x 1.726840 0.000000 0.057870 
#    y 0.000000 1.829260 0.000000 
#    z 0.057870 0.000000 1.799840 
# 
# From -- ./inp_files/316168.got.cif
#   From: 2010.05.17/outbox.cif.g08.bks.cpg/sg15_159_cif.got.tgz:316168.got - 2010.06.03 18:47:42.
