data_PCOD9284173
_publ_section_title
;
Structure prediction by ZEFSAII (Michael W. Deem and Ramdas Pophale) SiO2 
 PCOD9284173
Probable space group: C 2/C
;
_chemical_formula_sum "Si O2"
_cell_formula_units_Z 48
_cell_length_a 10.648062
_cell_length_b 9.629554
_cell_length_c 24.664035
_cell_angle_alpha 90.000000
_cell_angle_beta 63.044479
_cell_angle_gamma 90.000000
_cell_volume 2254.204827
_symmetry_space_group_name_H-M "C 2/C"
_symmetry_group_IT_number 15
_symmetry_cell_setting 'monoclinic'
loop_
_space_group_symop_operation_xyz
x,y,z
-x,y,1/2-z
-x,-y,-z
x,-y,1/2+z
1/2+x,1/2+y,z
1/2-x,1/2+y,1/2-z
1/2-x,1/2-y,-z
1/2+x,1/2-y,1/2+z
loop_
_atom_site_type_symbol
_atom_site_label
_atom_site_fract_x
_atom_site_fract_y
_atom_site_fract_z
Si Si1 0.500000 0.736030 0.750000
Si Si2 0.815367 0.528539 0.233845
Si Si3 0.384761 0.112657 0.003603
Si Si4 0.272004 0.185127 0.141994
Si Si5 0.041636 0.070554 0.841883
Si Si6 0.086023 0.921704 0.530366
Si Si7 0.000000 0.708033 0.750000
O O1 0.620459 0.837848 0.748344
O O2 0.454573 0.646532 0.811161
O O3 0.822256 0.557179 0.169013
O O4 0.657123 0.514850 0.285654
O O5 0.903471 0.393922 0.232782
O O6 0.304383 0.161347 0.073721
O O7 0.255908 0.057860 0.991551
O O8 0.443767 0.256189 0.967195
O O9 0.500000 0.000000 0.000000
O O10 0.366055 0.314920 0.143699
O O11 0.110478 0.211475 0.190624
O O12 0.959957 0.985886 0.903123
O O13 0.000000 0.000000 0.500000
#
# Coordination Sequence:
#
# PCOD9284173 Si02
#       7
#     4   8   8   8   8   8   4
#     4   9  20  37  56  96 128 161 211 274 340 404
#     4   9  20  36  58  97 129 163 209 274 349 400
#     4  11  27  47  68 101 137 185 237 287 339 408
#     4  10  21  41  66  96 131 170 225 277 340 410
#     4  10  21  40  67  93 130 171 223 279 335 415
#     4  11  25  48  69  96 135 186 233 281 342 407
#     4   9  20  37  62  92 130 173 205 276 342 402
#
# _framework density 21.293538999999999
#
# number of rings (size 3 to 8) (size 9 to 14) (size 15 to 20)
#    0.000    2.000    1.667    0.000    4.667    4.667 
#    9.000    0.000    0.000    0.000    0.000    0.000 
#    0.000    0.000    0.000    0.000    0.000    0.000 
#
# Total GULP energy -134085.239497 kJ/mol
# GULP energy per Si atom -5586.884979 kJ/mol
# Density = 2.124507 g / cm^3
# Si number density = 21.293539 Si / 1000 Ang^3
#
#
#
# Elastic Constant Matrix: (Units=GPa)
#
#
# Indices 1 2 3 4 5 6 
#
# 1 95.9682 43.8237 1.1145 0.0000 2.9625 0.0000
# 2 43.8237 70.7005 17.7367 0.0000 -2.6031 0.0000
# 3 1.1145 17.7367 73.6039 0.0000 11.8795 0.0000
# 4 0.0000 0.0000 0.0000 35.3823 0.0000 3.3573
# 5 2.9625 -2.6031 11.8795 0.0000 31.4726 0.0000
# 6 0.0000 0.0000 0.0000 3.3573 0.0000 32.1796
#
#
#
# Elastic Compliance Matrix: (Units=1/GPa)
#
#
# Indices 1 2 3 4 5 6 
#
# 1 0.015152 -0.010207 0.002765 0.000000 -0.003314 0.000000
# 2 -0.010207 0.022163 -0.006003 0.000000 0.005060 0.000000
# 3 0.002765 -0.006003 0.016093 0.000000 -0.006831 0.000000
# 4 0.000000 0.000000 0.000000 0.028545 0.000000 -0.002978
# 5 -0.003314 0.005060 -0.006831 0.000000 0.035083 0.000000
# 6 0.000000 0.000000 0.000000 -0.002978 0.000000 0.031386
#
#
# Mechanical properties :
#
#
# Convention : Reuss Voigt Hill
#
# Bulk Modulus (GPa) = 37.70987 40.62470 39.16729
# Shear Modulus (GPa) = 27.15143 31.64675 29.39909
#
# Velocity S-wave (km/s) = 3.57473 3.85933 3.71975
# Velocity P-wave (km/s) = 5.89799 6.24332 6.07311
#
# Compressibility (1/GPa) = 0.02651826
#
# Stress axis : x y z
#
# Youngs Moduli (GPa) = 66.00001 45.11923 62.13693
#
# Poissons Ratio (x) = 0.46055 -0.17182
# Poissons Ratio (y) = 0.67369 0.37300
# Poissons Ratio (z) = -0.18250 0.27085
#
# Static dielectric constant tensor:
#      x y z
#    x 1.821920 0.000000 0.019240 
#    y 0.000000 1.799740 0.000000 
#    z 0.019240 0.000000 1.725220 
# 
# From -- ./inp_files/291072.got.cif
#   From: 2010.05.17/outbox.cif.g08.bks.cpg/sg15_146_cif.got.tgz:291072.got - 2010.06.03 18:47:42.
