data_PCOD9284977
_publ_section_title
;
Structure prediction by ZEFSAII (Michael W. Deem and Ramdas Pophale) SiO2 
 PCOD9284977
Probable space group: C 2/C
;
_chemical_formula_sum "Si O2"
_cell_formula_units_Z 52
_cell_length_a 20.432224
_cell_length_b 19.087252
_cell_length_c 8.747868
_cell_angle_alpha 90.000000
_cell_angle_beta 45.627545
_cell_angle_gamma 90.000000
_cell_volume 2438.660017
_symmetry_space_group_name_H-M "C 2/C"
_symmetry_group_IT_number 15
_symmetry_cell_setting 'monoclinic'
loop_
_space_group_symop_operation_xyz
x,y,z
-x,y,1/2-z
-x,-y,-z
x,-y,1/2+z
1/2+x,1/2+y,z
1/2-x,1/2+y,1/2-z
1/2-x,1/2-y,-z
1/2+x,1/2-y,1/2+z
loop_
_atom_site_type_symbol
_atom_site_label
_atom_site_fract_x
_atom_site_fract_y
_atom_site_fract_z
Si Si1 0.089026 0.737101 0.822409
Si Si2 0.178200 0.408515 0.461122
Si Si3 0.170664 0.444062 0.825288
Si Si4 0.000000 0.623158 0.750000
Si Si5 0.731864 0.305563 0.809401
Si Si6 0.500000 0.811315 0.750000
Si Si7 0.850796 0.815289 0.222571
Si Si8 0.000000 0.161304 0.250000
O O1 0.063623 0.668579 0.762778
O O2 0.179695 0.760014 0.766364
O O3 0.076208 0.796199 0.717516
O O4 0.009189 0.735131 0.082546
O O5 0.179172 0.435786 0.631688
O O6 0.186004 0.476130 0.343940
O O7 0.264085 0.358671 0.302933
O O8 0.087705 0.361457 0.592224
O O9 0.237873 0.384162 0.785730
O O10 0.068673 0.423520 0.041072
O O11 0.824017 0.264343 0.712971
O O12 0.665441 0.312890 0.066635
O O13 0.936601 0.856208 0.004352
#
# Coordination Sequence:
#
# PCOD9284977 Si02
#       8
#     8   8   8   4   8   4   8   4
#     4  11  22  36  63  94 127 164 210 269 317 379
#     4  11  25  41  64  90 134 175 217 261 324 398
#     4  11  25  41  61  94 131 176 212 265 323 394
#     4  11  23  38  58  98 136 158 220 260 326 400
#     4  10  21  41  66  89 129 169 221 266 323 384
#     4  12  21  40  63  93 126 185 204 258 327 396
#     4  10  22  42  63  94 124 171 217 274 319 384
#     4  11  24  36  61  97 130 157 212 278 321 376
#
# _framework density 21.323186
#
# number of rings (size 3 to 8) (size 9 to 14) (size 15 to 20)
#    0.000    1.231    3.077    3.231    4.308    4.923 
#    0.000    0.000    0.000    9.231    0.000    0.000 
#    0.000    0.000    0.000    0.000    0.000    0.000 
#
# Total GULP energy -144822.585428 kJ/mol
# GULP energy per Si atom -5570.099440 kJ/mol
# Density = 2.127465 g / cm^3
# Si number density = 21.323186 Si / 1000 Ang^3
#
#
#
# Elastic Constant Matrix: (Units=GPa)
#
#
# Indices 1 2 3 4 5 6 
#
# 1 70.9231 3.8147 -2.0394 0.0000 8.7236 0.0000
# 2 3.8147 37.2067 -1.8955 0.0000 4.7206 0.0000
# 3 -2.0394 -1.8955 106.9864 0.0000 -8.0553 0.0000
# 4 0.0000 0.0000 0.0000 57.0089 0.0000 2.4413
# 5 8.7236 4.7206 -8.0553 0.0000 27.5041 0.0000
# 6 0.0000 0.0000 0.0000 2.4413 0.0000 10.6403
#
#
#
# Elastic Compliance Matrix: (Units=1/GPa)
#
#
# Indices 1 2 3 4 5 6 
#
# 1 0.014705 -0.000937 -0.000077 0.000000 -0.004526 0.000000
# 2 -0.000937 0.027537 0.000140 0.000000 -0.004388 0.000000
# 3 -0.000077 0.000140 0.009559 0.000000 0.002800 0.000000
# 4 0.000000 0.000000 0.000000 0.017715 0.000000 -0.004065
# 5 -0.004526 -0.004388 0.002800 0.000000 0.039367 0.000000
# 6 0.000000 0.000000 0.000000 -0.004065 0.000000 0.094915
#
#
# Mechanical properties :
#
#
# Convention : Reuss Voigt Hill
#
# Bulk Modulus (GPa) = 19.97973 23.87507 21.92740
# Shear Modulus (GPa) = 22.49919 33.37975 27.93947
#
# Velocity S-wave (km/s) = 3.25183 3.96083 3.62371
# Velocity P-wave (km/s) = 4.84660 5.66910 5.27391
#
# Compressibility (1/GPa) = 0.05005073
#
# Stress axis : x y z
#
# Youngs Moduli (GPa) = 68.00571 36.31499 104.61552
#
# Poissons Ratio (x) = 0.03404 0.00806
# Poissons Ratio (y) = 0.06375 -0.01461
# Poissons Ratio (z) = 0.00524 -0.00507
#
# Static dielectric constant tensor:
#      x y z
#    x 1.955440 0.000000 0.077940 
#    y 0.000000 1.802500 0.000000 
#    z 0.077940 0.000000 1.872760 
# 
# From -- ./inp_files/40907.got.cif
#   From: 2010.05.17/outbox.cif.g08.bks.cpg/sg15_21_cif.got.tgz:40907.got - 2010.06.03 18:47:42.
