data_PCOD9284494
_publ_section_title
;
Structure prediction by ZEFSAII (Michael W. Deem and Ramdas Pophale) SiO2 
 PCOD9284494
Probable space group: C 2/C
;
_chemical_formula_sum "Si O2"
_cell_formula_units_Z 48
_cell_length_a 26.488164
_cell_length_b 5.007170
_cell_length_c 14.875285
_cell_angle_alpha 90.000000
_cell_angle_beta 81.912802
_cell_angle_gamma 90.000000
_cell_volume 1953.299597
_symmetry_space_group_name_H-M "C 2/C"
_symmetry_group_IT_number 15
_symmetry_cell_setting 'monoclinic'
loop_
_space_group_symop_operation_xyz
x,y,z
-x,y,1/2-z
-x,-y,-z
x,-y,1/2+z
1/2+x,1/2+y,z
1/2-x,1/2+y,1/2-z
1/2-x,1/2-y,-z
1/2+x,1/2-y,1/2+z
loop_
_atom_site_type_symbol
_atom_site_label
_atom_site_fract_x
_atom_site_fract_y
_atom_site_fract_z
Si Si1 0.216095 0.875045 0.364944
Si Si2 0.848667 0.156181 0.459789
Si Si3 0.010952 0.556311 0.151483
Si Si4 0.452051 0.692497 0.520483
Si Si5 0.818071 0.622265 0.730957
Si Si6 0.380241 0.823993 0.849594
O O1 0.201969 0.905135 0.472064
O O2 0.198989 0.578908 0.342871
O O3 0.274286 0.903637 0.318943
O O4 0.184801 0.086959 0.311827
O O5 0.896158 0.081276 0.514681
O O6 0.859793 0.462452 0.429592
O O7 0.852418 0.956171 0.374479
O O8 0.059512 0.744619 0.161143
O O9 0.000000 0.420884 0.250000
O O10 0.961395 0.678753 0.115842
O O11 0.035671 0.385343 0.065938
O O12 0.500000 0.500000 0.500000
O O13 0.867472 0.491068 0.763398
#
# Coordination Sequence:
#
# PCOD9284494 Si02
#       6
#     8   8   8   8   8   8
#     4  10  22  40  62  89 120 165 198 250 318 363
#     4  11  23  39  63  88 121 162 202 248 317 358
#     4  10  23  39  60  89 122 164 207 255 314 364
#     4  10  21  41  59  85 127 160 205 260 301 378
#     4  10  22  40  61  90 125 153 208 254 298 379
#     4  11  23  40  59  92 121 154 209 255 296 376
#
# _framework density 24.573801
#
# number of rings (size 3 to 8) (size 9 to 14) (size 15 to 20)
#    0.000    1.667    1.667    2.000    2.333    3.333 
#    0.000    0.000    0.000    0.000    0.000    0.000 
#    0.000    0.000    0.000    0.000    0.000    0.000 
#
# Total GULP energy -133956.858146 kJ/mol
# GULP energy per Si atom -5581.535756 kJ/mol
# Density = 2.451787 g / cm^3
# Si number density = 24.573801 Si / 1000 Ang^3
#
#
#
# Elastic Constant Matrix: (Units=GPa)
#
#
# Indices 1 2 3 4 5 6 
#
# 1 62.4505 7.8852 34.2275 0.0000 10.0526 0.0000
# 2 7.8852 67.1119 4.8052 0.0000 -6.1256 0.0000
# 3 34.2275 4.8052 89.9214 0.0000 -0.1338 0.0000
# 4 0.0000 0.0000 0.0000 14.1729 0.0000 5.2847
# 5 10.0526 -6.1256 -0.1338 0.0000 32.7615 0.0000
# 6 0.0000 0.0000 0.0000 5.2847 0.0000 27.4609
#
#
#
# Elastic Compliance Matrix: (Units=1/GPa)
#
#
# Indices 1 2 3 4 5 6 
#
# 1 0.022053 -0.002666 -0.008262 0.000000 -0.007299 0.000000
# 2 -0.002666 0.015540 0.000190 0.000000 0.003724 0.000000
# 3 -0.008262 0.000190 0.014260 0.000000 0.002629 0.000000
# 4 0.000000 0.000000 0.000000 0.076012 0.000000 -0.014628
# 5 -0.007299 0.003724 0.002629 0.000000 0.033470 0.000000
# 6 0.000000 0.000000 0.000000 -0.014628 0.000000 0.039231
#
#
# Mechanical properties :
#
#
# Convention : Reuss Voigt Hill
#
# Bulk Modulus (GPa) = 32.92121 34.81326 33.86724
# Shear Modulus (GPa) = 21.53628 26.38346 23.95987
#
# Velocity S-wave (km/s) = 2.96360 3.28020 3.12591
# Velocity P-wave (km/s) = 5.01364 5.34265 5.18075
#
# Compressibility (1/GPa) = 0.03037555
#
# Stress axis : x y z
#
# Youngs Moduli (GPa) = 45.34622 64.34999 70.12819
#
# Poissons Ratio (x) = 0.17153 0.57943
# Poissons Ratio (y) = 0.12088 -0.01331
# Poissons Ratio (z) = 0.37467 -0.01221
#
# Static dielectric constant tensor:
#      x y z
#    x 2.149630 0.000000 0.227400 
#    y 0.000000 1.977900 0.000000 
#    z 0.227400 0.000000 2.211510 
# 
# From -- ./inp_files/179700.got.cif
#   From: 2010.05.17/outbox.cif.g08.bks.cpg/sg15_90_cif.got.tgz:179700.got - 2010.06.03 18:47:42.
