data_PCOD9284011
_publ_section_title
;
Structure prediction by ZEFSAII (Michael W. Deem and Ramdas Pophale) SiO2 
 PCOD9284011
Probable space group: C 2/C
;
_chemical_formula_sum "Si O2"
_cell_formula_units_Z 56
_cell_length_a 17.016609
_cell_length_b 28.397694
_cell_length_c 5.758112
_cell_angle_alpha 90.000000
_cell_angle_beta 116.646195
_cell_angle_gamma 90.000000
_cell_volume 2486.984750
_symmetry_space_group_name_H-M "C 2/C"
_symmetry_group_IT_number 15
_symmetry_cell_setting 'monoclinic'
loop_
_space_group_symop_operation_xyz
x,y,z
-x,y,1/2-z
-x,-y,-z
x,-y,1/2+z
1/2+x,1/2+y,z
1/2-x,1/2+y,1/2-z
1/2-x,1/2-y,-z
1/2+x,1/2-y,1/2+z
loop_
_atom_site_type_symbol
_atom_site_label
_atom_site_fract_x
_atom_site_fract_y
_atom_site_fract_z
Si Si1 0.866601 0.383881 0.103286
Si Si2 0.172193 0.880225 0.059834
Si Si3 0.082095 0.700204 0.528399
Si Si4 0.327605 0.285916 0.678252
Si Si5 0.274432 0.151922 0.086144
Si Si6 0.103176 0.980980 0.884955
Si Si7 0.900185 0.483835 0.333709
O O1 0.765438 0.385521 0.053276
O O2 0.914524 0.337703 0.260792
O O3 0.906373 0.429420 0.271223
O O4 0.850959 0.378928 0.809392
O O5 0.203427 0.880720 0.366730
O O6 0.142947 0.826931 0.960839
O O7 0.113994 0.924408 0.914649
O O8 0.093230 0.752636 0.638934
O O9 0.171392 0.686288 0.510279
O O10 0.000000 0.695473 0.250000
O O11 0.250000 0.250000 0.500000
O O12 0.281455 0.314740 0.822247
O O13 0.000000 0.993895 0.750000
O O14 0.139383 0.998491 0.680625
O O15 0.860586 0.492836 0.541814
O O16 0.000000 0.500000 0.500000
#
# Coordination Sequence:
#
# PCOD9284011 Si02
#       7
#     8   8   8   8   8   8   8
#     4  10  23  40  62  90 124 171 226 266 327 398
#     4  10  23  40  69  96 126 170 222 272 330 409
#     4  11  24  38  62  94 129 169 220 272 329 405
#     4  11  20  43  62  95 129 173 221 267 338 401
#     4  10  21  40  66  86 128 173 214 272 333 392
#     4  10  24  47  72 102 141 179 222 285 358 415
#     4  10  24  40  59  85 123 169 215 269 327 372
#
# _framework density 22.517226000000001
#
# number of rings (size 3 to 8) (size 9 to 14) (size 15 to 20)
#    0.000    1.714    4.286    0.429   10.000    2.857 
#    2.571    0.000    0.000    0.000    0.000    0.000 
#    0.000    0.000    0.000    0.000    0.000    0.000 
#
# Total GULP energy -156104.260105 kJ/mol
# GULP energy per Si atom -5575.152147 kJ/mol
# Density = 2.246598 g / cm^3
# Si number density = 22.517226 Si / 1000 Ang^3
#
#
#
# Elastic Constant Matrix: (Units=GPa)
#
#
# Indices 1 2 3 4 5 6 
#
# 1 24.1909 -2.2154 14.7294 0.0000 -5.2518 0.0000
# 2 -2.2154 109.1085 50.2649 0.0000 -11.8163 0.0000
# 3 14.7294 50.2649 130.9479 0.0000 -23.9689 0.0000
# 4 0.0000 0.0000 0.0000 55.2443 0.0000 10.8947
# 5 -5.2518 -11.8163 -23.9689 0.0000 25.0863 0.0000
# 6 0.0000 0.0000 0.0000 10.8947 0.0000 22.2458
#
#
#
# Elastic Compliance Matrix: (Units=1/GPa)
#
#
# Indices 1 2 3 4 5 6 
#
# 1 0.046580 0.004264 -0.005725 0.000000 0.006290 0.000000
# 2 0.004264 0.011566 -0.004555 0.000000 0.001988 0.000000
# 3 -0.005725 -0.004555 0.011413 0.000000 0.007560 0.000000
# 4 0.000000 0.000000 0.000000 0.020037 0.000000 -0.009813
# 5 0.006290 0.001988 0.007560 0.000000 0.049339 0.000000
# 6 0.000000 0.000000 0.000000 -0.009813 0.000000 0.049758
#
#
# Mechanical properties :
#
#
# Convention : Reuss Voigt Hill
#
# Bulk Modulus (GPa) = 17.38322 43.31167 30.34745
# Shear Modulus (GPa) = 22.73764 33.94651 28.34207
#
# Velocity S-wave (km/s) = 3.18116 3.88697 3.55164
# Velocity P-wave (km/s) = 4.60758 6.27864 5.50687
#
# Compressibility (1/GPa) = 0.05752673
#
# Stress axis : x y z
#
# Youngs Moduli (GPa) = 21.46856 86.46286 87.61907
#
# Poissons Ratio (x) = -0.36872 0.50162
# Poissons Ratio (y) = -0.09155 0.39913
# Poissons Ratio (z) = 0.12291 0.39386
#
# Static dielectric constant tensor:
#      x y z
#    x 1.841970 0.000000 -0.071850 
#    y 0.000000 1.874940 0.000000 
#    z -0.071850 0.000000 2.023220 
# 
# From -- ./inp_files/12214.got.cif
#   From: 2010.05.17/outbox.cif.g08.bks.cpg/sg15_7_cif.got.tgz:12214.got - 2010.06.03 18:47:42.
