data_PCOD9284113
_publ_section_title
;
Structure prediction by ZEFSAII (Michael W. Deem and Ramdas Pophale) SiO2 
 PCOD9284113
Probable space group: C 2/C
;
_chemical_formula_sum "Si O2"
_cell_formula_units_Z 48
_cell_length_a 25.081548
_cell_length_b 9.393833
_cell_length_c 20.631222
_cell_angle_alpha 90.000000
_cell_angle_beta 26.830003
_cell_angle_gamma 90.000000
_cell_volume 2193.969810
_symmetry_space_group_name_H-M "C 2/C"
_symmetry_group_IT_number 15
_symmetry_cell_setting 'monoclinic'
loop_
_space_group_symop_operation_xyz
x,y,z
-x,y,1/2-z
-x,-y,-z
x,-y,1/2+z
1/2+x,1/2+y,z
1/2-x,1/2+y,1/2-z
1/2-x,1/2-y,-z
1/2+x,1/2-y,1/2+z
loop_
_atom_site_type_symbol
_atom_site_label
_atom_site_fract_x
_atom_site_fract_y
_atom_site_fract_z
Si Si1 0.786152 0.007448 0.348779
Si Si2 0.046943 0.026137 0.519594
Si Si3 0.583533 0.935910 0.320157
Si Si4 0.878895 0.227403 0.494136
Si Si5 0.116184 0.346277 0.434210
Si Si6 0.726685 0.407437 0.497417
O O1 0.731369 0.163633 0.390163
O O2 0.762145 0.992604 0.452097
O O3 0.926223 0.988787 0.191332
O O4 0.718027 0.908497 0.370856
O O5 0.131505 0.893939 0.441418
O O6 0.108312 0.178273 0.454903
O O7 0.000000 0.000000 0.500000
O O8 0.491919 0.820757 0.389620
O O9 0.619436 0.886454 0.353967
O O10 0.683793 0.951637 0.156931
O O11 0.506988 0.079598 0.410304
O O12 0.890173 0.131299 0.417068
O O13 0.750000 0.250000 0.500000
#
# Coordination Sequence:
#
# PCOD9284113 Si02
#       6
#     8   8   8   8   8   8
#     4  10  25  44  64 100 137 177 233 275 348 405
#     4  12  25  40  66 102 134 174 230 276 346 412
#     4  10  21  42  66  97 132 179 230 277 353 390
#     4  10  21  40  66  98 132 175 221 288 329 406
#     4  10  24  42  66  96 139 178 219 289 338 415
#     4  10  22  39  69  98 128 179 229 282 329 408
#
# _framework density 21.878149000000001
#
# number of rings (size 3 to 8) (size 9 to 14) (size 15 to 20)
#    0.000    1.667    1.667    2.000    2.333   10.667 
#    0.000    5.000    0.000    0.000    0.000    0.000 
#    0.000    0.000    0.000    0.000    0.000    0.000 
#
# Total GULP energy -133772.941632 kJ/mol
# GULP energy per Si atom -5573.872568 kJ/mol
# Density = 2.182835 g / cm^3
# Si number density = 21.878149 Si / 1000 Ang^3
#
#
#
# Elastic Constant Matrix: (Units=GPa)
#
#
# Indices 1 2 3 4 5 6 
#
# 1 130.0853 15.5616 10.9185 0.0000 17.3880 0.0000
# 2 15.5616 86.3602 -4.6878 0.0000 -0.8289 0.0000
# 3 10.9185 -4.6878 96.4647 0.0000 21.3751 0.0000
# 4 0.0000 0.0000 0.0000 15.6243 0.0000 -4.0288
# 5 17.3880 -0.8289 21.3751 0.0000 35.2210 0.0000
# 6 0.0000 0.0000 0.0000 -4.0288 0.0000 37.9975
#
#
#
# Elastic Compliance Matrix: (Units=1/GPa)
#
#
# Indices 1 2 3 4 5 6 
#
# 1 0.008437 -0.001566 -0.000115 0.000000 -0.004132 0.000000
# 2 -0.001566 0.011901 0.000603 0.000000 0.000687 0.000000
# 3 -0.000115 0.000603 0.012008 0.000000 -0.007216 0.000000
# 4 0.000000 0.000000 0.000000 0.065802 0.000000 0.006977
# 5 -0.004132 0.000687 -0.007216 0.000000 0.034827 0.000000
# 6 0.000000 0.000000 0.000000 0.006977 0.000000 0.027057
#
#
# Mechanical properties :
#
#
# Convention : Reuss Voigt Hill
#
# Bulk Modulus (GPa) = 33.12476 39.61053 36.36765
# Shear Modulus (GPa) = 29.02730 37.17641 33.10185
#
# Velocity S-wave (km/s) = 3.64644 4.12667 3.89396
# Velocity P-wave (km/s) = 5.73604 6.39142 6.07257
#
# Compressibility (1/GPa) = 0.03018890
#
# Stress axis : x y z
#
# Youngs Moduli (GPa) = 118.53129 84.02675 83.27866
#
# Poissons Ratio (x) = 0.13160 0.00962
# Poissons Ratio (y) = 0.18564 -0.05025
# Poissons Ratio (z) = 0.01369 -0.05070
#
# Static dielectric constant tensor:
#      x y z
#    x 1.891180 0.000000 0.081000 
#    y 0.000000 1.781310 0.000000 
#    z 0.081000 0.000000 2.381660 
# 
# From -- ./inp_files/219420.got.cif
#   From: 2010.05.17/outbox.cif.g08.bks.cpg/sg15_110_cif.got.tgz:219420.got - 2010.06.03 18:47:42.
