data_PCOD9284171
_publ_section_title
;
Structure prediction by ZEFSAII (Michael W. Deem and Ramdas Pophale) SiO2 
 PCOD9284171
Probable space group: C 2/C
;
_chemical_formula_sum "Si O2"
_cell_formula_units_Z 52
_cell_length_a 17.024464
_cell_length_b 29.558259
_cell_length_c 5.096617
_cell_angle_alpha 90.000000
_cell_angle_beta 114.248634
_cell_angle_gamma 90.000000
_cell_volume 2338.408973
_symmetry_space_group_name_H-M "C 2/C"
_symmetry_group_IT_number 15
_symmetry_cell_setting 'monoclinic'
loop_
_space_group_symop_operation_xyz
x,y,z
-x,y,1/2-z
-x,-y,-z
x,-y,1/2+z
1/2+x,1/2+y,z
1/2-x,1/2+y,1/2-z
1/2-x,1/2-y,-z
1/2+x,1/2-y,1/2+z
loop_
_atom_site_type_symbol
_atom_site_label
_atom_site_fract_x
_atom_site_fract_y
_atom_site_fract_z
Si Si1 0.755401 0.346430 0.960828
Si Si2 0.101001 0.969019 0.396488
Si Si3 0.592954 0.029695 0.332241
Si Si4 0.168016 0.263793 0.711574
Si Si5 0.256616 0.903187 0.483345
Si Si6 0.082730 0.811245 0.756764
Si Si7 0.500000 0.760817 0.750000
O O1 0.801496 0.298533 0.971102
O O2 0.791537 0.381697 0.801071
O O3 0.656323 0.340416 0.729075
O O4 0.752893 0.365569 0.249916
O O5 0.167036 0.929156 0.415567
O O6 0.000000 0.955321 0.250000
O O7 0.115646 0.991127 0.702089
O O8 0.500000 0.052470 0.250000
O O9 0.673619 0.060290 0.508367
O O10 0.595957 0.987881 0.539030
O O11 0.132502 0.216803 0.548174
O O12 0.083484 0.284919 0.739481
O O13 0.250000 0.250000 0.000000
O O14 0.044132 0.772382 0.520943
O O15 0.000000 0.837605 0.750000
#
# Coordination Sequence:
#
# PCOD9284171 Si02
#       7
#     8   8   8   8   8   8   4
#     4  12  26  40  64  93 139 171 202 277 340 390
#     4  10  21  40  67  93 127 170 216 259 305 384
#     4  10  21  42  71  92 120 168 222 267 308 380
#     4  11  22  43  68  90 128 171 235 276 326 394
#     4  12  25  40  62  99 134 169 207 260 343 393
#     4  10  23  41  66  92 120 173 233 272 317 392
#     4  10  22  40  70  92 112 168 240 274 316 384
#
# _framework density 22.237342000000002
#
# number of rings (size 3 to 8) (size 9 to 14) (size 15 to 20)
#    0.000    1.231    1.538    4.154    4.308    1.231 
#    1.385    0.000    0.000    0.000    0.000    0.000 
#    0.000    0.000    0.000    0.000    0.000    0.000 
#
# Total GULP energy -145247.303390 kJ/mol
# GULP energy per Si atom -5586.434746 kJ/mol
# Density = 2.218673 g / cm^3
# Si number density = 22.237342 Si / 1000 Ang^3
#
#
#
# Elastic Constant Matrix: (Units=GPa)
#
#
# Indices 1 2 3 4 5 6 
#
# 1 154.6413 39.0089 14.9773 0.0000 9.5794 0.0000
# 2 39.0089 47.1654 3.9030 0.0000 5.2279 0.0000
# 3 14.9773 3.9030 86.2337 0.0000 1.2140 0.0000
# 4 0.0000 0.0000 0.0000 24.1191 0.0000 -15.7775
# 5 9.5794 5.2279 1.2140 0.0000 36.6241 0.0000
# 6 0.0000 0.0000 0.0000 -15.7775 0.0000 10.4811
#
#
#
# Elastic Compliance Matrix: (Units=1/GPa)
#
#
# Indices 1 2 3 4 5 6 
#
# 1 0.008331 -0.006665 -0.001129 0.000000 -0.001190 0.000000
# 2 -0.006665 0.026950 -0.000033 0.000000 -0.002103 0.000000
# 3 -0.001129 -0.000033 0.011795 0.000000 -0.000091 0.000000
# 4 0.000000 0.000000 0.000000 2.711509 0.000000 4.081701
# 5 -0.001190 -0.002103 -0.000091 0.000000 0.027919 0.000000
# 6 0.000000 0.000000 0.000000 4.081701 0.000000 6.239695
#
#
# Mechanical properties :
#
#
# Convention : Reuss Voigt Hill
#
# Bulk Modulus (GPa) = 31.82270 44.86874 38.34572
# Shear Modulus (GPa) = 0.55234 29.58829 15.07032
#
# Velocity S-wave (km/s) = 0.49892 3.65165 2.60610
# Velocity P-wave (km/s) = 3.83059 6.16445 5.13195
#
# Compressibility (1/GPa) = 0.03142411
#
# Stress axis : x y z
#
# Youngs Moduli (GPa) = 120.03590 37.10571 84.78058
#
# Poissons Ratio (x) = 0.24730 0.09568
# Poissons Ratio (y) = 0.80002 0.00276
# Poissons Ratio (z) = 0.13546 0.00121
#
# Static dielectric constant tensor:
#      x y z
#    x 1.955970 0.000000 -0.027310 
#    y 0.000000 1.794360 0.000000 
#    z -0.027310 0.000000 1.859870 
# 
# From -- ./inp_files/11617.got.cif
#   From: 2010.05.17/outbox.cif.g08.bks.cpg/sg15_6_cif.got.tgz:11617.got - 2010.06.03 18:47:42.
