data_PCOD9284770
_publ_section_title
;
Structure prediction by ZEFSAII (Michael W. Deem and Ramdas Pophale) SiO2 
 PCOD9284770
Probable space group: C 2/C
;
_chemical_formula_sum "Si O2"
_cell_formula_units_Z 56
_cell_length_a 6.954157
_cell_length_b 24.164751
_cell_length_c 17.319247
_cell_angle_alpha 90.000000
_cell_angle_beta 79.114205
_cell_angle_gamma 90.000000
_cell_volume 2858.049657
_symmetry_space_group_name_H-M "C 2/C"
_symmetry_group_IT_number 15
_symmetry_cell_setting 'monoclinic'
loop_
_space_group_symop_operation_xyz
x,y,z
-x,y,1/2-z
-x,-y,-z
x,-y,1/2+z
1/2+x,1/2+y,z
1/2-x,1/2+y,1/2-z
1/2-x,1/2-y,-z
1/2+x,1/2-y,1/2+z
loop_
_atom_site_type_symbol
_atom_site_label
_atom_site_fract_x
_atom_site_fract_y
_atom_site_fract_z
Si Si1 0.823964 0.187968 0.084549
Si Si2 0.630271 0.189688 0.930241
Si Si3 0.297435 0.348089 0.031004
Si Si4 0.462018 0.374240 0.339406
Si Si5 0.622129 0.916363 0.662152
Si Si6 0.978032 0.005040 0.162054
Si Si7 0.356329 0.047383 0.042881
O O1 0.809930 0.251534 0.111009
O O2 0.735321 0.141885 0.147143
O O3 0.706424 0.186313 0.012303
O O4 0.045895 0.171313 0.044820
O O5 0.397983 0.187262 0.949706
O O6 0.737443 0.139472 0.878209
O O7 0.408947 0.346055 0.103994
O O8 0.220632 0.409417 0.014931
O O9 0.500000 0.354454 0.250000
O O10 0.519357 0.438667 0.338841
O O11 0.500000 0.921255 0.750000
O O12 0.478776 0.921209 0.599898
O O13 0.782651 0.965464 0.646113
O O14 0.000000 0.022702 0.250000
O O15 0.163900 0.022817 0.097768
O O16 0.500000 0.000000 0.000000
#
# Coordination Sequence:
#
# PCOD9284770 Si02
#       7
#     8   8   8   8   8   8   8
#     4  10  22  39  64  92 125 161 208 264 304 377
#     4  10  21  41  64  91 122 164 211 256 317 368
#     4  11  21  39  65  91 121 163 210 257 311 372
#     4  10  24  41  62  89 127 161 207 260 310 374
#     4  12  24  41  64  96 128 166 210 260 323 378
#     4  11  23  42  61  92 132 167 204 262 321 380
#     4  12  24  37  65  95 128 167 213 259 314 384
#
# _framework density 19.593781
#
# number of rings (size 3 to 8) (size 9 to 14) (size 15 to 20)
#    0.000    1.143    4.286    2.143    2.000    2.286 
#    0.000    0.000    6.286    0.000    0.000    0.000 
#    0.000    0.000    0.000    0.000    0.000    0.000 
#
# Total GULP energy -156392.835562 kJ/mol
# GULP energy per Si atom -5585.458413 kJ/mol
# Density = 1.954919 g / cm^3
# Si number density = 19.593781 Si / 1000 Ang^3
#
#
#
# Elastic Constant Matrix: (Units=GPa)
#
#
# Indices 1 2 3 4 5 6 
#
# 1 106.6908 12.4819 32.7988 0.0000 -21.0480 0.0000
# 2 12.4819 70.8143 20.6775 0.0000 -17.7323 0.0000
# 3 32.7988 20.6775 74.2721 0.0000 -18.7529 0.0000
# 4 0.0000 0.0000 0.0000 9.0547 0.0000 -8.0022
# 5 -21.0480 -17.7323 -18.7529 0.0000 32.3930 0.0000
# 6 0.0000 0.0000 0.0000 -8.0022 0.0000 20.1312
#
#
#
# Elastic Compliance Matrix: (Units=1/GPa)
#
#
# Indices 1 2 3 4 5 6 
#
# 1 0.011599 0.000473 -0.003848 0.000000 0.005568 0.000000
# 2 0.000473 0.016855 -0.002921 0.000000 0.007843 0.000000
# 3 -0.003848 -0.002921 0.017499 0.000000 0.006031 0.000000
# 4 0.000000 0.000000 0.000000 0.170247 0.000000 0.067674
# 5 0.005568 0.007843 0.006031 0.000000 0.042274 0.000000
# 6 0.000000 0.000000 0.000000 0.067674 0.000000 0.076575
#
#
# Mechanical properties :
#
#
# Convention : Reuss Voigt Hill
#
# Bulk Modulus (GPa) = 29.97458 42.63264 36.30361
# Shear Modulus (GPa) = 13.93685 24.70369 19.32027
#
# Velocity S-wave (km/s) = 2.66989 3.55462 3.14354
# Velocity P-wave (km/s) = 4.98354 6.21712 5.63419
#
# Compressibility (1/GPa) = 0.03336160
#
# Stress axis : x y z
#
# Youngs Moduli (GPa) = 86.21485 59.32983 57.14464
#
# Poissons Ratio (x) = -0.02809 0.21990
# Poissons Ratio (y) = -0.04082 0.16693
# Poissons Ratio (z) = 0.33176 0.17332
#
# Static dielectric constant tensor:
#      x y z
#    x 1.676480 0.000000 0.005470 
#    y 0.000000 1.712130 0.000000 
#    z 0.005470 0.000000 1.673060 
# 
# From -- ./inp_files/186108.got.cif
#   From: 2010.05.17/outbox.cif.g08.bks.cpg/sg15_94_cif.got.tgz:186108.got - 2010.06.03 18:47:42.
