data_PCOD9284302
_publ_section_title
;
Structure prediction by ZEFSAII (Michael W. Deem and Ramdas Pophale) SiO2 
 PCOD9284302
Probable space group: C 2/C
;
_chemical_formula_sum "Si O2"
_cell_formula_units_Z 36
_cell_length_a 16.834405
_cell_length_b 12.297223
_cell_length_c 6.114658
_cell_angle_alpha 90.000000
_cell_angle_beta 92.819425
_cell_angle_gamma 90.000000
_cell_volume 1264.302415
_symmetry_space_group_name_H-M "C 2/C"
_symmetry_group_IT_number 15
_symmetry_cell_setting 'monoclinic'
loop_
_space_group_symop_operation_xyz
x,y,z
-x,y,1/2-z
-x,-y,-z
x,-y,1/2+z
1/2+x,1/2+y,z
1/2-x,1/2+y,1/2-z
1/2-x,1/2-y,-z
1/2+x,1/2-y,1/2+z
loop_
_atom_site_type_symbol
_atom_site_label
_atom_site_fract_x
_atom_site_fract_y
_atom_site_fract_z
Si Si1 0.720977 0.631745 0.408450
Si Si2 0.855301 0.264481 0.465614
Si Si3 0.575377 0.371933 0.139840
Si Si4 0.000000 0.725679 0.750000
Si Si5 0.131811 0.471688 0.118406
O O1 0.750000 0.750000 0.500000
O O2 0.671114 0.668139 0.189446
O O3 0.653817 0.573805 0.550890
O O4 0.800314 0.567682 0.379323
O O5 0.888740 0.216858 0.688743
O O6 0.802829 0.368451 0.415660
O O7 0.929464 0.336104 0.363560
O O8 0.500000 0.429959 0.250000
O O9 0.536136 0.302266 0.940164
O O10 0.095967 0.502875 0.362490
#
# Coordination Sequence:
#
# PCOD9284302 Si02
#       5
#     8   8   8   4   8
#     4  11  22  40  66  96 136 182 225 281 341 402
#     4  10  21  40  68  98 137 177 226 277 341 410
#     4   9  19  38  68  97 130 178 229 281 339 405
#     4   8  18  38  64  98 130 176 220 280 340 410
#     4  12  27  42  64  99 140 179 226 277 337 406
#
# _framework density 28.4742
#
# number of rings (size 3 to 8) (size 9 to 14) (size 15 to 20)
#    0.000    1.778    2.222    1.333    6.222    1.778 
#    0.000    1.111    2.444    1.333    0.000    0.000 
#    0.000    0.000    0.000    0.000    0.000    0.000 
#
# Total GULP energy -100264.444653 kJ/mol
# GULP energy per Si atom -5570.246925 kJ/mol
# Density = 2.840939 g / cm^3
# Si number density = 28.474200 Si / 1000 Ang^3
#
#
#
# Elastic Constant Matrix: (Units=GPa)
#
#
# Indices 1 2 3 4 5 6 
#
# 1 128.9504 -17.3764 48.9027 0.0000 -33.8126 0.0000
# 2 -17.3764 108.6245 47.0140 0.0000 12.7959 0.0000
# 3 48.9027 47.0140 206.9479 0.0000 14.7232 0.0000
# 4 0.0000 0.0000 0.0000 24.5598 0.0000 -5.4229
# 5 -33.8126 12.7959 14.7232 0.0000 66.4445 0.0000
# 6 0.0000 0.0000 0.0000 -5.4229 0.0000 15.6724
#
#
#
# Elastic Compliance Matrix: (Units=1/GPa)
#
#
# Indices 1 2 3 4 5 6 
#
# 1 0.011037 0.002639 -0.003628 0.000000 0.005912 0.000000
# 2 0.002639 0.010986 -0.003114 0.000000 -0.000083 0.000000
# 3 -0.003628 -0.003114 0.006589 0.000000 -0.002707 0.000000
# 4 0.000000 0.000000 0.000000 0.044085 0.000000 0.015254
# 5 0.005912 -0.000083 -0.002707 0.000000 0.018674 0.000000
# 6 0.000000 0.000000 0.000000 0.015254 0.000000 0.069085
#
#
# Mechanical properties :
#
#
# Convention : Reuss Voigt Hill
#
# Bulk Modulus (GPa) = 49.00263 66.84484 57.92374
# Shear Modulus (GPa) = 28.49601 45.73417 37.11509
#
# Velocity S-wave (km/s) = 3.16692 4.01204 3.61427
# Velocity P-wave (km/s) = 5.53348 6.70735 6.14849
#
# Compressibility (1/GPa) = 0.02040707
#
# Stress axis : x y z
#
# Youngs Moduli (GPa) = 90.60579 91.02876 151.75848
#
# Poissons Ratio (x) = -0.24027 0.55062
# Poissons Ratio (y) = -0.23915 0.47250
# Poissons Ratio (z) = 0.32874 0.28342
#
# Static dielectric constant tensor:
#      x y z
#    x 2.468380 0.000000 -0.210330 
#    y 0.000000 2.201000 0.000000 
#    z -0.210330 0.000000 2.437230 
# 
# From -- ./inp_files/12611.got.cif
#   From: 2010.05.17/outbox.cif.g08.bks.cpg/sg15_7_cif.got.tgz:12611.got - 2010.06.03 18:47:42.
