data_PCOD9284422
_publ_section_title
;
Structure prediction by ZEFSAII (Michael W. Deem and Ramdas Pophale) SiO2 
 PCOD9284422
Probable space group: C 2/C
;
_chemical_formula_sum "Si O2"
_cell_formula_units_Z 48
_cell_length_a 7.248687
_cell_length_b 14.250391
_cell_length_c 18.625555
_cell_angle_alpha 90.000000
_cell_angle_beta 92.902343
_cell_angle_gamma 90.000000
_cell_volume 1921.489068
_symmetry_space_group_name_H-M "C 2/C"
_symmetry_group_IT_number 15
_symmetry_cell_setting 'monoclinic'
loop_
_space_group_symop_operation_xyz
x,y,z
-x,y,1/2-z
-x,-y,-z
x,-y,1/2+z
1/2+x,1/2+y,z
1/2-x,1/2+y,1/2-z
1/2-x,1/2-y,-z
1/2+x,1/2-y,1/2+z
loop_
_atom_site_type_symbol
_atom_site_label
_atom_site_fract_x
_atom_site_fract_y
_atom_site_fract_z
Si Si1 0.284943 0.238687 0.268161
Si Si2 0.982419 0.902453 0.958269
Si Si3 0.090576 0.779588 0.084542
Si Si4 0.442162 0.107392 0.013611
Si Si5 0.304287 0.147938 0.863772
Si Si6 0.146765 0.959252 0.809862
O O1 0.500000 0.247184 0.250000
O O2 0.271727 0.288379 0.345880
O O3 0.166219 0.285728 0.203200
O O4 0.237436 0.129886 0.274027
O O5 0.045583 0.920101 0.878806
O O6 0.105416 0.831344 0.008408
O O7 0.764773 0.881072 0.958965
O O8 0.000000 0.000000 0.000000
O O9 0.897122 0.823886 0.108766
O O10 0.062480 0.669016 0.069780
O O11 0.436813 0.154063 0.934576
O O12 0.500000 0.000000 0.000000
O O13 0.285474 0.040933 0.836794
O O14 0.000000 0.001065 0.750000
#
# Coordination Sequence:
#
# PCOD9284422 Si02
#       6
#     8   8   8   8   8   8
#     4  10  24  44  66  93 133 180 222 269 342 405
#     4  11  23  42  66  98 130 171 224 274 336 401
#     4  10  21  40  71  91 131 177 213 274 333 393
#     4  11  23  42  70  99 133 174 226 276 331 392
#     4  10  21  44  65  93 133 180 213 272 344 391
#     4  12  25  41  67  96 133 174 222 276 339 401
#
# _framework density 24.980626000000001
#
# number of rings (size 3 to 8) (size 9 to 14) (size 15 to 20)
#    0.000    1.333    3.333    4.500    7.000    0.667 
#    0.000    0.833    0.000    0.000    0.000    0.000 
#    0.000    0.000    0.000    0.000    0.000    0.000 
#
# Total GULP energy -134439.946851 kJ/mol
# GULP energy per Si atom -5601.664452 kJ/mol
# Density = 2.492377 g / cm^3
# Si number density = 24.980626 Si / 1000 Ang^3
#
#
#
# Elastic Constant Matrix: (Units=GPa)
#
#
# Indices 1 2 3 4 5 6 
#
# 1 58.0075 -0.7652 23.0034 0.0000 -9.8622 0.0000
# 2 -0.7652 126.8591 42.1884 0.0000 -6.2766 0.0000
# 3 23.0034 42.1884 149.4745 0.0000 14.7646 0.0000
# 4 0.0000 0.0000 0.0000 55.5454 0.0000 3.9185
# 5 -9.8622 -6.2766 14.7646 0.0000 41.7671 0.0000
# 6 0.0000 0.0000 0.0000 3.9185 0.0000 35.0715
#
#
#
# Elastic Compliance Matrix: (Units=1/GPa)
#
#
# Indices 1 2 3 4 5 6 
#
# 1 0.020060 0.001859 -0.004256 0.000000 0.006520 0.000000
# 2 0.001859 0.009081 -0.003137 0.000000 0.002913 0.000000
# 3 -0.004256 -0.003137 0.008679 0.000000 -0.004544 0.000000
# 4 0.000000 0.000000 0.000000 0.018146 0.000000 -0.002027
# 5 0.006520 0.002913 -0.004544 0.000000 0.027526 0.000000
# 6 0.000000 0.000000 0.000000 -0.002027 0.000000 0.028740
#
#
# Mechanical properties :
#
#
# Convention : Reuss Voigt Hill
#
# Bulk Modulus (GPa) = 37.37914 51.46605 44.42259
# Shear Modulus (GPa) = 37.81631 44.47109 41.14370
#
# Velocity S-wave (km/s) = 3.89501 4.22385 4.06276
# Velocity P-wave (km/s) = 5.93497 6.66595 6.31106
#
# Compressibility (1/GPa) = 0.02675289
#
# Stress axis : x y z
#
# Youngs Moduli (GPa) = 49.85050 110.11635 115.21614
#
# Poissons Ratio (x) = -0.20470 0.49035
# Poissons Ratio (y) = -0.09267 0.36143
# Poissons Ratio (z) = 0.21216 0.34543
#
# Static dielectric constant tensor:
#      x y z
#    x 1.972040 0.000000 0.014600 
#    y 0.000000 1.964950 0.000000 
#    z 0.014600 0.000000 1.955950 
# 
# From -- ./inp_files/189192.got.cif
#   From: 2010.05.17/outbox.cif.g08.bks.cpg/sg15_95_cif.got.tgz:189192.got - 2010.06.03 18:47:42.
