data_PCOD9284220
_publ_section_title
;
Structure prediction by ZEFSAII (Michael W. Deem and Ramdas Pophale) SiO2 
 PCOD9284220
Probable space group: C 2/C
;
_chemical_formula_sum "Si O2"
_cell_formula_units_Z 32
_cell_length_a 5.444368
_cell_length_b 21.683072
_cell_length_c 11.871795
_cell_angle_alpha 90.000000
_cell_angle_beta 109.862405
_cell_angle_gamma 90.000000
_cell_volume 1318.100958
_symmetry_space_group_name_H-M "C 2/C"
_symmetry_group_IT_number 15
_symmetry_cell_setting 'monoclinic'
loop_
_space_group_symop_operation_xyz
x,y,z
-x,y,1/2-z
-x,-y,-z
x,-y,1/2+z
1/2+x,1/2+y,z
1/2-x,1/2+y,1/2-z
1/2-x,1/2-y,-z
1/2+x,1/2-y,1/2+z
loop_
_atom_site_type_symbol
_atom_site_label
_atom_site_fract_x
_atom_site_fract_y
_atom_site_fract_z
Si Si1 0.789367 0.445814 0.963987
Si Si2 0.201374 0.258017 0.175895
Si Si3 0.117373 0.345497 0.955307
Si Si4 0.479410 0.559810 0.875240
O O1 0.535570 0.486040 0.892266
O O2 0.777854 0.426303 0.093525
O O3 0.000000 0.500000 0.000000
O O4 0.858132 0.386940 0.900098
O O5 0.500000 0.280734 0.250000
O O6 0.085299 0.297910 0.054199
O O7 0.000000 0.257793 0.250000
O O8 0.263807 0.191317 0.130469
O O9 0.317675 0.397080 0.028160
O O10 0.500000 0.576072 0.750000
#
# Coordination Sequence:
#
# PCOD9284220 Si02
#       4
#     8   8   8   8
#     4   9  21  41  60  97 131 174 221 285 339 412
#     4  11  27  46  69 104 135 187 234 286 351 399
#     4  10  24  42  68  95 142 173 237 283 338 423
#     4  10  21  40  67  98 133 179 225 279 351 418
#
# _framework density 24.277353999999999
#
# number of rings (size 3 to 8) (size 9 to 14) (size 15 to 20)
#    0.000    2.000    0.000    0.750   10.500    5.000 
#   13.500    0.000    0.000    0.000    0.000    0.000 
#    0.000    0.000    0.000    0.000    0.000    0.000 
#
# Total GULP energy -89213.336927 kJ/mol
# GULP energy per Si atom -5575.833558 kJ/mol
# Density = 2.422210 g / cm^3
# Si number density = 24.277354 Si / 1000 Ang^3
#
#
#
# Elastic Constant Matrix: (Units=GPa)
#
#
# Indices 1 2 3 4 5 6 
#
# 1 87.5162 37.1416 38.4779 0.0000 -47.2933 0.0000
# 2 37.1416 143.4720 32.5081 0.0000 -22.2843 0.0000
# 3 38.4779 32.5081 80.4037 0.0000 -39.4980 0.0000
# 4 0.0000 0.0000 0.0000 26.6580 0.0000 -1.4429
# 5 -47.2933 -22.2843 -39.4980 0.0000 48.5348 0.0000
# 6 0.0000 0.0000 0.0000 -1.4429 0.0000 26.8434
#
#
#
# Elastic Compliance Matrix: (Units=1/GPa)
#
#
# Indices 1 2 3 4 5 6 
#
# 1 0.025261 -0.003023 0.000905 0.000000 0.023964 0.000000
# 2 -0.003023 0.008116 -0.002418 0.000000 -0.001186 0.000000
# 3 0.000905 -0.002418 0.021441 0.000000 0.017221 0.000000
# 4 0.000000 0.000000 0.000000 0.037622 0.000000 0.002022
# 5 0.023964 -0.001186 0.017221 0.000000 0.057425 0.000000
# 6 0.000000 0.000000 0.000000 0.002022 0.000000 0.037362
#
#
# Mechanical properties :
#
#
# Convention : Reuss Voigt Hill
#
# Bulk Modulus (GPa) = 21.85861 58.62745 40.24303
# Shear Modulus (GPa) = 23.63549 33.95820 28.79684
#
# Velocity S-wave (km/s) = 3.12358 3.74406 3.44780
# Velocity P-wave (km/s) = 4.69385 6.54920 5.69756
#
# Compressibility (1/GPa) = 0.04574856
#
# Stress axis : x y z
#
# Youngs Moduli (GPa) = 39.58642 123.21326 46.63878
#
# Poissons Ratio (x) = 0.37242 -0.04222
# Poissons Ratio (y) = 0.11965 0.11276
# Poissons Ratio (z) = -0.03584 0.29790
#
# Static dielectric constant tensor:
#      x y z
#    x 2.228280 0.000000 0.025900 
#    y 0.000000 1.951180 0.000000 
#    z 0.025900 0.000000 2.009070 
# 
# From -- ./inp_files/71880.got.cif
#   From: 2010.05.17/outbox.cif.g08.bks.cpg/sg15_36_cif.got.tgz:71880.got - 2010.06.03 18:47:42.
