data_PCOD9284517
_publ_section_title
;
Structure prediction by ZEFSAII (Michael W. Deem and Ramdas Pophale) SiO2 
 PCOD9284517
Probable space group: C 2/C
;
_chemical_formula_sum "Si O2"
_cell_formula_units_Z 60
_cell_length_a 8.099344
_cell_length_b 19.988523
_cell_length_c 19.278904
_cell_angle_alpha 90.000000
_cell_angle_beta 91.399543
_cell_angle_gamma 90.000000
_cell_volume 3120.206332
_symmetry_space_group_name_H-M "C 2/C"
_symmetry_group_IT_number 15
_symmetry_cell_setting 'monoclinic'
loop_
_space_group_symop_operation_xyz
x,y,z
-x,y,1/2-z
-x,-y,-z
x,-y,1/2+z
1/2+x,1/2+y,z
1/2-x,1/2+y,1/2-z
1/2-x,1/2-y,-z
1/2+x,1/2-y,1/2+z
loop_
_atom_site_type_symbol
_atom_site_label
_atom_site_fract_x
_atom_site_fract_y
_atom_site_fract_z
Si Si1 0.577229 0.799831 0.563564
Si Si2 0.362310 0.211335 0.194549
Si Si3 0.452024 0.283158 0.575417
Si Si4 0.857171 0.529486 0.807441
Si Si5 0.000000 0.010940 0.250000
Si Si6 0.347014 0.401675 0.866692
Si Si7 0.012313 0.450373 0.934711
Si Si8 0.884643 0.680740 0.815545
O O1 0.443927 0.784241 0.620305
O O2 0.552172 0.748771 0.500618
O O3 0.761830 0.792542 0.594830
O O4 0.549627 0.877007 0.542942
O O5 0.500000 0.192350 0.250000
O O6 0.233275 0.151098 0.188346
O O7 0.281865 0.282347 0.209713
O O8 0.547135 0.353531 0.581997
O O9 0.539697 0.229191 0.625640
O O10 0.675858 0.523480 0.770816
O O11 0.866911 0.604526 0.838331
O O12 0.000000 0.521754 0.750000
O O13 0.901392 0.477900 0.869493
O O14 0.958090 0.051594 0.319867
O O15 0.198479 0.439296 0.905643
O O16 0.000000 0.500000 0.000000
O O17 0.000000 0.680276 0.750000
#
# Coordination Sequence:
#
# PCOD9284517 Si02
#       8
#     8   8   8   8   4   8   8   8
#     4  10  22  38  63  90 128 167 206 272 317 394
#     4  10  22  35  61  93 120 155 212 262 323 371
#     4  10  21  41  60  93 123 161 214 264 335 374
#     4  11  24  43  64  92 132 175 222 270 327 388
#     4  12  24  42  68  94 132 170 230 270 318 396
#     4  10  24  37  67  92 124 169 216 271 321 385
#     4  11  23  42  65  94 134 178 218 268 332 391
#     4  10  22  38  60  85 121 160 202 266 323 377
#
# _framework density 19.229498
#
# number of rings (size 3 to 8) (size 9 to 14) (size 15 to 20)
#    0.000    1.600    1.333    2.400   10.267    5.867 
#    0.000    4.000    0.000    0.000    0.000    0.000 
#    0.000    0.000    0.000    0.000    0.000    0.000 
#
# Total GULP energy -167412.612329 kJ/mol
# GULP energy per Si atom -5580.420411 kJ/mol
# Density = 1.918573 g / cm^3
# Si number density = 19.229498 Si / 1000 Ang^3
#
#
#
# Elastic Constant Matrix: (Units=GPa)
#
#
# Indices 1 2 3 4 5 6 
#
# 1 94.7758 36.7664 12.6055 0.0000 11.7953 0.0000
# 2 36.7664 84.3472 21.0985 0.0000 -5.7671 0.0000
# 3 12.6055 21.0985 38.6126 0.0000 12.0000 0.0000
# 4 0.0000 0.0000 0.0000 22.6566 0.0000 -3.3171
# 5 11.7953 -5.7671 12.0000 0.0000 23.9557 0.0000
# 6 0.0000 0.0000 0.0000 -3.3171 0.0000 22.1010
#
#
#
# Elastic Compliance Matrix: (Units=1/GPa)
#
#
# Indices 1 2 3 4 5 6 
#
# 1 0.014455 -0.007676 0.002678 0.000000 -0.010307 0.000000
# 2 -0.007676 0.019387 -0.012688 0.000000 0.014803 0.000000
# 3 0.002678 -0.012688 0.039459 0.000000 -0.024139 0.000000
# 4 0.000000 0.000000 0.000000 0.045129 0.000000 0.006773
# 5 -0.010307 0.014803 -0.024139 0.000000 0.062474 0.000000
# 6 0.000000 0.000000 0.000000 0.006773 0.000000 0.046263
#
#
# Mechanical properties :
#
#
# Convention : Reuss Voigt Hill
#
# Bulk Modulus (GPa) = 26.36393 39.85293 33.10843
# Shear Modulus (GPa) = 18.16973 23.56035 20.86504
#
# Velocity S-wave (km/s) = 3.07724 3.50411 3.29759
# Velocity P-wave (km/s) = 5.13476 6.09439 5.63504
#
# Compressibility (1/GPa) = 0.03793061
#
# Stress axis : x y z
#
# Youngs Moduli (GPa) = 69.17828 51.57981 25.34281
#
# Poissons Ratio (x) = 0.39591 -0.06787
# Poissons Ratio (y) = 0.53099 0.32155
# Poissons Ratio (z) = -0.18527 0.65445
#
# Static dielectric constant tensor:
#      x y z
#    x 1.695270 0.000000 0.022780 
#    y 0.000000 1.677460 0.000000 
#    z 0.022780 0.000000 1.652350 
# 
# From -- ./inp_files/192190.got.cif
#   From: 2010.05.17/outbox.cif.g08.bks.cpg/sg15_97_cif.got.tgz:192190.got - 2010.06.03 18:47:42.
