data_PCOD9284826
_publ_section_title
;
Structure prediction by ZEFSAII (Michael W. Deem and Ramdas Pophale) SiO2 
 PCOD9284826
Probable space group: C 2/C
;
_chemical_formula_sum "Si O2"
_cell_formula_units_Z 56
_cell_length_a 11.122394
_cell_length_b 9.114416
_cell_length_c 25.950646
_cell_angle_alpha 90.000000
_cell_angle_beta 58.854235
_cell_angle_gamma 90.000000
_cell_volume 2251.516310
_symmetry_space_group_name_H-M "C 2/C"
_symmetry_group_IT_number 15
_symmetry_cell_setting 'monoclinic'
loop_
_space_group_symop_operation_xyz
x,y,z
-x,y,1/2-z
-x,-y,-z
x,-y,1/2+z
1/2+x,1/2+y,z
1/2-x,1/2+y,1/2-z
1/2-x,1/2-y,-z
1/2+x,1/2-y,1/2+z
loop_
_atom_site_type_symbol
_atom_site_label
_atom_site_fract_x
_atom_site_fract_y
_atom_site_fract_z
Si Si1 0.210606 0.623265 0.548216
Si Si2 0.202397 0.553213 0.194939
Si Si3 0.000000 0.305783 0.250000
Si Si4 0.985576 0.067595 0.865432
Si Si5 0.500000 0.697429 0.750000
Si Si6 0.703714 0.821305 0.583013
Si Si7 0.795315 0.156848 0.373426
Si Si8 0.423903 0.072672 0.567147
O O1 0.250000 0.750000 0.500000
O O2 0.250017 0.451989 0.534765
O O3 0.264785 0.694465 0.589172
O O4 0.042082 0.619171 0.581113
O O5 0.363539 0.504889 0.159952
O O6 0.163576 0.588206 0.143760
O O7 0.119393 0.420869 0.240730
O O8 0.136369 0.701534 0.233381
O O9 0.915791 0.206179 0.308098
O O10 0.971168 0.106345 0.807670
O O11 0.927458 0.217839 0.903945
O O12 0.872484 0.940384 0.899902
O O13 0.828877 0.709758 0.570146
O O14 0.673072 0.048655 0.383822
O O15 0.500000 0.000000 0.500000
#
# Coordination Sequence:
#
# PCOD9284826 Si02
#       8
#     8   8   4   8   4   8   8   8
#     4  12  25  46  74 103 139 183 237 295 356 430
#     4  10  21  41  64  97 139 185 227 281 351 415
#     4  11  23  40  68 102 140 178 240 290 342 444
#     4  10  22  41  66  95 140 183 225 286 349 413
#     4   9  21  40  58  98 136 174 238 278 326 416
#     4  10  24  45  69 101 140 180 234 290 352 430
#     4  11  24  46  65 106 140 178 243 288 353 432
#     4  11  25  48  73 105 142 185 238 303 357 424
#
# _framework density 24.872128
#
# number of rings (size 3 to 8) (size 9 to 14) (size 15 to 20)
#    0.000    1.429    2.857    1.286    4.000    1.143 
#    2.571    0.000    0.000    0.000    0.000    0.000 
#    0.000    0.000    0.000    0.000    0.000    0.000 
#
# Total GULP energy -156264.622386 kJ/mol
# GULP energy per Si atom -5580.879371 kJ/mol
# Density = 2.481552 g / cm^3
# Si number density = 24.872128 Si / 1000 Ang^3
#
#
#
# Elastic Constant Matrix: (Units=GPa)
#
#
# Indices 1 2 3 4 5 6 
#
# 1 104.1139 44.0686 -9.9460 0.0000 -26.5273 0.0000
# 2 44.0686 172.3901 44.2490 0.0000 -10.2213 0.0000
# 3 -9.9460 44.2490 89.3822 0.0000 2.4749 0.0000
# 4 0.0000 0.0000 0.0000 51.1003 0.0000 -10.8548
# 5 -26.5273 -10.2213 2.4749 0.0000 24.6393 0.0000
# 6 0.0000 0.0000 0.0000 -10.8548 0.0000 42.1659
#
#
#
# Elastic Compliance Matrix: (Units=1/GPa)
#
#
# Indices 1 2 3 4 5 6 
#
# 1 0.015233 -0.003858 0.003204 0.000000 0.014478 0.000000
# 2 -0.003858 0.007866 -0.004311 0.000000 -0.000457 0.000000
# 3 0.003204 -0.004311 0.013671 0.000000 0.000288 0.000000
# 4 0.000000 0.000000 0.000000 0.020701 0.000000 0.005329
# 5 0.014478 -0.000457 0.000288 0.000000 0.055954 0.000000
# 6 0.000000 0.000000 0.000000 0.005329 0.000000 0.025088
#
#
# Mechanical properties :
#
#
# Convention : Reuss Voigt Hill
#
# Bulk Modulus (GPa) = 37.25784 58.06995 47.66390
# Shear Modulus (GPa) = 31.76837 42.74873 37.25855
#
# Velocity S-wave (km/s) = 3.57777 4.15027 3.87460
# Velocity P-wave (km/s) = 5.66388 6.80914 6.26274
#
# Compressibility (1/GPa) = 0.02683999
#
# Stress axis : x y z
#
# Youngs Moduli (GPa) = 65.64822 127.12221 73.14958
#
# Poissons Ratio (x) = 0.49044 -0.23437
# Poissons Ratio (y) = 0.25327 0.31534
# Poissons Ratio (z) = -0.21034 0.54802
#
# Static dielectric constant tensor:
#      x y z
#    x 1.951130 0.000000 -0.006240 
#    y 0.000000 2.054300 0.000000 
#    z -0.006240 0.000000 2.017910 
# 
# From -- ./inp_files/310248.got.cif
#   From: 2010.05.17/outbox.cif.g08.bks.cpg/sg15_156_cif.got.tgz:310248.got - 2010.06.03 18:47:42.
