data_PCOD9284879
_publ_section_title
;
Structure prediction by ZEFSAII (Michael W. Deem and Ramdas Pophale) SiO2 
 PCOD9284879
Probable space group: C 2/C
;
_chemical_formula_sum "Si O2"
_cell_formula_units_Z 52
_cell_length_a 16.152313
_cell_length_b 26.685063
_cell_length_c 10.708456
_cell_angle_alpha 90.000000
_cell_angle_beta 144.740233
_cell_angle_gamma 90.000000
_cell_volume 2664.523937
_symmetry_space_group_name_H-M "C 2/C"
_symmetry_group_IT_number 15
_symmetry_cell_setting 'monoclinic'
loop_
_space_group_symop_operation_xyz
x,y,z
-x,y,1/2-z
-x,-y,-z
x,-y,1/2+z
1/2+x,1/2+y,z
1/2-x,1/2+y,1/2-z
1/2-x,1/2-y,-z
1/2+x,1/2-y,1/2+z
loop_
_atom_site_type_symbol
_atom_site_label
_atom_site_fract_x
_atom_site_fract_y
_atom_site_fract_z
Si Si1 0.011472 0.713580 0.515965
Si Si2 0.408069 0.948510 0.260814
Si Si3 0.500000 0.731869 0.750000
Si Si4 0.771599 0.855696 0.422682
Si Si5 0.720038 0.658604 0.093294
Si Si6 0.404908 0.935164 0.756379
Si Si7 0.464275 0.674031 0.391092
O O1 0.133430 0.677758 0.719835
O O2 0.002653 0.766709 0.573495
O O3 0.045116 0.732097 0.417444
O O4 0.859894 0.686040 0.321020
O O5 0.500000 0.937032 0.250000
O O6 0.275712 0.911667 0.106695
O O7 0.500807 0.936579 0.499861
O O8 0.361677 0.006466 0.193030
O O9 0.363097 0.695450 0.605496
O O10 0.851141 0.835475 0.642493
O O11 0.887470 0.853424 0.455389
O O12 0.778907 0.605776 0.115157
O O13 0.607104 0.656354 0.067930
O O14 0.500000 0.922988 0.750000
#
# Coordination Sequence:
#
# PCOD9284879 Si02
#       7
#     8   8   4   8   8   8   8
#     4  11  22  38  61  85 117 168 206 240 289 361
#     4  10  21  41  65  92 118 154 206 258 300 358
#     4  10  24  38  54  84 132 154 202 244 298 364
#     4  11  22  39  62  87 122 161 199 249 306 356
#     4  11  22  40  61  87 120 165 199 251 303 352
#     4  10  22  39  65  94 117 152 210 258 298 356
#     4  10  23  38  56  91 128 154 197 249 305 363
#
# _framework density 19.51568
#
# number of rings (size 3 to 8) (size 9 to 14) (size 15 to 20)
#    0.000    1.538    1.538    3.692    1.077    4.923 
#    0.000    2.308    0.000    0.000    0.000    0.000 
#    0.000    0.000    0.000    0.000    0.000    0.000 
#
# Total GULP energy -145151.429697 kJ/mol
# GULP energy per Si atom -5582.747296 kJ/mol
# Density = 1.947126 g / cm^3
# Si number density = 19.515680 Si / 1000 Ang^3
#
#
#
# Elastic Constant Matrix: (Units=GPa)
#
#
# Indices 1 2 3 4 5 6 
#
# 1 109.5064 59.0341 24.1532 0.0000 10.2482 0.0000
# 2 59.0341 107.5348 18.5222 0.0000 25.5966 0.0000
# 3 24.1532 18.5222 59.0403 0.0000 15.8930 0.0000
# 4 0.0000 0.0000 0.0000 7.1497 0.0000 -0.7019
# 5 10.2482 25.5966 15.8930 0.0000 32.1598 0.0000
# 6 0.0000 0.0000 0.0000 -0.7019 0.0000 15.9042
#
#
#
# Elastic Compliance Matrix: (Units=1/GPa)
#
#
# Indices 1 2 3 4 5 6 
#
# 1 0.013944 -0.007850 -0.004300 0.000000 0.003929 0.000000
# 2 -0.007850 0.015981 0.001094 0.000000 -0.010759 0.000000
# 3 -0.004300 0.001094 0.021014 0.000000 -0.009886 0.000000
# 4 0.000000 0.000000 0.000000 0.140475 0.000000 0.006199
# 5 0.003929 -0.010759 -0.009886 0.000000 0.043291 0.000000
# 6 0.000000 0.000000 0.000000 0.006199 0.000000 0.063150
#
#
# Mechanical properties :
#
#
# Convention : Reuss Voigt Hill
#
# Bulk Modulus (GPa) = 34.68738 53.27782 43.98260
# Shear Modulus (GPa) = 15.17098 22.66754 18.91926
#
# Velocity S-wave (km/s) = 2.79117 3.41178 3.11696
# Velocity P-wave (km/s) = 5.31038 6.54825 5.96153
#
# Compressibility (1/GPa) = 0.02882893
#
# Stress axis : x y z
#
# Youngs Moduli (GPa) = 71.71421 62.57373 47.58632
#
# Poissons Ratio (x) = 0.49119 0.20460
# Poissons Ratio (y) = 0.56294 -0.05205
# Poissons Ratio (z) = 0.30834 -0.06844
#
# Static dielectric constant tensor:
#      x y z
#    x 1.584620 0.000000 0.051890 
#    y 0.000000 1.680490 0.000000 
#    z 0.051890 0.000000 1.625010 
# 
# From -- ./inp_files/108372.got.cif
#   From: 2010.05.17/outbox.cif.g08.bks.cpg/sg15_55_cif.got.tgz:108372.got - 2010.06.03 18:47:42.
