data_PCOD9284765
_publ_section_title
;
Structure prediction by ZEFSAII (Michael W. Deem and Ramdas Pophale) SiO2 
 PCOD9284765
Probable space group: C 2/C
;
_chemical_formula_sum "Si O2"
_cell_formula_units_Z 60
_cell_length_a 28.130526
_cell_length_b 13.869966
_cell_length_c 25.364519
_cell_angle_alpha 90.000000
_cell_angle_beta 161.838652
_cell_angle_gamma 90.000000
_cell_volume 3084.667171
_symmetry_space_group_name_H-M "C 2/C"
_symmetry_group_IT_number 15
_symmetry_cell_setting 'monoclinic'
loop_
_space_group_symop_operation_xyz
x,y,z
-x,y,1/2-z
-x,-y,-z
x,-y,1/2+z
1/2+x,1/2+y,z
1/2-x,1/2+y,1/2-z
1/2-x,1/2-y,-z
1/2+x,1/2-y,1/2+z
loop_
_atom_site_type_symbol
_atom_site_label
_atom_site_fract_x
_atom_site_fract_y
_atom_site_fract_z
Si Si1 0.701484 0.667060 0.301100
Si Si2 0.929038 0.977756 0.367822
Si Si3 0.328411 0.190113 0.130645
Si Si4 0.000000 0.523614 0.250000
Si Si5 0.299755 0.164328 0.836670
Si Si6 0.953286 0.705606 0.485688
Si Si7 0.836887 0.669673 0.557855
Si Si8 0.921845 0.818002 0.047909
O O1 0.595072 0.573954 0.190503
O O2 0.828065 0.651786 0.388799
O O3 0.586414 0.751511 0.162831
O O4 0.786925 0.684699 0.445352
O O5 0.763875 0.931455 0.204500
O O6 0.026777 0.903533 0.436419
O O7 0.000000 0.000000 0.500000
O O8 0.430846 0.099349 0.219564
O O9 0.435316 0.266121 0.273871
O O10 0.250000 0.250000 0.000000
O O11 0.197320 0.154432 0.032233
O O12 0.139782 0.448469 0.410872
O O13 0.151549 0.210162 0.650764
O O14 0.447657 0.153517 0.955195
O O15 0.343963 0.239683 0.928062
O O16 0.750000 0.750000 0.500000
O O17 0.000000 0.699239 0.750000
#
# Coordination Sequence:
#
# PCOD9284765 Si02
#       8
#     8   8   8   4   8   8   8   8
#     4  11  23  41  68  91 131 176 227 280 349 400
#     4  12  24  42  65 106 138 170 234 285 332 432
#     4  12  24  46  70 103 142 183 241 289 347 425
#     4  10  26  46  70  98 142 174 236 296 344 422
#     4  11  20  40  64  93 134 175 216 270 339 403
#     4  10  21  41  64  90 128 180 219 278 336 408
#     4  10  24  47  69  95 135 175 234 296 352 414
#     4  12  24  41  73  94 143 187 216 287 357 400
#
# _framework density 19.451045000000001
#
# number of rings (size 3 to 8) (size 9 to 14) (size 15 to 20)
#    0.400    0.533    5.333    1.600    3.733    0.533 
#    7.200    0.000    0.000    0.000    0.000    0.000 
#    0.000    0.000    0.000    0.000    0.000    0.000 
#
# Total GULP energy -167047.768479 kJ/mol
# GULP energy per Si atom -5568.258949 kJ/mol
# Density = 1.940677 g / cm^3
# Si number density = 19.451045 Si / 1000 Ang^3
#
#
#
# Elastic Constant Matrix: (Units=GPa)
#
#
# Indices 1 2 3 4 5 6 
#
# 1 106.7491 43.2304 35.7392 -0.0021 5.5468 -0.0016
# 2 43.2304 82.4882 18.6882 -0.0030 8.6300 -0.0033
# 3 35.7392 18.6882 92.5648 -0.0071 -9.0248 -0.0054
# 4 -0.0021 -0.0030 -0.0071 20.1234 -0.0035 0.5269
# 5 5.5468 8.6300 -9.0248 -0.0035 40.4953 -0.0027
# 6 -0.0016 -0.0033 -0.0054 0.5269 -0.0027 31.8373
#
#
#
# Elastic Compliance Matrix: (Units=1/GPa)
#
#
# Indices 1 2 3 4 5 6 
#
# 1 0.013158 -0.005826 -0.004047 -0.000001 -0.001463 -0.000001
# 2 -0.005826 0.015745 -0.001205 0.000001 -0.002826 0.000001
# 3 -0.004047 -0.001205 0.012970 0.000005 0.003702 0.000002
# 4 -0.000001 0.000001 0.000005 0.049715 0.000005 -0.000823
# 5 -0.001463 -0.002826 0.003702 0.000005 0.026322 0.000002
# 6 -0.000001 0.000001 0.000002 -0.000823 0.000002 0.031423
#
#
# Mechanical properties :
#
#
# Convention : Reuss Voigt Hill
#
# Bulk Modulus (GPa) = 50.71626 53.01308 51.86467
# Shear Modulus (GPa) = 28.08042 30.76748 29.42395
#
# Velocity S-wave (km/s) = 3.80366 3.98149 3.89359
# Velocity P-wave (km/s) = 6.73950 6.96061 6.85095
#
# Compressibility (1/GPa) = 0.01971754
#
# Stress axis : x y z
#
# Youngs Moduli (GPa) = 75.99985 63.51279 77.10225
#
# Poissons Ratio (x) = 0.37003 0.31200
# Poissons Ratio (y) = 0.44278 0.09290
# Poissons Ratio (z) = 0.30754 0.07653
#
# Static dielectric constant tensor:
#      x y z
#    x 1.693900 0.000010 0.004660 
#    y 0.000010 1.682330 0.000010 
#    z 0.004660 0.000010 1.663100 
# 
# From -- ./inp_files/283668.got.cif
#   From: 2010.05.17/outbox.cif.g08.bks.cpg/sg15_142_cif.got.tgz:283668.got - 2010.06.03 18:47:42.
