data_PCOD9284298
_publ_section_title
;
Structure prediction by ZEFSAII (Michael W. Deem and Ramdas Pophale) SiO2 
 PCOD9284298
Probable space group: C 2/C
;
_chemical_formula_sum "Si O2"
_cell_formula_units_Z 44
_cell_length_a 9.703458
_cell_length_b 16.854403
_cell_length_c 10.507754
_cell_angle_alpha 90.000000
_cell_angle_beta 93.242617
_cell_angle_gamma 90.000000
_cell_volume 1715.749672
_symmetry_space_group_name_H-M "C 2/C"
_symmetry_group_IT_number 15
_symmetry_cell_setting 'monoclinic'
loop_
_space_group_symop_operation_xyz
x,y,z
-x,y,1/2-z
-x,-y,-z
x,-y,1/2+z
1/2+x,1/2+y,z
1/2-x,1/2+y,1/2-z
1/2-x,1/2-y,-z
1/2+x,1/2-y,1/2+z
loop_
_atom_site_type_symbol
_atom_site_label
_atom_site_fract_x
_atom_site_fract_y
_atom_site_fract_z
Si Si1 0.110323 0.883023 0.158509
Si Si2 0.000000 0.104889 0.250000
Si Si3 0.848090 0.235290 0.383210
Si Si4 0.254275 0.551072 0.078061
Si Si5 0.884678 0.595607 0.834419
Si Si6 0.165509 0.718559 0.117123
O O1 0.254088 0.882063 0.241147
O O2 0.060961 0.792378 0.125024
O O3 0.000000 0.915258 0.250000
O O4 0.149179 0.934329 0.038553
O O5 0.047252 0.162277 0.135010
O O6 0.137336 0.058971 0.300348
O O7 0.750000 0.250000 0.500000
O O8 0.933197 0.318007 0.383057
O O9 0.750799 0.221699 0.253851
O O10 0.172706 0.468819 0.070680
O O11 0.148165 0.625112 0.089071
O O12 0.000000 0.558595 0.750000
O O13 0.250000 0.750000 0.000000
#
# Coordination Sequence:
#
# PCOD9284298 Si02
#       6
#     8   4   8   8   8   8
#     4  10  23  42  67  97 135 181 229 283 341 413
#     4  10  22  42  70 104 140 176 236 282 338 420
#     4  10  21  40  68  98 131 182 231 275 336 419
#     4  10  23  41  69 101 138 176 227 292 343 407
#     4  11  25  45  66  98 143 182 224 284 357 407
#     4   8  18  40  61  92 131 176 222 273 334 402
#
# _framework density 25.644763999999999
#
# number of rings (size 3 to 8) (size 9 to 14) (size 15 to 20)
#    0.000    2.182    0.909    0.000    6.364    5.091 
#    0.000    0.000    0.000    0.000    0.000    0.000 
#    0.000    0.000    0.000    0.000    0.000    0.000 
#
# Total GULP energy -122835.021679 kJ/mol
# GULP energy per Si atom -5583.410076 kJ/mol
# Density = 2.558640 g / cm^3
# Si number density = 25.644764 Si / 1000 Ang^3
#
#
#
# Elastic Constant Matrix: (Units=GPa)
#
#
# Indices 1 2 3 4 5 6 
#
# 1 68.1980 -7.6554 4.1845 0.0000 -10.0847 0.0000
# 2 -7.6554 123.6078 12.2759 0.0000 -22.5516 0.0000
# 3 4.1845 12.2759 133.1615 0.0000 -32.1247 0.0000
# 4 0.0000 0.0000 0.0000 57.5308 0.0000 -32.8669
# 5 -10.0847 -22.5516 -32.1247 0.0000 43.8765 0.0000
# 6 0.0000 0.0000 0.0000 -32.8669 0.0000 46.9836
#
#
#
# Elastic Compliance Matrix: (Units=1/GPa)
#
#
# Indices 1 2 3 4 5 6 
#
# 1 0.015556 0.001803 0.000524 0.000000 0.004885 0.000000
# 2 0.001803 0.009149 0.000406 0.000000 0.005414 0.000000
# 3 0.000524 0.000406 0.009152 0.000000 0.007029 0.000000
# 4 0.000000 0.000000 0.000000 0.028953 0.000000 0.020253
# 5 0.004885 0.005414 0.007029 0.000000 0.031844 0.000000
# 6 0.000000 0.000000 0.000000 0.020253 0.000000 0.035452
#
#
# Mechanical properties :
#
#
# Convention : Reuss Voigt Hill
#
# Bulk Modulus (GPa) = 25.43155 38.06415 31.74785
# Shear Modulus (GPa) = 36.29830 50.75567 43.52699
#
# Velocity S-wave (km/s) = 3.76630 4.45363 4.12431
# Velocity P-wave (km/s) = 5.37138 6.42818 5.92339
#
# Compressibility (1/GPa) = 0.03932124
#
# Stress axis : x y z
#
# Youngs Moduli (GPa) = 64.28464 109.29902 109.27013
#
# Poissons Ratio (x) = -0.19703 -0.05721
# Poissons Ratio (y) = -0.11589 -0.04437
# Poissons Ratio (z) = -0.03366 -0.04438
#
# Static dielectric constant tensor:
#      x y z
#    x 2.210520 0.000000 0.087250 
#    y 0.000000 2.152470 0.000000 
#    z 0.087250 0.000000 2.053930 
# 
# From -- ./inp_files/87718.got.cif
#   From: 2010.05.17/outbox.cif.g08.bks.cpg/sg15_44_cif.got.tgz:87718.got - 2010.06.03 18:47:42.
