data_PCOD9284969
_publ_section_title
;
Structure prediction by ZEFSAII (Michael W. Deem and Ramdas Pophale) SiO2 
 PCOD9284969
Probable space group: C 2/C
;
_chemical_formula_sum "Si O2"
_cell_formula_units_Z 52
_cell_length_a 10.649885
_cell_length_b 13.447819
_cell_length_c 18.884108
_cell_angle_alpha 90.000000
_cell_angle_beta 121.336932
_cell_angle_gamma 90.000000
_cell_volume 2310.011072
_symmetry_space_group_name_H-M "C 2/C"
_symmetry_group_IT_number 15
_symmetry_cell_setting 'monoclinic'
loop_
_space_group_symop_operation_xyz
x,y,z
-x,y,1/2-z
-x,-y,-z
x,-y,1/2+z
1/2+x,1/2+y,z
1/2-x,1/2+y,1/2-z
1/2-x,1/2-y,-z
1/2+x,1/2-y,1/2+z
loop_
_atom_site_type_symbol
_atom_site_label
_atom_site_fract_x
_atom_site_fract_y
_atom_site_fract_z
Si Si1 0.975871 0.800750 0.393118
Si Si2 0.500000 0.271922 0.250000
Si Si3 0.506671 0.600783 0.046619
Si Si4 0.203352 0.418547 0.787991
Si Si5 0.644148 0.135749 0.831760
Si Si6 0.965389 0.585922 0.400874
Si Si7 0.326034 0.096120 0.508073
O O1 0.011352 0.840958 0.324199
O O2 0.038385 0.826945 0.489220
O O3 0.800135 0.820586 0.351692
O O4 0.030080 0.689280 0.394828
O O5 0.367140 0.190943 0.219843
O O6 0.628137 0.595295 0.142428
O O7 0.500000 0.500000 0.000000
O O8 0.347157 0.606442 0.034588
O O9 0.155619 0.514870 0.821756
O O10 0.148073 0.448610 0.693182
O O11 0.500000 0.172306 0.750000
O O12 0.619965 0.157028 0.907731
O O13 0.877835 0.618949 0.445110
O O14 0.095064 0.510408 0.456526
#
# Coordination Sequence:
#
# PCOD9284969 Si02
#       7
#     8   4   8   8   8   8   8
#     4  10  23  41  62  95 130 158 222 263 324 374
#     4  10  22  44  64  94 128 176 212 276 312 398
#     4  11  23  39  61  96 125 170 209 267 325 376
#     4  11  20  41  67  86 129 171 217 252 333 383
#     4  11  19  39  65  88 119 174 211 264 312 397
#     4  10  22  43  64  96 122 177 216 264 314 390
#     4  10  21  41  66  86 128 166 216 258 317 387
#
# _framework density 22.510715000000001
#
# number of rings (size 3 to 8) (size 9 to 14) (size 15 to 20)
#    0.000    1.538    5.385    0.923    0.000    3.692 
#   13.846    0.000    0.000    0.000    0.000    0.000 
#    0.000    0.000    0.000    0.000    0.000    0.000 
#
# Total GULP energy -144743.562852 kJ/mol
# GULP energy per Si atom -5567.060110 kJ/mol
# Density = 2.245948 g / cm^3
# Si number density = 22.510715 Si / 1000 Ang^3
#
#
#
# Elastic Constant Matrix: (Units=GPa)
#
#
# Indices 1 2 3 4 5 6 
#
# 1 53.1768 -4.8344 48.0129 0.0000 -12.3495 0.0000
# 2 -4.8344 43.7620 5.5546 0.0000 5.2007 0.0000
# 3 48.0129 5.5546 126.8941 0.0000 0.1648 0.0000
# 4 0.0000 0.0000 0.0000 17.8441 0.0000 3.8115
# 5 -12.3495 5.2007 0.1648 0.0000 59.3438 0.0000
# 6 0.0000 0.0000 0.0000 3.8115 0.0000 14.4351
#
#
#
# Elastic Compliance Matrix: (Units=1/GPa)
#
#
# Indices 1 2 3 4 5 6 
#
# 1 0.031626 0.004296 -0.012162 0.000000 0.006239 0.000000
# 2 0.004296 0.023805 -0.002666 0.000000 -0.001185 0.000000
# 3 -0.012162 -0.002666 0.012602 0.000000 -0.002332 0.000000
# 4 0.000000 0.000000 0.000000 0.059391 0.000000 -0.015682
# 5 0.006239 -0.001185 -0.002332 0.000000 0.018260 0.000000
# 6 0.000000 0.000000 0.000000 -0.015682 0.000000 0.073416
#
#
# Mechanical properties :
#
#
# Convention : Reuss Voigt Hill
#
# Bulk Modulus (GPa) = 21.29103 35.69988 28.49545
# Shear Modulus (GPa) = 19.54499 29.99792 24.77145
#
# Velocity S-wave (km/s) = 2.94981 3.65445 3.32087
# Velocity P-wave (km/s) = 4.59136 5.80518 5.23358
#
# Compressibility (1/GPa) = 0.04696814
#
# Stress axis : x y z
#
# Youngs Moduli (GPa) = 31.61958 42.00859 79.35113
#
# Poissons Ratio (x) = -0.18047 0.96510
# Poissons Ratio (y) = -0.13584 0.21155
# Poissons Ratio (z) = 0.38457 0.11199
#
# Static dielectric constant tensor:
#      x y z
#    x 1.859700 0.000000 -0.029200 
#    y 0.000000 1.999170 0.000000 
#    z -0.029200 0.000000 1.835370 
# 
# From -- ./inp_files/198017.got.cif
#   From: 2010.05.17/outbox.cif.g08.bks.cpg/sg15_100_cif.got.tgz:198017.got - 2010.06.03 18:47:42.
