data_PCOD9284365
_publ_section_title
;
Structure prediction by ZEFSAII (Michael W. Deem and Ramdas Pophale) SiO2 
 PCOD9284365
Probable space group: C 2/C
;
_chemical_formula_sum "Si O2"
_cell_formula_units_Z 48
_cell_length_a 15.251239
_cell_length_b 6.032861
_cell_length_c 24.130863
_cell_angle_alpha 90.000000
_cell_angle_beta 71.937790
_cell_angle_gamma 90.000000
_cell_volume 2110.834232
_symmetry_space_group_name_H-M "C 2/C"
_symmetry_group_IT_number 15
_symmetry_cell_setting 'monoclinic'
loop_
_space_group_symop_operation_xyz
x,y,z
-x,y,1/2-z
-x,-y,-z
x,-y,1/2+z
1/2+x,1/2+y,z
1/2-x,1/2+y,1/2-z
1/2-x,1/2-y,-z
1/2+x,1/2-y,1/2+z
loop_
_atom_site_type_symbol
_atom_site_label
_atom_site_fract_x
_atom_site_fract_y
_atom_site_fract_z
Si Si1 0.963313 0.686768 0.464835
Si Si2 0.587632 0.454751 0.694658
Si Si3 0.386045 0.851993 0.736667
Si Si4 0.259475 0.352541 0.178657
Si Si5 0.999114 0.356495 0.133001
Si Si6 0.881350 0.069346 0.074162
O O1 0.882759 0.815555 0.513597
O O2 0.000000 0.500000 0.500000
O O3 0.947484 0.544618 0.412544
O O4 0.043474 0.870328 0.441608
O O5 0.500000 0.385189 0.750000
O O6 0.592628 0.709700 0.712562
O O7 0.687803 0.349001 0.686078
O O8 0.559094 0.353626 0.641187
O O9 0.354422 0.697000 0.692101
O O10 0.295525 0.983185 0.771418
O O11 0.456937 0.018726 0.694381
O O12 0.287620 0.465234 0.115512
O O13 0.917699 0.254036 0.110969
#
# Coordination Sequence:
#
# PCOD9284365 Si02
#       6
#     8   8   8   8   8   8
#     4   9  20  39  71  99 129 169 227 273 330 395
#     4  12  27  39  58  96 135 176 215 267 339 400
#     4  12  24  41  63  94 133 176 222 267 332 411
#     4  12  23  40  63  93 130 171 225 275 329 400
#     4  11  23  43  66  97 135 174 218 279 337 394
#     4  10  21  40  70 101 125 172 227 277 330 396
#
# _framework density 22.739826000000001
#
# number of rings (size 3 to 8) (size 9 to 14) (size 15 to 20)
#    0.000    1.000    5.000    2.000    2.333    0.000 
#    0.000    0.833    0.000   10.000    0.000    0.000 
#    0.000    0.000    0.000    0.000    0.000    0.000 
#
# Total GULP energy -133842.576021 kJ/mol
# GULP energy per Si atom -5576.774001 kJ/mol
# Density = 2.268807 g / cm^3
# Si number density = 22.739826 Si / 1000 Ang^3
#
#
#
# Elastic Constant Matrix: (Units=GPa)
#
#
# Indices 1 2 3 4 5 6 
#
# 1 43.0228 19.9281 12.1224 0.0000 3.5062 0.0001
# 2 19.9281 90.4277 31.3818 0.0001 2.3214 0.0002
# 3 12.1224 31.3818 90.9043 0.0000 -13.3274 0.0000
# 4 0.0000 0.0001 0.0000 49.5016 0.0000 6.2989
# 5 3.5062 2.3214 -13.3274 0.0000 17.2903 0.0000
# 6 0.0001 0.0002 0.0000 6.2989 0.0000 36.1279
#
#
#
# Elastic Compliance Matrix: (Units=1/GPa)
#
#
# Indices 1 2 3 4 5 6 
#
# 1 0.026844 -0.004689 -0.003006 0.000000 -0.007131 0.000000
# 2 -0.004689 0.013896 -0.004855 0.000000 -0.004657 0.000000
# 3 -0.003006 -0.004855 0.014952 0.000000 0.012786 0.000000
# 4 0.000000 0.000000 0.000000 0.020660 0.000000 -0.003602
# 5 -0.007131 -0.004657 0.012786 0.000000 0.069763 0.000000
# 6 0.000000 0.000000 0.000000 -0.003602 0.000000 0.028307
#
#
# Mechanical properties :
#
#
# Convention : Reuss Voigt Hill
#
# Bulk Modulus (GPa) = 32.68890 39.02439 35.85664
# Shear Modulus (GPa) = 23.84129 31.31212 27.57671
#
# Velocity S-wave (km/s) = 3.24147 3.71478 3.48617
# Velocity P-wave (km/s) = 5.33066 5.96641 5.65747
#
# Compressibility (1/GPa) = 0.03059142
#
# Stress axis : x y z
#
# Youngs Moduli (GPa) = 37.25249 71.96180 66.88071
#
# Poissons Ratio (x) = 0.33745 0.20107
# Poissons Ratio (y) = 0.17469 0.32468
# Poissons Ratio (z) = 0.11199 0.34935
#
# Static dielectric constant tensor:
#      x y z
#    x 1.806130 0.000000 0.039990 
#    y 0.000000 1.897910 0.000000 
#    z 0.039990 0.000000 1.871250 
# 
# From -- ./inp_files/312047.got.cif
#   From: 2010.05.17/outbox.cif.g08.bks.cpg/sg15_157_cif.got.tgz:312047.got - 2010.06.03 18:47:42.
