data_PCOD9284069
_publ_section_title
;
Structure prediction by ZEFSAII (Michael W. Deem and Ramdas Pophale) SiO2 
 PCOD9284069
Probable space group: C 2/C
;
_chemical_formula_sum "Si O2"
_cell_formula_units_Z 48
_cell_length_a 7.775570
_cell_length_b 28.121947
_cell_length_c 14.364899
_cell_angle_alpha 90.000000
_cell_angle_beta 138.048176
_cell_angle_gamma 90.000000
_cell_volume 2099.835095
_symmetry_space_group_name_H-M "C 2/C"
_symmetry_group_IT_number 15
_symmetry_cell_setting 'monoclinic'
loop_
_space_group_symop_operation_xyz
x,y,z
-x,y,1/2-z
-x,-y,-z
x,-y,1/2+z
1/2+x,1/2+y,z
1/2-x,1/2+y,1/2-z
1/2-x,1/2-y,-z
1/2+x,1/2-y,1/2+z
loop_
_atom_site_type_symbol
_atom_site_label
_atom_site_fract_x
_atom_site_fract_y
_atom_site_fract_z
Si Si1 0.288416 0.859976 0.829857
Si Si2 0.531918 0.759651 0.653630
Si Si3 0.634742 0.609214 0.066931
Si Si4 0.294110 0.991227 0.586010
Si Si5 0.629152 0.343748 0.200614
Si Si6 0.078931 0.587264 0.935886
O O1 0.361272 0.804852 0.857555
O O2 0.283384 0.876991 0.720870
O O3 0.000000 0.864132 0.750000
O O4 0.432541 0.890741 0.965849
O O5 0.500000 0.770952 0.750000
O O6 0.705023 0.711575 0.717443
O O7 0.250000 0.750000 0.500000
O O8 0.766513 0.565226 0.066235
O O9 0.578572 0.647075 0.964225
O O10 0.346679 0.599044 0.991185
O O11 0.500000 0.999802 0.750000
O O12 0.396867 0.029549 0.552531
O O13 0.000000 0.000000 0.500000
O O14 0.500000 0.345915 0.250000
O O15 0.846942 0.385159 0.289287
#
# Coordination Sequence:
#
# PCOD9284069 Si02
#       6
#     8   8   8   8   8   8
#     4  10  22  40  64  94 127 165 214 266 322 390
#     4  11  23  40  62  92 130 172 215 263 324 392
#     4  10  22  41  65  91 127 171 214 271 332 391
#     4  10  21  40  66  94 126 171 221 272 334 397
#     4  11  23  40  64  96 132 173 220 272 328 392
#     4  10  21  41  64  93 129 168 218 272 327 394
#
# _framework density 22.858937999999998
#
# number of rings (size 3 to 8) (size 9 to 14) (size 15 to 20)
#    0.000    1.667    0.000    5.500    0.000    4.667 
#    0.000   13.333    0.000    4.000    0.000    1.167 
#    0.000    0.000    0.000    0.000    0.000    0.000 
#
# Total GULP energy -133853.878046 kJ/mol
# GULP energy per Si atom -5577.244919 kJ/mol
# Density = 2.280691 g / cm^3
# Si number density = 22.858938 Si / 1000 Ang^3
#
#
#
# Elastic Constant Matrix: (Units=GPa)
#
#
# Indices 1 2 3 4 5 6 
#
# 1 85.2951 55.0115 35.2850 0.0000 -17.4082 0.0000
# 2 55.0115 173.6789 41.9654 0.0000 -18.0551 0.0000
# 3 35.2850 41.9654 129.8914 0.0000 -19.3393 0.0000
# 4 0.0000 0.0000 0.0000 31.1149 0.0000 0.2202
# 5 -17.4082 -18.0551 -19.3393 0.0000 45.4429 0.0000
# 6 0.0000 0.0000 0.0000 0.2202 0.0000 53.5920
#
#
#
# Elastic Compliance Matrix: (Units=1/GPa)
#
#
# Indices 1 2 3 4 5 6 
#
# 1 0.016151 -0.004144 -0.002533 0.000000 0.003463 0.000000
# 2 -0.004144 0.007439 -0.001147 0.000000 0.000880 0.000000
# 3 -0.002533 -0.001147 0.009123 0.000000 0.002457 0.000000
# 4 0.000000 0.000000 0.000000 0.032140 0.000000 -0.000132
# 5 0.003463 0.000880 0.002457 0.000000 0.024727 0.000000
# 6 0.000000 0.000000 0.000000 -0.000132 0.000000 0.018660
#
#
# Mechanical properties :
#
#
# Convention : Reuss Voigt Hill
#
# Bulk Modulus (GPa) = 58.59588 72.59881 65.59735
# Shear Modulus (GPa) = 38.58741 43.13685 40.86213
#
# Velocity S-wave (km/s) = 4.11307 4.34878 4.23256
# Velocity P-wave (km/s) = 6.94592 7.55276 7.25569
#
# Compressibility (1/GPa) = 0.01706605
#
# Stress axis : x y z
#
# Youngs Moduli (GPa) = 61.91506 134.43019 109.61208
#
# Poissons Ratio (x) = 0.55704 0.27766
# Poissons Ratio (y) = 0.25656 0.12569
# Poissons Ratio (z) = 0.15684 0.15414
#
# Static dielectric constant tensor:
#      x y z
#    x 1.831390 0.000000 0.017100 
#    y 0.000000 2.325090 0.000000 
#    z 0.017100 0.000000 1.844310 
# 
# From -- ./inp_files/139015.got.cif
#   From: 2010.05.17/outbox.cif.g08.bks.cpg/sg15_70_cif.got.tgz:139015.got - 2010.06.03 18:47:42.
