data_PCOD9284931
_publ_section_title
;
Structure prediction by ZEFSAII (Michael W. Deem and Ramdas Pophale) SiO2 
 PCOD9284931
Probable space group: C 2/C
;
_chemical_formula_sum "Si O2"
_cell_formula_units_Z 64
_cell_length_a 7.980425
_cell_length_b 14.689371
_cell_length_c 28.381857
_cell_angle_alpha 90.000000
_cell_angle_beta 125.284157
_cell_angle_gamma 90.000000
_cell_volume 2715.928991
_symmetry_space_group_name_H-M "C 2/C"
_symmetry_group_IT_number 15
_symmetry_cell_setting 'monoclinic'
loop_
_space_group_symop_operation_xyz
x,y,z
-x,y,1/2-z
-x,-y,-z
x,-y,1/2+z
1/2+x,1/2+y,z
1/2-x,1/2+y,1/2-z
1/2-x,1/2-y,-z
1/2+x,1/2-y,1/2+z
loop_
_atom_site_type_symbol
_atom_site_label
_atom_site_fract_x
_atom_site_fract_y
_atom_site_fract_z
Si Si1 0.710246 0.074732 0.259384
Si Si2 0.955038 0.100463 0.790602
Si Si3 0.436083 0.644601 0.388086
Si Si4 0.316934 0.836464 0.400302
Si Si5 0.177028 0.107111 0.024545
Si Si6 0.325963 0.937454 0.994827
Si Si7 0.764311 0.234675 0.198580
Si Si8 0.504550 0.743073 0.928957
O O1 0.500000 0.045963 0.250000
O O2 0.854364 0.105099 0.326192
O O3 0.665899 0.152835 0.213465
O O4 0.830510 0.989359 0.257661
O O5 0.815958 0.167153 0.798310
O O6 0.000000 0.153255 0.750000
O O7 0.174040 0.088970 0.851662
O O8 0.367989 0.749557 0.376840
O O9 0.333278 0.607901 0.420502
O O10 0.672508 0.617557 0.436061
O O11 0.536257 0.870187 0.452399
O O12 0.167850 0.802946 0.418469
O O13 0.382824 0.162045 0.042409
O O14 0.002447 0.172816 0.972365
O O15 0.192045 0.007907 0.004279
O O16 0.500000 0.000000 0.000000
O O17 0.699704 0.234484 0.133416
O O18 0.000000 0.226103 0.250000
#
# Coordination Sequence:
#
# PCOD9284931 Si02
#       8
#     8   8   8   8   8   8   8   8
#     4  12  25  45  70 100 137 182 230 286 345 418
#     4  11  24  45  70  98 136 178 231 291 350 411
#     4  11  25  43  65  97 138 182 225 275 345 412
#     4  10  21  42  65  93 133 173 222 279 338 405
#     4  10  21  41  65  96 130 179 217 274 336 409
#     4  12  23  39  64  99 136 172 227 283 337 406
#     4  11  24  45  70 102 135 178 232 287 348 415
#     4   9  20  41  68  91 134 175 216 273 344 401
#
# _framework density 23.564682000000001
#
# number of rings (size 3 to 8) (size 9 to 14) (size 15 to 20)
#    0.000    1.250    1.250    5.625    1.750    4.000 
#    4.500    0.000    0.000    0.000    0.000    0.000 
#    0.000    0.000    0.000    0.000    0.000    0.000 
#
# Total GULP energy -178839.552845 kJ/mol
# GULP energy per Si atom -5588.736026 kJ/mol
# Density = 2.351105 g / cm^3
# Si number density = 23.564682 Si / 1000 Ang^3
#
#
#
# Elastic Constant Matrix: (Units=GPa)
#
#
# Indices 1 2 3 4 5 6 
#
# 1 64.3430 2.3550 7.3647 0.0000 14.3901 0.0000
# 2 2.3550 70.0960 12.2523 0.0000 2.6594 0.0000
# 3 7.3647 12.2523 105.7115 0.0000 16.9341 0.0000
# 4 0.0000 0.0000 0.0000 33.2852 0.0000 2.3217
# 5 14.3901 2.6594 16.9341 0.0000 39.9012 0.0000
# 6 0.0000 0.0000 0.0000 2.3217 0.0000 21.2776
#
#
#
# Elastic Compliance Matrix: (Units=1/GPa)
#
#
# Indices 1 2 3 4 5 6 
#
# 1 0.016916 -0.000309 -0.000181 0.000000 -0.006003 0.000000
# 2 -0.000309 0.014570 -0.001641 0.000000 -0.000163 0.000000
# 3 -0.000181 -0.001641 0.010337 0.000000 -0.004212 0.000000
# 4 0.000000 0.000000 0.000000 0.030274 0.000000 -0.003303
# 5 -0.006003 -0.000163 -0.004212 0.000000 0.029026 0.000000
# 6 0.000000 0.000000 0.000000 -0.003303 0.000000 0.047358
#
#
# Mechanical properties :
#
#
# Convention : Reuss Voigt Hill
#
# Bulk Modulus (GPa) = 26.62315 31.56607 29.09461
# Shear Modulus (GPa) = 30.25477 33.43803 31.84640
#
# Velocity S-wave (km/s) = 3.58705 3.77103 3.68019
# Velocity P-wave (km/s) = 5.33651 5.69083 5.51651
#
# Compressibility (1/GPa) = 0.03756129
#
# Stress axis : x y z
#
# Youngs Moduli (GPa) = 59.11442 68.63627 96.73678
#
# Poissons Ratio (x) = 0.02120 0.01751
# Poissons Ratio (y) = 0.01826 0.15875
# Poissons Ratio (z) = 0.01070 0.11263
#
# Static dielectric constant tensor:
#      x y z
#    x 1.967340 0.000000 0.035790 
#    y 0.000000 1.932270 0.000000 
#    z 0.035790 0.000000 1.920350 
# 
# From -- ./inp_files/308303.got.cif
#   From: 2010.05.17/outbox.cif.g08.bks.cpg/sg15_155_cif.got.tgz:308303.got - 2010.06.03 18:47:42.
