data_PCOD9284751
_publ_section_title
;
Structure prediction by ZEFSAII (Michael W. Deem and Ramdas Pophale) SiO2 
 PCOD9284751
Probable space group: C 2/C
;
_chemical_formula_sum "Si O2"
_cell_formula_units_Z 60
_cell_length_a 7.562520
_cell_length_b 31.113302
_cell_length_c 12.535947
_cell_angle_alpha 90.000000
_cell_angle_beta 78.309424
_cell_angle_gamma 90.000000
_cell_volume 2888.458263
_symmetry_space_group_name_H-M "C 2/C"
_symmetry_group_IT_number 15
_symmetry_cell_setting 'monoclinic'
loop_
_space_group_symop_operation_xyz
x,y,z
-x,y,1/2-z
-x,-y,-z
x,-y,1/2+z
1/2+x,1/2+y,z
1/2-x,1/2+y,1/2-z
1/2-x,1/2-y,-z
1/2+x,1/2-y,1/2+z
loop_
_atom_site_type_symbol
_atom_site_label
_atom_site_fract_x
_atom_site_fract_y
_atom_site_fract_z
Si Si1 0.500000 0.593828 0.250000
Si Si2 0.392560 0.461303 0.372764
Si Si3 0.735679 0.870198 0.331310
Si Si4 0.717919 0.834196 0.730928
Si Si5 0.334899 0.453908 0.965720
Si Si6 0.806029 0.373018 0.406495
Si Si7 0.208856 0.295314 0.950377
Si Si8 0.221800 0.699249 0.000952
O O1 0.674643 0.623328 0.249869
O O2 0.540615 0.565735 0.141907
O O3 0.500000 0.469505 0.250000
O O4 0.297032 0.415175 0.375591
O O5 0.543259 0.460896 0.445425
O O6 0.265818 0.501228 0.424233
O O7 0.518634 0.866758 0.361015
O O8 0.785397 0.872985 0.199668
O O9 0.798213 0.828931 0.393258
O O10 0.500000 0.840118 0.750000
O O11 0.762394 0.800254 0.820001
O O12 0.783342 0.819359 0.607055
O O13 0.204481 0.416514 0.023116
O O14 0.720138 0.334623 0.486402
O O15 0.994871 0.303679 0.975863
O O16 0.250000 0.250000 0.000000
O O17 0.250000 0.750000 0.000000
#
# Coordination Sequence:
#
# PCOD9284751 Si02
#       8
#     4   8   8   8   8   8   8   8
#     4  12  22  40  70  90 126 174 204 258 334 366
#     4  11  22  40  63  91 128 158 205 263 307 373
#     4  10  22  41  64  87 122 164 201 256 320 360
#     4  10  23  41  60  90 126 163 212 264 312 385
#     4  11  23  39  64  94 121 160 211 253 312 382
#     4  10  21  41  64  89 121 162 209 255 305 387
#     4  10  22  38  60  87 122 160 207 261 314 374
#     4  10  23  40  58  89 123 156 210 262 309 375
#
# _framework density 20.772328000000002
#
# number of rings (size 3 to 8) (size 9 to 14) (size 15 to 20)
#    0.000    1.600    3.333    0.800    3.733    1.600 
#    0.000    0.000    2.933    0.000    0.000    0.000 
#    0.000    0.000    0.000    0.000    0.000    0.000 
#
# Total GULP energy -167351.082514 kJ/mol
# GULP energy per Si atom -5578.369417 kJ/mol
# Density = 2.072505 g / cm^3
# Si number density = 20.772328 Si / 1000 Ang^3
#
#
#
# Elastic Constant Matrix: (Units=GPa)
#
#
# Indices 1 2 3 4 5 6 
#
# 1 28.6391 12.3913 24.6184 0.0000 3.5563 0.0000
# 2 12.3913 144.9330 61.4119 0.0000 12.8584 0.0000
# 3 24.6184 61.4119 152.0872 0.0000 12.6400 0.0000
# 4 0.0000 0.0000 0.0000 15.1788 0.0000 -5.5299
# 5 3.5563 12.8584 12.6400 0.0000 22.4983 0.0000
# 6 0.0000 0.0000 0.0000 -5.5299 0.0000 24.3479
#
#
#
# Elastic Compliance Matrix: (Units=1/GPa)
#
#
# Indices 1 2 3 4 5 6 
#
# 1 0.040788 -0.000662 -0.006116 0.000000 -0.002633 0.000000
# 2 -0.000662 0.008534 -0.003086 0.000000 -0.003039 0.000000
# 3 -0.006116 -0.003086 0.009005 0.000000 -0.002329 0.000000
# 4 0.000000 0.000000 0.000000 0.071824 0.000000 0.016313
# 5 -0.002633 -0.003039 -0.002329 0.000000 0.047909 0.000000
# 6 0.000000 0.000000 0.000000 0.016313 0.000000 0.044776
#
#
# Mechanical properties :
#
#
# Convention : Reuss Voigt Hill
#
# Bulk Modulus (GPa) = 25.90815 58.05582 41.98199
# Shear Modulus (GPa) = 19.57474 27.55417 23.56446
#
# Velocity S-wave (km/s) = 3.07310 3.64604 3.37176
# Velocity P-wave (km/s) = 5.00913 6.76270 5.95086
#
# Compressibility (1/GPa) = 0.03859789
#
# Stress axis : x y z
#
# Youngs Moduli (GPa) = 24.51687 117.18387 111.05073
#
# Poissons Ratio (x) = 0.07758 0.67922
# Poissons Ratio (y) = 0.01623 0.34271
# Poissons Ratio (z) = 0.14995 0.36164
#
# Static dielectric constant tensor:
#      x y z
#    x 1.814800 0.000000 -0.059570 
#    y 0.000000 1.802540 0.000000 
#    z -0.059570 0.000000 1.819610 
# 
# From -- ./inp_files/81351.got.cif
#   From: 2010.05.17/outbox.cif.g08.bks.cpg/sg15_41_cif.got.tgz:81351.got - 2010.06.03 18:47:42.
